
     RDKit          3D

 18 19  0  0  0  0  0  0  0  0999 V2000
   -1.1800    3.6220   -1.2090 O   0  0  0  0  0  0  0  0  0  0  0  0
   -0.5710    2.6180   -0.7560 C   0  0  0  0  0  0  0  0  0  0  0  0
    0.7830    2.4190   -0.8820 O   0  0  0  0  0  0  0  0  0  0  0  0
    1.4540    1.4730   -1.4750 O   0  0  0  0  0  0  0  0  0  0  0  0
    2.4260    0.9490   -0.8040 O   0  0  0  0  0  0  0  0  0  0  0  0
    2.1910    0.7980    0.5440 C   0  0  0  0  0  0  0  0  0  0  0  0
    2.4620   -0.6710    0.8750 C   0  0  0  0  0  0  0  0  0  0  0  0
    1.3040   -1.3760    1.1990 O   0  0  0  0  0  0  0  0  0  0  0  0
    0.5350   -2.1410    0.3320 C   0  0  0  0  0  0  0  0  0  0  0  0
    0.2270   -3.3540    0.6190 O   0  0  0  0  0  0  0  0  0  0  0  0
    0.0380   -1.6270   -0.9390 C   0  0  0  0  0  0  0  0  0  0  0  0
    0.0350   -2.4360   -1.9320 O   0  0  0  0  0  0  0  0  0  0  0  0
   -0.4030   -0.3170   -1.0240 O   0  0  0  0  0  0  0  0  0  0  0  0
   -1.3850    0.2960   -0.2680 C   0  0  2  0  0  0  0  0  0  0  0  0
   -1.7970   -0.3860    1.0180 C   0  0  0  0  0  0  0  0  0  0  0  0
   -3.1130    0.0510    0.7330 O   0  0  0  0  0  0  0  0  0  0  0  0
   -2.8040   -0.1840   -0.6070 C   0  0  0  0  0  0  0  0  0  0  0  0
   -1.2910    1.6580   -0.0940 O   0  0  0  0  0  0  0  0  0  0  0  0
  1  2  2  0
  2  3  1  0
  2 18  1  0
  3  4  1  0
  4  5  1  0
  5  6  1  0
  6  7  1  0
  7  8  1  0
  8  9  1  0
  9 10  2  0
  9 11  1  0
 11 12  2  0
 11 13  1  0
 13 14  1  0
 14 15  1  1
 14 17  1  0
 14 18  1  0
 15 16  1  0
 16 17  1  0
M  END
