
     RDKit          3D

 18 19  0  0  0  0  0  0  0  0999 V2000
   -2.4250    0.5190    0.9600 O   0  0  0  0  0  0  0  0  0  0  0  0
   -1.7510    0.4950   -0.0950 C   0  0  0  0  0  0  0  0  0  0  0  0
   -2.0530    1.4430   -1.0640 O   0  0  0  0  0  0  0  0  0  0  0  0
   -3.1000    2.3870   -0.8180 C   0  0  0  0  0  0  0  0  0  0  0  0
   -2.8440    3.1620    0.3020 O   0  0  0  0  0  0  0  0  0  0  0  0
   -0.6790   -0.5170   -0.2760 C   0  0  1  0  0  0  0  0  0  0  0  0
    0.6380    0.1750   -0.5780 C   0  0  2  0  0  0  0  0  0  0  0  0
    1.7620   -0.8270   -0.6740 C   0  0  0  0  0  0  0  0  0  0  0  0
    2.2850   -0.7660    0.6320 O   0  0  0  0  0  0  0  0  0  0  0  0
    2.3510    0.6310    0.7860 C   0  0  1  0  0  0  0  0  0  0  0  0
    3.2350    1.0810   -0.1960 O   0  0  0  0  0  0  0  0  0  0  0  0
    4.2160    1.7690    0.3170 O   0  0  0  0  0  0  0  0  0  0  0  0
    5.3500    1.1070    0.3630 O   0  0  0  0  0  0  0  0  0  0  0  0
    1.0440    0.9960    0.4580 O   0  0  0  0  0  0  0  0  0  0  0  0
   -0.6190   -1.3080    0.8410 O   0  0  0  0  0  0  0  0  0  0  0  0
   -1.5220   -2.3480    0.5850 C   0  0  0  0  0  0  0  0  0  0  0  0
   -1.3230   -2.5700   -0.8930 C   0  0  0  0  0  0  0  0  0  0  0  0
   -0.9650   -1.3340   -1.3590 O   0  0  0  0  0  0  0  0  0  0  0  0
  1  2  2  0
  2  3  1  0
  6  2  1  1
  3  4  1  0
  4  5  1  0
  6  7  1  0
  6 15  1  0
  6 18  1  0
  7  8  1  1
  7 14  1  0
  8  9  1  0
  9 10  1  0
 10 11  1  6
 10 14  1  0
 11 12  1  0
 12 13  1  0
 15 16  1  0
 16 17  1  0
 17 18  1  0
M  END
