
     RDKit          3D

 18 18  0  0  0  0  0  0  0  0999 V2000
   -5.5880   -0.6100    1.6820 O   0  0  0  0  0  0  0  0  0  0  0  0
   -5.1800   -1.1500    0.6220 C   0  0  0  0  0  0  0  0  0  0  0  0
   -5.9960   -1.9820   -0.1340 O   0  0  0  0  0  0  0  0  0  0  0  0
   -3.8820   -0.9150    0.1900 O   0  0  0  0  0  0  0  0  0  0  0  0
   -2.9770   -0.0900    0.8820 C   0  0  0  0  0  0  0  0  0  0  0  0
   -1.6660   -0.0930    0.0840 C   0  0  2  0  0  0  0  0  0  0  0  0
   -0.7130    0.7070    0.7090 O   0  0  0  0  0  0  0  0  0  0  0  0
   -0.0900    1.4310   -0.3160 C   0  0  1  0  0  0  0  0  0  0  0  0
    0.7340    0.5300   -1.2050 C   0  0  0  0  0  0  0  0  0  0  0  0
    1.7370   -0.1520   -0.5750 O   0  0  0  0  0  0  0  0  0  0  0  0
    2.6350    0.7380    0.0050 C   0  0  0  0  0  0  0  0  0  0  0  0
    3.7250   -0.0730    0.6800 C   0  0  0  0  0  0  0  0  0  0  0  0
    4.3670   -0.8540   -0.2550 O   0  0  0  0  0  0  0  0  0  0  0  0
    5.3040   -1.5460    0.3480 O   0  0  0  0  0  0  0  0  0  0  0  0
    6.3510   -0.7470    0.5180 O   0  0  0  0  0  0  0  0  0  0  0  0
   -1.2330    1.7960   -1.1140 O   0  0  0  0  0  0  0  0  0  0  0  0
   -1.9630    0.6170   -1.1880 C   0  0  0  0  0  0  0  0  0  0  0  0
   -2.7230    0.1730   -2.0850 O   0  0  0  0  0  0  0  0  0  0  0  0
  1  2  2  0
  2  3  1  0
  2  4  1  0
  4  5  1  0
  6  5  1  1
  6  7  1  0
  6 17  1  0
  7  8  1  0
  8  9  1  6
  8 16  1  0
  9 10  1  0
 10 11  1  0
 11 12  1  0
 12 13  1  0
 13 14  1  0
 14 15  1  0
 16 17  1  0
 17 18  2  0
M  END
