
     RDKit          3D

 28 29  0  0  0  0  0  0  0  0999 V2000
   -6.0070    1.6530   -1.3700 C   0  0  0  0  0  0  0  0  0  0  0  0
   -6.9460    0.7880   -0.5520 C   0  0  1  0  0  0  0  0  0  0  0  0
   -8.3450    1.0780   -1.1230 C   0  0  0  0  0  0  0  0  0  0  0  0
   -6.7410   -0.5590   -0.7120 O   0  0  0  0  0  0  0  0  0  0  0  0
   -6.6220   -1.1820    0.4950 C   0  0  0  0  0  0  0  0  0  0  0  0
   -5.4570   -0.6940    1.2730 C   0  0  0  0  0  0  0  0  0  0  0  0
   -4.1290   -0.9250    0.5380 C   0  0  2  0  0  0  0  0  0  0  0  0
   -4.0160   -2.4070    0.3310 C   0  0  0  0  0  0  0  0  0  0  0  0
   -3.1140   -0.3560    1.3570 N   0  0  0  0  0  0  0  0  0  0  0  0
   -1.8840   -0.0500    0.7510 C   0  0  2  0  0  0  0  0  0  0  0  0
   -1.5950   -0.6850   -0.5610 C   0  0  0  0  0  0  0  0  0  0  0  0
   -0.4760   -1.6470   -0.2570 C   0  0  0  0  0  0  0  0  0  0  0  0
   -0.1360   -2.6760   -0.8670 O   0  0  0  0  0  0  0  0  0  0  0  0
    0.1990   -1.1820    0.9250 N   0  0  0  0  0  0  0  0  0  0  0  0
    1.5430   -1.5070    1.3430 C   0  0  0  0  0  0  0  0  0  0  0  0
    2.4890   -0.5090    0.7570 C   0  0  0  0  0  0  0  0  0  0  0  0
    2.1270    0.8770    1.2390 C   0  0  0  0  0  0  0  0  0  0  0  0
    3.1500    1.8200    0.5900 C   0  0  0  0  0  0  0  0  0  0  0  0
    4.4790    1.3740    1.0670 C   0  0  0  0  0  0  0  0  0  0  0  0
    5.4700    0.9480    0.2990 C   0  0  0  0  0  0  0  0  0  0  0  0
    6.7390    0.5440    0.9870 C   0  0  0  0  0  0  0  0  0  0  0  0
    7.1750   -0.7830    0.4310 C   0  0  0  0  0  0  0  0  0  0  0  0
    7.5220   -0.5680   -1.0340 C   0  0  0  0  0  0  0  0  0  0  0  0
    6.2380   -0.2740   -1.7470 C   0  0  0  0  0  0  0  0  0  0  0  0
    5.4290    0.8390   -1.1660 C   0  0  2  0  0  0  0  0  0  0  0  0
    5.7730    2.1840   -1.8160 C   0  0  0  0  0  0  0  0  0  0  0  0
   -0.6960   -0.3340    1.6330 C   0  0  0  0  0  0  0  0  0  0  0  0
   -0.5730    0.1230    2.7750 O   0  0  0  0  0  0  0  0  0  0  0  0
  2  1  1  6
  2  3  1  0
  2  4  1  0
  4  5  1  0
  5  6  1  0
  6  7  1  0
  7  8  1  1
  7  9  1  0
 10  9  1  1
 10 11  1  0
 10 27  1  0
 11 12  1  0
 12 13  2  0
 12 14  1  0
 14 15  1  0
 14 27  1  0
 15 16  1  0
 16 17  1  0
 17 18  1  0
 18 19  1  0
 19 20  2  3
 20 21  1  0
 20 25  1  0
 21 22  1  0
 22 23  1  0
 23 24  1  0
 24 25  1  0
 25 26  1  6
 27 28  2  0
M  CHG  1   9   1
M  END
