
     RDKit          3D

 28 29  0  0  0  0  0  0  0  0999 V2000
   -2.7360   -2.9350   -3.9560 C   0  0  0  0  0  0  0  0  0  0  0  0
   -3.0900   -1.9540   -3.1580 C   0  0  0  0  0  0  0  0  0  0  0  0
   -2.5970   -1.9450   -1.7460 C   0  0  0  0  0  0  0  0  0  0  0  0
   -1.8250   -0.7480   -1.4940 N   0  0  0  0  0  0  0  0  0  0  0  0
   -2.4500    0.5250   -1.4920 C   0  0  0  0  0  0  0  0  0  0  0  0
   -3.4890    0.9400   -0.5610 C   0  0  2  0  0  0  0  0  0  0  0  0
   -3.8460    2.4030   -0.9470 C   0  0  0  0  0  0  0  0  0  0  0  0
   -3.6860    3.3510    0.2000 C   0  0  0  0  0  0  0  0  0  0  0  0
   -4.4990    2.9090    1.4090 C   0  0  0  0  0  0  0  0  0  0  0  0
   -4.6280    1.4010    1.4180 C   0  0  0  0  0  0  0  0  0  0  0  0
   -3.3460    0.8840    0.8320 N   0  0  0  0  0  0  0  0  0  0  0  0
   -0.4180   -0.8310   -1.4230 C   0  0  0  0  0  0  0  0  0  0  0  0
    0.1880    0.0660   -2.4530 O   0  0  0  0  0  0  0  0  0  0  0  0
    0.4850   -1.4350   -0.7480 C   0  0  0  0  0  0  0  0  0  0  0  0
    1.9100   -1.0910   -1.1740 C   0  0  0  0  0  0  0  0  0  0  0  0
    2.5130   -0.2090   -0.1360 C   0  0  0  0  0  0  0  0  0  0  0  0
    1.8910   -0.0100    0.9490 O   0  0  0  0  0  0  0  0  0  0  0  0
    3.7220    0.4170   -0.2760 O   0  0  0  0  0  0  0  0  0  0  0  0
    4.3080    1.2560    0.7400 C   0  0  2  0  0  0  0  0  0  0  0  0
    4.2990    2.7050    0.2150 C   0  0  0  0  0  0  0  0  0  0  0  0
    5.4590    3.3180    0.9590 C   0  0  0  0  0  0  0  0  0  0  0  0
    6.4640    2.2070    1.1570 C   0  0  0  0  0  0  0  0  0  0  0  0
    5.7760    0.9310    0.7900 C   0  0  0  0  0  0  0  0  0  0  0  0
    0.3270   -2.2530    0.4140 C   0  0  0  0  0  0  0  0  0  0  0  0
   -1.1000   -2.1710    1.0210 C   0  0  0  0  0  0  0  0  0  0  0  0
    1.1540   -2.9790    1.1110 C   0  0  0  0  0  0  0  0  0  0  0  0
    2.5790   -3.2330    0.9460 C   0  0  0  0  0  0  0  0  0  0  0  0
    0.5090   -3.6920    2.3180 C   0  0  0  0  0  0  0  0  0  0  0  0
  1  2  2  0
  2  3  1  0
  3  4  1  0
  4  5  1  0
  4 12  1  0
  6  5  1  6
  6  7  1  0
  6 11  1  0
  7  8  1  0
  8  9  1  0
  9 10  1  0
 10 11  1  0
 12 13  1  0
 12 14  2  3
 14 15  1  0
 14 24  1  0
 15 16  1  0
 16 17  2  0
 16 18  1  0
 19 18  1  6
 19 20  1  0
 19 23  1  0
 20 21  1  0
 21 22  1  0
 22 23  1  0
 24 25  1  0
 24 26  2  3
 26 27  1  0
 26 28  1  0
M  CHG  2  11   1  13  -1
M  END
