
     RDKit          3D

 28 27  0  0  0  0  0  0  0  0999 V2000
    8.2620   -0.2370   -3.3010 C   0  0  0  0  0  0  0  0  0  0  0  0
    8.9330   -0.4610   -1.9810 C   0  0  0  0  0  0  0  0  0  0  0  0
    8.1460   -1.2440   -1.0070 C   0  0  0  0  0  0  0  0  0  0  0  0
    6.8580   -0.7000   -0.5160 C   0  0  0  0  0  0  0  0  0  0  0  0
    5.7840   -0.4280   -1.4830 C   0  0  0  0  0  0  0  0  0  0  0  0
    4.5130    0.0350   -0.7380 C   0  0  0  0  0  0  0  0  0  0  0  0
    4.7830    1.2760    0.0000 C   0  0  0  0  0  0  0  0  0  0  0  0
    3.6600    1.9140    0.7520 C   0  0  0  0  0  0  0  0  0  0  0  0
    3.0350    1.2430    1.8780 C   0  0  0  0  0  0  0  0  0  0  0  0
    2.3690   -0.0550    1.7840 C   0  0  0  0  0  0  0  0  0  0  0  0
    1.2540   -0.1770    0.8100 C   0  0  0  0  0  0  0  0  0  0  0  0
    0.0990    0.7660    1.0440 C   0  0  0  0  0  0  0  0  0  0  0  0
   -0.5550    0.6010    2.3810 C   0  0  0  0  0  0  0  0  0  0  0  0
   -1.1280   -0.7430    2.6570 C   0  0  0  0  0  0  0  0  0  0  0  0
   -2.1810   -1.2200    1.7300 C   0  0  0  0  0  0  0  0  0  0  0  0
   -3.3920   -0.4060    1.6500 C   0  0  0  0  0  0  0  0  0  0  0  0
   -3.5210    0.6230    2.3470 O   0  0  0  0  0  0  0  0  0  0  0  0
   -4.4950   -0.7070    0.7980 N   0  0  0  0  0  0  0  0  0  0  0  0
   -5.6850    0.0590    0.6930 C   0  0  2  0  0  0  0  0  0  0  0  0
   -6.8540   -0.6680    1.3300 C   0  0  0  0  0  0  0  0  0  0  0  0
   -8.1150    0.0670    1.2700 C   0  0  0  0  0  0  0  0  0  0  0  0
   -8.8470    0.0730    0.2700 O   0  0  0  0  0  0  0  0  0  0  0  0
   -8.5310    0.8000    2.3790 O   0  0  0  0  0  0  0  0  0  0  0  0
   -5.9970    0.7330   -0.5600 C   0  0  0  0  0  0  0  0  0  0  0  0
   -6.1670    0.0810   -1.7810 N   0  0  2  0  0  0  0  0  0  0  0  0
   -4.8960    0.2590   -2.5240 C   0  0  0  0  0  0  0  0  0  0  0  0
   -7.1380    0.7990   -2.6420 C   0  0  0  0  0  0  0  0  0  0  0  0
   -6.5000   -1.2760   -1.8840 C   0  0  0  0  0  0  0  0  0  0  0  0
  1  2  1  0
  2  3  1  0
  3  4  1  0
  4  5  1  0
  5  6  1  0
  6  7  1  0
  7  8  1  0
  8  9  1  0
  9 10  1  0
 10 11  1  0
 11 12  1  0
 12 13  1  0
 13 14  1  0
 14 15  1  0
 15 16  1  0
 16 17  2  0
 16 18  1  0
 18 19  1  0
 19 20  1  6
 19 24  1  0
 20 21  1  0
 21 22  2  0
 21 23  1  0
 24 25  1  0
 25 26  1  6
 25 27  1  0
 25 28  1  0
M  CHG  2  23  -1  25   1
M  END
