
     RDKit          3D

 28 27  0  0  0  0  0  0  0  0999 V2000
   -2.5930   -0.6020    3.8430 C   0  0  0  0  0  0  0  0  0  0  0  0
   -2.3730   -0.0460    2.5010 C   0  0  0  0  0  0  0  0  0  0  0  0
   -1.4990   -0.5450    1.6270 C   0  0  0  0  0  0  0  0  0  0  0  0
   -0.7440   -1.6960    2.0500 C   0  0  0  0  0  0  0  0  0  0  0  0
   -0.8320   -2.2620    3.1980 N   0  0  0  0  0  0  0  0  0  0  0  0
   -1.3510    0.1350    0.3230 C   0  0  2  0  0  0  0  0  0  0  0  0
   -1.4290   -0.6370   -0.9090 C   0  0  0  0  0  0  0  0  0  0  0  0
   -2.7180   -1.3520   -1.1920 C   0  0  2  0  0  0  0  0  0  0  0  0
   -3.9080   -0.4660   -1.2880 C   0  0  0  0  0  0  0  0  0  0  0  0
   -2.9570   -2.4970   -0.2410 C   0  0  0  0  0  0  0  0  0  0  0  0
   -2.5970   -2.0250   -2.5770 C   0  0  0  0  0  0  0  0  0  0  0  0
   -0.3580    1.1390    0.3640 N   0  0  0  0  0  0  0  0  0  0  0  0
   -0.8210    2.5370    0.4870 C   0  0  0  0  0  0  0  0  0  0  0  0
   -1.0410    3.2590   -0.7760 C   0  0  1  0  0  0  0  0  0  0  0  0
    0.1750    3.3710   -1.6800 C   0  0  0  0  0  0  0  0  0  0  0  0
   -2.2010    2.8380   -1.6180 C   0  0  0  0  0  0  0  0  0  0  0  0
   -1.3330    4.6990   -0.3930 C   0  0  0  0  0  0  0  0  0  0  0  0
   -1.3410    5.0180    0.8060 O   0  0  0  0  0  0  0  0  0  0  0  0
   -1.5880    5.6460   -1.3590 O   0  0  0  0  0  0  0  0  0  0  0  0
    1.0410    1.0120    0.3320 C   0  0  0  0  0  0  0  0  0  0  0  0
    1.7330    2.1180    0.4540 O   0  0  0  0  0  0  0  0  0  0  0  0
    1.8410   -0.1670    0.1800 C   0  0  0  0  0  0  0  0  0  0  0  0
    3.2020   -0.1940    0.1770 C   0  0  0  0  0  0  0  0  0  0  0  0
    3.9550    1.0420    0.3390 C   0  0  0  0  0  0  0  0  0  0  0  0
    3.8330   -1.4900    0.0080 C   0  0  0  0  0  0  0  0  0  0  0  0
    5.0070   -1.9230   -0.0530 C   0  0  0  0  0  0  0  0  0  0  0  0
    5.1870   -3.4360   -0.2470 C   0  0  0  0  0  0  0  0  0  0  0  0
    6.2710   -1.1940    0.0250 C   0  0  0  0  0  0  0  0  0  0  0  0
  1  2  1  0
  2  3  2  3
  3  4  1  0
  3  6  1  0
  4  5  2  0
  6  7  1  6
  6 12  1  0
  7  8  1  0
  8  9  1  6
  8 10  1  0
  8 11  1  0
 12 13  1  0
 12 20  1  0
 13 14  1  0
 14 15  1  6
 14 16  1  0
 14 17  1  0
 17 18  2  0
 17 19  1  0
 20 21  2  0
 20 22  1  0
 22 23  2  3
 23 24  1  0
 23 25  1  0
 25 26  2  3
 26 27  1  0
 26 28  1  0
M  CHG  1  19  -1
M  END
