
     RDKit          3D

 27 28  0  0  0  0  0  0  0  0999 V2000
    6.4420   -0.2710   -1.4530 N   0  0  0  0  0  0  0  0  0  0  0  0
    5.8650    0.4650   -0.3700 C   0  0  1  0  0  0  0  0  0  0  0  0
    5.9330   -0.2110    0.9220 C   0  0  0  0  0  0  0  0  0  0  0  0
    5.4580    0.3430    1.9400 O   0  0  0  0  0  0  0  0  0  0  0  0
    6.5120   -1.4520    1.0490 O   0  0  0  0  0  0  0  0  0  0  0  0
    6.5970    2.1230   -0.3380 S   0  0  0  0  0  0  0  0  0  0  0  0
    5.9160    2.8440   -1.7400 O   0  0  0  0  0  0  0  0  0  0  0  0
    4.6460    1.7840   -2.2330 S   0  0  0  0  0  0  0  0  0  0  0  0
    4.4080    0.7900   -0.7230 C   0  0  1  0  0  0  0  0  0  0  0  0
    3.6940   -0.3800   -0.9660 O   0  0  0  0  0  0  0  0  0  0  0  0
    2.5080   -0.6480   -0.2610 C   0  0  0  0  0  0  0  0  0  0  0  0
    2.1630    0.2280    0.5760 O   0  0  0  0  0  0  0  0  0  0  0  0
    1.7330   -1.8970   -0.5120 C   0  0  0  0  0  0  0  0  0  0  0  0
    0.5970   -1.8660    0.3250 O   0  0  0  0  0  0  0  0  0  0  0  0
   -0.3310   -0.8380    0.1810 C   0  0  0  0  0  0  0  0  0  0  0  0
   -0.1070    0.0220   -0.7020 O   0  0  0  0  0  0  0  0  0  0  0  0
   -1.4490   -0.7530    0.9620 O   0  0  0  0  0  0  0  0  0  0  0  0
   -2.4120    0.2430    0.8660 C   0  0  0  0  0  0  0  0  0  0  0  0
   -3.0570    0.2260   -0.4780 C   0  0  1  0  0  0  0  0  0  0  0  0
   -3.5340   -1.1280   -0.9040 C   0  0  0  0  0  0  0  0  0  0  0  0
   -4.9100   -1.3990   -0.6370 N   0  0  0  0  0  0  0  0  0  0  0  0
   -5.5110   -0.4970    0.2970 C   0  0  0  0  0  0  0  0  0  0  0  0
   -5.2140    0.9500    0.0340 C   0  0  1  0  0  0  0  0  0  0  0  0
   -5.3250    1.7810    1.2530 C   0  0  0  0  0  0  0  0  0  0  0  0
   -4.3940    2.5760    1.5250 O   0  0  0  0  0  0  0  0  0  0  0  0
   -6.4270    1.6990    2.0890 O   0  0  0  0  0  0  0  0  0  0  0  0
   -4.0400    1.2010   -0.6240 O   0  0  0  0  0  0  0  0  0  0  0  0
  2  1  1  6
  2  3  1  0
  2  6  1  0
  2  9  1  0
  3  4  2  0
  3  5  1  0
  6  7  1  0
  7  8  1  0
  8  9  1  0
  9 10  1  6
 10 11  1  0
 11 12  2  0
 11 13  1  0
 13 14  1  0
 14 15  1  0
 15 16  2  0
 15 17  1  0
 17 18  1  0
 19 18  1  1
 19 20  1  0
 19 27  1  0
 20 21  1  0
 21 22  1  0
 22 23  1  0
 23 24  1  1
 23 27  1  0
 24 25  2  0
 24 26  1  0
M  END
