
     RDKit          3D

 28 29  0  0  0  0  0  0  0  0999 V2000
    4.3530   -3.1960    1.5120 C   0  0  0  0  0  0  0  0  0  0  0  0
    3.1280   -2.7150    0.7260 C   0  0  0  0  0  0  0  0  0  0  0  0
    2.5260   -1.6070    1.4270 N   0  0  0  0  0  0  0  0  0  0  0  0
    3.2860   -0.4120    1.4400 C   0  0  0  0  0  0  0  0  0  0  0  0
    3.3540    0.3010    0.1180 C   0  0  0  0  0  0  0  0  0  0  0  0
    1.9960    0.7240   -0.2870 C   0  0  0  0  0  0  0  0  0  0  0  0
    1.4410    1.9470   -0.3600 C   0  0  0  0  0  0  0  0  0  0  0  0
    2.2300    3.1480   -0.0170 C   0  0  0  0  0  0  0  0  0  0  0  0
   -0.0080    1.8310   -0.6070 C   0  0  0  0  0  0  0  0  0  0  0  0
   -0.9230    2.7670   -0.7260 C   0  0  0  0  0  0  0  0  0  0  0  0
   -2.3390    2.2550   -1.0030 C   0  0  0  0  0  0  0  0  0  0  0  0
   -0.8080    4.2070   -0.7030 C   0  0  0  0  0  0  0  0  0  0  0  0
    0.3230    4.9640   -0.6140 O   0  0  0  0  0  0  0  0  0  0  0  0
   -1.9360    4.9750   -0.7790 C   0  0  0  0  0  0  0  0  0  0  0  0
   -1.9120    6.4170   -0.7690 C   0  0  0  0  0  0  0  0  0  0  0  0
   -0.6770    7.1880   -0.6890 C   0  0  0  0  0  0  0  0  0  0  0  0
   -3.0100    7.0280   -0.8330 O   0  0  0  0  0  0  0  0  0  0  0  0
   -0.2760    0.4100   -0.6430 N   0  0  0  0  0  0  0  0  0  0  0  0
   -1.3920   -0.3870   -0.3030 C   0  0  0  0  0  0  0  0  0  0  0  0
   -1.2950   -1.7920   -0.8810 C   0  0  0  0  0  0  0  0  0  0  0  0
   -0.4120   -2.0900   -1.6340 O   0  0  0  0  0  0  0  0  0  0  0  0
   -2.3510   -2.7410   -0.4520 C   0  0  1  0  0  0  0  0  0  0  0  0
   -2.2210   -4.0730   -1.1680 C   0  0  0  0  0  0  0  0  0  0  0  0
   -3.3970   -4.8790   -0.6640 C   0  0  0  0  0  0  0  0  0  0  0  0
   -3.4360   -4.9970    0.6510 C   0  0  0  0  0  0  0  0  0  0  0  0
   -2.3540   -4.3410    1.4170 C   0  0  0  0  0  0  0  0  0  0  0  0
   -2.3380   -2.8780    1.0250 C   0  0  0  0  0  0  0  0  0  0  0  0
    1.0200   -0.2070   -0.9450 C   0  0  0  0  0  0  0  0  0  0  0  0
  1  2  1  0
  2  3  1  0
  3  4  1  0
  4  5  1  0
  5  6  1  0
  6  7  2  0
  6 28  1  0
  7  8  1  0
  7  9  1  0
  9 10  2  3
  9 18  1  0
 10 11  1  0
 10 12  1  0
 12 13  1  0
 12 14  2  3
 14 15  1  0
 15 16  1  0
 15 17  2  0
 18 19  1  0
 18 28  1  0
 19 20  1  0
 20 21  2  0
 22 20  1  1
 22 23  1  0
 22 27  1  0
 23 24  1  0
 24 25  2  0
 25 26  1  0
 26 27  1  0
M  CHG  1  13  -1
M  END
