
     RDKit          3D

 28 29  0  0  0  0  0  0  0  0999 V2000
    3.5660    3.0320    2.4440 C   0  0  0  0  0  0  0  0  0  0  0  0
    2.9890    3.9990    1.4510 C   0  0  0  0  0  0  0  0  0  0  0  0
    2.6670    3.2380    0.1580 C   0  0  0  0  0  0  0  0  0  0  0  0
    1.6370    2.1240    0.5020 C   0  0  0  0  0  0  0  0  0  0  0  0
    1.3750    1.4400   -0.7730 C   0  0  0  0  0  0  0  0  0  0  0  0
    0.3450    0.2700   -0.7050 C   0  0  2  0  0  0  0  0  0  0  0  0
    0.3590   -0.1050   -2.1190 O   0  0  0  0  0  0  0  0  0  0  0  0
   -0.9350    0.9150   -0.5320 C   0  0  0  0  0  0  0  0  0  0  0  0
   -2.2090    0.2730   -0.4650 N   0  0  0  0  0  0  0  0  0  0  0  0
   -2.8990   -0.1140    0.6970 C   0  0  0  0  0  0  0  0  0  0  0  0
   -3.9960   -0.7410    0.5780 O   0  0  0  0  0  0  0  0  0  0  0  0
   -2.4660    0.1510    2.0710 C   0  0  0  0  0  0  0  0  0  0  0  0
   -3.1090   -0.2720    3.2410 C   0  0  0  0  0  0  0  0  0  0  0  0
   -2.3920    0.1850    4.3200 C   0  0  0  0  0  0  0  0  0  0  0  0
   -1.3480    0.8620    3.7710 N   0  0  0  0  0  0  0  0  0  0  0  0
   -1.4280    0.8180    2.4940 O   0  0  0  0  0  0  0  0  0  0  0  0
   -2.9160    0.0890   -1.7440 C   0  0  2  0  0  0  0  0  0  0  0  0
   -4.1710    0.9250   -1.8140 C   0  0  0  0  0  0  0  0  0  0  0  0
   -4.8520    0.3700   -3.0380 C   0  0  0  0  0  0  0  0  0  0  0  0
   -4.1970   -0.9530   -3.3700 C   0  0  0  0  0  0  0  0  0  0  0  0
   -3.3980   -1.2570   -2.0730 C   0  0  0  0  0  0  0  0  0  0  0  0
    0.8770   -0.9230   -0.0370 C   0  0  1  0  0  0  0  0  0  0  0  0
    1.3230   -0.8950    1.3660 C   0  0  0  0  0  0  0  0  0  0  0  0
   -0.0770   -2.0780   -0.2490 C   0  0  0  0  0  0  0  0  0  0  0  0
    2.1550   -1.3210   -0.8190 C   0  0  0  0  0  0  0  0  0  0  0  0
    2.8470   -2.4940   -0.2750 C   0  0  1  0  0  0  0  0  0  0  0  0
    2.2080   -3.8300   -0.2150 C   0  0  0  0  0  0  0  0  0  0  0  0
    4.1950   -2.7130   -1.0290 C   0  0  0  0  0  0  0  0  0  0  0  0
  1  2  1  0
  2  3  1  0
  3  4  1  0
  4  5  1  0
  5  6  1  0
  6  7  1  6
  6  8  1  0
  6 22  1  0
  8  9  1  0
  9 10  1  0
 17  9  1  1
 10 11  2  0
 10 12  1  0
 12 13  2  0
 12 16  1  0
 13 14  1  0
 14 15  2  0
 15 16  1  0
 17 18  1  0
 17 21  1  0
 18 19  1  0
 19 20  1  0
 20 21  1  0
 22 23  1  1
 22 24  1  0
 22 25  1  0
 25 26  1  0
 26 27  1  6
 26 28  1  0
M  CHG  2   7  -1  15   1
M  END
