
     RDKit          3D

 24 26  0  0  0  0  0  0  0  0999 V2000
    8.2190   -0.7860    0.6350 C   0  0  0  0  0  0  0  0  0  0  0  0
    7.5040   -0.0290   -0.4190 C   0  0  0  0  0  0  0  0  0  0  0  0
    6.3020    0.4280   -0.1740 C   0  0  0  0  0  0  0  0  0  0  0  0
    5.5220    1.2040   -1.1990 C   0  0  0  0  0  0  0  0  0  0  0  0
    4.2650    0.4100   -1.4420 C   0  0  0  0  0  0  0  0  0  0  0  0
    4.0990   -0.5570   -2.3650 N   0  0  0  0  0  0  0  0  0  0  0  0
    2.8420   -1.0100   -2.2570 N   0  0  0  0  0  0  0  0  0  0  0  0
    2.2440   -0.3210   -1.2700 C   0  0  0  0  0  0  0  0  0  0  0  0
    0.8800   -0.5120   -0.8420 N   0  0  0  0  0  0  0  0  0  0  0  0
    0.4030    0.3330    0.2500 C   0  0  0  0  0  0  0  0  0  0  0  0
   -1.0140   -0.0060    0.5490 C   0  0  0  0  0  0  0  0  0  0  0  0
   -1.3240   -0.9760    1.4720 C   0  0  0  0  0  0  0  0  0  0  0  0
   -2.6350   -1.2930    1.7510 C   0  0  0  0  0  0  0  0  0  0  0  0
   -2.9670   -2.1950    2.6090 N   0  0  0  0  0  0  0  0  0  0  0  0
   -4.3550   -2.4850    2.8610 C   0  0  0  0  0  0  0  0  0  0  0  0
   -3.5720   -0.5940    1.0630 N   0  0  0  0  0  0  0  0  0  0  0  0
   -3.3050    0.3530    0.1610 C   0  0  0  0  0  0  0  0  0  0  0  0
   -4.3660    1.0770   -0.5530 C   0  0  0  0  0  0  0  0  0  0  0  0
   -5.6630    0.9160   -0.4230 C   0  0  0  0  0  0  0  0  0  0  0  0
   -6.4050    1.8390   -1.3220 C   0  0  0  0  0  0  0  0  0  0  0  0
   -5.3090    2.5680   -2.0000 C   0  0  0  0  0  0  0  0  0  0  0  0
   -4.1460    2.1170   -1.5450 C   0  0  0  0  0  0  0  0  0  0  0  0
   -2.0110    0.6490   -0.0980 N   0  0  0  0  0  0  0  0  0  0  0  0
    3.1210    0.5110   -0.8130 O   0  0  0  0  0  0  0  0  0  0  0  0
  1  2  1  0
  2  3  2  3
  3  4  1  0
  4  5  1  0
  5  6  2  0
  5 24  1  0
  6  7  1  0
  7  8  2  0
  8  9  1  0
  8 24  1  0
  9 10  1  0
 10 11  1  0
 11 12  2  0
 11 23  1  0
 12 13  1  0
 13 14  2  3
 13 16  1  0
 14 15  1  0
 16 17  1  0
 17 18  1  0
 17 23  2  0
 18 19  2  0
 18 22  1  0
 19 20  1  0
 20 21  1  0
 21 22  2  0
M  CHG  1  14   1
M  END
