
     RDKit          3D

 18 20  0  0  0  0  0  0  0  0999 V2000
   -2.4290   -1.0590   -1.3850 C   0  0  0  0  0  0  0  0  0  0  0  0
   -1.7780   -0.1160   -0.3870 C   0  0  2  0  0  0  0  0  0  0  0  0
   -0.3900   -0.4440   -0.1090 C   0  0  0  0  0  0  0  0  0  0  0  0
    0.6080    0.4390   -0.0840 N   0  0  0  0  0  0  0  0  0  0  0  0
    1.7520   -0.2190    0.1830 C   0  0  0  0  0  0  0  0  0  0  0  0
    3.0300    0.3040    0.2840 C   0  0  0  0  0  0  0  0  0  0  0  0
    3.2670    1.7370    0.1320 C   0  0  0  0  0  0  0  0  0  0  0  0
    4.5500    2.3090   -0.0320 N   0  0  0  0  0  0  0  0  0  0  0  0
    2.2740    2.5550    0.1400 O   0  0  0  0  0  0  0  0  0  0  0  0
    4.0490   -0.5610    0.5450 C   0  0  0  0  0  0  0  0  0  0  0  0
    3.7830   -1.9300    0.7050 C   0  0  0  0  0  0  0  0  0  0  0  0
    2.4920   -2.4190    0.5960 C   0  0  0  0  0  0  0  0  0  0  0  0
    1.4650   -1.5530    0.3310 C   0  0  0  0  0  0  0  0  0  0  0  0
    0.1390   -1.6420    0.1420 N   0  0  0  0  0  0  0  0  0  0  0  0
   -2.6710   -0.1120    0.8370 C   0  0  0  0  0  0  0  0  0  0  0  0
   -3.8930    0.6310    0.2910 C   0  0  0  0  0  0  0  0  0  0  0  0
   -3.4010    1.3360   -0.9780 C   0  0  0  0  0  0  0  0  0  0  0  0
   -1.9500    1.2730   -0.8030 N   0  0  0  0  0  0  0  0  0  0  0  0
  2  1  1  6
  2  3  1  0
  2 15  1  0
  2 18  1  0
  3  4  2  0
  3 14  1  0
  4  5  1  0
  5  6  2  0
  5 13  1  0
  6  7  1  0
  6 10  1  0
  7  8  1  0
  7  9  2  0
 10 11  2  0
 11 12  1  0
 12 13  2  0
 13 14  1  0
 15 16  1  0
 16 17  1  0
 17 18  1  0
M  CHG  1  18   1
M  END
