
     RDKit          3D

 18 18  0  0  0  0  0  0  0  0999 V2000
   -1.2590    3.8300    0.1390 C   0  0  0  0  0  0  0  0  0  0  0  0
   -0.9290    2.3760    0.0150 C   0  0  0  0  0  0  0  0  0  0  0  0
    0.1900    1.6660    0.3820 C   0  0  0  0  0  0  0  0  0  0  0  0
    0.2140    0.3560    0.1520 C   0  0  0  0  0  0  0  0  0  0  0  0
    1.3300   -0.5000    0.4920 N   0  0  0  0  0  0  0  0  0  0  0  0
    2.5200   -0.0840    1.0950 C   0  0  0  0  0  0  0  0  0  0  0  0
    2.7080    1.1090    1.3950 O   0  0  0  0  0  0  0  0  0  0  0  0
    3.6230   -1.0900    1.4020 C   0  0  2  0  0  0  0  0  0  0  0  0
    3.0150   -2.0030    2.2660 F   0  0  0  0  0  0  0  0  0  0  0  0
    4.6380   -0.4190    2.0480 F   0  0  0  0  0  0  0  0  0  0  0  0
    4.0330   -1.6750    0.2350 F   0  0  0  0  0  0  0  0  0  0  0  0
   -0.8750   -0.2220   -0.4380 C   0  0  0  0  0  0  0  0  0  0  0  0
   -1.1420   -1.5780   -0.8060 N   0  0  0  0  0  0  0  0  0  0  0  0
   -2.3830   -1.9120   -1.4190 C   0  0  0  0  0  0  0  0  0  0  0  0
   -3.2200   -1.0010   -1.6230 O   0  0  0  0  0  0  0  0  0  0  0  0
   -2.7100   -3.2720   -1.8140 C   0  0  0  0  0  0  0  0  0  0  0  0
   -1.9380   -4.2430   -1.6490 O   0  0  0  0  0  0  0  0  0  0  0  0
   -1.9660    1.0870   -0.6830 S   0  0  0  0  0  0  0  0  0  0  0  0
  1  2  1  0
  2  3  2  0
  2 18  1  0
  3  4  1  0
  4  5  1  0
  4 12  2  0
  5  6  1  0
  6  7  2  0
  6  8  1  0
  8  9  1  1
  8 10  1  0
  8 11  1  0
 12 13  1  0
 12 18  1  0
 13 14  1  0
 14 15  2  0
 14 16  1  0
 16 17  2  0
M  END
