
     RDKit          3D

 17 17  0  0  0  0  0  0  0  0999 V2000
   -4.8840    0.5700    0.9640 N   0  0  0  0  0  0  0  0  0  0  0  0
   -3.6190    0.9390    0.4440 C   0  0  0  0  0  0  0  0  0  0  0  0
   -3.5170    2.0490   -0.1490 O   0  0  0  0  0  0  0  0  0  0  0  0
   -2.4620    0.0370    0.6020 C   0  0  0  0  0  0  0  0  0  0  0  0
   -2.6650   -1.0320    1.2010 O   0  0  0  0  0  0  0  0  0  0  0  0
   -1.2250    0.4520    0.0670 N   0  0  0  0  0  0  0  0  0  0  0  0
   -0.0680   -0.3230    0.1520 C   0  0  0  0  0  0  0  0  0  0  0  0
   -0.0760   -1.6500    0.4730 C   0  0  0  0  0  0  0  0  0  0  0  0
    1.1240   -2.3630    0.5600 C   0  0  0  0  0  0  0  0  0  0  0  0
    1.0970   -3.6930    0.8840 F   0  0  0  0  0  0  0  0  0  0  0  0
    2.3140   -1.7190    0.3200 C   0  0  0  0  0  0  0  0  0  0  0  0
    3.5040   -2.3740    0.3940 F   0  0  0  0  0  0  0  0  0  0  0  0
    2.3580   -0.3710   -0.0100 C   0  0  0  0  0  0  0  0  0  0  0  0
    3.5810    0.2380   -0.2450 O   0  0  0  0  0  0  0  0  0  0  0  0
    3.6820    1.6050   -0.5830 C   0  0  0  0  0  0  0  0  0  0  0  0
    4.9600    2.0200   -0.7750 F   0  0  0  0  0  0  0  0  0  0  0  0
    1.1680    0.3000   -0.0870 C   0  0  0  0  0  0  0  0  0  0  0  0
  1  2  1  0
  2  3  2  0
  2  4  1  0
  4  5  2  0
  4  6  1  0
  6  7  1  0
  7  8  2  0
  7 17  1  0
  8  9  1  0
  9 10  1  0
  9 11  2  0
 11 12  1  0
 11 13  1  0
 13 14  1  0
 13 17  2  0
 14 15  1  0
 15 16  1  0
M  END
