
     RDKit          3D

 18 18  0  0  0  0  0  0  0  0999 V2000
    2.5210    1.6090    1.2980 C   0  0  0  0  0  0  0  0  0  0  0  0
    1.8100    0.5740    0.4160 C   0  0  0  0  0  0  0  0  0  0  0  0
    2.5670   -0.2940   -0.2410 C   0  0  0  0  0  0  0  0  0  0  0  0
    4.0000   -0.5450   -0.3600 C   0  0  2  0  0  0  0  0  0  0  0  0
    4.4970   -0.8350    0.8970 F   0  0  0  0  0  0  0  0  0  0  0  0
    4.7080    0.4720   -0.9430 F   0  0  0  0  0  0  0  0  0  0  0  0
    4.2170   -1.6780   -1.1280 F   0  0  0  0  0  0  0  0  0  0  0  0
    1.2940   -1.2830   -1.1140 S   0  0  0  0  0  0  0  0  0  0  0  0
   -0.1030   -0.3990   -0.4720 C   0  0  0  0  0  0  0  0  0  0  0  0
   -1.3860   -0.8370   -0.9160 N   0  0  0  0  0  0  0  0  0  0  0  0
   -2.6410   -0.7790   -0.3250 C   0  0  0  0  0  0  0  0  0  0  0  0
   -2.7730   -0.3120    0.8270 O   0  0  0  0  0  0  0  0  0  0  0  0
   -3.8590   -1.2600   -1.0220 C   0  0  0  0  0  0  0  0  0  0  0  0
   -5.0840   -1.1680   -0.3610 N   0  0  0  0  0  0  0  0  0  0  0  0
   -3.7670   -1.7280   -2.1630 O   0  0  0  0  0  0  0  0  0  0  0  0
    0.4430    0.5350    0.3040 C   0  0  0  0  0  0  0  0  0  0  0  0
   -0.3900    1.6590    0.8470 C   0  0  0  0  0  0  0  0  0  0  0  0
   -1.5490    1.9060    0.5420 O   0  0  0  0  0  0  0  0  0  0  0  0
  1  2  1  0
  2  3  2  0
  2 16  1  0
  3  4  1  0
  3  8  1  0
  4  5  1  1
  4  6  1  0
  4  7  1  0
  8  9  1  0
  9 10  1  0
  9 16  2  0
 10 11  1  0
 11 12  2  0
 11 13  1  0
 13 14  1  0
 13 15  2  0
 16 17  1  0
 17 18  2  0
M  END
