
     RDKit          3D

 21 21  0  0  0  0  0  0  0  0999 V2000
   -3.7700    1.5920   -0.7720 C   0  0  0  0  0  0  0  0  0  0  0  0
   -3.8660    1.3650    0.7040 C   0  0  1  0  0  0  0  0  0  0  0  0
   -4.3060    2.6660    1.3520 C   0  0  0  0  0  0  0  0  0  0  0  0
   -5.0000    0.3820    0.9270 C   0  0  0  0  0  0  0  0  0  0  0  0
   -2.6810    0.9570    1.3360 O   0  0  0  0  0  0  0  0  0  0  0  0
   -2.0450   -0.2100    0.9500 C   0  0  0  0  0  0  0  0  0  0  0  0
   -2.4820   -1.3920    1.5670 C   0  0  0  0  0  0  0  0  0  0  0  0
   -1.8710   -2.5700    1.2050 C   0  0  0  0  0  0  0  0  0  0  0  0
   -0.8580   -2.6210    0.2680 C   0  0  0  0  0  0  0  0  0  0  0  0
   -0.4380   -1.4570   -0.3290 C   0  0  0  0  0  0  0  0  0  0  0  0
   -1.0370   -0.2380    0.0160 C   0  0  0  0  0  0  0  0  0  0  0  0
   -0.5930    0.9640   -0.5640 N   0  0  0  0  0  0  0  0  0  0  0  0
    0.4760    1.0120   -1.5330 C   0  0  0  0  0  0  0  0  0  0  0  0
    1.8070    0.6290   -0.9220 C   0  0  0  0  0  0  0  0  0  0  0  0
    1.8360    0.3660    0.2620 O   0  0  0  0  0  0  0  0  0  0  0  0
    2.9860    0.6010   -1.8180 C   0  0  0  0  0  0  0  0  0  0  0  0
    4.1390    0.1700   -1.0810 N   0  0  0  0  0  0  0  0  0  0  0  0
    4.0370   -1.2260   -0.7510 C   0  0  0  0  0  0  0  0  0  0  0  0
    5.2660   -1.6950   -0.0210 C   0  0  0  0  0  0  0  0  0  0  0  0
    5.4330   -0.9650    1.1940 N   0  0  0  0  0  0  0  0  0  0  0  0
    6.8560   -1.5210    2.0880 S   0  0  0  0  0  0  0  0  0  0  0  0
  2  1  1  6
  2  3  1  0
  2  4  1  0
  2  5  1  0
  5  6  1  0
  6  7  2  0
  6 11  1  0
  7  8  1  0
  8  9  2  0
  9 10  1  0
 10 11  2  0
 11 12  1  0
 12 13  1  0
 13 14  1  0
 14 15  2  0
 14 16  1  0
 16 17  1  0
 17 18  1  0
 18 19  1  0
 19 20  1  0
 20 21  1  0
M  END
