
     RDKit          3D

 21 21  0  0  0  0  0  0  0  0999 V2000
   -1.7340    5.6290    1.8400 C   0  0  0  0  0  0  0  0  0  0  0  0
   -1.7960    4.4270    1.6980 C   0  0  0  0  0  0  0  0  0  0  0  0
   -1.8950    2.9500    1.5330 C   0  0  0  0  0  0  0  0  0  0  0  0
   -1.1760    2.6250    0.2780 C   0  0  0  0  0  0  0  0  0  0  0  0
   -1.1450    1.2300   -0.0990 N   0  0  0  0  0  0  0  0  0  0  0  0
   -2.3320    0.5070   -0.4820 C   0  0  0  0  0  0  0  0  0  0  0  0
   -1.9730   -0.9140   -0.8060 C   0  0  0  0  0  0  0  0  0  0  0  0
   -3.2010   -1.7220   -1.1970 C   0  0  1  0  0  0  0  0  0  0  0  0
   -4.2290   -1.7760   -0.1180 C   0  0  0  0  0  0  0  0  0  0  0  0
   -3.6990   -1.2820   -2.4100 O   0  0  0  0  0  0  0  0  0  0  0  0
    0.1000    0.5590   -0.1090 C   0  0  0  0  0  0  0  0  0  0  0  0
    0.6880    0.2500   -1.3030 N   0  0  0  0  0  0  0  0  0  0  0  0
    1.8770   -0.3590   -1.3360 C   0  0  0  0  0  0  0  0  0  0  0  0
    2.5070   -0.6730   -0.1240 C   0  0  0  0  0  0  0  0  0  0  0  0
    3.8000   -1.3390   -0.1880 C   0  0  0  0  0  0  0  0  0  0  0  0
    4.5080   -1.5540    0.8940 C   0  0  0  0  0  0  0  0  0  0  0  0
    4.4140   -1.8730   -1.7900 S   0  0  0  0  0  0  0  0  0  0  0  0
    6.0240   -2.6740   -1.5680 C   0  0  0  0  0  0  0  0  0  0  0  0
    1.9110   -0.3610    1.0390 N   0  0  0  0  0  0  0  0  0  0  0  0
    0.7100    0.2530    1.0800 C   0  0  0  0  0  0  0  0  0  0  0  0
    0.2100    0.5140    2.2010 O   0  0  0  0  0  0  0  0  0  0  0  0
  1  2  3  0
  2  3  1  0
  3  4  1  0
  4  5  1  0
  5  6  1  0
  5 11  1  0
  6  7  1  0
  7  8  1  0
  8  9  1  1
  8 10  1  0
 11 12  2  0
 11 20  1  0
 12 13  1  0
 13 14  2  0
 14 15  1  0
 14 19  1  0
 15 16  2  0
 15 17  1  0
 17 18  1  0
 19 20  1  0
 20 21  2  0
M  END
