
     RDKit          3D

 21 21  0  0  0  0  0  0  0  0999 V2000
    6.5020    0.4510   -1.9310 C   0  0  0  0  0  0  0  0  0  0  0  0
    6.2060   -0.1180   -0.7840 C   0  0  0  0  0  0  0  0  0  0  0  0
    4.8260   -0.4340   -0.4700 C   0  0  0  0  0  0  0  0  0  0  0  0
    4.4910   -1.0100    0.6780 C   0  0  0  0  0  0  0  0  0  0  0  0
    5.5990   -1.3180    1.6380 C   0  0  0  0  0  0  0  0  0  0  0  0
    3.5600   -0.0660   -1.6500 S   0  0  0  0  0  0  0  0  0  0  0  0
    1.9060   -0.3700   -0.9990 C   0  0  0  0  0  0  0  0  0  0  0  0
    1.5760    0.6340    0.0660 C   0  0  0  0  0  0  0  0  0  0  0  0
    0.2550    0.4300    0.6360 N   0  0  0  0  0  0  0  0  0  0  0  0
   -0.9480    0.4740   -0.0840 C   0  0  0  0  0  0  0  0  0  0  0  0
   -0.9260    0.7010   -1.3000 O   0  0  0  0  0  0  0  0  0  0  0  0
   -2.2330    0.2660    0.5160 N   0  0  0  0  0  0  0  0  0  0  0  0
   -3.4420    0.3110   -0.2120 C   0  0  0  0  0  0  0  0  0  0  0  0
   -4.2340    1.4100   -0.4420 C   0  0  0  0  0  0  0  0  0  0  0  0
   -3.9770    2.8010    0.0350 C   0  0  0  0  0  0  0  0  0  0  0  0
   -4.2820    2.9790    1.4890 C   0  0  0  0  0  0  0  0  0  0  0  0
   -5.2850    0.9630   -1.1870 N   0  0  0  0  0  0  0  0  0  0  0  0
   -5.1350   -0.2910   -1.3840 O   0  0  0  0  0  0  0  0  0  0  0  0
   -4.0450   -0.7480   -0.8240 C   0  0  0  0  0  0  0  0  0  0  0  0
   -3.6110   -2.1500   -0.8820 C   0  0  0  0  0  0  0  0  0  0  0  0
   -3.8570   -2.8930    0.4010 C   0  0  0  0  0  0  0  0  0  0  0  0
  1  2  2  0
  2  3  1  0
  3  4  2  3
  3  6  1  0
  4  5  1  0
  6  7  1  0
  7  8  1  0
  8  9  1  0
  9 10  1  0
 10 11  2  0
 10 12  1  0
 12 13  1  0
 13 14  1  0
 13 19  2  0
 14 15  1  0
 14 17  2  0
 15 16  1  0
 17 18  1  0
 18 19  1  0
 19 20  1  0
 20 21  1  0
M  END
