
     RDKit          3D

 21 21  0  0  0  0  0  0  0  0999 V2000
   -4.8880    0.7310   -1.5620 C   0  0  0  0  0  0  0  0  0  0  0  0
   -4.5350    1.3040   -0.2070 C   0  0  0  0  0  0  0  0  0  0  0  0
   -3.3930    0.4390    0.3210 C   0  0  0  0  0  0  0  0  0  0  0  0
   -2.2200    0.4290   -0.4960 C   0  0  0  0  0  0  0  0  0  0  0  0
   -2.2680    1.1510   -1.5780 O   0  0  0  0  0  0  0  0  0  0  0  0
   -1.0390   -0.2820   -0.2340 N   0  0  0  0  0  0  0  0  0  0  0  0
    0.0240   -0.1400   -1.2080 C   0  0  0  0  0  0  0  0  0  0  0  0
    1.1680    0.3630   -0.7600 C   0  0  0  0  0  0  0  0  0  0  0  0
    2.2800    0.5230   -1.7280 C   0  0  0  0  0  0  0  0  0  0  0  0
    3.3530   -0.2320   -1.2930 O   0  0  0  0  0  0  0  0  0  0  0  0
    3.8110    0.2010   -0.0590 C   0  0  1  0  0  0  0  0  0  0  0  0
    3.8360   -0.9320    0.9440 C   0  0  0  0  0  0  0  0  0  0  0  0
    5.2050   -0.9750    1.5530 C   0  0  0  0  0  0  0  0  0  0  0  0
    5.7230    0.4280    1.2790 C   0  0  0  0  0  0  0  0  0  0  0  0
    5.2620    0.6180   -0.1630 C   0  0  0  0  0  0  0  0  0  0  0  0
   -0.1550   -0.5230   -2.5620 N   0  0  0  0  0  0  0  0  0  0  0  0
   -0.4110    0.4030   -3.6460 C   0  0  0  0  0  0  0  0  0  0  0  0
   -3.6150   -0.1700    1.4180 C   0  0  0  0  0  0  0  0  0  0  0  0
   -4.9230    0.0310    2.0360 N   0  0  0  0  0  0  0  0  0  0  0  0
   -2.4880   -1.2340    2.2630 S   0  0  0  0  0  0  0  0  0  0  0  0
   -3.1610   -1.9120    3.7800 C   0  0  0  0  0  0  0  0  0  0  0  0
  1  2  1  0
  2  3  1  0
  3  4  1  0
  3 18  2  3
  4  5  2  0
  4  6  1  0
  6  7  1  0
  7  8  2  3
  7 16  1  0
  8  9  1  0
  9 10  1  0
 11 10  1  6
 11 12  1  0
 11 15  1  0
 12 13  1  0
 13 14  1  0
 14 15  1  0
 16 17  1  0
 18 19  1  0
 18 20  1  0
 20 21  1  0
M  END
