
     RDKit          3D

 21 21  0  0  0  0  0  0  0  0999 V2000
    0.4580   -0.1740    1.7660 C   0  0  0  0  0  0  0  0  0  0  0  0
   -0.2190    0.3880    0.6630 O   0  0  0  0  0  0  0  0  0  0  0  0
   -0.0540   -0.0160   -0.6470 C   0  0  0  0  0  0  0  0  0  0  0  0
   -0.8820   -1.0720   -1.2510 C   0  0  0  0  0  0  0  0  0  0  0  0
   -2.2910   -0.7840   -1.2950 N   0  0  0  0  0  0  0  0  0  0  0  0
   -3.0720   -0.5640   -0.1430 C   0  0  0  0  0  0  0  0  0  0  0  0
   -2.6090   -0.6080    1.0120 O   0  0  0  0  0  0  0  0  0  0  0  0
   -4.4820   -0.2710   -0.2720 N   0  0  0  0  0  0  0  0  0  0  0  0
   -5.3050   -0.0410    0.9000 C   0  0  2  0  0  0  0  0  0  0  0  0
   -6.4060   -1.0920    0.8820 C   0  0  0  0  0  0  0  0  0  0  0  0
   -5.9270    1.3410    0.8580 C   0  0  0  0  0  0  0  0  0  0  0  0
    0.9000    0.5940   -1.3650 C   0  0  0  0  0  0  0  0  0  0  0  0
    1.0660    0.1460   -2.7800 C   0  0  0  0  0  0  0  0  0  0  0  0
    1.6410    1.6010   -0.7820 N   0  0  0  0  0  0  0  0  0  0  0  0
    2.7770    1.6730   -0.2490 C   0  0  0  0  0  0  0  0  0  0  0  0
    3.6860    0.5780   -0.1020 C   0  0  0  0  0  0  0  0  0  0  0  0
    4.8790    0.5890    0.4350 C   0  0  0  0  0  0  0  0  0  0  0  0
    5.4780    1.8570    1.0030 C   0  0  0  0  0  0  0  0  0  0  0  0
    5.6020   -0.6630    0.4790 C   0  0  0  0  0  0  0  0  0  0  0  0
    5.1360   -1.6150   -0.5990 C   0  0  0  0  0  0  0  0  0  0  0  0
    3.3660   -1.0850   -0.6420 S   0  0  0  0  0  0  0  0  0  0  0  0
  1  2  1  0
  2  3  1  0
  3  4  1  0
  3 12  2  3
  4  5  1  0
  5  6  1  0
  6  7  2  0
  6  8  1  0
  8  9  1  0
  9 10  1  6
  9 11  1  0
 12 13  1  0
 12 14  1  0
 14 15  2  3
 15 16  1  0
 16 17  2  0
 16 21  1  0
 17 18  1  0
 17 19  1  0
 19 20  1  0
 20 21  1  0
M  END
