
     RDKit          3D

 25 26  0  0  0  0  0  0  0  0999 V2000
   -4.2030   -2.7520    0.7010 C   0  0  0  0  0  0  0  0  0  0  0  0
   -2.8660   -2.2460    0.7390 N   0  0  0  0  0  0  0  0  0  0  0  0
   -2.5860   -1.2950   -0.3510 C   0  0  1  0  0  0  0  0  0  0  0  0
   -3.5720   -0.1830   -0.3810 C   0  0  0  0  0  0  0  0  0  0  0  0
   -3.8390    0.4770    0.9250 C   0  0  0  0  0  0  0  0  0  0  0  0
   -2.7810    1.3590    1.2270 O   0  0  0  0  0  0  0  0  0  0  0  0
   -1.5280    1.4090    0.6410 C   0  0  0  0  0  0  0  0  0  0  0  0
   -1.0190    2.7050    0.8180 C   0  0  0  0  0  0  0  0  0  0  0  0
    0.2210    3.0200    0.3230 C   0  0  0  0  0  0  0  0  0  0  0  0
    0.7970    4.3220    0.4690 N   0  0  0  0  0  0  0  0  0  0  0  0
    0.9280    2.0510   -0.3320 C   0  0  0  0  0  0  0  0  0  0  0  0
    2.1780    2.3720   -0.8330 O   0  0  0  0  0  0  0  0  0  0  0  0
    2.4110    2.8780   -2.1180 C   0  0  0  0  0  0  0  0  0  0  0  0
    0.4520    0.7460   -0.5250 C   0  0  0  0  0  0  0  0  0  0  0  0
    1.2540   -0.1440   -1.1970 O   0  0  0  0  0  0  0  0  0  0  0  0
    2.1840   -1.0380   -0.7100 C   0  0  0  0  0  0  0  0  0  0  0  0
    3.3140   -0.4520    0.0990 C   0  0  1  0  0  0  0  0  0  0  0  0
    2.7490    0.1940    1.2630 N   0  0  0  0  0  0  0  0  0  0  0  0
    4.2650   -1.4900    0.5570 C   0  0  0  0  0  0  0  0  0  0  0  0
    4.4390   -1.6560    1.7900 O   0  0  0  0  0  0  0  0  0  0  0  0
    4.9770   -2.2910   -0.3300 O   0  0  0  0  0  0  0  0  0  0  0  0
    5.8090   -3.1960    0.1940 O   0  0  0  0  0  0  0  0  0  0  0  0
   -0.8040    0.4470   -0.0190 C   0  0  0  0  0  0  0  0  0  0  0  0
   -1.1540   -0.9370   -0.3010 C   0  0  2  0  0  0  0  0  0  0  0  0
   -0.5900   -1.2350   -1.5680 O   0  0  0  0  0  0  0  0  0  0  0  0
  1  2  1  0
  3  2  1  1
  3  4  1  0
  3 24  1  0
  4  5  1  0
  5  6  1  0
  6  7  1  0
  7  8  2  0
  7 23  1  0
  8  9  1  0
  9 10  1  0
  9 11  2  0
 11 12  1  0
 11 14  1  0
 12 13  1  0
 14 15  1  0
 14 23  2  0
 15 16  1  0
 16 17  1  0
 17 18  1  1
 17 19  1  0
 19 20  2  0
 19 21  1  0
 21 22  1  0
 23 24  1  0
 24 25  1  6
M  CHG  1   2   1
M  END
