
     RDKit          3D

 20 22  0  0  0  0  0  0  0  0999 V2000
   -0.3000    2.5760   -1.0040 Cl  0  0  0  0  0  0  0  0  0  0  0  0
   -1.4830    2.0180    0.1860 C   0  0  0  0  0  0  0  0  0  0  0  0
   -1.5640    0.5180    0.2000 C   0  0  2  0  0  0  0  0  0  0  0  0
   -0.1510    0.0820    0.5470 C   0  0  0  0  0  0  0  0  0  0  0  0
    0.4220   -0.4040    1.4770 N   0  0  0  0  0  0  0  0  0  0  0  0
    1.6830   -0.6320    1.4910 N   0  0  0  0  0  0  0  0  0  0  0  0
    2.4510   -0.3840    0.5670 C   0  0  0  0  0  0  0  0  0  0  0  0
    3.8550   -0.4590    0.3500 N   0  0  0  0  0  0  0  0  0  0  0  0
    4.5510   -0.2750   -0.8860 C   0  0  0  0  0  0  0  0  0  0  0  0
    6.0010   -0.1830   -0.5690 C   0  0  0  0  0  0  0  0  0  0  0  0
    6.8590   -1.1900   -0.3180 C   0  0  0  0  0  0  0  0  0  0  0  0
    7.8630   -0.2070   -0.1660 N   0  0  0  0  0  0  0  0  0  0  0  0
    7.0530    0.7650   -0.4130 C   0  0  0  0  0  0  0  0  0  0  0  0
    1.2290    0.3290   -0.6430 S   0  0  0  0  0  0  0  0  0  0  0  0
   -1.9380   -0.0940   -1.0770 C   0  0  0  0  0  0  0  0  0  0  0  0
   -3.4380   -0.1050   -1.3150 C   0  0  0  0  0  0  0  0  0  0  0  0
   -4.1300   -1.1890   -0.5240 C   0  0  0  0  0  0  0  0  0  0  0  0
   -4.6790   -0.7080    0.7900 C   0  0  0  0  0  0  0  0  0  0  0  0
   -3.7820    0.3690    1.4150 C   0  0  0  0  0  0  0  0  0  0  0  0
   -2.3460    0.0150    1.3880 C   0  0  0  0  0  0  0  0  0  0  0  0
  1  2  1  0
  3  2  1  6
  3  4  1  0
  3 15  1  0
  3 20  1  0
  4  5  2  0
  4 14  1  0
  5  6  1  0
  6  7  2  0
  7  8  1  0
  7 14  1  0
  8  9  1  0
  9 10  1  0
 10 11  2  0
 10 13  1  0
 11 12  1  0
 12 13  2  0
 15 16  1  0
 16 17  1  0
 17 18  1  0
 18 19  1  0
 19 20  1  0
M  END
