
     RDKit          3D

 19 21  0  0  0  0  0  0  0  0999 V2000
    2.5660   -0.1580   -0.6920 C   0  0  0  0  0  0  0  0  0  0  0  0
    1.4440    0.3150   -0.1990 C   0  0  0  0  0  0  0  0  0  0  0  0
    0.1800    0.0630   -0.8920 C   0  0  0  0  0  0  0  0  0  0  0  0
    0.0320   -0.6370   -2.0380 N   0  0  0  0  0  0  0  0  0  0  0  0
   -1.2450   -0.6590   -2.3680 N   0  0  0  0  0  0  0  0  0  0  0  0
   -1.9060    0.0370   -1.4150 C   0  0  0  0  0  0  0  0  0  0  0  0
   -3.3730    0.2780   -1.3770 C   0  0  0  0  0  0  0  0  0  0  0  0
   -3.7220    0.9990   -0.1750 N   0  0  0  0  0  0  0  0  0  0  0  0
   -5.1430    1.2350   -0.1690 C   0  0  0  0  0  0  0  0  0  0  0  0
   -5.7130   -0.0680    0.3200 C   0  0  0  0  0  0  0  0  0  0  0  0
   -4.7540   -0.3920    1.4610 C   0  0  0  0  0  0  0  0  0  0  0  0
   -3.4220    0.1690    0.9680 C   0  0  0  0  0  0  0  0  0  0  0  0
   -1.0400    0.4910   -0.4950 N   0  0  0  0  0  0  0  0  0  0  0  0
    3.8670    0.0420   -0.0730 C   0  0  0  0  0  0  0  0  0  0  0  0
    4.9680   -0.4780   -0.6510 C   0  0  0  0  0  0  0  0  0  0  0  0
    6.3210   -0.3140   -0.0780 C   0  0  0  0  0  0  0  0  0  0  0  0
    6.3530   -0.9890    1.2730 C   0  0  0  0  0  0  0  0  0  0  0  0
    5.1340   -0.1440    2.3140 S   0  0  0  0  0  0  0  0  0  0  0  0
    4.0410    0.7930    1.1730 C   0  0  0  0  0  0  0  0  0  0  0  0
  1  2  2  3
  1 14  1  0
  2  3  1  0
  3  4  2  0
  3 13  1  0
  4  5  1  0
  5  6  1  0
  6  7  1  0
  6 13  2  0
  7  8  1  0
  8  9  1  0
  8 12  1  0
  9 10  1  0
 10 11  1  0
 11 12  1  0
 14 15  2  0
 14 19  1  0
 15 16  1  0
 16 17  1  0
 17 18  1  0
 18 19  1  0
M  END
