
     RDKit          3D

 20 21  0  0  0  0  0  0  0  0999 V2000
   -1.1050   -2.1490   -1.4330 C   0  0  0  0  0  0  0  0  0  0  0  0
    0.0550   -1.4600   -0.8040 C   0  0  0  0  0  0  0  0  0  0  0  0
    1.1550   -2.1840   -0.7350 N   0  0  0  0  0  0  0  0  0  0  0  0
    2.4140   -1.8930   -0.2320 N   0  0  0  0  0  0  0  0  0  0  0  0
    3.3200   -2.9670   -0.2630 C   0  0  0  0  0  0  0  0  0  0  0  0
    4.5650   -2.8090    0.1450 C   0  0  0  0  0  0  0  0  0  0  0  0
    5.0090   -1.5110    0.6330 C   0  0  0  0  0  0  0  0  0  0  0  0
    4.2220   -0.4820    0.6870 N   0  0  0  0  0  0  0  0  0  0  0  0
    2.8860   -0.6380    0.2530 C   0  0  0  0  0  0  0  0  0  0  0  0
    2.1920    0.4670    0.4100 C   0  0  0  0  0  0  0  0  0  0  0  0
    0.7920    0.6920    0.1400 C   0  0  0  0  0  0  0  0  0  0  0  0
    0.2810    1.9720    0.4590 N   0  0  0  0  0  0  0  0  0  0  0  0
    0.6230    3.1360   -0.3140 C   0  0  0  0  0  0  0  0  0  0  0  0
   -0.0540    4.3820    0.2330 C   0  0  0  0  0  0  0  0  0  0  0  0
    0.4570    4.6570    1.9150 Cl  0  0  0  0  0  0  0  0  0  0  0  0
   -0.1900   -0.1070   -0.3850 C   0  0  0  0  0  0  0  0  0  0  0  0
   -1.7720    0.5790   -0.4170 S   0  0  0  0  0  0  0  0  0  0  0  0
   -3.2340   -0.3580   -0.3900 C   0  0  1  0  0  0  0  0  0  0  0  0
   -3.3940   -1.0850    0.9620 C   0  0  0  0  0  0  0  0  0  0  0  0
   -4.4270    0.6580   -0.3560 C   0  0  0  0  0  0  0  0  0  0  0  0
  1  2  1  0
  2  3  2  0
  2 16  1  0
  3  4  1  0
  4  5  1  0
  4  9  1  0
  5  6  2  0
  6  7  1  0
  7  8  2  0
  8  9  1  0
  9 10  2  0
 10 11  1  0
 11 12  1  0
 11 16  2  0
 12 13  1  0
 13 14  1  0
 14 15  1  0
 16 17  1  0
 17 18  1  0
 18 19  1  1
 18 20  1  0
M  END
