
     RDKit          3D

 20 22  0  0  0  0  0  0  0  0999 V2000
    6.8810   -0.5540   -0.4260 C   0  0  0  0  0  0  0  0  0  0  0  0
    5.5360   -0.9060    0.1520 C   0  0  0  0  0  0  0  0  0  0  0  0
    4.4870   -0.2090   -0.2250 C   0  0  0  0  0  0  0  0  0  0  0  0
    4.4530    0.8820   -1.1520 N   0  0  0  0  0  0  0  0  0  0  0  0
    3.2520    1.3070   -1.2470 C   0  0  0  0  0  0  0  0  0  0  0  0
    2.6940    2.6250   -2.2500 Cl  0  0  0  0  0  0  0  0  0  0  0  0
    2.3790    0.5230   -0.3780 C   0  0  0  0  0  0  0  0  0  0  0  0
    0.9620    0.7140   -0.2230 C   0  0  0  0  0  0  0  0  0  0  0  0
   -0.0850   -0.0090   -0.1870 N   0  0  0  0  0  0  0  0  0  0  0  0
   -1.2850    0.4050    0.0030 C   0  0  0  0  0  0  0  0  0  0  0  0
   -2.5250   -0.4810    0.0280 C   0  0  0  0  0  0  0  0  0  0  0  0
   -3.6660    0.3370   -0.1950 N   0  0  0  0  0  0  0  0  0  0  0  0
   -4.9290   -0.2980   -0.2160 C   0  0  1  0  0  0  0  0  0  0  0  0
   -5.5170   -1.0130    0.9350 C   0  0  0  0  0  0  0  0  0  0  0  0
   -6.0970    0.3250    0.5250 C   0  0  0  0  0  0  0  0  0  0  0  0
   -1.4590    1.7860    0.1920 C   0  0  0  0  0  0  0  0  0  0  0  0
    0.2180    2.3770    0.0660 S   0  0  0  0  0  0  0  0  0  0  0  0
    3.1200   -0.3740    0.2240 C   0  0  0  0  0  0  0  0  0  0  0  0
    2.6590   -1.3590    1.1830 C   0  0  0  0  0  0  0  0  0  0  0  0
    2.2950   -2.1220    1.9500 N   0  0  0  0  0  0  0  0  0  0  0  0
  1  2  1  0
  2  3  2  3
  3  4  1  0
  3 18  1  0
  4  5  2  0
  5  6  1  0
  5  7  1  0
  7  8  1  0
  7 18  2  0
  8  9  2  0
  8 17  1  0
  9 10  1  0
 10 11  1  0
 10 16  2  0
 11 12  1  0
 13 12  1  1
 13 14  1  0
 13 15  1  0
 14 15  1  0
 16 17  1  0
 18 19  1  0
 19 20  3  0
M  END
