
     RDKit          3D

 25 25  0  0  0  0  0  0  0  0999 V2000
    0.7810   -2.1630   -1.5940 C   0  0  0  0  0  0  0  0  0  0  0  0
    1.2910   -2.3020   -0.1760 C   0  0  1  0  0  0  0  0  0  0  0  0
    2.6890   -2.0880   -0.0200 N   0  0  0  0  0  0  0  0  0  0  0  0
    3.4390   -0.9040   -0.1560 C   0  0  0  0  0  0  0  0  0  0  0  0
    4.3680   -0.8670   -1.0490 O   0  0  0  0  0  0  0  0  0  0  0  0
    3.3130    0.3540    0.6090 C   0  0  1  0  0  0  0  0  0  0  0  0
    4.6190    0.6640    1.3090 C   0  0  0  0  0  0  0  0  0  0  0  0
    5.7630    0.8380    0.4970 N   0  0  0  0  0  0  0  0  0  0  0  0
    4.7290    0.7710    2.5450 O   0  0  0  0  0  0  0  0  0  0  0  0
    3.0430    1.5380   -0.2650 C   0  0  0  0  0  0  0  0  0  0  0  0
    2.2840    1.2670   -1.4970 C   0  0  0  0  0  0  0  0  0  0  0  0
    2.9260    0.7400   -2.4710 O   0  0  0  0  0  0  0  0  0  0  0  0
    0.9640    1.5150   -1.7220 O   0  0  0  0  0  0  0  0  0  0  0  0
    0.0020    2.1030   -0.9300 C   0  0  0  0  0  0  0  0  0  0  0  0
   -0.4260    1.3670    0.2880 C   0  0  0  0  0  0  0  0  0  0  0  0
   -1.2330    0.1300    0.0660 C   0  0  2  0  0  0  0  0  0  0  0  0
   -1.7420    0.0870   -1.3820 C   0  0  0  0  0  0  0  0  0  0  0  0
   -2.5270    0.3680    0.8810 C   0  0  0  0  0  0  0  0  0  0  0  0
   -3.4870   -0.7620    0.7990 C   0  0  2  0  0  0  0  0  0  0  0  0
   -3.9470   -1.0770   -0.4560 O   0  0  0  0  0  0  0  0  0  0  0  0
   -4.7130   -0.3310    1.6160 C   0  0  0  0  0  0  0  0  0  0  0  0
   -5.3260    0.8340    0.9630 N   0  0  0  0  0  0  0  0  0  0  0  0
   -0.7190   -1.0580    0.4930 O   0  0  0  0  0  0  0  0  0  0  0  0
    0.4160   -1.6510    0.8330 C   0  0  0  0  0  0  0  0  0  0  0  0
    0.8620   -1.7250    2.0200 O   0  0  0  0  0  0  0  0  0  0  0  0
  2  1  1  6
  2  3  1  0
  2 24  1  0
  3  4  1  0
  4  5  2  0
  4  6  1  0
  6  7  1  6
  6 10  1  0
  7  8  1  0
  7  9  2  0
 10 11  1  0
 11 12  2  0
 11 13  1  0
 13 14  1  0
 14 15  1  0
 15 16  1  0
 16 17  1  6
 16 18  1  0
 16 23  1  0
 18 19  1  0
 19 20  1  6
 19 21  1  0
 21 22  1  0
 23 24  1  0
 24 25  2  0
M  CHG  1  22   1
M  END
