
     RDKit          3D

 24 25  0  0  0  0  0  0  0  0999 V2000
    6.7310   -1.6040    1.3650 C   0  0  0  0  0  0  0  0  0  0  0  0
    5.4150   -2.0710    0.8590 C   0  0  0  0  0  0  0  0  0  0  0  0
    4.4540   -1.0280    0.7610 O   0  0  0  0  0  0  0  0  0  0  0  0
    3.1750   -1.2250    0.3200 C   0  0  0  0  0  0  0  0  0  0  0  0
    2.7870   -2.3700   -0.0270 O   0  0  0  0  0  0  0  0  0  0  0  0
    2.2040   -0.1710    0.2200 N   0  0  0  0  0  0  0  0  0  0  0  0
    0.8760   -0.3880   -0.2400 C   0  0  0  0  0  0  0  0  0  0  0  0
   -0.0040    0.8410   -0.2930 C   0  0  2  0  0  0  0  0  0  0  0  0
   -0.0770    1.3730    0.9250 O   0  0  0  0  0  0  0  0  0  0  0  0
    0.0430    2.6420    1.2700 C   0  0  0  0  0  0  0  0  0  0  0  0
    1.3110    3.3750    1.0010 C   0  0  0  0  0  0  0  0  0  0  0  0
    1.6760    3.4850   -0.3600 N   0  0  0  0  0  0  0  0  0  0  0  0
   -1.3870    0.2420   -0.5680 C   0  0  0  0  0  0  0  0  0  0  0  0
   -2.0290    0.5870   -1.6490 C   0  0  0  0  0  0  0  0  0  0  0  0
   -1.4150    1.5130   -2.5370 N   0  0  0  0  0  0  0  0  0  0  0  0
   -3.3460    0.0750   -2.0000 C   0  0  0  0  0  0  0  0  0  0  0  0
   -3.9280   -0.7860   -1.1840 C   0  0  0  0  0  0  0  0  0  0  0  0
   -5.2700   -1.3590   -1.4670 C   0  0  0  0  0  0  0  0  0  0  0  0
   -5.8900   -1.6310   -0.2580 O   0  0  0  0  0  0  0  0  0  0  0  0
   -5.1720   -2.5740    0.4900 C   0  0  0  0  0  0  0  0  0  0  0  0
   -3.8250   -2.0440    0.8350 C   0  0  0  0  0  0  0  0  0  0  0  0
   -3.2150   -2.4510    1.9810 O   0  0  0  0  0  0  0  0  0  0  0  0
   -3.2390   -1.1890    0.0270 C   0  0  0  0  0  0  0  0  0  0  0  0
   -1.9720   -0.6520    0.2970 O   0  0  0  0  0  0  0  0  0  0  0  0
  1  2  1  0
  2  3  1  0
  3  4  1  0
  4  5  2  0
  4  6  1  0
  6  7  1  0
  8  7  1  1
  8  9  1  0
  8 13  1  0
  9 10  1  0
 10 11  1  0
 11 12  1  0
 13 14  2  0
 13 24  1  0
 14 15  1  0
 14 16  1  0
 16 17  2  0
 17 18  1  0
 17 23  1  0
 18 19  1  0
 19 20  1  0
 20 21  1  0
 21 22  1  0
 21 23  2  0
 23 24  1  0
M  CHG  1  12   1
M  END
