
     RDKit          3D

 25 25  0  0  0  0  0  0  0  0999 V2000
    0.8450    0.5970   -2.8540 C   0  0  0  0  0  0  0  0  0  0  0  0
    0.5580    0.6570   -1.5590 C   0  0  0  0  0  0  0  0  0  0  0  0
    1.5120    0.3540   -0.5980 O   0  0  0  0  0  0  0  0  0  0  0  0
    2.0570    1.1460    0.4070 C   0  0  1  0  0  0  0  0  0  0  0  0
    1.7550    0.7340    1.8260 C   0  0  0  0  0  0  0  0  0  0  0  0
    3.5420    1.2650    0.3150 C   0  0  0  0  0  0  0  0  0  0  0  0
    3.9590    2.3780    0.8330 O   0  0  0  0  0  0  0  0  0  0  0  0
    4.4440    0.3470   -0.2400 N   0  0  0  0  0  0  0  0  0  0  0  0
    4.6980   -0.9840    0.0440 N   0  0  0  0  0  0  0  0  0  0  0  0
    3.8770   -1.9720    0.5900 C   0  0  0  0  0  0  0  0  0  0  0  0
    4.1890   -2.4670    1.7400 O   0  0  0  0  0  0  0  0  0  0  0  0
    2.6400   -2.5810    0.0340 C   0  0  0  0  0  0  0  0  0  0  0  0
    1.5600   -2.3330    0.8790 O   0  0  0  0  0  0  0  0  0  0  0  0
    0.4110   -2.8530    0.3760 C   0  0  1  0  0  0  0  0  0  0  0  0
   -0.3850   -3.3750    1.4010 O   0  0  0  0  0  0  0  0  0  0  0  0
   -0.4240   -1.9280   -0.4780 C   0  0  0  0  0  0  0  0  0  0  0  0
   -0.9080   -0.8360    0.2820 O   0  0  0  0  0  0  0  0  0  0  0  0
   -1.4950    0.3430   -0.2450 C   0  0  0  0  0  0  0  0  0  0  0  0
   -2.8280    0.7090    0.2230 C   0  0  0  0  0  0  0  0  0  0  0  0
   -3.3500   -0.1080    1.1160 C   0  0  0  0  0  0  0  0  0  0  0  0
   -4.5560   -0.0000    1.7020 O   0  0  0  0  0  0  0  0  0  0  0  0
   -3.5890    1.8720   -0.1790 C   0  0  0  0  0  0  0  0  0  0  0  0
   -4.8610    2.0180    0.5530 N   0  0  0  0  0  0  0  0  0  0  0  0
   -0.8270    1.0620   -1.1190 C   0  0  0  0  0  0  0  0  0  0  0  0
   -1.3200    2.2810   -1.7850 C   0  0  0  0  0  0  0  0  0  0  0  0
  1  2  2  0
  2  3  1  0
  2 24  1  0
  3  4  1  0
  4  5  1  1
  4  6  1  0
  6  7  2  0
  6  8  1  0
  8  9  1  0
  9 10  1  0
 10 11  2  0
 10 12  1  0
 12 13  1  0
 13 14  1  0
 14 15  1  1
 14 16  1  0
 16 17  1  0
 17 18  1  0
 18 19  1  0
 18 24  2  0
 19 20  2  3
 19 22  1  0
 20 21  1  0
 22 23  1  0
 24 25  1  0
M  CHG  1  23   1
M  END
