
     RDKit          3D

 25 26  0  0  0  0  0  0  0  0999 V2000
   -2.6850    4.5760    0.0430 N   0  0  0  0  0  0  0  0  0  0  0  0
   -1.7940    3.5140   -0.2520 C   0  0  0  0  0  0  0  0  0  0  0  0
   -0.6390    3.8350   -0.6310 O   0  0  0  0  0  0  0  0  0  0  0  0
   -2.2740    2.1180   -0.0980 C   0  0  0  0  0  0  0  0  0  0  0  0
   -1.1660    1.1060   -0.4380 C   0  0  1  0  0  0  0  0  0  0  0  0
   -0.0250    1.3030    0.4670 C   0  0  0  0  0  0  0  0  0  0  0  0
    1.1990    1.5470   -0.2160 O   0  0  0  0  0  0  0  0  0  0  0  0
    2.1890    1.9540    0.6400 C   0  0  0  0  0  0  0  0  0  0  0  0
    3.3110    0.9350    0.8080 C   0  0  2  0  0  0  0  0  0  0  0  0
    4.4220    1.7150    1.2320 O   0  0  0  0  0  0  0  0  0  0  0  0
    3.6670    0.2700   -0.4660 C   0  0  0  0  0  0  0  0  0  0  0  0
    3.8800   -1.0070   -0.6720 C   0  0  0  0  0  0  0  0  0  0  0  0
    3.8300   -2.0320    0.2150 O   0  0  0  0  0  0  0  0  0  0  0  0
    2.8090   -2.5050    1.0050 C   0  0  0  0  0  0  0  0  0  0  0  0
    2.9330   -3.3970    1.8870 O   0  0  0  0  0  0  0  0  0  0  0  0
    1.4480   -1.9410    0.8300 C   0  0  0  0  0  0  0  0  0  0  0  0
    0.4520   -2.8920    0.4180 N   0  0  0  0  0  0  0  0  0  0  0  0
   -0.4460   -2.3140   -0.5960 C   0  0  0  0  0  0  0  0  0  0  0  0
   -1.3990   -1.4060    0.1170 C   0  0  2  0  0  0  0  0  0  0  0  0
   -1.1570   -1.2780    1.4800 O   0  0  0  0  0  0  0  0  0  0  0  0
   -2.7520   -2.1610    0.0980 C   0  0  0  0  0  0  0  0  0  0  0  0
   -3.1630   -1.9190   -1.3080 C   0  0  0  0  0  0  0  0  0  0  0  0
   -2.7440   -0.5220   -1.5380 C   0  0  0  0  0  0  0  0  0  0  0  0
   -3.2530    0.1880   -2.4300 O   0  0  0  0  0  0  0  0  0  0  0  0
   -1.7070   -0.2030   -0.5780 N   0  0  0  0  0  0  0  0  0  0  0  0
  1  2  1  0
  2  3  2  0
  2  4  1  0
  5  4  1  1
  5  6  1  0
  5 25  1  0
  6  7  1  0
  7  8  1  0
  8  9  1  0
  9 10  1  6
  9 11  1  0
 11 12  2  0
 12 13  1  0
 13 14  1  0
 14 15  2  0
 14 16  1  0
 16 17  1  0
 17 18  1  0
 18 19  1  0
 19 20  1  1
 19 21  1  0
 19 25  1  0
 21 22  1  0
 22 23  1  0
 23 24  2  0
 23 25  1  0
M  CHG  1  17   1
M  END
