
     RDKit          3D

  9  9  0  0  0  0  0  0  0  0999 V2000
    1.0570    2.4910    0.7510 O   0  0  0  0  0  0  0  0  0  0  0  0
    0.4050    1.4670    0.5060 C   0  0  0  0  0  0  0  0  0  0  0  0
   -0.8320    1.2780    1.0660 O   0  0  0  0  0  0  0  0  0  0  0  0
   -1.7700    0.3340    0.6020 C   0  0  0  0  0  0  0  0  0  0  0  0
   -1.1590   -0.7820   -0.1810 C   0  0  0  0  0  0  0  0  0  0  0  0
    0.3220   -0.8870    0.1020 C   0  0  1  0  0  0  0  0  0  0  0  0
    0.9180   -1.9190   -0.5750 O   0  0  0  0  0  0  0  0  0  0  0  0
    0.9390    0.4310   -0.3890 C   0  0  2  0  0  0  0  0  0  0  0  0
    2.3240    0.3450   -0.3800 O   0  0  0  0  0  0  0  0  0  0  0  0
  1  2  2  0
  2  3  1  0
  2  8  1  0
  3  4  1  0
  4  5  1  0
  5  6  1  0
  6  7  1  6
  6  8  1  0
  8  9  1  1
M  END
