
     RDKit          3D

  9  9  0  0  0  0  0  0  0  0999 V2000
    1.2090   -1.0460    0.1650 C   0  0  0  0  0  0  0  0  0  0  0  0
    0.6210    0.3490    0.0250 C   0  0  2  0  0  0  0  0  0  0  0  0
    1.5490    1.2670   -0.4140 O   0  0  0  0  0  0  0  0  0  0  0  0
    0.0540    0.8210    1.3090 C   0  0  0  0  0  0  0  0  0  0  0  0
    0.6930    1.0900    2.3710 O   0  0  0  0  0  0  0  0  0  0  0  0
   -1.3170    0.9320    1.1850 O   0  0  0  0  0  0  0  0  0  0  0  0
   -1.7230    0.1570    0.0760 C   0  0  0  0  0  0  0  0  0  0  0  0
   -0.5840    0.3530   -0.8910 C   0  0  2  0  0  0  0  0  0  0  0  0
   -0.5140   -0.6750   -1.8210 O   0  0  0  0  0  0  0  0  0  0  0  0
  2  1  1  1
  2  3  1  0
  2  4  1  0
  2  8  1  0
  4  5  2  0
  4  6  1  0
  6  7  1  0
  7  8  1  0
  8  9  1  6
M  END
