
     RDKit          3D

  9  9  0  0  0  0  0  0  0  0999 V2000
   -1.8320   -0.9830   -0.9780 C   0  0  0  0  0  0  0  0  0  0  0  0
   -1.4230   -0.2170    0.2410 C   0  0  2  0  0  0  0  0  0  0  0  0
   -1.9300    1.0770    0.2820 O   0  0  0  0  0  0  0  0  0  0  0  0
    0.0720   -0.2210    0.4070 C   0  0  1  0  0  0  0  0  0  0  0  0
    0.7770    0.6710   -0.5780 C   0  0  0  0  0  0  0  0  0  0  0  0
    1.7070    1.3840    0.1990 O   0  0  0  0  0  0  0  0  0  0  0  0
    1.8130    0.6000    1.3460 C   0  0  2  0  0  0  0  0  0  0  0  0
    2.4100   -0.6240    1.0260 O   0  0  0  0  0  0  0  0  0  0  0  0
    0.4660    0.3380    1.6220 O   0  0  0  0  0  0  0  0  0  0  0  0
  2  1  1  6
  2  3  1  0
  2  4  1  0
  4  5  1  6
  4  9  1  0
  5  6  1  0
  6  7  1  0
  7  8  1  6
  7  9  1  0
M  END
