
     RDKit          3D

  9  9  0  0  0  0  0  0  0  0999 V2000
    2.1780    1.1160   -0.3140 O   0  0  0  0  0  0  0  0  0  0  0  0
    1.5550   -0.1230   -0.5930 C   0  0  0  0  0  0  0  0  0  0  0  0
    0.3790   -0.2220    0.3390 C   0  0  1  0  0  0  0  0  0  0  0  0
   -0.6100    0.9060    0.1370 C   0  0  2  0  0  0  0  0  0  0  0  0
   -0.2520    2.0580    0.7960 O   0  0  0  0  0  0  0  0  0  0  0  0
   -1.8530    0.2590    0.7160 C   0  0  0  0  0  0  0  0  0  0  0  0
   -1.7090   -1.0950    0.6180 O   0  0  0  0  0  0  0  0  0  0  0  0
   -0.5250   -1.3930    0.0020 C   0  0  2  0  0  0  0  0  0  0  0  0
    0.0230   -2.6000    0.3710 O   0  0  0  0  0  0  0  0  0  0  0  0
  1  2  1  0
  3  2  1  6
  3  4  1  0
  3  8  1  0
  4  5  1  1
  4  6  1  0
  6  7  1  0
  7  8  1  0
  8  9  1  1
M  END
