
     RDKit          3D

  9  9  0  0  0  0  0  0  0  0999 V2000
   -1.8340    1.0500    0.7700 O   0  0  0  0  0  0  0  0  0  0  0  0
   -2.1620    0.0580   -0.1420 C   0  0  0  0  0  0  0  0  0  0  0  0
   -0.9190   -0.5540   -0.7450 C   0  0  1  0  0  0  0  0  0  0  0  0
   -0.1580    0.4000   -1.4130 O   0  0  0  0  0  0  0  0  0  0  0  0
    1.1700    0.1090   -1.2040 C   0  0  0  0  0  0  0  0  0  0  0  0
    1.4570    0.3580    0.2740 C   0  0  2  0  0  0  0  0  0  0  0  0
    2.7980    0.1410    0.5270 O   0  0  0  0  0  0  0  0  0  0  0  0
    0.5590   -0.5870    1.0410 C   0  0  0  0  0  0  0  0  0  0  0  0
   -0.2110   -1.3050    0.1570 O   0  0  0  0  0  0  0  0  0  0  0  0
  1  2  1  0
  3  2  1  1
  3  4  1  0
  3  9  1  0
  4  5  1  0
  5  6  1  0
  6  7  1  6
  6  8  1  0
  8  9  1  0
M  END
