
     RDKit          3D

  9  9  0  0  0  0  0  0  0  0999 V2000
   -0.7400    0.1640    1.8430 O   0  0  0  0  0  0  0  0  0  0  0  0
   -0.0970    0.6950    0.7310 C   0  0  1  0  0  0  0  0  0  0  0  0
    1.1750   -0.0590    0.5100 C   0  0  2  0  0  0  0  0  0  0  0  0
    2.1320    0.8800    0.0600 O   0  0  0  0  0  0  0  0  0  0  0  0
    1.0850   -1.1750   -0.4610 C   0  0  0  0  0  0  0  0  0  0  0  0
   -0.1380   -1.6710   -0.7260 O   0  0  0  0  0  0  0  0  0  0  0  0
   -1.1880   -0.8310   -0.8190 C   0  0  0  0  0  0  0  0  0  0  0  0
   -0.9270    0.6030   -0.5200 C   0  0  1  0  0  0  0  0  0  0  0  0
   -2.0980    1.3210   -0.4320 O   0  0  0  0  0  0  0  0  0  0  0  0
  2  1  1  1
  2  3  1  0
  2  8  1  0
  3  4  1  6
  3  5  1  0
  5  6  1  0
  6  7  1  0
  7  8  1  0
  8  9  1  1
M  END
