
     RDKit          3D

 20 21  0  0  0  0  0  0  0  0999 V2000
   -2.7260    0.7370    3.0770 O   0  0  0  0  0  0  0  0  0  0  0  0
   -3.2310    1.0890    1.9050 O   0  0  0  0  0  0  0  0  0  0  0  0
   -3.6610   -0.0260    1.2050 C   0  0  1  0  0  0  0  0  0  0  0  0
   -5.0150    0.0850    1.0010 F   0  0  0  0  0  0  0  0  0  0  0  0
   -2.9120   -0.1780   -0.1170 C   0  0  1  0  0  0  0  0  0  0  0  0
   -3.4330   -1.3380   -0.7350 O   0  0  0  0  0  0  0  0  0  0  0  0
   -3.2140    0.9920   -0.9820 C   0  0  0  0  0  0  0  0  0  0  0  0
   -2.1640    1.3550   -1.9680 C   0  0  0  0  0  0  0  0  0  0  0  0
   -1.0910    0.4350   -2.0450 O   0  0  0  0  0  0  0  0  0  0  0  0
   -0.5890   -0.1130   -0.8850 C   0  0  0  0  0  0  0  0  0  0  0  0
    0.6810   -0.4530   -0.4170 C   0  0  0  0  0  0  0  0  0  0  0  0
    1.8860   -0.2920   -1.1200 N   0  0  0  0  0  0  0  0  0  0  0  0
    3.1280   -0.6950   -0.4930 C   0  0  0  0  0  0  0  0  0  0  0  0
    3.3610    0.0890    0.7800 C   0  0  0  0  0  0  0  0  0  0  0  0
    4.9220   -0.3790    1.6210 P   0  0  0  0  0  0  0  0  0  0  0  0
    5.4480   -1.9710    1.2400 O   0  0  0  0  0  0  0  0  0  0  0  0
    6.1700    0.7920    1.4540 O   0  0  0  0  0  0  0  0  0  0  0  0
    0.4730   -0.9530    0.8190 N   0  0  0  0  0  0  0  0  0  0  0  0
   -0.7740   -0.9310    1.0960 O   0  0  0  0  0  0  0  0  0  0  0  0
   -1.4810   -0.4340    0.1100 C   0  0  0  0  0  0  0  0  0  0  0  0
  1  2  1  0
  2  3  1  0
  3  4  1  6
  3  5  1  0
  5  6  1  6
  5  7  1  0
  5 20  1  0
  7  8  1  0
  8  9  1  0
  9 10  1  0
 10 11  1  0
 10 20  2  0
 11 12  1  0
 11 18  2  0
 12 13  1  0
 13 14  1  0
 14 15  1  0
 15 16  1  0
 15 17  1  0
 18 19  1  0
 19 20  1  0
M  END
