
     RDKit          3D

 21 21  0  0  0  0  0  0  0  0999 V2000
    1.4920   -1.6980   -1.6650 O   0  0  0  0  0  0  0  0  0  0  0  0
    1.5850   -0.6410   -2.3340 C   0  0  0  0  0  0  0  0  0  0  0  0
    2.0510   -0.8520   -3.6590 O   0  0  0  0  0  0  0  0  0  0  0  0
    1.2680    0.7050   -1.8750 C   0  0  0  0  0  0  0  0  0  0  0  0
    0.8640    0.8710   -0.4550 C   0  0  2  0  0  0  0  0  0  0  0  0
    1.8430    0.4840    0.5830 C   0  0  0  0  0  0  0  0  0  0  0  0
    2.1110   -0.8630    0.6330 O   0  0  0  0  0  0  0  0  0  0  0  0
    3.2620   -1.2730    1.8560 P   0  0  0  0  0  0  0  0  0  0  0  0
    4.7700   -1.6250    1.0900 O   0  0  0  0  0  0  0  0  0  0  0  0
    3.4440    0.0770    2.9370 O   0  0  0  0  0  0  0  0  0  0  0  0
   -0.4340    0.2050   -0.2860 N   0  0  0  0  0  0  0  0  0  0  0  0
   -1.3320    0.5430    0.5380 C   0  0  0  0  0  0  0  0  0  0  0  0
   -2.5550   -0.2200    0.5770 N   0  0  0  0  0  0  0  0  0  0  0  0
   -2.8260   -1.2690   -0.3700 C   0  0  0  0  0  0  0  0  0  0  0  0
   -4.1980   -1.8720   -0.0790 C   0  0  0  0  0  0  0  0  0  0  0  0
   -5.1460   -0.8350   -0.2030 O   0  0  0  0  0  0  0  0  0  0  0  0
   -1.1210    1.6980    1.4400 C   0  0  2  0  0  0  0  0  0  0  0  0
   -2.3380    2.2840    1.7560 F   0  0  0  0  0  0  0  0  0  0  0  0
   -0.2990    2.6360    0.7880 O   0  0  0  0  0  0  0  0  0  0  0  0
    0.4920    2.3430   -0.3070 C   0  0  0  0  0  0  0  0  0  0  0  0
    0.8840    3.1980   -1.1290 O   0  0  0  0  0  0  0  0  0  0  0  0
  1  2  2  0
  2  3  1  0
  2  4  1  0
  5  4  1  6
  5  6  1  0
  5 11  1  0
  5 20  1  0
  6  7  1  0
  7  8  1  0
  8  9  1  0
  8 10  1  0
 11 12  2  0
 12 13  1  0
 12 17  1  0
 13 14  1  0
 14 15  1  0
 15 16  1  0
 17 18  1  6
 17 19  1  0
 19 20  1  0
 20 21  2  0
M  END
