
     RDKit          3D

 20 21  0  0  0  0  0  0  0  0999 V2000
    2.4250   -1.6120    0.8770 O   0  0  0  0  0  0  0  0  0  0  0  0
    2.3860   -1.0670   -0.2680 C   0  0  0  0  0  0  0  0  0  0  0  0
    1.1490   -0.8720   -0.8090 N   0  0  0  0  0  0  0  0  0  0  0  0
   -0.1640   -1.2480   -0.2780 C   0  0  0  0  0  0  0  0  0  0  0  0
   -0.3190   -0.4890    1.0700 C   0  0  0  0  0  0  0  0  0  0  0  0
   -1.7070   -0.8410    1.4310 O   0  0  0  0  0  0  0  0  0  0  0  0
   -2.7270   -0.0580    0.3330 P   0  0  0  0  0  0  0  0  0  0  0  0
   -2.0710    0.8560   -0.9290 O   0  0  0  0  0  0  0  0  0  0  0  0
   -4.3300    0.1110    0.7080 O   0  0  0  0  0  0  0  0  0  0  0  0
   -5.1430   -0.1350   -0.4100 C   0  0  1  0  0  0  0  0  0  0  0  0
   -6.5730   -0.0010   -0.0850 C   0  0  0  0  0  0  0  0  0  0  0  0
   -6.7890    1.3860   -0.2450 O   0  0  0  0  0  0  0  0  0  0  0  0
   -5.5990    1.9030   -0.5110 O   0  0  0  0  0  0  0  0  0  0  0  0
   -4.9860    1.0530   -1.2620 O   0  0  0  0  0  0  0  0  0  0  0  0
    3.6590   -0.6620   -0.9160 C   0  0  2  0  0  0  0  0  0  0  0  0
    4.6020   -0.6190    0.3750 C   0  0  0  0  0  0  0  0  0  0  0  0
    4.1510    0.7710    0.8820 C   0  0  2  0  0  0  0  0  0  0  0  0
    2.7760    0.7850    0.9710 F   0  0  0  0  0  0  0  0  0  0  0  0
    4.4490    1.5250   -0.4350 C   0  0  0  0  0  0  0  0  0  0  0  0
    3.7480    0.6820   -1.3400 N   0  0  0  0  0  0  0  0  0  0  0  0
  1  2  2  0
  2  3  1  0
 15  2  1  1
  3  4  1  0
  4  5  1  0
  5  6  1  0
  6  7  1  0
  7  8  1  0
  7  9  1  0
 10  9  1  1
 10 11  1  0
 10 14  1  0
 11 12  1  0
 12 13  1  0
 13 14  1  0
 15 16  1  0
 15 20  1  0
 16 17  1  0
 17 18  1  6
 17 19  1  0
 19 20  1  0
M  END
