
     RDKit          3D

 20 20  0  0  0  0  0  0  0  0999 V2000
    4.8860    2.0140   -0.2670 O   0  0  0  0  0  0  0  0  0  0  0  0
    4.1350    1.2080   -0.8670 C   0  0  0  0  0  0  0  0  0  0  0  0
    4.5520    0.7270   -2.0960 O   0  0  0  0  0  0  0  0  0  0  0  0
    2.8610    0.7810   -0.3040 C   0  0  1  0  0  0  0  0  0  0  0  0
    2.7200   -0.7200   -0.1750 C   0  0  0  0  0  0  0  0  0  0  0  0
    1.2730   -1.0400    0.1340 C   0  0  0  0  0  0  0  0  0  0  0  0
    0.7560   -0.2610    1.2470 N   0  0  0  0  0  0  0  0  0  0  0  0
   -0.5420   -0.4440    1.7830 C   0  0  0  0  0  0  0  0  0  0  0  0
   -0.8900    0.2910    2.7650 O   0  0  0  0  0  0  0  0  0  0  0  0
   -1.5090   -1.4140    1.2930 C   0  0  1  0  0  0  0  0  0  0  0  0
   -1.0270   -2.1310    0.2390 O   0  0  0  0  0  0  0  0  0  0  0  0
   -1.8330   -2.3210    2.2950 F   0  0  0  0  0  0  0  0  0  0  0  0
   -2.7770   -0.6460    0.9380 C   0  0  0  0  0  0  0  0  0  0  0  0
   -2.4000    0.3610   -0.1300 C   0  0  0  0  0  0  0  0  0  0  0  0
   -3.9740    1.2920   -0.5490 P   0  0  0  0  0  0  0  0  0  0  0  0
   -5.2630    0.1240   -0.5170 O   0  0  0  0  0  0  0  0  0  0  0  0
   -3.8140    2.0220   -2.1110 O   0  0  0  0  0  0  0  0  0  0  0  0
    1.6250    0.7260    1.8060 C   0  0  0  0  0  0  0  0  0  0  0  0
    1.5470    1.0180    3.0300 O   0  0  0  0  0  0  0  0  0  0  0  0
    2.5700    1.3700    0.9810 N   0  0  0  0  0  0  0  0  0  0  0  0
  1  2  2  0
  2  3  1  0
  4  2  1  1
  4  5  1  0
  4 20  1  0
  5  6  1  0
  6  7  1  0
  7  8  1  0
  7 18  1  0
  8  9  2  0
  8 10  1  0
 10 11  1  6
 10 12  1  0
 10 13  1  0
 13 14  1  0
 14 15  1  0
 15 16  1  0
 15 17  1  0
 18 19  2  0
 18 20  1  0
M  END
