
     RDKit          3D

 20 21  0  0  0  0  0  0  0  0999 V2000
   -4.3370    1.0920   -1.6210 O   0  0  0  0  0  0  0  0  0  0  0  0
   -3.6890    1.3120   -0.5610 C   0  0  0  0  0  0  0  0  0  0  0  0
   -4.2140    1.8410    0.6380 O   0  0  0  0  0  0  0  0  0  0  0  0
   -3.3800    1.4000    1.6820 C   0  0  0  0  0  0  0  0  0  0  0  0
   -3.4750    1.6340    2.9230 O   0  0  0  0  0  0  0  0  0  0  0  0
   -2.3530    0.6040    1.1150 N   0  0  0  0  0  0  0  0  0  0  0  0
   -1.4050   -0.4380    1.3040 C   0  0  0  0  0  0  0  0  0  0  0  0
   -0.9020   -0.8120    2.3900 O   0  0  0  0  0  0  0  0  0  0  0  0
   -1.0890   -1.0360   -0.0150 C   0  0  2  0  0  0  0  0  0  0  0  0
    0.3410   -1.2190   -0.1370 N   0  0  0  0  0  0  0  0  0  0  0  0
    0.8300   -2.5470   -0.4460 C   0  0  0  0  0  0  0  0  0  0  0  0
    1.0550   -3.2220    0.7330 F   0  0  0  0  0  0  0  0  0  0  0  0
    1.2630   -0.1570    0.0330 C   0  0  0  0  0  0  0  0  0  0  0  0
    0.7900    0.9950    0.3060 O   0  0  0  0  0  0  0  0  0  0  0  0
    2.6930   -0.4220   -0.1100 C   0  0  0  0  0  0  0  0  0  0  0  0
    3.7560    1.0560    0.1460 P   0  0  0  0  0  0  0  0  0  0  0  0
    2.8830    2.4970    0.4230 O   0  0  0  0  0  0  0  0  0  0  0  0
    5.0530    0.7920    1.2270 O   0  0  0  0  0  0  0  0  0  0  0  0
   -1.6480   -0.0600   -1.0370 C   0  0  0  0  0  0  0  0  0  0  0  0
   -2.2480    1.0880   -0.2720 C   0  0  1  0  0  0  0  0  0  0  0  0
  1  2  2  0
  2  3  1  0
  2 20  1  0
  3  4  1  0
  4  5  2  0
  4  6  1  0
  6  7  1  0
  6 20  1  0
  7  8  2  0
  7  9  1  0
  9 10  1  6
  9 19  1  0
 10 11  1  0
 10 13  1  0
 11 12  1  0
 13 14  2  0
 13 15  1  0
 15 16  1  0
 16 17  1  0
 16 18  1  0
 20 19  1  6
M  END
