
     RDKit          3D

 21 22  0  0  0  0  0  0  0  0999 V2000
    4.7470    0.7170   -1.9800 O   0  0  0  0  0  0  0  0  0  0  0  0
    4.6130    0.0480   -0.9150 C   0  0  0  0  0  0  0  0  0  0  0  0
    3.4860    0.1550   -0.0780 N   0  0  0  0  0  0  0  0  0  0  0  0
    3.2990   -0.4900    1.0000 C   0  0  0  0  0  0  0  0  0  0  0  0
    2.1100   -0.2920    1.7620 O   0  0  0  0  0  0  0  0  0  0  0  0
    1.2120    0.6450    1.2250 C   0  0  0  0  0  0  0  0  0  0  0  0
    1.4810    1.2370    0.1490 O   0  0  0  0  0  0  0  0  0  0  0  0
   -0.0130    0.9150    1.9170 N   0  0  0  0  0  0  0  0  0  0  0  0
   -0.9400    1.8630    1.3790 C   0  0  0  0  0  0  0  0  0  0  0  0
   -1.4130    1.4120    0.0250 C   0  0  0  0  0  0  0  0  0  0  0  0
   -2.0340    0.1700    0.1730 O   0  0  0  0  0  0  0  0  0  0  0  0
   -2.5970   -0.3870   -1.3880 P   0  0  0  0  0  0  0  0  0  0  0  0
   -3.6620   -1.7460   -1.0570 O   0  0  0  0  0  0  0  0  0  0  0  0
   -4.8390   -1.2990   -1.6520 C   0  0  0  0  0  0  0  0  0  0  0  0
   -4.9400    0.1850   -1.3450 C   0  0  0  0  0  0  0  0  0  0  0  0
   -3.8070    0.7780   -1.9000 O   0  0  0  0  0  0  0  0  0  0  0  0
    4.2840   -1.4600    1.5070 C   0  0  1  0  0  0  0  0  0  0  0  0
    3.6380   -2.7170    1.4680 F   0  0  0  0  0  0  0  0  0  0  0  0
    5.4470   -1.5680    0.6390 C   0  0  0  0  0  0  0  0  0  0  0  0
    6.3740   -2.3840    0.9820 O   0  0  0  0  0  0  0  0  0  0  0  0
    5.5920   -0.8450   -0.5110 O   0  0  0  0  0  0  0  0  0  0  0  0
  1  2  2  0
  2  3  1  0
  2 21  1  0
  3  4  2  0
  4  5  1  0
  4 17  1  0
  5  6  1  0
  6  7  2  0
  6  8  1  0
  8  9  1  0
  9 10  1  0
 10 11  1  0
 11 12  1  0
 12 13  1  0
 12 16  1  0
 13 14  1  0
 14 15  1  0
 15 16  1  0
 17 18  1  6
 17 19  1  0
 19 20  2  0
 19 21  1  0
M  END
