
     RDKit          3D

 23 25  0  0  0  0  0  0  0  0999 V2000
    1.8990    1.5930   -0.4590 O   0  0  0  0  0  0  0  0  0  0  0  0
    2.3150    0.4410   -0.4130 C   0  0  0  0  0  0  0  0  0  0  0  0
    3.7170    0.3070   -0.5460 O   0  0  0  0  0  0  0  0  0  0  0  0
    4.7410    1.7210   -0.7590 P   0  0  0  0  0  0  0  0  0  0  0  0
    6.3440    1.2700   -0.2570 O   0  0  0  0  0  0  0  0  0  0  0  0
    4.1740    2.9590    0.3170 O   0  0  0  0  0  0  0  0  0  0  0  0
    1.5140   -0.7710   -0.2380 C   0  0  0  0  0  0  0  0  0  0  0  0
    2.0100   -2.0390   -0.1920 N   0  0  0  0  0  0  0  0  0  0  0  0
    1.0350   -2.9270   -0.0240 C   0  0  0  0  0  0  0  0  0  0  0  0
    1.1580   -4.3320    0.0700 O   0  0  0  0  0  0  0  0  0  0  0  0
   -0.0890   -2.2090    0.0350 N   0  0  0  0  0  0  0  0  0  0  0  0
    0.1700   -0.8740   -0.0930 C   0  0  0  0  0  0  0  0  0  0  0  0
   -0.8320    0.1870   -0.0720 C   0  0  0  0  0  0  0  0  0  0  0  0
   -0.6040    1.4840   -0.1950 N   0  0  0  0  0  0  0  0  0  0  0  0
   -1.7300    2.2040   -0.1350 C   0  0  0  0  0  0  0  0  0  0  0  0
   -2.7420    1.2970    0.0380 C   0  0  0  0  0  0  0  0  0  0  0  0
   -4.0630    1.4740    0.1590 N   0  0  0  0  0  0  0  0  0  0  0  0
   -4.8850    0.4150    0.3240 C   0  0  0  0  0  0  0  0  0  0  0  0
   -6.1310    0.5470    0.4410 O   0  0  0  0  0  0  0  0  0  0  0  0
   -4.3470   -0.8130    0.3630 N   0  0  0  0  0  0  0  0  0  0  0  0
   -3.0090   -0.9570    0.2380 C   0  0  0  0  0  0  0  0  0  0  0  0
   -2.5670   -2.1310    0.2820 O   0  0  0  0  0  0  0  0  0  0  0  0
   -2.1690    0.0820    0.0720 N   0  0  0  0  0  0  0  0  0  0  0  0
  1  2  2  0
  2  3  1  0
  2  7  1  0
  3  4  1  0
  4  5  1  0
  4  6  1  0
  7  8  1  0
  7 12  2  0
  8  9  1  0
  9 10  1  0
  9 11  2  0
 11 12  1  0
 12 13  1  0
 13 14  2  0
 13 23  1  0
 14 15  1  0
 15 16  2  0
 16 17  1  0
 16 23  1  0
 17 18  1  0
 18 19  2  0
 18 20  1  0
 20 21  1  0
 21 22  2  0
 21 23  1  0
M  END
