
     RDKit          3D

 22 23  0  0  0  0  0  0  0  0999 V2000
    0.2280   -2.6240   -0.8330 N   0  0  0  0  0  0  0  0  0  0  0  0
    0.1400   -1.3100   -0.7220 C   0  0  0  0  0  0  0  0  0  0  0  0
    1.3730   -0.9030   -0.2320 N   0  0  0  0  0  0  0  0  0  0  0  0
    1.9620    0.3100   -0.4170 C   0  0  0  0  0  0  0  0  0  0  0  0
    1.2970    1.0650   -1.1560 O   0  0  0  0  0  0  0  0  0  0  0  0
    3.2280    0.6320    0.2010 C   0  0  0  0  0  0  0  0  0  0  0  0
    3.9240   -0.1600    0.9800 C   0  0  0  0  0  0  0  0  0  0  0  0
    5.1580    0.2740    1.5280 N   0  0  0  0  0  0  0  0  0  0  0  0
    6.6920    0.2280    0.5900 P   0  0  0  0  0  0  0  0  0  0  0  0
    7.0040    1.8470   -0.0040 O   0  0  0  0  0  0  0  0  0  0  0  0
    6.4310   -0.7620   -0.8280 O   0  0  0  0  0  0  0  0  0  0  0  0
   -1.1890   -0.8600   -0.7130 N   0  0  0  0  0  0  0  0  0  0  0  0
   -1.7650    0.3630   -1.0470 C   0  0  0  0  0  0  0  0  0  0  0  0
   -1.4650    1.1580   -1.9350 O   0  0  0  0  0  0  0  0  0  0  0  0
   -2.8900    0.5540   -0.0770 C   0  0  1  0  0  0  0  0  0  0  0  0
   -4.0540    1.2360   -0.7140 C   0  0  2  0  0  0  0  0  0  0  0  0
   -4.0140    2.6160   -0.6360 O   0  0  0  0  0  0  0  0  0  0  0  0
   -5.1900    0.6690    0.1500 C   0  0  0  0  0  0  0  0  0  0  0  0
   -4.8090   -0.7950    0.1530 C   0  0  0  0  0  0  0  0  0  0  0  0
   -3.3880   -0.8440    0.0310 N   0  0  0  0  0  0  0  0  0  0  0  0
   -2.2270   -1.6500   -0.0260 C   0  0  0  0  0  0  0  0  0  0  0  0
   -2.0830   -2.7950    0.4090 O   0  0  0  0  0  0  0  0  0  0  0  0
  1  2  2  0
  2  3  1  0
  2 12  1  0
  3  4  1  0
  4  5  2  0
  4  6  1  0
  6  7  2  3
  7  8  1  0
  8  9  1  0
  9 10  1  0
  9 11  1  0
 12 13  1  0
 12 21  1  0
 13 14  2  0
 15 13  1  6
 15 16  1  0
 15 20  1  0
 16 17  1  1
 16 18  1  0
 18 19  1  0
 19 20  1  0
 20 21  1  0
 21 22  2  0
M  END
