
     RDKit          3D

 23 25  0  0  0  0  0  0  0  0999 V2000
    2.6580    2.3840    0.6790 O   0  0  0  0  0  0  0  0  0  0  0  0
    1.8970    1.5520    0.0960 C   0  0  0  0  0  0  0  0  0  0  0  0
    2.4620    0.8290   -1.0670 C   0  0  0  0  0  0  0  0  0  0  0  0
    3.6220    0.0740   -0.6930 N   0  0  0  0  0  0  0  0  0  0  0  0
    3.6650   -1.2010   -0.2870 C   0  0  0  0  0  0  0  0  0  0  0  0
    2.7210   -2.0150   -0.1620 O   0  0  0  0  0  0  0  0  0  0  0  0
    4.9550   -1.4950   -0.0170 N   0  0  0  0  0  0  0  0  0  0  0  0
    5.7060   -0.4100   -0.2560 N   0  0  0  0  0  0  0  0  0  0  0  0
    4.8700    0.5590   -0.6740 C   0  0  0  0  0  0  0  0  0  0  0  0
    5.2500    1.7350   -0.9900 O   0  0  0  0  0  0  0  0  0  0  0  0
    0.5680    1.3190    0.5230 N   0  0  0  0  0  0  0  0  0  0  0  0
   -0.0150    1.9420    1.5780 C   0  0  0  0  0  0  0  0  0  0  0  0
   -1.2710    1.5000    1.6940 N   0  0  0  0  0  0  0  0  0  0  0  0
   -1.4470    0.6040    0.6950 C   0  0  0  0  0  0  0  0  0  0  0  0
   -2.7170   -0.0900    0.4420 C   0  0  2  0  0  0  0  0  0  0  0  0
   -3.7700    0.5890    1.0720 O   0  0  0  0  0  0  0  0  0  0  0  0
   -2.7320   -1.5010    0.9180 C   0  0  0  0  0  0  0  0  0  0  0  0
   -3.9920   -2.2230    0.4360 C   0  0  0  0  0  0  0  0  0  0  0  0
   -5.0630   -1.2940    0.3890 O   0  0  0  0  0  0  0  0  0  0  0  0
   -4.7430   -0.2870   -1.0160 P   0  0  0  0  0  0  0  0  0  0  0  0
   -5.4990    1.2660   -0.7140 O   0  0  0  0  0  0  0  0  0  0  0  0
   -2.9850   -0.0320   -0.9530 O   0  0  0  0  0  0  0  0  0  0  0  0
   -0.2860    0.5130   -0.0120 N   0  0  0  0  0  0  0  0  0  0  0  0
  1  2  2  0
  2  3  1  0
  2 11  1  0
  3  4  1  0
  4  5  1  0
  4  9  1  0
  5  6  2  0
  5  7  1  0
  7  8  1  0
  8  9  1  0
  9 10  2  0
 11 12  1  0
 11 23  1  0
 12 13  2  0
 13 14  1  0
 14 15  1  0
 14 23  2  0
 15 16  1  1
 15 17  1  0
 15 22  1  0
 17 18  1  0
 18 19  1  0
 19 20  1  0
 20 21  1  0
 20 22  1  0
M  END
