
     RDKit          3D

 23 25  0  0  0  0  0  0  0  0999 V2000
    4.5730    0.2830    2.1620 N   0  0  0  0  0  0  0  0  0  0  0  0
    3.5410    0.5870    1.6030 C   0  0  0  0  0  0  0  0  0  0  0  0
    2.3800    0.0320    2.1160 N   0  0  0  0  0  0  0  0  0  0  0  0
    1.2940   -0.4280    1.3650 C   0  0  0  0  0  0  0  0  0  0  0  0
    1.5190   -0.3620    0.1000 O   0  0  0  0  0  0  0  0  0  0  0  0
    0.1240   -0.9050    1.8090 O   0  0  0  0  0  0  0  0  0  0  0  0
   -0.8150   -1.3320    0.8670 C   0  0  0  0  0  0  0  0  0  0  0  0
   -0.9230   -2.6400    0.4840 C   0  0  0  0  0  0  0  0  0  0  0  0
   -1.8910   -2.9500   -0.4710 C   0  0  0  0  0  0  0  0  0  0  0  0
   -2.7040   -1.9670   -1.0010 C   0  0  0  0  0  0  0  0  0  0  0  0
   -2.5790   -0.6780   -0.6040 C   0  0  0  0  0  0  0  0  0  0  0  0
   -1.6370   -0.3500    0.3300 C   0  0  0  0  0  0  0  0  0  0  0  0
   -3.5300    0.0890   -1.3060 N   0  0  0  0  0  0  0  0  0  0  0  0
   -4.2880    1.2930   -1.4050 C   0  0  0  0  0  0  0  0  0  0  0  0
   -4.0240    2.3440   -0.7770 O   0  0  0  0  0  0  0  0  0  0  0  0
   -5.3710    0.9890   -2.3640 C   0  0  0  0  0  0  0  0  0  0  0  0
   -5.2230   -0.3810   -2.6010 O   0  0  0  0  0  0  0  0  0  0  0  0
   -3.9200   -0.6720   -2.4200 N   0  0  0  0  0  0  0  0  0  0  0  0
   -3.7350   -1.9680   -1.9470 O   0  0  0  0  0  0  0  0  0  0  0  0
    3.7340    1.8150    0.8200 N   0  0  0  0  0  0  0  0  0  0  0  0
    5.0890    1.9830   -0.2760 P   0  0  0  0  0  0  0  0  0  0  0  0
    6.4730    2.5620    0.6270 O   0  0  0  0  0  0  0  0  0  0  0  0
    5.5390    0.4680   -1.0120 O   0  0  0  0  0  0  0  0  0  0  0  0
  1  2  2  0
  2  3  1  0
  2 20  1  0
  3  4  1  0
  4  5  2  0
  4  6  1  0
  6  7  1  0
  7  8  2  0
  7 12  1  0
  8  9  1  0
  9 10  2  0
 10 11  1  0
 10 19  1  0
 11 12  2  0
 11 13  1  0
 13 14  1  0
 13 18  1  0
 14 15  2  0
 14 16  1  0
 16 17  1  0
 17 18  1  0
 18 19  1  0
 20 21  1  0
 21 22  1  0
 21 23  1  0
M  END
