
     RDKit          3D

  9  8  0  0  0  0  0  0  0  0999 V2000
    2.8010    0.4720   -1.1320 O   0  0  0  0  0  0  0  0  0  0  0  0
    2.1570    0.3300   -0.0030 C   0  0  0  0  0  0  0  0  0  0  0  0
    2.5200    1.1850    1.0480 O   0  0  0  0  0  0  0  0  0  0  0  0
    1.1080   -0.6770    0.1320 C   0  0  0  0  0  0  0  0  0  0  0  0
    0.1450   -0.1910    1.0290 O   0  0  0  0  0  0  0  0  0  0  0  0
   -1.3110    0.0360    0.3210 P   0  0  0  0  0  0  0  0  0  0  0  0
   -1.1340   -1.0590   -0.6900 O   0  0  0  0  0  0  0  0  0  0  0  0
   -2.7260   -0.4360    0.8900 O   0  0  0  0  0  0  0  0  0  0  0  0
   -1.2310    1.1790   -0.9600 O   0  0  0  0  0  0  0  0  0  0  0  0
  1  2  2  0
  2  3  1  0
  2  4  1  0
  4  5  1  0
  5  6  1  0
  6  7  1  0
  6  8  1  0
  6  9  1  0
M  END
