
     RDKit          3D

 23 24  0  0  0  0  0  0  0  0999 V2000
    1.5860   -1.4130   -1.3780 C   0  0  0  0  0  0  0  0  0  0  0  0
    0.5360   -0.6670   -0.6550 N   0  0  0  0  0  0  0  0  0  0  0  0
   -0.6760   -0.9260   -1.2570 C   0  0  0  0  0  0  0  0  0  0  0  0
   -1.6550   -1.6830   -0.4590 C   0  0  0  0  0  0  0  0  0  0  0  0
   -1.2610   -2.1940    0.6540 O   0  0  0  0  0  0  0  0  0  0  0  0
   -3.0530   -1.9340   -0.7800 C   0  0  0  0  0  0  0  0  0  0  0  0
   -3.4160   -3.1880   -0.6780 O   0  0  0  0  0  0  0  0  0  0  0  0
   -3.9430   -0.9890   -1.1570 O   0  0  0  0  0  0  0  0  0  0  0  0
   -4.5460    0.0750   -0.4710 C   0  0  0  0  0  0  0  0  0  0  0  0
   -3.5290    1.0910   -0.0570 C   0  0  0  0  0  0  0  0  0  0  0  0
   -3.3910    2.3940   -0.2820 N   0  0  0  0  0  0  0  0  0  0  0  0
   -2.2540    2.7700    0.2760 N   0  0  0  0  0  0  0  0  0  0  0  0
   -1.6600    1.7170    0.8580 C   0  0  0  0  0  0  0  0  0  0  0  0
   -2.4660    0.7000    0.6410 N   0  0  0  0  0  0  0  0  0  0  0  0
   -0.4030    1.5640    1.5510 N   0  0  0  0  0  0  0  0  0  0  0  0
    0.3830    0.4210    1.6070 C   0  0  0  0  0  0  0  0  0  0  0  0
    0.7730    0.1030    2.8120 O   0  0  0  0  0  0  0  0  0  0  0  0
    0.8900   -0.5250    0.6370 C   0  0  2  0  0  0  0  0  0  0  0  0
    2.4330   -0.2710    0.6460 C   0  0  0  0  0  0  0  0  0  0  0  0
    2.7320    0.8670   -0.0880 O   0  0  0  0  0  0  0  0  0  0  0  0
    4.4360    1.1370   -0.0700 P   0  0  0  0  0  0  0  0  0  0  0  0
    5.3030   -0.3890   -0.1210 O   0  0  0  0  0  0  0  0  0  0  0  0
    4.9520    1.9570    1.3570 O   0  0  0  0  0  0  0  0  0  0  0  0
  1  2  1  0
  2  3  1  0
  2 18  1  0
  3  4  1  0
  4  5  2  0
  4  6  1  0
  6  7  2  0
  6  8  1  0
  8  9  1  0
  9 10  1  0
 10 11  2  0
 10 14  1  0
 11 12  1  0
 12 13  1  0
 13 14  2  0
 13 15  1  0
 15 16  1  0
 16 17  2  0
 16 18  1  0
 18 19  1  6
 19 20  1  0
 20 21  1  0
 21 22  1  0
 21 23  1  0
M  END
