
     RDKit          3D

 23 24  0  0  0  0  0  0  0  0999 V2000
    3.8180   -1.1640    1.4190 N   0  0  0  0  0  0  0  0  0  0  0  0
    3.4930   -0.0590    0.8010 C   0  0  0  0  0  0  0  0  0  0  0  0
    4.5420    0.8470    0.5930 N   0  0  0  0  0  0  0  0  0  0  0  0
    4.2880    2.2490   -0.5120 P   0  0  0  0  0  0  0  0  0  0  0  0
    4.8830    3.6570    0.3090 O   0  0  0  0  0  0  0  0  0  0  0  0
    2.5410    2.3950   -0.6240 O   0  0  0  0  0  0  0  0  0  0  0  0
    1.6950    1.3330   -0.2930 C   0  0  0  0  0  0  0  0  0  0  0  0
    0.4460    1.4870   -0.6530 N   0  0  0  0  0  0  0  0  0  0  0  0
   -0.5780    0.6510   -0.4730 O   0  0  0  0  0  0  0  0  0  0  0  0
   -1.8190    1.0130    0.0890 C   0  0  1  0  0  0  0  0  0  0  0  0
   -1.8990    2.4750    0.1990 C   0  0  0  0  0  0  0  0  0  0  0  0
   -0.9440    3.1850   -0.1820 O   0  0  0  0  0  0  0  0  0  0  0  0
   -3.0170    3.1210    0.7210 O   0  0  0  0  0  0  0  0  0  0  0  0
   -2.9920    0.4560   -0.6870 C   0  0  0  0  0  0  0  0  0  0  0  0
   -3.6740   -0.6400    0.0690 C   0  0  0  0  0  0  0  0  0  0  0  0
   -3.5900   -1.8820   -0.4120 O   0  0  0  0  0  0  0  0  0  0  0  0
   -2.4600   -2.3300   -0.9930 C   0  0  0  0  0  0  0  0  0  0  0  0
   -1.3820   -2.5660    0.0560 C   0  0  0  0  0  0  0  0  0  0  0  0
   -0.1140   -2.6300   -0.6430 N   0  0  0  0  0  0  0  0  0  0  0  0
    0.8980   -1.6650   -0.5330 C   0  0  0  0  0  0  0  0  0  0  0  0
    1.5900   -1.4170   -1.5520 O   0  0  0  0  0  0  0  0  0  0  0  0
    1.2110   -0.9170    0.7040 C   0  0  0  0  0  0  0  0  0  0  0  0
    2.1470    0.1780    0.3790 N   0  0  0  0  0  0  0  0  0  0  0  0
  1  2  2  0
  2  3  1  0
  2 23  1  0
  3  4  1  0
  4  5  1  0
  4  6  1  0
  6  7  1  0
  7  8  2  0
  7 23  1  0
  8  9  1  0
  9 10  1  0
 10 11  1  6
 10 14  1  0
 11 12  2  0
 11 13  1  0
 14 15  1  0
 15 16  1  0
 16 17  1  0
 17 18  1  0
 18 19  1  0
 19 20  1  0
 20 21  2  0
 20 22  1  0
 22 23  1  0
M  END
