
     RDKit          3D

 16 16  0  0  0  0  0  0  0  0999 V2000
    6.0800   -0.1180    0.8330 O   0  0  0  0  0  0  0  0  0  0  0  0
    4.7940   -0.3070    0.7170 O   0  0  0  0  0  0  0  0  0  0  0  0
    4.2390    0.5340   -0.2680 C   0  0  0  0  0  0  0  0  0  0  0  0
    2.7400    0.2130   -0.3020 C   0  0  0  0  0  0  0  0  0  0  0  0
    2.1930    0.4660    0.9390 O   0  0  0  0  0  0  0  0  0  0  0  0
    0.9260    0.2320    1.0290 O   0  0  0  0  0  0  0  0  0  0  0  0
    0.4940   -0.7680    0.1930 C   0  0  0  0  0  0  0  0  0  0  0  0
   -0.9820   -1.0350    0.3040 C   0  0  0  0  0  0  0  0  0  0  0  0
   -1.8000    0.1860   -0.0380 C   0  0  1  0  0  0  0  0  0  0  0  0
   -1.4280    1.6680    1.1080 Br  0  0  0  0  0  0  0  0  0  0  0  0
   -1.6470    0.5750   -1.3470 O   0  0  0  0  0  0  0  0  0  0  0  0
   -2.6760    1.2280   -1.7360 O   0  0  0  0  0  0  0  0  0  0  0  0
   -3.7620    0.9490   -0.9670 C   0  0  0  0  0  0  0  0  0  0  0  0
   -3.2850   -0.1120    0.0130 C   0  0  2  0  0  0  0  0  0  0  0  0
   -3.8140    0.0830    1.2810 O   0  0  0  0  0  0  0  0  0  0  0  0
   -4.4390   -1.0420    1.6050 O   0  0  0  0  0  0  0  0  0  0  0  0
  1  2  1  0
  2  3  1  0
  3  4  1  0
  4  5  1  0
  5  6  1  0
  6  7  1  0
  7  8  1  0
  8  9  1  0
  9 10  1  1
  9 11  1  0
  9 14  1  0
 11 12  1  0
 12 13  1  0
 13 14  1  0
 14 15  1  1
 15 16  1  0
M  END
