
     RDKit          3D

 23 25  0  0  0  0  0  0  0  0999 V2000
    3.0980    1.8020    0.5790 O   0  0  0  0  0  0  0  0  0  0  0  0
    3.6490    0.7530    0.1340 C   0  0  0  0  0  0  0  0  0  0  0  0
    5.1330    0.7300    0.1550 C   0  0  0  0  0  0  0  0  0  0  0  0
    5.6580   -0.4370   -0.3420 O   0  0  0  0  0  0  0  0  0  0  0  0
    7.3900   -0.3200   -0.2560 P   0  0  0  0  0  0  0  0  0  0  0  0
    7.8960    0.9050   -1.3830 O   0  0  0  0  0  0  0  0  0  0  0  0
    7.7910    0.2280    1.3430 O   0  0  0  0  0  0  0  0  0  0  0  0
    2.8620   -0.3150   -0.3450 N   0  0  0  0  0  0  0  0  0  0  0  0
    1.4310   -0.2050   -0.3270 C   0  0  0  0  0  0  0  0  0  0  0  0
    0.7150    0.8430    0.1140 N   0  0  0  0  0  0  0  0  0  0  0  0
   -0.5520    0.5780   -0.0270 N   0  0  0  0  0  0  0  0  0  0  0  0
   -0.6700   -0.6370   -0.5570 C   0  0  0  0  0  0  0  0  0  0  0  0
   -1.9400   -1.3110   -0.8750 C   0  0  0  0  0  0  0  0  0  0  0  0
   -3.1050   -0.5980   -0.4920 N   0  0  0  0  0  0  0  0  0  0  0  0
   -3.2080    0.6950   -1.1040 C   0  0  0  0  0  0  0  0  0  0  0  0
   -3.5460    1.2540    0.2590 C   0  0  1  0  0  0  0  0  0  0  0  0
   -4.8390    1.6550    0.4410 O   0  0  0  0  0  0  0  0  0  0  0  0
   -5.8000    0.6970    0.2060 C   0  0  0  0  0  0  0  0  0  0  0  0
   -5.6550   -0.4440    1.0870 N   0  0  0  0  0  0  0  0  0  0  0  0
   -4.3510   -0.6810    1.6060 C   0  0  0  0  0  0  0  0  0  0  0  0
   -4.1630   -1.3610    2.6680 O   0  0  0  0  0  0  0  0  0  0  0  0
   -3.2130   -0.0960    0.8450 C   0  0  1  0  0  0  0  0  0  0  0  0
    0.5620   -1.0980   -0.7320 O   0  0  0  0  0  0  0  0  0  0  0  0
  1  2  2  0
  2  3  1  0
  2  8  1  0
  3  4  1  0
  4  5  1  0
  5  6  1  0
  5  7  1  0
  8  9  1  0
  9 10  2  0
  9 23  1  0
 10 11  1  0
 11 12  2  0
 12 13  1  0
 12 23  1  0
 13 14  1  0
 14 15  1  0
 22 14  1  6
 16 15  1  6
 16 17  1  0
 16 22  1  0
 17 18  1  0
 18 19  1  0
 19 20  1  0
 20 21  2  0
 20 22  1  0
M  END
