
     RDKit          3D

 14 13  0  0  0  0  0  0  0  0999 V2000
   -0.3740   -1.8010   -1.0190 C   0  0  0  0  0  0  0  0  0  0  0  0
   -0.0750   -0.9000    0.0370 N   0  0  0  0  0  0  0  0  0  0  0  0
   -1.1850   -0.4450    0.7980 C   0  0  0  0  0  0  0  0  0  0  0  0
   -2.1080    0.4300    0.0720 C   0  0  0  0  0  0  0  0  0  0  0  0
   -1.8820    0.7150   -1.1320 O   0  0  0  0  0  0  0  0  0  0  0  0
   -3.2370    0.9630    0.6740 O   0  0  0  0  0  0  0  0  0  0  0  0
   -4.1200    1.7910    0.0040 C   0  0  0  0  0  0  0  0  0  0  0  0
   -3.8470    2.0470   -1.2080 O   0  0  0  0  0  0  0  0  0  0  0  0
    1.0810    0.3460   -0.4370 P   0  0  0  0  0  0  0  0  0  0  0  0
    1.2760    1.5380    0.8030 O   0  0  0  0  0  0  0  0  0  0  0  0
    2.9810   -0.5580   -1.0260 P   0  0  0  0  0  0  0  0  0  0  0  0
    3.3180   -2.0160   -0.1670 O   0  0  0  0  0  0  0  0  0  0  0  0
    4.2730    0.5880   -0.9060 O   0  0  0  0  0  0  0  0  0  0  0  0
    3.9800    1.4900   -0.0000 O   0  0  0  0  0  0  0  0  0  0  0  0
  1  2  1  0
  2  3  1  0
  2  9  1  0
  3  4  1  0
  4  5  2  0
  4  6  1  0
  6  7  1  0
  7  8  2  0
  9 10  1  0
  9 11  1  0
 11 12  1  0
 11 13  1  0
 13 14  1  0
M  END
