
     RDKit          3D

 13 12  0  0  0  0  0  0  0  0999 V2000
    0.7530   -2.7560   -3.1980 O   0  0  0  0  0  0  0  0  0  0  0  0
    0.5070   -3.0330   -1.7040 P   0  0  0  0  0  0  0  0  0  0  0  0
   -0.6710   -2.0720   -0.6570 C   0  0  0  0  0  0  0  0  0  0  0  0
   -0.2000   -0.6590   -0.5210 N   0  0  0  0  0  0  0  0  0  0  0  0
    1.0970   -0.7870    0.1070 C   0  0  0  0  0  0  0  0  0  0  0  0
    1.8910    0.4320    0.1800 C   0  0  0  0  0  0  0  0  0  0  0  0
    2.9110    0.4680    0.9080 O   0  0  0  0  0  0  0  0  0  0  0  0
    1.5660    1.5660   -0.5300 O   0  0  0  0  0  0  0  0  0  0  0  0
    2.2530    2.7130   -0.5080 O   0  0  0  0  0  0  0  0  0  0  0  0
   -1.1530   -0.1300    0.4670 C   0  0  0  0  0  0  0  0  0  0  0  0
   -0.9190    1.6080    0.9240 P   0  0  0  0  0  0  0  0  0  0  0  0
   -1.8440    1.9570    2.3470 O   0  0  0  0  0  0  0  0  0  0  0  0
   -1.4180    2.7220   -0.3100 O   0  0  0  0  0  0  0  0  0  0  0  0
  1  2  2  0
  2  3  1  0
  3  4  1  0
  4  5  1  0
  4 10  1  0
  5  6  1  0
  6  7  2  0
  6  8  1  0
  8  9  1  0
 10 11  1  0
 11 12  1  0
 11 13  1  0
M  END
