
     RDKit          3D

  9  8  0  0  0  0  0  0  0  0999 V2000
    3.2730    1.2340    0.0330 O   0  0  0  0  0  0  0  0  0  0  0  0
    2.3740    0.3600   -0.0310 C   0  0  0  0  0  0  0  0  0  0  0  0
    2.7730   -0.9780   -0.0620 O   0  0  0  0  0  0  0  0  0  0  0  0
    0.9270    0.7270   -0.0730 C   0  0  0  0  0  0  0  0  0  0  0  0
    0.0650   -0.5270   -0.1540 C   0  0  0  0  0  0  0  0  0  0  0  0
   -1.5860   -0.0130   -0.2040 P   0  0  0  0  0  0  0  0  0  0  0  0
   -2.0530    1.4820    0.3300 O   0  0  0  0  0  0  0  0  0  0  0  0
   -2.7310   -0.9510   -1.0000 O   0  0  0  0  0  0  0  0  0  0  0  0
   -2.1030   -0.6820    1.0870 O   0  0  0  0  0  0  0  0  0  0  0  0
  1  2  2  0
  2  3  1  0
  2  4  1  0
  4  5  1  0
  5  6  1  0
  6  7  1  0
  6  8  1  0
  6  9  1  0
M  END
