
     RDKit          3D

 14 13  0  0  0  0  0  0  0  0999 V2000
   -3.7400   -1.5050    0.5200 C   0  0  0  0  0  0  0  0  0  0  0  0
   -3.8680   -0.8060   -0.6830 O   0  0  0  0  0  0  0  0  0  0  0  0
   -2.7190    0.4960   -0.6280 P   0  0  0  0  0  0  0  0  0  0  0  0
   -1.1690   -0.1680   -1.0420 O   0  0  0  0  0  0  0  0  0  0  0  0
   -0.1500    0.3850   -0.2760 C   0  0  0  0  0  0  0  0  0  0  0  0
    1.1470   -0.2550   -0.7110 C   0  0  0  0  0  0  0  0  0  0  0  0
    2.2640    0.2760    0.0510 N   0  0  0  0  0  0  0  0  0  0  0  0
    3.5970   -0.1610   -0.1640 C   0  0  0  0  0  0  0  0  0  0  0  0
    3.8350   -1.0360   -1.0400 O   0  0  0  0  0  0  0  0  0  0  0  0
    4.6790    0.3340    0.5530 O   0  0  0  0  0  0  0  0  0  0  0  0
    5.9350   -0.0720    0.3560 O   0  0  0  0  0  0  0  0  0  0  0  0
   -2.6320    1.0160    1.0250 O   0  0  0  0  0  0  0  0  0  0  0  0
   -2.9130    2.7040    1.2020 P   0  0  0  0  0  0  0  0  0  0  0  0
   -3.0630    3.7020    0.0560 O   0  0  0  0  0  0  0  0  0  0  0  0
  1  2  1  0
  2  3  1  0
  3  4  1  0
  3 12  1  0
  4  5  1  0
  5  6  1  0
  6  7  1  0
  7  8  1  0
  8  9  2  0
  8 10  1  0
 10 11  1  0
 12 13  1  0
 13 14  2  0
M  END
