
     RDKit          3D

 14 13  0  0  0  0  0  0  0  0999 V2000
    3.1880    0.6840   -0.8920 C   0  0  0  0  0  0  0  0  0  0  0  0
    1.9550    0.6760   -0.1020 N   0  0  0  0  0  0  0  0  0  0  0  0
    1.0430   -0.3970   -0.2580 C   0  0  0  0  0  0  0  0  0  0  0  0
    1.3010   -1.3150   -1.0640 O   0  0  0  0  0  0  0  0  0  0  0  0
   -0.2130   -0.4430    0.5200 C   0  0  1  0  0  0  0  0  0  0  0  0
   -0.9030   -1.6060    0.1560 O   0  0  0  0  0  0  0  0  0  0  0  0
   -2.4030   -1.2160   -0.5670 P   0  0  0  0  0  0  0  0  0  0  0  0
   -3.0760   -2.4920   -1.4900 O   0  0  0  0  0  0  0  0  0  0  0  0
   -2.4290    0.2990   -1.3610 O   0  0  0  0  0  0  0  0  0  0  0  0
   -3.7260    1.2490   -0.6790 P   0  0  0  0  0  0  0  0  0  0  0  0
   -3.4940    2.6310   -0.0400 O   0  0  0  0  0  0  0  0  0  0  0  0
    0.0150   -0.3700    1.9700 C   0  0  0  0  0  0  0  0  0  0  0  0
   -0.3800   -1.2680    2.7420 O   0  0  0  0  0  0  0  0  0  0  0  0
    0.6850    0.7200    2.4910 O   0  0  0  0  0  0  0  0  0  0  0  0
  1  2  1  0
  2  3  1  0
  3  4  2  0
  3  5  1  0
  5  6  1  1
  5 12  1  0
  6  7  1  0
  7  8  1  0
  7  9  1  0
  9 10  1  0
 10 11  2  0
 12 13  2  0
 12 14  1  0
M  END
