
     RDKit          3D

 14 13  0  0  0  0  0  0  0  0999 V2000
    2.3670    0.7110   -1.7690 C   0  0  0  0  0  0  0  0  0  0  0  0
    2.2920   -0.4580   -0.9760 O   0  0  0  0  0  0  0  0  0  0  0  0
    1.3340   -0.1530    0.3090 P   0  0  0  0  0  0  0  0  0  0  0  0
   -0.2390    0.4060    0.2230 O   0  0  0  0  0  0  0  0  0  0  0  0
   -1.2920   -0.0870   -0.4280 C   0  0  0  0  0  0  0  0  0  0  0  0
   -2.2690   -0.2280    0.7850 C   0  0  0  0  0  0  0  0  0  0  0  0
   -3.5760   -0.6530    0.4460 N   0  0  0  0  0  0  0  0  0  0  0  0
   -4.2550    0.2570   -0.4650 C   0  0  0  0  0  0  0  0  0  0  0  0
   -3.6370    1.2140   -0.8020 O   0  0  0  0  0  0  0  0  0  0  0  0
   -5.6030   -0.1190   -0.8030 O   0  0  0  0  0  0  0  0  0  0  0  0
    2.1420    0.7800    1.5560 O   0  0  0  0  0  0  0  0  0  0  0  0
    3.7710    0.4590    1.5240 P   0  0  0  0  0  0  0  0  0  0  0  0
    4.4110   -0.5080    2.7520 O   0  0  0  0  0  0  0  0  0  0  0  0
    4.6460    0.8570    0.1780 O   0  0  0  0  0  0  0  0  0  0  0  0
  1  2  1  0
  2  3  1  0
  3  4  1  0
  3 11  1  0
  4  5  1  0
  5  6  1  0
  6  7  1  0
  7  8  1  0
  8  9  2  0
  8 10  1  0
 11 12  1  0
 12 13  1  0
 12 14  1  0
M  END
