
     RDKit          3D

 14 13  0  0  0  0  0  0  0  0999 V2000
    4.8830    2.4200    0.3120 O   0  0  0  0  0  0  0  0  0  0  0  0
    4.6460    0.9570    0.7670 P   0  0  0  0  0  0  0  0  0  0  0  0
    4.6260   -0.4230   -0.2410 O   0  0  0  0  0  0  0  0  0  0  0  0
    2.9680   -0.9700   -0.4020 P   0  0  0  0  0  0  0  0  0  0  0  0
    2.6130   -2.3800    0.5360 O   0  0  0  0  0  0  0  0  0  0  0  0
    1.8300    0.4070   -0.0700 C   0  0  0  0  0  0  0  0  0  0  0  0
    0.5660    0.1380    0.4000 O   0  0  0  0  0  0  0  0  0  0  0  0
   -0.3410   -0.6450   -0.3640 C   0  0  0  0  0  0  0  0  0  0  0  0
    0.0800   -1.1070   -1.4050 O   0  0  0  0  0  0  0  0  0  0  0  0
   -1.7190   -0.8240    0.1360 C   0  0  0  0  0  0  0  0  0  0  0  0
   -2.4840    0.4130   -0.1300 N   0  0  0  0  0  0  0  0  0  0  0  0
   -3.7760    0.5810    0.4260 C   0  0  0  0  0  0  0  0  0  0  0  0
   -4.2990   -0.2990    1.1720 O   0  0  0  0  0  0  0  0  0  0  0  0
   -4.5550    1.7300    0.1900 O   0  0  0  0  0  0  0  0  0  0  0  0
  1  2  2  0
  2  3  1  0
  3  4  1  0
  4  5  1  0
  4  6  1  0
  6  7  1  0
  7  8  1  0
  8  9  2  0
  8 10  1  0
 10 11  1  0
 11 12  1  0
 12 13  2  0
 12 14  1  0
M  END
