
     RDKit          3D

 14 15  0  0  0  0  0  0  0  0999 V2000
    1.1670    2.1150   -1.4190 O   0  0  0  0  0  0  0  0  0  0  0  0
    1.9380    1.1600   -0.7310 C   0  0  0  0  0  0  0  0  0  0  0  0
    3.1660    1.4270   -0.4150 N   0  0  0  0  0  0  0  0  0  0  0  0
    3.9040    0.5070    0.2460 O   0  0  0  0  0  0  0  0  0  0  0  0
    3.4900   -0.7570    0.6520 C   0  0  0  0  0  0  0  0  0  0  0  0
    2.0950   -1.0220    0.2770 C   0  0  0  0  0  0  0  0  0  0  0  0
    1.3730   -0.1290   -0.3670 C   0  0  0  0  0  0  0  0  0  0  0  0
    0.0060   -0.4060   -0.7270 N   0  0  0  0  0  0  0  0  0  0  0  0
   -1.0330   -0.5650    0.2640 C   0  0  1  0  0  0  0  0  0  0  0  0
   -1.1410    0.7110    1.0770 C   0  0  0  0  0  0  0  0  0  0  0  0
   -2.4190    1.1910    0.9310 O   0  0  0  0  0  0  0  0  0  0  0  0
   -3.2480    0.1400    0.5880 C   0  0  0  0  0  0  0  0  0  0  0  0
   -2.3780   -0.6640   -0.3770 C   0  0  1  0  0  0  0  0  0  0  0  0
   -2.3910   -0.0740   -1.6370 O   0  0  0  0  0  0  0  0  0  0  0  0
  1  2  1  0
  2  3  2  0
  2  7  1  0
  3  4  1  0
  4  5  1  0
  5  6  1  0
  6  7  2  0
  7  8  1  0
  9  8  1  6
  9 10  1  0
  9 13  1  0
 10 11  1  0
 11 12  1  0
 12 13  1  0
 13 14  1  6
M  END
