
     RDKit          3D

  7  6  0  0  0  0  0  0  0  0999 V2000
   -0.1790   -1.5390    0.7250 C   0  0  0  0  0  0  0  0  0  0  0  0
   -0.7310   -0.3070    1.0230 O   0  0  0  0  0  0  0  0  0  0  0  0
   -0.1570    0.7000    0.2720 C   0  0  1  0  0  0  0  0  0  0  0  0
   -1.0910    1.3840   -0.5090 O   0  0  0  0  0  0  0  0  0  0  0  0
   -0.7580    1.3250   -1.7910 O   0  0  0  0  0  0  0  0  0  0  0  0
    0.4680    1.5780    1.1650 O   0  0  0  0  0  0  0  0  0  0  0  0
    2.1340    1.6550    0.8580 Cl  0  0  0  0  0  0  0  0  0  0  0  0
  1  2  1  0
  3  2  1  1
  3  4  1  0
  3  6  1  0
  4  5  1  0
  6  7  1  0
M  END
