
     RDKit          3D

  7  6  0  0  0  0  0  0  0  0999 V2000
    2.3180    1.1510    0.2510 O   0  0  0  0  0  0  0  0  0  0  0  0
    1.5130    0.0410    0.2540 C   0  0  0  0  0  0  0  0  0  0  0  0
    0.1880    0.3500   -0.1290 O   0  0  0  0  0  0  0  0  0  0  0  0
   -0.4810   -0.7570   -0.0920 O   0  0  0  0  0  0  0  0  0  0  0  0
   -1.7700   -0.6390    0.3690 C   0  0  0  0  0  0  0  0  0  0  0  0
   -2.4650    0.2300   -0.4610 O   0  0  0  0  0  0  0  0  0  0  0  0
   -1.7120    1.7550   -0.4530 Cl  0  0  0  0  0  0  0  0  0  0  0  0
  1  2  1  0
  2  3  1  0
  3  4  1  0
  4  5  1  0
  5  6  1  0
  6  7  1  0
M  END
