
     RDKit          3D

  8  7  0  0  0  0  0  0  0  0999 V2000
    1.8430    0.0330   -0.3430 C   0  0  0  0  0  0  0  0  0  0  0  0
    0.8500    0.5070    0.4950 O   0  0  0  0  0  0  0  0  0  0  0  0
   -0.4170    0.1370    0.1260 C   0  0  2  0  0  0  0  0  0  0  0  0
   -1.2860    0.7050    1.0850 O   0  0  0  0  0  0  0  0  0  0  0  0
   -0.6360   -1.2370    0.1860 O   0  0  0  0  0  0  0  0  0  0  0  0
   -1.8880   -1.4360   -0.1940 O   0  0  0  0  0  0  0  0  0  0  0  0
   -0.7560    0.6410   -1.1470 O   0  0  0  0  0  0  0  0  0  0  0  0
   -0.6620    2.3450   -1.0670 Cl  0  0  0  0  0  0  0  0  0  0  0  0
  1  2  1  0
  2  3  1  0
  3  4  1  1
  3  5  1  0
  3  7  1  0
  5  6  1  0
  7  8  1  0
M  END
