
     RDKit          3D

 13 13  0  0  0  0  0  0  0  0999 V2000
   -3.0540    0.6230    0.0310 C   0  0  0  0  0  0  0  0  0  0  0  0
   -1.8150    0.0920    0.6150 N   0  0  0  0  0  0  0  0  0  0  0  0
   -2.0780   -1.3550    0.7130 C   0  0  0  0  0  0  0  0  0  0  0  0
   -0.6880    0.3480   -0.2540 C   0  0  1  0  0  0  0  0  0  0  0  0
   -0.8200   -0.1450   -1.5280 O   0  0  0  0  0  0  0  0  0  0  0  0
   -0.5540    1.8570   -0.3640 C   0  0  0  0  0  0  0  0  0  0  0  0
    0.8420    1.9000   -0.8400 N   0  0  0  0  0  0  0  0  0  0  0  0
    1.4380    1.2490    0.3480 C   0  0  0  0  0  0  0  0  0  0  0  0
    0.6360   -0.0230    0.4080 C   0  0  1  0  0  0  0  0  0  0  0  0
    0.4320   -0.4270    1.7300 O   0  0  0  0  0  0  0  0  0  0  0  0
    1.3480   -1.0910   -0.3510 C   0  0  0  0  0  0  0  0  0  0  0  0
    2.6240   -1.5580    0.2270 C   0  0  0  0  0  0  0  0  0  0  0  0
    3.6450   -0.6680    0.3810 O   0  0  0  0  0  0  0  0  0  0  0  0
  1  2  1  0
  2  3  1  0
  2  4  1  0
  4  5  1  6
  4  6  1  0
  4  9  1  0
  6  7  1  0
  7  8  1  0
  8  9  1  0
  9 10  1  1
  9 11  1  0
 11 12  1  0
 12 13  1  0
M  END
