
     RDKit          3D

 13 14  0  0  0  0  0  0  0  0999 V2000
   -2.7180   -1.1610    1.6170 O   0  0  0  0  0  0  0  0  0  0  0  0
   -2.4110   -0.8510    0.3220 C   0  0  1  0  0  0  0  0  0  0  0  0
   -3.2880    0.2800   -0.2410 C   0  0  0  0  0  0  0  0  0  0  0  0
   -2.6560    0.4260   -1.4670 O   0  0  0  0  0  0  0  0  0  0  0  0
   -1.3160    0.5920   -1.1340 C   0  0  0  0  0  0  0  0  0  0  0  0
   -1.0740   -0.0740    0.2140 C   0  0  1  0  0  0  0  0  0  0  0  0
   -1.0660    0.8340    1.2450 O   0  0  0  0  0  0  0  0  0  0  0  0
    0.0690   -1.0180    0.1980 C   0  0  0  0  0  0  0  0  0  0  0  0
    1.4320   -0.4830    0.1370 C   0  0  1  0  0  0  0  0  0  0  0  0
    1.8150    0.3660   -1.0380 C   0  0  0  0  0  0  0  0  0  0  0  0
    3.1710    0.9040   -0.4990 C   0  0  0  0  0  0  0  0  0  0  0  0
    3.1540    0.6270    0.9230 N   0  0  0  0  0  0  0  0  0  0  0  0
    1.8050    0.4140    1.2310 N   0  0  0  0  0  0  0  0  0  0  0  0
  2  1  1  1
  2  3  1  0
  2  6  1  0
  3  4  1  0
  4  5  1  0
  5  6  1  0
  6  7  1  1
  6  8  1  0
  9  8  1  6
  9 10  1  0
  9 13  1  0
 10 11  1  0
 11 12  1  0
 12 13  1  0
M  END
