
     RDKit          3D

  8  7  0  0  0  0  0  0  0  0999 V2000
    1.6680    0.3770    1.7150 O   0  0  0  0  0  0  0  0  0  0  0  0
    1.4770    0.3970    0.4610 C   0  0  0  0  0  0  0  0  0  0  0  0
    2.3500   -0.3410   -0.3210 O   0  0  0  0  0  0  0  0  0  0  0  0
    0.3450    1.2120   -0.0290 C   0  0  0  0  0  0  0  0  0  0  0  0
   -1.1130    0.4590    0.2760 S   0  0  2  0  0  0  0  0  0  0  0  0
   -0.6430   -1.1190   -0.8690 O   0  0  0  0  0  0  0  0  0  0  0  0
   -2.3730    0.9080   -0.3970 O   0  0  0  0  0  0  0  0  0  0  0  0
   -1.1690   -0.4060    1.5920 O   0  0  0  0  0  0  0  0  0  0  0  0
  1  2  2  0
  2  3  1  0
  2  4  1  0
  4  5  1  0
  5  6  1  6
  5  7  1  0
  5  8  1  0
M  END
