
     RDKit          3D

  7  6  0  0  0  0  0  0  0  0999 V2000
   -1.6680    0.2540   -0.6000 C   0  0  0  0  0  0  0  0  0  0  0  0
   -0.4920    0.0060   -1.2770 O   0  0  0  0  0  0  0  0  0  0  0  0
    0.6110   -0.0900   -0.4660 C   0  0  2  0  0  0  0  0  0  0  0  0
    0.5430   -1.0920    0.4750 O   0  0  0  0  0  0  0  0  0  0  0  0
    0.9360    1.0970    0.1780 O   0  0  0  0  0  0  0  0  0  0  0  0
    1.7080   -0.3920   -1.3020 O   0  0  0  0  0  0  0  0  0  0  0  0
    3.1240   -0.5310   -0.3920 Cl  0  0  0  0  0  0  0  0  0  0  0  0
  1  2  1  0
  2  3  1  0
  3  4  1  1
  3  5  1  0
  3  6  1  0
  6  7  1  0
M  END
