
     RDKit          3D

 46 51  0  0  0  0  0  0  0  0999 V2000
    8.8210    4.3090    0.5010 C   0  0  0  0  0  0  0  0  0  0  0  0
    8.0490    3.6900   -0.6000 C   0  0  0  0  0  0  0  0  0  0  0  0
    8.3130    4.0080   -1.7810 O   0  0  0  0  0  0  0  0  0  0  0  0
    6.9880    2.7210   -0.3520 C   0  0  0  0  0  0  0  0  0  0  0  0
    6.6340    2.3160    0.9070 C   0  0  0  0  0  0  0  0  0  0  0  0
    5.6340    1.4040    1.1090 C   0  0  0  0  0  0  0  0  0  0  0  0
    4.9500    0.8610    0.0660 C   0  0  0  0  0  0  0  0  0  0  0  0
    3.8410   -0.1470    0.2440 C   0  0  1  0  0  0  0  0  0  0  0  0
    2.7980    0.2500   -0.6020 O   0  0  0  0  0  0  0  0  0  0  0  0
    1.5390    0.5550   -0.2040 C   0  0  0  0  0  0  0  0  0  0  0  0
    1.1750    0.5170    0.9600 O   0  0  0  0  0  0  0  0  0  0  0  0
    0.4570    0.9800   -1.1970 C   0  0  0  0  0  0  0  0  0  0  0  0
   -0.6410    1.2980   -1.2360 N   0  0  0  0  0  0  0  0  0  0  0  0
   -1.4100    1.6320   -2.2390 C   0  0  0  0  0  0  0  0  0  0  0  0
   -2.8350    2.0340   -2.1640 C   0  0  0  0  0  0  0  0  0  0  0  0
   -3.4160    2.3210   -3.2900 O   0  0  0  0  0  0  0  0  0  0  0  0
   -3.5720    2.1200   -0.9970 N   0  0  0  0  0  0  0  0  0  0  0  0
   -3.0280    1.8380    0.2850 C   0  0  0  0  0  0  0  0  0  0  0  0
   -3.7140    0.6240    0.9240 C   0  0  0  0  0  0  0  0  0  0  0  0
   -5.1700    1.0190    1.0930 C   0  0  0  0  0  0  0  0  0  0  0  0
   -5.9520    0.4940   -0.0520 C   0  0  1  0  0  0  0  0  0  0  0  0
   -7.3980    0.2010    0.2830 C   0  0  1  0  0  0  0  0  0  0  0  0
   -8.0430    1.4730    0.7510 C   0  0  0  0  0  0  0  0  0  0  0  0
   -8.0130   -0.1900   -0.9210 O   0  0  0  0  0  0  0  0  0  0  0  0
   -7.4810   -0.9100    1.2740 C   0  0  2  0  0  0  0  0  0  0  0  0
   -6.8440   -2.1950    0.7330 C   0  0  0  0  0  0  0  0  0  0  0  0
   -7.5110   -3.2310    1.6430 C   0  0  0  0  0  0  0  0  0  0  0  0
   -8.8360   -2.7360    1.7780 O   0  0  0  0  0  0  0  0  0  0  0  0
   -8.8770   -1.3890    1.4720 C   0  0  0  0  0  0  0  0  0  0  0  0
   -9.9190   -0.7060    1.3820 O   0  0  0  0  0  0  0  0  0  0  0  0
   -5.8300    1.2860   -1.3310 C   0  0  0  0  0  0  0  0  0  0  0  0
   -5.0080    2.5260   -1.2260 C   0  0  0  0  0  0  0  0  0  0  0  0
   -0.7330    1.5810   -3.4760 C   0  0  0  0  0  0  0  0  0  0  0  0
    0.9260    1.0510   -2.9750 S   0  0  0  0  0  0  0  0  0  0  0  0
    4.3250   -1.4780   -0.2000 C   0  0  0  0  0  0  0  0  0  0  0  0
    3.8340   -2.0690   -1.3530 C   0  0  0  0  0  0  0  0  0  0  0  0
    4.2980   -3.3020   -1.7460 C   0  0  0  0  0  0  0  0  0  0  0  0
    5.2500   -3.9720   -1.0130 C   0  0  0  0  0  0  0  0  0  0  0  0
    5.7320   -5.3040   -1.4680 C   0  0  0  0  0  0  0  0  0  0  0  0
    5.7620   -3.4070    0.1450 C   0  0  0  0  0  0  0  0  0  0  0  0
    5.2810   -2.1710    0.5180 C   0  0  0  0  0  0  0  0  0  0  0  0
    5.9120   -1.7910    1.6850 O   0  0  0  0  0  0  0  0  0  0  0  0
    7.0420   -2.6300    1.9240 C   0  0  0  0  0  0  0  0  0  0  0  0
    6.7800   -3.8890    1.1240 C   0  0  0  0  0  0  0  0  0  0  0  0
    5.3040    1.2660   -1.2030 C   0  0  0  0  0  0  0  0  0  0  0  0
    6.3030    2.1780   -1.4190 C   0  0  0  0  0  0  0  0  0  0  0  0
  1  2  1  0
  2  3  2  0
  2  4  1  0
  4  5  2  0
  4 46  1  0
  5  6  1  0
  6  7  2  0
  7  8  1  0
  7 45  1  0
  8  9  1  6
  8 35  1  0
  9 10  1  0
 10 11  2  0
 10 12  1  0
 12 13  2  0
 12 34  1  0
 13 14  1  0
 14 15  1  0
 14 33  2  0
 15 16  2  0
 15 17  1  0
 17 18  1  0
 17 32  1  0
 18 19  1  0
 19 20  1  0
 21 20  1  1
 21 22  1  0
 21 31  1  0
 22 23  1  1
 22 24  1  0
 22 25  1  0
 25 26  1  6
 25 29  1  0
 26 27  1  0
 27 28  1  0
 28 29  1  0
 29 30  2  0
 31 32  1  0
 33 34  1  0
 35 36  2  0
 35 41  1  0
 36 37  1  0
 37 38  2  0
 38 39  1  0
 38 40  1  0
 40 41  2  0
 40 44  1  0
 41 42  1  0
 42 43  1  0
 43 44  1  0
 45 46  2  0
M  END
