
     RDKit          3D

 45 49  0  0  0  0  0  0  0  0999 V2000
   -6.1480   -4.8610    2.7340 C   0  0  0  0  0  0  0  0  0  0  0  0
   -6.6490   -3.5830    2.3750 O   0  0  0  0  0  0  0  0  0  0  0  0
   -6.0150   -2.7870    1.4320 C   0  0  0  0  0  0  0  0  0  0  0  0
   -4.9830   -2.0140    1.7120 C   0  0  0  0  0  0  0  0  0  0  0  0
   -4.3060   -1.1680    0.7240 C   0  0  0  0  0  0  0  0  0  0  0  0
   -3.2760   -0.4050    1.0760 C   0  0  0  0  0  0  0  0  0  0  0  0
   -2.5980    0.4450    0.0770 C   0  0  2  0  0  0  0  0  0  0  0  0
   -1.1010    0.5300    0.3530 C   0  0  0  0  0  0  0  0  0  0  0  0
   -0.3010    1.1520   -0.7250 C   0  0  2  0  0  0  0  0  0  0  0  0
    0.0410    2.6110   -0.5460 C   0  0  0  0  0  0  0  0  0  0  0  0
   -0.4230    3.3220   -1.6530 O   0  0  0  0  0  0  0  0  0  0  0  0
   -0.7180    4.6610   -1.7900 C   0  0  0  0  0  0  0  0  0  0  0  0
   -0.3410    5.2020   -3.0090 C   0  0  0  0  0  0  0  0  0  0  0  0
   -0.5460    6.5410   -3.3490 C   0  0  0  0  0  0  0  0  0  0  0  0
   -1.1500    7.3620   -2.4320 C   0  0  0  0  0  0  0  0  0  0  0  0
   -1.5200    6.8110   -1.2240 C   0  0  0  0  0  0  0  0  0  0  0  0
   -1.3190    5.4700   -0.8780 C   0  0  0  0  0  0  0  0  0  0  0  0
   -1.8100    5.1030    0.4490 C   0  0  0  0  0  0  0  0  0  0  0  0
   -1.4100    5.9140    1.3810 O   0  0  0  0  0  0  0  0  0  0  0  0
   -2.5910    4.0870    0.8610 O   0  0  0  0  0  0  0  0  0  0  0  0
   -3.9460    3.7820    0.6720 C   0  0  0  0  0  0  0  0  0  0  0  0
   -4.0370    2.2500    0.8920 C   0  0  0  0  0  0  0  0  0  0  0  0
   -3.1660    1.7190   -0.1250 N   0  0  0  0  0  0  0  0  0  0  0  0
   -1.0120    0.9050   -2.0290 C   0  0  0  0  0  0  0  0  0  0  0  0
   -1.6260    1.7410   -2.7290 O   0  0  0  0  0  0  0  0  0  0  0  0
   -0.8090   -0.4830   -2.2500 N   0  0  0  0  0  0  0  0  0  0  0  0
    0.4410   -0.9020   -1.6290 C   0  0  1  0  0  0  0  0  0  0  0  0
    1.4000   -1.3380   -2.7510 C   0  0  0  0  0  0  0  0  0  0  0  0
    0.9780    0.3330   -1.0180 C   0  0  2  0  0  0  0  0  0  0  0  0
    1.8020    0.1840    0.2100 C   0  0  0  0  0  0  0  0  0  0  0  0
    2.9980   -0.5740   -0.0760 N   0  0  0  0  0  0  0  0  0  0  0  0
    3.9500   -0.8400    0.9840 C   0  0  0  0  0  0  0  0  0  0  0  0
    3.7040   -0.4020    2.1200 O   0  0  0  0  0  0  0  0  0  0  0  0
    5.1250   -1.5690    0.7590 N   0  0  0  0  0  0  0  0  0  0  0  0
    6.1250   -1.8610    1.7970 C   0  0  1  0  0  0  0  0  0  0  0  0
    6.2630   -3.3620    1.8520 C   0  0  0  0  0  0  0  0  0  0  0  0
    7.4250   -3.6740    0.9470 C   0  0  0  0  0  0  0  0  0  0  0  0
    8.3290   -2.4960    1.1020 C   0  0  2  0  0  0  0  0  0  0  0  0
    9.2430   -2.7620    2.1480 O   0  0  0  0  0  0  0  0  0  0  0  0
   10.5520   -2.7140    1.6700 C   0  0  0  0  0  0  0  0  0  0  0  0
    7.4630   -1.3310    1.4380 C   0  0  0  0  0  0  0  0  0  0  0  0
   -4.8170   -1.1970   -0.6660 C   0  0  0  0  0  0  0  0  0  0  0  0
   -5.9650   -2.0940   -0.8320 C   0  0  0  0  0  0  0  0  0  0  0  0
   -6.5390   -2.8280    0.0770 C   0  0  0  0  0  0  0  0  0  0  0  0
   -7.7020   -3.6870   -0.2650 C   0  0  0  0  0  0  0  0  0  0  0  0
  1  2  1  0
  2  3  1  0
  3  4  2  0
  3 44  1  0
  4  5  1  0
  5  6  2  3
  5 42  1  0
  7  6  1  1
  7  8  1  0
  7 23  1  0
  9  8  1  1
  9 10  1  0
  9 24  1  0
  9 29  1  0
 10 11  1  0
 11 12  1  0
 12 13  2  0
 12 17  1  0
 13 14  1  0
 14 15  2  0
 15 16  1  0
 16 17  2  0
 17 18  1  0
 18 19  2  0
 18 20  1  0
 20 21  1  0
 21 22  1  0
 22 23  1  0
 24 25  2  0
 24 26  1  0
 26 27  1  0
 27 28  1  6
 27 29  1  0
 29 30  1  1
 30 31  1  0
 31 32  1  0
 32 33  2  0
 32 34  1  0
 35 34  1  6
 35 36  1  0
 35 41  1  0
 36 37  1  0
 37 38  1  0
 38 39  1  1
 38 41  1  0
 39 40  1  0
 42 43  1  0
 43 44  2  0
 44 45  1  0
M  CHG  1  23   1
M  END
