
     RDKit          3D

 46 49  0  0  0  0  0  0  0  0999 V2000
   -1.6290   -5.1420   -2.4300 C   0  0  0  0  0  0  0  0  0  0  0  0
   -2.1010   -4.0490   -3.3120 C   0  0  0  0  0  0  0  0  0  0  0  0
   -2.1130   -2.7110   -2.6660 N   0  0  0  0  0  0  0  0  0  0  0  0
   -0.8770   -1.9640   -2.8930 C   0  0  0  0  0  0  0  0  0  0  0  0
    0.3980   -2.6260   -2.8780 C   0  0  0  0  0  0  0  0  0  0  0  0
    1.2760   -2.7540   -1.8250 O   0  0  0  0  0  0  0  0  0  0  0  0
    2.1190   -1.8200   -1.1670 C   0  0  0  0  0  0  0  0  0  0  0  0
    3.4800   -1.7570   -1.3510 C   0  0  0  0  0  0  0  0  0  0  0  0
    4.2700   -0.8280   -0.6990 C   0  0  0  0  0  0  0  0  0  0  0  0
    3.7210    0.0770    0.1640 C   0  0  0  0  0  0  0  0  0  0  0  0
    2.3540    0.0190    0.3540 C   0  0  0  0  0  0  0  0  0  0  0  0
    1.5320   -0.8930   -0.2720 C   0  0  0  0  0  0  0  0  0  0  0  0
    0.1320   -0.8430    0.0780 N   0  0  0  0  0  0  0  0  0  0  0  0
   -0.8040   -1.6250    0.7490 C   0  0  0  0  0  0  0  0  0  0  0  0
   -1.0280   -2.8060    0.2260 O   0  0  0  0  0  0  0  0  0  0  0  0
   -1.6480   -1.4590    1.9480 C   0  0  0  0  0  0  0  0  0  0  0  0
   -1.2350   -2.1970    2.9360 O   0  0  0  0  0  0  0  0  0  0  0  0
   -2.8090   -0.6310    2.1520 N   0  0  0  0  0  0  0  0  0  0  0  0
   -4.0450   -0.6530    1.4260 C   0  0  0  0  0  0  0  0  0  0  0  0
   -4.2450    0.3110    0.3210 C   0  0  2  0  0  0  0  0  0  0  0  0
   -3.4460    1.5600    0.7640 C   0  0  0  0  0  0  0  0  0  0  0  0
   -3.8690    2.1680    2.0320 C   0  0  0  0  0  0  0  0  0  0  0  0
   -5.6150    0.5990    0.0290 N   0  0  1  0  0  0  0  0  0  0  0  0
   -6.6170   -0.2340    0.6150 C   0  0  0  0  0  0  0  0  0  0  0  0
   -7.3750    0.3550    1.7690 C   0  0  0  0  0  0  0  0  0  0  0  0
   -8.4570    1.3090    1.3780 C   0  0  0  0  0  0  0  0  0  0  0  0
   -8.5200    1.6190   -0.0790 C   0  0  0  0  0  0  0  0  0  0  0  0
   -7.2800    2.1790   -0.6700 C   0  0  0  0  0  0  0  0  0  0  0  0
   -6.0300    1.9750    0.2030 C   0  0  0  0  0  0  0  0  0  0  0  0
   -3.5360    0.0020   -0.9830 C   0  0  0  0  0  0  0  0  0  0  0  0
   -4.0190   -1.0330   -1.8920 C   0  0  0  0  0  0  0  0  0  0  0  0
   -3.2440   -2.2850   -1.9530 C   0  0  0  0  0  0  0  0  0  0  0  0
   -3.7140   -3.2130   -1.1710 O   0  0  0  0  0  0  0  0  0  0  0  0
    4.4960    1.1030    0.9010 C   0  0  0  0  0  0  0  0  0  0  0  0
    5.6330    1.5020    0.2570 O   0  0  0  0  0  0  0  0  0  0  0  0
    6.6030    2.0140    1.1360 C   0  0  2  0  0  0  0  0  0  0  0  0
    6.1090    3.3350    1.7350 C   0  0  1  0  0  0  0  0  0  0  0  0
    7.1720    3.9180    2.6300 C   0  0  0  0  0  0  0  0  0  0  0  0
    5.8960    4.2180    0.6910 O   0  0  0  0  0  0  0  0  0  0  0  0
    7.8600    2.1860    0.3550 C   0  0  0  0  0  0  0  0  0  0  0  0
    9.0770    1.6010    0.9620 C   0  0  0  0  0  0  0  0  0  0  0  0
    9.3060    0.3870    1.3470 C   0  0  0  0  0  0  0  0  0  0  0  0
    8.4330   -0.8060    1.3060 C   0  0  0  0  0  0  0  0  0  0  0  0
    7.7790   -1.0830   -0.0050 C   0  0  0  0  0  0  0  0  0  0  0  0
    6.3970   -1.0780    0.2260 O   0  0  0  0  0  0  0  0  0  0  0  0
    5.7420   -0.8410   -0.9560 C   0  0  0  0  0  0  0  0  0  0  0  0
  1  2  1  0
  2  3  1  0
  3  4  1  0
  3 32  1  0
  4  5  1  0
  5  6  1  0
  6  7  1  0
  7  8  2  0
  7 12  1  0
  8  9  1  0
  9 10  2  0
  9 46  1  0
 10 11  1  0
 10 34  1  0
 11 12  2  0
 12 13  1  0
 13 14  1  0
 14 15  2  0
 14 16  1  0
 16 17  2  0
 16 18  1  0
 18 19  1  0
 19 20  1  0
 20 21  1  1
 20 23  1  0
 20 30  1  0
 21 22  1  0
 23 24  1  1
 23 29  1  0
 24 25  1  0
 25 26  1  0
 26 27  1  0
 27 28  1  0
 28 29  1  0
 30 31  1  0
 31 32  1  0
 32 33  2  0
 34 35  1  0
 35 36  1  0
 36 37  1  0
 36 40  1  6
 37 38  1  1
 37 39  1  0
 40 41  1  0
 41 42  2  0
 42 43  1  0
 43 44  1  0
 44 45  1  0
 45 46  1  0
M  CHG  1  23   1
M  END
