
     RDKit          3D

 46 49  0  0  0  0  0  0  0  0999 V2000
   -3.1550    6.4220   -0.1630 C   0  0  0  0  0  0  0  0  0  0  0  0
   -2.4060    5.1840   -0.5930 C   0  0  0  0  0  0  0  0  0  0  0  0
   -2.6920    4.0960    0.4010 C   0  0  2  0  0  0  0  0  0  0  0  0
   -1.9520    2.8460   -0.0070 C   0  0  0  0  0  0  0  0  0  0  0  0
   -0.7920    2.6770    0.9550 C   0  0  0  0  0  0  0  0  0  0  0  0
   -0.2380    3.9640    1.1550 O   0  0  0  0  0  0  0  0  0  0  0  0
    1.1240    4.2140    1.2210 C   0  0  0  0  0  0  0  0  0  0  0  0
    1.2830    5.4270    1.7120 O   0  0  0  0  0  0  0  0  0  0  0  0
    2.2890    3.4040    0.8640 C   0  0  0  0  0  0  0  0  0  0  0  0
    3.2930    3.5850    1.8560 C   0  0  0  0  0  0  0  0  0  0  0  0
    4.5040    2.9810    1.8370 C   0  0  0  0  0  0  0  0  0  0  0  0
    4.7570    2.1210    0.7480 C   0  0  0  0  0  0  0  0  0  0  0  0
    5.9830    1.5400    0.7800 O   0  0  0  0  0  0  0  0  0  0  0  0
    6.8180    0.6760    0.2270 C   0  0  2  0  0  0  0  0  0  0  0  0
    7.5400   -0.2280    1.2710 C   0  0  0  0  0  0  0  0  0  0  0  0
    7.9480    1.3320   -0.6040 C   0  0  0  0  0  0  0  0  0  0  0  0
    3.7700    1.9280   -0.2560 C   0  0  0  0  0  0  0  0  0  0  0  0
    2.5510    2.5650   -0.1930 C   0  0  0  0  0  0  0  0  0  0  0  0
    4.3070    1.0660   -1.2790 N   0  0  0  0  0  0  0  0  0  0  0  0
    3.7980   -0.1240   -1.8630 C   0  0  0  0  0  0  0  0  0  0  0  0
    3.9600   -0.2550   -3.1250 O   0  0  0  0  0  0  0  0  0  0  0  0
    3.1000   -1.1990   -1.0890 C   0  0  2  0  0  0  0  0  0  0  0  0
    4.1170   -1.9190   -0.2180 C   0  0  0  0  0  0  0  0  0  0  0  0
    3.3690   -3.2430   -0.0010 C   0  0  0  0  0  0  0  0  0  0  0  0
    2.4690   -3.3540   -1.1970 C   0  0  1  0  0  0  0  0  0  0  0  0
    1.0240   -3.4950   -0.7800 C   0  0  0  0  0  0  0  0  0  0  0  0
    0.7540   -4.7970   -0.1520 N   0  0  0  0  0  0  0  0  0  0  0  0
    1.8810   -5.6410    0.1920 C   0  0  0  0  0  0  0  0  0  0  0  0
   -0.5960   -5.1500    0.0830 C   0  0  0  0  0  0  0  0  0  0  0  0
   -0.6690   -6.2910    0.7330 O   0  0  0  0  0  0  0  0  0  0  0  0
   -1.8620   -4.4790   -0.2690 C   0  0  0  0  0  0  0  0  0  0  0  0
   -2.7920   -5.4620   -0.7010 C   0  0  0  0  0  0  0  0  0  0  0  0
   -4.0620   -5.1800   -1.1050 C   0  0  0  0  0  0  0  0  0  0  0  0
   -4.4050   -3.8510   -1.0710 C   0  0  0  0  0  0  0  0  0  0  0  0
   -5.8110   -3.5070   -1.4980 C   0  0  0  0  0  0  0  0  0  0  0  0
   -3.5080   -2.8420   -0.6470 C   0  0  0  0  0  0  0  0  0  0  0  0
   -2.2260   -3.1510   -0.2410 C   0  0  0  0  0  0  0  0  0  0  0  0
   -4.1710   -1.4970   -0.7350 C   0  0  0  0  0  0  0  0  0  0  0  0
   -4.6830   -1.0330    0.6270 C   0  0  0  0  0  0  0  0  0  0  0  0
   -5.8890   -0.2480    0.5130 N   0  0  0  0  0  0  0  0  0  0  0  0
   -5.6460    1.1390    0.2050 C   0  0  0  0  0  0  0  0  0  0  0  0
   -5.3170    1.8450    1.4670 C   0  0  0  0  0  0  0  0  0  0  0  0
   -5.7820    1.3810    2.5390 O   0  0  0  0  0  0  0  0  0  0  0  0
   -4.5060    3.0110    1.4940 N   0  0  0  0  0  0  0  0  0  0  0  0
   -4.1860    3.7760    0.3110 C   0  0  0  0  0  0  0  0  0  0  0  0
    2.5760   -2.1680   -1.9040 O   0  0  0  0  0  0  0  0  0  0  0  0
  1  2  1  0
  3  2  1  6
  3  4  1  0
  3 45  1  0
  4  5  1  0
  5  6  1  0
  6  7  1  0
  7  8  2  0
  7  9  1  0
  9 10  1  0
  9 18  2  0
 10 11  2  0
 11 12  1  0
 12 13  1  0
 12 17  2  0
 13 14  1  0
 14 15  1  1
 14 16  1  0
 17 18  1  0
 17 19  1  0
 19 20  1  0
 20 21  2  0
 20 22  1  0
 22 23  1  1
 22 46  1  0
 23 24  1  0
 25 24  1  1
 25 26  1  0
 25 46  1  0
 26 27  1  0
 27 28  1  0
 27 29  1  0
 29 30  2  0
 29 31  1  0
 31 32  1  0
 31 37  2  0
 32 33  2  0
 33 34  1  0
 34 35  1  0
 34 36  2  0
 36 37  1  0
 36 38  1  0
 38 39  1  0
 39 40  1  0
 40 41  1  0
 41 42  1  0
 42 43  2  0
 42 44  1  0
 44 45  1  0
M  CHG  1  40   1
M  END
