
     RDKit          3D

 46 49  0  0  0  0  0  0  0  0999 V2000
    6.9660   -0.8180   -1.2850 C   0  0  0  0  0  0  0  0  0  0  0  0
    6.8920    0.3960   -1.2190 C   0  0  0  0  0  0  0  0  0  0  0  0
    8.2860    0.9580   -1.2340 O   0  0  0  0  0  0  0  0  0  0  0  0
    5.9520    1.4450   -1.1070 C   0  0  0  0  0  0  0  0  0  0  0  0
    4.5370    1.5520   -0.8820 C   0  0  0  0  0  0  0  0  0  0  0  0
    3.4850    0.8450   -0.5130 C   0  0  0  0  0  0  0  0  0  0  0  0
    3.6390   -0.5210   -0.1180 C   0  0  0  0  0  0  0  0  0  0  0  0
    3.0110   -1.6410    0.0870 C   0  0  0  0  0  0  0  0  0  0  0  0
    3.5370   -2.8850    0.4970 C   0  0  0  0  0  0  0  0  0  0  0  0
    3.7340   -4.0240    0.8330 C   0  0  0  0  0  0  0  0  0  0  0  0
    4.1520   -5.2900    1.2230 C   0  0  0  0  0  0  0  0  0  0  0  0
    1.4880   -1.7880   -0.1350 C   0  0  1  0  0  0  0  0  0  0  0  0
    1.2640   -1.8050   -1.4860 O   0  0  0  0  0  0  0  0  0  0  0  0
    0.9440   -2.9880    0.5290 C   0  0  0  0  0  0  0  0  0  0  0  0
   -0.0140   -3.0980    1.4340 C   0  0  0  0  0  0  0  0  0  0  0  0
   -0.8690   -2.1450    2.0860 C   0  0  0  0  0  0  0  0  0  0  0  0
   -0.4500   -1.7380    3.2510 O   0  0  0  0  0  0  0  0  0  0  0  0
   -2.0980   -1.5310    1.7520 N   0  0  0  0  0  0  0  0  0  0  0  0
   -2.8660   -1.5410    0.5690 C   0  0  2  0  0  0  0  0  0  0  0  0
   -3.7150   -2.8320    0.5920 C   0  0  0  0  0  0  0  0  0  0  0  0
   -3.8380   -3.1970   -0.9010 C   0  0  0  0  0  0  0  0  0  0  0  0
   -2.4700   -2.8070   -1.3390 C   0  0  1  0  0  0  0  0  0  0  0  0
   -2.1200   -2.9570   -2.6340 O   0  0  0  0  0  0  0  0  0  0  0  0
   -1.8490   -1.8220   -3.3580 C   0  0  0  0  0  0  0  0  0  0  0  0
   -2.9670   -0.8500   -3.0140 C   0  0  0  0  0  0  0  0  0  0  0  0
   -2.6830   -0.3830   -1.6360 N   0  0  0  0  0  0  0  0  0  0  0  0
   -2.8510    0.9510   -1.3680 C   0  0  0  0  0  0  0  0  0  0  0  0
   -3.0790    1.7150   -2.3830 O   0  0  0  0  0  0  0  0  0  0  0  0
   -2.8090    1.7040   -0.0770 C   0  0  2  0  0  0  0  0  0  0  0  0
   -4.1030    2.0630    0.1320 O   0  0  0  0  0  0  0  0  0  0  0  0
   -5.0170    2.3730    1.0140 C   0  0  0  0  0  0  0  0  0  0  0  0
   -4.7970    2.7500    2.3190 C   0  0  0  0  0  0  0  0  0  0  0  0
   -5.7840    3.0630    3.2300 C   0  0  0  0  0  0  0  0  0  0  0  0
   -7.0880    3.0010    2.8360 C   0  0  0  0  0  0  0  0  0  0  0  0
   -7.3890    2.6210    1.5120 C   0  0  0  0  0  0  0  0  0  0  0  0
   -6.4100    2.3230    0.6470 C   0  0  0  0  0  0  0  0  0  0  0  0
   -1.8750    2.9120   -0.2210 C   0  0  0  0  0  0  0  0  0  0  0  0
   -0.6790    2.8770    0.5410 N   0  0  1  0  0  0  0  0  0  0  0  0
   -0.9100    3.3780    1.8930 C   0  0  0  0  0  0  0  0  0  0  0  0
    0.0520    1.6620    0.6480 C   0  0  0  0  0  0  0  0  0  0  0  0
    0.8970    1.4120   -0.5590 C   0  0  0  0  0  0  0  0  0  0  0  0
    0.1700    1.0080   -1.5620 O   0  0  0  0  0  0  0  0  0  0  0  0
    2.2360    1.5220   -0.8140 N   0  0  0  0  0  0  0  0  0  0  0  0
   -2.2220   -1.4350   -0.7460 C   0  0  1  0  0  0  0  0  0  0  0  0
    6.5240    2.7180   -1.2220 C   0  0  0  0  0  0  0  0  0  0  0  0
    5.7650    3.9340   -1.1420 C   0  0  0  0  0  0  0  0  0  0  0  0
  1  2  2  0
  2  3  1  0
  2  4  1  0
  4  5  1  0
  4 45  2  3
  5  6  2  3
  6  7  1  0
  6 43  1  0
  7  8  2  0
  8  9  1  0
  8 12  1  0
  9 10  2  3
 10 11  1  0
 12 13  1  6
 12 14  1  0
 14 15  2  0
 15 16  1  0
 16 17  2  0
 16 18  1  0
 18 19  1  0
 19 20  1  6
 19 44  1  0
 20 21  1  0
 22 21  1  6
 22 23  1  0
 22 44  1  0
 23 24  1  0
 24 25  1  0
 25 26  1  0
 26 27  1  0
 44 26  1  6
 27 28  2  0
 27 29  1  0
 29 30  1  6
 29 37  1  0
 30 31  1  0
 31 32  2  0
 31 36  1  0
 32 33  1  0
 33 34  2  0
 34 35  1  0
 35 36  2  0
 37 38  1  0
 38 39  1  1
 38 40  1  0
 40 41  1  0
 41 42  2  0
 41 43  1  0
 45 46  1  0
M  CHG  1  38   1
M  END
