
     RDKit          3D

 46 51  0  0  0  0  0  0  0  0999 V2000
   -1.1130   -1.7750   -2.2490 C   0  0  0  0  0  0  0  0  0  0  0  0
   -1.1110   -2.6450   -1.1060 O   0  0  0  0  0  0  0  0  0  0  0  0
   -1.1730   -2.0090    0.1230 C   0  0  0  0  0  0  0  0  0  0  0  0
   -2.3950   -1.7300    0.7360 C   0  0  0  0  0  0  0  0  0  0  0  0
   -3.5770   -2.0940    0.1110 O   0  0  0  0  0  0  0  0  0  0  0  0
   -4.8480   -1.8420    0.6860 C   0  0  0  0  0  0  0  0  0  0  0  0
   -5.8800   -2.3720   -0.3010 C   0  0  2  0  0  0  0  0  0  0  0  0
   -5.5660   -1.6980   -1.6230 C   0  0  0  0  0  0  0  0  0  0  0  0
   -5.8130    0.0940   -1.2690 S   0  0  0  0  0  0  0  0  0  0  0  0
   -7.4320    0.1050   -0.5070 C   0  0  0  0  0  0  0  0  0  0  0  0
   -8.4000    0.9290   -0.7640 C   0  0  0  0  0  0  0  0  0  0  0  0
   -8.3770    2.0090   -1.7130 C   0  0  0  0  0  0  0  0  0  0  0  0
   -9.4240    2.8180   -1.9190 C   0  0  0  0  0  0  0  0  0  0  0  0
  -10.7380    2.7430   -1.2300 C   0  0  0  0  0  0  0  0  0  0  0  0
   -9.0410    3.7980   -2.9500 C   0  0  0  0  0  0  0  0  0  0  0  0
   -7.6520    3.4690   -3.3200 C   0  0  0  0  0  0  0  0  0  0  0  0
   -7.2840    2.4090   -2.5760 C   0  0  0  0  0  0  0  0  0  0  0  0
   -7.5620   -0.9910    0.5150 C   0  0  0  0  0  0  0  0  0  0  0  0
   -7.1670   -2.2140    0.1080 O   0  0  0  0  0  0  0  0  0  0  0  0
   -2.3990   -1.1040    1.9420 C   0  0  0  0  0  0  0  0  0  0  0  0
   -1.2060   -0.7520    2.5410 C   0  0  0  0  0  0  0  0  0  0  0  0
    0.0110   -1.0310    1.9280 C   0  0  0  0  0  0  0  0  0  0  0  0
    1.2260   -0.6320    2.6180 C   0  0  0  0  0  0  0  0  0  0  0  0
    1.1330   -0.0490    3.7200 O   0  0  0  0  0  0  0  0  0  0  0  0
    2.5000   -0.8620    2.1220 O   0  0  0  0  0  0  0  0  0  0  0  0
    3.6760   -0.4760    2.7830 C   0  0  1  0  0  0  0  0  0  0  0  0
    4.3940   -1.7700    3.1950 C   0  0  0  0  0  0  0  0  0  0  0  0
    5.3060   -1.3940    4.3450 C   0  0  0  0  0  0  0  0  0  0  0  0
    5.9770   -0.0520    4.0200 C   0  0  0  0  0  0  0  0  0  0  0  0
    5.9460    0.1860    2.5860 N   0  0  0  0  0  0  0  0  0  0  0  0
    7.1660    0.2680    1.8750 C   0  0  0  0  0  0  0  0  0  0  0  0
    8.2400    0.1260    2.5350 O   0  0  0  0  0  0  0  0  0  0  0  0
    7.3130    0.4980    0.4600 C   0  0  0  0  0  0  0  0  0  0  0  0
    7.4320    1.7430   -0.1160 C   0  0  0  0  0  0  0  0  0  0  0  0
    7.5810    1.9400   -1.4770 C   0  0  0  0  0  0  0  0  0  0  0  0
    7.6100    0.8370   -2.2950 C   0  0  0  0  0  0  0  0  0  0  0  0
    7.4930   -0.3950   -1.7410 N   0  0  0  0  0  0  0  0  0  0  0  0
    7.3490   -0.5690   -0.4150 C   0  0  0  0  0  0  0  0  0  0  0  0
    7.2460   -1.7610    0.0070 O   0  0  0  0  0  0  0  0  0  0  0  0
    7.7790    1.2530   -3.7370 C   0  0  0  0  0  0  0  0  0  0  0  0
    8.3130    2.6490   -3.5950 C   0  0  0  0  0  0  0  0  0  0  0  0
    7.7290    3.1870   -2.3000 C   0  0  0  0  0  0  0  0  0  0  0  0
    4.6340    0.3250    1.9690 C   0  0  0  0  0  0  0  0  0  0  0  0
    0.0210   -1.6640    0.7100 C   0  0  0  0  0  0  0  0  0  0  0  0
    1.2320   -1.9320    0.1150 O   0  0  0  0  0  0  0  0  0  0  0  0
    1.8660   -3.1670    0.3930 C   0  0  0  0  0  0  0  0  0  0  0  0
  1  2  1  0
  2  3  1  0
  3  4  2  0
  3 44  1  0
  4  5  1  0
  4 20  1  0
  5  6  1  0
  7  6  1  1
  7  8  1  0
  7 19  1  0
  8  9  1  0
  9 10  1  0
 10 11  2  3
 10 18  1  0
 11 12  1  0
 12 13  2  0
 12 17  1  0
 13 14  1  0
 13 15  1  0
 15 16  1  0
 16 17  2  0
 18 19  1  0
 20 21  2  0
 21 22  1  0
 22 23  1  0
 22 44  2  0
 23 24  2  0
 23 25  1  0
 26 25  1  6
 26 27  1  0
 26 43  1  0
 27 28  1  0
 28 29  1  0
 29 30  1  0
 30 31  1  0
 30 43  1  0
 31 32  2  0
 31 33  1  0
 33 34  2  0
 33 38  1  0
 34 35  1  0
 35 36  2  0
 35 42  1  0
 36 37  1  0
 36 40  1  0
 37 38  1  0
 38 39  2  0
 40 41  1  0
 41 42  1  0
 44 45  1  0
 45 46  1  0
M  END
