
     RDKit          3D

 46 51  0  0  0  0  0  0  0  0999 V2000
   13.8340   -0.8310   -2.0030 C   0  0  0  0  0  0  0  0  0  0  0  0
   13.3640   -0.9760   -0.6400 C   0  0  0  0  0  0  0  0  0  0  0  0
   12.3900   -0.5030    0.0680 C   0  0  0  0  0  0  0  0  0  0  0  0
   12.2830   -1.0750    1.8120 S   0  0  0  0  0  0  0  0  0  0  0  0
   10.5900   -0.8230    2.2680 C   0  0  0  0  0  0  0  0  0  0  0  0
    9.7940    0.0130    1.6170 C   0  0  0  0  0  0  0  0  0  0  0  0
    8.3640    0.1520    2.1210 C   0  0  0  0  0  0  0  0  0  0  0  0
    7.5040   -0.5190    1.1080 C   0  0  0  0  0  0  0  0  0  0  0  0
    6.0410   -0.5060    1.4580 C   0  0  0  0  0  0  0  0  0  0  0  0
    5.6760   -0.1280    2.5910 O   0  0  0  0  0  0  0  0  0  0  0  0
    5.0820   -0.9010    0.5660 O   0  0  0  0  0  0  0  0  0  0  0  0
    3.7200   -0.9560    0.7590 C   0  0  0  0  0  0  0  0  0  0  0  0
    3.0060    0.1460    1.1550 C   0  0  0  0  0  0  0  0  0  0  0  0
    1.6230    0.0670    1.3410 C   0  0  0  0  0  0  0  0  0  0  0  0
    0.9310   -1.1140    1.1340 C   0  0  0  0  0  0  0  0  0  0  0  0
    1.6310   -2.2350    0.7350 C   0  0  0  0  0  0  0  0  0  0  0  0
    3.0030   -2.1170    0.5620 C   0  0  0  0  0  0  0  0  0  0  0  0
    0.7450   -3.2830    0.5890 O   0  0  0  0  0  0  0  0  0  0  0  0
   -0.5170   -2.9530    1.0520 C   0  0  0  0  0  0  0  0  0  0  0  0
   -0.4950   -1.4580    1.2480 C   0  0  2  0  0  0  0  0  0  0  0  0
   -1.2800   -0.8870    0.1570 N   0  0  0  0  0  0  0  0  0  0  0  0
   -2.6170   -0.4690    0.3900 C   0  0  0  0  0  0  0  0  0  0  0  0
   -3.0950   -0.6350    1.5390 O   0  0  0  0  0  0  0  0  0  0  0  0
   -3.4170    0.1200   -0.6190 N   0  0  0  0  0  0  0  0  0  0  0  0
   -4.7830    0.5190   -0.4070 C   0  0  2  0  0  0  0  0  0  0  0  0
   -5.6290    0.0390   -1.5630 C   0  0  0  0  0  0  0  0  0  0  0  0
   -6.6680    1.1350   -1.7060 C   0  0  1  0  0  0  0  0  0  0  0  0
   -8.0310    0.6110   -1.4890 C   0  0  0  0  0  0  0  0  0  0  0  0
   -8.4680   -0.2320   -2.3270 O   0  0  0  0  0  0  0  0  0  0  0  0
   -8.8690    0.9550   -0.4570 O   0  0  0  0  0  0  0  0  0  0  0  0
  -10.1590    0.4020   -0.3370 C   0  0  1  0  0  0  0  0  0  0  0  0
  -10.2760   -0.4740    0.8930 C   0  0  0  0  0  0  0  0  0  0  0  0
  -11.6560   -0.3300    1.5120 C   0  0  0  0  0  0  0  0  0  0  0  0
  -12.7280   -0.3820    0.4490 C   0  0  0  0  0  0  0  0  0  0  0  0
  -12.5760    0.6970   -0.5760 C   0  0  0  0  0  0  0  0  0  0  0  0
  -11.2550    1.4430   -0.4060 C   0  0  2  0  0  0  0  0  0  0  0  0
  -10.9770    2.3270   -1.6000 C   0  0  0  0  0  0  0  0  0  0  0  0
   -6.3710    2.0920   -0.7100 O   0  0  0  0  0  0  0  0  0  0  0  0
   -4.9780    2.0020   -0.4110 C   0  0  0  0  0  0  0  0  0  0  0  0
   -4.1580    2.8810   -0.2110 O   0  0  0  0  0  0  0  0  0  0  0  0
   10.1560    0.6230    0.3690 C   0  0  0  0  0  0  0  0  0  0  0  0
    9.2700    1.5740   -0.1590 C   0  0  0  0  0  0  0  0  0  0  0  0
    9.5030    2.2760   -1.3050 C   0  0  0  0  0  0  0  0  0  0  0  0
   10.6590    2.0610   -1.9950 C   0  0  0  0  0  0  0  0  0  0  0  0
   11.5460    1.1280   -1.4880 C   0  0  0  0  0  0  0  0  0  0  0  0
   11.3300    0.4020   -0.3290 C   0  0  0  0  0  0  0  0  0  0  0  0
  1  2  1  0
  2  3  2  3
  3  4  1  0
  3 46  1  0
  4  5  1  0
  5  6  2  0
  6  7  1  0
  6 41  1  0
  7  8  1  0
  8  9  1  0
  9 10  2  0
  9 11  1  0
 11 12  1  0
 12 13  2  0
 12 17  1  0
 13 14  1  0
 14 15  2  0
 15 16  1  0
 15 20  1  0
 16 17  2  0
 16 18  1  0
 18 19  1  0
 19 20  1  0
 20 21  1  6
 21 22  1  0
 22 23  2  0
 22 24  1  0
 25 24  1  6
 25 26  1  0
 25 39  1  0
 26 27  1  0
 27 28  1  1
 27 38  1  0
 28 29  2  0
 28 30  1  0
 31 30  1  1
 31 32  1  0
 31 36  1  0
 32 33  1  0
 33 34  1  0
 34 35  1  0
 35 36  1  0
 36 37  1  6
 38 39  1  0
 39 40  2  0
 41 42  2  0
 41 46  1  0
 42 43  1  0
 43 44  2  0
 44 45  1  0
 45 46  2  0
M  END
