
     RDKit          3D

 45 49  0  0  0  0  0  0  0  0999 V2000
   -5.2130    6.0820    0.5220 C   0  0  0  0  0  0  0  0  0  0  0  0
   -4.2180    5.4670   -0.2770 O   0  0  0  0  0  0  0  0  0  0  0  0
   -4.0860    4.1020   -0.4040 C   0  0  0  0  0  0  0  0  0  0  0  0
   -3.4000    3.3500    0.4320 C   0  0  0  0  0  0  0  0  0  0  0  0
   -3.2610    1.8790    0.3070 C   0  0  0  0  0  0  0  0  0  0  0  0
   -2.6020    1.3210    1.2990 C   0  0  0  0  0  0  0  0  0  0  0  0
   -2.2650   -0.1090    1.5270 C   0  0  2  0  0  0  0  0  0  0  0  0
   -1.6160   -0.6640    0.3330 C   0  0  0  0  0  0  0  0  0  0  0  0
   -0.4960   -1.6070    0.4340 C   0  0  2  0  0  0  0  0  0  0  0  0
   -0.8300   -2.7690   -0.5460 C   0  0  0  0  0  0  0  0  0  0  0  0
   -1.0260   -3.8930    0.2090 O   0  0  0  0  0  0  0  0  0  0  0  0
   -1.6550   -5.0830    0.0570 C   0  0  0  0  0  0  0  0  0  0  0  0
   -0.9120   -6.1990    0.4620 C   0  0  0  0  0  0  0  0  0  0  0  0
   -1.3750   -7.4960    0.3860 C   0  0  0  0  0  0  0  0  0  0  0  0
   -2.6300   -7.7280   -0.1120 C   0  0  0  0  0  0  0  0  0  0  0  0
   -3.3560   -6.6350   -0.5070 C   0  0  0  0  0  0  0  0  0  0  0  0
   -2.9160   -5.3060   -0.4420 C   0  0  0  0  0  0  0  0  0  0  0  0
   -3.8430   -4.2440   -0.8940 C   0  0  0  0  0  0  0  0  0  0  0  0
   -4.3890   -4.5630   -2.0260 O   0  0  0  0  0  0  0  0  0  0  0  0
   -4.1560   -3.0930   -0.3150 O   0  0  0  0  0  0  0  0  0  0  0  0
   -4.6710   -2.4750    0.7510 C   0  0  0  0  0  0  0  0  0  0  0  0
   -3.6660   -2.1150    1.8570 C   0  0  0  0  0  0  0  0  0  0  0  0
   -3.4970   -0.7100    1.9860 N   0  0  0  0  0  0  0  0  0  0  0  0
   -0.0170   -2.1090    1.6910 C   0  0  0  0  0  0  0  0  0  0  0  0
   -0.4440   -2.0580    2.8340 O   0  0  0  0  0  0  0  0  0  0  0  0
    1.2060   -2.7710    1.3590 N   0  0  0  0  0  0  0  0  0  0  0  0
    1.8450   -2.0040    0.2820 C   0  0  1  0  0  0  0  0  0  0  0  0
    2.3470   -2.9020   -0.8180 C   0  0  0  0  0  0  0  0  0  0  0  0
    0.8520   -0.9790   -0.1030 C   0  0  2  0  0  0  0  0  0  0  0  0
    1.0640    0.2760    0.6520 C   0  0  0  0  0  0  0  0  0  0  0  0
    2.1180    1.1560    0.3360 N   0  0  0  0  0  0  0  0  0  0  0  0
    3.5090    1.1110    0.3850 C   0  0  0  0  0  0  0  0  0  0  0  0
    4.1530    0.1380    0.8140 O   0  0  0  0  0  0  0  0  0  0  0  0
    4.3590    2.2010   -0.0630 N   0  0  0  0  0  0  0  0  0  0  0  0
    5.7880    2.1230    0.0030 C   0  0  1  0  0  0  0  0  0  0  0  0
    6.3260    2.2080   -1.4100 C   0  0  0  0  0  0  0  0  0  0  0  0
    7.1050    3.4970   -1.4640 C   0  0  0  0  0  0  0  0  0  0  0  0
    7.6770    3.5940   -0.0640 C   0  0  2  0  0  0  0  0  0  0  0  0
    8.6280    2.5790    0.0760 O   0  0  0  0  0  0  0  0  0  0  0  0
    9.8380    3.1590    0.4800 C   0  0  0  0  0  0  0  0  0  0  0  0
    6.4310    3.2570    0.7590 C   0  0  0  0  0  0  0  0  0  0  0  0
   -3.8590    1.2230   -0.8510 C   0  0  0  0  0  0  0  0  0  0  0  0
   -4.6230    2.1420   -1.7170 C   0  0  0  0  0  0  0  0  0  0  0  0
   -4.7200    3.4220   -1.5200 C   0  0  0  0  0  0  0  0  0  0  0  0
   -5.5230    4.2580   -2.4790 C   0  0  0  0  0  0  0  0  0  0  0  0
  1  2  1  0
  2  3  1  0
  3  4  2  0
  3 44  1  0
  4  5  1  0
  5  6  2  3
  5 42  1  0
  7  6  1  6
  7  8  1  0
  7 23  1  0
  9  8  1  1
  9 10  1  0
  9 24  1  0
  9 29  1  0
 10 11  1  0
 11 12  1  0
 12 13  2  0
 12 17  1  0
 13 14  1  0
 14 15  2  0
 15 16  1  0
 16 17  2  0
 17 18  1  0
 18 19  2  0
 18 20  1  0
 20 21  1  0
 21 22  1  0
 22 23  1  0
 24 25  2  0
 24 26  1  0
 26 27  1  0
 27 28  1  6
 27 29  1  0
 29 30  1  1
 30 31  1  0
 31 32  1  0
 32 33  2  0
 32 34  1  0
 35 34  1  6
 35 36  1  0
 35 41  1  0
 36 37  1  0
 37 38  1  0
 38 39  1  6
 38 41  1  0
 39 40  1  0
 42 43  1  0
 43 44  2  0
 44 45  1  0
M  CHG  1  23   1
M  END
