
     RDKit          3D

 46 49  0  0  0  0  0  0  0  0999 V2000
   -0.4940    6.8900    0.2830 C   0  0  0  0  0  0  0  0  0  0  0  0
   -1.4230    5.7260    0.1070 C   0  0  0  0  0  0  0  0  0  0  0  0
   -0.6810    4.4260   -0.1090 C   0  0  2  0  0  0  0  0  0  0  0  0
    0.1710    4.5370   -1.3530 C   0  0  0  0  0  0  0  0  0  0  0  0
    1.2810    3.4810   -1.3430 C   0  0  0  0  0  0  0  0  0  0  0  0
    2.2170    3.9280   -0.3650 O   0  0  0  0  0  0  0  0  0  0  0  0
    2.9910    3.1190    0.4270 C   0  0  0  0  0  0  0  0  0  0  0  0
    3.0350    3.5800    1.6640 O   0  0  0  0  0  0  0  0  0  0  0  0
    3.7480    1.8840    0.1490 C   0  0  0  0  0  0  0  0  0  0  0  0
    5.0030    1.9610    0.8070 C   0  0  0  0  0  0  0  0  0  0  0  0
    5.9460    0.9700    0.7460 C   0  0  0  0  0  0  0  0  0  0  0  0
    5.5960   -0.1190   -0.0010 C   0  0  0  0  0  0  0  0  0  0  0  0
    6.5730   -1.1390   -0.0670 O   0  0  0  0  0  0  0  0  0  0  0  0
    7.8150   -1.0940    0.5370 C   0  0  1  0  0  0  0  0  0  0  0  0
    8.7070    0.0040   -0.0470 C   0  0  0  0  0  0  0  0  0  0  0  0
    7.8190   -1.0960    2.0340 C   0  0  0  0  0  0  0  0  0  0  0  0
    4.3520   -0.2480   -0.6790 C   0  0  0  0  0  0  0  0  0  0  0  0
    3.4270    0.7700   -0.5970 C   0  0  0  0  0  0  0  0  0  0  0  0
    4.3180   -1.5050   -1.3550 N   0  0  0  0  0  0  0  0  0  0  0  0
    3.2940   -2.4750   -1.5300 C   0  0  0  0  0  0  0  0  0  0  0  0
    3.3480   -3.3780   -2.4250 O   0  0  0  0  0  0  0  0  0  0  0  0
    2.0760   -2.5180   -0.6850 C   0  0  2  0  0  0  0  0  0  0  0  0
    2.3580   -2.3480    0.7920 C   0  0  0  0  0  0  0  0  0  0  0  0
    1.1850   -3.0400    1.4620 C   0  0  0  0  0  0  0  0  0  0  0  0
    0.6600   -3.9230    0.3980 C   0  0  1  0  0  0  0  0  0  0  0  0
   -0.7820   -3.6310    0.0230 C   0  0  0  0  0  0  0  0  0  0  0  0
   -1.4240   -4.8450   -0.5030 N   0  0  0  0  0  0  0  0  0  0  0  0
   -0.6310   -6.0500   -0.7180 C   0  0  0  0  0  0  0  0  0  0  0  0
   -2.8080   -4.7640   -0.7760 C   0  0  0  0  0  0  0  0  0  0  0  0
   -3.1490   -5.7760   -1.5570 O   0  0  0  0  0  0  0  0  0  0  0  0
   -3.8440   -3.8060   -0.3580 C   0  0  0  0  0  0  0  0  0  0  0  0
   -5.0480   -4.5110   -0.1070 C   0  0  0  0  0  0  0  0  0  0  0  0
   -6.2140   -3.9240    0.3000 C   0  0  0  0  0  0  0  0  0  0  0  0
   -6.1520   -2.5660    0.4570 C   0  0  0  0  0  0  0  0  0  0  0  0
   -7.4290   -1.8780    0.8890 C   0  0  0  0  0  0  0  0  0  0  0  0
   -4.9740   -1.8120    0.2200 C   0  0  0  0  0  0  0  0  0  0  0  0
   -3.8240   -2.4430   -0.1890 C   0  0  0  0  0  0  0  0  0  0  0  0
   -5.2160   -0.3670    0.4900 C   0  0  0  0  0  0  0  0  0  0  0  0
   -5.4130    0.4740   -0.7650 C   0  0  0  0  0  0  0  0  0  0  0  0
   -5.6900    1.8450   -0.4440 N   0  0  0  0  0  0  0  0  0  0  0  0
   -4.5070    2.5620   -0.0070 C   0  0  0  0  0  0  0  0  0  0  0  0
   -4.1350    3.6690   -0.9150 C   0  0  0  0  0  0  0  0  0  0  0  0
   -5.0330    4.3930   -1.4190 O   0  0  0  0  0  0  0  0  0  0  0  0
   -2.7500    3.8830   -1.1920 N   0  0  0  0  0  0  0  0  0  0  0  0
   -1.7210    3.3420   -0.3220 C   0  0  0  0  0  0  0  0  0  0  0  0
    1.4400   -3.7230   -0.7090 O   0  0  0  0  0  0  0  0  0  0  0  0
  1  2  1  0
  3  2  1  6
  3  4  1  0
  3 45  1  0
  4  5  1  0
  5  6  1  0
  6  7  1  0
  7  8  2  0
  7  9  1  0
  9 10  1  0
  9 18  2  0
 10 11  2  0
 11 12  1  0
 12 13  1  0
 12 17  2  0
 13 14  1  0
 14 15  1  1
 14 16  1  0
 17 18  1  0
 17 19  1  0
 19 20  1  0
 20 21  2  0
 20 22  1  0
 22 23  1  1
 22 46  1  0
 23 24  1  0
 25 24  1  1
 25 26  1  0
 25 46  1  0
 26 27  1  0
 27 28  1  0
 27 29  1  0
 29 30  2  0
 29 31  1  0
 31 32  1  0
 31 37  2  0
 32 33  2  0
 33 34  1  0
 34 35  1  0
 34 36  2  0
 36 37  1  0
 36 38  1  0
 38 39  1  0
 39 40  1  0
 40 41  1  0
 41 42  1  0
 42 43  2  0
 42 44  1  0
 44 45  1  0
M  CHG  1  40   1
M  END
