
     RDKit          3D

 46 49  0  0  0  0  0  0  0  0999 V2000
    2.5830   -3.8790   -3.8140 C   0  0  0  0  0  0  0  0  0  0  0  0
    2.0170   -4.0650   -2.4460 C   0  0  0  0  0  0  0  0  0  0  0  0
    2.0990   -2.8690   -1.6100 N   0  0  0  0  0  0  0  0  0  0  0  0
    0.9710   -1.9290   -1.6490 C   0  0  0  0  0  0  0  0  0  0  0  0
    0.0870   -2.1650   -0.4850 C   0  0  0  0  0  0  0  0  0  0  0  0
   -0.3250   -1.1010    0.2960 O   0  0  0  0  0  0  0  0  0  0  0  0
   -1.5250   -0.3620    0.2890 C   0  0  0  0  0  0  0  0  0  0  0  0
   -2.5410   -0.6030    1.2200 C   0  0  0  0  0  0  0  0  0  0  0  0
   -3.7460    0.0580    1.2760 C   0  0  0  0  0  0  0  0  0  0  0  0
   -3.9670    1.0350    0.3380 C   0  0  0  0  0  0  0  0  0  0  0  0
   -2.9870    1.2910   -0.5800 C   0  0  0  0  0  0  0  0  0  0  0  0
   -1.7440    0.6270   -0.6490 C   0  0  0  0  0  0  0  0  0  0  0  0
   -0.7960    1.0960   -1.6170 N   0  0  0  0  0  0  0  0  0  0  0  0
    0.4400    1.7800   -1.4410 C   0  0  0  0  0  0  0  0  0  0  0  0
    0.9630    2.3490   -2.5230 O   0  0  0  0  0  0  0  0  0  0  0  0
    1.2360    1.9690   -0.2610 C   0  0  0  0  0  0  0  0  0  0  0  0
    1.1190    3.1730    0.2920 O   0  0  0  0  0  0  0  0  0  0  0  0
    2.1330    1.0940    0.4290 N   0  0  0  0  0  0  0  0  0  0  0  0
    3.4010    0.6160    0.0290 C   0  0  0  0  0  0  0  0  0  0  0  0
    4.4090    0.1700    1.0150 C   0  0  2  0  0  0  0  0  0  0  0  0
    4.3900    0.6460    2.4040 C   0  0  0  0  0  0  0  0  0  0  0  0
    3.2460    0.3600    3.2930 C   0  0  0  0  0  0  0  0  0  0  0  0
    5.7190    0.6370    0.4660 N   0  0  2  0  0  0  0  0  0  0  0  0
    6.8330   -0.0610    0.9740 C   0  0  0  0  0  0  0  0  0  0  0  0
    7.9920    0.8210    1.3880 C   0  0  0  0  0  0  0  0  0  0  0  0
    8.4600    1.7490    0.3320 C   0  0  0  0  0  0  0  0  0  0  0  0
    7.6390    1.7670   -0.9190 C   0  0  0  0  0  0  0  0  0  0  0  0
    6.4280    2.6090   -0.6770 C   0  0  0  0  0  0  0  0  0  0  0  0
    5.7330    2.0560    0.5750 C   0  0  0  0  0  0  0  0  0  0  0  0
    4.5080   -1.3660    0.9430 C   0  0  0  0  0  0  0  0  0  0  0  0
    3.2040   -2.0160    0.5630 C   0  0  0  0  0  0  0  0  0  0  0  0
    3.2200   -2.6170   -0.7880 C   0  0  0  0  0  0  0  0  0  0  0  0
    4.3630   -2.9410   -1.2570 O   0  0  0  0  0  0  0  0  0  0  0  0
   -5.2150    1.8350    0.2690 C   0  0  0  0  0  0  0  0  0  0  0  0
   -6.3510    1.1830    0.6420 O   0  0  0  0  0  0  0  0  0  0  0  0
   -7.3640    1.4200   -0.2550 C   0  0  2  0  0  0  0  0  0  0  0  0
   -8.3720    2.4310    0.2670 C   0  0  1  0  0  0  0  0  0  0  0  0
   -8.9200    1.9880    1.6130 C   0  0  0  0  0  0  0  0  0  0  0  0
   -7.7200    3.6690    0.4990 O   0  0  0  0  0  0  0  0  0  0  0  0
   -8.0660    0.1960   -0.7670 C   0  0  0  0  0  0  0  0  0  0  0  0
   -8.4410   -0.7750    0.2790 C   0  0  0  0  0  0  0  0  0  0  0  0
   -7.7660   -1.8570    0.5820 C   0  0  0  0  0  0  0  0  0  0  0  0
   -6.5150   -2.2480   -0.1070 C   0  0  0  0  0  0  0  0  0  0  0  0
   -5.3290   -1.8820    0.7580 C   0  0  0  0  0  0  0  0  0  0  0  0
   -5.7630   -1.1070    1.8010 O   0  0  0  0  0  0  0  0  0  0  0  0
   -4.7530   -0.2860    2.3110 C   0  0  0  0  0  0  0  0  0  0  0  0
  1  2  1  0
  2  3  1  0
  3  4  1  0
  3 32  1  0
  4  5  1  0
  5  6  1  0
  6  7  1  0
  7  8  2  0
  7 12  1  0
  8  9  1  0
  9 10  2  0
  9 46  1  0
 10 11  1  0
 10 34  1  0
 11 12  2  0
 12 13  1  0
 13 14  1  0
 14 15  2  0
 14 16  1  0
 16 17  2  0
 16 18  1  0
 18 19  1  0
 19 20  1  0
 20 21  1  1
 20 23  1  0
 20 30  1  0
 21 22  1  0
 23 24  1  1
 23 29  1  0
 24 25  1  0
 25 26  1  0
 26 27  1  0
 27 28  1  0
 28 29  1  0
 30 31  1  0
 31 32  1  0
 32 33  2  0
 34 35  1  0
 35 36  1  0
 36 37  1  0
 36 40  1  1
 37 38  1  1
 37 39  1  0
 40 41  1  0
 41 42  2  0
 42 43  1  0
 43 44  1  0
 44 45  1  0
 45 46  1  0
M  CHG  1  23   1
M  END
