
     RDKit          3D

 46 51  0  0  0  0  0  0  0  0999 V2000
   -6.0860    2.9660    5.0560 C   0  0  0  0  0  0  0  0  0  0  0  0
   -6.8220    2.5650    3.8380 C   0  0  0  0  0  0  0  0  0  0  0  0
   -8.0560    2.5730    3.8170 O   0  0  0  0  0  0  0  0  0  0  0  0
   -6.0670    2.1630    2.6670 C   0  0  0  0  0  0  0  0  0  0  0  0
   -4.6950    2.1290    2.6190 C   0  0  0  0  0  0  0  0  0  0  0  0
   -4.0030    1.7450    1.4990 C   0  0  0  0  0  0  0  0  0  0  0  0
   -4.6850    1.3720    0.3590 C   0  0  0  0  0  0  0  0  0  0  0  0
   -3.9690    0.9500   -0.8810 C   0  0  1  0  0  0  0  0  0  0  0  0
   -2.9280    0.0710   -0.4860 O   0  0  0  0  0  0  0  0  0  0  0  0
   -1.6280    0.2160   -0.8500 C   0  0  0  0  0  0  0  0  0  0  0  0
   -1.2990    1.1620   -1.5710 O   0  0  0  0  0  0  0  0  0  0  0  0
   -0.5840   -0.7690   -0.3820 C   0  0  0  0  0  0  0  0  0  0  0  0
    0.5100   -1.0380   -0.4230 N   0  0  0  0  0  0  0  0  0  0  0  0
    1.2340   -2.0020    0.1020 C   0  0  0  0  0  0  0  0  0  0  0  0
    2.6950   -2.1960   -0.0750 C   0  0  0  0  0  0  0  0  0  0  0  0
    3.2060   -3.2010    0.5320 O   0  0  0  0  0  0  0  0  0  0  0  0
    3.5520   -1.4040   -0.8230 N   0  0  0  0  0  0  0  0  0  0  0  0
    3.0230   -0.2720   -1.5270 C   0  0  0  0  0  0  0  0  0  0  0  0
    3.1960    0.9340   -0.6060 C   0  0  0  0  0  0  0  0  0  0  0  0
    4.5440    0.6940    0.1140 C   0  0  0  0  0  0  0  0  0  0  0  0
    5.6810    0.6060   -0.8710 C   0  0  1  0  0  0  0  0  0  0  0  0
    6.9870    1.1580   -0.3910 C   0  0  1  0  0  0  0  0  0  0  0  0
    7.9700    0.9760   -1.5740 C   0  0  0  0  0  0  0  0  0  0  0  0
    6.8530    2.5280   -0.2160 O   0  0  0  0  0  0  0  0  0  0  0  0
    7.6260    0.5520    0.7750 C   0  0  2  0  0  0  0  0  0  0  0  0
    6.9280    0.5510    2.0840 C   0  0  0  0  0  0  0  0  0  0  0  0
    8.0480    0.5060    3.1350 C   0  0  0  0  0  0  0  0  0  0  0  0
    9.1620    1.0640    2.4360 O   0  0  0  0  0  0  0  0  0  0  0  0
    8.8500    1.3670    1.1270 C   0  0  0  0  0  0  0  0  0  0  0  0
    9.4850    2.1710    0.3970 O   0  0  0  0  0  0  0  0  0  0  0  0
    5.8260   -0.7750   -1.4760 C   0  0  0  0  0  0  0  0  0  0  0  0
    4.9520   -1.8140   -0.8080 C   0  0  0  0  0  0  0  0  0  0  0  0
    0.4630   -2.8490    0.8590 C   0  0  0  0  0  0  0  0  0  0  0  0
   -1.2060   -2.1800    0.7400 S   0  0  0  0  0  0  0  0  0  0  0  0
   -4.9320    0.0800   -1.6470 C   0  0  0  0  0  0  0  0  0  0  0  0
   -5.4930    0.4750   -2.8210 C   0  0  0  0  0  0  0  0  0  0  0  0
   -6.3670   -0.3630   -3.4800 C   0  0  0  0  0  0  0  0  0  0  0  0
   -6.7100   -1.6100   -3.0000 C   0  0  0  0  0  0  0  0  0  0  0  0
   -7.6590   -2.4640   -3.7620 C   0  0  0  0  0  0  0  0  0  0  0  0
   -6.1320   -1.9940   -1.8090 C   0  0  0  0  0  0  0  0  0  0  0  0
   -5.2490   -1.1580   -1.1340 C   0  0  0  0  0  0  0  0  0  0  0  0
   -4.8260   -1.8130    0.0390 O   0  0  0  0  0  0  0  0  0  0  0  0
   -5.8520   -2.7610    0.3700 C   0  0  0  0  0  0  0  0  0  0  0  0
   -6.2620   -3.2370   -1.0090 C   0  0  0  0  0  0  0  0  0  0  0  0
   -6.0580    1.3930    0.3720 C   0  0  0  0  0  0  0  0  0  0  0  0
   -6.7250    1.7830    1.5100 C   0  0  0  0  0  0  0  0  0  0  0  0
  1  2  1  0
  2  3  2  0
  2  4  1  0
  4  5  2  0
  4 46  1  0
  5  6  1  0
  6  7  2  0
  7  8  1  0
  7 45  1  0
  8  9  1  1
  8 35  1  0
  9 10  1  0
 10 11  2  0
 10 12  1  0
 12 13  2  0
 12 34  1  0
 13 14  1  0
 14 15  1  0
 14 33  2  0
 15 16  2  0
 15 17  1  0
 17 18  1  0
 17 32  1  0
 18 19  1  0
 19 20  1  0
 21 20  1  1
 21 22  1  0
 21 31  1  0
 22 23  1  6
 22 24  1  0
 22 25  1  0
 25 26  1  1
 25 29  1  0
 26 27  1  0
 27 28  1  0
 28 29  1  0
 29 30  2  0
 31 32  1  0
 33 34  1  0
 35 36  2  0
 35 41  1  0
 36 37  1  0
 37 38  2  0
 38 39  1  0
 38 40  1  0
 40 41  2  0
 40 44  1  0
 41 42  1  0
 42 43  1  0
 43 44  1  0
 45 46  2  0
M  END
