
     RDKit          3D

 46 49  0  0  0  0  0  0  0  0999 V2000
    3.1320   -2.9040    3.9120 C   0  0  0  0  0  0  0  0  0  0  0  0
    4.3290   -3.4810    3.2550 C   0  0  0  0  0  0  0  0  0  0  0  0
    4.7120   -4.7950    3.3340 C   0  0  0  0  0  0  0  0  0  0  0  0
    5.8210   -5.3120    2.7210 C   0  0  0  0  0  0  0  0  0  0  0  0
    6.6000   -4.4490    1.9750 C   0  0  0  0  0  0  0  0  0  0  0  0
    6.2670   -3.1100    1.8550 C   0  0  0  0  0  0  0  0  0  0  0  0
    7.1460   -2.2390    1.0420 C   0  0  0  0  0  0  0  0  0  0  0  0
    5.1460   -2.6560    2.4920 C   0  0  0  0  0  0  0  0  0  0  0  0
    4.7980   -1.3120    2.3760 O   0  0  0  0  0  0  0  0  0  0  0  0
    3.9600   -0.9700    1.3160 C   0  0  0  0  0  0  0  0  0  0  0  0
    3.6600    0.4960    1.2960 C   0  0  0  0  0  0  0  0  0  0  0  0
    4.1780    1.2530    2.1570 O   0  0  0  0  0  0  0  0  0  0  0  0
    2.7930    1.0080    0.2980 N   0  0  0  0  0  0  0  0  0  0  0  0
    2.4710    2.3960    0.2230 C   0  0  1  0  0  0  0  0  0  0  0  0
    3.0270    3.0610   -1.0080 C   0  0  0  0  0  0  0  0  0  0  0  0
    2.5740    2.5230   -2.2840 C   0  0  0  0  0  0  0  0  0  0  0  0
    3.1680    1.4060   -2.8150 C   0  0  0  0  0  0  0  0  0  0  0  0
    2.7370    0.9090   -4.0420 C   0  0  0  0  0  0  0  0  0  0  0  0
    1.7190    1.5270   -4.7350 C   0  0  0  0  0  0  0  0  0  0  0  0
    1.1150    2.6470   -4.2190 C   0  0  0  0  0  0  0  0  0  0  0  0
    1.5620    3.1250   -2.9910 C   0  0  0  0  0  0  0  0  0  0  0  0
    1.0710    2.7270    0.5740 C   0  0  1  0  0  0  0  0  0  0  0  0
    0.8110    4.0650    0.3720 O   0  0  0  0  0  0  0  0  0  0  0  0
    0.0290    1.7700    0.1000 C   0  0  0  0  0  0  0  0  0  0  0  0
   -1.3510    2.2380    0.5290 C   0  0  2  0  0  0  0  0  0  0  0  0
   -1.4960    2.3960    1.9840 C   0  0  0  0  0  0  0  0  0  0  0  0
   -2.8730    2.8060    2.3280 C   0  0  0  0  0  0  0  0  0  0  0  0
   -3.2380    4.1330    2.3870 C   0  0  0  0  0  0  0  0  0  0  0  0
   -4.5490    4.4490    2.7290 C   0  0  0  0  0  0  0  0  0  0  0  0
   -5.4870    3.4760    3.0090 C   0  0  0  0  0  0  0  0  0  0  0  0
   -5.1090    2.1440    2.9460 C   0  0  0  0  0  0  0  0  0  0  0  0
   -3.8090    1.8340    2.6060 C   0  0  0  0  0  0  0  0  0  0  0  0
   -2.4400    1.5060   -0.0560 N   0  0  0  0  0  0  0  0  0  0  0  0
   -2.3340    0.4430   -0.9890 C   0  0  0  0  0  0  0  0  0  0  0  0
   -1.1420    0.0950   -1.2880 O   0  0  0  0  0  0  0  0  0  0  0  0
   -3.4760   -0.2600   -1.6160 C   0  0  2  0  0  0  0  0  0  0  0  0
   -4.7330   -0.4190   -0.8810 C   0  0  1  0  0  0  0  0  0  0  0  0
   -4.6850   -1.1210    0.4400 C   0  0  0  0  0  0  0  0  0  0  0  0
   -5.5340    0.8380   -0.7630 C   0  0  0  0  0  0  0  0  0  0  0  0
   -3.0180   -1.4530   -2.3220 N   0  0  0  0  0  0  0  0  0  0  0  0
   -2.6380   -2.6850   -1.6300 C   0  0  0  0  0  0  0  0  0  0  0  0
   -3.3680   -3.8620   -2.2540 C   0  0  0  0  0  0  0  0  0  0  0  0
   -2.9920   -4.0210   -3.7120 C   0  0  0  0  0  0  0  0  0  0  0  0
   -2.5840   -2.7780   -4.3270 N   0  0  0  0  0  0  0  0  0  0  0  0
   -2.9240   -1.5170   -3.7370 C   0  0  0  0  0  0  0  0  0  0  0  0
   -3.1330   -0.4940   -4.4390 O   0  0  0  0  0  0  0  0  0  0  0  0
  1  2  1  0
  2  3  2  0
  2  8  1  0
  3  4  1  0
  4  5  2  0
  5  6  1  0
  6  7  1  0
  6  8  2  0
  8  9  1  0
  9 10  1  0
 10 11  1  0
 11 12  2  0
 11 13  1  0
 13 14  1  0
 14 15  1  6
 14 22  1  0
 15 16  1  0
 16 17  2  0
 16 21  1  0
 17 18  1  0
 18 19  2  0
 19 20  1  0
 20 21  2  0
 22 23  1  6
 22 24  1  0
 25 24  1  1
 25 26  1  0
 25 33  1  0
 26 27  1  0
 27 28  2  0
 27 32  1  0
 28 29  1  0
 29 30  2  0
 30 31  1  0
 31 32  2  0
 33 34  1  0
 34 35  2  0
 34 36  1  0
 36 37  1  0
 36 40  1  1
 37 38  1  1
 37 39  1  0
 40 41  1  0
 40 45  1  0
 41 42  1  0
 42 43  1  0
 43 44  1  0
 44 45  1  0
 45 46  2  0
M  END
