
     RDKit          3D

 20 20  0  0  0  0  0  0  0  0999 V2000
   -1.5680   -0.6100    2.0800 C   0  0  0  0  0  0  0  0  0  0  0  0
   -1.2430   -1.0740    0.6310 C   0  0  2  0  0  0  0  0  0  0  0  0
   -1.7600   -2.3310    0.5380 O   0  0  0  0  0  0  0  0  0  0  0  0
    0.2200   -0.9170    0.4940 C   0  0  0  0  0  0  0  0  0  0  0  0
    0.8570   -1.3000   -0.7830 C   0  0  2  0  0  0  0  0  0  0  0  0
    0.6850   -2.6420   -1.1200 O   0  0  0  0  0  0  0  0  0  0  0  0
    2.3850   -1.1200   -0.7260 C   0  0  0  0  0  0  0  0  0  0  0  0
    2.5980    0.2060   -0.3920 O   0  0  0  0  0  0  0  0  0  0  0  0
    3.9430    0.5290   -0.3010 C   0  0  1  0  0  0  0  0  0  0  0  0
    4.6170   -0.2170    0.6630 O   0  0  0  0  0  0  0  0  0  0  0  0
    4.5930    0.3910   -1.5210 O   0  0  0  0  0  0  0  0  0  0  0  0
    3.9940    1.9290    0.1540 N   0  0  0  0  0  0  0  0  0  0  0  0
    5.2450    2.3720    0.2870 O   0  0  0  0  0  0  0  0  0  0  0  0
   -2.0270   -0.1560   -0.2940 C   0  0  1  0  0  0  0  0  0  0  0  0
   -2.1000   -0.6600   -1.6840 C   0  0  0  0  0  0  0  0  0  0  0  0
   -3.4600   -0.0470    0.2390 C   0  0  0  0  0  0  0  0  0  0  0  0
   -3.5210    0.9530    1.2060 O   0  0  0  0  0  0  0  0  0  0  0  0
   -3.4960    2.1710    0.5200 C   0  0  0  0  0  0  0  0  0  0  0  0
   -2.3650    2.1180   -0.4840 C   0  0  0  0  0  0  0  0  0  0  0  0
   -1.4540    1.1140   -0.2170 O   0  0  0  0  0  0  0  0  0  0  0  0
  2  1  1  1
  2  3  1  0
  2  4  1  0
  2 14  1  0
  4  5  1  0
  5  6  1  1
  5  7  1  0
  7  8  1  0
  8  9  1  0
  9 10  1  1
  9 11  1  0
  9 12  1  0
 12 13  1  0
 14 15  1  6
 14 16  1  0
 14 20  1  0
 16 17  1  0
 17 18  1  0
 18 19  1  0
 19 20  1  0
M  END
