
     RDKit          3D

 19 19  0  0  0  0  0  0  0  0999 V2000
    4.8780    1.7930    0.3670 N   0  0  0  0  0  0  0  0  0  0  0  0
    3.9100    0.7680    0.7950 C   0  0  0  0  0  0  0  0  0  0  0  0
    2.8650    0.7090   -0.2990 C   0  0  2  0  0  0  0  0  0  0  0  0
    2.3090    1.9690   -0.3750 O   0  0  0  0  0  0  0  0  0  0  0  0
    1.8310   -0.3620   -0.0200 C   0  0  2  0  0  0  0  0  0  0  0  0
    1.2080   -0.0970    1.1830 O   0  0  0  0  0  0  0  0  0  0  0  0
    2.5250   -1.7210    0.1720 C   0  0  0  0  0  0  0  0  0  0  0  0
    1.5580   -2.6970    0.4780 O   0  0  0  0  0  0  0  0  0  0  0  0
    0.8830   -0.5560   -1.1600 C   0  0  0  0  0  0  0  0  0  0  0  0
    0.0540    0.4600   -1.4740 O   0  0  0  0  0  0  0  0  0  0  0  0
   -0.8880    0.8950   -0.6210 C   0  0  0  0  0  0  0  0  0  0  0  0
   -1.9920   -0.0090   -0.2300 C   0  0  2  0  0  0  0  0  0  0  0  0
   -1.5020   -1.1490    0.3780 O   0  0  0  0  0  0  0  0  0  0  0  0
   -2.8770   -0.4240   -1.3840 C   0  0  0  0  0  0  0  0  0  0  0  0
   -3.8290   -1.4810   -0.8440 C   0  0  0  0  0  0  0  0  0  0  0  0
   -4.4480   -1.0730    0.3270 O   0  0  0  0  0  0  0  0  0  0  0  0
   -4.3550    0.2950    0.5400 C   0  0  0  0  0  0  0  0  0  0  0  0
   -2.9250    0.7560    0.7250 C   0  0  1  0  0  0  0  0  0  0  0  0
   -2.4960    0.6680    2.0270 O   0  0  0  0  0  0  0  0  0  0  0  0
  1  2  1  0
  2  3  1  0
  3  4  1  1
  3  5  1  0
  5  6  1  1
  5  7  1  0
  5  9  1  0
  7  8  1  0
  9 10  1  0
 10 11  1  0
 11 12  1  0
 12 13  1  1
 12 14  1  0
 12 18  1  0
 14 15  1  0
 15 16  1  0
 16 17  1  0
 17 18  1  0
 18 19  1  1
M  END
