
     RDKit          3D

 23 24  0  0  0  0  0  0  0  0999 V2000
   -6.7080    1.4140   -2.9170 C   0  0  0  0  0  0  0  0  0  0  0  0
   -5.8380    1.6290   -1.9570 C   0  0  0  0  0  0  0  0  0  0  0  0
   -6.0870    1.1060   -0.5940 C   0  0  0  0  0  0  0  0  0  0  0  0
   -5.0470    0.2060   -0.1900 O   0  0  0  0  0  0  0  0  0  0  0  0
   -3.7210    0.6010   -0.1030 C   0  0  0  0  0  0  0  0  0  0  0  0
   -3.4420    1.7860   -0.3910 O   0  0  0  0  0  0  0  0  0  0  0  0
   -2.6480   -0.2940    0.3030 C   0  0  0  0  0  0  0  0  0  0  0  0
   -1.3210    0.0650    0.4010 C   0  0  0  0  0  0  0  0  0  0  0  0
   -0.6420   -1.0610    0.8130 C   0  0  0  0  0  0  0  0  0  0  0  0
    0.8150   -1.1400    1.0510 C   0  0  0  0  0  0  0  0  0  0  0  0
    1.2860   -2.2380    1.4260 O   0  0  0  0  0  0  0  0  0  0  0  0
    1.5870   -0.0150    0.8540 O   0  0  0  0  0  0  0  0  0  0  0  0
    2.9730   -0.0500    1.0670 C   0  0  0  0  0  0  0  0  0  0  0  0
    3.6550   -1.0300    0.1690 C   0  0  0  0  0  0  0  0  0  0  0  0
    5.0630   -1.0630    0.3870 O   0  0  0  0  0  0  0  0  0  0  0  0
    5.7280    0.1840    0.1650 C   0  0  0  0  0  0  0  0  0  0  0  0
    5.8860    1.0530    1.0850 C   0  0  0  0  0  0  0  0  0  0  0  0
    6.5860    2.3130    0.7600 C   0  0  0  0  0  0  0  0  0  0  0  0
    7.4020    1.8480   -0.7980 S   0  0  0  0  0  0  0  0  0  0  0  0
    6.2500    0.4700   -1.1850 C   0  0  0  0  0  0  0  0  0  0  0  0
   -1.5280   -2.0780    0.9640 N   0  0  0  0  0  0  0  0  0  0  0  0
   -2.7560   -1.6300    0.6580 C   0  0  0  0  0  0  0  0  0  0  0  0
   -4.0490   -2.3490    0.6660 C   0  0  0  0  0  0  0  0  0  0  0  0
  1  2  2  0
  2  3  1  0
  3  4  1  0
  4  5  1  0
  5  6  2  0
  5  7  1  0
  7  8  1  0
  7 22  2  0
  8  9  2  0
  9 10  1  0
  9 21  1  0
 10 11  2  0
 10 12  1  0
 12 13  1  0
 13 14  1  0
 14 15  1  0
 15 16  1  0
 16 17  2  0
 16 20  1  0
 17 18  1  0
 18 19  1  0
 19 20  1  0
 21 22  1  0
 22 23  1  0
M  END
