
     RDKit          3D

 20 20  0  0  0  0  0  0  0  0999 V2000
    1.7910   -0.8180    1.1170 O   0  0  0  0  0  0  0  0  0  0  0  0
    2.1920    0.2370    0.6040 C   0  0  0  0  0  0  0  0  0  0  0  0
    1.3310    1.2540    0.2410 N   0  0  0  0  0  0  0  0  0  0  0  0
   -0.0650    1.3010    0.3440 C   0  0  0  0  0  0  0  0  0  0  0  0
   -0.9460    0.4310   -0.4580 C   0  0  1  0  0  0  0  0  0  0  0  0
   -0.6230    0.7480   -1.8190 O   0  0  0  0  0  0  0  0  0  0  0  0
   -0.8050   -1.0200   -0.3260 C   0  0  0  0  0  0  0  0  0  0  0  0
   -1.8840   -1.8770   -0.9210 C   0  0  1  0  0  0  0  0  0  0  0  0
   -2.1530   -2.9920   -0.0830 O   0  0  0  0  0  0  0  0  0  0  0  0
   -3.1170   -1.2150   -1.3830 C   0  0  0  0  0  0  0  0  0  0  0  0
   -3.0720    0.2570   -1.5950 C   0  0  0  0  0  0  0  0  0  0  0  0
   -2.3970    0.8990   -0.4130 C   0  0  2  0  0  0  0  0  0  0  0  0
   -2.3730    2.2920   -0.6450 O   0  0  0  0  0  0  0  0  0  0  0  0
   -3.1110    0.6180    0.7960 C   0  0  0  0  0  0  0  0  0  0  0  0
   -3.3060   -0.4970    1.3470 O   0  0  0  0  0  0  0  0  0  0  0  0
   -3.6840    1.6800    1.4910 O   0  0  0  0  0  0  0  0  0  0  0  0
    3.5950    0.3280    0.4150 O   0  0  0  0  0  0  0  0  0  0  0  0
    4.4380   -0.7280    0.7970 C   0  0  0  0  0  0  0  0  0  0  0  0
    5.8620   -0.2950    0.4540 C   0  0  0  0  0  0  0  0  0  0  0  0
    5.9930   -0.0460   -0.9050 O   0  0  0  0  0  0  0  0  0  0  0  0
  1  2  2  0
  2  3  1  0
  2 17  1  0
  3  4  1  0
  4  5  1  0
  5  6  1  6
  5  7  1  0
  5 12  1  0
  7  8  1  0
  8  9  1  1
  8 10  1  0
 10 11  1  0
 11 12  1  0
 12 13  1  6
 12 14  1  0
 14 15  2  0
 14 16  1  0
 17 18  1  0
 18 19  1  0
 19 20  1  0
M  END
