
     RDKit          3D

 19 19  0  0  0  0  0  0  0  0999 V2000
    3.3930    1.1940    0.8910 N   0  0  0  0  0  0  0  0  0  0  0  0
    4.6400    0.8210    0.2930 C   0  0  0  0  0  0  0  0  0  0  0  0
    4.4370   -0.2130   -0.8090 C   0  0  2  0  0  0  0  0  0  0  0  0
    3.6270    0.2770   -1.8030 O   0  0  0  0  0  0  0  0  0  0  0  0
    3.9090   -1.4830   -0.2460 C   0  0  0  0  0  0  0  0  0  0  0  0
    2.6670   -1.4580    0.3450 O   0  0  0  0  0  0  0  0  0  0  0  0
    1.4410   -1.1650   -0.2000 C   0  0  0  0  0  0  0  0  0  0  0  0
    1.3810   -0.8740   -1.4140 O   0  0  0  0  0  0  0  0  0  0  0  0
    0.1720   -1.1730    0.5690 C   0  0  0  0  0  0  0  0  0  0  0  0
   -0.9880   -0.8160   -0.2930 C   0  0  2  0  0  0  0  0  0  0  0  0
   -0.7930    0.4600   -0.8170 O   0  0  0  0  0  0  0  0  0  0  0  0
   -2.3210   -0.9470    0.3180 C   0  0  1  0  0  0  0  0  0  0  0  0
   -2.4790   -2.2550    0.8370 O   0  0  0  0  0  0  0  0  0  0  0  0
   -2.6740    0.0110    1.3820 C   0  0  0  0  0  0  0  0  0  0  0  0
   -3.2550    1.1600    0.5840 C   0  0  0  0  0  0  0  0  0  0  0  0
   -3.9470    0.3640   -0.5020 C   0  0  1  0  0  0  0  0  0  0  0  0
   -4.1040    1.1720   -1.7680 C   0  0  0  0  0  0  0  0  0  0  0  0
   -4.7940    2.3430   -1.4290 O   0  0  0  0  0  0  0  0  0  0  0  0
   -3.2910   -0.8160   -0.6610 O   0  0  0  0  0  0  0  0  0  0  0  0
  1  2  1  0
  2  3  1  0
  3  4  1  6
  3  5  1  0
  5  6  1  0
  6  7  1  0
  7  8  2  0
  7  9  1  0
  9 10  1  0
 10 11  1  1
 10 12  1  0
 12 13  1  1
 12 14  1  0
 12 19  1  0
 14 15  1  0
 15 16  1  0
 16 17  1  6
 16 19  1  0
 17 18  1  0
M  END
