
     RDKit          3D

 19 19  0  0  0  0  0  0  0  0999 V2000
   -1.0190    0.8890    1.6550 C   0  0  0  0  0  0  0  0  0  0  0  0
   -1.2560   -0.1670    0.6100 C   0  0  2  0  0  0  0  0  0  0  0  0
   -2.3720    0.2680   -0.2630 C   0  0  1  0  0  0  0  0  0  0  0  0
   -3.4310    0.5800    0.6410 O   0  0  0  0  0  0  0  0  0  0  0  0
   -2.1510    1.5650   -1.0120 C   0  0  0  0  0  0  0  0  0  0  0  0
   -1.8180    2.6060   -0.1500 O   0  0  0  0  0  0  0  0  0  0  0  0
   -1.7790   -1.2580    1.3690 O   0  0  0  0  0  0  0  0  0  0  0  0
   -2.0000   -2.3830    0.6320 C   0  0  0  0  0  0  0  0  0  0  0  0
   -0.8110   -2.8900    0.1040 O   0  0  0  0  0  0  0  0  0  0  0  0
    0.2040   -2.0650    0.6560 C   0  0  0  0  0  0  0  0  0  0  0  0
   -0.0280   -0.7140   -0.0470 C   0  0  1  0  0  0  0  0  0  0  0  0
   -0.1790   -1.0490   -1.4900 C   0  0  0  0  0  0  0  0  0  0  0  0
    1.1990    0.1610    0.0960 C   0  0  2  0  0  0  0  0  0  0  0  0
    0.9810    1.4230   -0.4790 O   0  0  0  0  0  0  0  0  0  0  0  0
    2.3560   -0.4070   -0.6800 C   0  0  0  0  0  0  0  0  0  0  0  0
    3.5430    0.4040   -0.6020 N   0  0  0  0  0  0  0  0  0  0  0  0
    4.1430    0.6470    0.6470 C   0  0  0  0  0  0  0  0  0  0  0  0
    3.6290    0.1500    1.6580 O   0  0  0  0  0  0  0  0  0  0  0  0
    5.2880    1.4200    0.8140 O   0  0  0  0  0  0  0  0  0  0  0  0
  2  1  1  1
  2  3  1  0
  2  7  1  0
  2 11  1  0
  3  4  1  1
  3  5  1  0
  5  6  1  0
  7  8  1  0
  8  9  1  0
  9 10  1  0
 10 11  1  0
 11 12  1  6
 11 13  1  0
 13 14  1  6
 13 15  1  0
 15 16  1  0
 16 17  1  0
 17 18  2  0
 17 19  1  0
M  END
