
     RDKit          3D

 19 19  0  0  0  0  0  0  0  0999 V2000
    0.5190   -2.8520    0.0540 C   0  0  0  0  0  0  0  0  0  0  0  0
    0.2610   -1.4000    0.4990 C   0  0  1  0  0  0  0  0  0  0  0  0
    0.7230   -1.3650    1.8600 O   0  0  0  0  0  0  0  0  0  0  0  0
    1.1660   -0.4690   -0.2530 C   0  0  2  0  0  0  0  0  0  0  0  0
    2.5740   -1.0640   -0.2070 C   0  0  0  0  0  0  0  0  0  0  0  0
    3.5360   -0.1080   -0.0060 O   0  0  0  0  0  0  0  0  0  0  0  0
    3.2860    1.0800   -0.6500 C   0  0  2  0  0  0  0  0  0  0  0  0
    4.4020    1.9770   -0.3400 N   0  0  0  0  0  0  0  0  0  0  0  0
    2.0270    1.6750   -0.0800 C   0  0  0  0  0  0  0  0  0  0  0  0
    1.1250    0.7560    0.3800 O   0  0  0  0  0  0  0  0  0  0  0  0
   -1.1690   -1.1720    0.4880 C   0  0  1  0  0  0  0  0  0  0  0  0
   -1.7770   -2.1230    1.3520 O   0  0  0  0  0  0  0  0  0  0  0  0
   -1.8270    0.1310    0.6550 C   0  0  2  0  0  0  0  0  0  0  0  0
   -3.3870   -0.1720    0.7140 C   0  0  0  0  0  0  0  0  0  0  0  0
   -3.7880   -0.7760   -0.4500 O   0  0  0  0  0  0  0  0  0  0  0  0
   -1.7770    1.0030   -0.5840 C   0  0  0  0  0  0  0  0  0  0  0  0
   -2.4070    2.3140   -0.3870 C   0  0  0  0  0  0  0  0  0  0  0  0
   -2.8710    2.7610    0.6740 O   0  0  0  0  0  0  0  0  0  0  0  0
   -2.4920    3.1470   -1.5170 O   0  0  0  0  0  0  0  0  0  0  0  0
  2  1  1  6
  2  3  1  0
  2  4  1  0
  2 11  1  0
  4  5  1  1
  4 10  1  0
  5  6  1  0
  6  7  1  0
  7  8  1  1
  7  9  1  0
  9 10  1  0
 11 12  1  1
 11 13  1  0
 13 14  1  6
 13 16  1  0
 14 15  1  0
 16 17  1  0
 17 18  2  0
 17 19  1  0
M  END
