
     RDKit          3D

 13 13  0  0  0  0  0  0  0  0999 V2000
   -3.7940    0.6630    1.2310 O   0  0  0  0  0  0  0  0  0  0  0  0
   -3.1980    0.3450    0.1660 C   0  0  0  0  0  0  0  0  0  0  0  0
   -3.9910   -0.0380   -0.9230 O   0  0  0  0  0  0  0  0  0  0  0  0
   -1.7320    0.3660    0.0410 C   0  0  2  0  0  0  0  0  0  0  0  0
   -1.2500   -1.0880   -0.0930 C   0  0  0  0  0  0  0  0  0  0  0  0
   -0.4140   -1.2240    1.0420 O   0  0  0  0  0  0  0  0  0  0  0  0
    0.1240    0.0920    1.0680 C   0  0  1  0  0  0  0  0  0  0  0  0
    0.9460    0.3050    2.1350 O   0  0  0  0  0  0  0  0  0  0  0  0
    0.6690    0.2830   -0.2320 N   0  0  0  0  0  0  0  0  0  0  0  0
    1.7610   -0.5640   -0.5420 C   0  0  0  0  0  0  0  0  0  0  0  0
    3.0450   -0.2500    0.2180 C   0  0  0  0  0  0  0  0  0  0  0  0
    3.4080    1.0710   -0.1040 O   0  0  0  0  0  0  0  0  0  0  0  0
   -1.1070    0.7870    1.2170 O   0  0  0  0  0  0  0  0  0  0  0  0
  1  2  2  0
  2  3  1  0
  4  2  1  1
  4  5  1  0
  4 13  1  0
  5  6  1  0
  6  7  1  0
  7  8  1  1
  7  9  1  0
  7 13  1  0
  9 10  1  0
 10 11  1  0
 11 12  1  0
M  END
