
     RDKit          3D

 13 13  0  0  0  0  0  0  0  0999 V2000
    1.5820   -0.8960    1.5300 N   0  0  0  0  0  0  0  0  0  0  0  0
    1.4410    0.2600    0.7260 C   0  0  0  0  0  0  0  0  0  0  0  0
    2.1820    1.2450    0.9700 O   0  0  0  0  0  0  0  0  0  0  0  0
    0.4330    0.2630   -0.3630 C   0  0  1  0  0  0  0  0  0  0  0  0
    1.2210    0.4530   -1.6490 C   0  0  0  0  0  0  0  0  0  0  0  0
    1.8210    1.7060   -1.5710 O   0  0  0  0  0  0  0  0  0  0  0  0
   -0.2090   -0.9750   -0.3490 O   0  0  0  0  0  0  0  0  0  0  0  0
   -1.3180   -0.8490    0.4820 C   0  0  2  0  0  0  0  0  0  0  0  0
   -1.7760   -2.0700    0.9580 O   0  0  0  0  0  0  0  0  0  0  0  0
   -2.3880   -0.1700   -0.3870 C   0  0  0  0  0  0  0  0  0  0  0  0
   -1.8600    1.1530   -0.5900 O   0  0  0  0  0  0  0  0  0  0  0  0
   -0.5460    1.3460   -0.2250 C   0  0  0  0  0  0  0  0  0  0  0  0
   -0.1950    2.4590    0.2280 O   0  0  0  0  0  0  0  0  0  0  0  0
  1  2  1  0
  2  3  2  0
  2  4  1  0
  4  5  1  6
  4  7  1  0
  4 12  1  0
  5  6  1  0
  7  8  1  0
  8  9  1  6
  8 10  1  0
 10 11  1  0
 11 12  1  0
 12 13  2  0
M  END
