
     RDKit          3D

 12 12  0  0  0  0  0  0  0  0999 V2000
   -2.6950    0.0020   -0.7990 N   0  0  0  0  0  0  0  0  0  0  0  0
   -2.0030    0.9480    0.0060 C   0  0  0  0  0  0  0  0  0  0  0  0
   -2.1880    2.1600   -0.1880 O   0  0  0  0  0  0  0  0  0  0  0  0
   -1.0890    0.4040    1.0430 C   0  0  2  0  0  0  0  0  0  0  0  0
   -0.4600    1.3770    1.7760 O   0  0  0  0  0  0  0  0  0  0  0  0
   -0.1140   -0.5120    0.3280 C   0  0  2  0  0  0  0  0  0  0  0  0
    0.7220   -1.1610    1.2670 O   0  0  0  0  0  0  0  0  0  0  0  0
    1.6210   -1.9180    0.5020 C   0  0  0  0  0  0  0  0  0  0  0  0
    2.6350   -1.1030   -0.0040 O   0  0  0  0  0  0  0  0  0  0  0  0
    2.1870    0.2130    0.0210 C   0  0  0  0  0  0  0  0  0  0  0  0
    0.7990    0.2550   -0.5940 C   0  0  2  0  0  0  0  0  0  0  0  0
    0.3910    1.5650   -0.7570 O   0  0  0  0  0  0  0  0  0  0  0  0
  1  2  1  0
  2  3  2  0
  2  4  1  0
  4  5  1  6
  4  6  1  0
  6  7  1  1
  6 11  1  0
  7  8  1  0
  8  9  1  0
  9 10  1  0
 10 11  1  0
 11 12  1  1
M  END
