
     RDKit          3D

 12 12  0  0  0  0  0  0  0  0999 V2000
    3.0420    0.0850    1.0280 N   0  0  0  0  0  0  0  0  0  0  0  0
    2.2640   -0.0290   -0.1500 C   0  0  0  0  0  0  0  0  0  0  0  0
    2.6870   -0.7950   -1.0530 O   0  0  0  0  0  0  0  0  0  0  0  0
    1.0050    0.6950   -0.3640 C   0  0  2  0  0  0  0  0  0  0  0  0
    0.7040    1.4950    0.7520 O   0  0  0  0  0  0  0  0  0  0  0  0
   -0.1700   -0.2190   -0.5970 C   0  0  1  0  0  0  0  0  0  0  0  0
    0.0050   -1.0590   -1.6720 O   0  0  0  0  0  0  0  0  0  0  0  0
   -0.5130   -1.0380    0.6320 C   0  0  0  0  0  0  0  0  0  0  0  0
   -1.8280   -1.3830    0.4530 O   0  0  0  0  0  0  0  0  0  0  0  0
   -2.4590   -0.4260   -0.2900 C   0  0  1  0  0  0  0  0  0  0  0  0
   -3.5550    0.1450    0.3500 O   0  0  0  0  0  0  0  0  0  0  0  0
   -1.4340    0.6140   -0.6890 C   0  0  0  0  0  0  0  0  0  0  0  0
  1  2  1  0
  2  3  2  0
  2  4  1  0
  4  5  1  1
  4  6  1  0
  6  7  1  6
  6  8  1  0
  6 12  1  0
  8  9  1  0
  9 10  1  0
 10 11  1  1
 10 12  1  0
M  END
