
     RDKit          3D

 13 13  0  0  0  0  0  0  0  0999 V2000
   -1.6730    2.2070    0.2070 O   0  0  0  0  0  0  0  0  0  0  0  0
   -0.4850    1.9320   -0.1010 C   0  0  0  0  0  0  0  0  0  0  0  0
    0.4070    3.0190   -0.1250 O   0  0  0  0  0  0  0  0  0  0  0  0
   -0.0800    0.6260   -0.4020 N   0  0  0  0  0  0  0  0  0  0  0  0
    1.2400    0.2190   -0.7620 C   0  0  1  0  0  0  0  0  0  0  0  0
    2.2750    0.5940    0.2820 C   0  0  0  0  0  0  0  0  0  0  0  0
    2.0210    0.0190    1.5140 O   0  0  0  0  0  0  0  0  0  0  0  0
    1.2580   -1.1400   -0.9200 O   0  0  0  0  0  0  0  0  0  0  0  0
   -0.0160   -1.6320   -0.8170 C   0  0  0  0  0  0  0  0  0  0  0  0
   -0.9270   -0.5330   -0.4000 C   0  0  2  0  0  0  0  0  0  0  0  0
   -1.9500   -0.3950   -1.3320 O   0  0  0  0  0  0  0  0  0  0  0  0
   -1.4780   -0.7200    0.9980 C   0  0  0  0  0  0  0  0  0  0  0  0
   -2.3130   -1.8290    1.0810 O   0  0  0  0  0  0  0  0  0  0  0  0
  1  2  2  0
  2  3  1  0
  2  4  1  0
  4  5  1  0
  4 10  1  0
  5  6  1  1
  5  8  1  0
  6  7  1  0
  8  9  1  0
  9 10  1  0
 10 11  1  6
 10 12  1  0
 12 13  1  0
M  END
