
     RDKit          3D

 13 13  0  0  0  0  0  0  0  0999 V2000
   -3.2520    1.0680   -0.9140 O   0  0  0  0  0  0  0  0  0  0  0  0
   -2.3170    0.4050   -0.4070 C   0  0  0  0  0  0  0  0  0  0  0  0
   -1.8000   -0.7530   -1.1280 C   0  0  0  0  0  0  0  0  0  0  0  0
   -0.8850   -1.5070   -0.4520 O   0  0  0  0  0  0  0  0  0  0  0  0
    0.0730   -0.8190    0.2360 C   0  0  1  0  0  0  0  0  0  0  0  0
    0.8920   -1.7510    0.8880 O   0  0  0  0  0  0  0  0  0  0  0  0
    0.9820    0.0020   -0.6570 C   0  0  1  0  0  0  0  0  0  0  0  0
    0.2780    0.9540   -1.3890 O   0  0  0  0  0  0  0  0  0  0  0  0
    2.0010    0.7190    0.1780 C   0  0  0  0  0  0  0  0  0  0  0  0
    2.7500   -0.1730    0.9450 O   0  0  0  0  0  0  0  0  0  0  0  0
   -0.5660    0.0450    1.2490 C   0  0  0  0  0  0  0  0  0  0  0  0
   -0.1410    0.1920    2.4180 O   0  0  0  0  0  0  0  0  0  0  0  0
   -1.7390    0.7510    0.8630 N   0  0  0  0  0  0  0  0  0  0  0  0
  1  2  2  0
  2  3  1  0
  2 13  1  0
  3  4  1  0
  4  5  1  0
  5  6  1  1
  5  7  1  0
  5 11  1  0
  7  8  1  1
  7  9  1  0
  9 10  1  0
 11 12  2  0
 11 13  1  0
M  END
