
     RDKit          3D

 12 12  0  0  0  0  0  0  0  0999 V2000
    1.0190   -0.6940   -1.5260 N   0  0  0  0  0  0  0  0  0  0  0  0
    0.5960    0.0580   -0.3680 C   0  0  1  0  0  0  0  0  0  0  0  0
    1.7910    0.4790    0.3800 C   0  0  0  0  0  0  0  0  0  0  0  0
    1.6480    1.1510    1.4310 O   0  0  0  0  0  0  0  0  0  0  0  0
    3.0620    0.1520   -0.0450 O   0  0  0  0  0  0  0  0  0  0  0  0
    4.1770    0.5170    0.6090 O   0  0  0  0  0  0  0  0  0  0  0  0
   -0.2400    1.2670   -0.7610 C   0  0  0  0  0  0  0  0  0  0  0  0
   -1.2210    1.5620    0.1540 O   0  0  0  0  0  0  0  0  0  0  0  0
   -2.2290    0.6350    0.2380 C   0  0  0  0  0  0  0  0  0  0  0  0
   -1.6830   -0.7140   -0.2380 C   0  0  2  0  0  0  0  0  0  0  0  0
   -2.5200   -1.7530    0.0810 O   0  0  0  0  0  0  0  0  0  0  0  0
   -0.3150   -0.8470    0.4400 C   0  0  0  0  0  0  0  0  0  0  0  0
  2  1  1  6
  2  3  1  0
  2  7  1  0
  2 12  1  0
  3  4  2  0
  3  5  1  0
  5  6  1  0
  7  8  1  0
  8  9  1  0
  9 10  1  0
 10 11  1  1
 10 12  1  0
M  END
