
     RDKit          3D

 16 17  0  0  0  0  0  0  0  0999 V2000
    2.4720   -0.7800   -3.9530 C   0  0  0  0  0  0  0  0  0  0  0  0
    1.5380   -0.3840   -3.1030 C   0  0  0  0  0  0  0  0  0  0  0  0
    1.7480    0.1730   -1.7250 C   0  0  0  0  0  0  0  0  0  0  0  0
    0.3840   -0.1820   -1.1150 C   0  0  2  0  0  0  0  0  0  0  0  0
    0.1350    0.6490    0.0540 C   0  0  0  0  0  0  0  0  0  0  0  0
   -0.4950    0.1970    1.1240 C   0  0  0  0  0  0  0  0  0  0  0  0
   -0.7010    1.1100    2.2550 C   0  0  0  0  0  0  0  0  0  0  0  0
   -2.0430    1.3050    2.5640 O   0  0  0  0  0  0  0  0  0  0  0  0
   -2.1020    2.1290    3.5790 O   0  0  0  0  0  0  0  0  0  0  0  0
   -2.2290    3.3700    3.1070 O   0  0  0  0  0  0  0  0  0  0  0  0
   -0.9640   -1.1980    1.1460 C   0  0  0  0  0  0  0  0  0  0  0  0
   -1.5930   -1.6480    2.2150 C   0  0  0  0  0  0  0  0  0  0  0  0
   -0.7180   -1.9740    0.0290 O   0  0  0  0  0  0  0  0  0  0  0  0
    0.3280   -1.6530   -0.8910 C   0  0  0  0  0  0  0  0  0  0  0  0
   -0.4510    0.1310   -2.1990 O   0  0  0  0  0  0  0  0  0  0  0  0
    0.1640   -0.3870   -3.2730 O   0  0  0  0  0  0  0  0  0  0  0  0
  1  2  2  0
  2  3  1  0
  2 16  1  0
  4  3  1  6
  4  5  1  0
  4 14  1  0
  4 15  1  0
  5  6  2  0
  6  7  1  0
  6 11  1  0
  7  8  1  0
  8  9  1  0
  9 10  1  0
 11 12  2  0
 11 13  1  0
 13 14  1  0
 15 16  1  0
M  END
