
     RDKit          3D

 16 16  0  0  0  0  0  0  0  0999 V2000
    3.1200   -1.8590   -1.9750 C   0  0  0  0  0  0  0  0  0  0  0  0
    2.8190   -1.2980   -0.8140 C   0  0  0  0  0  0  0  0  0  0  0  0
    3.6610   -0.3100   -0.2720 O   0  0  0  0  0  0  0  0  0  0  0  0
    3.8850   -0.3930    1.0380 O   0  0  0  0  0  0  0  0  0  0  0  0
    4.5700    0.6760    1.5540 C   0  0  0  0  0  0  0  0  0  0  0  0
    1.7070   -1.6380   -0.1000 O   0  0  0  0  0  0  0  0  0  0  0  0
    0.5270   -0.8650   -0.1060 C   0  0  0  0  0  0  0  0  0  0  0  0
    0.6340    0.3710   -0.5360 C   0  0  0  0  0  0  0  0  0  0  0  0
   -0.4810    1.3060   -0.6080 C   0  0  0  0  0  0  0  0  0  0  0  0
   -1.7510    0.7140   -0.1450 C   0  0  0  0  0  0  0  0  0  0  0  0
   -2.9520    1.6080   -0.1860 C   0  0  0  0  0  0  0  0  0  0  0  0
   -1.8050   -0.5230    0.2740 C   0  0  0  0  0  0  0  0  0  0  0  0
   -3.1090   -1.0700    0.7300 C   0  0  0  0  0  0  0  0  0  0  0  0
   -4.1690   -0.2090    0.6710 O   0  0  0  0  0  0  0  0  0  0  0  0
   -5.2930   -0.7080    1.0730 O   0  0  0  0  0  0  0  0  0  0  0  0
   -0.6750   -1.3800    0.3180 O   0  0  0  0  0  0  0  0  0  0  0  0
  1  2  2  0
  2  3  1  0
  2  6  1  0
  3  4  1  0
  4  5  1  0
  6  7  1  0
  7  8  2  0
  7 16  1  0
  8  9  1  0
  9 10  1  0
 10 11  1  0
 10 12  2  0
 12 13  1  0
 12 16  1  0
 13 14  1  0
 14 15  1  0
M  END
