
     RDKit          3D

 16 15  0  0  0  0  0  0  0  0999 V2000
   -4.4130   -3.1330    1.4690 C   0  0  0  0  0  0  0  0  0  0  0  0
   -3.2550   -2.9570    0.8550 C   0  0  0  0  0  0  0  0  0  0  0  0
   -2.5620   -1.6880    0.8650 C   0  0  0  0  0  0  0  0  0  0  0  0
   -3.1840   -0.6210    1.5700 O   0  0  0  0  0  0  0  0  0  0  0  0
   -1.4130   -1.4280    0.2830 C   0  0  0  0  0  0  0  0  0  0  0  0
   -0.6640   -2.4310   -0.4760 C   0  0  0  0  0  0  0  0  0  0  0  0
   -0.8860   -0.0490    0.4240 C   0  0  0  0  0  0  0  0  0  0  0  0
    0.2530    0.2690   -0.1330 C   0  0  0  0  0  0  0  0  0  0  0  0
    1.0570   -0.5610   -0.8680 O   0  0  0  0  0  0  0  0  0  0  0  0
    0.6830    1.5920    0.0460 O   0  0  0  0  0  0  0  0  0  0  0  0
    1.8970    2.0190   -0.4630 C   0  0  0  0  0  0  0  0  0  0  0  0
    2.2750    1.7920   -1.6870 C   0  0  0  0  0  0  0  0  0  0  0  0
    3.4800    2.2260   -2.1620 O   0  0  0  0  0  0  0  0  0  0  0  0
    4.5860    1.5060   -2.2750 O   0  0  0  0  0  0  0  0  0  0  0  0
    2.7380    2.7210    0.3860 O   0  0  0  0  0  0  0  0  0  0  0  0
    2.4400    4.0890    0.6950 C   0  0  0  0  0  0  0  0  0  0  0  0
  1  2  2  0
  2  3  1  0
  3  4  1  0
  3  5  2  3
  5  6  1  0
  5  7  1  0
  7  8  2  3
  8  9  1  0
  8 10  1  0
 10 11  1  0
 11 12  2  3
 11 15  1  0
 12 13  1  0
 13 14  1  0
 15 16  1  0
M  END
