
     RDKit          3D

 16 15  0  0  0  0  0  0  0  0999 V2000
   -1.1650    2.1740    0.2600 C   0  0  0  0  0  0  0  0  0  0  0  0
   -0.9680    1.1680   -0.5730 C   0  0  0  0  0  0  0  0  0  0  0  0
   -0.4020   -0.1060    0.0160 C   0  0  2  0  0  0  0  0  0  0  0  0
   -0.3890   -1.0810   -0.9580 O   0  0  0  0  0  0  0  0  0  0  0  0
   -1.3490   -0.4720    1.1250 C   0  0  0  0  0  0  0  0  0  0  0  0
   -2.7420   -0.6720    0.6630 C   0  0  0  0  0  0  0  0  0  0  0  0
   -3.7040    0.1910    1.0790 C   0  0  0  0  0  0  0  0  0  0  0  0
   -3.1970   -1.7460   -0.2020 C   0  0  0  0  0  0  0  0  0  0  0  0
   -2.4410   -2.6070   -0.6470 O   0  0  0  0  0  0  0  0  0  0  0  0
    0.9590    0.2010    0.5400 C   0  0  0  0  0  0  0  0  0  0  0  0
    1.0220    1.0020    1.5070 O   0  0  0  0  0  0  0  0  0  0  0  0
    2.1840   -0.3600    0.0060 C   0  0  0  0  0  0  0  0  0  0  0  0
    2.2590   -1.1540   -0.9620 O   0  0  0  0  0  0  0  0  0  0  0  0
    3.4030   -0.0150    0.5860 O   0  0  0  0  0  0  0  0  0  0  0  0
    4.5710   -0.5040    0.1340 O   0  0  0  0  0  0  0  0  0  0  0  0
    5.0060    0.1980   -0.9970 C   0  0  0  0  0  0  0  0  0  0  0  0
  1  2  2  0
  2  3  1  0
  3  4  1  6
  3  5  1  0
  3 10  1  0
  5  6  1  0
  6  7  2  0
  6  8  1  0
  8  9  2  0
 10 11  2  0
 10 12  1  0
 12 13  2  0
 12 14  1  0
 14 15  1  0
 15 16  1  0
M  END
