
     RDKit          3D

 16 16  0  0  0  0  0  0  0  0999 V2000
   -2.9990   -0.6830   -1.5090 C   0  0  0  0  0  0  0  0  0  0  0  0
   -2.1040    0.2500   -0.9900 O   0  0  0  0  0  0  0  0  0  0  0  0
   -1.0540   -0.4030   -0.3000 C   0  0  1  0  0  0  0  0  0  0  0  0
   -1.6820   -1.1230    0.7200 O   0  0  0  0  0  0  0  0  0  0  0  0
   -0.7640   -1.8270    1.4950 C   0  0  0  0  0  0  0  0  0  0  0  0
   -0.4210   -1.2260   -1.2300 O   0  0  0  0  0  0  0  0  0  0  0  0
    0.8810   -1.5400   -1.5320 C   0  0  0  0  0  0  0  0  0  0  0  0
    1.9050   -1.3880   -0.7720 C   0  0  0  0  0  0  0  0  0  0  0  0
    2.2130   -0.2450   -0.2360 C   0  0  0  0  0  0  0  0  0  0  0  0
    3.6330    0.1540   -0.1460 C   0  0  0  0  0  0  0  0  0  0  0  0
    1.2680    0.7310    0.3110 C   0  0  0  0  0  0  0  0  0  0  0  0
    1.7970    1.7080    0.8980 O   0  0  0  0  0  0  0  0  0  0  0  0
   -0.1950    0.6710    0.2380 C   0  0  0  0  0  0  0  0  0  0  0  0
   -0.7850    1.7470    0.7330 C   0  0  0  0  0  0  0  0  0  0  0  0
   -0.1240    2.8170    1.2630 O   0  0  0  0  0  0  0  0  0  0  0  0
   -0.6410    4.0430    1.1120 O   0  0  0  0  0  0  0  0  0  0  0  0
  1  2  1  0
  3  2  1  6
  3  4  1  0
  3  6  1  0
  3 13  1  0
  4  5  1  0
  6  7  1  0
  7  8  2  0
  8  9  2  0
  9 10  1  0
  9 11  1  0
 11 12  2  0
 11 13  1  0
 13 14  2  3
 14 15  1  0
 15 16  1  0
M  END
