
     RDKit          3D

 16 15  0  0  0  0  0  0  0  0999 V2000
   -3.2830    1.9320   -0.1580 C   0  0  0  0  0  0  0  0  0  0  0  0
   -2.8410    0.6550   -0.0040 C   0  0  0  0  0  0  0  0  0  0  0  0
   -3.9180   -0.3380    0.2430 C   0  0  0  0  0  0  0  0  0  0  0  0
   -1.4420    0.4000   -0.0790 C   0  0  0  0  0  0  0  0  0  0  0  0
   -0.6220    1.5430   -0.3090 O   0  0  0  0  0  0  0  0  0  0  0  0
   -0.7620   -0.7240    0.0280 C   0  0  0  0  0  0  0  0  0  0  0  0
   -1.4630   -2.0080    0.2660 C   0  0  0  0  0  0  0  0  0  0  0  0
    0.6970   -0.7340   -0.0820 C   0  0  0  0  0  0  0  0  0  0  0  0
    1.4610   -1.7760    0.0130 C   0  0  0  0  0  0  0  0  0  0  0  0
    1.3120    0.5150   -0.3120 O   0  0  0  0  0  0  0  0  0  0  0  0
    2.6170    0.6140   -0.6790 O   0  0  0  0  0  0  0  0  0  0  0  0
    3.5580    0.8530    0.2980 C   0  0  0  0  0  0  0  0  0  0  0  0
    3.1990    0.9740    1.4830 O   0  0  0  0  0  0  0  0  0  0  0  0
    4.9500    0.9630   -0.0630 C   0  0  0  0  0  0  0  0  0  0  0  0
    5.3280    0.8450   -1.2430 O   0  0  0  0  0  0  0  0  0  0  0  0
    5.8900    1.2020    0.9150 O   0  0  0  0  0  0  0  0  0  0  0  0
  1  2  2  0
  2  3  1  0
  2  4  1  0
  4  5  1  0
  4  6  2  3
  6  7  1  0
  6  8  1  0
  8  9  2  0
  8 10  1  0
 10 11  1  0
 11 12  1  0
 12 13  2  0
 12 14  1  0
 14 15  2  0
 14 16  1  0
M  END
