
     RDKit          3D

 16 16  0  0  0  0  0  0  0  0999 V2000
   -2.2830    1.6010    1.8630 C   0  0  0  0  0  0  0  0  0  0  0  0
   -2.0810    0.7360    0.8880 C   0  0  0  0  0  0  0  0  0  0  0  0
   -3.0810    0.2340    0.0910 C   0  0  0  0  0  0  0  0  0  0  0  0
   -2.8200   -0.6710   -0.9180 C   0  0  0  0  0  0  0  0  0  0  0  0
   -3.9290   -1.2070   -1.7790 C   0  0  0  0  0  0  0  0  0  0  0  0
   -1.5930   -1.0330   -1.0890 O   0  0  0  0  0  0  0  0  0  0  0  0
   -0.5410   -0.5960   -0.3560 C   0  0  0  0  0  0  0  0  0  0  0  0
    0.6050   -1.1000   -0.7110 C   0  0  0  0  0  0  0  0  0  0  0  0
    1.9110   -0.8880   -0.1900 C   0  0  0  0  0  0  0  0  0  0  0  0
    2.9130   -1.5190   -0.7240 O   0  0  0  0  0  0  0  0  0  0  0  0
    2.2230   -0.0530    0.8550 O   0  0  0  0  0  0  0  0  0  0  0  0
    3.4670    0.0920    1.2850 O   0  0  0  0  0  0  0  0  0  0  0  0
    4.0890    0.8750    0.4300 O   0  0  0  0  0  0  0  0  0  0  0  0
    5.3850    0.3940    0.2740 C   0  0  0  0  0  0  0  0  0  0  0  0
   -0.7710    0.2930    0.6400 C   0  0  0  0  0  0  0  0  0  0  0  0
    0.1240    0.7460    1.3590 O   0  0  0  0  0  0  0  0  0  0  0  0
  1  2  2  0
  2  3  1  0
  2 15  1  0
  3  4  2  0
  4  5  1  0
  4  6  1  0
  6  7  1  0
  7  8  2  3
  7 15  1  0
  8  9  1  0
  9 10  2  0
  9 11  1  0
 11 12  1  0
 12 13  1  0
 13 14  1  0
 15 16  2  0
M  END
