
     RDKit          3D

 16 16  0  0  0  0  0  0  0  0999 V2000
    5.7130   -0.6050    0.1190 C   0  0  0  0  0  0  0  0  0  0  0  0
    5.3370    0.5670   -0.3210 C   0  0  0  0  0  0  0  0  0  0  0  0
    4.1560    1.2090   -0.2240 O   0  0  0  0  0  0  0  0  0  0  0  0
    3.0410    0.7520    0.3850 C   0  0  0  0  0  0  0  0  0  0  0  0
    3.0030   -0.3530    0.9370 O   0  0  0  0  0  0  0  0  0  0  0  0
    1.8380    1.5030    0.4370 O   0  0  0  0  0  0  0  0  0  0  0  0
    0.7600    1.0090    1.0520 O   0  0  0  0  0  0  0  0  0  0  0  0
   -0.2770    1.1940    0.1990 O   0  0  0  0  0  0  0  0  0  0  0  0
   -1.5610    0.8060    0.5110 C   0  0  0  0  0  0  0  0  0  0  0  0
   -2.3650    1.4750    1.2760 C   0  0  0  0  0  0  0  0  0  0  0  0
   -3.4600    0.8360    1.6520 C   0  0  0  0  0  0  0  0  0  0  0  0
   -3.3440   -0.4370    1.0800 O   0  0  0  0  0  0  0  0  0  0  0  0
   -2.3150   -0.3920    0.0860 C   0  0  2  0  0  0  0  0  0  0  0  0
   -1.4910   -1.6530    0.2230 C   0  0  0  0  0  0  0  0  0  0  0  0
   -2.8960   -0.2720   -1.2560 C   0  0  0  0  0  0  0  0  0  0  0  0
   -4.1560    0.1080   -1.4040 C   0  0  0  0  0  0  0  0  0  0  0  0
  1  2  2  0
  2  3  1  0
  3  4  1  0
  4  5  2  0
  4  6  1  0
  6  7  1  0
  7  8  1  0
  8  9  1  0
  9 10  2  0
  9 13  1  0
 10 11  2  0
 11 12  1  0
 12 13  1  0
 13 14  1  6
 13 15  1  0
 15 16  2  0
M  END
