
     RDKit          3D

 17 17  0  0  0  0  0  0  0  0999 V2000
   -3.9880   -1.2110    0.8120 C   0  0  0  0  0  0  0  0  0  0  0  0
   -2.5740   -0.7740    0.8200 C   0  0  0  0  0  0  0  0  0  0  0  0
   -2.1030   -0.2760   -0.2730 N   0  0  0  0  0  0  0  0  0  0  0  0
   -0.7030    0.1680   -0.3000 C   0  0  0  0  0  0  0  0  0  0  0  0
   -0.5520    1.5620   -0.1570 N   0  0  0  0  0  0  0  0  0  0  0  0
   -1.6650    2.4280    0.0060 C   0  0  0  0  0  0  0  0  0  0  0  0
   -1.5230    3.8360    0.1520 N   0  0  0  0  0  0  0  0  0  0  0  0
   -2.8330    1.9750    0.0280 O   0  0  0  0  0  0  0  0  0  0  0  0
    0.2380   -0.7250   -0.4550 C   0  0  0  0  0  0  0  0  0  0  0  0
   -0.2030   -2.1030   -0.5890 N   0  0  0  0  0  0  0  0  0  0  0  0
    1.6860   -0.5430   -0.5160 C   0  0  1  0  0  0  0  0  0  0  0  0
    2.1290   -0.9830   -1.9070 C   0  0  0  0  0  0  0  0  0  0  0  0
    2.2150    0.7140   -0.1430 N   0  0  0  0  0  0  0  0  0  0  0  0
    3.4090    0.4840    0.6110 C   0  0  0  0  0  0  0  0  0  0  0  0
    3.0970   -0.7140    1.3140 O   0  0  0  0  0  0  0  0  0  0  0  0
    2.3060   -1.4920    0.4800 C   0  0  0  0  0  0  0  0  0  0  0  0
    2.1620   -2.7360    0.5710 O   0  0  0  0  0  0  0  0  0  0  0  0
  1  2  1  0
  2  3  2  3
  3  4  1  0
  4  5  1  0
  4  9  2  3
  5  6  1  0
  6  7  1  0
  6  8  2  0
  9 10  1  0
  9 11  1  0
 11 12  1  6
 11 13  1  0
 11 16  1  0
 13 14  1  0
 14 15  1  0
 15 16  1  0
 16 17  2  0
M  END
