
     RDKit          3D

 17 18  0  0  0  0  0  0  0  0999 V2000
    2.3110   -2.4720   -1.0560 N   0  0  0  0  0  0  0  0  0  0  0  0
    1.5770   -1.4790   -1.6150 O   0  0  0  0  0  0  0  0  0  0  0  0
    0.5450   -1.1910   -0.7260 C   0  0  1  0  0  0  0  0  0  0  0  0
    0.5860    0.2240   -0.2740 C   0  0  0  0  0  0  0  0  0  0  0  0
    1.5340    1.0040   -0.7250 C   0  0  0  0  0  0  0  0  0  0  0  0
    1.7330    2.3960   -0.4010 C   0  0  0  0  0  0  0  0  0  0  0  0
    2.8020    3.1250   -0.9570 N   0  0  0  0  0  0  0  0  0  0  0  0
    0.9620    2.9820    0.3780 O   0  0  0  0  0  0  0  0  0  0  0  0
   -0.4450    0.6540    0.6510 C   0  0  2  0  0  0  0  0  0  0  0  0
   -0.0520    0.5240    2.1260 C   0  0  0  0  0  0  0  0  0  0  0  0
   -1.3630    0.5010    2.7460 N   0  0  0  0  0  0  0  0  0  0  0  0
   -2.2340    0.0250    1.8910 C   0  0  0  0  0  0  0  0  0  0  0  0
   -3.6150   -0.1140    2.2300 N   0  0  0  0  0  0  0  0  0  0  0  0
   -1.5750   -0.2890    0.6760 N   0  0  0  0  0  0  0  0  0  0  0  0
   -1.8600   -1.2560   -0.3220 C   0  0  0  0  0  0  0  0  0  0  0  0
   -0.8190   -1.3490   -1.4120 C   0  0  1  0  0  0  0  0  0  0  0  0
   -1.0240   -0.2990   -2.3060 O   0  0  0  0  0  0  0  0  0  0  0  0
  1  2  1  0
  3  2  1  6
  3  4  1  0
  3 16  1  0
  4  5  2  3
  4  9  1  0
  5  6  1  0
  6  7  1  0
  6  8  2  0
  9 10  1  1
  9 14  1  0
 10 11  1  0
 11 12  2  0
 12 13  1  0
 12 14  1  0
 14 15  1  0
 15 16  1  0
 16 17  1  6
M  END
