
     RDKit          3D

 17 18  0  0  0  0  0  0  0  0999 V2000
   -3.7360   -1.5860   -0.1600 N   0  0  0  0  0  0  0  0  0  0  0  0
   -4.1130   -0.2240   -0.1670 C   0  0  0  0  0  0  0  0  0  0  0  0
   -5.3190    0.0580   -0.1620 O   0  0  0  0  0  0  0  0  0  0  0  0
   -3.1000    0.8220   -0.1810 C   0  0  0  0  0  0  0  0  0  0  0  0
   -1.7980    0.5000   -0.1860 C   0  0  0  0  0  0  0  0  0  0  0  0
   -1.4030   -0.8610   -0.1790 N   0  0  0  0  0  0  0  0  0  0  0  0
   -0.7930    1.5520   -0.2000 C   0  0  0  0  0  0  0  0  0  0  0  0
    0.4810    1.2090   -0.2050 C   0  0  0  0  0  0  0  0  0  0  0  0
    0.8570   -0.1410   -0.1970 O   0  0  0  0  0  0  0  0  0  0  0  0
    2.1760   -0.5640   -0.2020 C   0  0  0  0  0  0  0  0  0  0  0  0
    2.8000   -1.8010   -0.1970 C   0  0  0  0  0  0  0  0  0  0  0  0
    4.1310   -1.5730   -0.2070 N   0  0  0  0  0  0  0  0  0  0  0  0
    4.3280   -0.2630   -0.2170 N   0  0  0  0  0  0  0  0  0  0  0  0
    3.1530    0.3930   -0.2150 C   0  0  0  0  0  0  0  0  0  0  0  0
    2.8740    1.7910   -0.2230 N   0  0  0  0  0  0  0  0  0  0  0  0
    1.5240    2.2310   -0.2180 C   0  0  0  0  0  0  0  0  0  0  0  0
    1.2430    3.4620   -0.2260 O   0  0  0  0  0  0  0  0  0  0  0  0
  1  2  1  0
  2  3  2  0
  2  4  1  0
  4  5  2  3
  5  6  1  0
  5  7  1  0
  7  8  2  3
  8  9  1  0
  8 16  1  0
  9 10  1  0
 10 11  2  0
 10 14  1  0
 11 12  1  0
 12 13  1  0
 13 14  2  0
 14 15  1  0
 15 16  1  0
 16 17  2  0
M  END
