
     RDKit          3D

 17 18  0  0  0  0  0  0  0  0999 V2000
   -3.3010   -1.2030    0.1360 C   0  0  0  0  0  0  0  0  0  0  0  0
   -1.8970   -0.7900   -0.2480 C   0  0  1  0  0  0  0  0  0  0  0  0
   -1.8870   -0.1250   -1.5210 N   0  0  0  0  0  0  0  0  0  0  0  0
   -2.4610    1.1490   -1.4600 N   0  0  0  0  0  0  0  0  0  0  0  0
   -2.5660    1.8910   -0.2550 C   0  0  0  0  0  0  0  0  0  0  0  0
   -2.9510    3.0870   -0.2070 O   0  0  0  0  0  0  0  0  0  0  0  0
   -2.2120    1.2360    0.9750 N   0  0  0  0  0  0  0  0  0  0  0  0
   -1.3600    0.0750    0.8740 C   0  0  2  0  0  0  0  0  0  0  0  0
    0.0350    0.5040    0.5930 C   0  0  0  0  0  0  0  0  0  0  0  0
    0.2960    1.7160    0.4840 O   0  0  0  0  0  0  0  0  0  0  0  0
    1.0380   -0.4880    0.4550 N   0  0  0  0  0  0  0  0  0  0  0  0
    2.4000   -0.1650    0.1860 C   0  0  0  0  0  0  0  0  0  0  0  0
    2.9990    1.0470    0.0140 C   0  0  0  0  0  0  0  0  0  0  0  0
    4.3100    0.8390   -0.2190 N   0  0  0  0  0  0  0  0  0  0  0  0
    4.5770   -0.4660   -0.2040 C   0  0  0  0  0  0  0  0  0  0  0  0
    3.4010   -1.1190    0.0470 C   0  0  0  0  0  0  0  0  0  0  0  0
    3.2370   -2.4950    0.1450 O   0  0  0  0  0  0  0  0  0  0  0  0
  2  1  1  1
  2  3  1  0
  2  8  1  0
  3  4  1  0
  4  5  1  0
  5  6  2  0
  5  7  1  0
  7  8  1  0
  8  9  1  6
  9 10  2  0
  9 11  1  0
 11 12  1  0
 12 13  2  0
 12 16  1  0
 13 14  1  0
 14 15  1  0
 15 16  2  0
 16 17  1  0
M  END
