
     RDKit          3D

 17 18  0  0  0  0  0  0  0  0999 V2000
    4.8360   -1.5670    1.1300 C   0  0  0  0  0  0  0  0  0  0  0  0
    3.6950   -0.7540    0.9660 O   0  0  0  0  0  0  0  0  0  0  0  0
    3.0750   -1.0460   -0.2590 C   0  0  0  0  0  0  0  0  0  0  0  0
    1.8890   -0.1710   -0.3810 C   0  0  0  0  0  0  0  0  0  0  0  0
    1.9880    1.0360   -0.9550 N   0  0  0  0  0  0  0  0  0  0  0  0
    0.8990    1.8320   -1.0640 C   0  0  0  0  0  0  0  0  0  0  0  0
    0.9800    3.1190   -1.6700 N   0  0  0  0  0  0  0  0  0  0  0  0
   -0.3420    1.4180   -0.5850 C   0  0  0  0  0  0  0  0  0  0  0  0
   -0.4220    0.1750    0.0010 C   0  0  0  0  0  0  0  0  0  0  0  0
    0.6980   -0.5890    0.0880 N   0  0  0  0  0  0  0  0  0  0  0  0
   -1.7660   -0.0040    0.3970 N   0  0  0  0  0  0  0  0  0  0  0  0
   -2.4190   -1.2520    0.6960 C   0  0  1  0  0  0  0  0  0  0  0  0
   -3.5870   -1.4410   -0.2490 C   0  0  0  0  0  0  0  0  0  0  0  0
   -1.5120   -2.2790    0.5780 O   0  0  0  0  0  0  0  0  0  0  0  0
   -2.3720    1.3150    0.4470 C   0  0  2  0  0  0  0  0  0  0  0  0
   -3.7110    1.2730    0.1010 O   0  0  0  0  0  0  0  0  0  0  0  0
   -1.6270    2.0430   -0.5690 N   0  0  0  0  0  0  0  0  0  0  0  0
  1  2  1  0
  2  3  1  0
  3  4  1  0
  4  5  2  0
  4 10  1  0
  5  6  1  0
  6  7  1  0
  6  8  2  0
  8  9  1  0
  8 17  1  0
  9 10  2  0
  9 11  1  0
 11 12  1  0
 11 15  1  0
 12 13  1  6
 12 14  1  0
 15 16  1  6
 15 17  1  0
M  END
