
     RDKit          3D

 22 24  0  0  0  0  0  0  0  0999 V2000
   -6.8010   -0.0170   -0.8780 C   0  0  0  0  0  0  0  0  0  0  0  0
   -6.3030    0.4200    0.4980 C   0  0  0  0  0  0  0  0  0  0  0  0
   -4.8780   -0.0120    0.5950 C   0  0  0  0  0  0  0  0  0  0  0  0
   -4.4980   -1.1020    1.3210 C   0  0  0  0  0  0  0  0  0  0  0  0
   -3.2070   -1.5330    1.4340 C   0  0  0  0  0  0  0  0  0  0  0  0
   -2.2110   -0.8160    0.7680 C   0  0  0  0  0  0  0  0  0  0  0  0
   -0.8850   -1.2840    0.8690 N   0  0  0  0  0  0  0  0  0  0  0  0
    0.2330   -0.4470    0.6040 C   0  0  0  0  0  0  0  0  0  0  0  0
    0.1140    0.7560    0.2740 O   0  0  0  0  0  0  0  0  0  0  0  0
    1.5450   -0.9730    0.7110 N   0  0  0  0  0  0  0  0  0  0  0  0
    2.7450   -0.2710    0.4860 C   0  0  0  0  0  0  0  0  0  0  0  0
    2.8680    1.0680    0.2640 C   0  0  0  0  0  0  0  0  0  0  0  0
    4.1500    1.5970    0.0490 C   0  0  0  0  0  0  0  0  0  0  0  0
    5.2890    0.8320    0.0500 C   0  0  0  0  0  0  0  0  0  0  0  0
    5.1680   -0.5220    0.2740 C   0  0  0  0  0  0  0  0  0  0  0  0
    3.9180   -1.0380    0.4840 C   0  0  0  0  0  0  0  0  0  0  0  0
    6.4490   -1.1080    0.2320 O   0  0  0  0  0  0  0  0  0  0  0  0
    7.2540   -0.2480   -0.5590 C   0  0  0  0  0  0  0  0  0  0  0  0
    6.7350    1.1140   -0.1420 C   0  0  0  0  0  0  0  0  0  0  0  0
   -2.5600    0.2760    0.0360 C   0  0  0  0  0  0  0  0  0  0  0  0
   -3.8940    0.6960   -0.0630 C   0  0  0  0  0  0  0  0  0  0  0  0
   -4.2040    1.8140   -0.8200 O   0  0  0  0  0  0  0  0  0  0  0  0
  1  2  1  0
  2  3  1  0
  3  4  2  0
  3 21  1  0
  4  5  1  0
  5  6  2  0
  6  7  1  0
  6 20  1  0
  7  8  1  0
  8  9  2  0
  8 10  1  0
 10 11  1  0
 11 12  2  0
 11 16  1  0
 12 13  1  0
 13 14  2  0
 14 15  1  0
 14 19  1  0
 15 16  2  0
 15 17  1  0
 17 18  1  0
 18 19  1  0
 20 21  2  0
 21 22  1  0
M  END
