
     RDKit          3D

 22 24  0  0  0  0  0  0  0  0999 V2000
    5.4370    0.3960    0.8080 C   0  0  0  0  0  0  0  0  0  0  0  0
    4.0140    0.0480    0.5620 C   0  0  0  0  0  0  0  0  0  0  0  0
    3.1040   -0.0400    1.5760 N   0  0  0  0  0  0  0  0  0  0  0  0
    1.8170   -0.3560    1.3390 C   0  0  0  0  0  0  0  0  0  0  0  0
    0.9950   -0.4320    2.3110 O   0  0  0  0  0  0  0  0  0  0  0  0
    1.4090   -0.5960    0.0360 C   0  0  0  0  0  0  0  0  0  0  0  0
    0.0980   -0.9180   -0.1970 O   0  0  0  0  0  0  0  0  0  0  0  0
   -0.9770   -0.1120    0.0530 C   0  0  0  0  0  0  0  0  0  0  0  0
   -0.8380    1.1520    0.5320 C   0  0  0  0  0  0  0  0  0  0  0  0
   -1.9500    1.9020    0.7620 C   0  0  0  0  0  0  0  0  0  0  0  0
   -3.2630    1.4510    0.5340 C   0  0  0  0  0  0  0  0  0  0  0  0
   -4.3700    2.3240    0.8100 C   0  0  0  0  0  0  0  0  0  0  0  0
   -5.5650    2.0500    0.6560 O   0  0  0  0  0  0  0  0  0  0  0  0
   -3.3610    0.1730    0.0510 C   0  0  0  0  0  0  0  0  0  0  0  0
   -4.5990   -0.3700   -0.2090 C   0  0  0  0  0  0  0  0  0  0  0  0
   -4.7460   -1.6680   -0.7010 C   0  0  0  0  0  0  0  0  0  0  0  0
   -3.6210   -2.4040   -0.9250 C   0  0  0  0  0  0  0  0  0  0  0  0
   -2.3850   -1.8870   -0.6760 C   0  0  0  0  0  0  0  0  0  0  0  0
   -2.2470   -0.6040   -0.1890 C   0  0  0  0  0  0  0  0  0  0  0  0
    2.3290   -0.5100   -1.0190 C   0  0  0  0  0  0  0  0  0  0  0  0
    3.6280   -0.1870   -0.7400 C   0  0  0  0  0  0  0  0  0  0  0  0
    4.5820   -0.0930   -1.7880 N   0  0  0  0  0  0  0  0  0  0  0  0
  1  2  1  0
  2  3  1  0
  2 21  2  0
  3  4  1  0
  4  5  2  0
  4  6  1  0
  6  7  1  0
  6 20  2  0
  7  8  1  0
  8  9  2  0
  8 19  1  0
  9 10  1  0
 10 11  2  0
 11 12  1  0
 11 14  1  0
 12 13  2  0
 14 15  2  0
 14 19  1  0
 15 16  1  0
 16 17  2  0
 17 18  1  0
 18 19  2  0
 20 21  1  0
 21 22  1  0
M  END
