
     RDKit          3D

 22 24  0  0  0  0  0  0  0  0999 V2000
   -5.8070   -1.2460    0.0580 C   0  0  0  0  0  0  0  0  0  0  0  0
   -5.6530    0.1650   -0.4430 C   0  0  1  0  0  0  0  0  0  0  0  0
   -6.3000    1.1310    0.5480 C   0  0  0  0  0  0  0  0  0  0  0  0
   -4.2200    0.5180   -0.5470 C   0  0  0  0  0  0  0  0  0  0  0  0
   -3.2640   -0.3310   -0.2420 C   0  0  0  0  0  0  0  0  0  0  0  0
   -1.8650    0.1180   -0.3790 C   0  0  0  0  0  0  0  0  0  0  0  0
   -1.4220    1.3070   -0.7850 N   0  0  0  0  0  0  0  0  0  0  0  0
   -0.0520    1.3450   -0.7810 C   0  0  0  0  0  0  0  0  0  0  0  0
    0.7680    2.5270   -1.1760 C   0  0  0  0  0  0  0  0  0  0  0  0
   -0.1680    3.5490   -1.5430 O   0  0  0  0  0  0  0  0  0  0  0  0
    0.3650    0.1120   -0.3490 C   0  0  0  0  0  0  0  0  0  0  0  0
    1.6990   -0.4230   -0.1450 C   0  0  0  0  0  0  0  0  0  0  0  0
    1.8430   -1.7220    0.3280 C   0  0  0  0  0  0  0  0  0  0  0  0
    3.0800   -2.2870    0.5400 C   0  0  0  0  0  0  0  0  0  0  0  0
    4.2220   -1.5760    0.2870 C   0  0  0  0  0  0  0  0  0  0  0  0
    4.1040   -0.3020   -0.1770 C   0  0  0  0  0  0  0  0  0  0  0  0
    2.8460    0.2780   -0.3940 C   0  0  0  0  0  0  0  0  0  0  0  0
    5.2650    0.4480   -0.4440 O   0  0  0  0  0  0  0  0  0  0  0  0
    6.5330   -0.1940   -0.4010 C   0  0  0  0  0  0  0  0  0  0  0  0
    6.5560   -1.2080    0.7270 C   0  0  0  0  0  0  0  0  0  0  0  0
    5.5020   -2.1240    0.4930 O   0  0  0  0  0  0  0  0  0  0  0  0
   -0.7640   -0.6040   -0.1160 N   0  0  0  0  0  0  0  0  0  0  0  0
  2  1  1  1
  2  3  1  0
  2  4  1  0
  4  5  2  3
  5  6  1  0
  6  7  2  0
  6 22  1  0
  7  8  1  0
  8  9  1  0
  8 11  2  0
  9 10  1  0
 11 12  1  0
 11 22  1  0
 12 13  2  0
 12 17  1  0
 13 14  1  0
 14 15  2  0
 15 16  1  0
 15 21  1  0
 16 17  2  0
 16 18  1  0
 18 19  1  0
 19 20  1  0
 20 21  1  0
M  END
