
     RDKit          3D

 22 24  0  0  0  0  0  0  0  0999 V2000
   -6.0820    1.0890   -0.5830 C   0  0  0  0  0  0  0  0  0  0  0  0
   -5.3220    0.1030   -0.1630 C   0  0  0  0  0  0  0  0  0  0  0  0
   -5.7180   -1.2500    0.2920 C   0  0  0  0  0  0  0  0  0  0  0  0
   -4.6130   -1.6340    1.0880 O   0  0  0  0  0  0  0  0  0  0  0  0
   -3.4740   -0.9140    0.7120 C   0  0  0  0  0  0  0  0  0  0  0  0
   -2.1290   -1.0690    0.9510 C   0  0  0  0  0  0  0  0  0  0  0  0
   -1.1760   -0.1770    0.4400 C   0  0  0  0  0  0  0  0  0  0  0  0
    0.1540   -0.4410    0.7790 N   0  0  0  0  0  0  0  0  0  0  0  0
    1.2400    0.1110    0.0620 C   0  0  0  0  0  0  0  0  0  0  0  0
    1.0790    0.8720   -0.9370 O   0  0  0  0  0  0  0  0  0  0  0  0
    2.6450   -0.1590    0.4240 C   0  0  0  0  0  0  0  0  0  0  0  0
    2.9700   -0.9680    1.4870 C   0  0  0  0  0  0  0  0  0  0  0  0
    4.3000   -1.2100    1.8130 C   0  0  0  0  0  0  0  0  0  0  0  0
    5.2830   -0.6270    1.0530 C   0  0  0  0  0  0  0  0  0  0  0  0
    4.9840    0.1860   -0.0150 C   0  0  0  0  0  0  0  0  0  0  0  0
    6.0110    0.8150   -0.8350 C   0  0  0  0  0  0  0  0  0  0  0  0
    5.7070    1.5500   -1.8010 O   0  0  0  0  0  0  0  0  0  0  0  0
    3.6400    0.4230   -0.3330 C   0  0  0  0  0  0  0  0  0  0  0  0
    3.3120    1.2590   -1.4330 N   0  0  0  0  0  0  0  0  0  0  0  0
   -1.5680    0.8810   -0.3180 C   0  0  0  0  0  0  0  0  0  0  0  0
   -2.9420    1.0590   -0.5750 C   0  0  0  0  0  0  0  0  0  0  0  0
   -3.8560    0.1680   -0.0610 C   0  0  0  0  0  0  0  0  0  0  0  0
  1  2  2  0
  2  3  1  0
  2 22  1  0
  3  4  1  0
  4  5  1  0
  5  6  2  0
  5 22  1  0
  6  7  1  0
  7  8  1  0
  7 20  2  0
  8  9  1  0
  9 10  2  0
  9 11  1  0
 11 12  2  0
 11 18  1  0
 12 13  1  0
 13 14  2  0
 14 15  1  0
 15 16  1  0
 15 18  2  0
 16 17  2  0
 18 19  1  0
 20 21  1  0
 21 22  2  0
M  END
