
     RDKit          3D

 12 12  0  0  0  0  0  0  0  0999 V2000
    3.8930   -1.3080    0.2270 O   0  0  0  0  0  0  0  0  0  0  0  0
    3.3680   -0.3660   -0.3960 C   0  0  0  0  0  0  0  0  0  0  0  0
    4.1450    0.6890   -0.8210 O   0  0  0  0  0  0  0  0  0  0  0  0
    1.9210   -0.3970   -0.6680 C   0  0  0  0  0  0  0  0  0  0  0  0
    1.2030    0.0950    0.5970 C   0  0  0  0  0  0  0  0  0  0  0  0
   -0.2610    0.0820    0.3800 C   0  0  0  0  0  0  0  0  0  0  0  0
   -0.9050    1.1940   -0.1370 C   0  0  0  0  0  0  0  0  0  0  0  0
   -2.2760    1.1300   -0.3190 C   0  0  0  0  0  0  0  0  0  0  0  0
   -3.0380    0.0210   -0.0150 C   0  0  0  0  0  0  0  0  0  0  0  0
   -4.4210   -0.0200   -0.2070 O   0  0  0  0  0  0  0  0  0  0  0  0
   -2.3470   -1.0790    0.5040 C   0  0  0  0  0  0  0  0  0  0  0  0
   -0.9850   -1.0340    0.6920 C   0  0  0  0  0  0  0  0  0  0  0  0
  1  2  2  0
  2  3  1  0
  2  4  1  0
  4  5  1  0
  5  6  1  0
  6  7  2  0
  6 12  1  0
  7  8  1  0
  8  9  2  0
  9 10  1  0
  9 11  1  0
 11 12  2  0
M  END
