
     RDKit          3D

 22 24  0  0  0  0  0  0  0  0999 V2000
    5.7630    0.2630   -1.5490 C   0  0  0  0  0  0  0  0  0  0  0  0
    5.5460   -0.5390   -0.2600 C   0  0  0  0  0  0  0  0  0  0  0  0
    4.3170   -0.1720    0.4070 N   0  0  0  0  0  0  0  0  0  0  0  0
    3.0390   -0.3030   -0.1760 C   0  0  0  0  0  0  0  0  0  0  0  0
    2.9120   -0.7680   -1.3490 O   0  0  0  0  0  0  0  0  0  0  0  0
    1.8250    0.0830    0.5280 C   0  0  0  0  0  0  0  0  0  0  0  0
    0.6260   -0.0400    0.0020 C   0  0  0  0  0  0  0  0  0  0  0  0
   -0.5880    0.3460    0.7020 C   0  0  0  0  0  0  0  0  0  0  0  0
   -0.5170    0.8630    1.9940 C   0  0  0  0  0  0  0  0  0  0  0  0
   -1.6650    1.2170    2.7020 C   0  0  0  0  0  0  0  0  0  0  0  0
   -2.9090    1.0480    2.0980 C   0  0  0  0  0  0  0  0  0  0  0  0
   -2.9700    0.5390    0.8260 C   0  0  0  0  0  0  0  0  0  0  0  0
   -1.8360    0.1880    0.1230 C   0  0  0  0  0  0  0  0  0  0  0  0
   -1.9290   -0.3120   -1.2260 C   0  0  0  0  0  0  0  0  0  0  0  0
   -1.2730    0.1620   -2.3420 C   0  0  0  0  0  0  0  0  0  0  0  0
   -1.6640   -0.5770   -3.4480 C   0  0  0  0  0  0  0  0  0  0  0  0
   -2.5450   -1.4790   -2.9880 N   0  0  0  0  0  0  0  0  0  0  0  0
   -2.7370   -1.3600   -1.6670 C   0  0  0  0  0  0  0  0  0  0  0  0
   -3.6230   -2.1620   -0.7910 C   0  0  0  0  0  0  0  0  0  0  0  0
   -3.9190    1.4570    2.9640 O   0  0  0  0  0  0  0  0  0  0  0  0
   -3.2810    2.2680    3.9530 C   0  0  0  0  0  0  0  0  0  0  0  0
   -1.9640    1.7350    3.9420 O   0  0  0  0  0  0  0  0  0  0  0  0
  1  2  1  0
  2  3  1  0
  3  4  1  0
  4  5  2  0
  4  6  1  0
  6  7  2  3
  7  8  1  0
  8  9  2  0
  8 13  1  0
  9 10  1  0
 10 11  2  0
 10 22  1  0
 11 12  1  0
 11 20  1  0
 12 13  2  0
 13 14  1  0
 14 15  1  0
 14 18  2  0
 15 16  2  0
 16 17  1  0
 17 18  1  0
 18 19  1  0
 20 21  1  0
 21 22  1  0
M  END
