
     RDKit          3D

 28 30  0  0  0  0  0  0  0  0999 V2000
    2.5620    0.1250   -0.1500 O   0  0  0  0  0  0  0  0  0  0  0  0
    2.7440   -0.5540    0.8910 C   0  0  0  0  0  0  0  0  0  0  0  0
    1.8200   -1.5940    1.3360 C   0  0  0  0  0  0  0  0  0  0  0  0
    0.6410   -1.8530    0.4640 C   0  0  1  0  0  0  0  0  0  0  0  0
   -0.2280   -0.7150    0.2570 N   0  0  0  0  0  0  0  0  0  0  0  0
   -1.5400   -0.6300    0.7320 C   0  0  0  0  0  0  0  0  0  0  0  0
   -1.9970   -1.6180    1.3890 O   0  0  0  0  0  0  0  0  0  0  0  0
   -2.3880    0.4390    0.5500 O   0  0  0  0  0  0  0  0  0  0  0  0
   -3.7250    0.4370    1.0770 C   0  0  0  0  0  0  0  0  0  0  0  0
   -4.4120    1.6890    0.7430 C   0  0  0  0  0  0  0  0  0  0  0  0
   -5.1300    1.7820   -0.4250 C   0  0  0  0  0  0  0  0  0  0  0  0
   -5.7960    2.9670   -0.7680 C   0  0  0  0  0  0  0  0  0  0  0  0
   -5.7430    4.0520    0.0540 C   0  0  0  0  0  0  0  0  0  0  0  0
   -5.0090    3.9440    1.2400 C   0  0  0  0  0  0  0  0  0  0  0  0
   -4.3620    2.7800    1.5640 C   0  0  0  0  0  0  0  0  0  0  0  0
    0.9150   -2.6310   -0.7590 C   0  0  0  0  0  0  0  0  0  0  0  0
    1.0760   -2.0060   -1.9600 C   0  0  0  0  0  0  0  0  0  0  0  0
    1.3480   -2.7070   -3.1370 C   0  0  0  0  0  0  0  0  0  0  0  0
    1.4550   -4.0680   -3.0760 C   0  0  0  0  0  0  0  0  0  0  0  0
    1.3010   -4.7500   -1.8890 C   0  0  0  0  0  0  0  0  0  0  0  0
    1.0340   -4.0180   -0.7550 C   0  0  0  0  0  0  0  0  0  0  0  0
    3.9400   -0.2270    1.6180 N   0  0  0  0  0  0  0  0  0  0  0  0
    4.8520    0.7880    1.1940 C   0  0  0  0  0  0  0  0  0  0  0  0
    5.8610    1.2740    1.5390 N   0  0  0  0  0  0  0  0  0  0  0  0
    6.4870    2.2440    0.8990 N   0  0  0  0  0  0  0  0  0  0  0  0
    6.1230    2.7300   -0.0710 C   0  0  0  0  0  0  0  0  0  0  0  0
    6.6030    4.0270   -1.2700 S   0  0  0  0  0  0  0  0  0  0  0  0
    4.5190    1.7620   -0.3690 S   0  0  0  0  0  0  0  0  0  0  0  0
  1  2  2  0
  2  3  1  0
  2 22  1  0
  4  3  1  6
  4  5  1  0
  4 16  1  0
  5  6  1  0
  6  7  2  0
  6  8  1  0
  8  9  1  0
  9 10  1  0
 10 11  2  0
 10 15  1  0
 11 12  1  0
 12 13  2  0
 13 14  1  0
 14 15  2  0
 16 17  2  0
 16 21  1  0
 17 18  1  0
 18 19  2  0
 19 20  1  0
 20 21  2  0
 22 23  1  0
 23 24  2  0
 23 28  1  0
 24 25  1  0
 25 26  2  0
 26 27  1  0
 26 28  1  0
M  END
