
     RDKit          3D

 20 21  0  0  0  0  0  0  0  0999 V2000
    4.3830   -1.0760   -1.2970 C   0  0  0  0  0  0  0  0  0  0  0  0
    3.2740   -1.6350   -1.6570 C   0  0  0  0  0  0  0  0  0  0  0  0
    3.4760   -2.7930   -2.5690 O   0  0  0  0  0  0  0  0  0  0  0  0
    1.9010   -1.4310   -1.4070 C   0  0  0  0  0  0  0  0  0  0  0  0
    1.2690   -0.5550   -0.6860 C   0  0  0  0  0  0  0  0  0  0  0  0
    1.8670    0.4400    0.0470 C   0  0  0  0  0  0  0  0  0  0  0  0
    1.2490    1.3820    0.8180 C   0  0  0  0  0  0  0  0  0  0  0  0
    2.0310    2.4250    1.5760 C   0  0  0  0  0  0  0  0  0  0  0  0
   -0.1530    1.3440    0.8820 C   0  0  0  0  0  0  0  0  0  0  0  0
   -0.6940    2.3080    1.6630 O   0  0  0  0  0  0  0  0  0  0  0  0
   -0.8320    0.3750    0.1760 C   0  0  0  0  0  0  0  0  0  0  0  0
   -0.1460   -0.5650   -0.6000 C   0  0  0  0  0  0  0  0  0  0  0  0
   -0.8340   -1.4750   -1.2620 C   0  0  0  0  0  0  0  0  0  0  0  0
   -2.3010   -1.5250   -1.2050 C   0  0  0  0  0  0  0  0  0  0  0  0
   -2.9690   -2.3890   -1.8320 O   0  0  0  0  0  0  0  0  0  0  0  0
   -3.0270   -0.5650   -0.4090 C   0  0  0  0  0  0  0  0  0  0  0  0
   -4.4230   -0.6110   -0.3550 O   0  0  0  0  0  0  0  0  0  0  0  0
   -2.3020    0.3350    0.2430 C   0  0  0  0  0  0  0  0  0  0  0  0
   -2.9630    1.2610    1.0110 O   0  0  0  0  0  0  0  0  0  0  0  0
   -3.8710    0.9210    2.0650 C   0  0  0  0  0  0  0  0  0  0  0  0
  1  2  2  0
  2  3  1  0
  2  4  1  0
  4  5  2  3
  5  6  1  0
  5 12  1  0
  6  7  2  0
  7  8  1  0
  7  9  1  0
  9 10  1  0
  9 11  2  0
 11 12  1  0
 11 18  1  0
 12 13  2  0
 13 14  1  0
 14 15  2  0
 14 16  1  0
 16 17  1  0
 16 18  2  0
 18 19  1  0
 19 20  1  0
M  END
