
     RDKit          3D

 20 22  0  0  0  0  0  0  0  0999 V2000
    2.0240   -0.4910    1.8120 O   0  0  0  0  0  0  0  0  0  0  0  0
    0.8230   -0.3720    1.1190 C   0  0  0  0  0  0  0  0  0  0  0  0
   -0.1740    0.4430    1.6110 C   0  0  0  0  0  0  0  0  0  0  0  0
   -1.4000    0.5920    0.9480 C   0  0  0  0  0  0  0  0  0  0  0  0
   -1.6670   -0.0670   -0.2220 C   0  0  0  0  0  0  0  0  0  0  0  0
   -0.6440   -0.8900   -0.7090 C   0  0  0  0  0  0  0  0  0  0  0  0
   -0.9180   -1.5570   -1.8990 O   0  0  0  0  0  0  0  0  0  0  0  0
    0.5640   -1.0370   -0.0570 C   0  0  0  0  0  0  0  0  0  0  0  0
    1.5110   -1.8530   -0.5910 O   0  0  0  0  0  0  0  0  0  0  0  0
    2.4850   -1.5740   -1.5320 C   0  0  0  0  0  0  0  0  0  0  0  0
    3.4580   -0.5330   -1.1970 C   0  0  0  0  0  0  0  0  0  0  0  0
    4.6850   -0.7380   -0.6160 C   0  0  0  0  0  0  0  0  0  0  0  0
    5.2780    0.5080   -0.4750 C   0  0  0  0  0  0  0  0  0  0  0  0
    4.3780    1.4140   -0.9800 C   0  0  0  0  0  0  0  0  0  0  0  0
    3.3430    0.7510   -1.3830 O   0  0  0  0  0  0  0  0  0  0  0  0
   -2.9490    0.0650   -0.9490 C   0  0  0  0  0  0  0  0  0  0  0  0
   -4.0160    0.7080   -0.1500 C   0  0  0  0  0  0  0  0  0  0  0  0
   -3.7580    0.7900    1.3310 C   0  0  1  0  0  0  0  0  0  0  0  0
   -3.7130   -0.4390    1.9510 O   0  0  0  0  0  0  0  0  0  0  0  0
   -2.4270    1.5000    1.5550 C   0  0  0  0  0  0  0  0  0  0  0  0
  1  2  1  0
  2  3  2  0
  2  8  1  0
  3  4  1  0
  4  5  2  0
  4 20  1  0
  5  6  1  0
  5 16  1  0
  6  7  1  0
  6  8  2  0
  8  9  1  0
  9 10  1  0
 10 11  1  0
 11 12  2  0
 11 15  1  0
 12 13  1  0
 13 14  2  0
 14 15  1  0
 16 17  1  0
 17 18  1  0
 18 19  1  6
 18 20  1  0
M  END
