
     RDKit          3D

 20 22  0  0  0  0  0  0  0  0999 V2000
    4.9350    0.5430   -0.2090 C   0  0  0  0  0  0  0  0  0  0  0  0
    3.5790    0.7120   -0.8380 C   0  0  1  0  0  0  0  0  0  0  0  0
    3.4910   -0.2080   -1.8960 O   0  0  0  0  0  0  0  0  0  0  0  0
    2.4960    0.5030    0.1510 C   0  0  0  0  0  0  0  0  0  0  0  0
    2.7190    0.4970    1.5130 C   0  0  0  0  0  0  0  0  0  0  0  0
    1.7120    0.3030    2.4330 C   0  0  0  0  0  0  0  0  0  0  0  0
    0.4140    0.1010    2.0070 C   0  0  0  0  0  0  0  0  0  0  0  0
   -0.7380   -0.1080    2.5990 O   0  0  0  0  0  0  0  0  0  0  0  0
   -1.7070   -0.2400    1.6950 C   0  0  0  0  0  0  0  0  0  0  0  0
   -3.0430   -0.4640    1.7810 C   0  0  0  0  0  0  0  0  0  0  0  0
   -3.8290   -0.5580    0.6210 C   0  0  0  0  0  0  0  0  0  0  0  0
   -5.1670   -0.7850    0.8260 O   0  0  0  0  0  0  0  0  0  0  0  0
   -3.2900   -0.4300   -0.6370 C   0  0  0  0  0  0  0  0  0  0  0  0
   -4.0650   -0.5200   -1.8730 C   0  0  0  0  0  0  0  0  0  0  0  0
   -3.4540   -0.3840   -2.9870 O   0  0  0  0  0  0  0  0  0  0  0  0
   -5.4180   -0.7410   -1.9630 O   0  0  0  0  0  0  0  0  0  0  0  0
   -1.9060   -0.1990   -0.7100 C   0  0  0  0  0  0  0  0  0  0  0  0
   -1.1660   -0.1120    0.4330 C   0  0  0  0  0  0  0  0  0  0  0  0
    0.1960    0.1070    0.6450 C   0  0  0  0  0  0  0  0  0  0  0  0
    1.1990    0.3020   -0.2820 C   0  0  0  0  0  0  0  0  0  0  0  0
  2  1  1  1
  2  3  1  0
  2  4  1  0
  4  5  2  0
  4 20  1  0
  5  6  1  0
  6  7  2  0
  7  8  1  0
  7 19  1  0
  8  9  1  0
  9 10  2  0
  9 18  1  0
 10 11  1  0
 11 12  1  0
 11 13  2  0
 13 14  1  0
 13 17  1  0
 14 15  2  0
 14 16  1  0
 17 18  2  0
 18 19  1  0
 19 20  2  0
M  END
