
     RDKit          3D

 20 22  0  0  0  0  0  0  0  0999 V2000
    4.9750   -1.0180    1.9170 O   0  0  0  0  0  0  0  0  0  0  0  0
    5.1860   -0.6500    0.5900 C   0  0  0  0  0  0  0  0  0  0  0  0
    4.0020    0.0400    0.0410 C   0  0  0  0  0  0  0  0  0  0  0  0
    3.7920    1.4010    0.1700 C   0  0  0  0  0  0  0  0  0  0  0  0
    2.6010    1.6630   -0.4600 C   0  0  0  0  0  0  0  0  0  0  0  0
    2.1420    0.4370   -0.9450 C   0  0  0  0  0  0  0  0  0  0  0  0
    0.8910    0.2830   -1.6860 C   0  0  1  0  0  0  0  0  0  0  0  0
    1.0320   -0.5280   -2.8090 O   0  0  0  0  0  0  0  0  0  0  0  0
   -0.2490   -0.1790   -0.8680 C   0  0  0  0  0  0  0  0  0  0  0  0
   -1.1750    0.7770   -0.4380 C   0  0  0  0  0  0  0  0  0  0  0  0
   -2.2260    0.4060    0.3250 C   0  0  0  0  0  0  0  0  0  0  0  0
   -2.3680   -0.9270    0.6700 C   0  0  0  0  0  0  0  0  0  0  0  0
   -1.4740   -1.8740    0.2600 C   0  0  0  0  0  0  0  0  0  0  0  0
   -0.3720   -1.5000   -0.5380 C   0  0  0  0  0  0  0  0  0  0  0  0
    0.4920   -2.5000   -0.9220 O   0  0  0  0  0  0  0  0  0  0  0  0
   -3.4830   -1.2400    1.4640 O   0  0  0  0  0  0  0  0  0  0  0  0
   -4.7190   -0.6560    1.1380 C   0  0  0  0  0  0  0  0  0  0  0  0
   -4.5980    0.7420    0.6140 C   0  0  0  0  0  0  0  0  0  0  0  0
   -3.2550    1.3520    0.8340 C   0  0  0  0  0  0  0  0  0  0  0  0
    3.0030   -0.4880   -0.6240 O   0  0  0  0  0  0  0  0  0  0  0  0
  1  2  1  0
  2  3  1  0
  3  4  2  0
  3 20  1  0
  4  5  1  0
  5  6  2  0
  6  7  1  0
  6 20  1  0
  7  8  1  6
  7  9  1  0
  9 10  2  0
  9 14  1  0
 10 11  1  0
 11 12  2  0
 11 19  1  0
 12 13  1  0
 12 16  1  0
 13 14  2  0
 14 15  1  0
 16 17  1  0
 17 18  1  0
 18 19  1  0
M  END
