
     RDKit          3D

 20 22  0  0  0  0  0  0  0  0999 V2000
    0.5660   -2.6570    0.8880 O   0  0  0  0  0  0  0  0  0  0  0  0
   -0.2700   -1.8050    0.4580 C   0  0  0  0  0  0  0  0  0  0  0  0
   -1.6000   -2.1560    0.3860 O   0  0  0  0  0  0  0  0  0  0  0  0
   -2.5840   -1.6540   -0.4780 C   0  0  0  0  0  0  0  0  0  0  0  0
   -2.7250   -0.1930   -0.2730 C   0  0  0  0  0  0  0  0  0  0  0  0
   -3.9890    0.1340   -0.2390 C   0  0  0  0  0  0  0  0  0  0  0  0
   -4.4000    1.5280   -0.0450 C   0  0  0  0  0  0  0  0  0  0  0  0
   -3.3540    2.4400    0.0810 O   0  0  0  0  0  0  0  0  0  0  0  0
   -2.0180    2.1120    0.0470 C   0  0  0  0  0  0  0  0  0  0  0  0
   -1.7120    0.8370   -0.1240 C   0  0  0  0  0  0  0  0  0  0  0  0
   -0.2570    0.5840   -0.1410 C   0  0  0  0  0  0  0  0  0  0  0  0
    0.5060    1.6770   -0.4570 O   0  0  0  0  0  0  0  0  0  0  0  0
    0.4050   -0.5350    0.1020 C   0  0  0  0  0  0  0  0  0  0  0  0
    1.8560   -0.5360    0.0310 C   0  0  0  0  0  0  0  0  0  0  0  0
    2.4910   -1.6230   -0.5780 C   0  0  0  0  0  0  0  0  0  0  0  0
    3.8780   -1.6910   -0.6680 C   0  0  0  0  0  0  0  0  0  0  0  0
    4.6450   -0.6660   -0.1470 C   0  0  0  0  0  0  0  0  0  0  0  0
    4.0480    0.4190    0.4580 C   0  0  0  0  0  0  0  0  0  0  0  0
    4.8310    1.4410    0.9770 O   0  0  0  0  0  0  0  0  0  0  0  0
    2.6630    0.4480    0.5280 C   0  0  0  0  0  0  0  0  0  0  0  0
  1  2  2  0
  2  3  1  0
  2 13  1  0
  3  4  1  0
  4  5  1  0
  5  6  2  0
  5 10  1  0
  6  7  1  0
  7  8  1  0
  8  9  1  0
  9 10  2  0
 10 11  1  0
 11 12  1  0
 11 13  2  0
 13 14  1  0
 14 15  2  0
 14 20  1  0
 15 16  1  0
 16 17  2  0
 17 18  1  0
 18 19  1  0
 18 20  2  0
M  END
