
     RDKit          3D

 20 21  0  0  0  0  0  0  0  0999 V2000
   -5.6380    1.7110   -0.1240 C   0  0  0  0  0  0  0  0  0  0  0  0
   -4.8200    0.4730   -0.0530 C   0  0  0  0  0  0  0  0  0  0  0  0
   -5.2330   -0.8390   -0.0070 C   0  0  0  0  0  0  0  0  0  0  0  0
   -4.0920   -1.5920    0.0510 C   0  0  0  0  0  0  0  0  0  0  0  0
   -3.0290   -0.7250    0.0390 C   0  0  0  0  0  0  0  0  0  0  0  0
   -1.5700   -1.0780    0.0880 C   0  0  0  0  0  0  0  0  0  0  0  0
   -0.7070   -0.1350    0.0680 C   0  0  0  0  0  0  0  0  0  0  0  0
    0.7280   -0.0360    0.1000 C   0  0  0  0  0  0  0  0  0  0  0  0
    1.2680    1.1890    0.0270 C   0  0  0  0  0  0  0  0  0  0  0  0
    0.3400    2.2550   -0.0790 O   0  0  0  0  0  0  0  0  0  0  0  0
    2.6940    1.5000    0.0530 C   0  0  2  0  0  0  0  0  0  0  0  0
    2.9660    2.4950   -0.9250 O   0  0  0  0  0  0  0  0  0  0  0  0
    3.6150    0.3780   -0.0140 C   0  0  2  0  0  0  0  0  0  0  0  0
    4.7360    0.5180    1.0640 C   0  0  0  0  0  0  0  0  0  0  0  0
    4.3340    0.3500   -1.2550 O   0  0  0  0  0  0  0  0  0  0  0  0
    2.9890   -0.9230    0.0870 C   0  0  0  0  0  0  0  0  0  0  0  0
    1.6780   -1.1210    0.1380 C   0  0  0  0  0  0  0  0  0  0  0  0
    1.1830   -2.5380    0.2750 C   0  0  0  0  0  0  0  0  0  0  0  0
    0.4630   -2.6660    1.4480 O   0  0  0  0  0  0  0  0  0  0  0  0
   -3.5070    0.4880   -0.0230 O   0  0  0  0  0  0  0  0  0  0  0  0
  1  2  1  0
  2  3  2  0
  2 20  1  0
  3  4  1  0
  4  5  2  0
  5  6  1  0
  5 20  1  0
  6  7  2  3
  7  8  1  0
  8  9  2  0
  8 17  1  0
  9 10  1  0
  9 11  1  0
 11 12  1  6
 11 13  1  0
 13 14  1  1
 13 15  1  0
 13 16  1  0
 16 17  2  0
 17 18  1  0
 18 19  1  0
M  END
