
     RDKit          3D

 24 25  0  0  0  0  0  0  0  0999 V2000
   -5.2900    0.2380    2.3710 C   0  0  0  0  0  0  0  0  0  0  0  0
   -4.0290    0.5940    1.6890 C   0  0  0  0  0  0  0  0  0  0  0  0
   -3.8010    0.0750    0.4570 C   0  0  0  0  0  0  0  0  0  0  0  0
   -4.7980   -0.8150   -0.1620 C   0  0  0  0  0  0  0  0  0  0  0  0
   -4.3460   -1.2530   -1.4810 C   0  0  0  0  0  0  0  0  0  0  0  0
   -3.1900   -0.8680   -1.9940 C   0  0  0  0  0  0  0  0  0  0  0  0
   -2.4500   -1.2810   -3.5770 S   0  0  0  0  0  0  0  0  0  0  0  0
   -0.9470   -0.3050   -3.3380 C   0  0  0  0  0  0  0  0  0  0  0  0
    0.3520   -0.1550   -4.4520 Cl  0  0  0  0  0  0  0  0  0  0  0  0
   -1.1450    0.2380   -2.0910 C   0  0  0  0  0  0  0  0  0  0  0  0
   -0.1130    1.1020   -1.5590 N   0  0  0  0  0  0  0  0  0  0  0  0
    0.9600    0.5400   -0.7740 C   0  0  0  0  0  0  0  0  0  0  0  0
    0.8950   -0.7150   -0.6170 O   0  0  0  0  0  0  0  0  0  0  0  0
    1.9800    1.3940   -0.2480 C   0  0  0  0  0  0  0  0  0  0  0  0
    3.0180    1.1460    0.4590 C   0  0  0  0  0  0  0  0  0  0  0  0
    3.4920   -0.1100    0.9530 C   0  0  0  0  0  0  0  0  0  0  0  0
    4.5780   -0.2500    1.6860 C   0  0  0  0  0  0  0  0  0  0  0  0
    5.4680    0.7640    2.1200 C   0  0  0  0  0  0  0  0  0  0  0  0
    5.4420    2.1470    1.9000 N   0  0  0  0  0  0  0  0  0  0  0  0
    6.4820    0.3820    2.8400 O   0  0  0  0  0  0  0  0  0  0  0  0
    2.8220   -1.3240    0.6890 O   0  0  0  0  0  0  0  0  0  0  0  0
    3.5030   -2.3930    0.0440 C   0  0  0  0  0  0  0  0  0  0  0  0
   -2.2800   -0.0520   -1.4210 C   0  0  0  0  0  0  0  0  0  0  0  0
   -2.6210    0.3900   -0.2120 N   0  0  0  0  0  0  0  0  0  0  0  0
  1  2  1  0
  2  3  2  3
  3  4  1  0
  3 24  1  0
  4  5  1  0
  5  6  2  0
  6  7  1  0
  6 23  1  0
  7  8  1  0
  8  9  1  0
  8 10  2  0
 10 11  1  0
 10 23  1  0
 11 12  1  0
 12 13  2  0
 12 14  1  0
 14 15  2  3
 15 16  1  0
 16 17  2  3
 16 21  1  0
 17 18  1  0
 18 19  1  0
 18 20  2  0
 21 22  1  0
 23 24  2  0
M  END
