
     RDKit          3D

 24 26  0  0  0  0  0  0  0  0999 V2000
    5.5350    0.0320   -2.5170 N   0  0  0  0  0  0  0  0  0  0  0  0
    5.8600    0.3670   -1.3360 C   0  0  0  0  0  0  0  0  0  0  0  0
    7.5070    0.8820   -0.8340 S   0  0  0  0  0  0  0  0  0  0  0  0
    7.0990    1.1660    0.8670 C   0  0  0  0  0  0  0  0  0  0  0  0
    5.8340    0.8850    1.0450 C   0  0  0  0  0  0  0  0  0  0  0  0
    5.1140    1.0760    2.6850 Cl  0  0  0  0  0  0  0  0  0  0  0  0
    5.0860    0.4410   -0.1070 C   0  0  0  0  0  0  0  0  0  0  0  0
    3.7710    0.1180   -0.0900 C   0  0  0  0  0  0  0  0  0  0  0  0
    2.8630    0.1280    1.0030 N   0  0  0  0  0  0  0  0  0  0  0  0
    1.5360    0.3600    0.4540 C   0  0  2  0  0  0  0  0  0  0  0  0
    0.4880   -0.4450    1.1740 C   0  0  0  0  0  0  0  0  0  0  0  0
   -0.8340   -0.1300    0.5290 C   0  0  0  0  0  0  0  0  0  0  0  0
   -0.8580    0.6700   -0.4110 O   0  0  0  0  0  0  0  0  0  0  0  0
   -2.0310   -0.7220    0.9690 N   0  0  0  0  0  0  0  0  0  0  0  0
   -3.3360   -0.5230    0.4680 C   0  0  0  0  0  0  0  0  0  0  0  0
   -4.3960   -1.2950    0.9670 C   0  0  0  0  0  0  0  0  0  0  0  0
   -5.6800   -1.1310    0.5120 C   0  0  0  0  0  0  0  0  0  0  0  0
   -6.0140   -0.2080   -0.4550 C   0  0  0  0  0  0  0  0  0  0  0  0
   -7.3900   -0.0500   -0.9240 C   0  0  0  0  0  0  0  0  0  0  0  0
   -7.6730    0.7980   -1.8070 O   0  0  0  0  0  0  0  0  0  0  0  0
   -4.9870    0.5550   -0.9530 C   0  0  0  0  0  0  0  0  0  0  0  0
   -3.6670    0.3890   -0.4870 C   0  0  0  0  0  0  0  0  0  0  0  0
    1.6420   -0.1320   -0.9740 C   0  0  0  0  0  0  0  0  0  0  0  0
    3.0270   -0.3010   -1.1930 O   0  0  0  0  0  0  0  0  0  0  0  0
  1  2  2  0
  2  3  1  0
  2  7  1  0
  3  4  1  0
  4  5  2  0
  5  6  1  0
  5  7  1  0
  7  8  2  3
  8  9  1  0
  8 24  1  0
  9 10  1  0
 10 11  1  1
 10 23  1  0
 11 12  1  0
 12 13  2  0
 12 14  1  0
 14 15  1  0
 15 16  2  0
 15 22  1  0
 16 17  1  0
 17 18  2  0
 18 19  1  0
 18 21  1  0
 19 20  2  0
 21 22  2  0
 23 24  1  0
M  END
