
     RDKit          3D

 24 26  0  0  0  0  0  0  0  0999 V2000
   -7.7760    1.1990    0.8540 O   0  0  0  0  0  0  0  0  0  0  0  0
   -6.6630    0.6970    0.5420 C   0  0  0  0  0  0  0  0  0  0  0  0
   -6.5140   -0.2860   -0.3690 N   0  0  0  0  0  0  0  0  0  0  0  0
   -5.2170   -0.5730   -0.4490 C   0  0  0  0  0  0  0  0  0  0  0  0
   -4.5150   -1.4960   -1.2210 C   0  0  0  0  0  0  0  0  0  0  0  0
   -3.1570   -1.5860   -1.1050 C   0  0  0  0  0  0  0  0  0  0  0  0
   -2.4980   -0.7640   -0.2260 C   0  0  0  0  0  0  0  0  0  0  0  0
   -1.0130   -0.8510   -0.0890 C   0  0  0  0  0  0  0  0  0  0  0  0
   -0.3950    0.0530   -1.0220 N   0  0  0  0  0  0  0  0  0  0  0  0
    1.0140   -0.0100   -0.9460 C   0  0  0  0  0  0  0  0  0  0  0  0
    1.5240    0.5650    0.3560 C   0  0  0  0  0  0  0  0  0  0  0  0
    2.9980    0.4520    0.2950 C   0  0  0  0  0  0  0  0  0  0  0  0
    3.6480    1.5910    0.3780 C   0  0  0  0  0  0  0  0  0  0  0  0
    5.0700    1.8960    0.3570 C   0  0  0  0  0  0  0  0  0  0  0  0
    5.5520    3.4020    1.0910 Cl  0  0  0  0  0  0  0  0  0  0  0  0
    6.0550    1.1860   -0.1430 C   0  0  0  0  0  0  0  0  0  0  0  0
    5.9470   -0.3550   -0.9430 S   0  0  1  0  0  0  0  0  0  0  0  0
    5.7460   -0.1630   -2.4370 O   0  0  0  0  0  0  0  0  0  0  0  0
    7.2300   -1.1330   -0.7420 O   0  0  0  0  0  0  0  0  0  0  0  0
    4.6510   -1.3160   -0.3310 C   0  0  0  0  0  0  0  0  0  0  0  0
    3.4870   -0.9030    0.1520 C   0  0  0  0  0  0  0  0  0  0  0  0
   -3.1660    0.1420    0.5360 C   0  0  0  0  0  0  0  0  0  0  0  0
   -4.5350    0.2380    0.4240 C   0  0  0  0  0  0  0  0  0  0  0  0
   -5.4660    1.0120    1.0200 N   0  0  0  0  0  0  0  0  0  0  0  0
  1  2  2  0
  2  3  1  0
  2 24  1  0
  3  4  1  0
  4  5  2  0
  4 23  1  0
  5  6  1  0
  6  7  2  0
  7  8  1  0
  7 22  1  0
  8  9  1  0
  9 10  1  0
 10 11  1  0
 11 12  1  0
 12 13  2  0
 12 21  1  0
 13 14  1  0
 14 15  1  0
 14 16  2  0
 17 16  1  1
 17 18  2  0
 17 19  2  0
 17 20  1  0
 20 21  2  0
 22 23  2  0
 23 24  1  0
M  END
