
     RDKit          3D

 23 25  0  0  0  0  0  0  0  0999 V2000
    7.5110   -1.0050   -0.2070 C   0  0  0  0  0  0  0  0  0  0  0  0
    6.1950   -0.3830   -0.0850 C   0  0  0  0  0  0  0  0  0  0  0  0
    4.9300   -0.8390   -0.1270 C   0  0  0  0  0  0  0  0  0  0  0  0
    3.8990    0.0100    0.0230 C   0  0  0  0  0  0  0  0  0  0  0  0
    2.5090   -0.2890    0.0040 C   0  0  0  0  0  0  0  0  0  0  0  0
    1.5750    0.7090    0.1710 C   0  0  0  0  0  0  0  0  0  0  0  0
    0.1980    0.3100    0.1480 N   0  0  0  0  0  0  0  0  0  0  0  0
   -0.8950    1.1380   -0.0710 C   0  0  0  0  0  0  0  0  0  0  0  0
   -0.7710    2.3450   -0.2790 O   0  0  0  0  0  0  0  0  0  0  0  0
   -2.2470    0.5200   -0.0480 C   0  0  0  0  0  0  0  0  0  0  0  0
   -3.3110    1.2770   -0.2530 C   0  0  0  0  0  0  0  0  0  0  0  0
   -3.0800    3.0000   -0.5470 Cl  0  0  0  0  0  0  0  0  0  0  0  0
   -4.6230    0.6940   -0.2330 C   0  0  0  0  0  0  0  0  0  0  0  0
   -4.8260   -0.6080   -0.0120 C   0  0  0  0  0  0  0  0  0  0  0  0
   -6.1580   -1.1840    0.0050 C   0  0  0  0  0  0  0  0  0  0  0  0
   -7.2650   -0.3330   -0.2200 N   0  0  0  0  0  0  0  0  0  0  0  0
   -6.3040   -2.3980    0.2130 O   0  0  0  0  0  0  0  0  0  0  0  0
   -3.6680   -1.4940    0.2220 C   0  0  0  0  0  0  0  0  0  0  0  0
   -2.4310   -0.8210    0.1810 O   0  0  0  0  0  0  0  0  0  0  0  0
    1.9210    2.0290    0.3640 C   0  0  0  0  0  0  0  0  0  0  0  0
    3.2640    2.3110    0.3810 N   0  0  0  0  0  0  0  0  0  0  0  0
    4.1500    1.3340    0.2170 C   0  0  0  0  0  0  0  0  0  0  0  0
    5.9670    1.3530    0.1820 S   0  0  0  0  0  0  0  0  0  0  0  0
  1  2  1  0
  2  3  2  0
  2 23  1  0
  3  4  1  0
  4  5  2  0
  4 22  1  0
  5  6  1  0
  6  7  1  0
  6 20  2  0
  7  8  1  0
  8  9  2  0
  8 10  1  0
 10 11  2  0
 10 19  1  0
 11 12  1  0
 11 13  1  0
 13 14  2  0
 14 15  1  0
 14 18  1  0
 15 16  1  0
 15 17  2  0
 18 19  1  0
 20 21  1  0
 21 22  2  0
 22 23  1  0
M  END
