
     RDKit          3D

 24 26  0  0  0  0  0  0  0  0999 V2000
    3.5710   -2.0420    2.0370 C   0  0  0  0  0  0  0  0  0  0  0  0
    2.6660   -1.2640    1.1820 C   0  0  0  0  0  0  0  0  0  0  0  0
    0.8770   -1.4200    1.3360 S   0  0  0  0  0  0  0  0  0  0  0  0
    0.4970   -0.1960    0.0410 C   0  0  0  0  0  0  0  0  0  0  0  0
   -0.8070    0.1900   -0.3730 N   0  0  0  0  0  0  0  0  0  0  0  0
   -1.2940    1.5300   -0.5180 C   0  0  0  0  0  0  0  0  0  0  0  0
   -0.6130    2.5870   -0.2900 O   0  0  0  0  0  0  0  0  0  0  0  0
   -2.6400    1.4380   -0.9540 N   0  0  0  0  0  0  0  0  0  0  0  0
   -3.1050    0.1190   -0.5790 C   0  0  2  0  0  0  0  0  0  0  0  0
   -4.2430   -0.3500   -1.4520 C   0  0  0  0  0  0  0  0  0  0  0  0
   -5.3680   -0.7900   -0.5600 C   0  0  0  0  0  0  0  0  0  0  0  0
   -5.8670    0.3610    0.1630 N   0  0  0  0  0  0  0  0  0  0  0  0
   -4.8280    1.0970    0.8230 C   0  0  0  0  0  0  0  0  0  0  0  0
   -3.5630    0.2310    0.8740 C   0  0  0  0  0  0  0  0  0  0  0  0
   -1.8940   -0.6940   -0.7300 C   0  0  0  0  0  0  0  0  0  0  0  0
   -1.7720   -1.8940   -1.0870 O   0  0  0  0  0  0  0  0  0  0  0  0
    1.7550    0.1950   -0.3670 C   0  0  0  0  0  0  0  0  0  0  0  0
    2.8480   -0.3320    0.1980 C   0  0  0  0  0  0  0  0  0  0  0  0
    4.2260   -0.0460   -0.2930 C   0  0  0  0  0  0  0  0  0  0  0  0
    4.5580    1.0950   -0.7660 C   0  0  0  0  0  0  0  0  0  0  0  0
    3.7910    2.3370   -0.9380 C   0  0  0  0  0  0  0  0  0  0  0  0
    4.8210    3.5920   -0.0640 Cl  0  0  0  0  0  0  0  0  0  0  0  0
    5.2700   -1.1320   -0.3170 C   0  0  0  0  0  0  0  0  0  0  0  0
    4.8400   -2.2300   -1.0610 O   0  0  0  0  0  0  0  0  0  0  0  0
  1  2  1  0
  2  3  1  0
  2 18  2  0
  3  4  1  0
  4  5  1  0
  4 17  2  0
  5  6  1  0
  5 15  1  0
  6  7  2  0
  6  8  1  0
  8  9  1  0
  9 10  1  6
  9 14  1  0
  9 15  1  0
 10 11  1  0
 11 12  1  0
 12 13  1  0
 13 14  1  0
 15 16  2  0
 17 18  1  0
 18 19  1  0
 19 20  2  3
 19 23  1  0
 20 21  1  0
 21 22  1  0
 23 24  1  0
M  END
