
     RDKit          3D

 24 26  0  0  0  0  0  0  0  0999 V2000
   -7.2890   -2.3570    0.4510 O   0  0  0  0  0  0  0  0  0  0  0  0
   -6.2390   -1.6620    0.3090 C   0  0  0  0  0  0  0  0  0  0  0  0
   -5.3690   -1.1010    1.3590 C   0  0  0  0  0  0  0  0  0  0  0  0
   -4.3170   -0.3860    0.5680 C   0  0  0  0  0  0  0  0  0  0  0  0
   -3.0550    0.5200    1.3600 Cl  0  0  0  0  0  0  0  0  0  0  0  0
   -4.5240   -0.5090   -0.7090 C   0  0  0  0  0  0  0  0  0  0  0  0
   -3.7560    0.0140   -1.8310 C   0  0  0  0  0  0  0  0  0  0  0  0
   -2.5330    0.6740   -1.5660 N   0  0  0  0  0  0  0  0  0  0  0  0
   -1.3700    0.0400   -1.0220 C   0  0  0  0  0  0  0  0  0  0  0  0
   -1.4500   -1.1960   -0.7840 O   0  0  0  0  0  0  0  0  0  0  0  0
   -0.1460    0.7590   -0.7480 C   0  0  0  0  0  0  0  0  0  0  0  0
    1.0490    0.2780   -0.2260 C   0  0  0  0  0  0  0  0  0  0  0  0
    1.9780    1.2810   -0.1190 C   0  0  0  0  0  0  0  0  0  0  0  0
    3.3470    1.3640    0.2690 C   0  0  0  0  0  0  0  0  0  0  0  0
    3.7880    2.5650    0.4860 O   0  0  0  0  0  0  0  0  0  0  0  0
    4.3160    0.3000    0.4540 C   0  0  0  0  0  0  0  0  0  0  0  0
    5.5130    0.6470    0.9130 C   0  0  0  0  0  0  0  0  0  0  0  0
    6.6940   -0.1690    1.2060 C   0  0  0  0  0  0  0  0  0  0  0  0
    6.4730   -1.8820    0.7440 S   0  0  0  0  0  0  0  0  0  0  0  0
    4.8080   -2.0590    0.1590 C   0  0  0  0  0  0  0  0  0  0  0  0
    3.9810   -1.0550    0.0810 C   0  0  0  0  0  0  0  0  0  0  0  0
    1.2950    2.4120   -0.5990 C   0  0  0  0  0  0  0  0  0  0  0  0
    0.0730    2.0510   -0.9490 N   0  0  0  0  0  0  0  0  0  0  0  0
   -5.7140   -1.2980   -0.9340 N   0  0  0  0  0  0  0  0  0  0  0  0
  1  2  2  0
  2  3  1  0
  2 24  1  0
  3  4  1  0
  4  5  1  0
  4  6  2  0
  6  7  1  0
  6 24  1  0
  7  8  1  0
  8  9  1  0
  9 10  2  0
  9 11  1  0
 11 12  2  0
 11 23  1  0
 12 13  1  0
 13 14  1  0
 13 22  2  0
 14 15  2  0
 14 16  1  0
 16 17  2  0
 16 21  1  0
 17 18  1  0
 18 19  1  0
 19 20  1  0
 20 21  2  0
 22 23  1  0
M  END
