
     RDKit          3D

 24 26  0  0  0  0  0  0  0  0999 V2000
    1.9080    1.2530    3.6420 O   0  0  0  0  0  0  0  0  0  0  0  0
    2.3440    0.8590    2.5270 C   0  0  0  0  0  0  0  0  0  0  0  0
    3.6470    1.1030    2.2830 N   0  0  0  0  0  0  0  0  0  0  0  0
    4.1700    0.7080    1.1140 C   0  0  0  0  0  0  0  0  0  0  0  0
    5.3730    0.9040    0.8270 O   0  0  0  0  0  0  0  0  0  0  0  0
    3.3810    0.0590    0.1680 C   0  0  0  0  0  0  0  0  0  0  0  0
    3.9510   -0.3370   -1.0250 C   0  0  0  0  0  0  0  0  0  0  0  0
    3.1960   -0.9800   -1.9740 C   0  0  0  0  0  0  0  0  0  0  0  0
    3.8740   -1.5100   -3.5230 Cl  0  0  0  0  0  0  0  0  0  0  0  0
    1.8640   -1.2040   -1.6680 C   0  0  0  0  0  0  0  0  0  0  0  0
    1.2770   -0.8180   -0.4850 C   0  0  0  0  0  0  0  0  0  0  0  0
   -0.1410   -1.0940   -0.2500 C   0  0  0  0  0  0  0  0  0  0  0  0
   -1.0280    0.0770   -0.4190 C   0  0  0  0  0  0  0  0  0  0  0  0
   -0.5720    1.3270   -0.7590 C   0  0  0  0  0  0  0  0  0  0  0  0
   -1.4780    2.3490   -0.9000 C   0  0  0  0  0  0  0  0  0  0  0  0
   -1.0670    3.6230   -1.2400 O   0  0  0  0  0  0  0  0  0  0  0  0
   -2.8210    2.1310   -0.7070 C   0  0  0  0  0  0  0  0  0  0  0  0
   -3.3120    0.8900   -0.3670 C   0  0  0  0  0  0  0  0  0  0  0  0
   -2.3770   -0.1280   -0.2280 C   0  0  0  0  0  0  0  0  0  0  0  0
   -2.8760   -1.4340    0.1320 N   0  0  0  0  0  0  0  0  0  0  0  0
   -4.2710   -1.6740    0.3190 C   0  0  0  0  0  0  0  0  0  0  0  0
   -4.5150   -3.4000    0.7900 S   0  0  0  0  0  0  0  0  0  0  0  0
    2.0400   -0.1730    0.4590 C   0  0  0  0  0  0  0  0  0  0  0  0
    1.5530    0.2360    1.6380 N   0  0  0  0  0  0  0  0  0  0  0  0
  1  2  2  0
  2  3  1  0
  2 24  1  0
  3  4  1  0
  4  5  2  0
  4  6  1  0
  6  7  2  0
  6 23  1  0
  7  8  1  0
  8  9  1  0
  8 10  2  0
 10 11  1  0
 11 12  1  0
 11 23  2  0
 12 13  1  0
 13 14  2  0
 13 19  1  0
 14 15  1  0
 15 16  1  0
 15 17  2  0
 17 18  1  0
 18 19  2  0
 19 20  1  0
 20 21  1  0
 21 22  1  0
 23 24  1  0
M  END
