
     RDKit          3D

 15 14  0  0  0  0  0  0  0  0999 V2000
    5.8040   -0.5760   -0.5000 C   0  0  0  0  0  0  0  0  0  0  0  0
    4.3940   -0.3060   -0.1790 N   0  0  0  0  0  0  0  0  0  0  0  0
    4.0360    0.9270   -0.1330 C   0  0  0  0  0  0  0  0  0  0  0  0
    2.6860    1.2290    0.1720 N   0  0  0  0  0  0  0  0  0  0  0  0
    1.7080    0.3050   -0.1830 N   0  0  0  0  0  0  0  0  0  0  0  0
    0.3200    0.5830    0.0650 C   0  0  0  0  0  0  0  0  0  0  0  0
    0.0860    1.6960    0.6090 O   0  0  0  0  0  0  0  0  0  0  0  0
   -0.7540   -0.3840   -0.3010 C   0  0  0  0  0  0  0  0  0  0  0  0
   -2.0850    0.1960    0.0600 C   0  0  2  0  0  0  0  0  0  0  0  0
   -2.1920    0.4900    1.5530 C   0  0  0  0  0  0  0  0  0  0  0  0
   -3.2580   -0.6980   -0.2690 C   0  0  1  0  0  0  0  0  0  0  0  0
   -4.4490    0.0450    0.1570 N   0  0  0  0  0  0  0  0  0  0  0  0
   -3.3560   -1.0540   -1.6900 C   0  0  0  0  0  0  0  0  0  0  0  0
   -2.4750   -1.7050   -2.2960 O   0  0  0  0  0  0  0  0  0  0  0  0
   -4.4650   -0.6670   -2.4310 O   0  0  0  0  0  0  0  0  0  0  0  0
  1  2  1  0
  2  3  2  3
  3  4  1  0
  4  5  1  0
  5  6  1  0
  6  7  2  0
  6  8  1  0
  8  9  1  0
  9 10  1  1
  9 11  1  0
 11 12  1  6
 11 13  1  0
 13 14  2  0
 13 15  1  0
M  CHG  1   2   1
M  END
