
     RDKit          3D

 15 14  0  0  0  0  0  0  0  0999 V2000
    4.8490    2.5860   -0.5450 N   0  0  0  0  0  0  0  0  0  0  0  0
    4.0560    1.6050    0.0830 C   0  0  0  0  0  0  0  0  0  0  0  0
    3.1590    1.9990    0.8720 O   0  0  0  0  0  0  0  0  0  0  0  0
    4.2070    0.2050   -0.1190 N   0  0  0  0  0  0  0  0  0  0  0  0
    3.3710   -0.7540    0.5480 C   0  0  0  0  0  0  0  0  0  0  0  0
    1.9340   -0.5800    0.2260 C   0  0  0  0  0  0  0  0  0  0  0  0
    1.6380    0.3210   -0.5370 O   0  0  0  0  0  0  0  0  0  0  0  0
    0.8950   -1.4470    0.7920 C   0  0  0  0  0  0  0  0  0  0  0  0
   -0.4760   -1.0630    0.3100 C   0  0  0  0  0  0  0  0  0  0  0  0
   -0.5310   -0.1070   -0.4670 O   0  0  0  0  0  0  0  0  0  0  0  0
   -1.6320   -1.7350    0.7050 N   0  0  0  0  0  0  0  0  0  0  0  0
   -2.9880   -1.5270    0.3890 C   0  0  0  0  0  0  0  0  0  0  0  0
   -3.7060   -0.3130    0.8130 C   0  0  0  0  0  0  0  0  0  0  0  0
   -3.2050    0.9800    0.2760 C   0  0  0  0  0  0  0  0  0  0  0  0
   -3.2350    1.0790   -1.1700 N   0  0  0  0  0  0  0  0  0  0  0  0
  1  2  1  0
  2  3  2  0
  2  4  1  0
  4  5  1  0
  5  6  1  0
  6  7  2  0
  6  8  1  0
  8  9  1  0
  9 10  2  0
  9 11  1  0
 11 12  1  0
 12 13  1  0
 13 14  1  0
 14 15  1  0
M  CHG  1  15   1
M  END
