
     RDKit          3D

 28 30  0  0  0  0  0  0  0  0999 V2000
   -1.8060   -1.2340   -1.9580 C   0  0  0  0  0  0  0  0  0  0  0  0
   -1.6670   -0.4240   -0.6620 C   0  0  1  0  0  0  0  0  0  0  0  0
   -2.9710   -0.3030    0.0150 C   0  0  0  0  0  0  0  0  0  0  0  0
   -3.1140   -0.7840    1.1540 O   0  0  0  0  0  0  0  0  0  0  0  0
   -4.0420    0.3490   -0.6180 N   0  0  0  0  0  0  0  0  0  0  0  0
   -3.9100    0.9330   -1.9500 C   0  0  0  0  0  0  0  0  0  0  0  0
   -4.6520    2.2590   -2.0270 C   0  0  0  0  0  0  0  0  0  0  0  0
   -5.2280    2.6000   -0.8050 O   0  0  0  0  0  0  0  0  0  0  0  0
   -6.1120    1.5980   -0.4530 C   0  0  0  0  0  0  0  0  0  0  0  0
   -5.3220    0.4390    0.0860 C   0  0  0  0  0  0  0  0  0  0  0  0
   -0.6990   -1.0580    0.2160 N   0  0  0  0  0  0  0  0  0  0  0  0
   -0.7330   -2.3600    0.8270 C   0  0  0  0  0  0  0  0  0  0  0  0
   -0.0220   -2.1000    2.1550 C   0  0  0  0  0  0  0  0  0  0  0  0
    1.1310   -1.2600    1.7220 C   0  0  2  0  0  0  0  0  0  0  0  0
    1.7290   -0.4610    2.7180 N   0  0  0  0  0  0  0  0  0  0  0  0
    3.4200   -0.6770    2.9020 S   0  0  2  0  0  0  0  0  0  0  0  0
    3.7010   -2.1210    3.1860 O   0  0  0  0  0  0  0  0  0  0  0  0
    3.9900    0.2290    3.9550 O   0  0  0  0  0  0  0  0  0  0  0  0
    4.1750   -0.2330    1.3870 C   0  0  0  0  0  0  0  0  0  0  0  0
    5.3130    0.3980    1.2900 C   0  0  0  0  0  0  0  0  0  0  0  0
    5.9030    0.7480    0.0280 C   0  0  0  0  0  0  0  0  0  0  0  0
    5.6260    0.6170   -1.2550 C   0  0  0  0  0  0  0  0  0  0  0  0
    6.4360    1.0830   -2.2230 C   0  0  0  0  0  0  0  0  0  0  0  0
    7.5760    1.7070   -1.8340 C   0  0  0  0  0  0  0  0  0  0  0  0
    8.8730    2.4420   -2.8280 Cl  0  0  0  0  0  0  0  0  0  0  0  0
    7.5410    1.6550   -0.0360 S   0  0  0  0  0  0  0  0  0  0  0  0
    0.5090   -0.4320    0.6270 C   0  0  0  0  0  0  0  0  0  0  0  0
    1.0510    0.6210    0.2190 O   0  0  0  0  0  0  0  0  0  0  0  0
  2  1  1  6
  2  3  1  0
  2 11  1  0
  3  4  2  0
  3  5  1  0
  5  6  1  0
  5 10  1  0
  6  7  1  0
  7  8  1  0
  8  9  1  0
  9 10  1  0
 11 12  1  0
 11 27  1  0
 12 13  1  0
 13 14  1  0
 14 15  1  1
 14 27  1  0
 16 15  1  6
 16 17  2  0
 16 18  2  0
 16 19  1  0
 19 20  2  3
 20 21  1  0
 21 22  2  0
 21 26  1  0
 22 23  1  0
 23 24  2  0
 24 25  1  0
 24 26  1  0
 27 28  2  0
M  END
