
     RDKit          3D

 15 14  0  0  0  0  0  0  0  0999 V2000
   -2.0270    2.7670   -0.0130 C   0  0  0  0  0  0  0  0  0  0  0  0
   -1.8920    1.3690    0.2040 C   0  0  0  0  0  0  0  0  0  0  0  0
   -0.6080    1.0120   -0.1650 N   0  0  0  0  0  0  0  0  0  0  0  0
    0.1530   -0.1450   -0.2060 C   0  0  0  0  0  0  0  0  0  0  0  0
   -0.3410   -1.2070    0.1600 O   0  0  0  0  0  0  0  0  0  0  0  0
    1.5750   -0.1320   -0.6910 C   0  0  0  0  0  0  0  0  0  0  0  0
    2.1080    0.9300   -1.0710 O   0  0  0  0  0  0  0  0  0  0  0  0
    2.3150   -1.3330   -0.7170 N   0  0  0  0  0  0  0  0  0  0  0  0
    3.6870   -1.3830   -1.1740 C   0  0  0  0  0  0  0  0  0  0  0  0
    4.6050   -0.5170   -0.3650 C   0  0  0  0  0  0  0  0  0  0  0  0
    5.8930   -0.6690   -0.9240 O   0  0  0  0  0  0  0  0  0  0  0  0
   -3.0650    0.7620    0.7150 C   0  0  0  0  0  0  0  0  0  0  0  0
   -4.1620    1.8140    0.8890 N   0  0  0  0  0  0  0  0  0  0  0  0
   -3.5140   -0.3510    1.0770 C   0  0  0  0  0  0  0  0  0  0  0  0
   -2.9950   -1.6330    1.1430 N   0  0  0  0  0  0  0  0  0  0  0  0
  1  2  2  0
  2  3  1  0
  2 12  1  0
  3  4  1  0
  4  5  2  0
  4  6  1  0
  6  7  2  0
  6  8  1  0
  8  9  1  0
  9 10  1  0
 10 11  1  0
 12 13  1  0
 12 14  2  3
 14 15  1  0
M  CHG  1  15   1
M  END
