
     RDKit          3D

 15 14  0  0  0  0  0  0  0  0999 V2000
   -4.5520   -0.1690    0.5580 C   0  0  0  0  0  0  0  0  0  0  0  0
   -3.1280   -0.0580    0.3160 N   0  0  0  0  0  0  0  0  0  0  0  0
   -2.6610    0.7850   -0.5180 C   0  0  0  0  0  0  0  0  0  0  0  0
   -3.5180    1.6430   -1.2380 N   0  0  0  0  0  0  0  0  0  0  0  0
   -1.1820    0.9140   -0.7830 C   0  0  0  0  0  0  0  0  0  0  0  0
   -0.5560    0.0090    0.0030 O   0  0  0  0  0  0  0  0  0  0  0  0
    0.8080   -0.0760   -0.0440 C   0  0  2  0  0  0  0  0  0  0  0  0
    1.1350   -1.3650   -0.7780 C   0  0  0  0  0  0  0  0  0  0  0  0
    2.6030   -1.6080   -0.9150 C   0  0  0  0  0  0  0  0  0  0  0  0
    2.7500   -2.8690   -1.6340 N   0  0  0  0  0  0  0  0  0  0  0  0
    1.5410    0.0700    1.2320 C   0  0  0  0  0  0  0  0  0  0  0  0
    1.3570    1.3470    1.9420 C   0  0  0  0  0  0  0  0  0  0  0  0
    0.6310    2.2330    1.4640 O   0  0  0  0  0  0  0  0  0  0  0  0
    1.9960    1.6020    3.1830 N   0  0  0  0  0  0  0  0  0  0  0  0
    1.7910    2.7910    3.7890 O   0  0  0  0  0  0  0  0  0  0  0  0
  1  2  1  0
  2  3  2  3
  3  4  1  0
  3  5  1  0
  5  6  1  0
  6  7  1  0
  7  8  1  1
  7 11  1  0
  8  9  1  0
  9 10  1  0
 11 12  1  0
 12 13  2  0
 12 14  1  0
 14 15  1  0
M  CHG  1  10   1
M  END
