
     RDKit          3D

 15 14  0  0  0  0  0  0  0  0999 V2000
   -3.0550    1.3980    0.1990 C   0  0  0  0  0  0  0  0  0  0  0  0
   -2.8020   -0.0810    0.1050 C   0  0  1  0  0  0  0  0  0  0  0  0
   -3.2750   -0.6300   -1.2230 C   0  0  0  0  0  0  0  0  0  0  0  0
   -4.6980   -0.3880   -1.3230 N   0  0  0  0  0  0  0  0  0  0  0  0
   -1.5960   -0.5800    0.5210 N   0  0  0  0  0  0  0  0  0  0  0  0
   -0.2770    0.0580    0.1690 C   0  0  0  0  0  0  0  0  0  0  0  0
   -0.3780    1.0240   -0.5210 O   0  0  0  0  0  0  0  0  0  0  0  0
    0.7190   -0.6670    0.7630 N   0  0  0  0  0  0  0  0  0  0  0  0
    2.0490   -0.0760   -0.1940 C   0  0  0  0  0  0  0  0  0  0  0  0
    1.7240    0.7010   -1.0210 O   0  0  0  0  0  0  0  0  0  0  0  0
    3.3120   -0.6440    0.1870 C   0  0  1  0  0  0  0  0  0  0  0  0
    3.8020   -1.5710   -0.9180 N   0  0  0  0  0  0  0  0  0  0  0  0
    4.4180    0.4090    0.3270 C   0  0  0  0  0  0  0  0  0  0  0  0
    4.1320    1.4270    1.3400 C   0  0  0  0  0  0  0  0  0  0  0  0
    4.4840    2.6210    1.0370 O   0  0  0  0  0  0  0  0  0  0  0  0
  2  1  1  6
  2  3  1  0
  2  5  1  0
  3  4  1  0
  5  6  1  0
  6  7  2  0
  6  8  1  0
  8  9  1  0
  9 10  2  0
  9 11  1  0
 11 12  1  6
 11 13  1  0
 13 14  1  0
 14 15  2  0
M  CHG  1   4   1
M  END
