
     RDKit          3D

 15 14  0  0  0  0  0  0  0  0999 V2000
   -2.6430   -0.6030   -1.3180 C   0  0  0  0  0  0  0  0  0  0  0  0
   -1.3700    0.0740   -0.8750 C   0  0  0  0  0  0  0  0  0  0  0  0
   -1.3360    0.2070    0.5960 C   0  0  1  0  0  0  0  0  0  0  0  0
   -1.4840   -1.1980    1.1820 C   0  0  0  0  0  0  0  0  0  0  0  0
   -0.0240    0.7320    1.0450 N   0  0  0  0  0  0  0  0  0  0  0  0
    1.1940    0.0890    0.7950 C   0  0  0  0  0  0  0  0  0  0  0  0
    1.2120   -0.9910    0.1620 O   0  0  0  0  0  0  0  0  0  0  0  0
    2.4650    0.5860    1.2190 N   0  0  0  0  0  0  0  0  0  0  0  0
    3.6890   -0.1520    0.9140 C   0  0  0  0  0  0  0  0  0  0  0  0
    3.8490   -0.3000   -0.5400 C   0  0  0  0  0  0  0  0  0  0  0  0
    4.9790   -1.0000   -1.0380 N   0  0  0  0  0  0  0  0  0  0  0  0
    3.0220    0.1710   -1.3590 O   0  0  0  0  0  0  0  0  0  0  0  0
   -2.3260    1.1150    1.1230 C   0  0  0  0  0  0  0  0  0  0  0  0
   -3.5470    1.4300    0.5130 N   0  0  0  0  0  0  0  0  0  0  0  0
   -2.0960    1.6810    2.2090 O   0  0  0  0  0  0  0  0  0  0  0  0
  1  2  1  0
  2  3  1  0
  3  4  1  1
  3  5  1  0
  3 13  1  0
  5  6  1  0
  6  7  2  0
  6  8  1  0
  8  9  1  0
  9 10  1  0
 10 11  1  0
 10 12  2  0
 13 14  1  0
 13 15  2  0
M  CHG  1  14   1
M  END
