
     RDKit          3D

 14 14  0  0  0  0  0  0  0  0999 V2000
    1.2030   -2.1940   -0.9170 N   0  0  0  0  0  0  0  0  0  0  0  0
    1.7680   -1.2750   -0.0090 C   0  0  0  0  0  0  0  0  0  0  0  0
    1.0590    0.1130    0.0070 C   0  0  1  0  0  0  0  0  0  0  0  0
    1.8420    0.8580    1.0230 C   0  0  0  0  0  0  0  0  0  0  0  0
    1.8140    0.3660    2.3080 O   0  0  0  0  0  0  0  0  0  0  0  0
    1.4260    0.7790   -1.3300 C   0  0  0  0  0  0  0  0  0  0  0  0
    0.8120    2.0370   -1.3560 O   0  0  0  0  0  0  0  0  0  0  0  0
   -0.3290   -0.0210    0.1100 N   0  0  0  0  0  0  0  0  0  0  0  0
   -0.9850   -0.8480   -0.9120 C   0  0  0  0  0  0  0  0  0  0  0  0
   -2.3730   -0.3630   -1.2560 C   0  0  0  0  0  0  0  0  0  0  0  0
   -3.2070   -0.1040   -0.0300 C   0  0  0  0  0  0  0  0  0  0  0  0
   -2.4750    0.5220    1.0180 N   0  0  0  0  0  0  0  0  0  0  0  0
   -1.1740    0.5490    1.0630 C   0  0  0  0  0  0  0  0  0  0  0  0
   -0.6510    1.2240    2.1860 N   0  0  0  0  0  0  0  0  0  0  0  0
  1  2  1  0
  3  2  1  6
  3  4  1  0
  3  6  1  0
  3  8  1  0
  4  5  1  0
  6  7  1  0
  8  9  1  0
  8 13  1  0
  9 10  1  0
 10 11  1  0
 11 12  1  0
 12 13  2  0
 13 14  1  0
M  CHG  1  12   1
M  END
