
     RDKit          3D

 29 31  0  0  0  0  0  0  0  0999 V2000
    3.4600    0.5390   -2.7830 C   0  0  0  0  0  0  0  0  0  0  0  0
    3.6680    0.1190   -1.3940 C   0  0  0  0  0  0  0  0  0  0  0  0
    3.5040   -1.1710   -1.1010 C   0  0  0  0  0  0  0  0  0  0  0  0
    3.0650   -2.3880   -2.2350 S   0  0  1  0  0  0  0  0  0  0  0  0
    2.9080   -1.9050   -3.6360 O   0  0  0  0  0  0  0  0  0  0  0  0
    4.1460   -3.4530   -2.2690 O   0  0  0  0  0  0  0  0  0  0  0  0
    1.6110   -3.2270   -1.7570 N   0  0  0  0  0  0  0  0  0  0  0  0
    0.5620   -2.2620   -1.7110 C   0  0  1  0  0  0  0  0  0  0  0  0
   -0.6300   -2.6510   -2.6000 C   0  0  0  0  0  0  0  0  0  0  0  0
   -1.6350   -1.6110   -2.1590 C   0  0  0  0  0  0  0  0  0  0  0  0
   -1.3980   -1.5360   -0.7320 N   0  0  0  0  0  0  0  0  0  0  0  0
   -2.3290   -0.9370    0.1930 C   0  0  1  0  0  0  0  0  0  0  0  0
   -2.7710   -2.0730    1.1280 C   0  0  0  0  0  0  0  0  0  0  0  0
   -1.7500    0.1750    0.9520 C   0  0  0  0  0  0  0  0  0  0  0  0
   -0.5550    0.5010    0.7810 O   0  0  0  0  0  0  0  0  0  0  0  0
   -2.5380    0.8840    1.8800 N   0  0  0  0  0  0  0  0  0  0  0  0
   -1.9400    1.9740    2.6200 C   0  0  0  0  0  0  0  0  0  0  0  0
   -2.8140    3.2010    2.3940 C   0  0  0  0  0  0  0  0  0  0  0  0
   -3.8620    2.9250    1.5110 O   0  0  0  0  0  0  0  0  0  0  0  0
   -4.6910    1.9080    1.9820 C   0  0  0  0  0  0  0  0  0  0  0  0
   -3.9320    0.5960    2.1520 C   0  0  0  0  0  0  0  0  0  0  0  0
   -0.1230   -2.1380   -0.4180 C   0  0  0  0  0  0  0  0  0  0  0  0
    0.2240   -2.4490    0.7400 O   0  0  0  0  0  0  0  0  0  0  0  0
    4.0400    1.0730   -0.3770 C   0  0  0  0  0  0  0  0  0  0  0  0
    4.2490    2.4950   -0.5340 C   0  0  0  0  0  0  0  0  0  0  0  0
    4.5870    3.1670    0.5400 C   0  0  0  0  0  0  0  0  0  0  0  0
    4.7450    2.5760    1.7790 C   0  0  0  0  0  0  0  0  0  0  0  0
    5.1640    3.1180    3.3480 Cl  0  0  0  0  0  0  0  0  0  0  0  0
    4.3460    0.8330    1.2870 S   0  0  0  0  0  0  0  0  0  0  0  0
  1  2  1  0
  2  3  2  3
  2 24  1  0
  3  4  1  0
  4  5  2  0
  4  6  2  0
  4  7  1  1
  8  7  1  1
  8  9  1  0
  8 22  1  0
  9 10  1  0
 10 11  1  0
 11 12  1  0
 11 22  1  0
 12 13  1  1
 12 14  1  0
 14 15  2  0
 14 16  1  0
 16 17  1  0
 16 21  1  0
 17 18  1  0
 18 19  1  0
 19 20  1  0
 20 21  1  0
 22 23  2  0
 24 25  2  0
 24 29  1  0
 25 26  1  0
 26 27  2  0
 27 28  1  0
 27 29  1  0
M  END
