
     RDKit          3D

 31 34  0  0  0  0  0  0  0  0999 V2000
    9.1390    0.8220    0.7720 C   0  0  0  0  0  0  0  0  0  0  0  0
    7.6930    1.0150    0.6890 C   0  0  0  0  0  0  0  0  0  0  0  0
    6.8790   -0.2980    0.6490 N   0  0  2  0  0  0  0  0  0  0  0  0
    7.8330   -1.3280    0.4420 C   0  0  0  0  0  0  0  0  0  0  0  0
    5.9740    0.0000   -0.3750 C   0  0  0  0  0  0  0  0  0  0  0  0
    4.5090   -0.0130   -0.2430 C   0  0  0  0  0  0  0  0  0  0  0  0
    3.5540   -0.9510   -0.1090 N   0  0  0  0  0  0  0  0  0  0  0  0
    2.3370   -0.4950   -0.4000 C   0  0  0  0  0  0  0  0  0  0  0  0
    1.0040   -1.0740   -0.4220 C   0  0  0  0  0  0  0  0  0  0  0  0
    0.8750   -2.3790   -0.9330 C   0  0  0  0  0  0  0  0  0  0  0  0
   -0.3500   -3.0320   -1.0650 C   0  0  0  0  0  0  0  0  0  0  0  0
   -0.5020   -4.6400   -1.8210 Cl  0  0  0  0  0  0  0  0  0  0  0  0
   -1.4650   -2.3440   -0.6580 C   0  0  0  0  0  0  0  0  0  0  0  0
   -1.3900   -1.0890   -0.1530 C   0  0  0  0  0  0  0  0  0  0  0  0
   -2.6080   -0.3220    0.3180 C   0  0  0  0  0  0  0  0  0  0  0  0
   -3.8600   -0.8500   -0.1480 N   0  0  2  0  0  0  0  0  0  0  0  0
   -4.2720   -0.3050   -1.3960 C   0  0  0  0  0  0  0  0  0  0  0  0
   -5.5430    0.4860   -1.4740 C   0  0  0  0  0  0  0  0  0  0  0  0
   -6.7350   -0.2880   -0.9600 C   0  0  0  0  0  0  0  0  0  0  0  0
   -6.9170    0.0510    0.3890 N   0  0  0  0  0  0  0  0  0  0  0  0
   -5.8270   -0.1220    1.2910 C   0  0  2  0  0  0  0  0  0  0  0  0
   -5.2670    1.1880    1.7130 C   0  0  0  0  0  0  0  0  0  0  0  0
   -6.3520    2.1660    1.8680 C   0  0  0  0  0  0  0  0  0  0  0  0
   -7.5770    1.6000    0.6810 S   0  0  2  0  0  0  0  0  0  0  0  0
   -8.9250    1.4350    1.3730 O   0  0  0  0  0  0  0  0  0  0  0  0
   -7.6590    2.4690   -0.5020 O   0  0  0  0  0  0  0  0  0  0  0  0
   -4.8710   -1.1240    0.8330 C   0  0  0  0  0  0  0  0  0  0  0  0
   -0.1650   -0.4230   -0.0210 C   0  0  0  0  0  0  0  0  0  0  0  0
    2.5610    0.7920   -0.7170 O   0  0  0  0  0  0  0  0  0  0  0  0
    3.7610    1.1210   -0.6510 C   0  0  0  0  0  0  0  0  0  0  0  0
    4.4900    2.4210   -0.9210 C   0  0  0  0  0  0  0  0  0  0  0  0
  1  2  1  0
  2  3  1  0
  3  4  1  6
  3  5  1  0
  5  6  1  0
  6  7  1  0
  6 30  2  0
  7  8  2  0
  8  9  1  0
  8 29  1  0
  9 10  2  0
  9 28  1  0
 10 11  1  0
 11 12  1  0
 11 13  2  0
 13 14  1  0
 14 15  1  0
 14 28  2  0
 16 15  1  1
 16 17  1  0
 16 27  1  0
 17 18  1  0
 18 19  1  0
 19 20  1  0
 20 21  1  0
 20 24  1  0
 21 22  1  6
 21 27  1  0
 22 23  1  0
 24 23  1  1
 24 25  2  0
 24 26  2  0
 29 30  1  0
 30 31  1  0
M  CHG  2   3   1  16   1
M  END
