
     RDKit          3D

 29 30  0  0  0  0  0  0  0  0999 V2000
    5.4420   -1.4290    1.0660 C   0  0  0  0  0  0  0  0  0  0  0  0
    4.3440   -0.6560    0.3730 C   0  0  0  0  0  0  0  0  0  0  0  0
    3.0240   -1.0310    0.4260 C   0  0  0  0  0  0  0  0  0  0  0  0
    2.0430   -0.3190   -0.2530 C   0  0  0  0  0  0  0  0  0  0  0  0
    0.7150   -0.7850   -0.2530 N   0  0  0  0  0  0  0  0  0  0  0  0
   -0.0950   -0.4830    0.8820 C   0  0  0  0  0  0  0  0  0  0  0  0
   -1.4720   -0.1060    0.3000 C   0  0  2  0  0  0  0  0  0  0  0  0
   -2.4710    0.1840    1.3450 C   0  0  0  0  0  0  0  0  0  0  0  0
   -3.7870    0.3660    0.8060 N   0  0  0  0  0  0  0  0  0  0  0  0
   -4.1080    1.7330    0.5350 C   0  0  0  0  0  0  0  0  0  0  0  0
   -5.4870    1.9560   -0.0060 C   0  0  2  0  0  0  0  0  0  0  0  0
   -5.5850    3.3900   -0.2580 O   0  0  0  0  0  0  0  0  0  0  0  0
   -6.6030    1.6470    0.9560 C   0  0  0  0  0  0  0  0  0  0  0  0
   -6.7040    0.2890    1.3630 N   0  0  0  0  0  0  0  0  0  0  0  0
   -4.1380   -0.5700   -0.2100 C   0  0  2  0  0  0  0  0  0  0  0  0
   -4.2210   -1.9440    0.4390 C   0  0  0  0  0  0  0  0  0  0  0  0
   -4.6010   -2.9990   -0.6010 C   0  0  0  0  0  0  0  0  0  0  0  0
   -4.6720   -4.2280    0.0990 O   0  0  0  0  0  0  0  0  0  0  0  0
   -2.9870   -0.6800   -1.2330 C   0  0  0  0  0  0  0  0  0  0  0  0
   -1.9210   -1.1950   -0.4730 O   0  0  0  0  0  0  0  0  0  0  0  0
    2.4030    0.7880   -0.9910 C   0  0  0  0  0  0  0  0  0  0  0  0
    1.4040    1.6330   -1.7080 C   0  0  0  0  0  0  0  0  0  0  0  0
    3.7550    1.1560   -1.0350 C   0  0  0  0  0  0  0  0  0  0  0  0
    4.7060    0.4480   -0.3670 C   0  0  0  0  0  0  0  0  0  0  0  0
    6.1620    0.8830   -0.4370 C   0  0  0  0  0  0  0  0  0  0  0  0
    6.9270   -0.1520   -0.8990 O   0  0  0  0  0  0  0  0  0  0  0  0
    8.2330    0.1590   -1.0850 C   0  0  0  0  0  0  0  0  0  0  0  0
    8.8820    0.7250    0.1350 C   0  0  0  0  0  0  0  0  0  0  0  0
    8.7940   -0.1900    1.1730 O   0  0  0  0  0  0  0  0  0  0  0  0
  1  2  1  0
  2  3  2  0
  2 24  1  0
  3  4  1  0
  4  5  1  0
  4 21  2  0
  5  6  1  0
  7  6  1  1
  7  8  1  0
  7 20  1  0
  8  9  1  0
  9 10  1  0
  9 15  1  0
 10 11  1  0
 11 12  1  1
 11 13  1  0
 13 14  1  0
 15 16  1  1
 15 19  1  0
 16 17  1  0
 17 18  1  0
 19 20  1  0
 21 22  1  0
 21 23  1  0
 23 24  2  0
 24 25  1  0
 25 26  1  0
 26 27  1  0
 27 28  1  0
 28 29  1  0
M  CHG  2   5   1  14   1
M  END
