
     RDKit          3D

 29 30  0  0  0  0  0  0  0  0999 V2000
   -2.5620    5.0220   -0.1930 C   0  0  0  0  0  0  0  0  0  0  0  0
   -3.6190    3.9570   -0.2350 C   0  0  0  0  0  0  0  0  0  0  0  0
   -3.2780    2.8340   -1.1920 C   0  0  0  0  0  0  0  0  0  0  0  0
   -2.0220    2.1810   -0.7870 N   0  0  0  0  0  0  0  0  0  0  0  0
   -2.3510    0.8500   -0.2300 C   0  0  0  0  0  0  0  0  0  0  0  0
   -1.4200    0.4620    0.8580 C   0  0  2  0  0  0  0  0  0  0  0  0
   -1.6430    1.5790    1.8280 O   0  0  0  0  0  0  0  0  0  0  0  0
    0.0320    0.6610    0.6290 C   0  0  0  0  0  0  0  0  0  0  0  0
    0.7520   -0.0100   -0.4540 C   0  0  0  0  0  0  0  0  0  0  0  0
    2.1830    0.4910   -0.4450 C   0  0  0  0  0  0  0  0  0  0  0  0
    2.3990    1.7410   -0.6320 O   0  0  0  0  0  0  0  0  0  0  0  0
    3.2780   -0.2960   -0.2420 O   0  0  0  0  0  0  0  0  0  0  0  0
    4.6180    0.1720   -0.2320 C   0  0  1  0  0  0  0  0  0  0  0  0
    5.1850    0.0540    1.1600 C   0  0  0  0  0  0  0  0  0  0  0  0
    5.4460   -0.5060   -1.2360 C   0  0  0  0  0  0  0  0  0  0  0  0
    6.3490    0.1100   -2.0730 C   0  0  0  0  0  0  0  0  0  0  0  0
    6.8980   -0.8680   -2.8530 C   0  0  0  0  0  0  0  0  0  0  0  0
    6.2960   -2.0570   -2.4520 C   0  0  0  0  0  0  0  0  0  0  0  0
    5.4540   -1.7910   -1.4980 O   0  0  0  0  0  0  0  0  0  0  0  0
   -1.8590   -0.6980    1.6690 C   0  0  1  0  0  0  0  0  0  0  0  0
   -1.0280   -0.9540    2.9060 C   0  0  0  0  0  0  0  0  0  0  0  0
   -3.1820   -0.3670    2.2040 O   0  0  0  0  0  0  0  0  0  0  0  0
   -2.1110   -1.9940    1.0060 C   0  0  0  0  0  0  0  0  0  0  0  0
   -2.8140   -2.9330    1.7910 C   0  0  0  0  0  0  0  0  0  0  0  0
   -3.1610   -4.1660    1.3150 C   0  0  0  0  0  0  0  0  0  0  0  0
   -2.8170   -4.4890    0.0590 N   0  0  0  0  0  0  0  0  0  0  0  0
   -2.1580   -3.6430   -0.7160 C   0  0  0  0  0  0  0  0  0  0  0  0
   -1.8060   -4.0230   -2.0750 N   0  0  0  0  0  0  0  0  0  0  0  0
   -1.8000   -2.3890   -0.2430 C   0  0  0  0  0  0  0  0  0  0  0  0
  1  2  1  0
  2  3  1  0
  3  4  1  0
  4  5  1  0
  5  6  1  0
  6  7  1  1
  6  8  1  0
  6 20  1  0
  8  9  1  0
  9 10  1  0
 10 11  2  0
 10 12  1  0
 12 13  1  0
 13 14  1  1
 13 15  1  0
 15 16  2  0
 15 19  1  0
 16 17  1  0
 17 18  2  0
 18 19  1  0
 20 21  1  1
 20 22  1  0
 20 23  1  0
 23 24  2  0
 23 29  1  0
 24 25  1  0
 25 26  2  0
 26 27  1  0
 27 28  1  0
 27 29  2  0
M  CHG  2   4   1  26   1
M  END
