
     RDKit          3D

 31 34  0  0  0  0  0  0  0  0999 V2000
    4.0460   -0.2340   -4.2140 C   0  0  0  0  0  0  0  0  0  0  0  0
    2.9880   -0.0820   -3.1630 C   0  0  0  0  0  0  0  0  0  0  0  0
    3.2550   -0.4550   -1.9330 C   0  0  0  0  0  0  0  0  0  0  0  0
    4.8580   -1.1200   -1.5680 S   0  0  0  0  0  0  0  0  0  0  0  0
    5.1590   -0.6690    0.1550 C   0  0  0  0  0  0  0  0  0  0  0  0
    6.3330   -0.3950    0.5570 N   0  0  0  0  0  0  0  0  0  0  0  0
    6.5850   -0.0560    1.9380 C   0  0  0  0  0  0  0  0  0  0  0  0
    5.5920   -0.0540    2.7910 C   0  0  0  0  0  0  0  0  0  0  0  0
    4.2340   -0.3900    2.4220 C   0  0  2  0  0  0  0  0  0  0  0  0
    3.8620   -1.9980    3.1360 Cl  0  0  0  0  0  0  0  0  0  0  0  0
    4.0440   -0.4940    0.9880 N   0  0  0  0  0  0  0  0  0  0  0  0
    2.7010   -0.3330    0.4960 C   0  0  0  0  0  0  0  0  0  0  0  0
    1.8500   -0.2000    1.4190 O   0  0  0  0  0  0  0  0  0  0  0  0
    2.2280   -0.3050   -0.8610 C   0  0  0  0  0  0  0  0  0  0  0  0
    0.9720   -0.1780   -1.2130 C   0  0  0  0  0  0  0  0  0  0  0  0
   -0.2490   -0.0140   -0.3840 C   0  0  2  0  0  0  0  0  0  0  0  0
   -1.0880   -1.1920   -0.7820 C   0  0  0  0  0  0  0  0  0  0  0  0
   -2.3360   -1.4020   -0.1770 N   0  0  2  0  0  0  0  0  0  0  0  0
   -2.1690   -1.8490    1.2000 C   0  0  0  0  0  0  0  0  0  0  0  0
   -3.4890   -2.0440    1.8900 C   0  0  0  0  0  0  0  0  0  0  0  0
   -4.6120   -2.3870    0.9610 C   0  0  0  0  0  0  0  0  0  0  0  0
   -4.2110   -2.9720   -0.3330 C   0  0  0  0  0  0  0  0  0  0  0  0
   -2.8590   -2.6390   -0.8340 C   0  0  0  0  0  0  0  0  0  0  0  0
   -0.8400    1.2840   -0.7400 N   0  0  0  0  0  0  0  0  0  0  0  0
    0.1000    2.3550   -0.4460 C   0  0  0  0  0  0  0  0  0  0  0  0
   -0.4770    3.6300   -1.0130 C   0  0  0  0  0  0  0  0  0  0  0  0
   -1.7370    3.9020   -0.5520 O   0  0  0  0  0  0  0  0  0  0  0  0
   -2.0050    3.0670    0.5120 C   0  0  1  0  0  0  0  0  0  0  0  0
   -3.4350    3.3930    0.9800 C   0  0  0  0  0  0  0  0  0  0  0  0
   -3.7800    2.5880    2.0600 O   0  0  0  0  0  0  0  0  0  0  0  0
   -2.0080    1.5950    0.0450 C   0  0  0  0  0  0  0  0  0  0  0  0
  1  2  1  0
  2  3  2  3
  3  4  1  0
  3 14  1  0
  4  5  1  0
  5  6  2  0
  5 11  1  0
  6  7  1  0
  7  8  2  0
  8  9  1  0
  9 10  1  1
  9 11  1  0
 11 12  1  0
 12 13  2  0
 12 14  1  0
 14 15  2  3
 15 16  1  0
 16 17  1  6
 16 24  1  0
 18 17  1  6
 18 19  1  0
 18 23  1  0
 19 20  1  0
 20 21  1  0
 21 22  1  0
 22 23  1  0
 24 25  1  0
 24 31  1  0
 25 26  1  0
 26 27  1  0
 27 28  1  0
 28 29  1  6
 28 31  1  0
 29 30  1  0
M  CHG  1  18   1
M  END
