
     RDKit          3D

 15 16  0  0  0  0  0  0  0  0999 V2000
   -1.7020    0.5220    1.5410 O   0  0  0  0  0  0  0  0  0  0  0  0
   -1.7490    0.1080    0.3770 C   0  0  0  0  0  0  0  0  0  0  0  0
   -0.5300   -0.1530   -0.3170 N   0  0  0  0  0  0  0  0  0  0  0  0
    0.7630    0.0430    0.2740 C   0  0  0  0  0  0  0  0  0  0  0  0
    1.8530   -0.3200   -0.7090 C   0  0  0  0  0  0  0  0  0  0  0  0
    3.2070   -0.1130   -0.0830 C   0  0  0  0  0  0  0  0  0  0  0  0
    4.1410    0.7020   -0.5270 C   0  0  0  0  0  0  0  0  0  0  0  0
    5.3060    0.6190    0.3510 C   0  0  0  0  0  0  0  0  0  0  0  0
    4.9170   -0.3660    1.3780 C   0  0  0  0  0  0  0  0  0  0  0  0
    3.6970   -0.7810    1.1130 C   0  0  0  0  0  0  0  0  0  0  0  0
   -3.0200   -0.1210   -0.3080 C   0  0  2  0  0  0  0  0  0  0  0  0
   -2.8630   -0.5850   -1.6040 O   0  0  0  0  0  0  0  0  0  0  0  0
   -4.0310    0.9980   -0.2030 C   0  0  0  0  0  0  0  0  0  0  0  0
   -5.0710   -0.0150    0.1760 C   0  0  0  0  0  0  0  0  0  0  0  0
   -3.9480   -0.9590    0.5520 C   0  0  0  0  0  0  0  0  0  0  0  0
  1  2  2  0
  2  3  1  0
  2 11  1  0
  3  4  1  0
  4  5  1  0
  5  6  1  0
  6  7  2  0
  6 10  1  0
  7  8  1  0
  8  9  1  0
  9 10  2  0
 11 12  1  6
 11 13  1  0
 11 15  1  0
 13 14  1  0
 14 15  1  0
M  END
