
     RDKit          3D

 15 16  0  0  0  0  0  0  0  0999 V2000
   -0.4290   -2.6060   -1.2570 O   0  0  0  0  0  0  0  0  0  0  0  0
    0.0930   -1.6620   -0.3730 C   0  0  2  0  0  0  0  0  0  0  0  0
    1.1550   -2.3590    0.4790 C   0  0  0  0  0  0  0  0  0  0  0  0
    1.7410   -1.4880    1.4020 O   0  0  0  0  0  0  0  0  0  0  0  0
    2.4310   -0.3300    1.0220 C   0  0  0  0  0  0  0  0  0  0  0  0
    3.5910   -0.2430    0.3940 C   0  0  0  0  0  0  0  0  0  0  0  0
    3.9570    1.1730    0.1880 C   0  0  0  0  0  0  0  0  0  0  0  0
    2.8230    1.9210    0.7980 C   0  0  0  0  0  0  0  0  0  0  0  0
    1.9830    1.0340    1.2570 C   0  0  0  0  0  0  0  0  0  0  0  0
   -1.0110   -1.1060    0.5160 C   0  0  0  0  0  0  0  0  0  0  0  0
   -1.9920   -0.4880   -0.3590 N   0  0  0  0  0  0  0  0  0  0  0  0
   -3.0910    0.0710    0.4020 C   0  0  0  0  0  0  0  0  0  0  0  0
   -3.6220    1.2240   -0.3970 C   0  0  0  0  0  0  0  0  0  0  0  0
   -2.4280    1.7090   -1.1530 C   0  0  0  0  0  0  0  0  0  0  0  0
   -1.4310    0.5910   -1.1290 C   0  0  0  0  0  0  0  0  0  0  0  0
  2  1  1  6
  2  3  1  0
  2 10  1  0
  3  4  1  0
  4  5  1  0
  5  6  2  0
  5  9  1  0
  6  7  1  0
  7  8  1  0
  8  9  2  0
 10 11  1  0
 11 12  1  0
 11 15  1  0
 12 13  1  0
 13 14  1  0
 14 15  1  0
M  END
