
     RDKit          3D

 15 15  0  0  0  0  0  0  0  0999 V2000
   -3.7200   -0.9350   -0.4800 C   0  0  0  0  0  0  0  0  0  0  0  0
   -2.3580   -0.8580   -0.4910 C   0  0  0  0  0  0  0  0  0  0  0  0
   -1.7290   -2.0440   -0.9140 N   0  0  0  0  0  0  0  0  0  0  0  0
   -1.8010    0.3630   -0.0830 C   0  0  0  0  0  0  0  0  0  0  0  0
   -2.8890    1.3210    0.2820 O   0  0  0  0  0  0  0  0  0  0  0  0
   -3.1510    1.4060    1.6730 C   0  0  0  0  0  0  0  0  0  0  0  0
   -0.6460    0.8700    0.0590 C   0  0  0  0  0  0  0  0  0  0  0  0
   -0.7780    2.2840    0.5560 O   0  0  0  0  0  0  0  0  0  0  0  0
    0.7260    0.4950   -0.1130 C   0  0  0  0  0  0  0  0  0  0  0  0
    1.5900    1.4770    0.2110 C   0  0  0  0  0  0  0  0  0  0  0  0
    3.0510    1.4070    0.1450 C   0  0  0  0  0  0  0  0  0  0  0  0
    3.8750    0.3850    0.1300 C   0  0  0  0  0  0  0  0  0  0  0  0
    3.3810   -1.0420    0.1830 C   0  0  0  0  0  0  0  0  0  0  0  0
    2.3740   -1.2730   -0.8960 C   0  0  0  0  0  0  0  0  0  0  0  0
    0.9740   -0.8480   -0.6070 C   0  0  0  0  0  0  0  0  0  0  0  0
  1  2  2  0
  2  3  1  0
  2  4  1  0
  4  5  1  0
  4  7  2  3
  5  6  1  0
  7  8  1  0
  7  9  1  0
  9 10  2  0
  9 15  1  0
 10 11  1  0
 11 12  2  0
 12 13  1  0
 13 14  1  0
 14 15  1  0
M  END
