
     RDKit          3D

 15 15  0  0  0  0  0  0  0  0999 V2000
    3.6820    0.5930   -0.3190 C   0  0  0  0  0  0  0  0  0  0  0  0
    2.8060   -0.5070   -0.9070 C   0  0  0  0  0  0  0  0  0  0  0  0
    1.5400   -0.1030   -1.2850 O   0  0  0  0  0  0  0  0  0  0  0  0
    0.5370    0.4430   -0.5230 C   0  0  0  0  0  0  0  0  0  0  0  0
    0.7050    1.7260   -0.2100 C   0  0  0  0  0  0  0  0  0  0  0  0
   -0.0620    2.7190    0.5580 C   0  0  0  0  0  0  0  0  0  0  0  0
   -1.3470    2.8040    0.8540 C   0  0  0  0  0  0  0  0  0  0  0  0
   -2.4900    1.9250    0.5180 C   0  0  0  0  0  0  0  0  0  0  0  0
   -2.6760    0.6580    0.2140 C   0  0  0  0  0  0  0  0  0  0  0  0
   -1.7630   -0.5560    0.0580 C   0  0  0  0  0  0  0  0  0  0  0  0
   -2.4190   -1.6420    0.5850 N   0  0  0  0  0  0  0  0  0  0  0  0
   -2.1770   -2.9260    1.0280 C   0  0  0  0  0  0  0  0  0  0  0  0
   -1.1100   -3.4710    1.0920 O   0  0  0  0  0  0  0  0  0  0  0  0
   -0.5030   -0.5850   -0.2420 C   0  0  0  0  0  0  0  0  0  0  0  0
    0.0150   -1.9390   -0.6470 C   0  0  0  0  0  0  0  0  0  0  0  0
  1  2  1  0
  2  3  1  0
  3  4  1  0
  4  5  2  0
  4 14  1  0
  5  6  1  0
  6  7  2  0
  7  8  1  0
  8  9  2  0
  9 10  1  0
 10 11  1  0
 10 14  2  0
 11 12  1  0
 12 13  2  0
 14 15  1  0
M  END
