
     RDKit          3D

 15 15  0  0  0  0  0  0  0  0999 V2000
    4.9960   -0.1200   -0.4350 C   0  0  0  0  0  0  0  0  0  0  0  0
    3.6700   -0.7550   -0.4490 C   0  0  0  0  0  0  0  0  0  0  0  0
    2.5810   -0.0160   -0.2010 C   0  0  0  0  0  0  0  0  0  0  0  0
    1.3030   -0.6580   -0.2200 C   0  0  0  0  0  0  0  0  0  0  0  0
    0.1530   -0.1000    0.0040 C   0  0  0  0  0  0  0  0  0  0  0  0
   -1.0650   -0.9530   -0.0720 C   0  0  0  0  0  0  0  0  0  0  0  0
   -2.3310   -0.6240   -0.3210 C   0  0  0  0  0  0  0  0  0  0  0  0
   -3.1800   -1.7030   -0.3070 O   0  0  0  0  0  0  0  0  0  0  0  0
   -4.1230   -1.9900    0.6750 C   0  0  0  0  0  0  0  0  0  0  0  0
   -2.8430    0.6960   -0.5880 C   0  0  0  0  0  0  0  0  0  0  0  0
   -2.3150    1.9290   -0.5140 C   0  0  0  0  0  0  0  0  0  0  0  0
   -0.9570    2.2800   -0.1050 C   0  0  0  0  0  0  0  0  0  0  0  0
   -0.5870    3.4760   -0.1120 O   0  0  0  0  0  0  0  0  0  0  0  0
    0.0810    1.3120    0.3400 C   0  0  0  0  0  0  0  0  0  0  0  0
    0.9960    1.7440    1.1060 N   0  0  0  0  0  0  0  0  0  0  0  0
  1  2  1  0
  2  3  2  3
  3  4  1  0
  4  5  2  3
  5  6  1  0
  5 14  1  0
  6  7  2  0
  7  8  1  0
  7 10  1  0
  8  9  1  0
 10 11  2  0
 11 12  1  0
 12 13  2  0
 12 14  1  0
 14 15  2  0
M  END
