
     RDKit          3D

 12 12  0  0  0  0  0  0  0  0999 V2000
   -0.5960   -1.3700    0.8260 N   0  0  0  0  0  0  0  0  0  0  0  0
   -0.8230   -0.0900    0.2610 C   0  0  1  0  0  0  0  0  0  0  0  0
    0.2650    0.8960    0.2550 C   0  0  2  0  0  0  0  0  0  0  0  0
   -0.2990    2.0770   -0.3360 O   0  0  0  0  0  0  0  0  0  0  0  0
    1.5390    0.5890   -0.4240 C   0  0  0  0  0  0  0  0  0  0  0  0
    2.2990   -0.6040    0.0830 C   0  0  0  0  0  0  0  0  0  0  0  0
    3.6140   -0.7400   -0.7240 C   0  0  0  0  0  0  0  0  0  0  0  0
    4.3650    0.3980   -0.5580 O   0  0  0  0  0  0  0  0  0  0  0  0
   -1.3680   -0.2490   -1.1630 C   0  0  0  0  0  0  0  0  0  0  0  0
   -2.7740    0.2830   -1.1480 C   0  0  0  0  0  0  0  0  0  0  0  0
   -3.2010    0.0220    0.2810 C   0  0  0  0  0  0  0  0  0  0  0  0
   -1.9980    0.5500    1.0310 C   0  0  0  0  0  0  0  0  0  0  0  0
  2  1  1  1
  2  3  1  0
  2  9  1  0
  2 12  1  0
  3  4  1  6
  3  5  1  0
  5  6  1  0
  6  7  1  0
  7  8  1  0
  9 10  1  0
 10 11  1  0
 11 12  1  0
M  CHG  1   1   1
M  END
