
     RDKit          3D

 12 12  0  0  0  0  0  0  0  0999 V2000
    4.8130   -0.3060   -0.4650 C   0  0  0  0  0  0  0  0  0  0  0  0
    3.4100    0.0010    0.0180 C   0  0  0  0  0  0  0  0  0  0  0  0
    2.5830    0.2620   -1.1190 O   0  0  0  0  0  0  0  0  0  0  0  0
    1.2640    0.5620   -0.8680 C   0  0  0  0  0  0  0  0  0  0  0  0
    0.4650   -0.3290   -0.3280 C   0  0  0  0  0  0  0  0  0  0  0  0
   -0.9540   -0.0290   -0.0500 C   0  0  0  0  0  0  0  0  0  0  0  0
   -1.8470   -0.8320    0.4840 C   0  0  0  0  0  0  0  0  0  0  0  0
   -3.1110   -0.0960    0.5620 C   0  0  1  0  0  0  0  0  0  0  0  0
   -4.0950   -0.7410   -0.2820 N   0  0  0  0  0  0  0  0  0  0  0  0
   -3.5600    0.0570    1.8680 O   0  0  0  0  0  0  0  0  0  0  0  0
   -2.8290    1.2210    0.0080 C   0  0  0  0  0  0  0  0  0  0  0  0
   -1.5610    1.2620   -0.3530 C   0  0  0  0  0  0  0  0  0  0  0  0
  1  2  1  0
  2  3  1  0
  3  4  1  0
  4  5  2  3
  5  6  1  0
  6  7  2  0
  6 12  1  0
  7  8  1  0
  8  9  1  6
  8 10  1  0
  8 11  1  0
 11 12  2  0
M  END
