
     RDKit          3D

 12 12  0  0  0  0  0  0  0  0999 V2000
    3.2440    1.0990   -1.1000 C   0  0  0  0  0  0  0  0  0  0  0  0
    2.1020    0.8570   -0.3350 O   0  0  0  0  0  0  0  0  0  0  0  0
    1.7570   -0.4770   -0.3150 C   0  0  0  0  0  0  0  0  0  0  0  0
    0.5170   -0.6260    0.5340 C   0  0  2  0  0  0  0  0  0  0  0  0
    0.9060   -0.2170    1.9570 C   0  0  0  0  0  0  0  0  0  0  0  0
    0.1280   -1.9950    0.5800 N   0  0  0  0  0  0  0  0  0  0  0  0
   -0.5500    0.3140    0.0740 C   0  0  2  0  0  0  0  0  0  0  0  0
   -0.0540    1.6160    0.0710 O   0  0  0  0  0  0  0  0  0  0  0  0
   -1.7290    0.2990    1.0230 C   0  0  0  0  0  0  0  0  0  0  0  0
   -2.8090    0.9250    0.1290 C   0  0  0  0  0  0  0  0  0  0  0  0
   -2.6450    0.0380   -1.1110 C   0  0  0  0  0  0  0  0  0  0  0  0
   -1.1360    0.0110   -1.2500 C   0  0  0  0  0  0  0  0  0  0  0  0
  1  2  1  0
  2  3  1  0
  3  4  1  0
  4  5  1  1
  4  6  1  0
  4  7  1  0
  7  8  1  6
  7  9  1  0
  7 12  1  0
  9 10  1  0
 10 11  1  0
 11 12  1  0
M  CHG  1   6   1
M  END
