
     RDKit          3D

 12 12  0  0  0  0  0  0  0  0999 V2000
    3.7650    0.4660    0.6070 N   0  0  0  0  0  0  0  0  0  0  0  0
    2.7850   -0.5710    0.8960 C   0  0  0  0  0  0  0  0  0  0  0  0
    1.4860   -0.0050    1.2440 C   0  0  0  0  0  0  0  0  0  0  0  0
    0.3530   -0.2210    0.5910 C   0  0  0  0  0  0  0  0  0  0  0  0
    0.5000   -1.1100   -0.5630 C   0  0  0  0  0  0  0  0  0  0  0  0
   -0.7340   -1.3530   -1.3500 C   0  0  0  0  0  0  0  0  0  0  0  0
   -1.9610   -1.5310   -0.5240 C   0  0  0  0  0  0  0  0  0  0  0  0
   -2.6860   -0.2110   -0.4090 C   0  0  0  0  0  0  0  0  0  0  0  0
   -1.9770    0.8040    0.3970 C   0  0  2  0  0  0  0  0  0  0  0  0
   -1.5680    1.9490   -0.5430 C   0  0  0  0  0  0  0  0  0  0  0  0
   -0.9840    2.9880    0.1780 O   0  0  0  0  0  0  0  0  0  0  0  0
   -0.7990    0.3700    1.0200 O   0  0  0  0  0  0  0  0  0  0  0  0
  1  2  1  0
  2  3  1  0
  3  4  2  3
  4  5  1  0
  4 12  1  0
  5  6  1  0
  6  7  1  0
  7  8  1  0
  8  9  1  0
  9 10  1  6
  9 12  1  0
 10 11  1  0
M  CHG  1   1   1
M  END
