
     RDKit          3D

 20 21  0  0  0  0  0  0  0  0999 V2000
   -2.2690   -1.0800   -0.8960 O   0  0  0  0  0  0  0  0  0  0  0  0
   -1.5010   -0.5990   -0.0500 C   0  0  0  0  0  0  0  0  0  0  0  0
   -0.1600   -0.1150   -0.4620 C   0  0  0  0  0  0  0  0  0  0  0  0
   -0.0000   -0.3040   -1.9800 C   0  0  0  0  0  0  0  0  0  0  0  0
    1.3580    0.2020   -2.3070 C   0  0  0  0  0  0  0  0  0  0  0  0
    2.3900   -0.7130   -2.2540 C   0  0  0  0  0  0  0  0  0  0  0  0
    3.6810   -0.3240   -2.5430 C   0  0  0  0  0  0  0  0  0  0  0  0
    3.9470    1.0020   -2.8920 C   0  0  0  0  0  0  0  0  0  0  0  0
    5.2560    1.3690   -3.1780 O   0  0  0  0  0  0  0  0  0  0  0  0
    2.9150    1.9120   -2.9430 C   0  0  0  0  0  0  0  0  0  0  0  0
    1.6310    1.4900   -2.6470 C   0  0  0  0  0  0  0  0  0  0  0  0
   -1.8870   -0.4990    1.3460 C   0  0  0  0  0  0  0  0  0  0  0  0
   -1.0870    0.0270    2.3470 C   0  0  0  0  0  0  0  0  0  0  0  0
    0.1780    0.4910    1.9740 O   0  0  0  0  0  0  0  0  0  0  0  0
   -1.5210    0.0880    3.6540 C   0  0  0  0  0  0  0  0  0  0  0  0
   -2.7610   -0.3660    4.0290 C   0  0  0  0  0  0  0  0  0  0  0  0
   -3.2350   -0.3220    5.3380 O   0  0  0  0  0  0  0  0  0  0  0  0
   -3.5820   -0.8970    3.0440 C   0  0  0  0  0  0  0  0  0  0  0  0
   -3.1330   -0.9550    1.7230 C   0  0  0  0  0  0  0  0  0  0  0  0
   -3.9510   -1.4850    0.7350 O   0  0  0  0  0  0  0  0  0  0  0  0
  1  2  2  0
  2  3  1  0
  2 12  1  0
  3  4  1  0
  4  5  1  0
  5  6  2  0
  5 11  1  0
  6  7  1  0
  7  8  2  0
  8  9  1  0
  8 10  1  0
 10 11  2  0
 12 13  2  0
 12 19  1  0
 13 14  1  0
 13 15  1  0
 15 16  2  0
 16 17  1  0
 16 18  1  0
 18 19  2  0
 19 20  1  0
M  END
