
     RDKit          3D

 12 12  0  0  0  0  0  0  0  0999 V2000
    3.3780    1.0930   -0.3520 C   0  0  0  0  0  0  0  0  0  0  0  0
    2.5590    1.0820    0.9380 C   0  0  0  0  0  0  0  0  0  0  0  0
    1.6820   -0.1540    0.8840 C   0  0  0  0  0  0  0  0  0  0  0  0
    0.8160   -0.1170   -0.2480 O   0  0  0  0  0  0  0  0  0  0  0  0
   -0.0350   -1.1980   -0.4040 C   0  0  0  0  0  0  0  0  0  0  0  0
    0.2860   -2.4420   -0.7460 C   0  0  0  0  0  0  0  0  0  0  0  0
   -0.8860   -3.2250   -0.7880 O   0  0  0  0  0  0  0  0  0  0  0  0
   -1.8400   -2.5870    0.0730 C   0  0  0  0  0  0  0  0  0  0  0  0
   -1.4680   -1.1530   -0.2130 C   0  0  0  0  0  0  0  0  0  0  0  0
   -2.3590   -0.2000   -0.2530 C   0  0  0  0  0  0  0  0  0  0  0  0
   -1.9420    1.1860   -0.5500 C   0  0  0  0  0  0  0  0  0  0  0  0
   -2.2580    2.0960    0.5360 N   0  0  0  0  0  0  0  0  0  0  0  0
  1  2  1  0
  2  3  1  0
  3  4  1  0
  4  5  1  0
  5  6  2  0
  5  9  1  0
  6  7  1  0
  7  8  1  0
  8  9  1  0
  9 10  2  3
 10 11  1  0
 11 12  1  0
M  CHG  1  12   1
M  END
