
     RDKit          3D

 12 12  0  0  0  0  0  0  0  0999 V2000
    3.1690    1.1020    0.7050 C   0  0  0  0  0  0  0  0  0  0  0  0
    1.8580    1.0950    0.0540 C   0  0  0  0  0  0  0  0  0  0  0  0
    1.0660    0.0450    0.1960 C   0  0  0  0  0  0  0  0  0  0  0  0
    1.3010   -1.2110    0.9560 C   0  0  0  0  0  0  0  0  0  0  0  0
    0.4380   -2.1480    0.2250 N   0  0  0  0  0  0  0  0  0  0  0  0
   -0.6370   -1.3990   -0.3680 C   0  0  0  0  0  0  0  0  0  0  0  0
   -1.9270   -1.9980   -0.8690 C   0  0  0  0  0  0  0  0  0  0  0  0
   -2.6130   -2.6370    0.1460 O   0  0  0  0  0  0  0  0  0  0  0  0
   -0.2840   -0.1330   -0.3890 C   0  0  0  0  0  0  0  0  0  0  0  0
   -1.0850    1.0180   -0.9140 C   0  0  0  0  0  0  0  0  0  0  0  0
   -1.3610    2.0400    0.1830 C   0  0  0  0  0  0  0  0  0  0  0  0
   -2.0980    3.0580   -0.3850 O   0  0  0  0  0  0  0  0  0  0  0  0
  1  2  1  0
  2  3  2  3
  3  4  1  0
  3  9  1  0
  4  5  1  0
  5  6  1  0
  6  7  1  0
  6  9  2  0
  7  8  1  0
  9 10  1  0
 10 11  1  0
 11 12  1  0
M  END
