
     RDKit          3D

 25 27  0  0  0  0  0  0  0  0999 V2000
   -7.0490    0.0730    1.9140 C   0  0  0  0  0  0  0  0  0  0  0  0
   -5.7600   -0.1250    1.1460 C   0  0  0  0  0  0  0  0  0  0  0  0
   -5.6350   -1.1300    0.3030 C   0  0  0  0  0  0  0  0  0  0  0  0
   -4.4630   -1.4700   -0.5180 C   0  0  0  0  0  0  0  0  0  0  0  0
   -3.3080   -0.5350   -0.2670 C   0  0  1  0  0  0  0  0  0  0  0  0
   -2.8990   -0.6750    1.1920 C   0  0  0  0  0  0  0  0  0  0  0  0
   -2.1750   -0.8540   -1.1980 C   0  0  0  0  0  0  0  0  0  0  0  0
   -1.0230   -0.0290   -1.0670 N   0  0  0  0  0  0  0  0  0  0  0  0
    0.0210   -0.4540   -0.1280 C   0  0  0  0  0  0  0  0  0  0  0  0
    1.3300    0.0880   -0.7100 C   0  0  2  0  0  0  0  0  0  0  0  0
    2.3980   -0.8320   -0.4140 N   0  0  0  0  0  0  0  0  0  0  0  0
    2.6730   -1.0200    0.9630 C   0  0  0  0  0  0  0  0  0  0  0  0
    4.1250   -1.4540    1.2000 C   0  0  0  0  0  0  0  0  0  0  0  0
    4.9340   -0.2570    0.7860 C   0  0  0  0  0  0  0  0  0  0  0  0
    5.8800    0.4770    1.2930 C   0  0  0  0  0  0  0  0  0  0  0  0
    6.4290    0.2770    2.5150 F   0  0  0  0  0  0  0  0  0  0  0  0
    6.2710    1.5680    0.3320 C   0  0  0  0  0  0  0  0  0  0  0  0
    5.3650    1.3110   -0.8180 C   0  0  0  0  0  0  0  0  0  0  0  0
    4.5950    0.2510   -0.5410 C   0  0  0  0  0  0  0  0  0  0  0  0
    3.5220   -0.4920   -1.2510 C   0  0  0  0  0  0  0  0  0  0  0  0
    1.5370    1.4590   -0.1920 C   0  0  0  0  0  0  0  0  0  0  0  0
    0.6400    2.3870   -0.6810 O   0  0  0  0  0  0  0  0  0  0  0  0
    0.1160    2.1410   -1.9190 C   0  0  0  0  0  0  0  0  0  0  0  0
   -1.0010    1.1550   -1.8850 C   0  0  0  0  0  0  0  0  0  0  0  0
   -1.9840    1.3710   -2.6170 O   0  0  0  0  0  0  0  0  0  0  0  0
  1  2  1  0
  2  3  2  3
  3  4  1  0
  4  5  1  0
  5  6  1  1
  5  7  1  0
  7  8  1  0
  8  9  1  0
  8 24  1  0
  9 10  1  0
 10 11  1  1
 10 21  1  0
 11 12  1  0
 11 20  1  0
 12 13  1  0
 13 14  1  0
 14 15  2  0
 14 19  1  0
 15 16  1  0
 15 17  1  0
 17 18  1  0
 18 19  2  0
 19 20  1  0
 21 22  1  0
 22 23  1  0
 23 24  1  0
 24 25  2  0
M  END
