
     RDKit          3D

 28 30  0  0  0  0  0  0  0  0999 V2000
   -4.0930    1.9430    3.2510 N   0  0  0  0  0  0  0  0  0  0  0  0
   -4.8790    1.2250    2.6020 C   0  0  0  0  0  0  0  0  0  0  0  0
   -4.9270    0.2630    1.6090 C   0  0  0  0  0  0  0  0  0  0  0  0
   -4.2120   -0.4480    0.7760 C   0  0  0  0  0  0  0  0  0  0  0  0
   -2.7960   -0.4190    0.6160 C   0  0  0  0  0  0  0  0  0  0  0  0
   -1.9800    0.5740    1.3730 C   0  0  0  0  0  0  0  0  0  0  0  0
   -0.5890    0.4760    0.9230 N   0  0  0  0  0  0  0  0  0  0  0  0
   -0.2580    0.9690   -0.3560 C   0  0  0  0  0  0  0  0  0  0  0  0
   -1.2180    1.5390   -1.1770 C   0  0  0  0  0  0  0  0  0  0  0  0
   -0.9460    2.0370   -2.4310 C   0  0  0  0  0  0  0  0  0  0  0  0
    0.3430    1.9690   -2.9030 C   0  0  0  0  0  0  0  0  0  0  0  0
    1.3060    1.3920   -2.0690 C   0  0  0  0  0  0  0  0  0  0  0  0
    1.0420    0.8930   -0.8150 C   0  0  0  0  0  0  0  0  0  0  0  0
    2.0690    0.3200   -0.0240 N   0  0  0  0  0  0  0  0  0  0  0  0
    3.4350    0.1770   -0.3580 C   0  0  0  0  0  0  0  0  0  0  0  0
    3.8480    0.5710   -1.4390 O   0  0  0  0  0  0  0  0  0  0  0  0
    4.3790   -0.4210    0.5290 N   0  0  0  0  0  0  0  0  0  0  0  0
    5.7480   -0.6130    0.3040 C   0  0  0  0  0  0  0  0  0  0  0  0
    6.4910   -1.2460    1.3080 C   0  0  0  0  0  0  0  0  0  0  0  0
    7.8250   -1.4990    1.2310 C   0  0  0  0  0  0  0  0  0  0  0  0
    8.5330   -1.1240    0.1060 C   0  0  0  0  0  0  0  0  0  0  0  0
    7.8500   -0.4980   -0.9090 C   0  0  0  0  0  0  0  0  0  0  0  0
    6.4720   -0.2510   -0.8010 C   0  0  0  0  0  0  0  0  0  0  0  0
   -2.1460   -1.2330   -0.2350 C   0  0  0  0  0  0  0  0  0  0  0  0
   -2.9050   -2.1580   -1.0180 C   0  0  0  0  0  0  0  0  0  0  0  0
   -4.2100   -2.2320   -0.9360 C   0  0  0  0  0  0  0  0  0  0  0  0
   -5.0170   -1.4230   -0.0860 C   0  0  2  0  0  0  0  0  0  0  0  0
   -5.9790   -0.5970   -0.8300 N   0  0  0  0  0  0  0  0  0  0  0  0
  1  2  2  0
  2  3  1  0
  3  4  2  3
  4  5  1  0
  4 27  1  0
  5  6  1  0
  5 24  2  0
  6  7  1  0
  7  8  1  0
  8  9  2  0
  8 13  1  0
  9 10  1  0
 10 11  2  0
 11 12  1  0
 12 13  2  0
 13 14  1  0
 14 15  1  0
 15 16  2  0
 15 17  1  0
 17 18  1  0
 18 19  2  0
 18 23  1  0
 19 20  1  0
 20 21  2  0
 21 22  1  0
 22 23  2  0
 24 25  1  0
 25 26  2  0
 26 27  1  0
 27 28  1  6
M  CHG  2   1   1  28   1
M  END
