
     RDKit          3D

 27 30  0  0  0  0  0  0  0  0999 V2000
    9.0990   -0.5470    1.1500 C   0  0  0  0  0  0  0  0  0  0  0  0
    7.7380   -0.1390    0.6830 C   0  0  0  0  0  0  0  0  0  0  0  0
    7.5340    1.0590    0.0390 C   0  0  0  0  0  0  0  0  0  0  0  0
    6.2630    1.4240   -0.3900 C   0  0  0  0  0  0  0  0  0  0  0  0
    5.1820    0.5970   -0.1810 C   0  0  0  0  0  0  0  0  0  0  0  0
    3.8340    0.9190   -0.5950 C   0  0  0  0  0  0  0  0  0  0  0  0
    3.5380    2.1510   -0.6880 O   0  0  0  0  0  0  0  0  0  0  0  0
    2.7930   -0.0400   -0.9140 C   0  0  0  0  0  0  0  0  0  0  0  0
    2.9350   -1.2980   -1.3650 N   0  0  0  0  0  0  0  0  0  0  0  0
    1.7380   -1.8670   -1.5370 N   0  0  0  0  0  0  0  0  0  0  0  0
    0.7760   -1.0070   -1.2080 C   0  0  0  0  0  0  0  0  0  0  0  0
    1.4230    0.1590   -0.8100 C   0  0  0  0  0  0  0  0  0  0  0  0
    0.4920    1.0640   -0.4660 N   0  0  0  0  0  0  0  0  0  0  0  0
   -0.7550    0.5390   -0.6210 C   0  0  0  0  0  0  0  0  0  0  0  0
   -2.0400    1.0310   -0.4150 C   0  0  0  0  0  0  0  0  0  0  0  0
   -3.1430    0.2560   -0.6630 C   0  0  0  0  0  0  0  0  0  0  0  0
   -4.4920    0.8050   -0.4450 C   0  0  2  0  0  0  0  0  0  0  0  0
   -4.5420    1.6880    0.7990 C   0  0  0  0  0  0  0  0  0  0  0  0
   -5.9140    2.1770    0.9240 N   0  0  0  0  0  0  0  0  0  0  0  0
   -5.5370   -0.2590   -0.2740 C   0  0  0  0  0  0  0  0  0  0  0  0
   -5.2650   -1.1500    0.9110 C   0  0  0  0  0  0  0  0  0  0  0  0
   -6.3180   -2.1480    0.9960 N   0  0  0  0  0  0  0  0  0  0  0  0
   -2.9920   -1.0160   -1.1190 C   0  0  0  0  0  0  0  0  0  0  0  0
   -1.7110   -1.4990   -1.3220 C   0  0  0  0  0  0  0  0  0  0  0  0
   -0.5660   -0.7680   -1.0900 C   0  0  0  0  0  0  0  0  0  0  0  0
    5.4200   -0.5920    0.4650 C   0  0  0  0  0  0  0  0  0  0  0  0
    6.6690   -0.9730    0.8980 C   0  0  0  0  0  0  0  0  0  0  0  0
  1  2  1  0
  2  3  2  0
  2 27  1  0
  3  4  1  0
  4  5  2  0
  5  6  1  0
  5 26  1  0
  6  7  2  0
  6  8  1  0
  8  9  1  0
  8 12  2  0
  9 10  1  0
 10 11  2  0
 11 12  1  0
 11 25  1  0
 12 13  1  0
 13 14  1  0
 14 15  2  0
 14 25  1  0
 15 16  1  0
 16 17  1  0
 16 23  2  0
 17 18  1  1
 17 20  1  0
 18 19  1  0
 20 21  1  0
 21 22  1  0
 23 24  1  0
 24 25  2  0
 26 27  2  0
M  CHG  2  19   1  22   1
M  END
