
     RDKit          3D

 28 31  0  0  0  0  0  0  0  0999 V2000
    6.1780    1.1580    2.2390 N   0  0  0  0  0  0  0  0  0  0  0  0
    5.0610    0.4570    1.7100 C   0  0  0  0  0  0  0  0  0  0  0  0
    4.3800   -0.4580    2.4540 C   0  0  0  0  0  0  0  0  0  0  0  0
    3.3040   -1.1130    1.8960 C   0  0  0  0  0  0  0  0  0  0  0  0
    2.8900   -0.8730    0.6030 C   0  0  0  0  0  0  0  0  0  0  0  0
    3.5870    0.0690   -0.1730 C   0  0  0  0  0  0  0  0  0  0  0  0
    3.1340    0.1690   -1.5080 N   0  0  0  0  0  0  0  0  0  0  0  0
    1.8250   -0.2430   -1.9390 C   0  0  0  0  0  0  0  0  0  0  0  0
    1.7500   -0.8120   -3.2080 C   0  0  0  0  0  0  0  0  0  0  0  0
    0.5420   -1.1880   -3.7020 C   0  0  0  0  0  0  0  0  0  0  0  0
   -0.5990   -1.0010   -2.9390 C   0  0  0  0  0  0  0  0  0  0  0  0
   -0.5730   -0.4490   -1.6910 C   0  0  0  0  0  0  0  0  0  0  0  0
   -1.6690   -0.2530   -0.8400 N   0  0  0  0  0  0  0  0  0  0  0  0
   -2.8370   -1.0230   -0.8870 C   0  0  0  0  0  0  0  0  0  0  0  0
   -2.9230   -2.0340   -1.8020 N   0  0  0  0  0  0  0  0  0  0  0  0
   -4.0120   -2.7970   -1.8960 C   0  0  0  0  0  0  0  0  0  0  0  0
   -5.0880   -2.5840   -1.0660 C   0  0  0  0  0  0  0  0  0  0  0  0
   -5.0260   -1.5760   -0.1380 C   0  0  0  0  0  0  0  0  0  0  0  0
   -3.8800   -0.7710   -0.0360 C   0  0  0  0  0  0  0  0  0  0  0  0
   -3.8260    0.2680    0.9810 C   0  0  2  0  0  0  0  0  0  0  0  0
   -2.8030    0.1450    2.0050 N   0  0  0  0  0  0  0  0  0  0  0  0
   -5.1650    0.5320    1.6820 C   0  0  0  0  0  0  0  0  0  0  0  0
   -4.6880    1.9860    1.8140 C   0  0  0  0  0  0  0  0  0  0  0  0
   -3.9160    1.7100    0.5110 C   0  0  0  0  0  0  0  0  0  0  0  0
    0.6900   -0.0710   -1.2110 C   0  0  0  0  0  0  0  0  0  0  0  0
    4.6480    0.7150    0.3800 C   0  0  0  0  0  0  0  0  0  0  0  0
    5.4160    1.7280   -0.3420 C   0  0  0  0  0  0  0  0  0  0  0  0
    5.0520    2.0340   -1.6170 O   0  0  0  0  0  0  0  0  0  0  0  0
  1  2  1  0
  2  3  2  0
  2 26  1  0
  3  4  1  0
  4  5  2  0
  5  6  1  0
  6  7  1  0
  6 26  2  0
  7  8  1  0
  8  9  2  0
  8 25  1  0
  9 10  1  0
 10 11  2  0
 11 12  1  0
 12 13  1  0
 12 25  2  0
 13 14  1  0
 14 15  2  0
 14 19  1  0
 15 16  1  0
 16 17  2  0
 17 18  1  0
 18 19  2  0
 19 20  1  0
 20 21  1  1
 20 22  1  0
 20 24  1  0
 22 23  1  0
 23 24  1  0
 26 27  1  0
 27 28  1  0
M  CHG  2   1   1  21   1
M  END
