
     RDKit          3D

 28 31  0  0  0  0  0  0  0  0999 V2000
   -6.7380    2.5720    0.9260 N   0  0  0  0  0  0  0  0  0  0  0  0
   -6.7760    1.2630    0.3790 C   0  0  0  0  0  0  0  0  0  0  0  0
   -7.9590    0.5580    0.2250 C   0  0  0  0  0  0  0  0  0  0  0  0
   -7.9300   -0.7040   -0.3090 C   0  0  0  0  0  0  0  0  0  0  0  0
   -6.7660   -1.3160   -0.7060 C   0  0  0  0  0  0  0  0  0  0  0  0
   -5.5790   -0.6150   -0.5530 C   0  0  0  0  0  0  0  0  0  0  0  0
   -4.3440   -1.2470   -0.9680 C   0  0  0  0  0  0  0  0  0  0  0  0
   -4.4050   -2.2960   -1.6500 O   0  0  0  0  0  0  0  0  0  0  0  0
   -3.1060   -0.7090   -0.6230 N   0  0  0  0  0  0  0  0  0  0  0  0
   -2.1560   -1.7490   -0.1820 C   0  0  0  0  0  0  0  0  0  0  0  0
   -0.7710   -1.2360   -0.3180 C   0  0  0  0  0  0  0  0  0  0  0  0
    0.0510   -1.5410   -1.3820 C   0  0  0  0  0  0  0  0  0  0  0  0
    1.3440   -1.0500   -1.4940 C   0  0  0  0  0  0  0  0  0  0  0  0
    1.7900   -0.2260   -0.4800 C   0  0  0  0  0  0  0  0  0  0  0  0
    1.0150    0.1120    0.6020 C   0  0  0  0  0  0  0  0  0  0  0  0
   -0.2630   -0.3960    0.6770 C   0  0  0  0  0  0  0  0  0  0  0  0
    1.5040    0.9780    1.6280 N   0  0  0  0  0  0  0  0  0  0  0  0
    2.5390    1.9250    1.3050 C   0  0  0  0  0  0  0  0  0  0  0  0
    3.5760    1.1380    0.5230 C   0  0  0  0  0  0  0  0  0  0  0  0
    4.8420    1.2180    0.8590 C   0  0  0  0  0  0  0  0  0  0  0  0
    5.9620    0.5550    0.2380 C   0  0  0  0  0  0  0  0  0  0  0  0
    6.8290   -0.1980    1.0410 C   0  0  0  0  0  0  0  0  0  0  0  0
    7.9360   -0.8250    0.5190 C   0  0  0  0  0  0  0  0  0  0  0  0
    8.1690   -0.6950   -0.8060 N   0  0  0  0  0  0  0  0  0  0  0  0
    7.3700    0.0100   -1.6000 C   0  0  0  0  0  0  0  0  0  0  0  0
    6.2340    0.6620   -1.0990 C   0  0  0  0  0  0  0  0  0  0  0  0
    3.1280    0.3090   -0.5240 N   0  0  0  0  0  0  0  0  0  0  0  0
   -5.5900    0.6540   -0.0190 C   0  0  0  0  0  0  0  0  0  0  0  0
  1  2  1  0
  2  3  2  0
  2 28  1  0
  3  4  1  0
  4  5  2  0
  5  6  1  0
  6  7  1  0
  6 28  2  0
  7  8  2  0
  7  9  1  0
  9 10  1  0
 10 11  1  0
 11 12  2  0
 11 16  1  0
 12 13  1  0
 13 14  2  0
 14 15  1  0
 14 27  1  0
 15 16  2  0
 15 17  1  0
 17 18  1  0
 18 19  1  0
 19 20  2  3
 19 27  1  0
 20 21  1  0
 21 22  2  0
 21 26  1  0
 22 23  1  0
 23 24  2  0
 24 25  1  0
 25 26  2  0
M  CHG  2   9   1  24   1
M  END
