
     RDKit          3D

 28 30  0  0  0  0  0  0  0  0999 V2000
   -4.0790    0.9590    1.7420 C   0  0  0  0  0  0  0  0  0  0  0  0
   -3.9060   -0.2090    0.8140 C   0  0  2  0  0  0  0  0  0  0  0  0
   -4.7730   -1.3290    1.3490 C   0  0  0  0  0  0  0  0  0  0  0  0
   -2.5060   -0.6750    0.7290 C   0  0  0  0  0  0  0  0  0  0  0  0
   -1.4850   -0.6130    1.6520 C   0  0  0  0  0  0  0  0  0  0  0  0
   -0.2340   -1.1230    1.3570 C   0  0  0  0  0  0  0  0  0  0  0  0
   -0.0660   -1.6890    0.1060 C   0  0  0  0  0  0  0  0  0  0  0  0
    1.2130   -2.2200   -0.2180 N   0  0  0  0  0  0  0  0  0  0  0  0
    2.2850   -2.1820    0.6820 C   0  0  0  0  0  0  0  0  0  0  0  0
    3.2460   -1.3330    0.7580 C   0  0  0  0  0  0  0  0  0  0  0  0
    3.4800   -0.1830   -0.0700 C   0  0  0  0  0  0  0  0  0  0  0  0
    2.7280    0.1370   -1.1660 C   0  0  0  0  0  0  0  0  0  0  0  0
    3.0300    1.2640   -1.9310 C   0  0  0  0  0  0  0  0  0  0  0  0
    4.0550    2.0520   -1.6130 N   0  0  0  0  0  0  0  0  0  0  0  0
    4.8300    1.7700   -0.5250 C   0  0  0  0  0  0  0  0  0  0  0  0
    4.5680    0.6720    0.2520 C   0  0  0  0  0  0  0  0  0  0  0  0
    5.2690    0.4340    1.4760 C   0  0  0  0  0  0  0  0  0  0  0  0
    6.4650    0.6170    1.8400 C   0  0  0  0  0  0  0  0  0  0  0  0
    7.6070    1.1230    1.1670 C   0  0  0  0  0  0  0  0  0  0  0  0
    8.8530    1.2470    1.9200 N   0  0  0  0  0  0  0  0  0  0  0  0
    7.6960    1.4830   -0.0180 O   0  0  0  0  0  0  0  0  0  0  0  0
   -1.0930   -1.7480   -0.8140 C   0  0  0  0  0  0  0  0  0  0  0  0
   -2.3380   -1.2380   -0.5160 C   0  0  0  0  0  0  0  0  0  0  0  0
   -3.6190   -1.1540   -1.2900 C   0  0  0  0  0  0  0  0  0  0  0  0
   -4.2130    0.0950   -0.6130 C   0  0  1  0  0  0  0  0  0  0  0  0
   -5.5960    0.2650   -0.9170 N   0  0  0  0  0  0  0  0  0  0  0  0
   -3.3560    1.2430   -1.1040 C   0  0  0  0  0  0  0  0  0  0  0  0
   -3.6360    1.5620   -2.4900 N   0  0  0  0  0  0  0  0  0  0  0  0
  2  1  1  1
  2  3  1  0
  2  4  1  0
  2 25  1  0
  4  5  2  0
  4 23  1  0
  5  6  1  0
  6  7  2  0
  7  8  1  0
  7 22  1  0
  8  9  1  0
  9 10  2  3
 10 11  1  0
 11 12  2  0
 11 16  1  0
 12 13  1  0
 13 14  2  0
 14 15  1  0
 15 16  2  0
 16 17  1  0
 17 18  2  3
 18 19  1  0
 19 20  1  0
 19 21  2  0
 22 23  2  0
 23 24  1  0
 24 25  1  0
 25 26  1  1
 25 27  1  0
 27 28  1  0
M  CHG  2  26   1  28   1
M  END
