
     RDKit          3D

 28 31  0  0  0  0  0  0  0  0999 V2000
   -1.3420   -0.0870    2.3380 C   0  0  0  0  0  0  0  0  0  0  0  0
   -2.1690   -1.1190    1.8190 O   0  0  0  0  0  0  0  0  0  0  0  0
   -2.9790   -0.9040    0.6970 C   0  0  0  0  0  0  0  0  0  0  0  0
   -2.4980   -1.1500   -0.5980 C   0  0  0  0  0  0  0  0  0  0  0  0
   -1.1810   -1.6830   -0.7610 C   0  0  0  0  0  0  0  0  0  0  0  0
   -0.2210   -1.0730   -1.4760 C   0  0  0  0  0  0  0  0  0  0  0  0
   -0.5470    0.2100   -2.1130 C   0  0  0  0  0  0  0  0  0  0  0  0
    0.2500    1.3170   -1.5740 N   0  0  0  0  0  0  0  0  0  0  0  0
    1.0540   -1.7880   -1.5880 C   0  0  0  0  0  0  0  0  0  0  0  0
    2.2140   -1.0000   -1.1890 C   0  0  0  0  0  0  0  0  0  0  0  0
    2.7210   -1.0000    0.1090 C   0  0  0  0  0  0  0  0  0  0  0  0
    3.8050   -0.2420    0.5070 C   0  0  0  0  0  0  0  0  0  0  0  0
    4.4240    0.5620   -0.4240 C   0  0  0  0  0  0  0  0  0  0  0  0
    3.9520    0.5800   -1.6870 N   0  0  0  0  0  0  0  0  0  0  0  0
    2.8910   -0.1620   -2.0840 C   0  0  0  0  0  0  0  0  0  0  0  0
    2.4340   -0.1410   -3.4320 N   0  0  0  0  0  0  0  0  0  0  0  0
    5.4420    1.2140    0.1420 C   0  0  0  0  0  0  0  0  0  0  0  0
    5.5240    0.8260    1.5630 C   0  0  1  0  0  0  0  0  0  0  0  0
    5.4100    1.9450    2.4730 N   0  0  0  0  0  0  0  0  0  0  0  0
    4.4040   -0.1310    1.6950 C   0  0  0  0  0  0  0  0  0  0  0  0
   -3.3850   -0.9050   -1.6360 C   0  0  0  0  0  0  0  0  0  0  0  0
   -4.6330   -0.4580   -1.4700 N   0  0  0  0  0  0  0  0  0  0  0  0
   -5.1030   -0.2190   -0.2490 C   0  0  0  0  0  0  0  0  0  0  0  0
   -6.4080    0.2460   -0.1110 C   0  0  0  0  0  0  0  0  0  0  0  0
   -6.8850    0.4910    1.1560 C   0  0  0  0  0  0  0  0  0  0  0  0
   -6.0650    0.2710    2.2420 C   0  0  0  0  0  0  0  0  0  0  0  0
   -4.7840   -0.1870    2.0940 C   0  0  0  0  0  0  0  0  0  0  0  0
   -4.2660   -0.4460    0.8260 C   0  0  0  0  0  0  0  0  0  0  0  0
  1  2  1  0
  2  3  1  0
  3  4  2  0
  3 28  1  0
  4  5  1  0
  4 21  1  0
  5  6  2  3
  6  7  1  0
  6  9  1  0
  7  8  1  0
  9 10  1  0
 10 11  2  0
 10 15  1  0
 11 12  1  0
 12 13  1  0
 12 20  2  0
 13 14  1  0
 13 17  2  0
 14 15  2  0
 15 16  1  0
 17 18  1  0
 18 19  1  1
 18 20  1  0
 21 22  2  0
 22 23  1  0
 23 24  2  0
 23 28  1  0
 24 25  1  0
 25 26  2  0
 26 27  1  0
 27 28  2  0
M  CHG  2   8   1  19   1
M  END
