
     RDKit          3D

 28 30  0  0  0  0  0  0  0  0999 V2000
   -5.0560    2.4740    0.1980 N   0  0  0  0  0  0  0  0  0  0  0  0
   -4.2180    1.6980   -0.7320 C   0  0  0  0  0  0  0  0  0  0  0  0
   -2.8440    1.5670   -0.0940 C   0  0  0  0  0  0  0  0  0  0  0  0
   -1.8260    2.0570   -0.8200 C   0  0  0  0  0  0  0  0  0  0  0  0
   -0.4720    2.1520   -0.6350 N   0  0  0  0  0  0  0  0  0  0  0  0
    0.6330    1.2480   -0.4200 C   0  0  0  0  0  0  0  0  0  0  0  0
    1.5740    1.6080    0.5370 C   0  0  0  0  0  0  0  0  0  0  0  0
    2.6870    0.8550    0.8570 C   0  0  0  0  0  0  0  0  0  0  0  0
    2.9120   -0.3360    0.2040 C   0  0  0  0  0  0  0  0  0  0  0  0
    4.0230   -1.1630    0.4370 N   0  0  0  0  0  0  0  0  0  0  0  0
    5.2780   -0.7760    0.9490 C   0  0  0  0  0  0  0  0  0  0  0  0
    6.0520   -1.7090    1.6190 C   0  0  0  0  0  0  0  0  0  0  0  0
    7.2870   -1.3610    2.0980 C   0  0  0  0  0  0  0  0  0  0  0  0
    7.7770   -0.0820    1.9230 C   0  0  0  0  0  0  0  0  0  0  0  0
    6.9930    0.8280    1.2550 C   0  0  0  0  0  0  0  0  0  0  0  0
    5.7320    0.5030    0.7550 C   0  0  0  0  0  0  0  0  0  0  0  0
    1.9750   -0.6830   -0.7400 C   0  0  0  0  0  0  0  0  0  0  0  0
    0.8500    0.0640   -1.0720 C   0  0  0  0  0  0  0  0  0  0  0  0
   -0.0410   -0.4900   -2.0830 N   0  0  0  0  0  0  0  0  0  0  0  0
   -1.4010   -0.6130   -2.2420 C   0  0  0  0  0  0  0  0  0  0  0  0
   -1.8360    0.0590   -3.3090 O   0  0  0  0  0  0  0  0  0  0  0  0
   -2.5090   -1.2680   -1.5820 C   0  0  0  0  0  0  0  0  0  0  0  0
   -3.6350   -1.7200   -2.5440 C   0  0  0  0  0  0  0  0  0  0  0  0
   -4.7200   -2.3370   -1.9000 N   0  0  0  0  0  0  0  0  0  0  0  0
   -2.7890   -1.5520   -0.3510 C   0  0  0  0  0  0  0  0  0  0  0  0
   -1.9450   -1.2340    0.7830 C   0  0  0  0  0  0  0  0  0  0  0  0
   -2.4490   -0.1880    1.6950 C   0  0  0  0  0  0  0  0  0  0  0  0
   -2.8140    0.9820    1.2290 C   0  0  0  0  0  0  0  0  0  0  0  0
  1  2  1  0
  2  3  1  0
  3  4  2  0
  3 28  1  0
  4  5  1  0
  5  6  1  0
  6  7  2  0
  6 18  1  0
  7  8  1  0
  8  9  2  0
  9 10  1  0
  9 17  1  0
 10 11  1  0
 11 12  2  0
 11 16  1  0
 12 13  1  0
 13 14  2  0
 14 15  1  0
 15 16  2  0
 17 18  2  0
 18 19  1  0
 19 20  1  0
 20 21  2  0
 20 22  1  0
 22 23  1  0
 22 25  2  0
 23 24  1  0
 25 26  1  0
 26 27  1  0
 27 28  2  0
M  CHG  2   1   1  24   1
M  END
