
     RDKit          3D

 28 31  0  0  0  0  0  0  0  0999 V2000
   -6.2640   -1.1440   -1.2900 C   0  0  0  0  0  0  0  0  0  0  0  0
   -5.5830    0.1290   -1.1200 N   0  0  0  0  0  0  0  0  0  0  0  0
   -4.4850    0.1410   -0.4020 C   0  0  0  0  0  0  0  0  0  0  0  0
   -3.7850    1.3070   -0.1960 C   0  0  0  0  0  0  0  0  0  0  0  0
   -2.6120    1.3090    0.5720 C   0  0  0  0  0  0  0  0  0  0  0  0
   -1.8920    2.5920    0.6800 C   0  0  0  0  0  0  0  0  0  0  0  0
   -0.8670    2.8020   -0.4080 C   0  0  1  0  0  0  0  0  0  0  0  0
   -0.1860    4.0930   -0.1910 N   0  0  0  0  0  0  0  0  0  0  0  0
    0.1490    1.7690   -0.5570 C   0  0  0  0  0  0  0  0  0  0  0  0
   -0.1650    0.6710   -1.0420 O   0  0  0  0  0  0  0  0  0  0  0  0
    1.4840    2.0030   -0.1580 N   0  0  0  0  0  0  0  0  0  0  0  0
    2.5640    1.1160   -0.2330 C   0  0  0  0  0  0  0  0  0  0  0  0
    3.8410    1.5860    0.0280 C   0  0  0  0  0  0  0  0  0  0  0  0
    4.9560    0.7760   -0.0130 C   0  0  0  0  0  0  0  0  0  0  0  0
    4.8220   -0.5730   -0.3270 C   0  0  0  0  0  0  0  0  0  0  0  0
    5.7220   -1.6120   -0.4430 C   0  0  0  0  0  0  0  0  0  0  0  0
    5.0060   -2.7390   -0.7780 C   0  0  0  0  0  0  0  0  0  0  0  0
    5.5740   -4.0940   -1.0010 C   0  0  0  0  0  0  0  0  0  0  0  0
    3.7120   -2.3640   -0.8560 N   0  0  0  0  0  0  0  0  0  0  0  0
    3.5760   -1.0540   -0.5870 C   0  0  0  0  0  0  0  0  0  0  0  0
    2.4570   -0.2090   -0.5390 C   0  0  0  0  0  0  0  0  0  0  0  0
   -2.1650    0.1300    1.1220 C   0  0  0  0  0  0  0  0  0  0  0  0
   -1.0180    0.1170    1.9080 C   0  0  0  0  0  0  0  0  0  0  0  0
   -0.6240   -1.0850    2.4550 C   0  0  0  0  0  0  0  0  0  0  0  0
   -1.3060   -2.2660    2.2620 C   0  0  0  0  0  0  0  0  0  0  0  0
   -2.4350   -2.1980    1.4760 C   0  0  0  0  0  0  0  0  0  0  0  0
   -2.8910   -1.0320    0.8980 C   0  0  0  0  0  0  0  0  0  0  0  0
   -4.0100   -0.9870    0.1540 N   0  0  0  0  0  0  0  0  0  0  0  0
  1  2  1  0
  2  3  2  3
  3  4  1  0
  3 28  1  0
  4  5  2  0
  5  6  1  0
  5 22  1  0
  6  7  1  0
  7  8  1  1
  7  9  1  0
  9 10  2  0
  9 11  1  0
 11 12  1  0
 12 13  2  0
 12 21  1  0
 13 14  1  0
 14 15  2  0
 15 16  1  0
 15 20  1  0
 16 17  2  0
 17 18  1  0
 17 19  1  0
 19 20  1  0
 20 21  2  0
 22 23  2  0
 22 27  1  0
 23 24  1  0
 24 25  2  0
 25 26  1  0
 26 27  2  0
 27 28  1  0
M  CHG  2   2   1   8   1
M  END
