
     RDKit          3D

 12 12  0  0  0  0  0  0  0  0999 V2000
   -4.5910    0.7760   -0.5890 C   0  0  0  0  0  0  0  0  0  0  0  0
   -3.1750    0.8210   -0.6690 O   0  0  0  0  0  0  0  0  0  0  0  0
   -2.3960   -0.2410   -0.2370 C   0  0  0  0  0  0  0  0  0  0  0  0
   -3.0250   -1.2530    0.2300 O   0  0  0  0  0  0  0  0  0  0  0  0
   -0.9340   -0.2240   -0.3120 C   0  0  0  0  0  0  0  0  0  0  0  0
   -0.1430   -0.0370    1.3060 S   0  0  0  0  0  0  0  0  0  0  0  0
    1.6530    0.0150    1.0580 C   0  0  0  0  0  0  0  0  0  0  0  0
    2.5730    0.0090    1.9590 N   0  0  0  0  0  0  0  0  0  0  0  0
    3.8400    0.0560    1.4250 N   0  0  0  0  0  0  0  0  0  0  0  0
    3.6860    0.0480    0.0320 N   0  0  0  0  0  0  0  0  0  0  0  0
    4.3160   -0.9710   -0.5770 O   0  0  0  0  0  0  0  0  0  0  0  0
    2.3130    0.0560   -0.2120 N   0  0  0  0  0  0  0  0  0  0  0  0
  1  2  1  0
  2  3  1  0
  3  4  2  0
  3  5  1  0
  5  6  1  0
  6  7  1  0
  7  8  2  0
  7 12  1  0
  8  9  1  0
  9 10  1  0
 10 11  1  0
 10 12  1  0
M  END
