
     RDKit          3D

 13 13  0  0  0  0  0  0  0  0999 V2000
    3.1950    0.4080    1.2400 N   0  0  0  0  0  0  0  0  0  0  0  0
    2.7520   -0.5620    0.3010 C   0  0  0  0  0  0  0  0  0  0  0  0
    3.6580   -1.9040    0.1170 S   0  0  0  0  0  0  0  0  0  0  0  0
    1.5160   -0.2980   -0.4370 C   0  0  0  0  0  0  0  0  0  0  0  0
    0.4000   -0.1490    0.4850 N   0  0  0  0  0  0  0  0  0  0  0  0
   -0.9240    0.1170   -0.0390 C   0  0  0  0  0  0  0  0  0  0  0  0
   -1.0400    0.6390   -1.2010 N   0  0  0  0  0  0  0  0  0  0  0  0
   -2.7360    0.8000   -1.4710 S   0  0  1  0  0  0  0  0  0  0  0  0
   -3.1510    2.2240   -1.6250 O   0  0  0  0  0  0  0  0  0  0  0  0
   -3.1550   -0.0520   -2.6260 O   0  0  0  0  0  0  0  0  0  0  0  0
   -3.2300    0.1360    0.0400 N   0  0  0  0  0  0  0  0  0  0  0  0
   -2.1500   -0.1640    0.6520 C   0  0  0  0  0  0  0  0  0  0  0  0
   -2.2050   -0.7410    1.9450 O   0  0  0  0  0  0  0  0  0  0  0  0
  1  2  1  0
  2  3  2  0
  2  4  1  0
  4  5  1  0
  5  6  1  0
  6  7  2  0
  6 12  1  0
  8  7  1  1
  8  9  2  0
  8 10  2  0
  8 11  1  0
 11 12  2  0
 12 13  1  0
M  END
