
     RDKit          3D

 13 13  0  0  0  0  0  0  0  0999 V2000
    4.1760    0.9270   -0.3150 C   0  0  0  0  0  0  0  0  0  0  0  0
    2.7150    0.6590   -0.2690 C   0  0  0  0  0  0  0  0  0  0  0  0
    1.9620    1.6550   -0.1280 O   0  0  0  0  0  0  0  0  0  0  0  0
    2.1560   -0.6190   -0.3740 N   0  0  0  0  0  0  0  0  0  0  0  0
    0.7390   -0.8840   -0.3300 C   0  0  0  0  0  0  0  0  0  0  0  0
   -0.0480   -1.7990   -0.3860 N   0  0  0  0  0  0  0  0  0  0  0  0
   -1.3270   -1.6830   -0.3090 N   0  0  0  0  0  0  0  0  0  0  0  0
   -1.9110   -0.6130   -0.1680 C   0  0  0  0  0  0  0  0  0  0  0  0
   -3.5240    0.0170   -0.0210 S   0  0  1  0  0  0  0  0  0  0  0  0
   -4.0280    0.0760    1.6280 N   0  0  0  0  0  0  0  0  0  0  0  0
   -3.6160    1.4400   -0.5480 O   0  0  0  0  0  0  0  0  0  0  0  0
   -4.4150   -0.8130   -0.8710 O   0  0  0  0  0  0  0  0  0  0  0  0
   -0.4110    0.5360   -0.1240 S   0  0  0  0  0  0  0  0  0  0  0  0
  1  2  1  0
  2  3  2  0
  2  4  1  0
  4  5  1  0
  5  6  2  0
  5 13  1  0
  6  7  1  0
  7  8  2  0
  8  9  1  0
  8 13  1  0
  9 10  1  1
  9 11  2  0
  9 12  2  0
M  END
