
     RDKit          3D

 13 13  0  0  0  0  0  0  0  0999 V2000
    2.6690   -0.0300    1.6650 O   0  0  0  0  0  0  0  0  0  0  0  0
    2.8880    0.1030    0.4260 C   0  0  0  0  0  0  0  0  0  0  0  0
    3.9990   -0.4940   -0.1650 O   0  0  0  0  0  0  0  0  0  0  0  0
    1.9540    0.8820   -0.3110 N   0  0  0  0  0  0  0  0  0  0  0  0
    0.8570    1.4580    0.3360 N   0  0  0  0  0  0  0  0  0  0  0  0
   -0.2890    0.8760    0.2170 C   0  0  0  0  0  0  0  0  0  0  0  0
   -1.7250    1.4460    0.9410 S   0  0  0  0  0  0  0  0  0  0  0  0
   -3.0700    0.4550    0.5950 C   0  0  0  0  0  0  0  0  0  0  0  0
   -4.5960    0.7430    1.1510 S   0  0  0  0  0  0  0  0  0  0  0  0
   -2.7890   -0.6100   -0.1870 N   0  0  0  0  0  0  0  0  0  0  0  0
   -1.6270   -0.9250   -0.6750 N   0  0  0  0  0  0  0  0  0  0  0  0
   -0.4660   -0.2790   -0.5160 C   0  0  0  0  0  0  0  0  0  0  0  0
    0.5850   -0.7480   -1.0810 O   0  0  0  0  0  0  0  0  0  0  0  0
  1  2  2  0
  2  3  1  0
  2  4  1  0
  4  5  1  0
  5  6  2  3
  6  7  1  0
  6 12  1  0
  7  8  1  0
  8  9  2  0
  8 10  1  0
 10 11  1  0
 11 12  1  0
 12 13  2  0
M  END
