
     RDKit          3D

 20 22  0  0  0  0  0  0  0  0999 V2000
    5.4210    0.2040    0.0510 N   0  0  0  0  0  0  0  0  0  0  0  0
    4.0050    0.0670   -0.0560 C   0  0  0  0  0  0  0  0  0  0  0  0
    3.4290   -0.8140   -0.9600 C   0  0  0  0  0  0  0  0  0  0  0  0
    2.1140   -0.9790   -1.0980 N   0  0  0  0  0  0  0  0  0  0  0  0
    1.2820   -0.2620   -0.3300 C   0  0  0  0  0  0  0  0  0  0  0  0
   -0.1680   -0.3830   -0.4200 C   0  0  0  0  0  0  0  0  0  0  0  0
   -0.7090   -1.2680   -1.3280 C   0  0  0  0  0  0  0  0  0  0  0  0
   -2.0820   -1.4320   -1.4660 C   0  0  0  0  0  0  0  0  0  0  0  0
   -2.8830   -0.6570   -0.6380 C   0  0  0  0  0  0  0  0  0  0  0  0
   -4.2590   -0.7770   -0.7280 C   0  0  0  0  0  0  0  0  0  0  0  0
   -5.0490   -1.9880   -1.9700 Br  0  0  0  0  0  0  0  0  0  0  0  0
   -5.0790   -0.0040    0.0970 C   0  0  0  0  0  0  0  0  0  0  0  0
   -4.5410    0.8770    1.0010 C   0  0  0  0  0  0  0  0  0  0  0  0
   -5.6340    1.9330    2.1290 Br  0  0  0  0  0  0  0  0  0  0  0  0
   -3.1730    0.9870    1.0820 C   0  0  0  0  0  0  0  0  0  0  0  0
   -2.3340    0.2380    0.2810 C   0  0  0  0  0  0  0  0  0  0  0  0
   -1.0010    0.3250    0.3380 N   0  0  0  0  0  0  0  0  0  0  0  0
    1.8140    0.5990    0.5530 N   0  0  0  0  0  0  0  0  0  0  0  0
    3.1320    0.7930    0.7220 C   0  0  0  0  0  0  0  0  0  0  0  0
    3.6240    1.7230    1.6790 N   0  0  0  0  0  0  0  0  0  0  0  0
  1  2  1  0
  2  3  2  0
  2 19  1  0
  3  4  1  0
  4  5  2  0
  5  6  1  0
  5 18  1  0
  6  7  2  0
  6 17  1  0
  7  8  1  0
  8  9  2  0
  9 10  1  0
  9 16  1  0
 10 11  1  0
 10 12  2  0
 12 13  1  0
 13 14  1  0
 13 15  2  0
 15 16  1  0
 16 17  2  0
 18 19  2  0
 19 20  1  0
M  END
