
     RDKit          3D

 12 12  0  0  0  0  0  0  0  0999 V2000
   -3.2290    1.5300   -0.1010 O   0  0  0  0  0  0  0  0  0  0  0  0
   -2.1590    0.8920   -0.0110 C   0  0  0  0  0  0  0  0  0  0  0  0
   -2.0480   -0.2900   -0.6390 N   0  0  0  0  0  0  0  0  0  0  0  0
   -0.9240   -1.0080   -0.5720 C   0  0  0  0  0  0  0  0  0  0  0  0
   -0.8590   -2.1070   -1.1720 O   0  0  0  0  0  0  0  0  0  0  0  0
    0.1090   -0.5070    0.1540 N   0  0  0  0  0  0  0  0  0  0  0  0
    1.3420   -1.2470    0.2550 C   0  0  0  0  0  0  0  0  0  0  0  0
    2.4570   -0.7710   -1.0930 S   0  0  0  0  0  0  0  0  0  0  0  0
    2.9540    0.8780   -0.9170 O   0  0  0  0  0  0  0  0  0  0  0  0
    0.0360    0.6720    0.7970 C   0  0  0  0  0  0  0  0  0  0  0  0
    1.2980    1.2650    1.6730 S   0  0  0  0  0  0  0  0  0  0  0  0
   -1.1190    1.3580    0.6980 N   0  0  0  0  0  0  0  0  0  0  0  0
  1  2  2  0
  2  3  1  0
  2 12  1  0
  3  4  1  0
  4  5  2  0
  4  6  1  0
  6  7  1  0
  6 10  1  0
  7  8  1  0
  8  9  1  0
 10 11  2  0
 10 12  1  0
M  END
