
     RDKit          3D

 12 12  0  0  0  0  0  0  0  0999 V2000
   -1.4300    2.5830    1.4220 O   0  0  0  0  0  0  0  0  0  0  0  0
   -1.3920    1.4610    0.8480 C   0  0  0  0  0  0  0  0  0  0  0  0
   -0.3940    0.5960    1.1430 N   0  0  0  0  0  0  0  0  0  0  0  0
   -0.3030   -0.6130    0.5620 C   0  0  0  0  0  0  0  0  0  0  0  0
    1.0050   -1.7670    0.9370 S   0  0  0  0  0  0  0  0  0  0  0  0
    2.4340   -1.5440   -0.1500 C   0  0  0  0  0  0  0  0  0  0  0  0
    3.2530    0.0370    0.1180 S   0  0  0  0  0  0  0  0  0  0  0  0
    2.2410    1.3520   -0.3380 O   0  0  0  0  0  0  0  0  0  0  0  0
   -1.2670   -0.9230   -0.3380 N   0  0  0  0  0  0  0  0  0  0  0  0
   -2.2660   -0.0820   -0.6460 C   0  0  0  0  0  0  0  0  0  0  0  0
   -3.1680   -0.3800   -1.4920 O   0  0  0  0  0  0  0  0  0  0  0  0
   -2.3340    1.1160   -0.0540 N   0  0  0  0  0  0  0  0  0  0  0  0
  1  2  2  0
  2  3  1  0
  2 12  1  0
  3  4  2  0
  4  5  1  0
  4  9  1  0
  5  6  1  0
  6  7  1  0
  7  8  1  0
  9 10  1  0
 10 11  2  0
 10 12  1  0
M  END
