
     RDKit          3D

 12 12  0  0  0  0  0  0  0  0999 V2000
   -3.4410    0.4940   -0.5060 N   0  0  0  0  0  0  0  0  0  0  0  0
   -2.1460    0.1660   -0.2220 O   0  0  0  0  0  0  0  0  0  0  0  0
   -2.1830   -1.0650    0.3940 C   0  0  0  0  0  0  0  0  0  0  0  0
   -0.5900   -1.7240    0.8650 S   0  0  0  0  0  0  0  0  0  0  0  0
    0.7650   -0.6000    0.5970 C   0  0  0  0  0  0  0  0  0  0  0  0
    1.2070    0.2940    1.4940 N   0  0  0  0  0  0  0  0  0  0  0  0
    2.2380    1.1130    1.2240 N   0  0  0  0  0  0  0  0  0  0  0  0
    2.8870    1.0870    0.0460 C   0  0  0  0  0  0  0  0  0  0  0  0
    4.1500    2.1130   -0.2300 S   0  0  0  0  0  0  0  0  0  0  0  0
    2.4770    0.2060   -0.8820 N   0  0  0  0  0  0  0  0  0  0  0  0
    1.4340   -0.6260   -0.6170 C   0  0  0  0  0  0  0  0  0  0  0  0
    1.0340   -1.4660   -1.4840 O   0  0  0  0  0  0  0  0  0  0  0  0
  1  2  1  0
  2  3  1  0
  3  4  1  0
  4  5  1  0
  5  6  2  0
  5 11  1  0
  6  7  1  0
  7  8  1  0
  8  9  2  0
  8 10  1  0
 10 11  1  0
 11 12  2  0
M  END
