
     RDKit          3D

 13 13  0  0  0  0  0  0  0  0999 V2000
   -2.1650    1.0140    0.6530 N   0  0  0  0  0  0  0  0  0  0  0  0
   -2.7780   -0.2490    0.6650 C   0  0  0  0  0  0  0  0  0  0  0  0
   -3.7740   -0.5060    1.4040 O   0  0  0  0  0  0  0  0  0  0  0  0
   -2.2910   -1.3640   -0.1940 C   0  0  0  0  0  0  0  0  0  0  0  0
   -1.1580   -0.9550   -0.9870 N   0  0  0  0  0  0  0  0  0  0  0  0
    0.0550   -0.4960   -0.4030 C   0  0  0  0  0  0  0  0  0  0  0  0
    0.1360   -0.4460    0.8700 O   0  0  0  0  0  0  0  0  0  0  0  0
    1.1520   -0.0990   -1.1410 O   0  0  0  0  0  0  0  0  0  0  0  0
    2.3400    0.3520   -0.5210 C   0  0  0  0  0  0  0  0  0  0  0  0
    2.5120    0.4350    0.6990 N   0  0  0  0  0  0  0  0  0  0  0  0
    3.6430    0.8630    1.3070 N   0  0  0  0  0  0  0  0  0  0  0  0
    4.6900    1.7900    0.2130 S   0  0  0  0  0  0  0  0  0  0  0  0
    3.7420    0.8590   -1.5100 S   0  0  0  0  0  0  0  0  0  0  0  0
  1  2  1  0
  2  3  2  0
  2  4  1  0
  4  5  1  0
  5  6  1  0
  6  7  2  0
  6  8  1  0
  8  9  1  0
  9 10  2  0
  9 13  1  0
 10 11  1  0
 11 12  1  0
 12 13  1  0
M  END
