
     RDKit          3D

 15 15  0  0  0  0  0  0  0  0999 V2000
    0.7850    2.8500   -0.5740 C   0  0  0  0  0  0  0  0  0  0  0  0
   -0.3870    2.0080   -0.8650 C   0  0  0  0  0  0  0  0  0  0  0  0
   -1.3430    2.6650   -1.4910 O   0  0  0  0  0  0  0  0  0  0  0  0
   -0.6250    0.6460   -0.5790 C   0  0  0  0  0  0  0  0  0  0  0  0
    0.1330   -0.2350    0.0230 C   0  0  0  0  0  0  0  0  0  0  0  0
    1.4630    0.0030    0.5660 C   0  0  0  0  0  0  0  0  0  0  0  0
    2.4700   -0.9090   -0.1550 C   0  0  0  0  0  0  0  0  0  0  0  0
    3.7800   -0.6420    0.4120 N   0  0  0  0  0  0  0  0  0  0  0  0
    4.6980   -0.2310   -0.3170 O   0  0  0  0  0  0  0  0  0  0  0  0
    3.9660   -0.8590    1.7680 O   0  0  0  0  0  0  0  0  0  0  0  0
   -0.4760   -1.6430    0.1280 C   0  0  0  0  0  0  0  0  0  0  0  0
   -1.8280   -1.5810    0.7590 C   0  0  0  0  0  0  0  0  0  0  0  0
   -2.5670   -0.3630    0.3060 C   0  0  2  0  0  0  0  0  0  0  0  0
   -3.9460   -0.5520    0.2560 O   0  0  0  0  0  0  0  0  0  0  0  0
   -2.0030    0.0760   -1.0210 C   0  0  0  0  0  0  0  0  0  0  0  0
  1  2  1  0
  2  3  2  0
  2  4  1  0
  4  5  2  0
  4 15  1  0
  5  6  1  0
  5 11  1  0
  6  7  1  0
  7  8  1  0
  8  9  2  0
  8 10  1  0
 11 12  1  0
 12 13  1  0
 13 14  1  6
 13 15  1  0
M  CHG  2   8   1  10  -1
M  END
