
     RDKit          3D

 15 15  0  0  0  0  0  0  0  0999 V2000
   -2.4850   -0.7970   -0.7280 C   0  0  0  0  0  0  0  0  0  0  0  0
   -1.9500   -0.2230    0.5450 C   0  0  1  0  0  0  0  0  0  0  0  0
   -2.5480   -0.9870    1.6960 C   0  0  0  0  0  0  0  0  0  0  0  0
   -0.4410   -0.3560    0.6590 C   0  0  0  0  0  0  0  0  0  0  0  0
    0.1450    0.3330   -0.5520 C   0  0  2  0  0  0  0  0  0  0  0  0
    1.6450    0.1480   -0.6320 C   0  0  2  0  0  0  0  0  0  0  0  0
    1.9800   -1.3320   -0.7260 C   0  0  0  0  0  0  0  0  0  0  0  0
    1.3770   -1.8960   -1.8660 O   0  0  0  0  0  0  0  0  0  0  0  0
    2.3630    0.7520    0.5220 C   0  0  0  0  0  0  0  0  0  0  0  0
    3.7960    0.6150    0.5070 N   0  0  0  0  0  0  0  0  0  0  0  0
    4.5510    1.6400    0.4070 O   0  0  0  0  0  0  0  0  0  0  0  0
    4.4650   -0.5630    0.5920 O   0  0  0  0  0  0  0  0  0  0  0  0
   -0.2880    1.7550   -0.5510 C   0  0  0  0  0  0  0  0  0  0  0  0
   -1.7620    1.9260   -0.3090 C   0  0  0  0  0  0  0  0  0  0  0  0
   -2.2500    1.1100    0.6960 O   0  0  0  0  0  0  0  0  0  0  0  0
  2  1  1  6
  2  3  1  0
  2  4  1  0
  2 15  1  0
  5  4  1  1
  5  6  1  0
  5 13  1  0
  6  7  1  1
  6  9  1  0
  7  8  1  0
  9 10  1  0
 10 11  2  0
 10 12  1  0
 13 14  1  0
 14 15  1  0
M  CHG  2  10   1  12  -1
M  END
