
     RDKit          3D

 15 15  0  0  0  0  0  0  0  0999 V2000
   -3.6880    0.6230    0.5140 C   0  0  0  0  0  0  0  0  0  0  0  0
   -2.8850   -0.6500    0.5250 C   0  0  0  0  0  0  0  0  0  0  0  0
   -1.8040   -0.6540   -0.5130 C   0  0  2  0  0  0  0  0  0  0  0  0
   -1.0590   -1.9730   -0.4170 C   0  0  0  0  0  0  0  0  0  0  0  0
    0.0370   -1.5930    0.5110 C   0  0  0  0  0  0  0  0  0  0  0  0
    0.6280   -2.3810    1.2960 O   0  0  0  0  0  0  0  0  0  0  0  0
    0.2800   -0.1720    0.3340 C   0  0  0  0  0  0  0  0  0  0  0  0
    1.4940    0.5380    0.7400 C   0  0  0  0  0  0  0  0  0  0  0  0
    2.7400    0.0050    0.0600 C   0  0  0  0  0  0  0  0  0  0  0  0
    3.9050    0.8200    0.5640 C   0  0  0  0  0  0  0  0  0  0  0  0
    5.1140    0.4290    0.0140 O   0  0  0  0  0  0  0  0  0  0  0  0
   -0.7650    0.3760   -0.2500 C   0  0  0  0  0  0  0  0  0  0  0  0
   -0.9280    1.7460   -0.6010 N   0  0  0  0  0  0  0  0  0  0  0  0
   -1.3150    2.0390   -1.7290 O   0  0  0  0  0  0  0  0  0  0  0  0
   -0.6630    2.7320    0.2940 O   0  0  0  0  0  0  0  0  0  0  0  0
  1  2  1  0
  3  2  1  1
  3  4  1  0
  3 12  1  0
  4  5  1  0
  5  6  2  0
  5  7  1  0
  7  8  1  0
  7 12  2  0
  8  9  1  0
  9 10  1  0
 10 11  1  0
 12 13  1  0
 13 14  2  0
 13 15  1  0
M  CHG  2  13   1  15  -1
M  END
