
     RDKit          3D

 20 20  0  0  0  0  0  0  0  0999 V2000
   -4.7300   -1.0540   -1.4330 C   0  0  0  0  0  0  0  0  0  0  0  0
   -4.9540   -0.1620   -0.2490 C   0  0  2  0  0  0  0  0  0  0  0  0
   -5.8510    0.9690   -0.6590 C   0  0  0  0  0  0  0  0  0  0  0  0
   -3.6440    0.3970    0.2480 C   0  0  0  0  0  0  0  0  0  0  0  0
   -2.6940   -0.7030    0.6690 C   0  0  2  0  0  0  0  0  0  0  0  0
   -3.2480   -1.5460    1.7690 C   0  0  0  0  0  0  0  0  0  0  0  0
   -1.4160   -0.1050    0.9880 N   0  0  0  0  0  0  0  0  0  0  0  0
   -0.2410   -0.3670    0.2260 C   0  0  0  0  0  0  0  0  0  0  0  0
   -0.3280   -1.1310   -0.7360 O   0  0  0  0  0  0  0  0  0  0  0  0
    1.0090    0.2280    0.5520 N   0  0  0  0  0  0  0  0  0  0  0  0
    2.2340   -0.0030   -0.1810 C   0  0  1  0  0  0  0  0  0  0  0  0
    3.3010    0.8200    0.4640 C   0  0  2  0  0  0  0  0  0  0  0  0
    2.9280    2.1590    0.4000 O   0  0  0  0  0  0  0  0  0  0  0  0
    4.6730    0.6730   -0.0580 C   0  0  0  0  0  0  0  0  0  0  0  0
    5.5090    1.5910    0.7620 C   0  0  0  0  0  0  0  0  0  0  0  0
    5.5690    1.4000    2.1000 O   0  0  0  0  0  0  0  0  0  0  0  0
    2.5860   -1.4640   -0.2650 C   0  0  0  0  0  0  0  0  0  0  0  0
    3.0530   -1.6270   -1.6750 C   0  0  0  0  0  0  0  0  0  0  0  0
    3.2000   -0.3280   -2.1910 O   0  0  0  0  0  0  0  0  0  0  0  0
    2.1460    0.3790   -1.6220 C   0  0  0  0  0  0  0  0  0  0  0  0
  2  1  1  6
  2  3  1  0
  2  4  1  0
  4  5  1  0
  5  6  1  1
  5  7  1  0
  7  8  1  0
  8  9  2  0
  8 10  1  0
 11 10  1  1
 11 12  1  0
 11 17  1  0
 11 20  1  0
 12 13  1  6
 12 14  1  0
 14 15  1  0
 15 16  1  0
 17 18  1  0
 18 19  1  0
 19 20  1  0
M  END
