
     RDKit          3D

 20 21  0  0  0  0  0  0  0  0999 V2000
    3.8180    1.3660   -2.4080 C   0  0  0  0  0  0  0  0  0  0  0  0
    3.2940    1.4310   -1.0290 N   0  0  0  0  0  0  0  0  0  0  0  0
    3.3660    0.3670   -0.1760 C   0  0  0  0  0  0  0  0  0  0  0  0
    2.3530   -0.3430    0.4610 C   0  0  0  0  0  0  0  0  0  0  0  0
    2.9160   -1.3710    1.2630 C   0  0  0  0  0  0  0  0  0  0  0  0
    2.4510   -2.4440    2.1170 C   0  0  0  0  0  0  0  0  0  0  0  0
    4.2750   -1.3920    1.2510 O   0  0  0  0  0  0  0  0  0  0  0  0
    1.0560    0.0490    0.1150 C   0  0  0  0  0  0  0  0  0  0  0  0
    1.2070    1.0820   -1.0040 O   0  0  0  0  0  0  0  0  0  0  0  0
   -0.2200   -0.0850    0.3080 C   0  0  0  0  0  0  0  0  0  0  0  0
   -0.9150   -0.9390    1.2180 C   0  0  0  0  0  0  0  0  0  0  0  0
   -0.4860   -1.8480    2.2020 N   0  0  0  0  0  0  0  0  0  0  0  0
   -2.2180   -0.9450    1.2030 O   0  0  0  0  0  0  0  0  0  0  0  0
   -1.1130    0.8440   -0.4500 C   0  0  0  0  0  0  0  0  0  0  0  0
   -0.4550    1.7030   -1.1870 O   0  0  0  0  0  0  0  0  0  0  0  0
   -2.5210    1.0000   -0.5470 C   0  0  2  0  0  0  0  0  0  0  0  0
   -3.2300    1.3060    0.7130 C   0  0  0  0  0  0  0  0  0  0  0  0
   -4.5200    0.9590    0.5990 C   0  0  0  0  0  0  0  0  0  0  0  0
   -4.7640    0.3820   -0.7700 C   0  0  0  0  0  0  0  0  0  0  0  0
   -3.3670   -0.0080   -1.2320 C   0  0  0  0  0  0  0  0  0  0  0  0
  1  2  1  0
  2  3  1  0
  3  4  2  3
  4  5  1  0
  4  8  1  0
  5  6  1  0
  5  7  2  0
  8  9  1  0
  8 10  2  0
 10 11  1  0
 10 14  1  0
 11 12  1  0
 11 13  2  0
 14 15  2  0
 16 14  1  1
 16 17  1  0
 16 20  1  0
 17 18  2  0
 18 19  1  0
 19 20  1  0
 15  9  1  0
M  END
