
     RDKit          3D

 20 20  0  0  0  0  0  0  0  0999 V2000
   -0.4740    4.0050    0.3490 C   0  0  0  0  0  0  0  0  0  0  0  0
   -0.5670    2.7890   -0.3240 O   0  0  0  0  0  0  0  0  0  0  0  0
   -1.1370    1.7860    0.4670 C   0  0  0  0  0  0  0  0  0  0  0  0
   -1.2140    0.5490   -0.4560 C   0  0  1  0  0  0  0  0  0  0  0  0
   -2.0300    1.1180   -1.5380 O   0  0  0  0  0  0  0  0  0  0  0  0
    0.0610    0.2580   -1.0680 C   0  0  0  0  0  0  0  0  0  0  0  0
    1.2300   -0.0320   -0.2250 C   0  0  0  0  0  0  0  0  0  0  0  0
    1.0850   -0.2380    0.9980 O   0  0  0  0  0  0  0  0  0  0  0  0
    2.5530   -0.0910   -0.7400 N   0  0  0  0  0  0  0  0  0  0  0  0
    3.7160   -0.3830   -0.0020 C   0  0  0  0  0  0  0  0  0  0  0  0
    4.0050    0.4380    1.1990 C   0  0  0  0  0  0  0  0  0  0  0  0
    4.5650   -1.3360   -0.2880 C   0  0  0  0  0  0  0  0  0  0  0  0
    4.2950   -2.1590   -1.4490 N   0  0  0  0  0  0  0  0  0  0  0  0
   -2.0340   -0.4610    0.2370 C   0  0  1  0  0  0  0  0  0  0  0  0
   -1.5790   -0.9490    1.5500 C   0  0  0  0  0  0  0  0  0  0  0  0
   -1.1480   -2.3680    1.7930 C   0  0  0  0  0  0  0  0  0  0  0  0
   -1.5630   -0.1710    2.4950 O   0  0  0  0  0  0  0  0  0  0  0  0
   -3.5600   -0.2100    0.1790 C   0  0  0  0  0  0  0  0  0  0  0  0
   -2.9100   -1.3960   -0.5160 C   0  0  1  0  0  0  0  0  0  0  0  0
   -3.0480   -1.3930   -1.9850 C   0  0  0  0  0  0  0  0  0  0  0  0
  1  2  1  0
  2  3  1  0
  3  4  1  0
  4  5  1  6
  4  6  1  0
  4 14  1  0
  6  7  1  0
  7  8  2  0
  7  9  1  0
  9 10  1  0
 10 11  1  0
 10 12  2  3
 12 13  1  0
 14 15  1  1
 14 18  1  0
 14 19  1  0
 15 16  1  0
 15 17  2  0
 18 19  1  0
 19 20  1  6
M  END
