
     RDKit          3D

 20 20  0  0  0  0  0  0  0  0999 V2000
    3.1670    3.1420    1.6720 C   0  0  0  0  0  0  0  0  0  0  0  0
    2.5170    1.7890    1.5770 C   0  0  0  0  0  0  0  0  0  0  0  0
    3.1130    0.8520    0.9040 C   0  0  0  0  0  0  0  0  0  0  0  0
    4.4210    0.9160    0.1690 C   0  0  0  0  0  0  0  0  0  0  0  0
    4.9300   -0.4260    0.5250 N   0  0  0  0  0  0  0  0  0  0  0  0
    3.7770   -1.2460    0.4880 C   0  0  0  0  0  0  0  0  0  0  0  0
    2.6640   -0.5100    0.7070 C   0  0  0  0  0  0  0  0  0  0  0  0
    1.3530   -1.1140    0.7200 C   0  0  0  0  0  0  0  0  0  0  0  0
    1.2520   -2.3870    0.5570 O   0  0  0  0  0  0  0  0  0  0  0  0
    0.1090   -0.4810    0.8900 N   0  0  0  0  0  0  0  0  0  0  0  0
   -1.1590   -1.1860    0.8960 C   0  0  1  0  0  0  0  0  0  0  0  0
   -1.8820   -1.0410    2.2110 C   0  0  0  0  0  0  0  0  0  0  0  0
   -2.0820   -0.7430   -0.2200 C   0  0  1  0  0  0  0  0  0  0  0  0
   -3.3550   -1.5340   -0.0400 C   0  0  0  0  0  0  0  0  0  0  0  0
   -2.3960    0.5980   -0.1550 O   0  0  0  0  0  0  0  0  0  0  0  0
   -1.5240   -1.0250   -1.5720 C   0  0  0  0  0  0  0  0  0  0  0  0
   -2.4650   -0.5560   -2.6120 C   0  0  0  0  0  0  0  0  0  0  0  0
   -3.3300   -1.2800   -3.1650 O   0  0  0  0  0  0  0  0  0  0  0  0
   -2.4420    0.7840   -3.0570 O   0  0  0  0  0  0  0  0  0  0  0  0
   -3.3310    1.2560   -4.0490 C   0  0  0  0  0  0  0  0  0  0  0  0
  1  2  1  0
  2  3  2  3
  3  4  1  0
  3  7  1  0
  4  5  1  0
  5  6  1  0
  6  7  2  0
  7  8  1  0
  8  9  2  0
  8 10  1  0
 10 11  1  0
 11 12  1  1
 11 13  1  0
 13 14  1  1
 13 15  1  0
 13 16  1  0
 16 17  1  0
 17 18  2  0
 17 19  1  0
 19 20  1  0
M  END
