
     RDKit          3D

 17 18  0  0  0  0  0  0  0  0999 V2000
   -2.6250   -1.9510    0.9510 C   0  0  0  0  0  0  0  0  0  0  0  0
   -2.8730   -0.5030    0.7420 C   0  0  0  0  0  0  0  0  0  0  0  0
   -2.0260    0.2680    0.0690 C   0  0  0  0  0  0  0  0  0  0  0  0
   -2.3430    1.7120   -0.0980 C   0  0  0  0  0  0  0  0  0  0  0  0
   -1.5480    2.3150   -1.1460 N   0  0  0  0  0  0  0  0  0  0  0  0
   -0.3930    1.7520   -1.7080 C   0  0  0  0  0  0  0  0  0  0  0  0
    0.1110    2.2790   -2.7330 O   0  0  0  0  0  0  0  0  0  0  0  0
    0.1920    0.5390   -1.0550 C   0  0  1  0  0  0  0  0  0  0  0  0
    1.1950    0.9130   -0.0810 N   0  0  0  0  0  0  0  0  0  0  0  0
    2.1900    0.1890    0.2760 C   0  0  0  0  0  0  0  0  0  0  0  0
    3.2110    0.5400    1.2520 C   0  0  0  0  0  0  0  0  0  0  0  0
    3.3400    1.5820    1.9310 O   0  0  0  0  0  0  0  0  0  0  0  0
    4.1130   -0.5660    1.3240 N   0  0  0  0  0  0  0  0  0  0  0  0
    3.7360   -1.5830    0.4690 N   0  0  0  0  0  0  0  0  0  0  0  0
    2.5350   -1.1380   -0.2010 C   0  0  0  0  0  0  0  0  0  0  0  0
    1.9150   -1.8090   -1.0490 O   0  0  0  0  0  0  0  0  0  0  0  0
   -0.8390   -0.2900   -0.4760 N   0  0  0  0  0  0  0  0  0  0  0  0
  1  2  1  0
  2  3  2  3
  3  4  1  0
  3 17  1  0
  4  5  1  0
  5  6  1  0
  6  7  2  0
  6  8  1  0
  8  9  1  1
  8 17  1  0
  9 10  2  3
 10 11  1  0
 10 15  1  0
 11 12  2  0
 11 13  1  0
 13 14  1  0
 14 15  1  0
 15 16  2  0
M  END
