
     RDKit          3D

 17 18  0  0  0  0  0  0  0  0999 V2000
   -1.7710    2.8040   -0.9540 O   0  0  0  0  0  0  0  0  0  0  0  0
   -1.4810    1.6270   -0.6310 C   0  0  0  0  0  0  0  0  0  0  0  0
   -0.7980    0.6980   -1.4780 N   0  0  0  0  0  0  0  0  0  0  0  0
   -0.4140   -0.3890   -0.6190 C   0  0  1  0  0  0  0  0  0  0  0  0
    1.0100   -0.4040   -0.2390 C   0  0  0  0  0  0  0  0  0  0  0  0
    1.6830   -1.5500   -0.4160 C   0  0  0  0  0  0  0  0  0  0  0  0
    3.0330   -1.8810   -0.1520 N   0  0  0  0  0  0  0  0  0  0  0  0
    3.9730   -1.1060    0.2000 C   0  0  0  0  0  0  0  0  0  0  0  0
    4.1400    0.3210    0.4780 C   0  0  0  0  0  0  0  0  0  0  0  0
    3.0070    1.1560    0.3470 N   0  0  0  0  0  0  0  0  0  0  0  0
    1.6160    0.7950    0.3070 C   0  0  0  0  0  0  0  0  0  0  0  0
    0.8010    1.6060    0.8050 O   0  0  0  0  0  0  0  0  0  0  0  0
   -1.3130   -0.3790    0.5220 N   0  0  0  0  0  0  0  0  0  0  0  0
   -2.5210   -1.1330    0.2470 C   0  0  0  0  0  0  0  0  0  0  0  0
   -3.4830   -0.4610   -0.6820 C   0  0  0  0  0  0  0  0  0  0  0  0
   -3.9450    0.7510   -0.1550 O   0  0  0  0  0  0  0  0  0  0  0  0
   -1.7460    0.9700    0.6130 N   0  0  0  0  0  0  0  0  0  0  0  0
  1  2  2  0
  2  3  1  0
  2 17  1  0
  3  4  1  0
  4  5  1  1
  4 13  1  0
  5  6  2  0
  5 11  1  0
  6  7  1  0
  7  8  2  0
  8  9  1  0
  9 10  1  0
 10 11  1  0
 11 12  2  0
 13 14  1  0
 13 17  1  0
 14 15  1  0
 15 16  1  0
M  END
