
     RDKit          3D

 17 19  0  0  0  0  0  0  0  0999 V2000
    4.7930    0.7990   -0.2150 N   0  0  0  0  0  0  0  0  0  0  0  0
    3.6650   -0.0320   -0.0550 C   0  0  0  0  0  0  0  0  0  0  0  0
    3.8470   -1.3290    0.2550 N   0  0  0  0  0  0  0  0  0  0  0  0
    2.8000   -2.1560    0.4170 C   0  0  0  0  0  0  0  0  0  0  0  0
    1.5760   -1.6570    0.2630 N   0  0  0  0  0  0  0  0  0  0  0  0
    1.3360   -0.3610   -0.0480 C   0  0  0  0  0  0  0  0  0  0  0  0
    2.3920    0.4870   -0.2150 C   0  0  0  0  0  0  0  0  0  0  0  0
    1.8820    1.6900   -0.5120 N   0  0  0  0  0  0  0  0  0  0  0  0
    0.5350    1.6120   -0.5350 C   0  0  0  0  0  0  0  0  0  0  0  0
    0.2030    0.3460   -0.2480 N   0  0  0  0  0  0  0  0  0  0  0  0
   -1.1080   -0.2050   -0.1590 C   0  0  2  0  0  0  0  0  0  0  0  0
   -1.7340   -0.4190   -1.3530 O   0  0  0  0  0  0  0  0  0  0  0  0
   -3.0870   -0.3210   -1.1980 C   0  0  0  0  0  0  0  0  0  0  0  0
   -3.3760   -0.0230    0.2580 C   0  0  1  0  0  0  0  0  0  0  0  0
   -3.4500   -1.2550    0.9190 O   0  0  0  0  0  0  0  0  0  0  0  0
   -2.0660    0.6810    0.6440 C   0  0  1  0  0  0  0  0  0  0  0  0
   -1.8250    0.6300    1.9910 O   0  0  0  0  0  0  0  0  0  0  0  0
  1  2  1  0
  2  3  2  0
  2  7  1  0
  3  4  1  0
  4  5  2  0
  5  6  1  0
  6  7  2  0
  6 10  1  0
  7  8  1  0
  8  9  2  0
  9 10  1  0
 11 10  1  6
 11 12  1  0
 11 16  1  0
 12 13  1  0
 13 14  1  0
 14 15  1  1
 14 16  1  0
 16 17  1  1
M  END
