
     RDKit          3D

 11 12  0  0  0  0  0  0  0  0999 V2000
   -2.5870   -1.9070   -0.4960 O   0  0  0  0  0  0  0  0  0  0  0  0
   -1.6880   -1.0480   -0.2600 C   0  0  0  0  0  0  0  0  0  0  0  0
   -2.0370    0.1930    0.1550 N   0  0  0  0  0  0  0  0  0  0  0  0
   -1.1470    1.1550    0.4240 C   0  0  0  0  0  0  0  0  0  0  0  0
   -1.4580    2.3100    0.8110 O   0  0  0  0  0  0  0  0  0  0  0  0
    0.2080    0.8860    0.2760 C   0  0  0  0  0  0  0  0  0  0  0  0
    1.3450    1.5860    0.4500 N   0  0  0  0  0  0  0  0  0  0  0  0
    2.4120    0.8200    0.1540 C   0  0  0  0  0  0  0  0  0  0  0  0
    1.9230   -0.3780   -0.2090 N   0  0  0  0  0  0  0  0  0  0  0  0
    0.5720   -0.3770   -0.1470 C   0  0  0  0  0  0  0  0  0  0  0  0
   -0.3720   -1.3160   -0.4070 N   0  0  0  0  0  0  0  0  0  0  0  0
  1  2  2  0
  2  3  1  0
  2 11  1  0
  3  4  1  0
  4  5  2  0
  4  6  1  0
  6  7  1  0
  6 10  2  0
  7  8  2  0
  8  9  1  0
  9 10  1  0
 10 11  1  0
M  END
