
     RDKit          3D

 11 12  0  0  0  0  0  0  0  0999 V2000
    3.2620   -0.4430    0.3310 O   0  0  0  0  0  0  0  0  0  0  0  0
    2.0310   -0.2050    0.1950 C   0  0  0  0  0  0  0  0  0  0  0  0
    1.6940    1.0760   -0.0440 N   0  0  0  0  0  0  0  0  0  0  0  0
    0.3860    1.3620   -0.1940 C   0  0  0  0  0  0  0  0  0  0  0  0
    0.0080    2.5240   -0.4160 O   0  0  0  0  0  0  0  0  0  0  0  0
   -0.5820    0.3760   -0.1080 C   0  0  0  0  0  0  0  0  0  0  0  0
   -1.9260    0.3580   -0.2120 N   0  0  0  0  0  0  0  0  0  0  0  0
   -2.3670   -0.9010   -0.0390 C   0  0  0  0  0  0  0  0  0  0  0  0
   -1.3130   -1.7090    0.1780 N   0  0  0  0  0  0  0  0  0  0  0  0
   -0.2130   -0.9310    0.1370 C   0  0  0  0  0  0  0  0  0  0  0  0
    1.1080   -1.1920    0.2850 N   0  0  0  0  0  0  0  0  0  0  0  0
  1  2  2  0
  2  3  1  0
  2 11  1  0
  3  4  1  0
  4  5  2  0
  4  6  1  0
  6  7  1  0
  6 10  2  0
  7  8  1  0
  8  9  2  0
  9 10  1  0
 10 11  1  0
M  END
