
     RDKit          3D

 11 12  0  0  0  0  0  0  0  0999 V2000
   -2.8110   -1.5510    0.1240 O   0  0  0  0  0  0  0  0  0  0  0  0
   -1.7620   -0.8450    0.0690 C   0  0  0  0  0  0  0  0  0  0  0  0
   -1.8280    0.5060   -0.0170 N   0  0  0  0  0  0  0  0  0  0  0  0
   -0.7420    1.2890   -0.0760 C   0  0  0  0  0  0  0  0  0  0  0  0
   -0.8090    2.5530   -0.1570 O   0  0  0  0  0  0  0  0  0  0  0  0
    0.5140    0.7280   -0.0510 C   0  0  0  0  0  0  0  0  0  0  0  0
    1.7900    1.2500   -0.0960 C   0  0  0  0  0  0  0  0  0  0  0  0
    2.6070    0.1850   -0.0340 N   0  0  0  0  0  0  0  0  0  0  0  0
    1.9010   -0.9330    0.0430 N   0  0  0  0  0  0  0  0  0  0  0  0
    0.5800   -0.6670    0.0380 C   0  0  0  0  0  0  0  0  0  0  0  0
   -0.5430   -1.4060    0.0950 N   0  0  0  0  0  0  0  0  0  0  0  0
  1  2  2  0
  2  3  1  0
  2 11  1  0
  3  4  1  0
  4  5  2  0
  4  6  1  0
  6  7  1  0
  6 10  2  0
  7  8  2  0
  8  9  1  0
  9 10  1  0
 10 11  1  0
M  END
