
     RDKit          3D

 11 12  0  0  0  0  0  0  0  0999 V2000
   -1.1530    2.6210    0.2070 O   0  0  0  0  0  0  0  0  0  0  0  0
   -0.9580    1.3830    0.1140 C   0  0  0  0  0  0  0  0  0  0  0  0
   -2.0370    0.5850    0.0720 N   0  0  0  0  0  0  0  0  0  0  0  0
   -1.8230   -0.7130   -0.0260 N   0  0  0  0  0  0  0  0  0  0  0  0
   -0.6030   -1.2700   -0.0840 C   0  0  0  0  0  0  0  0  0  0  0  0
   -0.4260   -2.5170   -0.1770 O   0  0  0  0  0  0  0  0  0  0  0  0
    0.5340   -0.4940   -0.0440 C   0  0  0  0  0  0  0  0  0  0  0  0
    1.8490   -0.7630   -0.0820 N   0  0  0  0  0  0  0  0  0  0  0  0
    2.4940    0.4210   -0.0050 C   0  0  0  0  0  0  0  0  0  0  0  0
    1.5620    1.4070    0.0800 N   0  0  0  0  0  0  0  0  0  0  0  0
    0.3210    0.8730    0.0590 C   0  0  0  0  0  0  0  0  0  0  0  0
  1  2  2  0
  2  3  1  0
  2 11  1  0
  3  4  1  0
  4  5  1  0
  5  6  2  0
  5  7  1  0
  7  8  1  0
  7 11  2  0
  8  9  1  0
  9 10  2  0
 10 11  1  0
M  END
