
     RDKit          3D

 11 12  0  0  0  0  0  0  0  0999 V2000
   -3.1430   -1.0900   -0.0230 O   0  0  0  0  0  0  0  0  0  0  0  0
   -1.9790   -0.6060   -0.0140 C   0  0  0  0  0  0  0  0  0  0  0  0
   -1.8860    0.7430   -0.0020 N   0  0  0  0  0  0  0  0  0  0  0  0
   -0.6420    1.2520    0.0080 C   0  0  0  0  0  0  0  0  0  0  0  0
   -0.5000    2.4980    0.0190 O   0  0  0  0  0  0  0  0  0  0  0  0
    0.4990    0.4860    0.0060 C   0  0  0  0  0  0  0  0  0  0  0  0
    1.8570    0.7320    0.0140 C   0  0  0  0  0  0  0  0  0  0  0  0
    2.5260   -0.4350    0.0070 N   0  0  0  0  0  0  0  0  0  0  0  0
    1.6170   -1.3960   -0.0050 N   0  0  0  0  0  0  0  0  0  0  0  0
    0.3770   -0.9010   -0.0060 C   0  0  0  0  0  0  0  0  0  0  0  0
   -0.8770   -1.3770   -0.0160 N   0  0  0  0  0  0  0  0  0  0  0  0
  1  2  2  0
  2  3  1  0
  2 11  1  0
  3  4  1  0
  4  5  2  0
  4  6  1  0
  6  7  2  0
  6 10  1  0
  7  8  1  0
  8  9  1  0
  9 10  2  0
 10 11  1  0
M  END
