
     RDKit          3D

 16 17  0  0  0  0  0  0  0  0999 V2000
   -2.3490   -1.2380    1.9730 C   0  0  0  0  0  0  0  0  0  0  0  0
   -1.7860   -0.8030    0.6420 C   0  0  0  0  0  0  0  0  0  0  0  0
   -0.8930    0.4040    0.7950 C   0  0  0  0  0  0  0  0  0  0  0  0
   -0.3250    0.8730   -0.5080 C   0  0  0  0  0  0  0  0  0  0  0  0
   -0.9660    1.7000   -1.4060 C   0  0  0  0  0  0  0  0  0  0  0  0
   -2.2740    2.2890   -1.2900 C   0  0  0  0  0  0  0  0  0  0  0  0
   -3.1790    2.1930   -0.2340 N   0  0  0  0  0  0  0  0  0  0  0  0
   -2.6990    3.0120   -2.2790 O   0  0  0  0  0  0  0  0  0  0  0  0
   -0.0830    1.8540   -2.4300 N   0  0  0  0  0  0  0  0  0  0  0  0
    1.0090    1.1780   -2.1820 N   0  0  0  0  0  0  0  0  0  0  0  0
    0.9180    0.5300   -0.9740 C   0  0  0  0  0  0  0  0  0  0  0  0
    1.9390   -0.3630   -0.4480 C   0  0  0  0  0  0  0  0  0  0  0  0
    1.9030   -1.1960    0.5610 C   0  0  0  0  0  0  0  0  0  0  0  0
    3.2070   -1.9160    0.7410 C   0  0  0  0  0  0  0  0  0  0  0  0
    4.0000   -1.3470   -0.3450 C   0  0  0  0  0  0  0  0  0  0  0  0
    3.3120   -0.4730   -1.0270 C   0  0  0  0  0  0  0  0  0  0  0  0
  1  2  1  0
  2  3  1  0
  3  4  1  0
  4  5  1  0
  4 11  2  0
  5  6  1  0
  5  9  2  0
  6  7  1  0
  6  8  2  0
  9 10  1  0
 10 11  1  0
 11 12  1  0
 12 13  2  0
 12 16  1  0
 13 14  1  0
 14 15  1  0
 15 16  2  0
M  END
