
     RDKit          3D

 21 23  0  0  0  0  0  0  0  0999 V2000
    6.9120    0.2780    0.3540 C   0  0  0  0  0  0  0  0  0  0  0  0
    5.5020    0.7120    0.2380 C   0  0  0  0  0  0  0  0  0  0  0  0
    4.5360   -0.1630    0.3090 C   0  0  0  0  0  0  0  0  0  0  0  0
    3.1230    0.3190    0.1880 C   0  0  0  0  0  0  0  0  0  0  0  0
    2.2150   -0.5910    0.2650 C   0  0  0  0  0  0  0  0  0  0  0  0
    0.7680   -0.4580    0.1870 C   0  0  0  0  0  0  0  0  0  0  0  0
    0.0210   -1.6200    0.3040 N   0  0  0  0  0  0  0  0  0  0  0  0
   -1.3070   -1.5640    0.2400 C   0  0  0  0  0  0  0  0  0  0  0  0
   -2.0940   -2.7110    0.3530 C   0  0  0  0  0  0  0  0  0  0  0  0
   -1.4740   -3.7890    0.5170 O   0  0  0  0  0  0  0  0  0  0  0  0
   -3.4170   -2.6020    0.2830 N   0  0  0  0  0  0  0  0  0  0  0  0
   -4.0400   -1.4130    0.1050 C   0  0  0  0  0  0  0  0  0  0  0  0
   -5.3040   -1.3270    0.0410 O   0  0  0  0  0  0  0  0  0  0  0  0
   -3.3360   -0.2760   -0.0100 N   0  0  0  0  0  0  0  0  0  0  0  0
   -3.9830    1.0170   -0.2030 C   0  0  2  0  0  0  0  0  0  0  0  0
   -3.4450    2.1510    0.5890 C   0  0  0  0  0  0  0  0  0  0  0  0
   -4.8510    1.6110    0.8060 C   0  0  0  0  0  0  0  0  0  0  0  0
   -1.9930   -0.3720    0.0590 C   0  0  0  0  0  0  0  0  0  0  0  0
   -1.2960    0.7580   -0.0560 N   0  0  0  0  0  0  0  0  0  0  0  0
    0.0730    0.6950    0.0100 C   0  0  0  0  0  0  0  0  0  0  0  0
    0.9560    2.2240   -0.1470 Cl  0  0  0  0  0  0  0  0  0  0  0  0
  1  2  1  0
  2  3  2  3
  3  4  1  0
  4  5  2  3
  5  6  1  0
  6  7  2  0
  6 20  1  0
  7  8  1  0
  8  9  1  0
  8 18  2  0
  9 10  2  0
  9 11  1  0
 11 12  1  0
 12 13  2  0
 12 14  1  0
 15 14  1  1
 14 18  1  0
 15 16  1  0
 15 17  1  0
 16 17  1  0
 18 19  1  0
 19 20  2  0
 20 21  1  0
M  END
