
     RDKit          3D

 21 23  0  0  0  0  0  0  0  0999 V2000
    4.9190   -0.0400   -1.0370 C   0  0  0  0  0  0  0  0  0  0  0  0
    3.8500    0.2330   -0.0370 C   0  0  0  0  0  0  0  0  0  0  0  0
    2.5440    0.1260   -0.3560 N   0  0  0  0  0  0  0  0  0  0  0  0
    1.5820    0.3740    0.5530 C   0  0  0  0  0  0  0  0  0  0  0  0
    0.2230    0.2430    0.1510 N   0  0  0  0  0  0  0  0  0  0  0  0
   -0.6240    1.2070   -0.1750 C   0  0  0  0  0  0  0  0  0  0  0  0
   -0.3580    2.4500   -0.1840 O   0  0  0  0  0  0  0  0  0  0  0  0
   -1.8240    0.6700   -0.5000 N   0  0  0  0  0  0  0  0  0  0  0  0
   -2.9950    1.3750   -0.9060 C   0  0  0  0  0  0  0  0  0  0  0  0
   -3.8870    1.7660    0.2470 C   0  0  0  0  0  0  0  0  0  0  0  0
   -4.9990    2.4470   -0.2470 O   0  0  0  0  0  0  0  0  0  0  0  0
   -1.6800   -0.6580   -0.3610 C   0  0  0  0  0  0  0  0  0  0  0  0
   -2.5550   -1.7180   -0.5490 C   0  0  0  0  0  0  0  0  0  0  0  0
   -2.1900   -3.0250   -0.3450 C   0  0  0  0  0  0  0  0  0  0  0  0
   -0.8980   -3.3230    0.0680 C   0  0  0  0  0  0  0  0  0  0  0  0
   -0.0310   -2.2610    0.2540 C   0  0  0  0  0  0  0  0  0  0  0  0
   -0.3970   -0.9540    0.0490 C   0  0  0  0  0  0  0  0  0  0  0  0
    1.8880    0.7320    1.7930 N   0  0  0  0  0  0  0  0  0  0  0  0
    3.1810    0.8630    2.2000 C   0  0  0  0  0  0  0  0  0  0  0  0
    4.1520    0.6100    1.2740 C   0  0  0  0  0  0  0  0  0  0  0  0
    5.8600    0.7410    1.6640 Cl  0  0  0  0  0  0  0  0  0  0  0  0
  1  2  1  0
  2  3  2  0
  2 20  1  0
  3  4  1  0
  4  5  1  0
  4 18  2  0
  5  6  1  0
  5 17  1  0
  6  7  2  0
  6  8  1  0
  8  9  1  0
  8 12  1  0
  9 10  1  0
 10 11  1  0
 12 13  2  0
 12 17  1  0
 13 14  1  0
 14 15  2  0
 15 16  1  0
 16 17  2  0
 18 19  1  0
 19 20  2  0
 20 21  1  0
M  END
