
     RDKit          3D

 16 17  0  0  0  0  0  0  0  0999 V2000
   -4.2420    1.9410   -1.3820 N   0  0  0  0  0  0  0  0  0  0  0  0
   -3.5930    0.9210   -0.6540 C   0  0  0  0  0  0  0  0  0  0  0  0
   -2.2800    1.0630   -0.4130 N   0  0  0  0  0  0  0  0  0  0  0  0
   -1.6100    0.1240    0.2740 C   0  0  0  0  0  0  0  0  0  0  0  0
   -0.1590    0.2400    0.5630 C   0  0  0  0  0  0  0  0  0  0  0  0
    0.6360   -0.4020   -0.5580 C   0  0  0  0  0  0  0  0  0  0  0  0
    2.0970   -0.2980   -0.2900 C   0  0  0  0  0  0  0  0  0  0  0  0
    2.8460    0.7810   -0.7240 C   0  0  0  0  0  0  0  0  0  0  0  0
    4.2000    0.8930   -0.4840 C   0  0  0  0  0  0  0  0  0  0  0  0
    4.8640   -0.0940    0.2140 C   0  0  0  0  0  0  0  0  0  0  0  0
    4.1190   -1.1710    0.6480 C   0  0  0  0  0  0  0  0  0  0  0  0
    2.7670   -1.2830    0.4090 C   0  0  0  0  0  0  0  0  0  0  0  0
   -2.2890   -1.0050    0.7380 C   0  0  0  0  0  0  0  0  0  0  0  0
   -3.6360   -1.0860    0.4550 C   0  0  0  0  0  0  0  0  0  0  0  0
   -4.2410   -2.1200    0.8850 O   0  0  0  0  0  0  0  0  0  0  0  0
   -4.2850   -0.1530   -0.2230 N   0  0  0  0  0  0  0  0  0  0  0  0
  1  2  1  0
  2  3  2  0
  2 16  1  0
  3  4  1  0
  4  5  1  0
  4 13  2  0
  5  6  1  0
  6  7  1  0
  7  8  2  0
  7 12  1  0
  8  9  1  0
  9 10  2  0
 10 11  1  0
 11 12  2  0
 13 14  1  0
 14 15  2  0
 14 16  1  0
M  END
