
     RDKit          3D

 20 22  0  0  0  0  0  0  0  0999 V2000
    5.1110   -1.1400    2.2290 C   0  0  0  0  0  0  0  0  0  0  0  0
    3.9530   -0.7660    1.4830 O   0  0  0  0  0  0  0  0  0  0  0  0
    4.0600   -0.0520    0.3060 C   0  0  0  0  0  0  0  0  0  0  0  0
    5.2810    0.2960   -0.1420 N   0  0  0  0  0  0  0  0  0  0  0  0
    5.4350    0.9880   -1.2770 C   0  0  0  0  0  0  0  0  0  0  0  0
    4.2970    1.3400   -1.9840 C   0  0  0  0  0  0  0  0  0  0  0  0
    3.0270    1.0000   -1.5550 C   0  0  0  0  0  0  0  0  0  0  0  0
    2.9340    0.2860   -0.3770 C   0  0  0  0  0  0  0  0  0  0  0  0
    1.6170   -0.1010    0.1240 C   0  0  0  0  0  0  0  0  0  0  0  0
    0.4200    0.1590   -0.4370 N   0  0  0  0  0  0  0  0  0  0  0  0
   -0.5250   -0.3750    0.3490 C   0  0  0  0  0  0  0  0  0  0  0  0
   -1.9980   -0.3730    0.1860 C   0  0  1  0  0  0  0  0  0  0  0  0
   -2.5310    1.0470    0.1770 C   0  0  0  0  0  0  0  0  0  0  0  0
   -3.7980    1.1550    0.9830 C   0  0  0  0  0  0  0  0  0  0  0  0
   -4.8950    0.2650    0.5180 C   0  0  0  0  0  0  0  0  0  0  0  0
   -4.5070   -0.9660   -0.0460 N   0  0  0  0  0  0  0  0  0  0  0  0
   -3.8510   -0.9300   -1.2980 C   0  0  0  0  0  0  0  0  0  0  0  0
   -2.3580   -1.0420   -1.1120 C   0  0  0  0  0  0  0  0  0  0  0  0
    0.1160   -0.9520    1.3780 N   0  0  0  0  0  0  0  0  0  0  0  0
    1.3740   -0.7740    1.2180 O   0  0  0  0  0  0  0  0  0  0  0  0
  1  2  1  0
  2  3  1  0
  3  4  2  0
  3  8  1  0
  4  5  1  0
  5  6  2  0
  6  7  1  0
  7  8  2  0
  8  9  1  0
  9 10  2  0
  9 20  1  0
 10 11  1  0
 12 11  1  6
 11 19  2  0
 12 13  1  0
 12 18  1  0
 13 14  1  0
 14 15  1  0
 15 16  1  0
 16 17  1  0
 17 18  1  0
 19 20  1  0
M  END
