
     RDKit          3D

 21 23  0  0  0  0  0  0  0  0999 V2000
    6.2380    2.1610    0.3090 C   0  0  0  0  0  0  0  0  0  0  0  0
    6.2570    0.9530   -0.5410 C   0  0  0  0  0  0  0  0  0  0  0  0
    7.7740    0.4110   -1.2780 Cl  0  0  0  0  0  0  0  0  0  0  0  0
    5.1360    0.2870   -0.7450 C   0  0  0  0  0  0  0  0  0  0  0  0
    3.9120    0.7440   -0.1370 C   0  0  0  0  0  0  0  0  0  0  0  0
    2.7930    0.0690   -0.3460 C   0  0  0  0  0  0  0  0  0  0  0  0
    2.6150   -1.0370   -1.0800 N   0  0  0  0  0  0  0  0  0  0  0  0
    1.3150   -1.3590   -1.0000 C   0  0  0  0  0  0  0  0  0  0  0  0
    0.4420   -2.2890   -1.4460 N   0  0  0  0  0  0  0  0  0  0  0  0
   -0.7170   -1.9570   -0.9410 N   0  0  0  0  0  0  0  0  0  0  0  0
   -0.6450   -0.8570   -0.1870 C   0  0  0  0  0  0  0  0  0  0  0  0
   -1.6400   -0.1040    0.5750 C   0  0  0  0  0  0  0  0  0  0  0  0
   -3.0260   -0.6730    0.5000 C   0  0  1  0  0  0  0  0  0  0  0  0
   -4.0150    0.1130    1.2840 C   0  0  0  0  0  0  0  0  0  0  0  0
   -5.1550    0.6740    0.5190 C   0  0  0  0  0  0  0  0  0  0  0  0
   -5.6670   -0.1020   -0.4840 O   0  0  0  0  0  0  0  0  0  0  0  0
   -4.9890   -1.2690   -0.7380 C   0  0  0  0  0  0  0  0  0  0  0  0
   -3.5090   -0.8890   -0.9050 C   0  0  0  0  0  0  0  0  0  0  0  0
    0.6620   -0.4900   -0.2370 N   0  0  0  0  0  0  0  0  0  0  0  0
    1.5690    0.4070    0.1780 C   0  0  0  0  0  0  0  0  0  0  0  0
    1.3240    1.4100    0.9380 O   0  0  0  0  0  0  0  0  0  0  0  0
  1  2  1  0
  2  3  1  0
  2  4  2  3
  4  5  1  0
  5  6  2  3
  6  7  1  0
  6 20  1  0
  7  8  1  0
  8  9  2  0
  8 19  1  0
  9 10  1  0
 10 11  2  0
 11 12  1  0
 11 19  1  0
 13 12  1  6
 13 14  1  0
 13 18  1  0
 14 15  1  0
 15 16  1  0
 16 17  1  0
 17 18  1  0
 19 20  1  0
 20 21  2  0
M  END
