
     RDKit          3D

 16 16  0  0  0  0  0  0  0  0999 V2000
    5.8810   -0.3640    1.2280 O   0  0  0  0  0  0  0  0  0  0  0  0
    5.0300    0.0910    0.3560 O   0  0  0  0  0  0  0  0  0  0  0  0
    3.7780   -0.4000    0.6640 C   0  0  0  0  0  0  0  0  0  0  0  0
    2.7200    0.0890   -0.3160 C   0  0  0  0  0  0  0  0  0  0  0  0
    1.5160   -0.4580    0.0850 O   0  0  0  0  0  0  0  0  0  0  0  0
    0.5020   -0.1420   -0.6450 O   0  0  0  0  0  0  0  0  0  0  0  0
   -0.1870    0.9850   -0.2040 C   0  0  0  0  0  0  0  0  0  0  0  0
   -1.3280    1.2150   -1.1570 C   0  0  0  0  0  0  0  0  0  0  0  0
   -2.2230    0.0100   -1.1550 C   0  0  1  0  0  0  0  0  0  0  0  0
   -3.6510    0.3720   -2.4180 Br  0  0  0  0  0  0  0  0  0  0  0  0
   -1.6200   -1.1590   -1.5190 O   0  0  0  0  0  0  0  0  0  0  0  0
   -1.4140   -1.9220   -0.5140 O   0  0  0  0  0  0  0  0  0  0  0  0
   -2.1080   -1.5400    0.5930 C   0  0  0  0  0  0  0  0  0  0  0  0
   -2.7780   -0.2630    0.2200 C   0  0  2  0  0  0  0  0  0  0  0  0
   -4.1700   -0.3690    0.2050 O   0  0  0  0  0  0  0  0  0  0  0  0
   -4.7540    0.4960    0.9710 O   0  0  0  0  0  0  0  0  0  0  0  0
  1  2  1  0
  2  3  1  0
  3  4  1  0
  4  5  1  0
  5  6  1  0
  6  7  1  0
  7  8  1  0
  8  9  1  0
  9 10  1  6
  9 11  1  0
  9 14  1  0
 11 12  1  0
 12 13  1  0
 13 14  1  0
 14 15  1  6
 15 16  1  0
M  END
