
     RDKit          3D

 23 25  0  0  0  0  0  0  0  0999 V2000
    3.7860    1.5480    1.3870 O   0  0  0  0  0  0  0  0  0  0  0  0
    3.9930    0.2960    1.2850 C   0  0  0  0  0  0  0  0  0  0  0  0
    5.3200   -0.2960    1.7110 C   0  0  0  0  0  0  0  0  0  0  0  0
    5.5970   -1.0430    0.5310 O   0  0  0  0  0  0  0  0  0  0  0  0
    7.0710   -0.5080   -0.1050 P   0  0  0  0  0  0  0  0  0  0  0  0
    8.5080   -0.6030    0.6500 O   0  0  0  0  0  0  0  0  0  0  0  0
    6.9470   -0.0460   -1.7410 O   0  0  0  0  0  0  0  0  0  0  0  0
    3.0050   -0.5770    0.7930 N   0  0  0  0  0  0  0  0  0  0  0  0
    1.7160   -0.1710    0.3520 C   0  0  0  0  0  0  0  0  0  0  0  0
    1.3950   -0.1890   -0.9720 N   0  0  0  0  0  0  0  0  0  0  0  0
    0.1410    0.2390   -1.1010 N   0  0  0  0  0  0  0  0  0  0  0  0
   -0.3140    0.5130    0.1120 C   0  0  0  0  0  0  0  0  0  0  0  0
   -1.6550    1.0240    0.5800 C   0  0  0  0  0  0  0  0  0  0  0  0
   -2.6190    1.0820   -0.4720 N   0  0  0  0  0  0  0  0  0  0  0  0
   -3.8830    1.6080    0.0390 C   0  0  0  0  0  0  0  0  0  0  0  0
   -4.2430    0.2170    0.4450 C   0  0  1  0  0  0  0  0  0  0  0  0
   -5.5480   -0.1670    0.3880 O   0  0  0  0  0  0  0  0  0  0  0  0
   -6.1480   -0.3060   -0.8000 C   0  0  0  0  0  0  0  0  0  0  0  0
   -5.4710    0.1540   -1.9760 N   0  0  0  0  0  0  0  0  0  0  0  0
   -4.0620   -0.0030   -2.0000 C   0  0  0  0  0  0  0  0  0  0  0  0
   -3.4450    0.0100   -3.0850 O   0  0  0  0  0  0  0  0  0  0  0  0
   -3.3720   -0.1700   -0.6940 C   0  0  1  0  0  0  0  0  0  0  0  0
    0.6630    0.2530    0.9720 O   0  0  0  0  0  0  0  0  0  0  0  0
  1  2  2  0
  2  3  1  0
  2  8  1  0
  3  4  1  0
  4  5  1  0
  5  6  1  0
  5  7  1  0
  8  9  1  0
  9 10  2  0
  9 23  1  0
 10 11  1  0
 11 12  2  0
 12 13  1  0
 12 23  1  0
 13 14  1  0
 14 15  1  0
 22 14  1  6
 16 15  1  6
 16 17  1  0
 16 22  1  0
 17 18  1  0
 18 19  1  0
 19 20  1  0
 20 21  2  0
 20 22  1  0
M  END
