
     RDKit          3D

  9  8  0  0  0  0  0  0  0  0999 V2000
    3.4150    0.1870   -1.0220 O   0  0  0  0  0  0  0  0  0  0  0  0
    2.4540    0.2110   -0.2010 C   0  0  0  0  0  0  0  0  0  0  0  0
    2.7340    0.3760    1.1370 O   0  0  0  0  0  0  0  0  0  0  0  0
    1.0580    0.0640   -0.6770 C   0  0  0  0  0  0  0  0  0  0  0  0
    0.2190    0.1250    0.4000 O   0  0  0  0  0  0  0  0  0  0  0  0
   -1.3660   -0.0090    0.1600 P   0  0  0  0  0  0  0  0  0  0  0  0
   -1.8250    1.1240    1.1130 O   0  0  0  0  0  0  0  0  0  0  0  0
   -2.2310   -1.0340    1.1630 O   0  0  0  0  0  0  0  0  0  0  0  0
   -1.2950   -1.1380   -0.8800 O   0  0  0  0  0  0  0  0  0  0  0  0
  1  2  2  0
  2  3  1  0
  2  4  1  0
  4  5  1  0
  5  6  1  0
  6  7  1  0
  6  8  1  0
  6  9  1  0
M  END
