
     RDKit          3D

 23 25  0  0  0  0  0  0  0  0999 V2000
   -6.4250    1.6770    0.4390 O   0  0  0  0  0  0  0  0  0  0  0  0
   -5.3930    0.9520    0.3740 C   0  0  0  0  0  0  0  0  0  0  0  0
   -4.6820    1.0010   -0.8560 N   0  0  0  0  0  0  0  0  0  0  0  0
   -3.7980    0.0140   -1.4280 C   0  0  0  0  0  0  0  0  0  0  0  0
   -2.6810   -0.3810   -0.5310 C   0  0  0  0  0  0  0  0  0  0  0  0
   -1.4280   -0.5820   -0.9420 O   0  0  0  0  0  0  0  0  0  0  0  0
   -0.6570   -0.9200    0.0610 C   0  0  0  0  0  0  0  0  0  0  0  0
    0.6210   -1.2640    0.4530 C   0  0  0  0  0  0  0  0  0  0  0  0
    1.7090   -1.3540   -0.4060 O   0  0  0  0  0  0  0  0  0  0  0  0
    2.5420   -0.2570   -0.6730 C   0  0  0  0  0  0  0  0  0  0  0  0
    2.2480    0.8170   -0.0890 O   0  0  0  0  0  0  0  0  0  0  0  0
    3.6520   -0.3670   -1.5550 N   0  0  0  0  0  0  0  0  0  0  0  0
    4.4870    0.7920   -1.8030 C   0  0  0  0  0  0  0  0  0  0  0  0
    5.2110    1.3330   -0.1650 P   0  0  0  0  0  0  0  0  0  0  0  0
    6.7820    2.0410   -0.3950 O   0  0  0  0  0  0  0  0  0  0  0  0
    5.3970   -0.0940    0.8040 O   0  0  0  0  0  0  0  0  0  0  0  0
    0.6390   -1.4950    1.7870 N   0  0  0  0  0  0  0  0  0  0  0  0
   -0.5900   -1.3070    2.2500 N   0  0  0  0  0  0  0  0  0  0  0  0
   -1.3990   -0.9590    1.2350 C   0  0  0  0  0  0  0  0  0  0  0  0
   -2.6750   -0.6150    0.8420 C   0  0  0  0  0  0  0  0  0  0  0  0
   -3.8220   -0.5210    1.7610 C   0  0  0  0  0  0  0  0  0  0  0  0
   -3.6510   -1.1150    2.8280 O   0  0  0  0  0  0  0  0  0  0  0  0
   -5.0460    0.1750    1.5100 N   0  0  0  0  0  0  0  0  0  0  0  0
  1  2  2  0
  2  3  1  0
  2 23  1  0
  3  4  1  0
  4  5  1  0
  5  6  1  0
  5 20  2  0
  6  7  1  0
  7  8  2  0
  7 19  1  0
  8  9  1  0
  8 17  1  0
  9 10  1  0
 10 11  2  0
 10 12  1  0
 12 13  1  0
 13 14  1  0
 14 15  1  0
 14 16  1  0
 17 18  1  0
 18 19  2  0
 19 20  1  0
 20 21  1  0
 21 22  2  0
 21 23  1  0
M  END
