
     RDKit          3D

 23 25  0  0  0  0  0  0  0  0999 V2000
   -2.1680    0.4770   -1.3400 O   0  0  0  0  0  0  0  0  0  0  0  0
   -1.8950    0.0550   -0.2010 C   0  0  0  0  0  0  0  0  0  0  0  0
   -2.9780   -0.2900    0.7330 C   0  0  0  0  0  0  0  0  0  0  0  0
   -4.2880    0.0140    0.2680 N   0  0  0  0  0  0  0  0  0  0  0  0
   -4.9010    1.1930    0.4910 C   0  0  0  0  0  0  0  0  0  0  0  0
   -4.4150    2.1740    1.1270 O   0  0  0  0  0  0  0  0  0  0  0  0
   -6.1280    1.1400   -0.0870 N   0  0  0  0  0  0  0  0  0  0  0  0
   -6.2240   -0.0570   -0.6380 N   0  0  0  0  0  0  0  0  0  0  0  0
   -5.1050   -0.7700   -0.4340 C   0  0  0  0  0  0  0  0  0  0  0  0
   -4.8570   -1.9340   -0.8150 O   0  0  0  0  0  0  0  0  0  0  0  0
   -0.5510   -0.0850    0.1880 N   0  0  0  0  0  0  0  0  0  0  0  0
   -0.1730   -0.5410    1.4130 C   0  0  0  0  0  0  0  0  0  0  0  0
    1.1490   -0.5260    1.4400 N   0  0  0  0  0  0  0  0  0  0  0  0
    1.6330   -0.0780    0.2800 C   0  0  0  0  0  0  0  0  0  0  0  0
    3.0600    0.0820   -0.0350 C   0  0  2  0  0  0  0  0  0  0  0  0
    3.2990    0.5370   -1.3310 O   0  0  0  0  0  0  0  0  0  0  0  0
    3.7870   -1.2350    0.2230 C   0  0  0  0  0  0  0  0  0  0  0  0
    4.9860   -1.2810   -0.6620 C   0  0  0  0  0  0  0  0  0  0  0  0
    5.9370   -0.3310   -0.3390 O   0  0  0  0  0  0  0  0  0  0  0  0
    5.3410    1.0430    0.4690 P   0  0  0  0  0  0  0  0  0  0  0  0
    5.7170    2.4710   -0.4260 O   0  0  0  0  0  0  0  0  0  0  0  0
    3.6690    1.0160    0.8290 O   0  0  0  0  0  0  0  0  0  0  0  0
    0.5730    0.1910   -0.4870 N   0  0  0  0  0  0  0  0  0  0  0  0
  1  2  2  0
  2  3  1  0
  2 11  1  0
  3  4  1  0
  4  5  1  0
  4  9  1  0
  5  6  2  0
  5  7  1  0
  7  8  1  0
  8  9  1  0
  9 10  2  0
 11 12  1  0
 11 23  1  0
 12 13  2  0
 13 14  1  0
 14 15  1  0
 14 23  2  0
 15 16  1  6
 15 17  1  0
 15 22  1  0
 17 18  1  0
 18 19  1  0
 19 20  1  0
 20 21  1  0
 20 22  1  0
M  END
