
     RDKit          3D

 23 24  0  0  0  0  0  0  0  0999 V2000
    2.9090   -1.5830   -0.8690 N   0  0  0  0  0  0  0  0  0  0  0  0
    2.7740   -0.6350   -0.0030 C   0  0  0  0  0  0  0  0  0  0  0  0
    3.7990   -0.5520    0.9850 N   0  0  0  0  0  0  0  0  0  0  0  0
    3.9280    0.9580    1.9420 P   0  0  0  0  0  0  0  0  0  0  0  0
    4.9630    2.1120    1.1750 O   0  0  0  0  0  0  0  0  0  0  0  0
    2.2810    1.6270    1.8990 O   0  0  0  0  0  0  0  0  0  0  0  0
    1.4170    1.3220    0.8230 C   0  0  0  0  0  0  0  0  0  0  0  0
    0.4280    2.1310    0.7850 N   0  0  0  0  0  0  0  0  0  0  0  0
   -0.6130    2.2340   -0.0260 O   0  0  0  0  0  0  0  0  0  0  0  0
   -1.9330    2.1970    0.4570 C   0  0  1  0  0  0  0  0  0  0  0  0
   -2.9270    2.0980   -0.6470 C   0  0  0  0  0  0  0  0  0  0  0  0
   -4.1500    2.0570   -0.3620 O   0  0  0  0  0  0  0  0  0  0  0  0
   -2.5620    2.0480   -1.9730 O   0  0  0  0  0  0  0  0  0  0  0  0
   -2.0650    1.0440    1.4210 C   0  0  0  0  0  0  0  0  0  0  0  0
   -2.7890   -0.1230    0.7480 C   0  0  0  0  0  0  0  0  0  0  0  0
   -2.1400   -1.3130    1.0460 O   0  0  0  0  0  0  0  0  0  0  0  0
   -1.7480   -2.0430   -0.0630 C   0  0  0  0  0  0  0  0  0  0  0  0
   -0.3070   -2.4870    0.0710 C   0  0  0  0  0  0  0  0  0  0  0  0
    0.4110   -2.4770   -1.1870 N   0  0  0  0  0  0  0  0  0  0  0  0
    0.8480   -1.2820   -1.8140 C   0  0  0  0  0  0  0  0  0  0  0  0
    1.3600   -1.3840   -2.9520 O   0  0  0  0  0  0  0  0  0  0  0  0
    0.7040    0.0000   -1.1620 C   0  0  0  0  0  0  0  0  0  0  0  0
    1.6550    0.2600   -0.0640 N   0  0  0  0  0  0  0  0  0  0  0  0
  1  2  2  0
  2  3  1  0
  2 23  1  0
  3  4  1  0
  4  5  1  0
  4  6  1  0
  6  7  1  0
  7  8  2  0
  7 23  1  0
  8  9  1  0
  9 10  1  0
 10 11  1  6
 10 14  1  0
 11 12  2  0
 11 13  1  0
 14 15  1  0
 15 16  1  0
 16 17  1  0
 17 18  1  0
 18 19  1  0
 19 20  1  0
 20 21  2  0
 20 22  1  0
 22 23  1  0
M  END
