
     RDKit          3D

 23 24  0  0  0  0  0  0  0  0999 V2000
    0.3070   -1.4440   -1.4730 C   0  0  0  0  0  0  0  0  0  0  0  0
   -0.0370   -0.5560   -0.3820 N   0  0  0  0  0  0  0  0  0  0  0  0
   -0.0410   -1.2400    0.8740 C   0  0  0  0  0  0  0  0  0  0  0  0
   -1.0310   -2.3030    1.0320 C   0  0  0  0  0  0  0  0  0  0  0  0
   -0.7820   -3.2410    1.8860 O   0  0  0  0  0  0  0  0  0  0  0  0
   -2.2970   -2.4560    0.3380 C   0  0  0  0  0  0  0  0  0  0  0  0
   -2.5260   -3.6640   -0.0650 O   0  0  0  0  0  0  0  0  0  0  0  0
   -3.2190   -1.4640    0.0930 O   0  0  0  0  0  0  0  0  0  0  0  0
   -3.7830   -0.5730    1.0170 C   0  0  0  0  0  0  0  0  0  0  0  0
   -3.2790    0.8240    0.7950 C   0  0  0  0  0  0  0  0  0  0  0  0
   -3.5840    2.0550    1.2170 N   0  0  0  0  0  0  0  0  0  0  0  0
   -2.7440    2.9090    0.6570 N   0  0  0  0  0  0  0  0  0  0  0  0
   -1.9010    2.2190   -0.1240 C   0  0  0  0  0  0  0  0  0  0  0  0
   -2.2460    0.9390   -0.0270 N   0  0  0  0  0  0  0  0  0  0  0  0
   -0.7870    2.5960   -0.9590 N   0  0  0  0  0  0  0  0  0  0  0  0
    0.2500    1.6780   -1.2710 C   0  0  0  0  0  0  0  0  0  0  0  0
    0.8040    1.7360   -2.4200 O   0  0  0  0  0  0  0  0  0  0  0  0
    0.7550    0.6320   -0.3510 C   0  0  2  0  0  0  0  0  0  0  0  0
    2.2190    0.4000   -0.6550 C   0  0  0  0  0  0  0  0  0  0  0  0
    2.8150   -0.4720    0.2540 O   0  0  0  0  0  0  0  0  0  0  0  0
    4.4740   -0.6390   -0.2200 P   0  0  0  0  0  0  0  0  0  0  0  0
    5.4820   -1.1100    1.1010 O   0  0  0  0  0  0  0  0  0  0  0  0
    5.0620    0.7750   -1.0230 O   0  0  0  0  0  0  0  0  0  0  0  0
  1  2  1  0
  2  3  1  0
  2 18  1  0
  3  4  1  0
  4  5  2  0
  4  6  1  0
  6  7  2  0
  6  8  1  0
  8  9  1  0
  9 10  1  0
 10 11  2  0
 10 14  1  0
 11 12  1  0
 12 13  1  0
 13 14  2  0
 13 15  1  0
 15 16  1  0
 16 17  2  0
 16 18  1  0
 18 19  1  6
 19 20  1  0
 20 21  1  0
 21 22  1  0
 21 23  1  0
M  END
