
     RDKit          3D

 23 25  0  0  0  0  0  0  0  0999 V2000
   -2.0270   -1.1110    1.0090 O   0  0  0  0  0  0  0  0  0  0  0  0
   -1.8470   -0.1010    0.3020 C   0  0  0  0  0  0  0  0  0  0  0  0
   -2.9730    0.7170   -0.1610 C   0  0  0  0  0  0  0  0  0  0  0  0
   -4.2370    0.0310   -0.1350 N   0  0  0  0  0  0  0  0  0  0  0  0
   -5.0390   -0.1920    0.9490 C   0  0  0  0  0  0  0  0  0  0  0  0
   -4.7610    0.1580    2.1290 O   0  0  0  0  0  0  0  0  0  0  0  0
   -6.1370   -0.8220    0.5450 N   0  0  0  0  0  0  0  0  0  0  0  0
   -6.0980   -1.0320   -0.7550 N   0  0  0  0  0  0  0  0  0  0  0  0
   -4.9310   -0.5120   -1.1770 C   0  0  0  0  0  0  0  0  0  0  0  0
   -4.5740   -0.5420   -2.3540 O   0  0  0  0  0  0  0  0  0  0  0  0
   -0.5060    0.2550   -0.0530 N   0  0  0  0  0  0  0  0  0  0  0  0
   -0.1920    1.2700   -0.8520 C   0  0  0  0  0  0  0  0  0  0  0  0
    1.1450    1.3430   -0.9300 N   0  0  0  0  0  0  0  0  0  0  0  0
    1.6710    0.3100   -0.1330 C   0  0  0  0  0  0  0  0  0  0  0  0
    3.1250    0.1580    0.0020 C   0  0  2  0  0  0  0  0  0  0  0  0
    3.7960    0.9430   -0.9220 O   0  0  0  0  0  0  0  0  0  0  0  0
    3.5100   -1.2710   -0.2650 C   0  0  0  0  0  0  0  0  0  0  0  0
    4.9880   -1.5160   -0.0290 C   0  0  0  0  0  0  0  0  0  0  0  0
    5.7280   -0.3320   -0.2780 O   0  0  0  0  0  0  0  0  0  0  0  0
    5.3380    0.7280    1.0580 P   0  0  0  0  0  0  0  0  0  0  0  0
    5.6760    2.3410    0.5060 O   0  0  0  0  0  0  0  0  0  0  0  0
    3.5980    0.5830    1.2530 O   0  0  0  0  0  0  0  0  0  0  0  0
    0.6170   -0.2940    0.3590 N   0  0  0  0  0  0  0  0  0  0  0  0
  1  2  2  0
  2  3  1  0
  2 11  1  0
  3  4  1  0
  4  5  1  0
  4  9  1  0
  5  6  2  0
  5  7  1  0
  7  8  1  0
  8  9  1  0
  9 10  2  0
 11 12  1  0
 11 23  1  0
 12 13  2  0
 13 14  1  0
 14 15  1  0
 14 23  2  0
 15 16  1  6
 15 17  1  0
 15 22  1  0
 17 18  1  0
 18 19  1  0
 19 20  1  0
 20 21  1  0
 20 22  1  0
M  END
