
     RDKit          3D

 23 25  0  0  0  0  0  0  0  0999 V2000
    4.6120   -2.2410   -0.9730 N   0  0  0  0  0  0  0  0  0  0  0  0
    3.7030   -1.4360   -0.9610 C   0  0  0  0  0  0  0  0  0  0  0  0
    2.4530   -1.9090   -1.3760 N   0  0  0  0  0  0  0  0  0  0  0  0
    1.2020   -1.6260   -0.8640 C   0  0  0  0  0  0  0  0  0  0  0  0
    1.3400   -0.8880    0.1780 O   0  0  0  0  0  0  0  0  0  0  0  0
   -0.0190   -2.0070   -1.2910 O   0  0  0  0  0  0  0  0  0  0  0  0
   -1.1170   -1.5640   -0.5270 C   0  0  0  0  0  0  0  0  0  0  0  0
   -1.6130   -2.4080    0.4150 C   0  0  0  0  0  0  0  0  0  0  0  0
   -2.6810   -1.9980    1.1820 C   0  0  0  0  0  0  0  0  0  0  0  0
   -3.2360   -0.7620    1.0010 C   0  0  0  0  0  0  0  0  0  0  0  0
   -2.7090    0.0650    0.0360 C   0  0  0  0  0  0  0  0  0  0  0  0
   -1.6400   -0.3300   -0.7400 C   0  0  0  0  0  0  0  0  0  0  0  0
   -3.4890    1.2530    0.0890 N   0  0  0  0  0  0  0  0  0  0  0  0
   -3.6130    2.6080   -0.3090 C   0  0  0  0  0  0  0  0  0  0  0  0
   -2.9740    3.1290   -1.2380 O   0  0  0  0  0  0  0  0  0  0  0  0
   -4.6360    3.1820    0.6200 C   0  0  0  0  0  0  0  0  0  0  0  0
   -4.7660    2.1490    1.5650 O   0  0  0  0  0  0  0  0  0  0  0  0
   -4.6470    1.0010    0.8700 N   0  0  0  0  0  0  0  0  0  0  0  0
   -4.3070   -0.0750    1.6150 O   0  0  0  0  0  0  0  0  0  0  0  0
    4.1930   -0.0630   -0.9720 N   0  0  0  0  0  0  0  0  0  0  0  0
    5.4210    0.5220    0.1450 P   0  0  0  0  0  0  0  0  0  0  0  0
    4.7220    1.3810    1.4760 O   0  0  0  0  0  0  0  0  0  0  0  0
    6.5030    1.5400   -0.7420 O   0  0  0  0  0  0  0  0  0  0  0  0
  1  2  2  0
  2  3  1  0
  2 20  1  0
  3  4  1  0
  4  5  2  0
  4  6  1  0
  6  7  1  0
  7  8  2  0
  7 12  1  0
  8  9  1  0
  9 10  2  0
 10 11  1  0
 10 19  1  0
 11 12  2  0
 11 13  1  0
 13 14  1  0
 13 18  1  0
 14 15  2  0
 14 16  1  0
 16 17  1  0
 17 18  1  0
 18 19  1  0
 20 21  1  0
 21 22  1  0
 21 23  1  0
M  END
