
     RDKit          3D

 23 25  0  0  0  0  0  0  0  0999 V2000
    3.1270    2.0550   -1.2920 O   0  0  0  0  0  0  0  0  0  0  0  0
    3.7730    1.1670   -0.6540 C   0  0  0  0  0  0  0  0  0  0  0  0
    5.2290    1.2210   -0.4680 C   0  0  0  0  0  0  0  0  0  0  0  0
    5.6310    0.1190    0.2640 O   0  0  0  0  0  0  0  0  0  0  0  0
    7.3350    0.1060    0.5290 P   0  0  0  0  0  0  0  0  0  0  0  0
    8.2010    0.3350   -0.9540 O   0  0  0  0  0  0  0  0  0  0  0  0
    7.7810   -1.3510    1.3320 O   0  0  0  0  0  0  0  0  0  0  0  0
    3.0010    0.0910   -0.1150 N   0  0  0  0  0  0  0  0  0  0  0  0
    1.5960    0.0200   -0.2850 C   0  0  0  0  0  0  0  0  0  0  0  0
    0.8750    0.9340   -0.9490 N   0  0  0  0  0  0  0  0  0  0  0  0
   -0.3930    0.4960   -0.8740 N   0  0  0  0  0  0  0  0  0  0  0  0
   -0.4450   -0.6550   -0.1810 C   0  0  0  0  0  0  0  0  0  0  0  0
   -1.6480   -1.4690    0.1330 C   0  0  0  0  0  0  0  0  0  0  0  0
   -2.7910   -0.8250   -0.4310 N   0  0  0  0  0  0  0  0  0  0  0  0
   -2.9430    0.5150    0.1330 C   0  0  0  0  0  0  0  0  0  0  0  0
   -4.0380   -0.0310    0.9980 C   0  0  1  0  0  0  0  0  0  0  0  0
   -5.1920    0.6780    1.0960 O   0  0  0  0  0  0  0  0  0  0  0  0
   -5.6340    1.2740   -0.0520 C   0  0  0  0  0  0  0  0  0  0  0  0
   -5.7290    0.2980   -1.1090 N   0  0  0  0  0  0  0  0  0  0  0  0
   -5.1200   -0.9770   -0.9690 C   0  0  0  0  0  0  0  0  0  0  0  0
   -5.4480   -1.9280   -1.7350 O   0  0  0  0  0  0  0  0  0  0  0  0
   -4.0800   -1.2150    0.0890 C   0  0  1  0  0  0  0  0  0  0  0  0
    0.8130   -0.9120    0.1650 O   0  0  0  0  0  0  0  0  0  0  0  0
  1  2  2  0
  2  3  1  0
  2  8  1  0
  3  4  1  0
  4  5  1  0
  5  6  1  0
  5  7  1  0
  8  9  1  0
  9 10  2  0
  9 23  1  0
 10 11  1  0
 11 12  2  0
 12 13  1  0
 12 23  1  0
 13 14  1  0
 14 15  1  0
 22 14  1  6
 16 15  1  6
 16 17  1  0
 16 22  1  0
 17 18  1  0
 18 19  1  0
 19 20  1  0
 20 21  2  0
 20 22  1  0
M  END
