
     RDKit          3D

 23 24  0  0  0  0  0  0  0  0999 V2000
   -0.4290   -1.4850    1.2350 C   0  0  0  0  0  0  0  0  0  0  0  0
    0.0800   -0.8570    0.0320 N   0  0  0  0  0  0  0  0  0  0  0  0
    0.8900   -1.8910   -0.6070 C   0  0  0  0  0  0  0  0  0  0  0  0
    1.8630   -2.4460    0.3480 C   0  0  0  0  0  0  0  0  0  0  0  0
    1.6170   -3.6630    0.7260 O   0  0  0  0  0  0  0  0  0  0  0  0
    3.0410   -1.7910    0.8990 C   0  0  0  0  0  0  0  0  0  0  0  0
    3.1170   -1.9250    2.1870 O   0  0  0  0  0  0  0  0  0  0  0  0
    4.0150   -1.1030    0.2800 O   0  0  0  0  0  0  0  0  0  0  0  0
    4.2740    0.1780   -0.1270 C   0  0  0  0  0  0  0  0  0  0  0  0
    3.1700    1.1490    0.0050 C   0  0  0  0  0  0  0  0  0  0  0  0
    2.9390    2.1980    0.7760 N   0  0  0  0  0  0  0  0  0  0  0  0
    1.7270    2.6870    0.4500 N   0  0  0  0  0  0  0  0  0  0  0  0
    1.2120    1.9310   -0.5280 C   0  0  0  0  0  0  0  0  0  0  0  0
    2.1280    0.9900   -0.7810 N   0  0  0  0  0  0  0  0  0  0  0  0
   -0.0420    1.9860   -1.2250 N   0  0  0  0  0  0  0  0  0  0  0  0
   -0.7780    0.8210   -1.5690 C   0  0  0  0  0  0  0  0  0  0  0  0
   -1.3070    0.8150   -2.7130 O   0  0  0  0  0  0  0  0  0  0  0  0
   -0.9910   -0.3700   -0.7410 C   0  0  2  0  0  0  0  0  0  0  0  0
   -2.2110   -0.1460    0.1660 C   0  0  0  0  0  0  0  0  0  0  0  0
   -3.2830    0.3350   -0.6020 O   0  0  0  0  0  0  0  0  0  0  0  0
   -4.6130    0.5580    0.5020 P   0  0  0  0  0  0  0  0  0  0  0  0
   -4.6970    2.2000    1.0590 O   0  0  0  0  0  0  0  0  0  0  0  0
   -6.0710    0.0810   -0.3120 O   0  0  0  0  0  0  0  0  0  0  0  0
  1  2  1  0
  2  3  1  0
  2 18  1  0
  3  4  1  0
  4  5  2  0
  4  6  1  0
  6  7  2  0
  6  8  1  0
  8  9  1  0
  9 10  1  0
 10 11  2  0
 10 14  1  0
 11 12  1  0
 12 13  1  0
 13 14  2  0
 13 15  1  0
 15 16  1  0
 16 17  2  0
 16 18  1  0
 18 19  1  1
 19 20  1  0
 20 21  1  0
 21 22  1  0
 21 23  1  0
M  END
