
     RDKit          3D

 23 25  0  0  0  0  0  0  0  0999 V2000
    5.9490   -1.3940   -1.7420 O   0  0  0  0  0  0  0  0  0  0  0  0
    4.8660   -0.7620   -1.7350 C   0  0  0  0  0  0  0  0  0  0  0  0
    3.6690   -1.3760   -2.2100 N   0  0  0  0  0  0  0  0  0  0  0  0
    2.3280   -0.9450   -2.4190 C   0  0  0  0  0  0  0  0  0  0  0  0
    1.8370    0.0760   -1.4990 C   0  0  0  0  0  0  0  0  0  0  0  0
    0.5530    0.1310   -1.1830 O   0  0  0  0  0  0  0  0  0  0  0  0
    0.3300    1.1050   -0.3580 C   0  0  0  0  0  0  0  0  0  0  0  0
   -0.6480    1.7340    0.3520 C   0  0  0  0  0  0  0  0  0  0  0  0
   -2.0200    1.4980    0.4570 O   0  0  0  0  0  0  0  0  0  0  0  0
   -2.5280    0.6970    1.4680 C   0  0  0  0  0  0  0  0  0  0  0  0
   -1.7040    0.2000    2.2750 O   0  0  0  0  0  0  0  0  0  0  0  0
   -3.9020    0.4470    1.5920 N   0  0  0  0  0  0  0  0  0  0  0  0
   -4.4720   -0.3880    2.6390 C   0  0  0  0  0  0  0  0  0  0  0  0
   -3.7380   -2.0910    2.4530 P   0  0  0  0  0  0  0  0  0  0  0  0
   -3.4930   -2.4610    0.7750 O   0  0  0  0  0  0  0  0  0  0  0  0
   -4.8830   -3.2200    3.1160 O   0  0  0  0  0  0  0  0  0  0  0  0
   -0.0400    2.7330    1.0190 N   0  0  0  0  0  0  0  0  0  0  0  0
    1.2630    2.7370    0.7450 N   0  0  0  0  0  0  0  0  0  0  0  0
    1.5400    1.7510   -0.1000 C   0  0  0  0  0  0  0  0  0  0  0  0
    2.4700    1.0820   -0.8310 C   0  0  0  0  0  0  0  0  0  0  0  0
    3.8680    1.4300   -0.8470 C   0  0  0  0  0  0  0  0  0  0  0  0
    4.1330    2.6040   -0.4890 O   0  0  0  0  0  0  0  0  0  0  0  0
    4.9560    0.5680   -1.2270 N   0  0  0  0  0  0  0  0  0  0  0  0
  1  2  2  0
  2  3  1  0
  2 23  1  0
  3  4  1  0
  4  5  1  0
  5  6  1  0
  5 20  2  0
  6  7  1  0
  7  8  2  0
  7 19  1  0
  8  9  1  0
  8 17  1  0
  9 10  1  0
 10 11  2  0
 10 12  1  0
 12 13  1  0
 13 14  1  0
 14 15  1  0
 14 16  1  0
 17 18  1  0
 18 19  2  0
 19 20  1  0
 20 21  1  0
 21 22  2  0
 21 23  1  0
M  END
