
     RDKit          3D

  9  8  0  0  0  0  0  0  0  0999 V2000
    2.3020    0.7040    1.4040 O   0  0  0  0  0  0  0  0  0  0  0  0
    2.1620   -0.1470    0.4930 C   0  0  0  0  0  0  0  0  0  0  0  0
    3.2910   -0.8700    0.0810 O   0  0  0  0  0  0  0  0  0  0  0  0
    0.8720   -0.4390   -0.1790 C   0  0  0  0  0  0  0  0  0  0  0  0
   -0.0630    0.3900    0.3980 O   0  0  0  0  0  0  0  0  0  0  0  0
   -1.4970    0.2560   -0.1490 P   0  0  0  0  0  0  0  0  0  0  0  0
   -1.8970    1.4350    1.0350 O   0  0  0  0  0  0  0  0  0  0  0  0
   -1.5180   -1.3320    0.3300 O   0  0  0  0  0  0  0  0  0  0  0  0
   -1.2650    0.6930   -1.6490 O   0  0  0  0  0  0  0  0  0  0  0  0
  1  2  2  0
  2  3  1  0
  2  4  1  0
  4  5  1  0
  5  6  1  0
  6  7  1  0
  6  8  1  0
  6  9  1  0
M  END
