
     RDKit          3D

 16 16  0  0  0  0  0  0  0  0999 V2000
    6.4670   -0.9730   -0.3460 O   0  0  0  0  0  0  0  0  0  0  0  0
    5.2050   -1.2830   -0.4860 O   0  0  0  0  0  0  0  0  0  0  0  0
    4.3820   -0.1500   -0.3210 C   0  0  0  0  0  0  0  0  0  0  0  0
    2.9270   -0.5480   -0.4900 C   0  0  0  0  0  0  0  0  0  0  0  0
    2.0850    0.5280   -0.3380 O   0  0  0  0  0  0  0  0  0  0  0  0
    0.8460    0.1810   -0.4840 O   0  0  0  0  0  0  0  0  0  0  0  0
    0.3340   -0.1690    0.7500 C   0  0  0  0  0  0  0  0  0  0  0  0
   -1.1110   -0.5700    0.5550 C   0  0  0  0  0  0  0  0  0  0  0  0
   -1.9220    0.5680   -0.0210 C   0  0  1  0  0  0  0  0  0  0  0  0
   -1.9070    2.1180    1.1280 Br  0  0  0  0  0  0  0  0  0  0  0  0
   -1.6230    0.8570   -1.3260 O   0  0  0  0  0  0  0  0  0  0  0  0
   -2.6380    1.3900   -1.9030 O   0  0  0  0  0  0  0  0  0  0  0  0
   -3.7980    0.9550   -1.3230 C   0  0  0  0  0  0  0  0  0  0  0  0
   -3.3660    0.1020   -0.1240 C   0  0  2  0  0  0  0  0  0  0  0  0
   -4.0950    0.3880    1.0060 O   0  0  0  0  0  0  0  0  0  0  0  0
   -4.6720   -0.6870    1.5190 O   0  0  0  0  0  0  0  0  0  0  0  0
  1  2  1  0
  2  3  1  0
  3  4  1  0
  4  5  1  0
  5  6  1  0
  6  7  1  0
  7  8  1  0
  8  9  1  0
  9 10  1  1
  9 11  1  0
  9 14  1  0
 11 12  1  0
 12 13  1  0
 13 14  1  0
 14 15  1  1
 15 16  1  0
M  END
