
     RDKit          3D

 22 23  0  0  0  0  0  0  0  0999 V2000
   -0.3710   -3.1350   -1.2100 N   0  0  0  0  0  0  0  0  0  0  0  0
   -0.2090   -1.8310   -0.9570 C   0  0  0  0  0  0  0  0  0  0  0  0
    1.1030   -1.7400   -0.5810 N   0  0  0  0  0  0  0  0  0  0  0  0
    1.9710   -0.6990   -0.6570 C   0  0  0  0  0  0  0  0  0  0  0  0
    1.4350    0.2850   -1.2090 O   0  0  0  0  0  0  0  0  0  0  0  0
    3.3040   -0.8120   -0.1500 C   0  0  0  0  0  0  0  0  0  0  0  0
    4.0960    0.2180   -0.2700 C   0  0  0  0  0  0  0  0  0  0  0  0
    5.4160    0.0870    0.2380 N   0  0  0  0  0  0  0  0  0  0  0  0
    5.9470    1.1100    1.6270 P   0  0  0  0  0  0  0  0  0  0  0  0
    6.0400    2.7760    1.0990 O   0  0  0  0  0  0  0  0  0  0  0  0
    7.4890    0.5720    2.2100 O   0  0  0  0  0  0  0  0  0  0  0  0
   -1.3970   -1.1250   -0.7980 N   0  0  0  0  0  0  0  0  0  0  0  0
   -1.7660    0.2440   -0.8260 C   0  0  0  0  0  0  0  0  0  0  0  0
   -1.3740    1.0880   -1.6410 O   0  0  0  0  0  0  0  0  0  0  0  0
   -2.7040    0.3920    0.3220 C   0  0  1  0  0  0  0  0  0  0  0  0
   -3.6210    1.5450    0.1850 C   0  0  2  0  0  0  0  0  0  0  0  0
   -3.2110    2.6600    0.9160 O   0  0  0  0  0  0  0  0  0  0  0  0
   -4.8980    0.9400    0.7860 C   0  0  0  0  0  0  0  0  0  0  0  0
   -4.9420   -0.3650    0.0280 C   0  0  0  0  0  0  0  0  0  0  0  0
   -3.5670   -0.7690   -0.0310 N   0  0  0  0  0  0  0  0  0  0  0  0
   -2.6130   -1.7820   -0.2720 C   0  0  0  0  0  0  0  0  0  0  0  0
   -2.7970   -3.0040   -0.0660 O   0  0  0  0  0  0  0  0  0  0  0  0
  1  2  2  0
  2  3  1  0
  2 12  1  0
  3  4  1  0
  4  5  2  0
  4  6  1  0
  6  7  2  3
  7  8  1  0
  8  9  1  0
  9 10  1  0
  9 11  1  0
 12 13  1  0
 12 21  1  0
 13 14  2  0
 15 13  1  6
 15 16  1  0
 15 20  1  0
 16 17  1  1
 16 18  1  0
 18 19  1  0
 19 20  1  0
 20 21  1  0
 21 22  2  0
M  END
