
     RDKit          3D

 31 33  0  0  0  0  0  0  0  0999 V2000
   -2.8590    4.9060   -1.5020 C   0  0  0  0  0  0  0  0  0  0  0  0
   -3.9990    4.4180   -0.7510 N   0  0  0  0  0  0  0  0  0  0  0  0
   -4.0130    3.1480   -0.1280 C   0  0  0  0  0  0  0  0  0  0  0  0
   -5.1250    2.7460    0.5620 C   0  0  0  0  0  0  0  0  0  0  0  0
   -5.1120    1.5100    1.1570 C   0  0  0  0  0  0  0  0  0  0  0  0
   -3.9960    0.6830    1.0630 C   0  0  0  0  0  0  0  0  0  0  0  0
   -3.9870   -0.5670    1.6670 O   0  0  0  0  0  0  0  0  0  0  0  0
   -4.4140   -1.6970    0.9810 C   0  0  0  0  0  0  0  0  0  0  0  0
   -4.8050   -1.5220   -0.2080 O   0  0  0  0  0  0  0  0  0  0  0  0
   -4.4220   -3.0530    1.5870 C   0  0  1  0  0  0  0  0  0  0  0  0
   -5.6360   -3.9020    1.2730 C   0  0  0  0  0  0  0  0  0  0  0  0
   -4.3300   -4.2040    0.6540 C   0  0  0  0  0  0  0  0  0  0  0  0
   -2.8450    1.0630    0.3660 C   0  0  0  0  0  0  0  0  0  0  0  0
   -1.7570    0.1680    0.3180 N   0  0  0  0  0  0  0  0  0  0  0  0
   -0.5410    0.3940   -0.3380 C   0  0  0  0  0  0  0  0  0  0  0  0
   -0.3130    1.4460   -0.9570 O   0  0  0  0  0  0  0  0  0  0  0  0
    0.4650   -0.6410   -0.2800 N   0  0  0  0  0  0  0  0  0  0  0  0
    1.7340   -0.4480   -0.9440 C   0  0  0  0  0  0  0  0  0  0  0  0
    2.6380   -1.6620   -0.7510 C   0  0  0  0  0  0  0  0  0  0  0  0
    3.9320   -1.4380   -1.4430 C   0  0  0  0  0  0  0  0  0  0  0  0
    4.1970   -2.0690   -2.6400 C   0  0  0  0  0  0  0  0  0  0  0  0
    5.3860   -1.8990   -3.3270 C   0  0  0  0  0  0  0  0  0  0  0  0
    6.3500   -1.0590   -2.7910 C   0  0  0  0  0  0  0  0  0  0  0  0
    6.1050   -0.4250   -1.6070 C   0  0  0  0  0  0  0  0  0  0  0  0
    4.9140   -0.6070   -0.9350 C   0  0  0  0  0  0  0  0  0  0  0  0
    4.6210    0.0330    0.2970 N   0  0  0  0  0  0  0  0  0  0  0  0
    5.5620    0.4100    1.0820 C   0  0  0  0  0  0  0  0  0  0  0  0
    5.3080    1.0660    2.3490 C   0  0  0  0  0  0  0  0  0  0  0  0
    6.3440    1.4830    3.2140 N   0  0  0  0  0  0  0  0  0  0  0  0
    4.1250    1.2820    2.7090 O   0  0  0  0  0  0  0  0  0  0  0  0
   -2.8950    2.3040   -0.2150 C   0  0  0  0  0  0  0  0  0  0  0  0
  1  2  1  0
  2  3  1  0
  3  4  2  0
  3 31  1  0
  4  5  1  0
  5  6  2  0
  6  7  1  0
  6 13  1  0
  7  8  1  0
  8  9  2  0
 10  8  1  6
 10 11  1  0
 10 12  1  0
 11 12  1  0
 13 14  1  0
 13 31  2  0
 14 15  1  0
 15 16  2  0
 15 17  1  0
 17 18  1  0
 18 19  1  0
 19 20  1  0
 20 21  2  0
 20 25  1  0
 21 22  1  0
 22 23  2  0
 23 24  1  0
 24 25  2  0
 25 26  1  0
 26 27  2  3
 27 28  1  0
 28 29  1  0
 28 30  2  0
M  END
