
     RDKit          3D

 31 32  0  0  0  0  0  0  0  0999 V2000
    6.7450   -2.5640    1.4440 C   0  0  0  0  0  0  0  0  0  0  0  0
    5.4860   -1.9180    0.9070 C   0  0  0  0  0  0  0  0  0  0  0  0
    5.9300   -0.7550    0.0180 C   0  0  2  0  0  0  0  0  0  0  0  0
    6.7300    0.2340    0.8370 C   0  0  0  0  0  0  0  0  0  0  0  0
    4.7270   -0.1470   -0.5430 N   0  0  0  0  0  0  0  0  0  0  0  0
    4.5340   -0.0740   -1.9350 C   0  0  0  0  0  0  0  0  0  0  0  0
    5.4450   -0.5670   -2.6670 O   0  0  0  0  0  0  0  0  0  0  0  0
    3.3750    0.5160   -2.5930 C   0  0  0  0  0  0  0  0  0  0  0  0
    2.4490    1.0870   -1.6240 N   0  0  0  0  0  0  0  0  0  0  0  0
    2.8330    2.1720   -0.7900 C   0  0  0  0  0  0  0  0  0  0  0  0
    4.0340    2.6020   -0.9810 O   0  0  0  0  0  0  0  0  0  0  0  0
    1.9980    2.8180    0.2310 C   0  0  0  0  0  0  0  0  0  0  0  0
    0.6890    2.1260    0.3230 N   0  0  0  0  0  0  0  0  0  0  0  0
    0.4950    1.1470    1.3630 C   0  0  0  0  0  0  0  0  0  0  0  0
    0.7250   -0.2700    0.9540 C   0  0  0  0  0  0  0  0  0  0  0  0
   -0.2860    2.5500   -0.5620 C   0  0  0  0  0  0  0  0  0  0  0  0
    0.0400    3.5290   -1.3640 O   0  0  0  0  0  0  0  0  0  0  0  0
   -1.6550    2.0630   -0.7470 C   0  0  0  0  0  0  0  0  0  0  0  0
   -2.5520    2.6300   -1.6700 C   0  0  0  0  0  0  0  0  0  0  0  0
   -3.7460    1.9380   -1.5690 C   0  0  0  0  0  0  0  0  0  0  0  0
   -4.8780    2.2210   -2.3370 O   0  0  0  0  0  0  0  0  0  0  0  0
   -3.6100    0.9690   -0.6190 C   0  0  0  0  0  0  0  0  0  0  0  0
   -4.6010   -0.0170   -0.1570 C   0  0  0  0  0  0  0  0  0  0  0  0
   -5.8700   -0.0670   -0.6800 C   0  0  0  0  0  0  0  0  0  0  0  0
   -6.7990   -1.0140   -0.2270 C   0  0  0  0  0  0  0  0  0  0  0  0
   -6.4840   -1.9250    0.7520 C   0  0  0  0  0  0  0  0  0  0  0  0
   -7.4330   -2.8840    1.2080 N   0  0  0  0  0  0  0  0  0  0  0  0
   -8.7500   -2.8700    0.6050 C   0  0  0  0  0  0  0  0  0  0  0  0
   -5.2070   -1.8580    1.2640 C   0  0  0  0  0  0  0  0  0  0  0  0
   -4.2820   -0.9340    0.8290 C   0  0  0  0  0  0  0  0  0  0  0  0
   -2.3340    1.0890   -0.1570 N   0  0  0  0  0  0  0  0  0  0  0  0
  1  2  1  0
  2  3  1  0
  3  4  1  1
  3  5  1  0
  5  6  1  0
  6  7  2  0
  6  8  1  0
  8  9  1  0
  9 10  1  0
 10 11  2  0
 10 12  1  0
 12 13  1  0
 13 14  1  0
 13 16  1  0
 14 15  1  0
 16 17  2  0
 16 18  1  0
 18 19  2  0
 18 31  1  0
 19 20  1  0
 20 21  1  0
 20 22  2  0
 22 23  1  0
 22 31  1  0
 23 24  2  0
 23 30  1  0
 24 25  1  0
 25 26  2  0
 26 27  1  0
 26 29  1  0
 27 28  1  0
 29 30  2  0
M  END
