
     RDKit          3D

 31 33  0  0  0  0  0  0  0  0999 V2000
   -6.4490   -1.4260    1.3580 C   0  0  0  0  0  0  0  0  0  0  0  0
   -5.7490   -0.2530    1.9590 C   0  0  0  0  0  0  0  0  0  0  0  0
   -4.4240    0.0860    1.3950 C   0  0  0  0  0  0  0  0  0  0  0  0
   -4.3520    0.4530   -0.0400 C   0  0  2  0  0  0  0  0  0  0  0  0
   -4.7730   -0.5540   -1.0120 C   0  0  0  0  0  0  0  0  0  0  0  0
   -5.6050   -0.3700   -2.1070 C   0  0  0  0  0  0  0  0  0  0  0  0
   -5.7270   -1.5510   -2.7670 C   0  0  0  0  0  0  0  0  0  0  0  0
   -5.0060   -2.4770   -2.1360 N   0  0  0  0  0  0  0  0  0  0  0  0
   -4.4190   -1.9090   -1.0740 C   0  0  0  0  0  0  0  0  0  0  0  0
   -3.0070    1.0110   -0.3380 C   0  0  0  0  0  0  0  0  0  0  0  0
   -2.8740    2.1480   -1.0950 C   0  0  0  0  0  0  0  0  0  0  0  0
   -1.6210    2.6800   -1.3820 C   0  0  0  0  0  0  0  0  0  0  0  0
   -0.5280    2.0480   -0.8950 C   0  0  0  0  0  0  0  0  0  0  0  0
   -0.5980    0.8850   -0.1160 C   0  0  0  0  0  0  0  0  0  0  0  0
    0.6210    0.3110    0.3250 N   0  0  0  0  0  0  0  0  0  0  0  0
    0.8090   -0.6960    1.2720 C   0  0  0  0  0  0  0  0  0  0  0  0
   -0.1970   -1.1960    1.8340 O   0  0  0  0  0  0  0  0  0  0  0  0
    2.1220   -1.2640    1.7000 C   0  0  0  0  0  0  0  0  0  0  0  0
    3.2610   -0.6610    1.0940 N   0  0  0  0  0  0  0  0  0  0  0  0
    3.6090    0.7020    1.2660 C   0  0  0  0  0  0  0  0  0  0  0  0
    2.8920    1.4670    2.0070 O   0  0  0  0  0  0  0  0  0  0  0  0
    4.7730    1.3050    0.6300 C   0  0  0  0  0  0  0  0  0  0  0  0
    5.1890    2.6280    0.7410 C   0  0  0  0  0  0  0  0  0  0  0  0
    6.2950    2.7910    0.0120 N   0  0  0  0  0  0  0  0  0  0  0  0
    6.6120    1.6470   -0.5630 N   0  0  0  0  0  0  0  0  0  0  0  0
    5.6930    0.7140   -0.2000 C   0  0  0  0  0  0  0  0  0  0  0  0
    5.7440   -0.5870   -0.6360 O   0  0  0  0  0  0  0  0  0  0  0  0
    6.7210   -1.1090   -1.4850 C   0  0  0  0  0  0  0  0  0  0  0  0
    8.1190   -1.0120   -0.9410 C   0  0  0  0  0  0  0  0  0  0  0  0
    8.2030   -1.7070    0.2490 O   0  0  0  0  0  0  0  0  0  0  0  0
   -1.8570    0.4070    0.1340 C   0  0  0  0  0  0  0  0  0  0  0  0
  1  2  1  0
  2  3  1  0
  4  3  1  1
  4  5  1  0
  4 10  1  0
  5  6  1  0
  5  9  2  0
  6  7  2  0
  7  8  1  0
  8  9  1  0
 10 11  2  0
 10 31  1  0
 11 12  1  0
 12 13  2  0
 13 14  1  0
 14 15  1  0
 14 31  2  0
 15 16  1  0
 16 17  2  0
 16 18  1  0
 18 19  1  0
 19 20  1  0
 20 21  2  0
 20 22  1  0
 22 23  2  0
 22 26  1  0
 23 24  1  0
 24 25  1  0
 25 26  2  0
 26 27  1  0
 27 28  1  0
 28 29  1  0
 29 30  1  0
M  END
