
     RDKit          3D

 31 33  0  0  0  0  0  0  0  0999 V2000
   -6.0000    0.8760   -2.3510 C   0  0  0  0  0  0  0  0  0  0  0  0
   -4.9270    0.7840   -1.3430 C   0  0  0  0  0  0  0  0  0  0  0  0
   -3.9820    1.8090   -1.2850 C   0  0  0  0  0  0  0  0  0  0  0  0
   -2.8990    1.7850   -0.4310 C   0  0  0  0  0  0  0  0  0  0  0  0
   -2.7200    0.7230    0.4050 C   0  0  0  0  0  0  0  0  0  0  0  0
   -1.6540    0.5740    1.3410 N   0  0  0  0  0  0  0  0  0  0  0  0
   -0.6930    1.5530    1.6660 C   0  0  0  0  0  0  0  0  0  0  0  0
   -0.6990    2.6730    1.1450 O   0  0  0  0  0  0  0  0  0  0  0  0
    0.3490    1.2960    2.6250 N   0  0  0  0  0  0  0  0  0  0  0  0
    1.3500    2.2740    2.9780 C   0  0  0  0  0  0  0  0  0  0  0  0
    2.2050    2.7190    1.8180 C   0  0  0  0  0  0  0  0  0  0  0  0
    2.9530    1.5370    1.2030 C   0  0  0  0  0  0  0  0  0  0  0  0
    3.6940    2.0390    0.1690 O   0  0  0  0  0  0  0  0  0  0  0  0
    4.4460    1.1210   -0.5360 C   0  0  0  0  0  0  0  0  0  0  0  0
    5.4210    0.4600    0.3770 C   0  0  0  0  0  0  0  0  0  0  0  0
    6.2720   -0.5450   -0.3400 C   0  0  0  0  0  0  0  0  0  0  0  0
    5.7920   -1.8350   -0.3920 C   0  0  0  0  0  0  0  0  0  0  0  0
    6.5150   -2.7980   -1.0270 C   0  0  0  0  0  0  0  0  0  0  0  0
    7.7170   -2.4710   -1.6120 C   0  0  0  0  0  0  0  0  0  0  0  0
    8.4160   -3.5070   -2.2540 O   0  0  0  0  0  0  0  0  0  0  0  0
    8.2250   -1.1970   -1.5810 C   0  0  0  0  0  0  0  0  0  0  0  0
    7.4690   -0.2350   -0.9270 C   0  0  0  0  0  0  0  0  0  0  0  0
   -3.6370   -0.2820    0.3570 C   0  0  0  0  0  0  0  0  0  0  0  0
   -4.7550   -0.2810   -0.5080 C   0  0  0  0  0  0  0  0  0  0  0  0
   -5.6150   -1.4410   -0.4940 C   0  0  0  0  0  0  0  0  0  0  0  0
   -5.0920   -2.7030   -0.3170 N   0  0  0  0  0  0  0  0  0  0  0  0
   -6.0520   -3.5950   -0.2600 N   0  0  0  0  0  0  0  0  0  0  0  0
   -7.2140   -2.9540   -0.3960 C   0  0  0  0  0  0  0  0  0  0  0  0
   -8.3600   -3.4670   -0.3940 O   0  0  0  0  0  0  0  0  0  0  0  0
   -6.9020   -1.6120   -0.5380 N   0  0  0  0  0  0  0  0  0  0  0  0
   -7.9740   -0.6250   -0.6400 C   0  0  0  0  0  0  0  0  0  0  0  0
  1  2  1  0
  2  3  2  0
  2 24  1  0
  3  4  1  0
  4  5  2  0
  5  6  1  0
  5 23  1  0
  6  7  1  0
  7  8  2  0
  7  9  1  0
  9 10  1  0
 10 11  1  0
 11 12  1  0
 12 13  1  0
 13 14  1  0
 14 15  1  0
 15 16  1  0
 16 17  2  0
 16 22  1  0
 17 18  1  0
 18 19  2  0
 19 20  1  0
 19 21  1  0
 21 22  2  0
 23 24  2  0
 24 25  1  0
 25 26  2  0
 25 30  1  0
 26 27  1  0
 27 28  1  0
 28 29  2  0
 28 30  1  0
 30 31  1  0
M  END
