
     RDKit          3D

 28 30  0  0  0  0  0  0  0  0999 V2000
   -4.5420   -0.9610   -3.4440 C   0  0  0  0  0  0  0  0  0  0  0  0
   -3.9200   -0.3980   -2.4340 C   0  0  0  0  0  0  0  0  0  0  0  0
   -4.6290    0.5230   -1.5420 C   0  0  0  0  0  0  0  0  0  0  0  0
   -4.4990   -0.1770   -0.1420 N   0  0  0  0  0  0  0  0  0  0  0  0
   -3.3620    0.2140    0.5300 C   0  0  0  0  0  0  0  0  0  0  0  0
   -2.6630    1.0380   -0.2140 O   0  0  0  0  0  0  0  0  0  0  0  0
   -2.7710   -0.0480    1.7870 C   0  0  0  0  0  0  0  0  0  0  0  0
   -3.3150   -0.7020    2.8270 C   0  0  0  0  0  0  0  0  0  0  0  0
   -2.3300   -0.7290    3.9210 C   0  0  0  0  0  0  0  0  0  0  0  0
   -1.2950   -0.1510    3.5570 N   0  0  0  0  0  0  0  0  0  0  0  0
   -1.4300    0.3380    2.1910 C   0  0  0  0  0  0  0  0  0  0  0  0
   -0.3690    0.8030    1.5070 C   0  0  0  0  0  0  0  0  0  0  0  0
    0.7960    1.1020    2.2650 N   0  0  0  0  0  0  0  0  0  0  0  0
    1.8390    1.4520    1.7240 C   0  0  0  0  0  0  0  0  0  0  0  0
    3.4330    1.8730    2.4260 S   0  0  0  0  0  0  0  0  0  0  0  0
    4.5220    2.4370    1.0930 C   0  0  0  0  0  0  0  0  0  0  0  0
    4.7870    1.2830    0.2010 C   0  0  0  0  0  0  0  0  0  0  0  0
    4.3040    0.1530    0.4260 O   0  0  0  0  0  0  0  0  0  0  0  0
    5.5910    1.3970   -0.9390 O   0  0  0  0  0  0  0  0  0  0  0  0
    5.8330    0.2960   -1.7750 C   0  0  0  0  0  0  0  0  0  0  0  0
    6.5170   -0.8530   -1.0950 C   0  0  0  0  0  0  0  0  0  0  0  0
    7.8690   -0.4630   -0.5380 C   0  0  0  0  0  0  0  0  0  0  0  0
    8.6860   -0.0220   -1.5890 O   0  0  0  0  0  0  0  0  0  0  0  0
    1.4980    1.6000   -0.0190 S   0  0  0  0  0  0  0  0  0  0  0  0
   -0.1450    0.9490    0.1440 N   0  0  0  0  0  0  0  0  0  0  0  0
   -5.5790   -1.0430    0.0220 C   0  0  2  0  0  0  0  0  0  0  0  0
   -6.4710   -0.8500    1.2540 C   0  0  0  0  0  0  0  0  0  0  0  0
   -5.8390   -2.1380    0.9370 C   0  0  0  0  0  0  0  0  0  0  0  0
  1  2  2  0
  2  3  1  0
  3  4  1  0
  4  5  1  0
 26  4  1  1
  5  6  2  0
  5  7  1  0
  7  8  2  0
  7 11  1  0
  8  9  1  0
  9 10  2  0
 10 11  1  0
 11 12  2  3
 12 13  1  0
 12 25  1  0
 13 14  2  0
 14 15  1  0
 14 24  1  0
 15 16  1  0
 16 17  1  0
 17 18  2  0
 17 19  1  0
 19 20  1  0
 20 21  1  0
 21 22  1  0
 22 23  1  0
 24 25  1  0
 26 27  1  0
 26 28  1  0
 27 28  1  0
M  END
