
     RDKit          3D

 31 33  0  0  0  0  0  0  0  0999 V2000
    5.0050    0.7710    6.0290 C   0  0  0  0  0  0  0  0  0  0  0  0
    4.6220    0.9500    4.5970 C   0  0  0  0  0  0  0  0  0  0  0  0
    5.3750    2.0620    3.8970 C   0  0  0  0  0  0  0  0  0  0  0  0
    4.8760    2.1020    2.4850 C   0  0  0  0  0  0  0  0  0  0  0  0
    5.3260    2.9840    1.4960 C   0  0  0  0  0  0  0  0  0  0  0  0
    4.6050    2.6610    0.3780 C   0  0  0  0  0  0  0  0  0  0  0  0
    3.7550    1.6270    0.6890 C   0  0  0  0  0  0  0  0  0  0  0  0
    2.7970    0.9580   -0.1960 C   0  0  0  0  0  0  0  0  0  0  0  0
    2.0030    0.0830    0.2250 O   0  0  0  0  0  0  0  0  0  0  0  0
    2.7460    1.2960   -1.5850 N   0  0  0  0  0  0  0  0  0  0  0  0
    1.7670    0.6190   -2.4400 C   0  0  2  0  0  0  0  0  0  0  0  0
    2.5000   -0.4050   -3.3220 C   0  0  0  0  0  0  0  0  0  0  0  0
    1.0440    1.6000   -3.3060 C   0  0  0  0  0  0  0  0  0  0  0  0
    0.0760    0.9370   -4.1290 N   0  0  0  0  0  0  0  0  0  0  0  0
   -1.0270    0.2610   -3.5250 C   0  0  0  0  0  0  0  0  0  0  0  0
   -1.1290    0.2610   -2.2650 O   0  0  0  0  0  0  0  0  0  0  0  0
   -2.0130   -0.4020   -4.2730 N   0  0  0  0  0  0  0  0  0  0  0  0
   -3.1560   -1.0600   -3.7800 C   0  0  0  0  0  0  0  0  0  0  0  0
   -3.9830   -1.7040   -4.7080 C   0  0  0  0  0  0  0  0  0  0  0  0
   -5.1500   -2.3520   -4.3390 C   0  0  0  0  0  0  0  0  0  0  0  0
   -5.5170   -2.3680   -3.0130 C   0  0  0  0  0  0  0  0  0  0  0  0
   -4.7310   -1.7450   -2.0560 C   0  0  0  0  0  0  0  0  0  0  0  0
   -5.1770   -1.7630   -0.7160 N   0  0  0  0  0  0  0  0  0  0  0  0
   -4.3090   -1.7440    0.3880 C   0  0  0  0  0  0  0  0  0  0  0  0
   -3.0660   -1.7620    0.1750 O   0  0  0  0  0  0  0  0  0  0  0  0
   -4.7880   -1.7040    1.7530 N   0  0  0  0  0  0  0  0  0  0  0  0
   -3.8680   -1.6970    2.8450 C   0  0  2  0  0  0  0  0  0  0  0  0
   -4.2580   -1.7180    4.2490 C   0  0  0  0  0  0  0  0  0  0  0  0
   -3.7680   -0.3900    3.7020 C   0  0  0  0  0  0  0  0  0  0  0  0
   -3.5680   -1.1100   -2.4880 C   0  0  0  0  0  0  0  0  0  0  0  0
    3.9660    1.3510    1.9370 O   0  0  0  0  0  0  0  0  0  0  0  0
  1  2  1  0
  2  3  1  0
  3  4  1  0
  4  5  2  0
  4 31  1  0
  5  6  1  0
  6  7  2  0
  7  8  1  0
  7 31  1  0
  8  9  2  0
  8 10  1  0
 10 11  1  0
 11 12  1  6
 11 13  1  0
 13 14  1  0
 14 15  1  0
 15 16  2  0
 15 17  1  0
 17 18  1  0
 18 19  2  0
 18 30  1  0
 19 20  1  0
 20 21  2  0
 21 22  1  0
 22 23  1  0
 22 30  2  0
 23 24  1  0
 24 25  2  0
 24 26  1  0
 27 26  1  6
 27 28  1  0
 27 29  1  0
 28 29  1  0
M  END
