
     RDKit          3D

 31 33  0  0  0  0  0  0  0  0999 V2000
    6.3910    4.3350   -0.7670 C   0  0  0  0  0  0  0  0  0  0  0  0
    6.5900    2.9400   -0.8160 O   0  0  0  0  0  0  0  0  0  0  0  0
    5.5980    2.0170   -0.5450 C   0  0  0  0  0  0  0  0  0  0  0  0
    4.3270    2.4500   -0.2030 C   0  0  0  0  0  0  0  0  0  0  0  0
    3.3360    1.5560    0.0680 C   0  0  0  0  0  0  0  0  0  0  0  0
    3.5880    0.1770    0.0060 C   0  0  0  0  0  0  0  0  0  0  0  0
    2.5360   -0.7250    0.2710 N   0  0  0  0  0  0  0  0  0  0  0  0
    2.7220   -2.0680    0.5610 C   0  0  0  0  0  0  0  0  0  0  0  0
    3.8690   -2.6070    0.6210 O   0  0  0  0  0  0  0  0  0  0  0  0
    1.6380   -2.9430    0.8140 N   0  0  0  0  0  0  0  0  0  0  0  0
    0.2730   -2.4620    0.7800 C   0  0  0  0  0  0  0  0  0  0  0  0
   -0.1860   -1.9760    2.1260 C   0  0  0  0  0  0  0  0  0  0  0  0
   -1.6140   -1.5380    2.1640 C   0  0  0  0  0  0  0  0  0  0  0  0
   -1.9220   -0.4250    1.2780 C   0  0  0  0  0  0  0  0  0  0  0  0
   -1.0490    0.1360    0.5920 O   0  0  0  0  0  0  0  0  0  0  0  0
   -3.2780    0.0750    1.1630 N   0  0  0  0  0  0  0  0  0  0  0  0
   -3.5280    1.1600    0.2870 C   0  0  2  0  0  0  0  0  0  0  0  0
   -4.0940    2.3810    1.0100 C   0  0  0  0  0  0  0  0  0  0  0  0
   -3.9540    3.5510    0.0700 C   0  0  0  0  0  0  0  0  0  0  0  0
   -4.4690    3.2470   -1.2490 N   0  0  0  0  0  0  0  0  0  0  0  0
   -5.0020    1.9490   -1.5810 C   0  0  0  0  0  0  0  0  0  0  0  0
   -5.8580    1.5700   -2.4840 C   0  0  0  0  0  0  0  0  0  0  0  0
   -6.0160    0.1000   -2.3480 C   0  0  0  0  0  0  0  0  0  0  0  0
   -5.1070   -0.2450   -1.2270 C   0  0  0  0  0  0  0  0  0  0  0  0
   -4.5200    0.8300   -0.7840 C   0  0  0  0  0  0  0  0  0  0  0  0
    1.8910   -4.3550    1.1140 C   0  0  0  0  0  0  0  0  0  0  0  0
    1.9050   -5.1410   -0.1410 C   0  0  0  0  0  0  0  0  0  0  0  0
    1.6920   -4.4980   -1.3710 N   0  0  0  0  0  0  0  0  0  0  0  0
    2.1090   -6.3760   -0.0840 O   0  0  0  0  0  0  0  0  0  0  0  0
    4.8370   -0.2120   -0.3310 C   0  0  0  0  0  0  0  0  0  0  0  0
    5.8800    0.6860   -0.6150 C   0  0  0  0  0  0  0  0  0  0  0  0
  1  2  1  0
  2  3  1  0
  3  4  2  0
  3 31  1  0
  4  5  1  0
  5  6  2  0
  6  7  1  0
  6 30  1  0
  7  8  1  0
  8  9  2  0
  8 10  1  0
 10 11  1  0
 10 26  1  0
 11 12  1  0
 12 13  1  0
 13 14  1  0
 14 15  2  0
 14 16  1  0
 17 16  1  1
 17 18  1  0
 17 25  1  0
 18 19  1  0
 19 20  1  0
 20 21  1  0
 21 22  2  0
 21 25  1  0
 22 23  1  0
 23 24  1  0
 24 25  2  0
 26 27  1  0
 27 28  1  0
 27 29  2  0
 30 31  2  0
M  END
