
     RDKit          3D

 31 33  0  0  0  0  0  0  0  0999 V2000
   -4.9360    3.0880   -1.2560 C   0  0  0  0  0  0  0  0  0  0  0  0
   -4.2010    2.0780   -0.3530 C   0  0  0  0  0  0  0  0  0  0  0  0
   -4.7840    0.7450   -0.6670 C   0  0  0  0  0  0  0  0  0  0  0  0
   -4.2520   -0.4160    0.0840 C   0  0  2  0  0  0  0  0  0  0  0  0
   -2.8030   -0.7030   -0.0610 C   0  0  0  0  0  0  0  0  0  0  0  0
   -1.9210    0.3490    0.3600 N   0  0  0  0  0  0  0  0  0  0  0  0
   -1.8830    0.8640    1.6790 C   0  0  0  0  0  0  0  0  0  0  0  0
   -2.6950    0.3530    2.5190 O   0  0  0  0  0  0  0  0  0  0  0  0
   -1.0040    1.9370    2.1650 C   0  0  0  0  0  0  0  0  0  0  0  0
    0.1000    2.1660    1.4340 O   0  0  0  0  0  0  0  0  0  0  0  0
    1.1370    1.2830    1.5830 C   0  0  0  0  0  0  0  0  0  0  0  0
    0.9120   -0.1550    1.2940 C   0  0  0  0  0  0  0  0  0  0  0  0
    2.1470   -0.8960    1.5290 N   0  0  0  0  0  0  0  0  0  0  0  0
    3.2960   -0.5940    0.6980 C   0  0  0  0  0  0  0  0  0  0  0  0
    3.1690    0.2710   -0.1800 O   0  0  0  0  0  0  0  0  0  0  0  0
    4.5080   -1.2560    0.8790 N   0  0  0  0  0  0  0  0  0  0  0  0
    5.7290   -1.0750    0.2570 N   0  0  0  0  0  0  0  0  0  0  0  0
    6.6740   -2.0750    0.2650 C   0  0  0  0  0  0  0  0  0  0  0  0
    6.5190   -3.2210    0.7630 O   0  0  0  0  0  0  0  0  0  0  0  0
    7.7700   -1.6650   -0.3260 N   0  0  0  0  0  0  0  0  0  0  0  0
    7.5750   -0.4100   -0.7250 C   0  0  0  0  0  0  0  0  0  0  0  0
    8.4170    0.4950   -1.3710 C   0  0  0  0  0  0  0  0  0  0  0  0
    8.0150    1.7660   -1.6570 C   0  0  0  0  0  0  0  0  0  0  0  0
    6.7340    2.1150   -1.2760 C   0  0  0  0  0  0  0  0  0  0  0  0
    5.8740    1.2400   -0.6340 C   0  0  0  0  0  0  0  0  0  0  0  0
    6.2900   -0.0430   -0.3540 C   0  0  0  0  0  0  0  0  0  0  0  0
   -5.0700   -1.6140   -0.3510 C   0  0  0  0  0  0  0  0  0  0  0  0
   -5.9680   -1.6780   -1.3170 C   0  0  0  0  0  0  0  0  0  0  0  0
   -6.5150   -3.0370   -1.3910 C   0  0  0  0  0  0  0  0  0  0  0  0
   -5.8080   -3.7680   -0.3250 C   0  0  0  0  0  0  0  0  0  0  0  0
   -4.9760   -2.9330    0.2680 C   0  0  0  0  0  0  0  0  0  0  0  0
  1  2  1  0
  2  3  1  0
  4  3  1  6
  4  5  1  0
  4 27  1  0
  5  6  1  0
  6  7  1  0
  7  8  2  0
  7  9  1  0
  9 10  1  0
 10 11  1  0
 11 12  1  0
 12 13  1  0
 13 14  1  0
 14 15  2  0
 14 16  1  0
 16 17  1  0
 17 18  1  0
 17 26  1  0
 18 19  2  0
 18 20  1  0
 20 21  1  0
 21 22  2  0
 21 26  1  0
 22 23  1  0
 23 24  2  0
 24 25  1  0
 25 26  2  0
 27 28  2  0
 27 31  1  0
 28 29  1  0
 29 30  1  0
 30 31  2  0
M  END
