
     RDKit          3D

 29 32  0  0  0  0  0  0  0  0999 V2000
   -3.6540    2.3680    1.1730 C   0  0  0  0  0  0  0  0  0  0  0  0
   -3.7570    1.6400   -0.0340 N   0  0  0  0  0  0  0  0  0  0  0  0
   -2.8890    1.2410   -0.8530 C   0  0  0  0  0  0  0  0  0  0  0  0
   -3.3030    0.5180   -1.9990 N   0  0  0  0  0  0  0  0  0  0  0  0
   -1.4700    1.5150   -0.6380 C   0  0  1  0  0  0  0  0  0  0  0  0
   -0.9460    2.5080   -2.0520 Cl  0  0  0  0  0  0  0  0  0  0  0  0
   -1.2200    2.3300    0.4900 O   0  0  0  0  0  0  0  0  0  0  0  0
   -0.3420    2.1550    1.5860 C   0  0  0  0  0  0  0  0  0  0  0  0
    0.4050    1.1060    1.5020 C   0  0  0  0  0  0  0  0  0  0  0  0
    0.5300    0.1420    0.6010 C   0  0  0  0  0  0  0  0  0  0  0  0
   -0.3890   -0.0120   -0.8630 S   0  0  0  0  0  0  0  0  0  0  0  0
   -0.4520   -1.8660   -0.5460 C   0  0  1  0  0  0  0  0  0  0  0  0
   -1.7030   -2.3010   -0.1370 O   0  0  0  0  0  0  0  0  0  0  0  0
   -0.0640   -2.4900   -1.8250 C   0  0  0  0  0  0  0  0  0  0  0  0
   -1.0460   -2.2070   -2.7880 O   0  0  0  0  0  0  0  0  0  0  0  0
    0.4480   -2.0550    0.5640 N   0  0  0  0  0  0  0  0  0  0  0  0
    0.0840   -3.0010    1.4690 N   0  0  0  0  0  0  0  0  0  0  0  0
    1.2430   -0.9860    1.0030 C   0  0  1  0  0  0  0  0  0  0  0  0
    2.5360   -1.0660    0.4880 O   0  0  0  0  0  0  0  0  0  0  0  0
    3.5250   -0.1230    0.7180 C   0  0  0  0  0  0  0  0  0  0  0  0
    3.9780    0.0010    2.0220 O   0  0  0  0  0  0  0  0  0  0  0  0
    4.0420    0.6400   -0.2100 C   0  0  0  0  0  0  0  0  0  0  0  0
    3.6570    0.6090   -1.6100 C   0  0  0  0  0  0  0  0  0  0  0  0
    2.7680   -0.2000   -1.9650 O   0  0  0  0  0  0  0  0  0  0  0  0
    4.2220    1.4290   -2.5710 O   0  0  0  0  0  0  0  0  0  0  0  0
    1.3810   -0.7020    2.3980 O   0  0  0  0  0  0  0  0  0  0  0  0
    1.0740    0.6460    2.6370 N   0  0  0  0  0  0  0  0  0  0  0  0
    1.0400    1.7570    3.3800 O   0  0  0  0  0  0  0  0  0  0  0  0
    0.1040    2.6400    2.8010 O   0  0  0  0  0  0  0  0  0  0  0  0
  1  2  1  0
  2  3  2  3
  3  4  1  0
  3  5  1  0
  5  6  1  6
  5  7  1  0
 11  5  1  1
  7  8  1  0
  8  9  2  0
  8 29  1  0
  9 10  1  0
  9 27  1  0
 10 11  2  0
 10 18  1  0
 11 12  1  0
 12 13  1  1
 12 14  1  0
 12 16  1  0
 14 15  1  0
 16 17  1  0
 16 18  1  0
 18 19  1  6
 18 26  1  0
 19 20  1  0
 20 21  1  0
 20 22  2  3
 22 23  1  0
 23 24  2  0
 23 25  1  0
 26 27  1  0
 27 28  1  0
 28 29  1  0
M  END
