
     RDKit          3D

 29 32  0  0  0  0  0  0  0  0999 V2000
   -8.0090   -2.7590    0.2790 N   0  0  0  0  0  0  0  0  0  0  0  0
   -6.8280   -2.2390    0.1350 C   0  0  0  0  0  0  0  0  0  0  0  0
   -6.3530   -1.7630   -1.0670 C   0  0  0  0  0  0  0  0  0  0  0  0
   -5.0810   -1.2310   -1.1000 C   0  0  0  0  0  0  0  0  0  0  0  0
   -4.3000   -1.1610   -0.0210 N   0  0  0  0  0  0  0  0  0  0  0  0
   -2.9830   -0.5840   -0.1690 C   0  0  2  0  0  0  0  0  0  0  0  0
   -2.2950   -0.5040    1.0240 O   0  0  0  0  0  0  0  0  0  0  0  0
   -1.1760    0.2490    0.7150 C   0  0  2  0  0  0  0  0  0  0  0  0
   -0.6260    0.9710    1.9280 C   0  0  0  0  0  0  0  0  0  0  0  0
    0.5350    1.7540    1.6130 N   0  0  0  0  0  0  0  0  0  0  0  0
    1.7340    1.2040    1.0850 C   0  0  0  0  0  0  0  0  0  0  0  0
    1.7920   -0.0180    0.8810 O   0  0  0  0  0  0  0  0  0  0  0  0
    2.8800    2.0950    0.7900 C   0  0  0  0  0  0  0  0  0  0  0  0
    4.0310    1.3470    0.2510 C   0  0  0  0  0  0  0  0  0  0  0  0
    4.3580    1.0460   -1.0110 N   0  0  0  0  0  0  0  0  0  0  0  0
    5.5050    0.3450   -1.0100 C   0  0  0  0  0  0  0  0  0  0  0  0
    6.2870   -0.2150   -2.0210 C   0  0  0  0  0  0  0  0  0  0  0  0
    7.4490   -0.9050   -1.7620 C   0  0  0  0  0  0  0  0  0  0  0  0
    7.8600   -1.0500   -0.4380 C   0  0  0  0  0  0  0  0  0  0  0  0
    7.0890   -0.4980    0.5620 C   0  0  0  0  0  0  0  0  0  0  0  0
    5.9250    0.1930    0.2980 C   0  0  0  0  0  0  0  0  0  0  0  0
    4.9960    0.8210    1.0410 N   0  0  0  0  0  0  0  0  0  0  0  0
   -1.6060    1.2950   -0.2930 C   0  0  1  0  0  0  0  0  0  0  0  0
   -0.8950    1.0940   -1.4820 O   0  0  0  0  0  0  0  0  0  0  0  0
   -3.0550    0.8920   -0.5600 C   0  0  1  0  0  0  0  0  0  0  0  0
   -3.4190    1.0780   -1.8690 O   0  0  0  0  0  0  0  0  0  0  0  0
   -4.7750   -1.6270    1.1410 C   0  0  0  0  0  0  0  0  0  0  0  0
   -4.0230   -1.5530    2.1490 O   0  0  0  0  0  0  0  0  0  0  0  0
   -6.0130   -2.1520    1.2030 N   0  0  0  0  0  0  0  0  0  0  0  0
  1  2  2  0
  2  3  1  0
  2 29  1  0
  3  4  2  0
  4  5  1  0
  6  5  1  1
  5 27  1  0
  6  7  1  0
  6 25  1  0
  7  8  1  0
  8  9  1  1
  8 23  1  0
  9 10  1  0
 10 11  1  0
 11 12  2  0
 11 13  1  0
 13 14  1  0
 14 15  2  0
 14 22  1  0
 15 16  1  0
 16 17  2  0
 16 21  1  0
 17 18  1  0
 18 19  2  0
 19 20  1  0
 20 21  2  0
 21 22  1  0
 23 24  1  6
 23 25  1  0
 25 26  1  6
 27 28  2  0
 27 29  1  0
M  END
