
     RDKit          3D

 29 31  0  0  0  0  0  0  0  0999 V2000
    2.7320    1.6130   -1.5300 N   0  0  0  0  0  0  0  0  0  0  0  0
    3.2680    1.9000   -0.5170 C   0  0  0  0  0  0  0  0  0  0  0  0
    3.9160    2.2350    0.7400 C   0  0  0  0  0  0  0  0  0  0  0  0
    3.1070    1.7450    1.8900 C   0  0  0  0  0  0  0  0  0  0  0  0
    2.9780    0.3140    1.9990 N   0  0  0  0  0  0  0  0  0  0  0  0
    3.8070   -0.4160    2.7540 C   0  0  0  0  0  0  0  0  0  0  0  0
    4.7720    0.0110    3.4820 O   0  0  0  0  0  0  0  0  0  0  0  0
    3.4730   -1.7010    2.6460 N   0  0  0  0  0  0  0  0  0  0  0  0
    2.4300   -1.7750    1.8180 C   0  0  0  0  0  0  0  0  0  0  0  0
    1.7060   -2.8710    1.3700 C   0  0  0  0  0  0  0  0  0  0  0  0
    0.6680   -2.6470    0.5120 C   0  0  0  0  0  0  0  0  0  0  0  0
    0.3030   -1.3870    0.0700 C   0  0  0  0  0  0  0  0  0  0  0  0
   -0.7980   -1.2700   -0.7910 N   0  0  0  0  0  0  0  0  0  0  0  0
   -1.1760   -0.0290   -1.3490 C   0  0  0  0  0  0  0  0  0  0  0  0
   -0.2680    0.7710   -1.8140 N   0  0  0  0  0  0  0  0  0  0  0  0
   -0.5810    2.0140   -2.3840 C   0  0  0  0  0  0  0  0  0  0  0  0
   -1.8250    2.3700   -2.4420 C   0  0  0  0  0  0  0  0  0  0  0  0
   -2.9280    1.5740   -1.9560 N   0  0  0  0  0  0  0  0  0  0  0  0
   -2.6350    0.3360   -1.3890 C   0  0  0  0  0  0  0  0  0  0  0  0
   -3.3910   -0.5630   -0.7430 C   0  0  0  0  0  0  0  0  0  0  0  0
   -3.9950   -1.5230   -0.0750 C   0  0  1  0  0  0  0  0  0  0  0  0
   -3.2250   -2.1500    0.9610 F   0  0  0  0  0  0  0  0  0  0  0  0
   -5.1610   -1.1340    0.6600 F   0  0  0  0  0  0  0  0  0  0  0  0
   -4.8960   -0.0020   -1.5920 C   0  0  1  0  0  0  0  0  0  0  0  0
   -5.1330    0.9670   -0.7490 F   0  0  0  0  0  0  0  0  0  0  0  0
   -4.3230    0.1480   -2.7770 F   0  0  0  0  0  0  0  0  0  0  0  0
   -5.9680   -1.3580   -1.4550 Cl  0  0  0  0  0  0  0  0  0  0  0  0
    1.0380   -0.3220    0.5310 C   0  0  0  0  0  0  0  0  0  0  0  0
    2.0980   -0.4950    1.3950 C   0  0  0  0  0  0  0  0  0  0  0  0
  1  2  3  0
  2  3  1  0
  3  4  1  0
  4  5  1  0
  5  6  1  0
  5 29  1  0
  6  7  2  0
  6  8  1  0
  8  9  1  0
  9 10  2  0
  9 29  1  0
 10 11  1  0
 11 12  2  0
 12 13  1  0
 12 28  1  0
 13 14  1  0
 14 15  2  0
 14 19  1  0
 15 16  1  0
 16 17  2  0
 17 18  1  0
 18 19  1  0
 19 20  2  3
 20 21  1  0
 20 24  1  0
 21 22  1  1
 21 23  1  0
 24 25  1  1
 24 26  1  0
 24 27  1  0
 28 29  2  0
M  END
