
     RDKit          3D

 29 32  0  0  0  0  0  0  0  0999 V2000
   -7.2480   -0.9170    0.3450 N   0  0  0  0  0  0  0  0  0  0  0  0
   -6.0910   -0.1060    0.2880 C   0  0  0  0  0  0  0  0  0  0  0  0
   -5.8730    0.6670   -0.8290 O   0  0  0  0  0  0  0  0  0  0  0  0
   -5.2370   -0.0840    1.2750 C   0  0  0  0  0  0  0  0  0  0  0  0
   -5.4750   -0.8700    2.3930 O   0  0  0  0  0  0  0  0  0  0  0  0
   -4.1240    0.7250    1.1710 O   0  0  0  0  0  0  0  0  0  0  0  0
   -2.9650    0.1930    0.6040 C   0  0  0  0  0  0  0  0  0  0  0  0
   -3.0740   -1.0040    0.2410 O   0  0  0  0  0  0  0  0  0  0  0  0
   -1.7570    0.9940    0.4660 C   0  0  0  0  0  0  0  0  0  0  0  0
   -1.8860    2.3140    0.9500 O   0  0  0  0  0  0  0  0  0  0  0  0
   -0.6210    0.5980   -0.0480 C   0  0  0  0  0  0  0  0  0  0  0  0
    0.5000    1.4390   -0.1430 O   0  0  0  0  0  0  0  0  0  0  0  0
    1.5160    0.8500   -0.7410 C   0  0  2  0  0  0  0  0  0  0  0  0
    1.0810   -0.5790   -1.0280 C   0  0  0  0  0  0  0  0  0  0  0  0
   -0.1610   -0.6520   -0.6200 C   0  0  0  0  0  0  0  0  0  0  0  0
   -0.9130   -1.8170   -0.7430 O   0  0  0  0  0  0  0  0  0  0  0  0
    2.3010   -1.1230   -1.5820 C   0  0  0  0  0  0  0  0  0  0  0  0
    3.7010   -1.3590   -1.5940 N   0  0  0  0  0  0  0  0  0  0  0  0
    3.2940   -0.6980   -0.6290 C   0  0  2  0  0  0  0  0  0  0  0  0
    3.1990   -0.4280    0.7570 C   0  0  1  0  0  0  0  0  0  0  0  0
    4.3320   -0.2830    1.5320 O   0  0  0  0  0  0  0  0  0  0  0  0
    2.8920    0.6890   -0.1770 C   0  0  2  0  0  0  0  0  0  0  0  0
    3.8490    1.7110   -0.3960 N   0  0  0  0  0  0  0  0  0  0  0  0
    5.0310    1.6270   -0.6350 N   0  0  0  0  0  0  0  0  0  0  0  0
    5.9820    0.2180   -0.7940 S   0  0  0  0  0  0  0  0  0  0  0  0
    6.4530   -0.0040   -2.2290 O   0  0  0  0  0  0  0  0  0  0  0  0
    7.3510    0.2700    0.2990 N   0  0  0  0  0  0  0  0  0  0  0  0
    7.4860   -1.2870    1.0560 Cl  0  0  0  0  0  0  0  0  0  0  0  0
    7.1500    1.5160    1.4770 Cl  0  0  0  0  0  0  0  0  0  0  0  0
  1  2  1  0
  2  3  1  0
  2  4  2  3
  4  5  1  0
  4  6  1  0
  6  7  1  0
  7  8  2  0
  7  9  1  0
  9 10  1  0
  9 11  2  3
 11 12  1  0
 11 15  1  0
 13 12  1  1
 13 14  1  0
 13 22  1  0
 14 15  2  0
 14 17  1  0
 15 16  1  0
 17 18  2  0
 17 19  1  0
 19 18  1  1
 19 20  1  0
 19 22  1  0
 20 21  1  1
 20 22  1  0
 22 23  1  1
 23 24  2  3
 24 25  1  0
 25 26  2  0
 25 27  1  1
 27 28  1  0
 27 29  1  0
M  END
