
     RDKit          3D

 29 31  0  0  0  0  0  0  0  0999 V2000
    5.5200    2.5460   -1.1260 C   0  0  0  0  0  0  0  0  0  0  0  0
    5.3410    1.0930   -1.0210 C   0  0  0  0  0  0  0  0  0  0  0  0
    6.2730    0.1770   -1.3640 N   0  0  0  0  0  0  0  0  0  0  0  0
    5.7680   -1.0220   -1.1400 N   0  0  0  0  0  0  0  0  0  0  0  0
    4.5600   -0.9080   -0.6710 N   0  0  0  0  0  0  0  0  0  0  0  0
    4.2420    0.4180   -0.5770 C   0  0  0  0  0  0  0  0  0  0  0  0
    2.9870    0.9750   -0.0870 C   0  0  0  0  0  0  0  0  0  0  0  0
    2.8920    2.1630    0.2780 O   0  0  0  0  0  0  0  0  0  0  0  0
    1.8100    0.1110   -0.0250 C   0  0  0  0  0  0  0  0  0  0  0  0
    1.5740   -0.9860   -0.8060 N   0  0  0  0  0  0  0  0  0  0  0  0
    0.3980   -1.5330   -0.4580 C   0  0  0  0  0  0  0  0  0  0  0  0
   -0.1480   -0.7920    0.5610 C   0  0  0  0  0  0  0  0  0  0  0  0
   -1.4300   -1.0210    1.2740 C   0  0  2  0  0  0  0  0  0  0  0  0
   -1.2350   -2.2150    2.2050 C   0  0  0  0  0  0  0  0  0  0  0  0
   -1.6630   -3.3460    1.3140 C   0  0  0  0  0  0  0  0  0  0  0  0
   -2.5800   -2.7390    0.2970 C   0  0  0  0  0  0  0  0  0  0  0  0
   -2.5090   -1.3450    0.4670 N   0  0  0  0  0  0  0  0  0  0  0  0
   -2.9280   -0.5570   -0.5970 C   0  0  0  0  0  0  0  0  0  0  0  0
   -2.8380    0.9070   -0.4020 C   0  0  0  0  0  0  0  0  0  0  0  0
   -3.5570    1.5920    0.6520 C   0  0  0  0  0  0  0  0  0  0  0  0
   -4.3560    1.0070    1.5320 C   0  0  0  0  0  0  0  0  0  0  0  0
   -4.5900   -0.3140    1.5390 F   0  0  0  0  0  0  0  0  0  0  0  0
   -2.0830    1.6050   -1.2120 C   0  0  0  0  0  0  0  0  0  0  0  0
   -1.2170    0.7860   -2.4860 Cl  0  0  0  0  0  0  0  0  0  0  0  0
   -1.9400    3.0650   -1.0790 C   0  0  2  0  0  0  0  0  0  0  0  0
   -3.1220    3.7620   -1.2360 F   0  0  0  0  0  0  0  0  0  0  0  0
   -1.0340    3.4910   -2.0640 F   0  0  0  0  0  0  0  0  0  0  0  0
   -1.3820    3.4180    0.1500 F   0  0  0  0  0  0  0  0  0  0  0  0
    0.7460    0.1950    0.7870 N   0  0  0  0  0  0  0  0  0  0  0  0
  1  2  1  0
  2  3  2  0
  2  6  1  0
  3  4  1  0
  4  5  1  0
  5  6  2  0
  6  7  1  0
  7  8  2  0
  7  9  1  0
  9 10  2  0
  9 29  1  0
 10 11  1  0
 11 12  2  0
 13 12  1  6
 12 29  1  0
 13 14  1  0
 13 17  1  0
 14 15  1  0
 15 16  1  0
 16 17  1  0
 17 18  1  0
 18 19  1  0
 19 20  1  0
 19 23  2  3
 20 21  2  3
 21 22  1  0
 23 24  1  0
 23 25  1  0
 25 26  1  6
 25 27  1  0
 25 28  1  0
M  END
