
     RDKit          3D

 29 31  0  0  0  0  0  0  0  0999 V2000
    3.6820   -3.3840    1.9550 N   0  0  0  0  0  0  0  0  0  0  0  0
    3.1120   -2.3250    1.4650 C   0  0  0  0  0  0  0  0  0  0  0  0
    3.6850   -1.6710    0.3700 C   0  0  0  0  0  0  0  0  0  0  0  0
    3.0360   -0.5550   -0.1030 C   0  0  0  0  0  0  0  0  0  0  0  0
    3.5190    0.1920   -1.2060 N   0  0  0  0  0  0  0  0  0  0  0  0
    4.3810    1.3140   -1.0200 C   0  0  0  0  0  0  0  0  0  0  0  0
    5.2410    1.3490   -0.0160 C   0  0  0  0  0  0  0  0  0  0  0  0
    6.2800    2.7470    0.1760 Cl  0  0  0  0  0  0  0  0  0  0  0  0
    3.0950   -0.2240   -2.5270 C   0  0  2  0  0  0  0  0  0  0  0  0
    1.7350   -0.1440   -2.5950 F   0  0  0  0  0  0  0  0  0  0  0  0
    3.4380   -1.5510   -2.7620 F   0  0  0  0  0  0  0  0  0  0  0  0
    3.6790    0.5540   -3.5130 F   0  0  0  0  0  0  0  0  0  0  0  0
    1.8590   -0.1170    0.5030 C   0  0  0  0  0  0  0  0  0  0  0  0
    1.0370    0.9490    0.2320 C   0  0  0  0  0  0  0  0  0  0  0  0
   -0.0070    0.9750    1.1100 N   0  0  0  0  0  0  0  0  0  0  0  0
   -1.0800    1.9730    1.1330 C   0  0  0  0  0  0  0  0  0  0  0  0
   -2.2030    1.5070    0.2460 C   0  0  0  0  0  0  0  0  0  0  0  0
   -2.1440    1.7620   -0.9540 O   0  0  0  0  0  0  0  0  0  0  0  0
   -3.2860    0.7970    0.8040 N   0  0  0  0  0  0  0  0  0  0  0  0
   -4.4100    0.2980    0.1140 C   0  0  0  0  0  0  0  0  0  0  0  0
   -4.6200    0.4260   -1.2240 C   0  0  0  0  0  0  0  0  0  0  0  0
   -5.7420   -0.0780   -1.8800 C   0  0  0  0  0  0  0  0  0  0  0  0
   -6.6940   -0.7410   -1.1520 C   0  0  0  0  0  0  0  0  0  0  0  0
   -7.7890   -1.2400   -1.7540 F   0  0  0  0  0  0  0  0  0  0  0  0
   -6.4690   -0.8650    0.2130 C   0  0  0  0  0  0  0  0  0  0  0  0
   -5.3870   -0.3720    0.8040 N   0  0  0  0  0  0  0  0  0  0  0  0
    0.1860   -0.0780    1.9120 C   0  0  0  0  0  0  0  0  0  0  0  0
    1.3150   -0.7820    1.5860 C   0  0  0  0  0  0  0  0  0  0  0  0
    1.9720   -1.8710    2.0270 N   0  0  0  0  0  0  0  0  0  0  0  0
  1  2  2  0
  2  3  1  0
  2 29  1  0
  3  4  2  0
  4  5  1  0
  4 13  1  0
  5  6  1  0
  5  9  1  0
  6  7  2  3
  7  8  1  0
  9 10  1  1
  9 11  1  0
  9 12  1  0
 13 14  2  0
 13 28  1  0
 14 15  1  0
 15 16  1  0
 15 27  1  0
 16 17  1  0
 17 18  2  0
 17 19  1  0
 19 20  1  0
 20 21  2  0
 20 26  1  0
 21 22  1  0
 22 23  2  0
 23 24  1  0
 23 25  1  0
 25 26  2  0
 27 28  2  0
 28 29  1  0
M  END
