
     RDKit          3D

 22 23  0  0  0  0  0  0  0  0999 V2000
   -0.0810   -2.0460    0.5390 O   0  0  0  0  0  0  0  0  0  0  0  0
    0.0200   -0.8390    0.2200 C   0  0  0  0  0  0  0  0  0  0  0  0
    1.3490   -0.2370    0.0160 C   0  0  0  0  0  0  0  0  0  0  0  0
    2.4140   -0.9700    0.1700 C   0  0  0  0  0  0  0  0  0  0  0  0
    3.7580   -0.4470   -0.0150 C   0  0  0  0  0  0  0  0  0  0  0  0
    4.0480    0.8440   -0.3630 C   0  0  0  0  0  0  0  0  0  0  0  0
    5.3390    1.3290   -0.5350 C   0  0  0  0  0  0  0  0  0  0  0  0
    6.4040    0.4960   -0.3550 C   0  0  0  0  0  0  0  0  0  0  0  0
    7.6720    0.9310   -0.5130 F   0  0  0  0  0  0  0  0  0  0  0  0
    6.1380   -0.8210   -0.0000 C   0  0  0  0  0  0  0  0  0  0  0  0
    7.2210   -1.6250    0.1720 F   0  0  0  0  0  0  0  0  0  0  0  0
    4.8620   -1.2910    0.1670 C   0  0  0  0  0  0  0  0  0  0  0  0
   -1.1700   -0.0890    0.0650 N   0  0  0  0  0  0  0  0  0  0  0  0
   -2.4740   -0.6160    0.2490 C   0  0  0  0  0  0  0  0  0  0  0  0
   -2.9080   -1.8670    0.5920 C   0  0  0  0  0  0  0  0  0  0  0  0
   -4.2850   -1.9250    0.6560 C   0  0  0  0  0  0  0  0  0  0  0  0
   -4.7040   -0.6760    0.3440 N   0  0  0  0  0  0  0  0  0  0  0  0
   -3.6520    0.1210    0.0980 C   0  0  0  0  0  0  0  0  0  0  0  0
   -3.7170    1.5640   -0.2770 C   0  0  0  0  0  0  0  0  0  0  0  0
   -5.4160    2.1110   -0.3610 S   0  0  2  0  0  0  0  0  0  0  0  0
   -5.9920    2.2260    1.0140 O   0  0  0  0  0  0  0  0  0  0  0  0
   -6.2180    1.2240   -1.2540 O   0  0  0  0  0  0  0  0  0  0  0  0
  1  2  2  0
  2  3  1  0
  2 13  1  0
  3  4  2  3
  4  5  1  0
  5  6  2  0
  5 12  1  0
  6  7  1  0
  7  8  2  0
  8  9  1  0
  8 10  1  0
 10 11  1  0
 10 12  2  0
 13 14  1  0
 14 15  1  0
 14 18  2  0
 15 16  2  0
 16 17  1  0
 17 18  1  0
 18 19  1  0
 20 19  1  1
 20 21  2  0
 20 22  2  0
M  END
