
     RDKit          3D

 22 23  0  0  0  0  0  0  0  0999 V2000
    1.6450    1.4910    1.3780 O   0  0  0  0  0  0  0  0  0  0  0  0
    1.2820    1.2290    0.2110 C   0  0  0  0  0  0  0  0  0  0  0  0
    1.8500    2.0930   -0.8080 N   0  0  0  0  0  0  0  0  0  0  0  0
    2.7550    3.1470   -0.4420 C   0  0  0  0  0  0  0  0  0  0  0  0
    4.0130    2.6900    0.2330 C   0  0  0  0  0  0  0  0  0  0  0  0
    4.8460    3.7740    0.5580 O   0  0  0  0  0  0  0  0  0  0  0  0
    0.3950    0.1900   -0.1440 N   0  0  0  0  0  0  0  0  0  0  0  0
   -0.1570   -0.6750    0.8250 C   0  0  0  0  0  0  0  0  0  0  0  0
    0.3450   -0.8710    2.0910 C   0  0  0  0  0  0  0  0  0  0  0  0
   -0.1970   -1.8080    2.9720 C   0  0  0  0  0  0  0  0  0  0  0  0
   -1.2620   -2.5540    2.5630 C   0  0  0  0  0  0  0  0  0  0  0  0
   -1.8260   -2.4080    1.2910 C   0  0  0  0  0  0  0  0  0  0  0  0
   -1.2590   -1.4670    0.4460 C   0  0  0  0  0  0  0  0  0  0  0  0
   -1.8400   -1.2390   -0.8690 C   0  0  0  0  0  0  0  0  0  0  0  0
   -2.0670    0.0020   -1.2590 C   0  0  0  0  0  0  0  0  0  0  0  0
   -2.6560    0.2470   -2.5990 C   0  0  1  0  0  0  0  0  0  0  0  0
   -2.9780    1.5900   -2.7710 F   0  0  0  0  0  0  0  0  0  0  0  0
   -1.7300   -0.1630   -3.5420 F   0  0  0  0  0  0  0  0  0  0  0  0
   -2.1980   -2.4210   -1.7410 C   0  0  0  0  0  0  0  0  0  0  0  0
   -3.4130   -3.3820   -0.8020 S   0  0  0  0  0  0  0  0  0  0  0  0
   -2.9770   -3.2310    0.9110 C   0  0  0  0  0  0  0  0  0  0  0  0
   -3.5970   -3.7920    1.8410 O   0  0  0  0  0  0  0  0  0  0  0  0
  1  2  2  0
  2  3  1  0
  2  7  1  0
  3  4  1  0
  4  5  1  0
  5  6  1  0
  7  8  1  0
  8  9  2  0
  8 13  1  0
  9 10  1  0
 10 11  2  0
 11 12  1  0
 12 13  2  0
 12 21  1  0
 13 14  1  0
 14 15  2  3
 14 19  1  0
 15 16  1  0
 16 17  1  6
 16 18  1  0
 19 20  1  0
 20 21  1  0
 21 22  2  0
M  END
