
     RDKit          3D

 22 23  0  0  0  0  0  0  0  0999 V2000
    2.2290   -1.9060   -1.2560 O   0  0  0  0  0  0  0  0  0  0  0  0
    2.1260   -0.9170   -0.4640 C   0  0  0  0  0  0  0  0  0  0  0  0
    0.8600   -0.4140   -0.1250 N   0  0  0  0  0  0  0  0  0  0  0  0
   -0.3510   -1.0400   -0.6920 C   0  0  0  0  0  0  0  0  0  0  0  0
   -1.5350   -0.3080   -0.1630 C   0  0  0  0  0  0  0  0  0  0  0  0
   -2.7890   -0.8390   -0.6570 N   0  0  0  0  0  0  0  0  0  0  0  0
   -3.9860   -0.2190   -0.2200 C   0  0  0  0  0  0  0  0  0  0  0  0
   -5.2160   -0.6710   -0.6470 C   0  0  0  0  0  0  0  0  0  0  0  0
   -6.3970   -0.0730   -0.2270 C   0  0  0  0  0  0  0  0  0  0  0  0
   -6.3500    0.9970    0.6380 C   0  0  0  0  0  0  0  0  0  0  0  0
   -5.1390    1.4640    1.0780 C   0  0  0  0  0  0  0  0  0  0  0  0
   -5.1140    2.5110    1.9220 F   0  0  0  0  0  0  0  0  0  0  0  0
   -3.9820    0.8620    0.6520 C   0  0  0  0  0  0  0  0  0  0  0  0
    3.3740   -0.3300    0.0740 C   0  0  0  0  0  0  0  0  0  0  0  0
    4.5210   -0.8630   -0.2970 C   0  0  0  0  0  0  0  0  0  0  0  0
    4.4380   -1.9490   -1.1760 F   0  0  0  0  0  0  0  0  0  0  0  0
    5.8770   -0.4640    0.0940 C   0  0  0  0  0  0  0  0  0  0  0  0
    5.9490    0.8950    1.1990 S   0  0  2  0  0  0  0  0  0  0  0  0
    6.7730    2.0260    0.6190 O   0  0  0  0  0  0  0  0  0  0  0  0
    6.6370    0.4320    2.4740 O   0  0  0  0  0  0  0  0  0  0  0  0
    4.3210    1.4100    1.5280 C   0  0  0  0  0  0  0  0  0  0  0  0
    3.2740    0.8010    0.9820 C   0  0  0  0  0  0  0  0  0  0  0  0
  1  2  2  0
  2  3  1  0
  2 14  1  0
  3  4  1  0
  4  5  1  0
  5  6  1  0
  6  7  1  0
  7  8  2  0
  7 13  1  0
  8  9  1  0
  9 10  2  0
 10 11  1  0
 11 12  1  0
 11 13  2  0
 14 15  2  0
 14 22  1  0
 15 16  1  0
 15 17  1  0
 18 17  1  6
 18 19  2  0
 18 20  2  0
 18 21  1  0
 21 22  2  0
M  END
