
     RDKit          3D

 22 23  0  0  0  0  0  0  0  0999 V2000
   -1.9280    0.4280    0.3880 O   0  0  0  0  0  0  0  0  0  0  0  0
   -2.4820   -0.0560   -0.6170 C   0  0  0  0  0  0  0  0  0  0  0  0
   -1.6130   -0.4810   -1.7530 C   0  0  0  0  0  0  0  0  0  0  0  0
   -0.2220   -0.2460   -1.4740 N   0  0  0  0  0  0  0  0  0  0  0  0
    0.4390   -0.8440   -0.3840 C   0  0  0  0  0  0  0  0  0  0  0  0
   -0.2320   -1.6060    0.3570 O   0  0  0  0  0  0  0  0  0  0  0  0
    1.8580   -0.5880   -0.1210 C   0  0  0  0  0  0  0  0  0  0  0  0
    2.8060    0.1590   -0.7220 C   0  0  0  0  0  0  0  0  0  0  0  0
    4.0500    0.1840   -0.2220 C   0  0  0  0  0  0  0  0  0  0  0  0
    5.1680    0.9020   -0.7110 C   0  0  0  0  0  0  0  0  0  0  0  0
    6.3770    0.8130   -0.0720 C   0  0  0  0  0  0  0  0  0  0  0  0
    6.6120    0.0550    1.0500 C   0  0  0  0  0  0  0  0  0  0  0  0
    7.8230   -0.0080    1.6550 F   0  0  0  0  0  0  0  0  0  0  0  0
    5.5300   -0.6470    1.5330 C   0  0  0  0  0  0  0  0  0  0  0  0
    4.3040   -0.5620    0.8920 C   0  0  0  0  0  0  0  0  0  0  0  0
    2.7730   -1.3390    1.2850 S   0  0  0  0  0  0  0  0  0  0  0  0
   -3.8860   -0.1850   -0.6500 N   0  0  0  0  0  0  0  0  0  0  0  0
   -4.7940    0.1850    0.3680 C   0  0  0  0  0  0  0  0  0  0  0  0
   -4.5050    0.7140    1.5230 C   0  0  0  0  0  0  0  0  0  0  0  0
   -5.5000    1.0110    2.3900 F   0  0  0  0  0  0  0  0  0  0  0  0
   -6.2560   -0.0630    0.0740 C   0  0  0  0  0  0  0  0  0  0  0  0
   -6.6750    0.6290   -1.0410 O   0  0  0  0  0  0  0  0  0  0  0  0
  1  2  2  0
  2  3  1  0
  2 17  1  0
  3  4  1  0
  4  5  1  0
  5  6  2  0
  5  7  1  0
  7  8  2  0
  7 16  1  0
  8  9  1  0
  9 10  2  0
  9 15  1  0
 10 11  1  0
 11 12  2  0
 12 13  1  0
 12 14  1  0
 14 15  2  0
 15 16  1  0
 17 18  1  0
 18 19  2  3
 18 21  1  0
 19 20  1  0
 21 22  1  0
M  END
