
     RDKit          3D

 21 22  0  0  0  0  0  0  0  0999 V2000
    4.2590   -3.1480   -0.5830 C   0  0  0  0  0  0  0  0  0  0  0  0
    4.3050   -1.7220   -0.2220 C   0  0  0  0  0  0  0  0  0  0  0  0
    5.3840   -1.1530   -0.0450 O   0  0  0  0  0  0  0  0  0  0  0  0
    3.0730   -0.9250   -0.0600 C   0  0  0  0  0  0  0  0  0  0  0  0
    1.8020   -1.2730   -0.1870 C   0  0  0  0  0  0  0  0  0  0  0  0
    0.8090   -0.3770    0.0080 C   0  0  0  0  0  0  0  0  0  0  0  0
   -0.6010   -0.5350   -0.0750 C   0  0  0  0  0  0  0  0  0  0  0  0
   -1.5140    0.4310    0.1410 C   0  0  0  0  0  0  0  0  0  0  0  0
   -2.9210    0.2510    0.0330 N   0  0  0  0  0  0  0  0  0  0  0  0
   -3.5630   -0.8020   -0.6160 C   0  0  0  0  0  0  0  0  0  0  0  0
   -2.9070   -1.7060   -1.1840 O   0  0  0  0  0  0  0  0  0  0  0  0
   -5.0830   -0.8870   -0.6540 C   0  0  2  0  0  0  0  0  0  0  0  0
   -5.4120   -2.0210   -1.3560 F   0  0  0  0  0  0  0  0  0  0  0  0
   -5.5900    0.2610   -1.1810 F   0  0  0  0  0  0  0  0  0  0  0  0
   -1.0590    1.7260    0.4820 C   0  0  0  0  0  0  0  0  0  0  0  0
    0.3110    1.9450    0.5800 C   0  0  0  0  0  0  0  0  0  0  0  0
    0.8410    3.2470    0.9250 C   0  0  0  0  0  0  0  0  0  0  0  0
   -0.0700    4.3090    1.1660 N   0  0  0  0  0  0  0  0  0  0  0  0
    2.0620    3.4410    1.0120 O   0  0  0  0  0  0  0  0  0  0  0  0
    1.1630    0.9010    0.3420 C   0  0  0  0  0  0  0  0  0  0  0  0
    2.9920    0.7730    0.3670 S   0  0  0  0  0  0  0  0  0  0  0  0
  1  2  1  0
  2  3  2  0
  2  4  1  0
  4  5  2  0
  4 21  1  0
  5  6  1  0
  6  7  2  0
  6 20  1  0
  7  8  1  0
  8  9  1  0
  8 15  2  0
  9 10  1  0
 10 11  2  0
 10 12  1  0
 12 13  1  6
 12 14  1  0
 15 16  1  0
 16 17  1  0
 16 20  2  0
 17 18  1  0
 17 19  2  0
 20 21  1  0
M  END
