
     RDKit          3D

 22 23  0  0  0  0  0  0  0  0999 V2000
   -3.3140   -0.5240    2.7530 C   0  0  0  0  0  0  0  0  0  0  0  0
   -2.4250    0.1180    1.7760 C   0  0  0  0  0  0  0  0  0  0  0  0
   -1.3790    0.8540    2.1180 N   0  0  0  0  0  0  0  0  0  0  0  0
   -0.5720    1.4380    1.2190 C   0  0  0  0  0  0  0  0  0  0  0  0
    0.4040    2.1240    1.6070 O   0  0  0  0  0  0  0  0  0  0  0  0
   -0.8280    1.2750   -0.0820 N   0  0  0  0  0  0  0  0  0  0  0  0
    0.0480    1.9090   -1.0480 C   0  0  0  0  0  0  0  0  0  0  0  0
    1.1440    0.9670   -1.3770 C   0  0  0  0  0  0  0  0  0  0  0  0
    2.3820    0.7610   -0.8140 C   0  0  0  0  0  0  0  0  0  0  0  0
    3.1900   -0.1670   -1.3170 C   0  0  0  0  0  0  0  0  0  0  0  0
    4.5760   -0.4810   -0.7770 C   0  0  0  0  0  0  0  0  0  0  0  0
    4.4950   -1.5490    0.2770 C   0  0  0  0  0  0  0  0  0  0  0  0
    5.7920   -1.7850    0.7250 O   0  0  0  0  0  0  0  0  0  0  0  0
    2.7400   -0.8940   -2.4010 C   0  0  0  0  0  0  0  0  0  0  0  0
    1.1290   -0.2480   -2.7190 S   0  0  0  0  0  0  0  0  0  0  0  0
   -1.8880    0.5300   -0.4990 C   0  0  0  0  0  0  0  0  0  0  0  0
   -2.0220    0.4530   -1.7580 O   0  0  0  0  0  0  0  0  0  0  0  0
   -2.6990   -0.0580    0.4190 C   0  0  0  0  0  0  0  0  0  0  0  0
   -3.8450   -0.8670    0.0360 C   0  0  2  0  0  0  0  0  0  0  0  0
   -4.0220   -0.9680   -1.4330 C   0  0  0  0  0  0  0  0  0  0  0  0
   -5.0090   -0.5060    0.6940 F   0  0  0  0  0  0  0  0  0  0  0  0
   -3.5800   -2.1720    0.4960 F   0  0  0  0  0  0  0  0  0  0  0  0
  1  2  1  0
  2  3  1  0
  2 18  2  0
  3  4  1  0
  4  5  2  0
  4  6  1  0
  6  7  1  0
  6 16  1  0
  7  8  1  0
  8  9  2  0
  8 15  1  0
  9 10  1  0
 10 11  1  0
 10 14  2  0
 11 12  1  0
 12 13  1  0
 14 15  1  0
 16 17  2  0
 16 18  1  0
 18 19  1  0
 19 20  1  6
 19 21  1  0
 19 22  1  0
M  END
