
     RDKit          3D

 18 19  0  0  0  0  0  0  0  0999 V2000
   -3.3350   -2.2560    0.4740 N   0  0  0  0  0  0  0  0  0  0  0  0
   -2.6170   -1.0520    0.8390 C   0  0  1  0  0  0  0  0  0  0  0  0
   -1.1840   -1.2500    0.9900 C   0  0  0  0  0  0  0  0  0  0  0  0
   -0.5640   -0.4040    0.1810 C   0  0  0  0  0  0  0  0  0  0  0  0
    0.8780   -0.3620    0.1080 N   0  0  0  0  0  0  0  0  0  0  0  0
    1.6560    0.7440    0.4970 C   0  0  0  0  0  0  0  0  0  0  0  0
    1.0490    1.7530    0.9440 O   0  0  0  0  0  0  0  0  0  0  0  0
    3.1400    0.7030    0.3780 C   0  0  0  0  0  0  0  0  0  0  0  0
    3.7610   -0.4160   -0.1130 C   0  0  0  0  0  0  0  0  0  0  0  0
    5.5000    0.1020   -0.0260 S   0  0  0  0  0  0  0  0  0  0  0  0
    5.0140    1.7910    0.6850 C   0  0  0  0  0  0  0  0  0  0  0  0
    6.0080    2.5860    0.9350 O   0  0  0  0  0  0  0  0  0  0  0  0
    3.9030    1.6650    0.7110 O   0  0  0  0  0  0  0  0  0  0  0  0
   -1.5330    0.3920   -0.5530 C   0  0  0  0  0  0  0  0  0  0  0  0
   -1.2310    1.4280   -1.5590 C   0  0  0  0  0  0  0  0  0  0  0  0
   -0.0590    1.7210   -1.8720 O   0  0  0  0  0  0  0  0  0  0  0  0
   -2.2550    2.1070   -2.1860 O   0  0  0  0  0  0  0  0  0  0  0  0
   -2.7460    0.0120   -0.1680 C   0  0  0  0  0  0  0  0  0  0  0  0
  2  1  1  6
  2  3  1  0
  2 18  1  0
  3  4  2  0
  4  5  1  0
  4 14  1  0
  5  6  1  0
  6  7  2  0
  6  8  1  0
  8  9  2  0
  8 13  1  0
  9 10  1  0
 10 11  1  0
 11 12  2  0
 11 13  1  0
 14 15  1  0
 14 18  2  0
 15 16  2  0
 15 17  1  0
M  CHG  1   1   1
M  END
