
     RDKit          3D

 18 18  0  0  0  0  0  0  0  0999 V2000
   -0.0540    2.4460   -0.9700 C   0  0  0  0  0  0  0  0  0  0  0  0
    0.0540    1.6410    0.1930 O   0  0  0  0  0  0  0  0  0  0  0  0
   -0.3990    0.3210    0.2120 C   0  0  0  0  0  0  0  0  0  0  0  0
    0.4650   -0.6580    0.3410 C   0  0  0  0  0  0  0  0  0  0  0  0
    1.8450   -0.3070    0.4630 C   0  0  0  0  0  0  0  0  0  0  0  0
    2.8140   -1.2330    0.5930 C   0  0  0  0  0  0  0  0  0  0  0  0
    4.1880   -0.9000    0.7150 N   0  0  0  0  0  0  0  0  0  0  0  0
    2.2620    1.0320    0.4670 N   0  0  0  0  0  0  0  0  0  0  0  0
    2.9830    1.5880   -0.5310 O   0  0  0  0  0  0  0  0  0  0  0  0
    0.2080   -2.4420    0.3680 S   0  0  0  0  0  0  0  0  0  0  0  0
   -1.1320   -2.9020   -0.7550 C   0  0  0  0  0  0  0  0  0  0  0  0
   -2.4360   -2.2930   -0.3880 C   0  0  0  0  0  0  0  0  0  0  0  0
   -2.5310   -0.9000   -0.5100 O   0  0  0  0  0  0  0  0  0  0  0  0
   -1.8660    0.1620    0.0810 C   0  0  0  0  0  0  0  0  0  0  0  0
   -2.5560    1.1480    0.5890 C   0  0  0  0  0  0  0  0  0  0  0  0
   -1.9200    2.2150    1.1840 O   0  0  0  0  0  0  0  0  0  0  0  0
   -4.0030    1.1310    0.5320 C   0  0  0  0  0  0  0  0  0  0  0  0
   -4.6190    0.1770   -0.0030 O   0  0  0  0  0  0  0  0  0  0  0  0
  1  2  1  0
  2  3  1  0
  3  4  2  0
  3 14  1  0
  4  5  1  0
  4 10  1  0
  5  6  2  3
  5  8  1  0
  6  7  1  0
  8  9  1  0
 10 11  1  0
 11 12  1  0
 12 13  1  0
 13 14  1  0
 14 15  2  3
 15 16  1  0
 15 17  1  0
 17 18  2  0
M  CHG  1   7   1
M  END
