
     RDKit          3D

 18 19  0  0  0  0  0  0  0  0999 V2000
    3.8610   -1.1210    0.5590 N   0  0  0  0  0  0  0  0  0  0  0  0
    4.1300   -0.4230   -0.6450 C   0  0  0  0  0  0  0  0  0  0  0  0
    4.6310   -1.0390   -1.6340 O   0  0  0  0  0  0  0  0  0  0  0  0
    3.7920    1.3030   -0.8410 S   0  0  0  0  0  0  0  0  0  0  0  0
    3.0410    1.9850    0.6550 C   0  0  0  0  0  0  0  0  0  0  0  0
    1.6920    1.4040    0.8150 C   0  0  0  0  0  0  0  0  0  0  0  0
    0.9430    1.6680    1.8070 O   0  0  0  0  0  0  0  0  0  0  0  0
    1.2000    0.5390   -0.1340 O   0  0  0  0  0  0  0  0  0  0  0  0
   -0.0580   -0.0570   -0.0680 C   0  0  0  0  0  0  0  0  0  0  0  0
   -0.1600   -1.3120    0.4990 C   0  0  0  0  0  0  0  0  0  0  0  0
   -1.3880   -1.9220    0.5780 C   0  0  0  0  0  0  0  0  0  0  0  0
   -2.4840   -1.2480    0.0800 C   0  0  0  0  0  0  0  0  0  0  0  0
   -3.7370   -1.8910    0.1700 N   0  0  0  0  0  0  0  0  0  0  0  0
   -2.3800    0.0090   -0.4890 C   0  0  0  0  0  0  0  0  0  0  0  0
   -1.1400    0.6340   -0.5730 C   0  0  0  0  0  0  0  0  0  0  0  0
   -1.3110    1.8780   -1.1820 O   0  0  0  0  0  0  0  0  0  0  0  0
   -2.6780    2.2080   -0.9670 C   0  0  0  0  0  0  0  0  0  0  0  0
   -3.2760    0.9050   -1.0570 O   0  0  0  0  0  0  0  0  0  0  0  0
  1  2  1  0
  2  3  2  0
  2  4  1  0
  4  5  1  0
  5  6  1  0
  6  7  2  0
  6  8  1  0
  8  9  1  0
  9 10  2  0
  9 15  1  0
 10 11  1  0
 11 12  2  0
 12 13  1  0
 12 14  1  0
 14 15  2  0
 14 18  1  0
 15 16  1  0
 16 17  1  0
 17 18  1  0
M  CHG  1  13   1
M  END
