
     RDKit          3D

 18 18  0  0  0  0  0  0  0  0999 V2000
    3.2540   -0.4920    0.8960 C   0  0  0  0  0  0  0  0  0  0  0  0
    2.1740    0.0250   -0.0250 C   0  0  0  0  0  0  0  0  0  0  0  0
    2.5260    0.6230   -1.1250 C   0  0  0  0  0  0  0  0  0  0  0  0
    3.7980    0.9110   -1.6800 C   0  0  0  0  0  0  0  0  0  0  0  0
    4.9630    0.6760   -1.2740 N   0  0  0  0  0  0  0  0  0  0  0  0
    0.8820   -0.2030    0.4230 O   0  0  0  0  0  0  0  0  0  0  0  0
   -0.3180    0.1140   -0.1440 C   0  0  0  0  0  0  0  0  0  0  0  0
   -0.2850    0.6970   -1.2290 O   0  0  0  0  0  0  0  0  0  0  0  0
   -1.5800   -0.2440    0.5450 C   0  0  0  0  0  0  0  0  0  0  0  0
   -2.7380    0.0440    0.0290 C   0  0  0  0  0  0  0  0  0  0  0  0
   -2.9580    0.7120   -1.2160 C   0  0  0  0  0  0  0  0  0  0  0  0
   -4.3420    0.9390   -1.6070 N   0  0  0  0  0  0  0  0  0  0  0  0
   -2.1560    1.1310   -2.0160 O   0  0  0  0  0  0  0  0  0  0  0  0
   -3.8870   -0.3520    0.7900 O   0  0  0  0  0  0  0  0  0  0  0  0
   -3.8680   -1.3200    1.7840 C   0  0  0  0  0  0  0  0  0  0  0  0
   -2.6290   -1.2880    2.4990 O   0  0  0  0  0  0  0  0  0  0  0  0
   -1.4620   -0.9490    1.8530 C   0  0  0  0  0  0  0  0  0  0  0  0
    0.0070   -1.2880    2.4630 S   0  0  0  0  0  0  0  0  0  0  0  0
  1  2  1  0
  2  3  2  3
  2  6  1  0
  3  4  1  0
  4  5  2  0
  6  7  1  0
  7  8  2  0
  7  9  1  0
  9 10  2  0
  9 17  1  0
 10 11  1  0
 10 14  1  0
 11 12  1  0
 11 13  2  0
 14 15  1  0
 15 16  1  0
 16 17  1  0
 17 18  2  0
M  CHG  1   5   1
M  END
