
     RDKit          3D

 18 19  0  0  0  0  0  0  0  0999 V2000
    0.5620   -1.2000   -0.3890 O   0  0  0  0  0  0  0  0  0  0  0  0
    0.1650   -1.0240    0.7790 C   0  0  0  0  0  0  0  0  0  0  0  0
    1.1440   -1.1190    1.8130 N   0  0  0  0  0  0  0  0  0  0  0  0
    2.5120   -1.3920    1.5580 C   0  0  0  0  0  0  0  0  0  0  0  0
    3.2100   -0.3760    0.7290 C   0  0  0  0  0  0  0  0  0  0  0  0
    2.8070    0.7580    0.2010 C   0  0  0  0  0  0  0  0  0  0  0  0
    3.6980    1.5090   -0.5410 N   0  0  0  0  0  0  0  0  0  0  0  0
    5.0660    1.3320   -0.0960 C   0  0  0  0  0  0  0  0  0  0  0  0
    4.9590   -0.4860    0.2370 S   0  0  0  0  0  0  0  0  0  0  0  0
   -1.1480   -0.7570    0.9940 O   0  0  0  0  0  0  0  0  0  0  0  0
   -2.1740   -0.6510    0.0500 C   0  0  2  0  0  0  0  0  0  0  0  0
   -2.4300   -1.8850   -0.7350 C   0  0  0  0  0  0  0  0  0  0  0  0
   -1.4170   -2.3770   -1.4980 O   0  0  0  0  0  0  0  0  0  0  0  0
   -1.8960    0.5580   -0.8210 C   0  0  0  0  0  0  0  0  0  0  0  0
   -2.1690    1.7000   -0.0650 O   0  0  0  0  0  0  0  0  0  0  0  0
   -3.5680    1.8610   -0.1170 C   0  0  0  0  0  0  0  0  0  0  0  0
   -4.1940    0.4810   -0.0520 C   0  0  0  0  0  0  0  0  0  0  0  0
   -3.3860   -0.3510    0.7210 O   0  0  0  0  0  0  0  0  0  0  0  0
  1  2  2  0
  2  3  1  0
  2 10  1  0
  3  4  1  0
  4  5  1  0
  5  6  2  0
  5  9  1  0
  6  7  1  0
  7  8  1  0
  8  9  1  0
 10 11  1  0
 11 12  1  6
 11 14  1  0
 11 18  1  0
 12 13  1  0
 14 15  1  0
 15 16  1  0
 16 17  1  0
 17 18  1  0
M  CHG  1   7   1
M  END
