
     RDKit          3D

  7  6  0  0  0  0  0  0  0  0999 V2000
   -0.0980   -0.7880    1.1610 N   0  0  0  0  0  0  0  0  0  0  0  0
   -0.1030   -0.6080   -0.2660 C   0  0  2  0  0  0  0  0  0  0  0  0
    1.2020    0.0200   -0.7050 C   0  0  0  0  0  0  0  0  0  0  0  0
    1.3590    1.2600   -0.0860 O   0  0  0  0  0  0  0  0  0  0  0  0
   -1.2340    0.2830   -0.6640 C   0  0  0  0  0  0  0  0  0  0  0  0
   -1.4580    0.5960   -1.8500 O   0  0  0  0  0  0  0  0  0  0  0  0
   -2.0730    0.7890    0.3070 O   0  0  0  0  0  0  0  0  0  0  0  0
  2  1  1  1
  2  3  1  0
  2  5  1  0
  3  4  1  0
  5  6  2  0
  5  7  1  0
M  CHG  1   1   1
M  END
