
     RDKit          3D

 18 19  0  0  0  0  0  0  0  0999 V2000
   -1.8900   -2.6290   -1.2290 N   0  0  0  0  0  0  0  0  0  0  0  0
   -1.8330   -1.3610   -0.6040 C   0  0  0  0  0  0  0  0  0  0  0  0
   -2.9810   -0.5600   -0.5330 C   0  0  0  0  0  0  0  0  0  0  0  0
   -2.9110    0.6640    0.0740 C   0  0  0  0  0  0  0  0  0  0  0  0
   -1.7190    1.1170    0.6170 C   0  0  0  0  0  0  0  0  0  0  0  0
   -0.5900    0.2960    0.5310 C   0  0  0  0  0  0  0  0  0  0  0  0
   -0.6350   -0.9340   -0.0720 C   0  0  0  0  0  0  0  0  0  0  0  0
    0.4650   -1.7140   -0.1460 O   0  0  0  0  0  0  0  0  0  0  0  0
    1.7560   -1.5050    0.3000 C   0  0  0  0  0  0  0  0  0  0  0  0
    2.4710   -0.3660   -0.2700 C   0  0  0  0  0  0  0  0  0  0  0  0
    2.0620    0.4310   -1.1340 O   0  0  0  0  0  0  0  0  0  0  0  0
    3.8100   -0.1200    0.2120 N   0  0  0  0  0  0  0  0  0  0  0  0
    4.5820    0.9570   -0.2780 C   0  0  0  0  0  0  0  0  0  0  0  0
    4.1220    1.8440   -1.2410 O   0  0  0  0  0  0  0  0  0  0  0  0
    6.0840    1.1780    0.3080 S   0  0  0  0  0  0  0  0  0  0  0  0
   -1.9470    2.3750    1.1600 O   0  0  0  0  0  0  0  0  0  0  0  0
   -3.2780    2.7640    0.8790 C   0  0  0  0  0  0  0  0  0  0  0  0
   -3.8820    1.6340    0.2750 O   0  0  0  0  0  0  0  0  0  0  0  0
  1  2  1  0
  2  3  2  0
  2  7  1  0
  3  4  1  0
  4  5  2  0
  4 18  1  0
  5  6  1  0
  5 16  1  0
  6  7  2  0
  7  8  1  0
  8  9  1  0
  9 10  1  0
 10 11  2  0
 10 12  1  0
 12 13  1  0
 13 14  1  0
 13 15  2  0
 16 17  1  0
 17 18  1  0
M  CHG  1   1   1
M  END
