
     RDKit          3D

  9  9  0  0  0  0  0  0  0  0999 V2000
   -1.9030   -0.0540    1.1490 C   0  0  0  0  0  0  0  0  0  0  0  0
   -1.0490    0.1620   -0.0560 C   0  0  2  0  0  0  0  0  0  0  0  0
   -0.9210    1.5060   -0.3350 O   0  0  0  0  0  0  0  0  0  0  0  0
   -1.6910   -0.4400   -1.1560 O   0  0  0  0  0  0  0  0  0  0  0  0
    0.3100   -0.4740    0.0490 C   0  0  1  0  0  0  0  0  0  0  0  0
    1.1230   -0.1370   -1.1840 C   0  0  0  0  0  0  0  0  0  0  0  0
    2.4150   -0.3550   -0.7040 O   0  0  0  0  0  0  0  0  0  0  0  0
    2.3820    0.1950    0.5600 C   0  0  0  0  0  0  0  0  0  0  0  0
    1.0940    0.0810    1.0480 O   0  0  0  0  0  0  0  0  0  0  0  0
  2  1  1  1
  2  3  1  0
  2  4  1  0
  2  5  1  0
  5  6  1  6
  5  9  1  0
  6  7  1  0
  7  8  1  0
  8  9  1  0
M  END
