
     RDKit          3D

 10 10  0  0  0  0  0  0  0  0999 V2000
    0.8400   -2.1830   -0.3670 O   0  0  0  0  0  0  0  0  0  0  0  0
    0.4670   -0.9230    0.0560 C   0  0  1  0  0  0  0  0  0  0  0  0
    1.2710    0.1510   -0.6080 C   0  0  2  0  0  0  0  0  0  0  0  0
    2.5690    0.0740   -0.0460 O   0  0  0  0  0  0  0  0  0  0  0  0
    0.7270    1.5100   -0.5140 C   0  0  0  0  0  0  0  0  0  0  0  0
   -0.5520    1.6960   -0.1650 O   0  0  0  0  0  0  0  0  0  0  0  0
   -1.3100    0.6890    0.2690 C   0  0  1  0  0  0  0  0  0  0  0  0
   -2.6620    0.9750   -0.0090 O   0  0  0  0  0  0  0  0  0  0  0  0
   -1.0010   -0.6740   -0.2810 C   0  0  2  0  0  0  0  0  0  0  0  0
   -1.7300   -1.6130    0.4640 O   0  0  0  0  0  0  0  0  0  0  0  0
  2  1  1  6
  2  3  1  0
  2  9  1  0
  3  4  1  1
  3  5  1  0
  5  6  1  0
  6  7  1  0
  7  8  1  6
  7  9  1  0
  9 10  1  1
M  END
