
     RDKit          3D

  9  9  0  0  0  0  0  0  0  0999 V2000
    2.7580    0.4020    0.5470 C   0  0  0  0  0  0  0  0  0  0  0  0
    1.5970   -0.0430    1.1770 O   0  0  0  0  0  0  0  0  0  0  0  0
    0.5480    0.0950    0.3110 C   0  0  1  0  0  0  0  0  0  0  0  0
   -0.2580   -1.1740    0.1310 C   0  0  0  0  0  0  0  0  0  0  0  0
   -1.5930   -0.6210   -0.2960 C   0  0  1  0  0  0  0  0  0  0  0  0
   -2.6490   -1.1640    0.4230 O   0  0  0  0  0  0  0  0  0  0  0  0
   -1.4370    0.8760   -0.0100 C   0  0  2  0  0  0  0  0  0  0  0  0
   -1.0140    1.5600   -1.1320 O   0  0  0  0  0  0  0  0  0  0  0  0
   -0.4050    0.9240    0.9480 O   0  0  0  0  0  0  0  0  0  0  0  0
  1  2  1  0
  3  2  1  1
  3  4  1  0
  3  9  1  0
  4  5  1  0
  5  6  1  1
  5  7  1  0
  7  8  1  6
  7  9  1  0
M  END
