
     RDKit          3D

 10  9  0  0  0  0  0  0  0  0999 V2000
    3.0220    0.5670    0.0400 C   0  0  0  0  0  0  0  0  0  0  0  0
    1.9380    1.3880    0.0600 O   0  0  0  0  0  0  0  0  0  0  0  0
    0.7410    0.9080    0.4990 C   0  0  0  0  0  0  0  0  0  0  0  0
    0.2400   -0.2290   -0.3100 C   0  0  1  0  0  0  0  0  0  0  0  0
    1.0680   -1.3360   -0.2710 O   0  0  0  0  0  0  0  0  0  0  0  0
   -1.1350   -0.7010    0.1050 C   0  0  1  0  0  0  0  0  0  0  0  0
   -1.5250   -1.6760   -0.8100 O   0  0  0  0  0  0  0  0  0  0  0  0
   -1.0210   -1.2860    1.3610 O   0  0  0  0  0  0  0  0  0  0  0  0
   -2.1530    0.4160    0.1180 C   0  0  0  0  0  0  0  0  0  0  0  0
   -2.2800    1.0170   -1.1240 O   0  0  0  0  0  0  0  0  0  0  0  0
  1  2  1  0
  2  3  1  0
  3  4  1  0
  4  5  1  1
  4  6  1  0
  6  7  1  6
  6  8  1  0
  6  9  1  0
  9 10  1  0
M  END
