
     RDKit          3D

 10  9  0  0  0  0  0  0  0  0999 V2000
    2.4940   -1.4710   -0.0310 C   0  0  0  0  0  0  0  0  0  0  0  0
    2.0780   -0.1680    0.1240 O   0  0  0  0  0  0  0  0  0  0  0  0
    0.7660    0.0300   -0.3040 C   0  0  2  0  0  0  0  0  0  0  0  0
    0.7230    1.0290   -1.4500 C   0  0  0  0  0  0  0  0  0  0  0  0
    1.2460    2.2510   -1.0340 O   0  0  0  0  0  0  0  0  0  0  0  0
   -0.0440    0.5320    0.7060 O   0  0  0  0  0  0  0  0  0  0  0  0
   -1.0940   -0.3370    0.9570 C   0  0  1  0  0  0  0  0  0  0  0  0
   -0.9060   -0.8030    2.2770 O   0  0  0  0  0  0  0  0  0  0  0  0
   -2.4230    0.3550    0.8670 C   0  0  0  0  0  0  0  0  0  0  0  0
   -2.6320    0.8920   -0.3800 O   0  0  0  0  0  0  0  0  0  0  0  0
  1  2  1  0
  2  3  1  0
  3  4  1  6
  3  6  1  0
  4  5  1  0
  6  7  1  0
  7  8  1  1
  7  9  1  0
  9 10  1  0
M  END
