
     RDKit          3D

  9  9  0  0  0  0  0  0  0  0999 V2000
    2.7960    0.2450   -0.5850 C   0  0  0  0  0  0  0  0  0  0  0  0
    1.8320   -0.3220    0.2270 O   0  0  0  0  0  0  0  0  0  0  0  0
    0.5580    0.1550    0.0010 C   0  0  2  0  0  0  0  0  0  0  0  0
   -0.0310    0.7490    1.0820 O   0  0  0  0  0  0  0  0  0  0  0  0
   -1.3920    0.6100    1.0010 C   0  0  1  0  0  0  0  0  0  0  0  0
   -2.0580    1.8310    0.9430 O   0  0  0  0  0  0  0  0  0  0  0  0
   -1.7000   -0.2510   -0.2080 C   0  0  0  0  0  0  0  0  0  0  0  0
   -0.3700   -0.9770   -0.3260 C   0  0  1  0  0  0  0  0  0  0  0  0
   -0.1670   -1.5230   -1.5720 O   0  0  0  0  0  0  0  0  0  0  0  0
  1  2  1  0
  3  2  1  1
  3  4  1  0
  3  8  1  0
  4  5  1  0
  5  6  1  6
  5  7  1  0
  7  8  1  0
  8  9  1  6
M  END
