
     RDKit          3D

 10  9  0  0  0  0  0  0  0  0999 V2000
   -2.7780   -0.3570    1.6890 O   0  0  0  0  0  0  0  0  0  0  0  0
   -3.0020    0.0700    0.4000 C   0  0  0  0  0  0  0  0  0  0  0  0
   -1.7410    0.7180   -0.1300 C   0  0  2  0  0  0  0  0  0  0  0  0
   -1.8970    1.1750   -1.4350 O   0  0  0  0  0  0  0  0  0  0  0  0
   -0.5760   -0.2670   -0.0930 C   0  0  0  0  0  0  0  0  0  0  0  0
    0.5470    0.4380   -0.5220 O   0  0  0  0  0  0  0  0  0  0  0  0
    1.6930   -0.3530   -0.5350 C   0  0  1  0  0  0  0  0  0  0  0  0
    2.2420   -0.3210   -1.8100 O   0  0  0  0  0  0  0  0  0  0  0  0
    2.7050    0.2430    0.4080 C   0  0  0  0  0  0  0  0  0  0  0  0
    3.8380   -0.5570    0.3810 O   0  0  0  0  0  0  0  0  0  0  0  0
  1  2  1  0
  2  3  1  0
  3  4  1  6
  3  5  1  0
  5  6  1  0
  6  7  1  0
  7  8  1  6
  7  9  1  0
  9 10  1  0
M  END
