
     RDKit          3D

 25 26  0  0  0  0  0  0  0  0999 V2000
   -4.1510    2.9320   -0.9220 C   0  0  0  0  0  0  0  0  0  0  0  0
   -4.2060    1.6190   -0.2290 C   0  0  0  0  0  0  0  0  0  0  0  0
   -3.0840    0.8220   -0.0550 C   0  0  0  0  0  0  0  0  0  0  0  0
   -3.1490   -0.3610    0.5730 N   0  0  0  0  0  0  0  0  0  0  0  0
   -2.0170   -1.2340    0.7850 C   0  0  1  0  0  0  0  0  0  0  0  0
   -2.0470   -2.2990   -0.2900 C   0  0  0  0  0  0  0  0  0  0  0  0
   -0.6330   -2.2210   -0.8350 C   0  0  2  0  0  0  0  0  0  0  0  0
   -0.1330   -3.4770   -1.1450 O   0  0  0  0  0  0  0  0  0  0  0  0
    0.0630   -1.6120    0.3650 C   0  0  1  0  0  0  0  0  0  0  0  0
    1.4540   -1.0910   -0.0290 C   0  0  0  0  0  0  0  0  0  0  0  0
    1.9340   -0.3970    0.9870 O   0  0  0  0  0  0  0  0  0  0  0  0
    3.3530    0.3240    1.0100 P   0  0  0  0  0  0  0  0  0  0  0  0
    4.4530   -0.0590    2.2360 O   0  0  0  0  0  0  0  0  0  0  0  0
    4.0470   -0.6570    0.0760 O   0  0  0  0  0  0  0  0  0  0  0  0
    3.7750    1.5950    0.0350 O   0  0  0  0  0  0  0  0  0  0  0  0
    4.9760    1.5830   -0.8900 P   0  0  0  0  0  0  0  0  0  0  0  0
    5.8380    0.5800    0.1310 O   0  0  0  0  0  0  0  0  0  0  0  0
    4.1970    1.0040   -2.1680 O   0  0  0  0  0  0  0  0  0  0  0  0
    5.1200    3.2440   -0.7140 O   0  0  0  0  0  0  0  0  0  0  0  0
   -0.8040   -0.5680    0.6570 O   0  0  0  0  0  0  0  0  0  0  0  0
   -4.3480   -0.7510    1.0300 C   0  0  0  0  0  0  0  0  0  0  0  0
   -4.4350   -1.8680    1.6270 O   0  0  0  0  0  0  0  0  0  0  0  0
   -5.4630   -0.0140    0.8840 N   0  0  0  0  0  0  0  0  0  0  0  0
   -5.4110    1.1740    0.2570 C   0  0  0  0  0  0  0  0  0  0  0  0
   -6.4300    1.9020    0.0950 O   0  0  0  0  0  0  0  0  0  0  0  0
  1  2  1  0
  2  3  2  0
  2 24  1  0
  3  4  1  0
  5  4  1  6
  4 21  1  0
  5  6  1  0
  5 20  1  0
  6  7  1  0
  7  8  1  1
  7  9  1  0
  9 10  1  6
  9 20  1  0
 10 11  1  0
 11 12  1  0
 12 13  1  0
 12 14  1  0
 12 15  1  0
 15 16  1  0
 16 17  1  0
 16 18  1  0
 16 19  1  0
 21 22  2  0
 21 23  1  0
 23 24  1  0
 24 25  2  0
M  END
