
     RDKit          3D

 28 29  0  0  0  0  0  0  0  0999 V2000
   -1.0830   -0.3270   -2.4300 N   0  0  0  0  0  0  0  0  0  0  0  0
   -1.2920    0.0870   -1.2390 C   0  0  0  0  0  0  0  0  0  0  0  0
   -0.3810    0.3700   -0.2100 C   0  0  0  0  0  0  0  0  0  0  0  0
   -0.5090    0.7590    0.8710 O   0  0  0  0  0  0  0  0  0  0  0  0
    1.2500    0.0660   -0.6860 N   0  0  0  0  0  0  0  0  0  0  0  0
    1.8220    0.5350    0.5770 C   0  0  0  0  0  0  0  0  0  0  0  0
    1.4170    1.0150    1.5860 O   0  0  0  0  0  0  0  0  0  0  0  0
    3.2910    0.2910    0.4260 N   0  0  0  0  0  0  0  0  0  0  0  0
    4.1200    0.6660    1.4930 C   0  0  0  0  0  0  0  0  0  0  0  0
    5.5800    0.2800    1.2010 C   0  0  0  0  0  0  0  0  0  0  0  0
    5.6060   -1.2120    1.0450 C   0  0  0  0  0  0  0  0  0  0  0  0
    7.2800   -1.8670    0.6890 P   0  0  0  0  0  0  0  0  0  0  0  0
    8.5230   -1.0910    1.6100 O   0  0  0  0  0  0  0  0  0  0  0  0
    7.6530   -1.6190   -0.9990 O   0  0  0  0  0  0  0  0  0  0  0  0
   -2.7350    0.2330   -0.9880 N   0  0  0  0  0  0  0  0  0  0  0  0
   -3.5460   -0.9030   -1.3000 C   0  0  0  0  0  0  0  0  0  0  0  0
   -3.2720   -2.0670   -0.3570 C   0  0  0  0  0  0  0  0  0  0  0  0
   -4.3180   -3.4860   -0.8790 P   0  0  0  0  0  0  0  0  0  0  0  0
   -5.9360   -3.0900   -1.2310 O   0  0  0  0  0  0  0  0  0  0  0  0
   -4.1220   -4.8830    0.1080 O   0  0  0  0  0  0  0  0  0  0  0  0
   -3.2550    1.4190   -0.4700 C   0  0  0  0  0  0  0  0  0  0  0  0
   -2.8240    2.1010    0.5640 N   0  0  0  0  0  0  0  0  0  0  0  0
   -3.5520    3.2180    0.8070 O   0  0  0  0  0  0  0  0  0  0  0  0
   -4.5600    3.3360   -0.1110 N   0  0  0  0  0  0  0  0  0  0  0  0
   -5.6950    4.0800   -0.5990 C   0  0  0  0  0  0  0  0  0  0  0  0
   -6.1180    3.3180   -1.7100 O   0  0  0  0  0  0  0  0  0  0  0  0
   -5.3250    2.2110   -1.8850 N   0  0  0  0  0  0  0  0  0  0  0  0
   -4.4120    2.2070   -0.9520 C   0  0  0  0  0  0  0  0  0  0  0  0
  1  2  2  0
  2  3  1  0
  2 15  1  0
  3  4  2  0
  3  5  1  0
  5  6  1  0
  6  7  2  0
  6  8  1  0
  8  9  1  0
  9 10  1  0
 10 11  1  0
 11 12  1  0
 12 13  1  0
 12 14  1  0
 15 16  1  0
 15 21  1  0
 16 17  1  0
 17 18  1  0
 18 19  1  0
 18 20  1  0
 21 22  2  0
 21 28  1  0
 22 23  1  0
 23 24  1  0
 24 25  1  0
 24 28  1  0
 25 26  1  0
 26 27  1  0
 27 28  2  0
M  END
