
     RDKit          3D

 27 28  0  0  0  0  0  0  0  0999 V2000
   -3.6150    6.0090    0.4020 O   0  0  0  0  0  0  0  0  0  0  0  0
   -2.6230    5.0480    1.0730 P   0  0  0  0  0  0  0  0  0  0  0  0
   -1.2560    4.2230    0.1900 C   0  0  0  0  0  0  0  0  0  0  0  0
   -1.3130    2.8870    0.0730 C   0  0  0  0  0  0  0  0  0  0  0  0
   -2.3990    2.1560    0.6200 C   0  0  0  0  0  0  0  0  0  0  0  0
   -2.6670    0.8800    0.6370 C   0  0  0  0  0  0  0  0  0  0  0  0
   -3.8950    0.4540    1.2950 N   0  0  0  0  0  0  0  0  0  0  0  0
   -4.2090   -0.7650    1.3320 C   0  0  0  0  0  0  0  0  0  0  0  0
   -5.4040   -1.1520    1.9760 O   0  0  0  0  0  0  0  0  0  0  0  0
   -3.3610   -1.8130    0.7190 C   0  0  0  0  0  0  0  0  0  0  0  0
   -2.2410   -1.4900    0.1120 C   0  0  0  0  0  0  0  0  0  0  0  0
   -1.3230   -2.4490   -0.5320 C   0  0  0  0  0  0  0  0  0  0  0  0
   -1.7490   -3.8250   -0.4700 N   0  0  0  0  0  0  0  0  0  0  0  0
   -2.9570   -4.1540    0.1890 C   0  0  0  0  0  0  0  0  0  0  0  0
   -3.3080   -5.3620    0.2400 O   0  0  0  0  0  0  0  0  0  0  0  0
   -3.7760   -3.1720    0.7870 N   0  0  0  0  0  0  0  0  0  0  0  0
   -1.8470   -0.0980    0.0510 N   0  0  0  0  0  0  0  0  0  0  0  0
   -0.6300    0.1600   -0.5800 N   0  0  0  0  0  0  0  0  0  0  0  0
    0.5260    0.0090    0.2820 C   0  0  0  0  0  0  0  0  0  0  0  0
    0.4090   -0.3200    1.4870 O   0  0  0  0  0  0  0  0  0  0  0  0
    1.8230    0.2340   -0.2360 N   0  0  0  0  0  0  0  0  0  0  0  0
    2.9620    0.0770    0.6420 C   0  0  0  0  0  0  0  0  0  0  0  0
    4.2070    0.3800   -0.1520 C   0  0  0  0  0  0  0  0  0  0  0  0
    5.3620    0.2520    0.6230 O   0  0  0  0  0  0  0  0  0  0  0  0
    6.7410    0.6200   -0.3580 P   0  0  0  0  0  0  0  0  0  0  0  0
    7.1140   -0.7760   -1.3090 O   0  0  0  0  0  0  0  0  0  0  0  0
    6.5070    2.0340   -1.3240 O   0  0  0  0  0  0  0  0  0  0  0  0
  1  2  2  0
  2  3  1  0
  3  4  2  3
  4  5  1  0
  5  6  2  3
  6  7  1  0
  6 17  1  0
  7  8  2  0
  8  9  1  0
  8 10  1  0
 10 11  2  0
 10 16  1  0
 11 12  1  0
 11 17  1  0
 12 13  1  0
 13 14  1  0
 14 15  2  0
 14 16  1  0
 17 18  1  0
 18 19  1  0
 19 20  2  0
 19 21  1  0
 21 22  1  0
 22 23  1  0
 23 24  1  0
 24 25  1  0
 25 26  1  0
 25 27  1  0
M  END
