
     RDKit          3D

 28 28  0  0  0  0  0  0  0  0999 V2000
    4.5130   -3.0400    0.3490 C   0  0  0  0  0  0  0  0  0  0  0  0
    4.7160   -1.8190   -0.4010 N   0  0  0  0  0  0  0  0  0  0  0  0
    5.9550   -1.2430   -0.2690 N   0  0  0  0  0  0  0  0  0  0  0  0
    6.4100   -0.0580   -0.3500 C   0  0  0  0  0  0  0  0  0  0  0  0
    7.8380    0.1030   -0.1340 C   0  0  0  0  0  0  0  0  0  0  0  0
    8.3170    1.2950   -0.2130 O   0  0  0  0  0  0  0  0  0  0  0  0
    8.7350   -0.8910    0.1460 O   0  0  0  0  0  0  0  0  0  0  0  0
    5.6790    1.1830   -0.6320 C   0  0  0  0  0  0  0  0  0  0  0  0
    4.3160    1.1520   -0.1460 N   0  0  0  0  0  0  0  0  0  0  0  0
    4.0340    2.0970    0.8610 C   0  0  0  0  0  0  0  0  0  0  0  0
    5.0350    2.9750    1.3340 N   0  0  0  0  0  0  0  0  0  0  0  0
    2.8580    2.1500    1.3430 O   0  0  0  0  0  0  0  0  0  0  0  0
    3.0070    0.0790   -0.6700 P   0  0  0  0  0  0  0  0  0  0  0  0
    1.6090    0.0090    0.3980 N   0  0  0  0  0  0  0  0  0  0  0  0
    0.2850   -0.0420   -0.1290 C   0  0  0  0  0  0  0  0  0  0  0  0
    0.1320   -0.0370   -1.3910 O   0  0  0  0  0  0  0  0  0  0  0  0
   -0.8750   -0.1050    0.7560 C   0  0  0  0  0  0  0  0  0  0  0  0
   -2.1740   -0.4800    0.0580 C   0  0  0  0  0  0  0  0  0  0  0  0
   -3.2220   -0.5170    1.1640 C   0  0  0  0  0  0  0  0  0  0  0  0
   -4.5100   -0.9330    0.7780 N   0  0  0  0  0  0  0  0  0  0  0  0
   -5.3670   -0.3090   -0.1540 C   0  0  0  0  0  0  0  0  0  0  0  0
   -5.0370    0.7410   -0.7440 O   0  0  0  0  0  0  0  0  0  0  0  0
   -6.6930   -0.9040   -0.4550 C   0  0  0  0  0  0  0  0  0  0  0  0
   -7.4440   -0.0300   -1.4050 C   0  0  0  0  0  0  0  0  0  0  0  0
   -7.7440    1.6150   -0.5750 P   0  0  0  0  0  0  0  0  0  0  0  0
   -9.3110    2.1840   -1.0860 O   0  0  0  0  0  0  0  0  0  0  0  0
   -7.8380    1.3040    1.1310 O   0  0  0  0  0  0  0  0  0  0  0  0
    3.6520   -1.4490   -1.1210 O   0  0  0  0  0  0  0  0  0  0  0  0
  1  2  1  0
  2  3  1  0
  2 28  1  0
  3  4  2  0
  4  5  1  0
  4  8  1  0
  5  6  2  0
  5  7  1  0
  8  9  1  0
  9 10  1  0
  9 13  1  0
 10 11  1  0
 10 12  2  0
 13 14  1  0
 13 28  1  0
 14 15  1  0
 15 16  2  0
 15 17  1  0
 17 18  1  0
 18 19  1  0
 19 20  1  0
 20 21  1  0
 21 22  2  0
 21 23  1  0
 23 24  1  0
 24 25  1  0
 25 26  1  0
 25 27  1  0
M  END
