
     RDKit          3D

 27 28  0  0  0  0  0  0  0  0999 V2000
    5.3540   -0.3310    0.2900 O   0  0  0  0  0  0  0  0  0  0  0  0
    4.7280    0.2020    1.1790 C   0  0  0  0  0  0  0  0  0  0  0  0
    3.3450    0.4270    1.0870 N   0  0  0  0  0  0  0  0  0  0  0  0
    2.4940    0.0960    0.0050 C   0  0  0  0  0  0  0  0  0  0  0  0
    2.2580   -1.3340   -0.1650 C   0  0  0  0  0  0  0  0  0  0  0  0
    1.1140   -1.8230   -0.5090 N   0  0  0  0  0  0  0  0  0  0  0  0
   -0.0770   -1.1770   -0.7880 C   0  0  0  0  0  0  0  0  0  0  0  0
   -1.0960   -0.8830    0.0620 N   0  0  0  0  0  0  0  0  0  0  0  0
   -2.2100   -0.2270   -0.3710 C   0  0  0  0  0  0  0  0  0  0  0  0
   -3.2230    0.1070    0.5090 O   0  0  0  0  0  0  0  0  0  0  0  0
   -4.3750    0.7680    0.1600 C   0  0  0  0  0  0  0  0  0  0  0  0
   -5.6360    0.0140    0.0220 C   0  0  0  0  0  0  0  0  0  0  0  0
   -5.8890   -0.5940    1.2730 O   0  0  0  0  0  0  0  0  0  0  0  0
   -6.5370    0.4120    2.4220 P   0  0  0  0  0  0  0  0  0  0  0  0
   -5.6830    0.3520    3.9390 O   0  0  0  0  0  0  0  0  0  0  0  0
   -8.0110    1.1350    2.3970 O   0  0  0  0  0  0  0  0  0  0  0  0
   -2.3560    0.1510   -1.6630 N   0  0  0  0  0  0  0  0  0  0  0  0
   -1.3620   -0.1130   -2.5460 C   0  0  0  0  0  0  0  0  0  0  0  0
   -1.5230    0.3300   -3.8010 N   0  0  0  0  0  0  0  0  0  0  0  0
   -0.5460    0.1720   -4.7160 C   0  0  0  0  0  0  0  0  0  0  0  0
    0.6220   -0.4600   -4.3490 C   0  0  0  0  0  0  0  0  0  0  0  0
    0.7780   -0.9420   -3.0450 C   0  0  0  0  0  0  0  0  0  0  0  0
   -0.2510   -0.7570   -2.1260 C   0  0  0  0  0  0  0  0  0  0  0  0
    5.4280    0.6380    2.3660 N   0  0  0  0  0  0  0  0  0  0  0  0
    7.1670    0.5850    2.6000 P   0  0  0  0  0  0  0  0  0  0  0  0
    8.1170    0.6630    1.1980 O   0  0  0  0  0  0  0  0  0  0  0  0
    7.7120   -0.4110    3.8540 O   0  0  0  0  0  0  0  0  0  0  0  0
  1  2  2  0
  2  3  1  0
  2 24  1  0
  3  4  1  0
  4  5  1  0
  5  6  2  3
  6  7  1  0
  7  8  2  0
  7 23  1  0
  8  9  1  0
  9 10  1  0
  9 17  2  0
 10 11  1  0
 11 12  1  0
 12 13  1  0
 13 14  1  0
 14 15  1  0
 14 16  1  0
 17 18  1  0
 18 19  2  0
 18 23  1  0
 19 20  1  0
 20 21  2  0
 21 22  1  0
 22 23  2  0
 24 25  1  0
 25 26  1  0
 25 27  1  0
M  END
