
     RDKit          3D

 28 29  0  0  0  0  0  0  0  0999 V2000
    0.4110   -2.4280   -2.2670 C   0  0  0  0  0  0  0  0  0  0  0  0
   -0.4700   -1.6240   -1.3740 C   0  0  0  0  0  0  0  0  0  0  0  0
    0.0270   -0.8000   -0.5210 N   0  0  0  0  0  0  0  0  0  0  0  0
    1.4410   -0.6780   -0.4550 C   0  0  0  0  0  0  0  0  0  0  0  0
    2.2420   -0.8310    0.6220 N   0  0  0  0  0  0  0  0  0  0  0  0
    3.4770   -0.6380    0.2720 O   0  0  0  0  0  0  0  0  0  0  0  0
    3.5590   -0.3550   -1.0120 C   0  0  0  0  0  0  0  0  0  0  0  0
    4.6930   -0.0780   -1.7970 N   0  0  0  0  0  0  0  0  0  0  0  0
    6.0420   -0.0580   -1.2730 C   0  0  0  0  0  0  0  0  0  0  0  0
    6.0900    1.0150   -0.1990 C   0  0  0  0  0  0  0  0  0  0  0  0
    7.3640    1.1050    0.3660 O   0  0  0  0  0  0  0  0  0  0  0  0
    7.3980    2.3250    1.5780 P   0  0  0  0  0  0  0  0  0  0  0  0
    5.7870    2.8240    1.9840 O   0  0  0  0  0  0  0  0  0  0  0  0
    8.1630    1.7720    3.0320 O   0  0  0  0  0  0  0  0  0  0  0  0
    2.2900   -0.3820   -1.4550 N   0  0  0  0  0  0  0  0  0  0  0  0
   -1.8830   -1.7440   -1.4380 N   0  0  0  0  0  0  0  0  0  0  0  0
   -2.6420   -1.2510   -0.3320 C   0  0  0  0  0  0  0  0  0  0  0  0
   -3.6720   -1.9340    0.1320 C   0  0  0  0  0  0  0  0  0  0  0  0
   -4.0020   -3.1890   -0.5150 N   0  0  0  0  0  0  0  0  0  0  0  0
   -4.4800   -1.4630    1.2530 C   0  0  0  0  0  0  0  0  0  0  0  0
   -4.1420   -0.1300    1.8090 C   0  0  0  0  0  0  0  0  0  0  0  0
   -4.3120    1.2750    0.6250 P   0  0  0  0  0  0  0  0  0  0  0  0
   -4.4240    2.7410    1.5500 O   0  0  0  0  0  0  0  0  0  0  0  0
   -5.7830    3.0220    1.6900 C   0  0  0  0  0  0  0  0  0  0  0  0
   -6.3670    3.3890    0.4440 O   0  0  0  0  0  0  0  0  0  0  0  0
   -6.4960    2.3670   -0.4990 C   0  0  0  0  0  0  0  0  0  0  0  0
   -7.2510    2.5750   -1.4840 O   0  0  0  0  0  0  0  0  0  0  0  0
   -5.7950    1.1620   -0.3260 O   0  0  0  0  0  0  0  0  0  0  0  0
  1  2  1  0
  2  3  2  3
  2 16  1  0
  3  4  1  0
  4  5  2  0
  4 15  1  0
  5  6  1  0
  6  7  1  0
  7  8  1  0
  7 15  2  0
  8  9  1  0
  9 10  1  0
 10 11  1  0
 11 12  1  0
 12 13  1  0
 12 14  1  0
 16 17  1  0
 17 18  2  3
 18 19  1  0
 18 20  1  0
 20 21  1  0
 21 22  1  0
 22 23  1  0
 22 28  1  0
 23 24  1  0
 24 25  1  0
 25 26  1  0
 26 27  2  0
 26 28  1  0
M  END
