
     RDKit          3D

 28 28  0  0  0  0  0  0  0  0999 V2000
    3.3810   -1.2470    0.9280 C   0  0  0  0  0  0  0  0  0  0  0  0
    3.4780   -0.2460   -0.0930 N   0  0  0  0  0  0  0  0  0  0  0  0
    2.6730   -0.5350   -1.2340 C   0  0  0  0  0  0  0  0  0  0  0  0
    1.2140   -0.4430   -0.9270 C   0  0  0  0  0  0  0  0  0  0  0  0
    0.4750   -1.4620   -1.0600 N   0  0  0  0  0  0  0  0  0  0  0  0
   -0.9080   -1.4250   -0.7830 N   0  0  0  0  0  0  0  0  0  0  0  0
   -1.5880   -0.2320   -0.3290 C   0  0  0  0  0  0  0  0  0  0  0  0
   -2.9910   -0.2230   -0.0790 C   0  0  0  0  0  0  0  0  0  0  0  0
   -3.4800    0.8960    0.3540 O   0  0  0  0  0  0  0  0  0  0  0  0
   -3.9880   -1.1840   -0.2040 N   0  0  0  0  0  0  0  0  0  0  0  0
   -5.3610   -0.7430    0.2200 C   0  0  0  0  0  0  0  0  0  0  0  0
   -3.9120   -2.5000   -0.6820 C   0  0  0  0  0  0  0  0  0  0  0  0
   -3.5370   -3.6450    0.7550 P   0  0  0  0  0  0  0  0  0  0  0  0
   -4.2350   -5.2020    0.5150 O   0  0  0  0  0  0  0  0  0  0  0  0
   -4.1160   -2.9630    2.2300 O   0  0  0  0  0  0  0  0  0  0  0  0
   -0.8230    0.8270   -0.1890 C   0  0  0  0  0  0  0  0  0  0  0  0
   -1.2940    2.1240    0.2520 C   0  0  0  0  0  0  0  0  0  0  0  0
   -2.4550    2.4640    0.5670 O   0  0  0  0  0  0  0  0  0  0  0  0
   -0.3800    3.2500    0.3810 N   0  0  0  0  0  0  0  0  0  0  0  0
   -0.9210    4.5410    0.8330 C   0  0  0  0  0  0  0  0  0  0  0  0
    0.1980    5.5030    0.8800 C   0  0  0  0  0  0  0  0  0  0  0  0
    1.3660    5.1830    0.5730 O   0  0  0  0  0  0  0  0  0  0  0  0
   -0.0170    6.8300    1.2770 O   0  0  0  0  0  0  0  0  0  0  0  0
    0.6050    0.7480   -0.4870 N   0  0  0  0  0  0  0  0  0  0  0  0
    4.8260    0.1470   -0.3870 C   0  0  0  0  0  0  0  0  0  0  0  0
    5.9100   -1.2120   -0.9750 P   0  0  0  0  0  0  0  0  0  0  0  0
    5.3560   -2.7770   -0.5500 O   0  0  0  0  0  0  0  0  0  0  0  0
    7.5730   -0.9460   -0.6190 O   0  0  0  0  0  0  0  0  0  0  0  0
  1  2  1  0
  2  3  1  0
  2 25  1  0
  3  4  1  0
  4  5  2  0
  4 24  1  0
  5  6  1  0
  6  7  1  0
  7  8  1  0
  7 16  2  0
  8  9  2  0
  8 10  1  0
 10 11  1  0
 10 12  1  0
 12 13  1  0
 13 14  1  0
 13 15  1  0
 16 17  1  0
 16 24  1  0
 17 18  2  0
 17 19  1  0
 19 20  1  0
 20 21  1  0
 21 22  2  0
 21 23  1  0
 25 26  1  0
 26 27  1  0
 26 28  1  0
M  END
