
     RDKit          3D

 27 28  0  0  0  0  0  0  0  0999 V2000
   -1.9410   -7.0390   -0.2000 N   0  0  0  0  0  0  0  0  0  0  0  0
   -2.4650   -5.7160   -0.2220 C   0  0  0  0  0  0  0  0  0  0  0  0
   -3.7060   -5.5990   -0.4190 O   0  0  0  0  0  0  0  0  0  0  0  0
   -1.5930   -4.5200   -0.0220 C   0  0  0  0  0  0  0  0  0  0  0  0
   -2.3970   -3.3650   -0.0980 O   0  0  0  0  0  0  0  0  0  0  0  0
   -1.9190   -2.0840    0.0410 C   0  0  0  0  0  0  0  0  0  0  0  0
   -2.8130   -1.0410   -0.0550 C   0  0  0  0  0  0  0  0  0  0  0  0
   -2.4700    0.2910    0.0640 C   0  0  0  0  0  0  0  0  0  0  0  0
   -3.4800    1.3230   -0.0560 C   0  0  0  0  0  0  0  0  0  0  0  0
   -4.6660    0.9780   -0.2640 O   0  0  0  0  0  0  0  0  0  0  0  0
   -3.1620    2.6840    0.0540 N   0  0  0  0  0  0  0  0  0  0  0  0
   -3.8740    3.9690   -0.0070 C   0  0  0  0  0  0  0  0  0  0  0  0
   -2.5590    4.5010   -0.5980 C   0  0  0  0  0  0  0  0  0  0  0  0
   -1.9910    3.4510    0.2780 C   0  0  0  0  0  0  0  0  0  0  0  0
   -0.9650    3.2400    0.9510 O   0  0  0  0  0  0  0  0  0  0  0  0
   -1.1550    0.5410    0.2920 N   0  0  0  0  0  0  0  0  0  0  0  0
   -0.2680   -0.4650    0.3890 C   0  0  0  0  0  0  0  0  0  0  0  0
    1.0900   -0.1380    0.6280 N   0  0  0  0  0  0  0  0  0  0  0  0
    1.5740    1.2120    0.7770 C   0  0  0  0  0  0  0  0  0  0  0  0
    3.0740    1.2400    0.9910 C   0  0  0  0  0  0  0  0  0  0  0  0
    3.7600    0.6320   -0.1560 N   0  0  0  0  0  0  0  0  0  0  0  0
    5.5090    0.7080    0.1800 P   0  0  0  0  0  0  0  0  0  0  0  0
    5.9060    1.8390    1.4200 O   0  0  0  0  0  0  0  0  0  0  0  0
    6.4580    0.8940   -1.2370 O   0  0  0  0  0  0  0  0  0  0  0  0
    7.7860    1.9970   -0.9910 P   0  0  0  0  0  0  0  0  0  0  0  0
    9.0620    1.4480   -0.2810 O   0  0  0  0  0  0  0  0  0  0  0  0
   -0.6400   -1.7740    0.2650 N   0  0  0  0  0  0  0  0  0  0  0  0
  1  2  1  0
  2  3  2  0
  2  4  1  0
  4  5  1  0
  5  6  1  0
  6  7  2  0
  6 27  1  0
  7  8  1  0
  8  9  1  0
  8 16  2  0
  9 10  2  0
  9 11  1  0
 11 12  1  0
 11 14  1  0
 12 13  1  0
 13 14  1  0
 14 15  2  0
 16 17  1  0
 17 18  1  0
 17 27  2  0
 18 19  1  0
 19 20  1  0
 20 21  1  0
 21 22  1  0
 22 23  1  0
 22 24  1  0
 24 25  1  0
 25 26  2  0
M  END
