
     RDKit          3D

 28 28  0  0  0  0  0  0  0  0999 V2000
   -1.9900   -0.7780   -3.3520 C   0  0  0  0  0  0  0  0  0  0  0  0
   -1.6560   -0.4770   -2.0270 O   0  0  0  0  0  0  0  0  0  0  0  0
   -2.5170   -0.7930   -0.9550 C   0  0  0  0  0  0  0  0  0  0  0  0
   -3.5890   -1.3580   -1.2920 O   0  0  0  0  0  0  0  0  0  0  0  0
   -2.1050   -0.4400    0.3830 C   0  0  0  0  0  0  0  0  0  0  0  0
   -2.9730   -0.6880    1.3430 C   0  0  0  0  0  0  0  0  0  0  0  0
   -4.2500   -1.3030    0.9880 C   0  0  0  0  0  0  0  0  0  0  0  0
   -2.8210   -0.2980    2.7550 N   0  0  0  0  0  0  0  0  0  0  0  0
   -2.1970    0.9520    3.1260 C   0  0  0  0  0  0  0  0  0  0  0  0
   -2.6790    1.5850    4.5410 S   0  0  0  0  0  0  0  0  0  0  0  0
   -1.2420    1.6400    2.3400 N   0  0  0  0  0  0  0  0  0  0  0  0
   -0.2500    1.1390    1.4170 C   0  0  1  0  0  0  0  0  0  0  0  0
    0.7400    0.3770    2.3480 C   0  0  0  0  0  0  0  0  0  0  0  0
   -0.7010    0.0880    0.4800 C   0  0  0  0  0  0  0  0  0  0  0  0
    0.1850   -0.5660   -0.2690 C   0  0  0  0  0  0  0  0  0  0  0  0
    1.5560   -0.5120   -0.5790 C   0  0  0  0  0  0  0  0  0  0  0  0
    2.0320   -1.5010   -1.3900 C   0  0  0  0  0  0  0  0  0  0  0  0
    1.3600   -2.5940   -1.9800 C   0  0  0  0  0  0  0  0  0  0  0  0
    2.1030   -3.4190   -2.7550 N   0  0  0  0  0  0  0  0  0  0  0  0
    0.0520   -2.9980   -1.9160 O   0  0  0  0  0  0  0  0  0  0  0  0
    2.5910    0.4740   -0.3230 C   0  0  0  0  0  0  0  0  0  0  0  0
    3.7880    0.1350   -0.7390 O   0  0  0  0  0  0  0  0  0  0  0  0
    2.5230    1.6760    0.2620 O   0  0  0  0  0  0  0  0  0  0  0  0
    3.4890    2.6410    0.5100 C   0  0  0  0  0  0  0  0  0  0  0  0
    4.1560    3.2310   -0.6850 C   0  0  1  0  0  0  0  0  0  0  0  0
    5.1000    4.1900   -0.2820 F   0  0  0  0  0  0  0  0  0  0  0  0
    4.8150    2.3230   -1.4780 F   0  0  0  0  0  0  0  0  0  0  0  0
    3.2250    3.8890   -1.4590 F   0  0  0  0  0  0  0  0  0  0  0  0
  1  2  1  0
  2  3  1  0
  3  4  2  0
  3  5  1  0
  5  6  2  0
  5 14  1  0
  6  7  1  0
  6  8  1  0
  8  9  1  0
  9 10  2  0
  9 11  1  0
 11 12  1  0
 12 13  1  1
 12 14  1  0
 14 15  2  3
 15 16  1  0
 16 17  2  3
 16 21  1  0
 17 18  1  0
 18 19  2  0
 18 20  1  0
 21 22  2  0
 21 23  1  0
 23 24  1  0
 24 25  1  0
 25 26  1  1
 25 27  1  0
 25 28  1  0
M  END
