
     RDKit          3D

 23 25  0  0  0  0  0  0  0  0999 V2000
   -6.9970    0.6230    1.2370 C   0  0  0  0  0  0  0  0  0  0  0  0
   -5.8010    0.5120    0.6020 C   0  0  0  0  0  0  0  0  0  0  0  0
   -5.2430   -0.7960    0.3990 C   0  0  0  0  0  0  0  0  0  0  0  0
   -4.0680   -0.9780   -0.2200 C   0  0  0  0  0  0  0  0  0  0  0  0
   -3.5720   -2.3120   -0.3880 C   0  0  0  0  0  0  0  0  0  0  0  0
   -2.5260   -2.6670   -0.9240 N   0  0  0  0  0  0  0  0  0  0  0  0
   -1.5330   -1.9890   -1.5070 N   0  0  0  0  0  0  0  0  0  0  0  0
   -0.3090   -1.7420   -0.7800 C   0  0  0  0  0  0  0  0  0  0  0  0
   -0.1940   -2.1710    0.3940 O   0  0  0  0  0  0  0  0  0  0  0  0
    0.8080   -1.0020   -1.3780 C   0  0  0  0  0  0  0  0  0  0  0  0
    1.9510   -0.8830   -0.4280 C   0  0  2  0  0  0  0  0  0  0  0  0
    1.5440   -0.1490    0.8420 C   0  0  0  0  0  0  0  0  0  0  0  0
    2.6910    0.7520    1.1210 C   0  0  0  0  0  0  0  0  0  0  0  0
    3.7040    0.4810    0.1750 N   0  0  0  0  0  0  0  0  0  0  0  0
    5.0530    0.7360    0.3970 C   0  0  0  0  0  0  0  0  0  0  0  0
    5.9070   -0.1740    0.7650 N   0  0  0  0  0  0  0  0  0  0  0  0
    7.2030    0.4410    0.9000 C   0  0  0  0  0  0  0  0  0  0  0  0
    6.9440    1.8440    0.5500 C   0  0  0  0  0  0  0  0  0  0  0  0
    5.7150    2.0000    0.2650 N   0  0  0  0  0  0  0  0  0  0  0  0
    3.0990   -0.0790   -0.9970 C   0  0  0  0  0  0  0  0  0  0  0  0
   -3.3790    0.1990   -0.6760 C   0  0  0  0  0  0  0  0  0  0  0  0
   -3.8420    1.4300   -0.5180 C   0  0  0  0  0  0  0  0  0  0  0  0
   -5.1160    1.7280    0.1450 C   0  0  0  0  0  0  0  0  0  0  0  0
  1  2  2  0
  2  3  1  0
  2 23  1  0
  3  4  2  0
  4  5  1  0
  4 21  1  0
  5  6  2  3
  6  7  1  0
  7  8  1  0
  8  9  2  0
  8 10  1  0
 11 10  1  6
 11 12  1  0
 11 20  1  0
 12 13  1  0
 13 14  1  0
 14 15  1  0
 14 20  1  0
 15 16  2  0
 15 19  1  0
 16 17  1  0
 17 18  1  0
 18 19  2  0
 21 22  2  0
 22 23  1  0
M  END
