
     RDKit          3D

 28 29  0  0  0  0  0  0  0  0999 V2000
   -3.4900   -4.0610    0.0750 N   0  0  0  0  0  0  0  0  0  0  0  0
   -3.3960   -2.6250    0.1830 C   0  0  0  0  0  0  0  0  0  0  0  0
   -2.2590   -2.1500    0.1700 O   0  0  0  0  0  0  0  0  0  0  0  0
   -4.8610   -1.6980    0.3190 S   0  0  0  0  0  0  0  0  0  0  0  0
   -4.5590    0.0470    0.4420 C   0  0  0  0  0  0  0  0  0  0  0  0
   -3.3210    0.6390    0.4350 C   0  0  0  0  0  0  0  0  0  0  0  0
   -3.1090    2.0140    0.5330 C   0  0  0  0  0  0  0  0  0  0  0  0
   -1.8190    2.5430    0.5180 O   0  0  0  0  0  0  0  0  0  0  0  0
   -0.6750    1.7280    0.4050 C   0  0  0  0  0  0  0  0  0  0  0  0
    0.5460    2.5680    0.4180 C   0  0  0  0  0  0  0  0  0  0  0  0
    0.4870    3.7820    0.5150 O   0  0  0  0  0  0  0  0  0  0  0  0
    1.9000    1.9680    0.3130 C   0  0  0  0  0  0  0  0  0  0  0  0
    1.8440    0.5580    0.2050 O   0  0  0  0  0  0  0  0  0  0  0  0
    3.0470   -0.1260    0.0990 C   0  0  0  0  0  0  0  0  0  0  0  0
    4.2690    0.5190    0.0970 C   0  0  0  0  0  0  0  0  0  0  0  0
    5.4570   -0.1680   -0.0080 C   0  0  0  0  0  0  0  0  0  0  0  0
    6.6460    0.4740   -0.0090 F   0  0  0  0  0  0  0  0  0  0  0  0
    5.4490   -1.5500   -0.1160 C   0  0  0  0  0  0  0  0  0  0  0  0
    7.0220   -2.4060   -0.2500 S   0  0  0  0  0  0  0  0  0  0  0  0
    4.2520   -2.2260   -0.1170 C   0  0  0  0  0  0  0  0  0  0  0  0
    4.2510   -3.6350   -0.2270 N   0  0  0  0  0  0  0  0  0  0  0  0
    3.0910   -1.5100   -0.0110 C   0  0  0  0  0  0  0  0  0  0  0  0
    1.8690   -2.1320   -0.0070 F   0  0  0  0  0  0  0  0  0  0  0  0
   -4.2180    2.8170    0.6430 C   0  0  0  0  0  0  0  0  0  0  0  0
   -4.0800    4.1930    0.7450 O   0  0  0  0  0  0  0  0  0  0  0  0
   -5.4860    2.2580    0.6550 C   0  0  0  0  0  0  0  0  0  0  0  0
   -5.6620    0.9050    0.5570 C   0  0  0  0  0  0  0  0  0  0  0  0
   -6.9050    0.3360    0.5660 F   0  0  0  0  0  0  0  0  0  0  0  0
  1  2  1  0
  2  3  2  0
  2  4  1  0
  4  5  1  0
  5  6  2  0
  5 27  1  0
  6  7  1  0
  7  8  1  0
  7 24  2  0
  8  9  1  0
  9 10  1  0
 10 11  2  0
 10 12  1  0
 12 13  1  0
 13 14  1  0
 14 15  2  0
 14 22  1  0
 15 16  1  0
 16 17  1  0
 16 18  2  0
 18 19  1  0
 18 20  1  0
 20 21  1  0
 20 22  2  0
 22 23  1  0
 24 25  1  0
 24 26  1  0
 26 27  2  0
 27 28  1  0
M  END
