
     RDKit          3D

 28 29  0  0  0  0  0  0  0  0999 V2000
   -5.9890   -2.3020   -0.3070 C   0  0  0  0  0  0  0  0  0  0  0  0
   -4.5680   -1.8560   -0.3740 C   0  0  0  0  0  0  0  0  0  0  0  0
   -4.4410   -0.3640   -0.1290 C   0  0  0  0  0  0  0  0  0  0  0  0
   -5.5090    0.2160    0.0790 O   0  0  0  0  0  0  0  0  0  0  0  0
   -3.1340    0.2560   -0.1540 C   0  0  0  0  0  0  0  0  0  0  0  0
   -2.8490    1.5330    0.0370 C   0  0  0  0  0  0  0  0  0  0  0  0
   -3.8560    2.4750    0.3020 N   0  0  0  0  0  0  0  0  0  0  0  0
   -3.6840    3.8470    0.5410 C   0  0  0  0  0  0  0  0  0  0  0  0
   -4.6610    4.5610    0.7520 O   0  0  0  0  0  0  0  0  0  0  0  0
   -2.0610    4.5190    0.5330 S   0  0  0  0  0  0  0  0  0  0  0  0
   -0.9660    3.1300    0.1660 C   0  0  0  0  0  0  0  0  0  0  0  0
   -1.4270    1.9300   -0.0180 C   0  0  0  0  0  0  0  0  0  0  0  0
   -0.4470    0.9170   -0.2540 N   0  0  0  0  0  0  0  0  0  0  0  0
    0.9410    0.9850    0.0060 C   0  0  0  0  0  0  0  0  0  0  0  0
    1.4050    2.0220    0.5090 O   0  0  0  0  0  0  0  0  0  0  0  0
    1.7900   -0.1550   -0.3200 C   0  0  0  0  0  0  0  0  0  0  0  0
    3.1060   -0.3590   -0.1830 C   0  0  0  0  0  0  0  0  0  0  0  0
    3.9900    0.6460    0.3790 C   0  0  0  0  0  0  0  0  0  0  0  0
    5.2380    0.7200    0.6210 C   0  0  0  0  0  0  0  0  0  0  0  0
    6.3450   -0.1480    0.4540 C   0  0  0  0  0  0  0  0  0  0  0  0
    7.4960    0.3760    0.8510 O   0  0  0  0  0  0  0  0  0  0  0  0
    6.5200   -1.5000   -0.0580 C   0  0  2  0  0  0  0  0  0  0  0  0
    5.8460   -2.4160    0.7200 F   0  0  0  0  0  0  0  0  0  0  0  0
    7.8810   -1.8620    0.1360 F   0  0  0  0  0  0  0  0  0  0  0  0
    6.2550   -1.5850   -1.4050 F   0  0  0  0  0  0  0  0  0  0  0  0
    3.5340   -1.5650   -0.6120 O   0  0  0  0  0  0  0  0  0  0  0  0
    2.6490   -2.6500   -0.4670 C   0  0  0  0  0  0  0  0  0  0  0  0
    1.1590   -1.7050   -1.0290 S   0  0  0  0  0  0  0  0  0  0  0  0
  1  2  1  0
  2  3  1  0
  3  4  2  0
  3  5  1  0
  5  6  2  3
  6  7  1  0
  6 12  1  0
  7  8  1  0
  8  9  2  0
  8 10  1  0
 10 11  1  0
 11 12  2  0
 12 13  1  0
 13 14  1  0
 14 15  2  0
 14 16  1  0
 16 17  2  0
 16 28  1  0
 17 18  1  0
 17 26  1  0
 18 19  2  3
 19 20  1  0
 20 21  2  0
 20 22  1  0
 22 23  1  1
 22 24  1  0
 22 25  1  0
 26 27  1  0
 27 28  1  0
M  END
