
     RDKit          3D

 23 26  0  0  0  0  0  0  0  0999 V2000
    0.2530    3.1060   -0.4880 C   0  0  0  0  0  0  0  0  0  0  0  0
    0.5480    1.7000   -0.5160 O   0  0  0  0  0  0  0  0  0  0  0  0
   -0.4790    0.8130   -0.2040 C   0  0  0  0  0  0  0  0  0  0  0  0
   -1.7460    1.2310    0.1250 C   0  0  0  0  0  0  0  0  0  0  0  0
   -2.7640    0.3250    0.4360 C   0  0  0  0  0  0  0  0  0  0  0  0
   -2.4990   -1.0280    0.4130 C   0  0  0  0  0  0  0  0  0  0  0  0
   -1.2210   -1.4410    0.0800 C   0  0  0  0  0  0  0  0  0  0  0  0
   -0.2370   -0.5410   -0.2210 C   0  0  0  0  0  0  0  0  0  0  0  0
    1.1230   -1.0650   -0.5680 C   0  0  1  0  0  0  0  0  0  0  0  0
    1.5170   -0.7090   -1.9410 C   0  0  0  0  0  0  0  0  0  0  0  0
    2.8550   -0.1770   -2.0950 C   0  0  0  0  0  0  0  0  0  0  0  0
    3.2980    0.1600   -3.4030 N   0  0  0  0  0  0  0  0  0  0  0  0
    3.6530    0.0060   -1.1250 N   0  0  0  0  0  0  0  0  0  0  0  0
    3.3260   -0.2920    0.2230 C   0  0  0  0  0  0  0  0  0  0  0  0
    2.0930   -0.8000    0.4750 C   0  0  0  0  0  0  0  0  0  0  0  0
    2.0640   -0.9770    1.8730 C   0  0  0  0  0  0  0  0  0  0  0  0
    3.2400   -0.5740    2.3270 N   0  0  0  0  0  0  0  0  0  0  0  0
    4.0290   -0.1560    1.3730 N   0  0  0  0  0  0  0  0  0  0  0  0
    5.3780    0.3620    1.4160 C   0  0  0  0  0  0  0  0  0  0  0  0
   -3.5040   -1.9850    0.7220 N   0  0  0  0  0  0  0  0  0  0  0  0
   -4.8900   -1.5240    0.6610 C   0  0  0  0  0  0  0  0  0  0  0  0
   -4.9080   -0.2330    1.4720 C   0  0  0  0  0  0  0  0  0  0  0  0
   -4.1110    0.8290    0.7840 C   0  0  0  0  0  0  0  0  0  0  0  0
  1  2  1  0
  2  3  1  0
  3  4  2  0
  3  8  1  0
  4  5  1  0
  5  6  2  0
  5 23  1  0
  6  7  1  0
  6 20  1  0
  7  8  2  0
  9  8  1  1
  9 10  1  0
  9 15  1  0
 10 11  1  0
 11 12  1  0
 11 13  2  0
 13 14  1  0
 14 15  2  0
 14 18  1  0
 15 16  1  0
 16 17  2  0
 17 18  1  0
 18 19  1  0
 20 21  1  0
 21 22  1  0
 22 23  1  0
M  END
