
     RDKit          3D

 16 18  0  0  0  0  0  0  0  0999 V2000
   -4.7760   -0.1060    1.4710 N   0  0  0  0  0  0  0  0  0  0  0  0
   -3.5670    0.0170    0.7110 C   0  0  0  0  0  0  0  0  0  0  0  0
   -3.6170    0.5040   -0.5770 C   0  0  0  0  0  0  0  0  0  0  0  0
   -2.4400    0.6220   -1.3120 C   0  0  0  0  0  0  0  0  0  0  0  0
   -1.2270    0.2560   -0.7610 C   0  0  0  0  0  0  0  0  0  0  0  0
   -0.0390    0.3590   -1.4590 C   0  0  0  0  0  0  0  0  0  0  0  0
    1.1740   -0.0100   -0.9000 C   0  0  0  0  0  0  0  0  0  0  0  0
    2.3710    0.0800   -1.5660 C   0  0  0  0  0  0  0  0  0  0  0  0
    3.5620   -0.2920   -0.9920 C   0  0  0  0  0  0  0  0  0  0  0  0
    3.5900   -0.7800    0.3080 C   0  0  0  0  0  0  0  0  0  0  0  0
    4.8380   -1.1480    0.8490 N   0  0  0  0  0  0  0  0  0  0  0  0
    2.4000   -0.8790    0.9950 C   0  0  0  0  0  0  0  0  0  0  0  0
    1.2020   -0.5000    0.4040 C   0  0  0  0  0  0  0  0  0  0  0  0
    0.0320   -0.5900    1.0600 N   0  0  0  0  0  0  0  0  0  0  0  0
   -1.1540   -0.2340    0.5270 C   0  0  0  0  0  0  0  0  0  0  0  0
   -2.3410   -0.3390    1.2300 C   0  0  0  0  0  0  0  0  0  0  0  0
  1  2  1  0
  2  3  2  0
  2 16  1  0
  3  4  1  0
  4  5  2  0
  5  6  1  0
  5 15  1  0
  6  7  2  0
  7  8  1  0
  7 13  1  0
  8  9  2  0
  9 10  1  0
 10 11  1  0
 10 12  2  0
 12 13  1  0
 13 14  2  0
 14 15  1  0
 15 16  2  0
M  END
