
     RDKit          3D

 20 22  0  0  0  0  0  0  0  0999 V2000
    1.6220   -3.5760   -0.7650 N   0  0  0  0  0  0  0  0  0  0  0  0
    0.5560   -2.6070   -0.6200 C   0  0  0  0  0  0  0  0  0  0  0  0
    1.1220   -1.2540   -0.3790 C   0  0  0  0  0  0  0  0  0  0  0  0
    2.4360   -0.9840   -0.3080 N   0  0  0  0  0  0  0  0  0  0  0  0
    2.5860    0.3320   -0.0810 C   0  0  0  0  0  0  0  0  0  0  0  0
    3.6920    1.0940    0.0700 N   0  0  0  0  0  0  0  0  0  0  0  0
    3.5870    2.4180    0.2940 C   0  0  0  0  0  0  0  0  0  0  0  0
    2.3360    2.9760    0.3650 C   0  0  0  0  0  0  0  0  0  0  0  0
    1.1900    2.2280    0.2160 C   0  0  0  0  0  0  0  0  0  0  0  0
   -0.5290    3.0370    0.3200 Br  0  0  0  0  0  0  0  0  0  0  0  0
    1.3150    0.8700   -0.0130 C   0  0  0  0  0  0  0  0  0  0  0  0
    0.4120   -0.1070   -0.1970 N   0  0  0  0  0  0  0  0  0  0  0  0
   -0.9920    0.0200   -0.2020 C   0  0  0  0  0  0  0  0  0  0  0  0
   -1.6490    0.2820   -1.4070 C   0  0  0  0  0  0  0  0  0  0  0  0
   -3.0210    0.4130   -1.4490 C   0  0  0  0  0  0  0  0  0  0  0  0
   -3.7900    0.2890   -0.3070 C   0  0  0  0  0  0  0  0  0  0  0  0
   -5.6820    0.4760   -0.4090 Br  0  0  0  0  0  0  0  0  0  0  0  0
   -3.1290    0.0280    0.8840 C   0  0  0  0  0  0  0  0  0  0  0  0
   -1.7540   -0.1040    0.9360 C   0  0  0  0  0  0  0  0  0  0  0  0
   -1.1250   -0.3680    2.1620 N   0  0  0  0  0  0  0  0  0  0  0  0
  1  2  1  0
  2  3  1  0
  3  4  2  0
  3 12  1  0
  4  5  1  0
  5  6  2  0
  5 11  1  0
  6  7  1  0
  7  8  2  0
  8  9  1  0
  9 10  1  0
  9 11  2  0
 11 12  1  0
 12 13  1  0
 13 14  2  0
 13 19  1  0
 14 15  1  0
 15 16  2  0
 16 17  1  0
 16 18  1  0
 18 19  2  0
 19 20  1  0
M  END
