
     RDKit          3D

 20 22  0  0  0  0  0  0  0  0999 V2000
   -5.7780    0.1420    0.0260 N   0  0  0  0  0  0  0  0  0  0  0  0
   -4.4040   -0.1300   -0.1460 C   0  0  0  0  0  0  0  0  0  0  0  0
   -3.9660   -1.2020   -0.8570 N   0  0  0  0  0  0  0  0  0  0  0  0
   -2.6700   -1.4780   -1.0330 C   0  0  0  0  0  0  0  0  0  0  0  0
   -1.7450   -0.6290   -0.4620 C   0  0  0  0  0  0  0  0  0  0  0  0
   -0.3890   -0.8330   -0.5900 C   0  0  0  0  0  0  0  0  0  0  0  0
    0.4510    0.0730    0.0180 C   0  0  0  0  0  0  0  0  0  0  0  0
    1.8820   -0.1070   -0.0930 C   0  0  0  0  0  0  0  0  0  0  0  0
    2.5550   -0.8550    0.8500 C   0  0  0  0  0  0  0  0  0  0  0  0
    1.6210   -1.6720    2.3250 Br  0  0  0  0  0  0  0  0  0  0  0  0
    3.9160   -0.9930    0.6950 C   0  0  0  0  0  0  0  0  0  0  0  0
    4.6270   -0.4260   -0.3440 C   0  0  0  0  0  0  0  0  0  0  0  0
    3.9250    0.3160   -1.2710 C   0  0  0  0  0  0  0  0  0  0  0  0
    2.5610    0.4740   -1.1450 C   0  0  0  0  0  0  0  0  0  0  0  0
    1.6410    1.5240   -2.4770 Br  0  0  0  0  0  0  0  0  0  0  0  0
   -0.0120    1.1510    0.7330 C   0  0  0  0  0  0  0  0  0  0  0  0
    0.8560    2.1060    1.3730 N   0  0  0  0  0  0  0  0  0  0  0  0
   -1.3400    1.3290    0.8430 N   0  0  0  0  0  0  0  0  0  0  0  0
   -2.2050    0.4610    0.2600 C   0  0  0  0  0  0  0  0  0  0  0  0
   -3.5110    0.6970    0.4100 N   0  0  0  0  0  0  0  0  0  0  0  0
  1  2  1  0
  2  3  2  0
  2 20  1  0
  3  4  1  0
  4  5  2  0
  5  6  1  0
  5 19  1  0
  6  7  2  0
  7  8  1  0
  7 16  1  0
  8  9  2  0
  8 14  1  0
  9 10  1  0
  9 11  1  0
 11 12  2  0
 12 13  1  0
 13 14  2  0
 14 15  1  0
 16 17  1  0
 16 18  2  0
 18 19  1  0
 19 20  2  0
M  END
