
     RDKit          3D

 23 24  0  0  0  0  0  0  0  0999 V2000
   -6.7860    1.5580    0.3260 C   0  0  0  0  0  0  0  0  0  0  0  0
   -6.4330    0.3250   -0.4320 C   0  0  0  0  0  0  0  0  0  0  0  0
   -4.7190    0.2940   -1.0330 S   0  0  0  0  0  0  0  0  0  0  0  0
   -3.6550   -0.1500    0.3950 C   0  0  0  0  0  0  0  0  0  0  0  0
   -2.3440   -0.6720   -0.0370 C   0  0  0  0  0  0  0  0  0  0  0  0
   -2.1730   -2.0270    0.0070 C   0  0  0  0  0  0  0  0  0  0  0  0
   -3.3150   -2.8100    0.2950 O   0  0  0  0  0  0  0  0  0  0  0  0
   -0.9870   -2.5950   -0.2190 N   0  0  0  0  0  0  0  0  0  0  0  0
    0.0820   -1.8550   -0.4980 C   0  0  0  0  0  0  0  0  0  0  0  0
    1.1930   -2.4200   -0.7230 O   0  0  0  0  0  0  0  0  0  0  0  0
   -0.0550   -0.5160   -0.5360 N   0  0  0  0  0  0  0  0  0  0  0  0
    1.2290    0.1810   -0.7200 C   0  0  0  0  0  0  0  0  0  0  0  0
    1.8090    0.1990    0.6940 C   0  0  0  0  0  0  0  0  0  0  0  0
    3.1140    0.7320    0.8090 N   0  0  0  0  0  0  0  0  0  0  0  0
    4.0660    0.0390   -0.0780 C   0  0  0  0  0  0  0  0  0  0  0  0
    5.3830    0.7400    0.1370 C   0  0  0  0  0  0  0  0  0  0  0  0
    5.9820    1.3090   -0.8720 C   0  0  0  0  0  0  0  0  0  0  0  0
    7.1800    1.9430   -0.7240 O   0  0  0  0  0  0  0  0  0  0  0  0
    7.9750    1.6710    0.7720 S   0  0  0  0  0  0  0  0  0  0  0  0
    9.0570    0.6150    0.5590 O   0  0  0  0  0  0  0  0  0  0  0  0
    6.2330    0.8010    1.6770 S   0  0  0  0  0  0  0  0  0  0  0  0
   -1.2650    0.0800   -0.3090 C   0  0  0  0  0  0  0  0  0  0  0  0
   -1.3380    1.3230   -0.3510 O   0  0  0  0  0  0  0  0  0  0  0  0
  1  2  1  0
  2  3  1  0
  3  4  1  0
  4  5  1  0
  5  6  2  0
  5 22  1  0
  6  7  1  0
  6  8  1  0
  8  9  1  0
  9 10  2  0
  9 11  1  0
 11 12  1  0
 11 22  1  0
 12 13  1  0
 13 14  1  0
 14 15  1  0
 15 16  1  0
 16 17  2  0
 16 21  1  0
 17 18  1  0
 19 18  1  6
 19 20  2  0
 19 21  1  0
 22 23  2  0
M  CHG  1  14   1
M  END
