
     RDKit          3D

 20 22  0  0  0  0  0  0  0  0999 V2000
    5.1120   -0.1880   -0.8630 N   0  0  0  0  0  0  0  0  0  0  0  0
    3.8700    0.0200   -0.2230 C   0  0  0  0  0  0  0  0  0  0  0  0
    3.6280    1.2190    0.2880 C   0  0  0  0  0  0  0  0  0  0  0  0
    2.4450    1.6460    0.9770 N   0  0  0  0  0  0  0  0  0  0  0  0
    1.2420    1.1090    0.9530 C   0  0  0  0  0  0  0  0  0  0  0  0
    0.7510   -0.0390    0.2440 C   0  0  0  0  0  0  0  0  0  0  0  0
   -0.6630   -0.2810    0.0300 C   0  0  0  0  0  0  0  0  0  0  0  0
   -1.1450   -1.4440   -0.5950 C   0  0  0  0  0  0  0  0  0  0  0  0
   -0.3100   -2.5860   -1.0740 C   0  0  0  0  0  0  0  0  0  0  0  0
    0.5980   -2.1460   -2.7150 Br  0  0  0  0  0  0  0  0  0  0  0  0
   -2.4760   -1.4050   -0.7050 N   0  0  0  0  0  0  0  0  0  0  0  0
   -2.9030   -0.2550   -0.1760 C   0  0  0  0  0  0  0  0  0  0  0  0
   -4.1590    0.2800   -0.0470 C   0  0  0  0  0  0  0  0  0  0  0  0
   -4.3420    1.5080    0.5280 C   0  0  0  0  0  0  0  0  0  0  0  0
   -3.2620    2.1930    0.9680 C   0  0  0  0  0  0  0  0  0  0  0  0
   -3.5080    3.9030    1.7660 Br  0  0  0  0  0  0  0  0  0  0  0  0
   -1.9690    1.6850    0.8560 C   0  0  0  0  0  0  0  0  0  0  0  0
   -1.7940    0.4620    0.2870 C   0  0  0  0  0  0  0  0  0  0  0  0
    1.5610   -0.9650   -0.2260 N   0  0  0  0  0  0  0  0  0  0  0  0
    2.9480   -1.0830   -0.1840 N   0  0  0  0  0  0  0  0  0  0  0  0
  1  2  1  0
  2  3  2  0
  2 20  1  0
  3  4  1  0
  4  5  2  0
  5  6  1  0
  6  7  1  0
  6 19  2  0
  7  8  2  0
  7 18  1  0
  8  9  1  0
  8 11  1  0
  9 10  1  0
 11 12  1  0
 12 13  2  0
 12 18  1  0
 13 14  1  0
 14 15  2  0
 15 16  1  0
 15 17  1  0
 17 18  2  0
 19 20  1  0
M  END
