
     RDKit          3D

 20 22  0  0  0  0  0  0  0  0999 V2000
   -3.3760    3.3850   -0.2140 N   0  0  0  0  0  0  0  0  0  0  0  0
   -2.9130    2.0410   -0.0830 C   0  0  0  0  0  0  0  0  0  0  0  0
   -3.8140    1.1360    0.0620 N   0  0  0  0  0  0  0  0  0  0  0  0
   -3.4640   -0.1960    0.1970 N   0  0  0  0  0  0  0  0  0  0  0  0
   -2.0530   -0.5320    0.1700 C   0  0  0  0  0  0  0  0  0  0  0  0
   -1.7630   -1.8110    0.2240 C   0  0  0  0  0  0  0  0  0  0  0  0
   -2.8680   -2.8150    0.3140 C   0  0  1  0  0  0  0  0  0  0  0  0
   -3.9000   -2.9420   -1.2990 Br  0  0  0  0  0  0  0  0  0  0  0  0
   -2.0670   -4.5600    0.6010 Br  0  0  0  0  0  0  0  0  0  0  0  0
   -1.0450    0.4680    0.0150 C   0  0  0  0  0  0  0  0  0  0  0  0
    0.3790    0.2400   -0.0460 C   0  0  0  0  0  0  0  0  0  0  0  0
    1.2650    1.1560   -0.5960 N   0  0  0  0  0  0  0  0  0  0  0  0
    2.5120    0.7730   -0.4580 C   0  0  0  0  0  0  0  0  0  0  0  0
    3.7690    1.2780   -0.8060 C   0  0  0  0  0  0  0  0  0  0  0  0
    4.9200    0.5830   -0.4920 C   0  0  0  0  0  0  0  0  0  0  0  0
    4.8880   -0.6300    0.1730 C   0  0  0  0  0  0  0  0  0  0  0  0
    3.6210   -1.1250    0.5160 C   0  0  0  0  0  0  0  0  0  0  0  0
    2.4960   -0.4180    0.1940 C   0  0  0  0  0  0  0  0  0  0  0  0
    1.1800   -0.7040    0.4260 N   0  0  0  0  0  0  0  0  0  0  0  0
   -1.4960    1.7480   -0.1120 C   0  0  0  0  0  0  0  0  0  0  0  0
  1  2  1  0
  2  3  2  0
  2 20  1  0
  3  4  1  0
  4  5  1  0
  5  6  2  3
  5 10  1  0
  6  7  1  0
  7  8  1  6
  7  9  1  0
 10 11  1  0
 10 20  2  0
 11 12  2  0
 11 19  1  0
 12 13  1  0
 13 14  2  0
 13 18  1  0
 14 15  1  0
 15 16  2  0
 16 17  1  0
 17 18  2  0
 18 19  1  0
M  END
