
     RDKit          3D

 20 22  0  0  0  0  0  0  0  0999 V2000
    4.4090    0.4760    0.8980 C   0  0  0  0  0  0  0  0  0  0  0  0
    3.2830   -0.1450    0.1150 C   0  0  0  0  0  0  0  0  0  0  0  0
    1.9960    0.3440    0.1870 C   0  0  0  0  0  0  0  0  0  0  0  0
    0.9470   -0.2080   -0.5200 C   0  0  0  0  0  0  0  0  0  0  0  0
   -0.3820    0.2990   -0.4450 N   0  0  0  0  0  0  0  0  0  0  0  0
   -0.9100    1.3500   -1.0950 C   0  0  0  0  0  0  0  0  0  0  0  0
   -0.1530    2.1370   -1.9980 N   0  0  0  0  0  0  0  0  0  0  0  0
   -2.2210    1.5080   -0.7470 N   0  0  0  0  0  0  0  0  0  0  0  0
   -2.5250    0.5580    0.1230 C   0  0  0  0  0  0  0  0  0  0  0  0
   -3.7190    0.2760    0.7810 C   0  0  0  0  0  0  0  0  0  0  0  0
   -4.8820    1.0340    0.5950 N   0  0  0  0  0  0  0  0  0  0  0  0
   -3.6890   -0.8050    1.6340 C   0  0  0  0  0  0  0  0  0  0  0  0
   -5.2790   -1.2490    2.5640 Br  0  0  0  0  0  0  0  0  0  0  0  0
   -2.5440   -1.5500    1.8160 C   0  0  0  0  0  0  0  0  0  0  0  0
   -1.4160   -1.2380    1.1590 N   0  0  0  0  0  0  0  0  0  0  0  0
   -1.3930   -0.2050    0.3240 C   0  0  0  0  0  0  0  0  0  0  0  0
    1.2220   -1.2930   -1.3260 C   0  0  0  0  0  0  0  0  0  0  0  0
    2.4950   -1.8280   -1.4390 C   0  0  0  0  0  0  0  0  0  0  0  0
    3.5010   -1.2310   -0.7060 C   0  0  0  0  0  0  0  0  0  0  0  0
    5.2930   -1.9130   -0.8070 Br  0  0  0  0  0  0  0  0  0  0  0  0
  1  2  1  0
  2  3  2  0
  2 19  1  0
  3  4  1  0
  4  5  1  0
  4 17  2  0
  5  6  1  0
  5 16  1  0
  6  7  1  0
  6  8  2  0
  8  9  1  0
  9 10  2  0
  9 16  1  0
 10 11  1  0
 10 12  1  0
 12 13  1  0
 12 14  2  0
 14 15  1  0
 15 16  2  0
 17 18  1  0
 18 19  2  0
 19 20  1  0
M  END
