
     RDKit          3D

 26 28  0  0  0  0  0  0  0  0999 V2000
    7.5120    1.4610    0.1710 C   0  0  0  0  0  0  0  0  0  0  0  0
    6.3920    0.8510   -0.1850 C   0  0  0  0  0  0  0  0  0  0  0  0
    5.4830    1.4830   -1.0730 N   0  0  0  0  0  0  0  0  0  0  0  0
    4.1140    1.3050   -0.8720 N   0  0  0  0  0  0  0  0  0  0  0  0
    3.2460    1.1390   -2.0200 C   0  0  0  0  0  0  0  0  0  0  0  0
    3.8390    1.1750   -3.1140 O   0  0  0  0  0  0  0  0  0  0  0  0
    1.8520    0.9570   -1.8490 N   0  0  0  0  0  0  0  0  0  0  0  0
    0.9810    0.8020   -2.9410 C   0  0  0  0  0  0  0  0  0  0  0  0
    1.3610    1.0980   -4.2290 C   0  0  0  0  0  0  0  0  0  0  0  0
    0.4680    1.0090   -5.3000 C   0  0  0  0  0  0  0  0  0  0  0  0
   -0.8050    0.6180   -5.0330 C   0  0  0  0  0  0  0  0  0  0  0  0
   -1.1970    0.3160   -3.7310 C   0  0  0  0  0  0  0  0  0  0  0  0
   -0.3380    0.3960   -2.6640 C   0  0  0  0  0  0  0  0  0  0  0  0
   -0.6590    0.0470   -1.3410 N   0  0  0  0  0  0  0  0  0  0  0  0
   -1.9440   -0.2130   -0.8290 C   0  0  0  0  0  0  0  0  0  0  0  0
   -2.9400   -0.1370   -1.5790 O   0  0  0  0  0  0  0  0  0  0  0  0
   -2.1970   -0.5840    0.5870 C   0  0  0  0  0  0  0  0  0  0  0  0
   -3.4330   -0.8140    0.9970 C   0  0  0  0  0  0  0  0  0  0  0  0
   -3.7390   -1.1820    2.3800 C   0  0  0  0  0  0  0  0  0  0  0  0
   -4.8700   -1.4550    3.0080 O   0  0  0  0  0  0  0  0  0  0  0  0
   -4.7020   -1.7370    4.2490 C   0  0  0  0  0  0  0  0  0  0  0  0
   -5.7260   -2.0990    5.2910 C   0  0  0  0  0  0  0  0  0  0  0  0
   -3.3570   -1.6590    4.5170 C   0  0  0  0  0  0  0  0  0  0  0  0
   -2.7440   -1.3010    3.3080 C   0  0  0  0  0  0  0  0  0  0  0  0
   -1.3430   -1.0590    2.9280 C   0  0  0  0  0  0  0  0  0  0  0  0
   -1.1630   -0.7050    1.5400 N   0  0  0  0  0  0  0  0  0  0  0  0
  1  2  2  0
  2  3  1  0
  3  4  1  0
  4  5  1  0
  5  6  2  0
  5  7  1  0
  7  8  1  0
  8  9  2  0
  8 13  1  0
  9 10  1  0
 10 11  2  0
 11 12  1  0
 12 13  2  0
 13 14  1  0
 14 15  1  0
 15 16  2  0
 15 17  1  0
 17 18  2  0
 17 26  1  0
 18 19  1  0
 19 20  1  0
 19 24  2  0
 20 21  1  0
 21 22  1  0
 21 23  2  0
 23 24  1  0
 24 25  1  0
 25 26  1  0
M  END
