
     RDKit          3D

 26 28  0  0  0  0  0  0  0  0999 V2000
    6.3250   -3.0220    0.2790 C   0  0  0  0  0  0  0  0  0  0  0  0
    5.2280   -2.1770    0.7240 N   0  0  0  0  0  0  0  0  0  0  0  0
    4.7260   -1.1310   -0.1140 C   0  0  0  0  0  0  0  0  0  0  0  0
    5.2660   -0.9920   -1.2120 O   0  0  0  0  0  0  0  0  0  0  0  0
    3.6690   -0.2870    0.2700 N   0  0  0  0  0  0  0  0  0  0  0  0
    3.1020    0.7570   -0.4610 C   0  0  0  0  0  0  0  0  0  0  0  0
    3.4920    1.1380   -1.7200 C   0  0  0  0  0  0  0  0  0  0  0  0
    2.8680    2.1980   -2.3850 C   0  0  0  0  0  0  0  0  0  0  0  0
    1.8370    2.8990   -1.8000 C   0  0  0  0  0  0  0  0  0  0  0  0
    1.4280    2.5320   -0.5320 C   0  0  0  0  0  0  0  0  0  0  0  0
    2.0530    1.4810    0.1170 C   0  0  0  0  0  0  0  0  0  0  0  0
    1.6440    1.1250    1.3720 O   0  0  0  0  0  0  0  0  0  0  0  0
    0.6080    1.7450    2.0700 C   0  0  0  0  0  0  0  0  0  0  0  0
   -0.7250    1.6480    1.4520 C   0  0  0  0  0  0  0  0  0  0  0  0
   -1.6630    2.2960    2.0000 O   0  0  0  0  0  0  0  0  0  0  0  0
   -1.0550    0.8960    0.3050 N   0  0  0  0  0  0  0  0  0  0  0  0
   -2.3400    0.8450   -0.2380 N   0  0  0  0  0  0  0  0  0  0  0  0
   -3.2090   -0.2140    0.1360 C   0  0  0  0  0  0  0  0  0  0  0  0
   -2.7900   -1.1870    1.0340 C   0  0  0  0  0  0  0  0  0  0  0  0
   -3.6240   -2.2200    1.4050 C   0  0  0  0  0  0  0  0  0  0  0  0
   -4.8740   -2.2730    0.8730 C   0  0  0  0  0  0  0  0  0  0  0  0
   -5.2930   -1.3100   -0.0190 C   0  0  0  0  0  0  0  0  0  0  0  0
   -6.5070   -1.1550   -0.6850 C   0  0  0  0  0  0  0  0  0  0  0  0
   -6.4190   -0.0530   -1.4470 N   0  0  0  0  0  0  0  0  0  0  0  0
   -5.1900    0.4860   -1.2770 C   0  0  0  0  0  0  0  0  0  0  0  0
   -4.4630   -0.2770   -0.3910 C   0  0  0  0  0  0  0  0  0  0  0  0
  1  2  1  0
  2  3  1  0
  3  4  2  0
  3  5  1  0
  5  6  1  0
  6  7  2  0
  6 11  1  0
  7  8  1  0
  8  9  2  0
  9 10  1  0
 10 11  2  0
 11 12  1  0
 12 13  1  0
 13 14  1  0
 14 15  2  0
 14 16  1  0
 16 17  1  0
 17 18  1  0
 18 19  2  0
 18 26  1  0
 19 20  1  0
 20 21  2  0
 21 22  1  0
 22 23  2  0
 22 26  1  0
 23 24  1  0
 24 25  1  0
 25 26  2  0
M  END
