
     RDKit          3D

 18 20  0  0  0  0  0  0  0  0999 V2000
   -4.3180   -0.7490   -0.3450 C   0  0  0  0  0  0  0  0  0  0  0  0
   -3.9370    0.6330   -0.0710 C   0  0  0  0  0  0  0  0  0  0  0  0
   -2.7270    1.0590    0.1970 C   0  0  0  0  0  0  0  0  0  0  0  0
   -2.2860    2.4640    0.4830 C   0  0  0  0  0  0  0  0  0  0  0  0
   -0.9360    2.4380   -0.2560 C   0  0  0  0  0  0  0  0  0  0  0  0
   -0.4260    1.0520   -0.0070 C   0  0  0  0  0  0  0  0  0  0  0  0
    0.8310    0.4850    0.0020 C   0  0  0  0  0  0  0  0  0  0  0  0
    1.0390   -0.8550    0.2770 C   0  0  0  0  0  0  0  0  0  0  0  0
    2.1390   -1.6760    0.3560 C   0  0  0  0  0  0  0  0  0  0  0  0
    3.5290   -1.3080    0.1490 C   0  0  0  0  0  0  0  0  0  0  0  0
    4.4620   -2.1210    0.2410 O   0  0  0  0  0  0  0  0  0  0  0  0
    3.8910    0.0130   -0.1740 O   0  0  0  0  0  0  0  0  0  0  0  0
    5.2600    0.3700   -0.3770 C   0  0  0  0  0  0  0  0  0  0  0  0
    1.7230   -2.9460    0.6730 C   0  0  0  0  0  0  0  0  0  0  0  0
    0.4170   -2.8960    0.7810 O   0  0  0  0  0  0  0  0  0  0  0  0
   -0.0450   -1.6850    0.5570 C   0  0  0  0  0  0  0  0  0  0  0  0
   -1.3020   -1.1140    0.5470 C   0  0  0  0  0  0  0  0  0  0  0  0
   -1.5220    0.2260    0.2730 C   0  0  0  0  0  0  0  0  0  0  0  0
  1  2  1  0
  2  3  2  3
  3  4  1  0
  3 18  1  0
  4  5  1  0
  5  6  1  0
  6  7  2  0
  6 18  1  0
  7  8  1  0
  8  9  1  0
  8 16  2  0
  9 10  1  0
  9 14  2  0
 10 11  2  0
 10 12  1  0
 12 13  1  0
 14 15  1  0
 15 16  1  0
 16 17  1  0
 17 18  2  0
M  END
