
     RDKit          3D

 25 27  0  0  0  0  0  0  0  0999 V2000
    1.9520    0.1100    3.1150 N   0  0  0  0  0  0  0  0  0  0  0  0
    0.7560    0.1180    2.4170 C   0  0  0  0  0  0  0  0  0  0  0  0
   -0.3310    0.1750    3.0350 O   0  0  0  0  0  0  0  0  0  0  0  0
    0.7080    0.0600    0.9470 C   0  0  0  0  0  0  0  0  0  0  0  0
   -0.4760    0.0710    0.3640 C   0  0  0  0  0  0  0  0  0  0  0  0
   -0.7280    0.0220   -1.0450 C   0  0  0  0  0  0  0  0  0  0  0  0
   -2.0120    0.0430   -1.4630 C   0  0  0  0  0  0  0  0  0  0  0  0
   -2.3570   -0.0030   -2.8480 N   0  0  0  0  0  0  0  0  0  0  0  0
   -3.0320    0.1120   -0.4950 N   0  0  0  0  0  0  0  0  0  0  0  0
   -3.4980   -1.1730   -0.0130 C   0  0  0  0  0  0  0  0  0  0  0  0
   -4.1550   -0.9770    1.3290 C   0  0  0  0  0  0  0  0  0  0  0  0
   -5.5670   -0.4090    1.1360 C   0  0  0  0  0  0  0  0  0  0  0  0
   -5.5620    0.9640    1.0330 O   0  0  0  0  0  0  0  0  0  0  0  0
   -5.0240    1.4150   -0.1590 C   0  0  0  0  0  0  0  0  0  0  0  0
   -3.4910    1.4270   -0.0990 C   0  0  0  0  0  0  0  0  0  0  0  0
    1.9380   -0.0080    0.1730 C   0  0  0  0  0  0  0  0  0  0  0  0
    3.2630   -0.0310    0.5700 C   0  0  0  0  0  0  0  0  0  0  0  0
    4.1000   -0.1010   -0.5480 C   0  0  0  0  0  0  0  0  0  0  0  0
    5.5490   -0.1470   -0.6200 C   0  0  0  0  0  0  0  0  0  0  0  0
    6.3470   -0.2160   -1.7400 C   0  0  0  0  0  0  0  0  0  0  0  0
    7.6400   -0.2360   -1.3000 C   0  0  0  0  0  0  0  0  0  0  0  0
    7.6590   -0.1830    0.0370 N   0  0  0  0  0  0  0  0  0  0  0  0
    6.4220   -0.1300    0.4310 N   0  0  0  0  0  0  0  0  0  0  0  0
    3.2140   -0.1170   -1.5940 C   0  0  0  0  0  0  0  0  0  0  0  0
    2.0000   -0.0630   -1.1460 O   0  0  0  0  0  0  0  0  0  0  0  0
  1  2  1  0
  2  3  2  0
  2  4  1  0
  4  5  2  3
  4 16  1  0
  5  6  1  0
  6  7  2  3
  7  8  1  0
  7  9  1  0
  9 10  1  0
  9 15  1  0
 10 11  1  0
 11 12  1  0
 12 13  1  0
 13 14  1  0
 14 15  1  0
 16 17  2  0
 16 25  1  0
 17 18  1  0
 18 19  1  0
 18 24  2  0
 19 20  1  0
 19 23  2  0
 20 21  2  0
 21 22  1  0
 22 23  1  0
 24 25  1  0
M  END
