
     RDKit          3D

 18 20  0  0  0  0  0  0  0  0999 V2000
    5.6170    0.6910   -0.0660 C   0  0  0  0  0  0  0  0  0  0  0  0
    4.4130    1.0720    0.5710 O   0  0  0  0  0  0  0  0  0  0  0  0
    3.2080    0.5260    0.1710 C   0  0  0  0  0  0  0  0  0  0  0  0
    3.1930   -0.4010   -0.8620 C   0  0  0  0  0  0  0  0  0  0  0  0
    1.9870   -0.9390   -1.2520 C   0  0  0  0  0  0  0  0  0  0  0  0
    0.7740   -0.6110   -0.6740 C   0  0  0  0  0  0  0  0  0  0  0  0
   -0.4170   -1.1680   -1.0880 C   0  0  0  0  0  0  0  0  0  0  0  0
   -1.6140   -0.8160   -0.4850 C   0  0  0  0  0  0  0  0  0  0  0  0
   -2.7610   -1.3440   -0.8740 O   0  0  0  0  0  0  0  0  0  0  0  0
   -3.8860   -1.0050   -0.2990 C   0  0  0  0  0  0  0  0  0  0  0  0
   -4.9930   -1.5120   -0.6710 O   0  0  0  0  0  0  0  0  0  0  0  0
   -3.9470   -0.0940    0.7310 C   0  0  0  0  0  0  0  0  0  0  0  0
   -5.2300    0.2900    1.3840 C   0  0  0  0  0  0  0  0  0  0  0  0
   -2.7840    0.4750    1.1630 C   0  0  0  0  0  0  0  0  0  0  0  0
   -1.6010    0.1030    0.5400 C   0  0  0  0  0  0  0  0  0  0  0  0
   -0.3880    0.6590    0.9500 C   0  0  0  0  0  0  0  0  0  0  0  0
    0.7950    0.3060    0.3480 C   0  0  0  0  0  0  0  0  0  0  0  0
    2.0060    0.8690    0.7650 C   0  0  0  0  0  0  0  0  0  0  0  0
  1  2  1  0
  2  3  1  0
  3  4  2  0
  3 18  1  0
  4  5  1  0
  5  6  2  0
  6  7  1  0
  6 17  1  0
  7  8  2  0
  8  9  1  0
  8 15  1  0
  9 10  1  0
 10 11  2  0
 10 12  1  0
 12 13  1  0
 12 14  2  0
 14 15  1  0
 15 16  2  0
 16 17  1  0
 17 18  2  0
M  END
