
     RDKit          3D

 11 11  0  0  0  0  0  0  0  0999 V2000
   -3.5850    0.2640    0.6730 O   0  0  0  0  0  0  0  0  0  0  0  0
   -2.2850    0.7720    0.6770 C   0  0  0  0  0  0  0  0  0  0  0  0
   -1.4290   -0.1890   -0.1020 C   0  0  1  0  0  0  0  0  0  0  0  0
   -1.9090   -0.2920   -1.4050 O   0  0  0  0  0  0  0  0  0  0  0  0
    0.0130    0.2520   -0.1970 C   0  0  2  0  0  0  0  0  0  0  0  0
    0.1170    1.4890   -0.8450 O   0  0  0  0  0  0  0  0  0  0  0  0
    0.7550   -0.8290   -0.9570 C   0  0  0  0  0  0  0  0  0  0  0  0
    1.7920   -1.2840    0.0700 C   0  0  0  0  0  0  0  0  0  0  0  0
    1.9540    0.0110    0.8680 C   0  0  1  0  0  0  0  0  0  0  0  0
    2.6790    0.9070    0.1150 O   0  0  0  0  0  0  0  0  0  0  0  0
    0.6200    0.3810    1.0330 O   0  0  0  0  0  0  0  0  0  0  0  0
  1  2  1  0
  2  3  1  0
  3  4  1  6
  3  5  1  0
  5  6  1  6
  5  7  1  0
  5 11  1  0
  7  8  1  0
  8  9  1  0
  9 10  1  6
  9 11  1  0
M  END
