
     RDKit          3D

 11 11  0  0  0  0  0  0  0  0999 V2000
    3.0760   -0.1610    0.8380 O   0  0  0  0  0  0  0  0  0  0  0  0
    2.2570   -0.7100   -0.1460 C   0  0  0  0  0  0  0  0  0  0  0  0
    0.8260   -0.4150    0.2530 C   0  0  2  0  0  0  0  0  0  0  0  0
   -0.1390   -0.9920   -0.7890 C   0  0  0  0  0  0  0  0  0  0  0  0
   -1.5180   -0.6730   -0.3190 C   0  0  2  0  0  0  0  0  0  0  0  0
   -2.3730   -0.7390   -1.4430 O   0  0  0  0  0  0  0  0  0  0  0  0
   -1.6580    0.6050    0.4220 C   0  0  1  0  0  0  0  0  0  0  0  0
   -1.9480    0.3510    1.7820 O   0  0  0  0  0  0  0  0  0  0  0  0
   -0.6520    1.4920    0.3580 O   0  0  0  0  0  0  0  0  0  0  0  0
    0.6140    1.0710    0.2060 C   0  0  2  0  0  0  0  0  0  0  0  0
    1.0790    1.5060   -1.0570 O   0  0  0  0  0  0  0  0  0  0  0  0
  1  2  1  0
  3  2  1  6
  3  4  1  0
  3 10  1  0
  4  5  1  0
  5  6  1  6
  5  7  1  0
  7  8  1  1
  7  9  1  0
  9 10  1  0
 10 11  1  6
M  END
