
     RDKit          3D

 11 11  0  0  0  0  0  0  0  0999 V2000
    3.2040   -0.1660   -0.4110 O   0  0  0  0  0  0  0  0  0  0  0  0
    2.2950   -0.9720    0.2790 C   0  0  0  0  0  0  0  0  0  0  0  0
    0.9040   -0.5380   -0.1610 C   0  0  2  0  0  0  0  0  0  0  0  0
    0.8470   -0.7370   -1.5320 O   0  0  0  0  0  0  0  0  0  0  0  0
    0.6250    0.8860    0.2360 C   0  0  0  0  0  0  0  0  0  0  0  0
   -0.7140    1.2660   -0.3380 C   0  0  2  0  0  0  0  0  0  0  0  0
   -1.1330    2.4730    0.2720 O   0  0  0  0  0  0  0  0  0  0  0  0
   -1.7470    0.2150   -0.2400 C   0  0  0  0  0  0  0  0  0  0  0  0
   -1.3150   -1.1480    0.0830 C   0  0  2  0  0  0  0  0  0  0  0  0
   -2.1430   -1.6740    1.0950 O   0  0  0  0  0  0  0  0  0  0  0  0
   -0.0210   -1.3170    0.5120 O   0  0  0  0  0  0  0  0  0  0  0  0
  1  2  1  0
  2  3  1  0
  3  4  1  6
  3  5  1  0
  3 11  1  0
  5  6  1  0
  6  7  1  1
  6  8  1  0
  8  9  1  0
  9 10  1  1
  9 11  1  0
M  END
