
     RDKit          3D

 11 11  0  0  0  0  0  0  0  0999 V2000
    2.4000    0.7800   -1.0050 O   0  0  0  0  0  0  0  0  0  0  0  0
    1.7060   -0.0150   -0.1070 C   0  0  1  0  0  0  0  0  0  0  0  0
    1.6370    0.5980    1.1440 O   0  0  0  0  0  0  0  0  0  0  0  0
    0.3710   -0.4640   -0.6150 C   0  0  1  0  0  0  0  0  0  0  0  0
    0.5830   -1.1990   -1.7790 O   0  0  0  0  0  0  0  0  0  0  0  0
   -0.1980   -1.4330    0.4240 C   0  0  0  0  0  0  0  0  0  0  0  0
   -1.1040   -0.5080    1.2090 C   0  0  0  0  0  0  0  0  0  0  0  0
   -1.8020    0.2420    0.0740 C   0  0  1  0  0  0  0  0  0  0  0  0
   -2.5210    1.3230    0.5180 O   0  0  0  0  0  0  0  0  0  0  0  0
   -0.6260    0.6190   -0.7950 C   0  0  1  0  0  0  0  0  0  0  0  0
   -0.1620    1.8890   -0.5700 O   0  0  0  0  0  0  0  0  0  0  0  0
  2  1  1  6
  2  3  1  0
  2  4  1  0
  4  5  1  6
  4  6  1  0
  4 10  1  0
  6  7  1  0
  7  8  1  0
  8  9  1  1
  8 10  1  0
 10 11  1  1
M  END
