
     RDKit          3D

 12 12  0  0  0  0  0  0  0  0999 V2000
    3.0460   -1.2530   -1.1500 O   0  0  0  0  0  0  0  0  0  0  0  0
    2.5830   -0.3750   -0.4090 C   0  0  0  0  0  0  0  0  0  0  0  0
    3.2780    0.8180   -0.2530 O   0  0  0  0  0  0  0  0  0  0  0  0
    1.3110   -0.4870    0.3520 C   0  0  1  0  0  0  0  0  0  0  0  0
    0.3670    0.5490   -0.2350 C   0  0  0  0  0  0  0  0  0  0  0  0
   -0.9540   -0.1870   -0.2480 C   0  0  2  0  0  0  0  0  0  0  0  0
   -1.2640   -0.6870   -1.5180 O   0  0  0  0  0  0  0  0  0  0  0  0
   -2.0470    0.6780    0.2930 C   0  0  0  0  0  0  0  0  0  0  0  0
   -2.1990    1.7450   -0.6220 O   0  0  0  0  0  0  0  0  0  0  0  0
   -0.6280   -1.3760    0.6210 C   0  0  2  0  0  0  0  0  0  0  0  0
   -0.5010   -1.0600    1.9670 O   0  0  0  0  0  0  0  0  0  0  0  0
    0.6680   -1.6820    0.1610 O   0  0  0  0  0  0  0  0  0  0  0  0
  1  2  2  0
  2  3  1  0
  4  2  1  6
  4  5  1  0
  4 12  1  0
  5  6  1  0
  6  7  1  6
  6  8  1  0
  6 10  1  0
  8  9  1  0
 10 11  1  1
 10 12  1  0
M  END
