
     RDKit          3D

 12 12  0  0  0  0  0  0  0  0999 V2000
    2.6700   -0.2110    1.0110 O   0  0  0  0  0  0  0  0  0  0  0  0
    2.1780    0.9030    0.3170 C   0  0  0  0  0  0  0  0  0  0  0  0
    1.3330    0.4370   -0.8690 C   0  0  1  0  0  0  0  0  0  0  0  0
    2.0710   -0.3290   -1.7440 O   0  0  0  0  0  0  0  0  0  0  0  0
    0.1560   -0.3240   -0.2870 C   0  0  1  0  0  0  0  0  0  0  0  0
    0.6460   -1.4290    0.3950 O   0  0  0  0  0  0  0  0  0  0  0  0
   -0.6420    0.6050    0.5760 C   0  0  0  0  0  0  0  0  0  0  0  0
   -2.0700    0.3470    0.0810 C   0  0  2  0  0  0  0  0  0  0  0  0
   -2.9630    0.2870    1.1240 O   0  0  0  0  0  0  0  0  0  0  0  0
   -1.8760   -1.0360   -0.5540 C   0  0  2  0  0  0  0  0  0  0  0  0
   -1.6330   -1.9390    0.4560 O   0  0  0  0  0  0  0  0  0  0  0  0
   -0.6920   -0.7990   -1.2830 O   0  0  0  0  0  0  0  0  0  0  0  0
  1  2  1  0
  2  3  1  0
  3  4  1  6
  3  5  1  0
  5  6  1  1
  5  7  1  0
  5 12  1  0
  7  8  1  0
  8  9  1  1
  8 10  1  0
 10 11  1  1
 10 12  1  0
M  END
