
     RDKit          3D

 11 11  0  0  0  0  0  0  0  0999 V2000
   -2.9070   -0.0070    0.5590 O   0  0  0  0  0  0  0  0  0  0  0  0
   -2.0210   -0.3020   -0.4830 C   0  0  0  0  0  0  0  0  0  0  0  0
   -0.6300   -0.2200    0.0830 C   0  0  1  0  0  0  0  0  0  0  0  0
   -0.5240   -1.1520    1.1160 O   0  0  0  0  0  0  0  0  0  0  0  0
    0.4240   -0.5930   -0.9410 C   0  0  0  0  0  0  0  0  0  0  0  0
    1.7280   -0.5350   -0.1330 C   0  0  1  0  0  0  0  0  0  0  0  0
    2.7830   -1.0820   -0.8000 O   0  0  0  0  0  0  0  0  0  0  0  0
    1.8960    0.9520    0.1530 C   0  0  0  0  0  0  0  0  0  0  0  0
    0.9160    1.4150    0.9710 O   0  0  0  0  0  0  0  0  0  0  0  0
   -0.3700    1.1350    0.6520 C   0  0  1  0  0  0  0  0  0  0  0  0
   -0.9550    2.0740   -0.2140 O   0  0  0  0  0  0  0  0  0  0  0  0
  1  2  1  0
  2  3  1  0
  3  4  1  1
  3  5  1  0
  3 10  1  0
  5  6  1  0
  6  7  1  6
  6  8  1  0
  8  9  1  0
  9 10  1  0
 10 11  1  6
M  END
