
     RDKit          3D

 19 21  0  0  0  0  0  0  0  0999 V2000
   -2.5000    3.4880    0.4050 O   0  0  0  0  0  0  0  0  0  0  0  0
   -2.3070    2.2610    0.3710 C   0  0  0  0  0  0  0  0  0  0  0  0
   -3.2260    1.2940    0.4130 N   0  0  0  0  0  0  0  0  0  0  0  0
   -2.5630    0.1240    0.3480 C   0  0  0  0  0  0  0  0  0  0  0  0
   -3.0070   -1.1830    0.3580 C   0  0  0  0  0  0  0  0  0  0  0  0
   -2.1230   -2.2400    0.2880 C   0  0  0  0  0  0  0  0  0  0  0  0
   -0.7550   -1.9550    0.2050 C   0  0  0  0  0  0  0  0  0  0  0  0
   -0.2990   -0.6610    0.1950 C   0  0  0  0  0  0  0  0  0  0  0  0
    1.1020   -0.3130    0.1050 C   0  0  0  0  0  0  0  0  0  0  0  0
    1.5680    0.5940   -0.8260 C   0  0  0  0  0  0  0  0  0  0  0  0
    2.9320    0.8910   -0.8780 C   0  0  0  0  0  0  0  0  0  0  0  0
    3.5180    2.0460   -2.0620 Cl  0  0  0  0  0  0  0  0  0  0  0  0
    3.8110    0.2710    0.0060 C   0  0  0  0  0  0  0  0  0  0  0  0
    5.5190    0.6750   -0.0760 Cl  0  0  0  0  0  0  0  0  0  0  0  0
    3.3320   -0.6320    0.9280 C   0  0  0  0  0  0  0  0  0  0  0  0
    1.9780   -0.9420    0.9980 C   0  0  0  0  0  0  0  0  0  0  0  0
    1.3350   -2.0730    2.1580 Cl  0  0  0  0  0  0  0  0  0  0  0  0
   -1.2090    0.3910    0.2660 C   0  0  0  0  0  0  0  0  0  0  0  0
   -1.0620    1.7320    0.2810 N   0  0  0  0  0  0  0  0  0  0  0  0
  1  2  2  0
  2  3  1  0
  2 19  1  0
  3  4  1  0
  4  5  2  0
  4 18  1  0
  5  6  1  0
  6  7  2  0
  7  8  1  0
  8  9  1  0
  8 18  2  0
  9 10  2  0
  9 16  1  0
 10 11  1  0
 11 12  1  0
 11 13  2  0
 13 14  1  0
 13 15  1  0
 15 16  2  0
 16 17  1  0
 18 19  1  0
M  END
