
     RDKit          3D

 19 20  0  0  0  0  0  0  0  0999 V2000
    4.6600    0.7730    1.3170 N   0  0  0  0  0  0  0  0  0  0  0  0
    3.6470    0.3630    0.4100 C   0  0  0  0  0  0  0  0  0  0  0  0
    2.3460    0.2790    0.8560 C   0  0  0  0  0  0  0  0  0  0  0  0
    1.3340   -0.1210   -0.0160 C   0  0  0  0  0  0  0  0  0  0  0  0
   -0.0400   -0.2070    0.4360 C   0  0  0  0  0  0  0  0  0  0  0  0
   -0.2800   -0.8740    1.6270 C   0  0  0  0  0  0  0  0  0  0  0  0
   -1.5490   -0.9830    2.1070 C   0  0  0  0  0  0  0  0  0  0  0  0
   -2.5960   -0.4100    1.3730 C   0  0  0  0  0  0  0  0  0  0  0  0
   -3.7420   -0.5520    1.8780 O   0  0  0  0  0  0  0  0  0  0  0  0
   -2.3850    0.2310    0.2310 N   0  0  0  0  0  0  0  0  0  0  0  0
   -3.4630    0.8110   -0.5090 C   0  0  0  0  0  0  0  0  0  0  0  0
   -4.0740   -0.1370   -1.5150 C   0  0  0  0  0  0  0  0  0  0  0  0
   -5.3850    0.7050   -2.3510 Cl  0  0  0  0  0  0  0  0  0  0  0  0
   -1.1230    0.3290   -0.2280 C   0  0  0  0  0  0  0  0  0  0  0  0
    1.6500   -0.4280   -1.3170 C   0  0  0  0  0  0  0  0  0  0  0  0
    0.3610   -0.9360   -2.3850 Cl  0  0  0  0  0  0  0  0  0  0  0  0
    2.9680   -0.3460   -1.7800 C   0  0  0  0  0  0  0  0  0  0  0  0
    3.9490    0.0530   -0.8960 C   0  0  0  0  0  0  0  0  0  0  0  0
    5.6200    0.1630   -1.4620 Cl  0  0  0  0  0  0  0  0  0  0  0  0
  1  2  1  0
  2  3  2  0
  2 18  1  0
  3  4  1  0
  4  5  1  0
  4 15  2  0
  5  6  1  0
  5 14  2  0
  6  7  2  0
  7  8  1  0
  8  9  2  0
  8 10  1  0
 10 11  1  0
 10 14  1  0
 11 12  1  0
 12 13  1  0
 15 16  1  0
 15 17  1  0
 17 18  2  0
 18 19  1  0
M  END
