
     RDKit          3D

 19 19  0  0  0  0  0  0  0  0999 V2000
    3.7290    0.9220   -2.1270 C   0  0  0  0  0  0  0  0  0  0  0  0
    4.2640   -0.1600   -1.2780 C   0  0  0  0  0  0  0  0  0  0  0  0
    3.5500   -0.5640   -0.2140 C   0  0  0  0  0  0  0  0  0  0  0  0
    2.3090    0.0850    0.0270 N   0  0  0  0  0  0  0  0  0  0  0  0
    1.0700   -0.5740   -0.2110 C   0  0  0  0  0  0  0  0  0  0  0  0
    1.0610   -1.7610   -0.6740 O   0  0  0  0  0  0  0  0  0  0  0  0
   -0.1890    0.0160    0.0390 N   0  0  0  0  0  0  0  0  0  0  0  0
   -1.4600   -0.6600   -0.2040 C   0  0  1  0  0  0  0  0  0  0  0  0
   -2.1790   -0.9770    1.0550 C   0  0  0  0  0  0  0  0  0  0  0  0
   -3.2430   -0.0460    1.4930 C   0  0  0  0  0  0  0  0  0  0  0  0
   -2.8530    1.4080    1.4770 C   0  0  0  0  0  0  0  0  0  0  0  0
   -2.8260    1.9870    0.1020 C   0  0  0  0  0  0  0  0  0  0  0  0
   -3.1740    1.0490   -0.9890 C   0  0  0  0  0  0  0  0  0  0  0  0
   -2.2430   -0.0440   -1.2990 C   0  0  0  0  0  0  0  0  0  0  0  0
    4.1200   -1.6320    0.5880 C   0  0  0  0  0  0  0  0  0  0  0  0
    5.6620   -2.3590    0.0930 Cl  0  0  0  0  0  0  0  0  0  0  0  0
    3.5340   -2.0780    1.6690 C   0  0  0  0  0  0  0  0  0  0  0  0
    4.3520   -3.3960    2.5430 Cl  0  0  0  0  0  0  0  0  0  0  0  0
    2.0540   -1.4520    2.3670 Cl  0  0  0  0  0  0  0  0  0  0  0  0
  1  2  1  0
  2  3  2  3
  3  4  1  0
  3 15  1  0
  4  5  1  0
  5  6  2  0
  5  7  1  0
  8  7  1  1
  8  9  1  0
  8 14  1  0
  9 10  1  0
 10 11  1  0
 11 12  1  0
 12 13  1  0
 13 14  1  0
 15 16  1  0
 15 17  2  3
 17 18  1  0
 17 19  1  0
M  END
