
     RDKit          3D

 19 20  0  0  0  0  0  0  0  0999 V2000
   -1.8470    3.1480   -0.3990 C   0  0  0  0  0  0  0  0  0  0  0  0
   -1.5400    1.7180   -0.1540 C   0  0  0  0  0  0  0  0  0  0  0  0
   -0.2690    1.2770    0.1410 C   0  0  0  0  0  0  0  0  0  0  0  0
    0.0560   -0.0680    0.3790 C   0  0  0  0  0  0  0  0  0  0  0  0
    1.3640   -0.3910    0.8220 N   0  0  0  0  0  0  0  0  0  0  0  0
    2.5350    0.3660    0.4850 C   0  0  0  0  0  0  0  0  0  0  0  0
    2.4940    1.3570   -0.2410 O   0  0  0  0  0  0  0  0  0  0  0  0
    3.8140   -0.0310    1.0060 N   0  0  0  0  0  0  0  0  0  0  0  0
    5.0060    0.7430    0.6600 C   0  0  0  0  0  0  0  0  0  0  0  0
    5.2880    0.7730   -1.0850 Cl  0  0  0  0  0  0  0  0  0  0  0  0
   -0.9820   -0.9720    0.3010 C   0  0  0  0  0  0  0  0  0  0  0  0
   -0.7620   -2.3030    0.4820 C   0  0  0  0  0  0  0  0  0  0  0  0
    0.8460   -2.9750    0.7640 Cl  0  0  0  0  0  0  0  0  0  0  0  0
   -1.8320   -3.1900    0.3750 C   0  0  0  0  0  0  0  0  0  0  0  0
   -3.0860   -2.7360    0.0890 C   0  0  0  0  0  0  0  0  0  0  0  0
   -4.4030   -3.9000   -0.0330 Cl  0  0  0  0  0  0  0  0  0  0  0  0
   -3.3520   -1.4010   -0.1060 C   0  0  0  0  0  0  0  0  0  0  0  0
   -2.2870   -0.5390    0.0030 C   0  0  0  0  0  0  0  0  0  0  0  0
   -2.5510    0.7940   -0.2200 C   0  0  0  0  0  0  0  0  0  0  0  0
  1  2  1  0
  2  3  2  0
  2 19  1  0
  3  4  1  0
  4  5  1  0
  4 11  2  0
  5  6  1  0
  6  7  2  0
  6  8  1  0
  8  9  1  0
  9 10  1  0
 11 12  1  0
 11 18  1  0
 12 13  1  0
 12 14  2  0
 14 15  1  0
 15 16  1  0
 15 17  2  0
 17 18  1  0
 18 19  2  0
M  END
