
     RDKit          3D

 19 20  0  0  0  0  0  0  0  0999 V2000
    0.9030   -0.9100   -0.3440 O   0  0  0  0  0  0  0  0  0  0  0  0
    0.9620    0.3270   -0.2200 C   0  0  0  0  0  0  0  0  0  0  0  0
    2.2820    0.8800   -0.1610 N   0  0  0  0  0  0  0  0  0  0  0  0
    3.4320    0.0460   -0.2400 C   0  0  0  0  0  0  0  0  0  0  0  0
    4.3440    0.1680   -1.1940 C   0  0  0  0  0  0  0  0  0  0  0  0
    5.4090   -0.8640   -0.9720 C   0  0  0  0  0  0  0  0  0  0  0  0
    4.9270   -1.5490    0.2370 C   0  0  0  0  0  0  0  0  0  0  0  0
    3.7890   -1.0280    0.6630 C   0  0  0  0  0  0  0  0  0  0  0  0
   -0.1940    1.1450   -0.1420 N   0  0  0  0  0  0  0  0  0  0  0  0
   -1.5190    0.7000   -0.1900 C   0  0  0  0  0  0  0  0  0  0  0  0
   -1.9310   -0.6010   -0.3210 C   0  0  0  0  0  0  0  0  0  0  0  0
   -3.2890   -0.9540   -0.3600 C   0  0  0  0  0  0  0  0  0  0  0  0
   -3.6920   -2.6520   -0.5310 Cl  0  0  0  0  0  0  0  0  0  0  0  0
   -4.2560    0.0220   -0.2660 C   0  0  0  0  0  0  0  0  0  0  0  0
   -5.7030   -0.3480   -0.3070 C   0  0  0  0  0  0  0  0  0  0  0  0
   -6.6680    1.1390   -0.1610 Cl  0  0  0  0  0  0  0  0  0  0  0  0
   -3.8630    1.3270   -0.1350 C   0  0  0  0  0  0  0  0  0  0  0  0
   -2.5350    1.6630   -0.0970 C   0  0  0  0  0  0  0  0  0  0  0  0
   -2.0920    3.3410    0.0710 Cl  0  0  0  0  0  0  0  0  0  0  0  0
  1  2  2  0
  2  3  1  0
  2  9  1  0
  3  4  1  0
  4  5  2  0
  4  8  1  0
  5  6  1  0
  6  7  1  0
  7  8  2  0
  9 10  1  0
 10 11  2  0
 10 18  1  0
 11 12  1  0
 12 13  1  0
 12 14  2  0
 14 15  1  0
 14 17  1  0
 15 16  1  0
 17 18  2  0
 18 19  1  0
M  END
