
     RDKit          3D

 19 20  0  0  0  0  0  0  0  0999 V2000
   -4.3490    0.3750    0.7140 C   0  0  0  0  0  0  0  0  0  0  0  0
   -2.9790    0.6410    0.2990 C   0  0  0  0  0  0  0  0  0  0  0  0
   -2.6160    1.7600   -0.4270 C   0  0  0  0  0  0  0  0  0  0  0  0
   -1.3290    1.9980   -0.8280 C   0  0  0  0  0  0  0  0  0  0  0  0
   -0.4020    1.1050   -0.4960 N   0  0  0  0  0  0  0  0  0  0  0  0
   -0.6900   -0.0190    0.2180 C   0  0  0  0  0  0  0  0  0  0  0  0
    0.4110   -0.8710    0.4600 N   0  0  0  0  0  0  0  0  0  0  0  0
    1.7570   -0.6310    0.0800 C   0  0  0  0  0  0  0  0  0  0  0  0
    2.6340   -1.7290   -0.0090 C   0  0  0  0  0  0  0  0  0  0  0  0
    3.9400   -1.5960   -0.3420 C   0  0  0  0  0  0  0  0  0  0  0  0
    4.4660   -0.3620   -0.6100 C   0  0  0  0  0  0  0  0  0  0  0  0
    6.1570   -0.2160   -1.0390 Cl  0  0  0  0  0  0  0  0  0  0  0  0
    3.6620    0.7540   -0.5400 C   0  0  0  0  0  0  0  0  0  0  0  0
    4.1530    2.0230   -0.8030 O   0  0  0  0  0  0  0  0  0  0  0  0
    2.3140    0.5910   -0.1930 C   0  0  0  0  0  0  0  0  0  0  0  0
   -1.9850   -0.2600    0.6230 C   0  0  0  0  0  0  0  0  0  0  0  0
   -2.3160   -1.4290    1.3980 C   0  0  2  0  0  0  0  0  0  0  0  0
   -3.6640   -2.4010    0.8570 Cl  0  0  0  0  0  0  0  0  0  0  0  0
   -2.7200   -0.8520    3.0690 Cl  0  0  0  0  0  0  0  0  0  0  0  0
  1  2  1  0
  2  3  2  0
  2 16  1  0
  3  4  1  0
  4  5  2  0
  5  6  1  0
  6  7  1  0
  6 16  2  0
  7  8  1  0
  8  9  2  0
  8 15  1  0
  9 10  1  0
 10 11  2  0
 11 12  1  0
 11 13  1  0
 13 14  1  0
 13 15  2  0
 16 17  1  0
 17 18  1  6
 17 19  1  0
M  END
