
     RDKit          3D

 19 20  0  0  0  0  0  0  0  0999 V2000
   -4.9250   -0.0220    0.4890 C   0  0  0  0  0  0  0  0  0  0  0  0
   -3.5390   -0.3330    0.0880 C   0  0  0  0  0  0  0  0  0  0  0  0
   -3.1080   -1.3020   -0.7930 C   0  0  0  0  0  0  0  0  0  0  0  0
   -4.1650   -2.4180   -1.6590 Cl  0  0  0  0  0  0  0  0  0  0  0  0
   -1.7840   -1.2100   -0.8380 N   0  0  0  0  0  0  0  0  0  0  0  0
   -1.3360   -0.2190   -0.0220 C   0  0  0  0  0  0  0  0  0  0  0  0
    0.0790    0.1670    0.1780 C   0  0  0  0  0  0  0  0  0  0  0  0
    0.3050    1.1020    0.9670 O   0  0  0  0  0  0  0  0  0  0  0  0
    1.1350   -0.4670   -0.4710 N   0  0  0  0  0  0  0  0  0  0  0  0
    2.5230   -0.1970   -0.3680 C   0  0  0  0  0  0  0  0  0  0  0  0
    3.0910    0.7760    0.4200 C   0  0  0  0  0  0  0  0  0  0  0  0
    4.4650    0.9900    0.4760 C   0  0  0  0  0  0  0  0  0  0  0  0
    5.1240    2.2530    1.5070 Cl  0  0  0  0  0  0  0  0  0  0  0  0
    5.3130    0.2200   -0.2710 C   0  0  0  0  0  0  0  0  0  0  0  0
    4.7660   -0.7520   -1.0620 C   0  0  0  0  0  0  0  0  0  0  0  0
    3.4170   -0.9630   -1.1170 C   0  0  0  0  0  0  0  0  0  0  0  0
    2.7970   -2.2200   -2.1470 Cl  0  0  0  0  0  0  0  0  0  0  0  0
   -2.4400    0.3480    0.5730 C   0  0  0  0  0  0  0  0  0  0  0  0
   -2.4530    1.4730    1.5490 C   0  0  0  0  0  0  0  0  0  0  0  0
  1  2  1  0
  2  3  2  0
  2 18  1  0
  3  4  1  0
  3  5  1  0
  5  6  1  0
  6  7  1  0
  6 18  2  0
  7  8  2  0
  7  9  1  0
  9 10  1  0
 10 11  2  0
 10 16  1  0
 11 12  1  0
 12 13  1  0
 12 14  2  0
 14 15  1  0
 15 16  2  0
 16 17  1  0
 18 19  1  0
M  END
