
     RDKit          3D

 34 37  0  0  0  0  0  0  0  0999 V2000
   -8.0310    1.7930    1.5260 C   0  0  0  0  0  0  0  0  0  0  0  0
   -6.7030    1.8250    1.4270 C   0  0  0  0  0  0  0  0  0  0  0  0
   -6.0340    0.7400    0.7080 C   0  0  0  0  0  0  0  0  0  0  0  0
   -7.0570   -0.4580    0.0010 Cl  0  0  0  0  0  0  0  0  0  0  0  0
   -4.7280    0.7610    0.5870 C   0  0  0  0  0  0  0  0  0  0  0  0
   -4.0500    1.9470    1.2080 C   0  0  0  0  0  0  0  0  0  0  0  0
   -2.6860    2.1510    0.7080 C   0  0  0  0  0  0  0  0  0  0  0  0
   -2.0250    3.3430    0.9900 C   0  0  0  0  0  0  0  0  0  0  0  0
   -2.9000    4.5810    1.8560 Cl  0  0  0  0  0  0  0  0  0  0  0  0
   -0.7660    3.4520    0.5750 N   0  0  0  0  0  0  0  0  0  0  0  0
   -0.0920    2.4770   -0.1030 C   0  0  0  0  0  0  0  0  0  0  0  0
    1.6210    2.8160   -0.5840 S   0  0  0  0  0  0  0  0  0  0  0  0
    2.7490    2.2820    0.6980 C   0  0  0  0  0  0  0  0  0  0  0  0
    2.7720    0.7930    0.7450 C   0  0  0  0  0  0  0  0  0  0  0  0
    2.1070    0.1100   -0.0000 O   0  0  0  0  0  0  0  0  0  0  0  0
    3.6540    0.1480    1.7500 C   0  0  0  0  0  0  0  0  0  0  0  0
    4.7210   -0.5860    1.0360 C   0  0  0  0  0  0  0  0  0  0  0  0
    6.0070   -0.0590    0.9350 C   0  0  0  0  0  0  0  0  0  0  0  0
    6.9890   -0.7510    0.2610 C   0  0  0  0  0  0  0  0  0  0  0  0
    8.2340   -0.1790    0.1970 O   0  0  0  0  0  0  0  0  0  0  0  0
    9.3610   -0.7270   -0.4420 C   0  0  0  0  0  0  0  0  0  0  0  0
    6.7480   -1.9790   -0.3360 C   0  0  0  0  0  0  0  0  0  0  0  0
    5.4830   -2.4890   -0.2320 C   0  0  0  0  0  0  0  0  0  0  0  0
    4.4840   -1.7870    0.4530 C   0  0  0  0  0  0  0  0  0  0  0  0
    2.9180   -2.5440    0.5240 Cl  0  0  0  0  0  0  0  0  0  0  0  0
   -0.7150    1.3300   -0.3780 N   0  0  0  0  0  0  0  0  0  0  0  0
   -2.0130    1.1610    0.0230 C   0  0  0  0  0  0  0  0  0  0  0  0
   -2.6920   -0.0660   -0.3610 C   0  0  0  0  0  0  0  0  0  0  0  0
   -3.9750   -0.2730   -0.0880 C   0  0  0  0  0  0  0  0  0  0  0  0
   -4.4440   -1.6200   -0.4450 C   0  0  0  0  0  0  0  0  0  0  0  0
   -4.1320   -1.9430   -1.8330 N   0  0  0  0  0  0  0  0  0  0  0  0
   -2.7220   -1.8850   -2.0760 C   0  0  0  0  0  0  0  0  0  0  0  0
   -1.9240   -1.0940   -1.0980 C   0  0  2  0  0  0  0  0  0  0  0  0
   -1.3380   -1.9920   -0.1210 N   0  0  0  0  0  0  0  0  0  0  0  0
  1  2  2  0
  2  3  1  0
  3  4  1  0
  3  5  2  3
  5  6  1  0
  5 29  1  0
  6  7  1  0
  7  8  2  0
  7 27  1  0
  8  9  1  0
  8 10  1  0
 10 11  2  0
 11 12  1  0
 11 26  1  0
 12 13  1  0
 13 14  1  0
 14 15  2  0
 14 16  1  0
 16 17  1  0
 17 18  2  0
 17 24  1  0
 18 19  1  0
 19 20  1  0
 19 22  2  0
 20 21  1  0
 22 23  1  0
 23 24  2  0
 24 25  1  0
 26 27  2  0
 27 28  1  0
 28 29  2  0
 28 33  1  0
 29 30  1  0
 30 31  1  0
 31 32  1  0
 32 33  1  0
 33 34  1  1
M  CHG  2  31   1  34   1
M  END
