
     RDKit          3D

 34 37  0  0  0  0  0  0  0  0999 V2000
   -4.3390    3.4540   -2.1860 C   0  0  0  0  0  0  0  0  0  0  0  0
   -2.9900    3.9810   -1.9190 N   0  0  1  0  0  0  0  0  0  0  0  0
   -2.9750    4.7660   -0.7240 C   0  0  0  0  0  0  0  0  0  0  0  0
   -2.1540    4.0650    0.3040 C   0  0  0  0  0  0  0  0  0  0  0  0
   -1.9610    2.7270   -0.2690 C   0  0  2  0  0  0  0  0  0  0  0  0
   -0.6240    2.1890    0.0960 C   0  0  0  0  0  0  0  0  0  0  0  0
    0.2210    2.8260    0.6680 O   0  0  0  0  0  0  0  0  0  0  0  0
   -0.2360    0.9000   -0.1880 N   0  0  0  0  0  0  0  0  0  0  0  0
    0.9290    0.2070   -0.0360 C   0  0  0  0  0  0  0  0  0  0  0  0
    0.7130   -0.9770    0.2270 N   0  0  0  0  0  0  0  0  0  0  0  0
   -0.4190   -1.7400    0.4160 C   0  0  0  0  0  0  0  0  0  0  0  0
   -0.8910   -2.1700    1.6320 C   0  0  0  0  0  0  0  0  0  0  0  0
   -2.0770   -2.9060    1.7530 C   0  0  0  0  0  0  0  0  0  0  0  0
   -2.7970   -3.2130    0.6240 C   0  0  0  0  0  0  0  0  0  0  0  0
   -2.3230   -2.7830   -0.5880 C   0  0  0  0  0  0  0  0  0  0  0  0
   -1.1640   -2.0620   -0.7140 C   0  0  0  0  0  0  0  0  0  0  0  0
   -3.1050   -3.1250   -1.7890 C   0  0  0  0  0  0  0  0  0  0  0  0
   -3.4460   -4.5990   -1.6760 C   0  0  0  0  0  0  0  0  0  0  0  0
   -3.8840   -5.0310   -0.3230 C   0  0  0  0  0  0  0  0  0  0  0  0
   -4.0290   -3.9660    0.6490 N   0  0  0  0  0  0  0  0  0  0  0  0
    2.5970    0.5940   -0.4620 S   0  0  0  0  0  0  0  0  0  0  0  0
    3.6690   -0.8680   -0.2060 C   0  0  0  0  0  0  0  0  0  0  0  0
    3.7550   -1.0990    1.2640 C   0  0  0  0  0  0  0  0  0  0  0  0
    4.3110   -0.0260    1.9250 O   0  0  0  0  0  0  0  0  0  0  0  0
    5.5960    0.4200    1.8190 C   0  0  0  0  0  0  0  0  0  0  0  0
    6.5410   -0.1840    1.0530 C   0  0  0  0  0  0  0  0  0  0  0  0
    7.8440    0.2820    0.9590 C   0  0  0  0  0  0  0  0  0  0  0  0
    8.2260    1.3840    1.6510 C   0  0  0  0  0  0  0  0  0  0  0  0
    9.8760    2.0170    1.5640 Cl  0  0  0  0  0  0  0  0  0  0  0  0
    7.2990    2.0220    2.4380 C   0  0  0  0  0  0  0  0  0  0  0  0
    7.8040    3.4620    3.3410 Cl  0  0  0  0  0  0  0  0  0  0  0  0
    6.0140    1.5590    2.5260 C   0  0  0  0  0  0  0  0  0  0  0  0
    4.8440    2.3760    3.5270 Cl  0  0  0  0  0  0  0  0  0  0  0  0
   -2.1190    2.8570   -1.7410 C   0  0  0  0  0  0  0  0  0  0  0  0
  2  1  1  1
  2  3  1  0
  2 34  1  0
  3  4  1  0
  4  5  1  0
  5  6  1  6
  5 34  1  0
  6  7  2  0
  6  8  1  0
  8  9  1  0
  9 10  2  3
  9 21  1  0
 10 11  1  0
 11 12  2  0
 11 16  1  0
 12 13  1  0
 13 14  2  0
 14 15  1  0
 14 20  1  0
 15 16  2  0
 15 17  1  0
 17 18  1  0
 18 19  1  0
 19 20  1  0
 21 22  1  0
 22 23  1  0
 23 24  1  0
 24 25  1  0
 25 26  2  0
 25 32  1  0
 26 27  1  0
 27 28  2  0
 28 29  1  0
 28 30  1  0
 30 31  1  0
 30 32  2  0
 32 33  1  0
M  CHG  2   2   1  20   1
M  END
