
     RDKit          3D

 33 36  0  0  0  0  0  0  0  0999 V2000
   -2.4730    1.9980   -1.8490 C   0  0  0  0  0  0  0  0  0  0  0  0
   -2.8170    2.8520   -0.6530 C   0  0  0  0  0  0  0  0  0  0  0  0
   -2.8320    1.8420    0.8510 S   0  0  0  0  0  0  0  0  0  0  0  0
   -4.1820    0.6840    0.7330 C   0  0  0  0  0  0  0  0  0  0  0  0
   -5.4430    1.0030    1.1900 C   0  0  0  0  0  0  0  0  0  0  0  0
   -6.4750    0.0710    1.0850 C   0  0  0  0  0  0  0  0  0  0  0  0
   -7.8330    0.4020    1.5720 C   0  0  0  0  0  0  0  0  0  0  0  0
   -6.2730   -1.1750    0.5320 C   0  0  0  0  0  0  0  0  0  0  0  0
   -7.3670   -2.1820    0.4130 C   0  0  0  0  0  0  0  0  0  0  0  0
   -5.0070   -1.4830    0.0790 C   0  0  0  0  0  0  0  0  0  0  0  0
   -3.9650   -0.5530    0.1800 C   0  0  0  0  0  0  0  0  0  0  0  0
   -2.6620   -0.8650   -0.2860 N   0  0  0  0  0  0  0  0  0  0  0  0
   -2.3770   -1.2950   -1.5190 N   0  0  0  0  0  0  0  0  0  0  0  0
   -1.0650   -1.5070   -1.6580 C   0  0  0  0  0  0  0  0  0  0  0  0
   -0.4900   -1.1990   -0.4630 N   0  0  0  0  0  0  0  0  0  0  0  0
    0.9320   -1.2990   -0.2090 C   0  0  0  0  0  0  0  0  0  0  0  0
    1.5400    0.0410   -0.5730 C   0  0  0  0  0  0  0  0  0  0  0  0
    2.9950    0.0280   -0.3520 N   0  0  0  0  0  0  0  0  0  0  0  0
    3.9540   -0.7280   -1.0940 C   0  0  0  0  0  0  0  0  0  0  0  0
    5.2550   -0.3850   -0.4830 C   0  0  0  0  0  0  0  0  0  0  0  0
    6.5010   -0.7430   -0.7090 C   0  0  0  0  0  0  0  0  0  0  0  0
    6.8080   -1.7200   -1.8170 C   0  0  0  0  0  0  0  0  0  0  0  0
    7.6440   -0.2550    0.0500 C   0  0  0  0  0  0  0  0  0  0  0  0
    9.2820   -0.8060   -0.3430 Cl  0  0  0  0  0  0  0  0  0  0  0  0
    7.4740    0.6030    1.0410 C   0  0  0  0  0  0  0  0  0  0  0  0
    8.6020    1.0330    1.7280 O   0  0  0  0  0  0  0  0  0  0  0  0
    6.1290    1.0540    1.3620 C   0  0  0  0  0  0  0  0  0  0  0  0
    5.9500    1.8630    2.2920 O   0  0  0  0  0  0  0  0  0  0  0  0
    4.9920    0.5580    0.5940 C   0  0  0  0  0  0  0  0  0  0  0  0
    3.6900    0.7640    0.6320 C   0  0  0  0  0  0  0  0  0  0  0  0
    3.0350    1.6850    1.6230 C   0  0  0  0  0  0  0  0  0  0  0  0
   -1.4680   -0.8170    0.3440 C   0  0  0  0  0  0  0  0  0  0  0  0
   -1.3080   -0.4560    1.5390 O   0  0  0  0  0  0  0  0  0  0  0  0
  1  2  1  0
  2  3  1  0
  3  4  1  0
  4  5  2  0
  4 11  1  0
  5  6  1  0
  6  7  1  0
  6  8  2  0
  8  9  1  0
  8 10  1  0
 10 11  2  0
 11 12  1  0
 12 13  1  0
 12 32  1  0
 13 14  2  0
 14 15  1  0
 15 16  1  0
 15 32  1  0
 16 17  1  0
 17 18  1  0
 18 19  1  0
 18 30  1  0
 19 20  1  0
 20 21  2  0
 20 29  1  0
 21 22  1  0
 21 23  1  0
 23 24  1  0
 23 25  2  0
 25 26  1  0
 25 27  1  0
 27 28  2  0
 27 29  1  0
 29 30  2  0
 30 31  1  0
 32 33  2  0
M  END
