
     RDKit          3D

 35 39  0  0  0  0  0  0  0  0999 V2000
    5.7660   -3.4380    2.5440 C   0  0  0  0  0  0  0  0  0  0  0  0
    6.4400   -2.3810    1.9870 O   0  0  0  0  0  0  0  0  0  0  0  0
    5.6580   -1.4190    1.3940 C   0  0  1  0  0  0  0  0  0  0  0  0
    5.7750   -0.0700    1.9850 C   0  0  0  0  0  0  0  0  0  0  0  0
    6.6940    0.1010    2.8490 O   0  0  0  0  0  0  0  0  0  0  0  0
    4.9500    1.0140    1.6600 N   0  0  0  0  0  0  0  0  0  0  0  0
    5.0370    2.3450    2.1830 C   0  0  0  0  0  0  0  0  0  0  0  0
    3.6060    2.7230    2.3440 C   0  0  0  0  0  0  0  0  0  0  0  0
    2.6890    3.5000    2.9470 N   0  0  0  0  0  0  0  0  0  0  0  0
    1.4660    3.2210    2.5270 N   0  0  0  0  0  0  0  0  0  0  0  0
    1.5650    2.2360    1.6210 C   0  0  0  0  0  0  0  0  0  0  0  0
    0.4540    1.6570    0.9510 N   0  0  0  0  0  0  0  0  0  0  0  0
   -0.8780    2.0960    1.1710 C   0  0  0  0  0  0  0  0  0  0  0  0
   -1.0300    3.0380    1.9840 O   0  0  0  0  0  0  0  0  0  0  0  0
   -2.0350    1.5240    0.5220 C   0  0  0  0  0  0  0  0  0  0  0  0
   -1.9670    0.3440   -0.2020 C   0  0  0  0  0  0  0  0  0  0  0  0
   -3.1290   -0.1150   -0.7800 C   0  0  0  0  0  0  0  0  0  0  0  0
   -4.3380    0.5540   -0.6620 C   0  0  0  0  0  0  0  0  0  0  0  0
   -5.4970    0.0080   -1.2610 N   0  0  0  0  0  0  0  0  0  0  0  0
   -6.5720    0.8750   -1.6680 C   0  0  0  0  0  0  0  0  0  0  0  0
   -7.8280    0.3720   -1.0200 C   0  0  0  0  0  0  0  0  0  0  0  0
   -8.0010   -1.0300   -1.2600 N   0  0  1  0  0  0  0  0  0  0  0  0
   -8.2690   -1.3190   -2.6560 C   0  0  0  0  0  0  0  0  0  0  0  0
   -6.9090   -1.8530   -0.8350 C   0  0  0  0  0  0  0  0  0  0  0  0
   -5.5810   -1.4340   -1.4340 C   0  0  0  0  0  0  0  0  0  0  0  0
   -4.4020    1.7250    0.0570 C   0  0  0  0  0  0  0  0  0  0  0  0
   -3.2460    2.1990    0.6420 C   0  0  0  0  0  0  0  0  0  0  0  0
    2.8830    1.8950    1.4750 C   0  0  0  0  0  0  0  0  0  0  0  0
    3.8370    0.9980    0.7550 C   0  0  0  0  0  0  0  0  0  0  0  0
    5.9700   -1.3190   -0.0690 C   0  0  0  0  0  0  0  0  0  0  0  0
    5.8320   -2.3950   -0.9160 C   0  0  0  0  0  0  0  0  0  0  0  0
    6.1510   -2.2870   -2.2530 C   0  0  0  0  0  0  0  0  0  0  0  0
    6.6120   -1.0900   -2.7380 C   0  0  0  0  0  0  0  0  0  0  0  0
    6.7660    0.0080   -1.9320 C   0  0  0  0  0  0  0  0  0  0  0  0
    6.4330   -0.1370   -0.5830 C   0  0  0  0  0  0  0  0  0  0  0  0
  1  2  1  0
  3  2  1  1
  3  4  1  0
  3 30  1  0
  4  5  2  0
  4  6  1  0
  6  7  1  0
  6 29  1  0
  7  8  1  0
  8  9  1  0
  8 28  2  0
  9 10  1  0
 10 11  2  0
 11 12  1  0
 11 28  1  0
 12 13  1  0
 13 14  2  0
 13 15  1  0
 15 16  2  0
 15 27  1  0
 16 17  1  0
 17 18  2  0
 18 19  1  0
 18 26  1  0
 19 20  1  0
 19 25  1  0
 20 21  1  0
 21 22  1  0
 22 23  1  6
 22 24  1  0
 24 25  1  0
 26 27  2  0
 28 29  1  0
 30 31  2  0
 30 35  1  0
 31 32  1  0
 32 33  2  0
 33 34  1  0
 34 35  2  0
M  CHG  1  22   1
M  END
