
     RDKit          3D

 34 37  0  0  0  0  0  0  0  0999 V2000
    0.6470    1.1460   -4.3600 C   0  0  0  0  0  0  0  0  0  0  0  0
   -0.0720    1.1680   -3.0870 C   0  0  0  0  0  0  0  0  0  0  0  0
   -0.2900    2.6760   -2.2550 Cl  0  0  0  0  0  0  0  0  0  0  0  0
   -0.5560    0.0740   -2.5620 C   0  0  0  0  0  0  0  0  0  0  0  0
   -0.2990   -1.4200   -3.4570 Cl  0  0  0  0  0  0  0  0  0  0  0  0
   -1.3300    0.0480   -1.3310 C   0  0  0  0  0  0  0  0  0  0  0  0
   -2.3670    0.9280   -1.1650 N   0  0  0  0  0  0  0  0  0  0  0  0
   -3.0890    0.9440   -0.0340 C   0  0  0  0  0  0  0  0  0  0  0  0
   -4.2030    1.8960    0.1440 C   0  0  0  0  0  0  0  0  0  0  0  0
   -4.5430    2.7690   -0.7840 C   0  0  0  0  0  0  0  0  0  0  0  0
   -5.6870    3.5590   -0.2870 C   0  0  0  0  0  0  0  0  0  0  0  0
   -5.9490    3.0090    1.0590 C   0  0  0  0  0  0  0  0  0  0  0  0
   -5.0770    2.0430    1.2910 C   0  0  0  0  0  0  0  0  0  0  0  0
   -2.8480    0.1160    0.9840 N   0  0  0  0  0  0  0  0  0  0  0  0
   -1.8180   -0.7690    0.8340 C   0  0  0  0  0  0  0  0  0  0  0  0
   -1.5320   -1.6560    1.9270 C   0  0  0  0  0  0  0  0  0  0  0  0
   -1.3990   -3.0100    1.7340 C   0  0  0  0  0  0  0  0  0  0  0  0
   -1.6340   -3.6350    0.4830 O   0  0  0  0  0  0  0  0  0  0  0  0
   -1.0300   -3.8420    2.7820 C   0  0  0  0  0  0  0  0  0  0  0  0
   -0.7980   -3.2930    4.0390 C   0  0  0  0  0  0  0  0  0  0  0  0
   -0.9430   -1.9310    4.1980 C   0  0  0  0  0  0  0  0  0  0  0  0
   -1.3060   -1.0930    3.1700 C   0  0  0  0  0  0  0  0  0  0  0  0
   -1.4680    0.6460    3.4320 Cl  0  0  0  0  0  0  0  0  0  0  0  0
   -1.0340   -0.8260   -0.3110 C   0  0  0  0  0  0  0  0  0  0  0  0
    0.1610   -1.6620   -0.4730 C   0  0  0  0  0  0  0  0  0  0  0  0
    1.4200   -0.7700   -0.4390 C   0  0  0  0  0  0  0  0  0  0  0  0
    1.2310    0.3910   -0.2550 O   0  0  0  0  0  0  0  0  0  0  0  0
    2.6790   -1.3490   -0.6210 N   0  0  0  0  0  0  0  0  0  0  0  0
    3.8820   -0.6280   -0.6050 C   0  0  0  0  0  0  0  0  0  0  0  0
    3.8600    0.6260   -0.3980 N   0  0  0  0  0  0  0  0  0  0  0  0
    5.0970    1.4340   -0.3700 C   0  0  0  0  0  0  0  0  0  0  0  0
    6.2250    0.7020    0.3130 C   0  0  0  0  0  0  0  0  0  0  0  0
    6.7570   -0.2670   -0.7610 C   0  0  0  0  0  0  0  0  0  0  0  0
    5.4450   -1.5230   -0.8880 S   0  0  0  0  0  0  0  0  0  0  0  0
  1  2  1  0
  2  3  1  0
  2  4  2  3
  4  5  1  0
  4  6  1  0
  6  7  2  0
  6 24  1  0
  7  8  1  0
  8  9  1  0
  8 14  2  0
  9 10  2  0
  9 13  1  0
 10 11  1  0
 11 12  1  0
 12 13  2  0
 14 15  1  0
 15 16  1  0
 15 24  2  0
 16 17  2  0
 16 22  1  0
 17 18  1  0
 17 19  1  0
 19 20  2  0
 20 21  1  0
 21 22  2  0
 22 23  1  0
 24 25  1  0
 25 26  1  0
 26 27  2  0
 26 28  1  0
 28 29  1  0
 29 30  2  0
 29 34  1  0
 30 31  1  0
 31 32  1  0
 32 33  1  0
 33 34  1  0
M  CHG  2  14   1  30   1
M  END
