
     RDKit          3D

 34 37  0  0  0  0  0  0  0  0999 V2000
   -7.3680   -0.6880    1.2490 C   0  0  0  0  0  0  0  0  0  0  0  0
   -6.7470   -0.0150    0.0730 C   0  0  0  0  0  0  0  0  0  0  0  0
   -5.3550    0.1710    0.0210 C   0  0  0  0  0  0  0  0  0  0  0  0
   -4.7430    0.7820   -1.0370 C   0  0  0  0  0  0  0  0  0  0  0  0
   -3.3020    0.9650   -1.0830 C   0  0  0  0  0  0  0  0  0  0  0  0
   -2.8340    1.7290   -2.0150 O   0  0  0  0  0  0  0  0  0  0  0  0
   -2.4180    0.3500   -0.1650 N   0  0  0  0  0  0  0  0  0  0  0  0
   -1.0180    0.6010   -0.3020 C   0  0  0  0  0  0  0  0  0  0  0  0
   -0.1760   -0.0940    0.7110 C   0  0  2  0  0  0  0  0  0  0  0  0
    1.2810    0.2700    0.4060 C   0  0  0  0  0  0  0  0  0  0  0  0
    1.5230    1.3680   -0.3820 C   0  0  0  0  0  0  0  0  0  0  0  0
    3.3760    1.3970   -0.4850 S   0  0  0  0  0  0  0  0  0  0  0  0
    3.5400   -0.1010    0.5680 C   0  0  0  0  0  0  0  0  0  0  0  0
    4.7690   -0.6830    0.9180 N   0  0  0  0  0  0  0  0  0  0  0  0
    6.0400   -0.2500    0.5840 C   0  0  0  0  0  0  0  0  0  0  0  0
    7.0830   -1.1840    0.6630 C   0  0  0  0  0  0  0  0  0  0  0  0
    8.3650   -0.8410    0.3720 C   0  0  0  0  0  0  0  0  0  0  0  0
    8.6850    0.4500   -0.0150 C   0  0  0  0  0  0  0  0  0  0  0  0
    9.8330    1.0010   -0.3400 O   0  0  0  0  0  0  0  0  0  0  0  0
    9.6210    2.2700   -0.6370 C   0  0  0  0  0  0  0  0  0  0  0  0
    8.2930    2.5670   -0.5050 C   0  0  0  0  0  0  0  0  0  0  0  0
    7.6900    1.3950   -0.1040 C   0  0  0  0  0  0  0  0  0  0  0  0
    6.3720    1.0160    0.2020 C   0  0  0  0  0  0  0  0  0  0  0  0
    2.3040   -0.4160    0.8470 N   0  0  0  0  0  0  0  0  0  0  0  0
   -0.3440   -1.5270    0.6070 N   0  0  2  0  0  0  0  0  0  0  0  0
   -0.2020   -2.2230    1.8510 C   0  0  0  0  0  0  0  0  0  0  0  0
    0.4410   -2.1010   -0.4700 C   0  0  0  0  0  0  0  0  0  0  0  0
   -5.5580    1.2200   -2.0770 C   0  0  0  0  0  0  0  0  0  0  0  0
   -6.9210    1.0380   -2.0260 C   0  0  0  0  0  0  0  0  0  0  0  0
   -7.5550    0.4180   -0.9550 C   0  0  0  0  0  0  0  0  0  0  0  0
   -9.0270    0.2470   -0.9480 C   0  0  1  0  0  0  0  0  0  0  0  0
   -9.6720    0.9430   -2.4690 Cl  0  0  0  0  0  0  0  0  0  0  0  0
   -9.5450   -1.4330   -0.8520 Cl  0  0  0  0  0  0  0  0  0  0  0  0
   -9.7600    1.2290    0.3690 Cl  0  0  0  0  0  0  0  0  0  0  0  0
  1  2  1  0
  2  3  2  0
  2 30  1  0
  3  4  1  0
  4  5  1  0
  4 28  2  0
  5  6  2  0
  5  7  1  0
  7  8  1  0
  9  8  1  6
  9 10  1  0
  9 25  1  0
 10 11  2  0
 10 24  1  0
 11 12  1  0
 12 13  1  0
 13 14  1  0
 13 24  2  0
 14 15  1  0
 15 16  2  0
 15 23  1  0
 16 17  1  0
 17 18  2  0
 18 19  1  0
 18 22  1  0
 19 20  1  0
 20 21  2  0
 21 22  1  0
 22 23  2  0
 25 26  1  1
 25 27  1  0
 28 29  1  0
 29 30  2  0
 30 31  1  0
 31 32  1  6
 31 33  1  0
 31 34  1  0
M  CHG  2  24   1  25   1
M  END
