
     RDKit          3D

 11 12  0  0  0  0  0  0  0  0999 V2000
   -2.0190   -2.2560   -0.1790 O   0  0  0  0  0  0  0  0  0  0  0  0
   -1.6660   -1.0520   -0.0930 C   0  0  0  0  0  0  0  0  0  0  0  0
   -2.4610    0.0320   -0.0300 N   0  0  0  0  0  0  0  0  0  0  0  0
   -1.6650    1.0850    0.0520 N   0  0  0  0  0  0  0  0  0  0  0  0
   -0.3720    0.7110    0.0430 C   0  0  0  0  0  0  0  0  0  0  0  0
    0.8340    1.4020    0.1060 C   0  0  0  0  0  0  0  0  0  0  0  0
    2.0400    0.7390    0.0770 C   0  0  0  0  0  0  0  0  0  0  0  0
    2.0620   -0.6350   -0.0160 C   0  0  0  0  0  0  0  0  0  0  0  0
    3.6120   -1.4880   -0.0540 Cl  0  0  0  0  0  0  0  0  0  0  0  0
    0.8700   -1.3390   -0.0790 C   0  0  0  0  0  0  0  0  0  0  0  0
   -0.3300   -0.6580   -0.0490 C   0  0  0  0  0  0  0  0  0  0  0  0
  1  2  2  0
  2  3  1  0
  2 11  1  0
  3  4  1  0
  4  5  1  0
  5  6  2  0
  5 11  1  0
  6  7  1  0
  7  8  2  0
  8  9  1  0
  8 10  1  0
 10 11  2  0
M  END
