
     RDKit          3D

 11 12  0  0  0  0  0  0  0  0999 V2000
   -1.1630    2.2050   -0.1980 O   0  0  0  0  0  0  0  0  0  0  0  0
   -0.9610    0.8490   -0.0710 C   0  0  0  0  0  0  0  0  0  0  0  0
   -2.0440    0.0110    0.0190 C   0  0  0  0  0  0  0  0  0  0  0  0
   -1.8580   -1.3580    0.1470 C   0  0  0  0  0  0  0  0  0  0  0  0
   -0.6010   -1.8200    0.1790 N   0  0  0  0  0  0  0  0  0  0  0  0
    0.4750   -1.0220    0.0930 C   0  0  0  0  0  0  0  0  0  0  0  0
    1.8550   -1.2580    0.1020 C   0  0  0  0  0  0  0  0  0  0  0  0
    2.5180   -0.0960   -0.0150 N   0  0  0  0  0  0  0  0  0  0  0  0
    1.5900    0.8670   -0.0980 C   0  0  0  0  0  0  0  0  0  0  0  0
    1.9080    2.5780   -0.2630 Cl  0  0  0  0  0  0  0  0  0  0  0  0
    0.3170    0.3420   -0.0360 C   0  0  0  0  0  0  0  0  0  0  0  0
  1  2  1  0
  2  3  2  0
  2 11  1  0
  3  4  1  0
  4  5  2  0
  5  6  1  0
  6  7  2  0
  6 11  1  0
  7  8  1  0
  8  9  1  0
  9 10  1  0
  9 11  2  0
M  END
