
     RDKit          3D

 11 12  0  0  0  0  0  0  0  0999 V2000
    2.4260    0.2500   -0.0760 N   0  0  0  0  0  0  0  0  0  0  0  0
    1.0540    0.6120   -0.0350 C   0  0  0  0  0  0  0  0  0  0  0  0
    0.6300    1.8790   -0.0280 N   0  0  0  0  0  0  0  0  0  0  0  0
   -0.6560    2.2700    0.0100 C   0  0  0  0  0  0  0  0  0  0  0  0
   -1.6160    1.2920    0.0450 C   0  0  0  0  0  0  0  0  0  0  0  0
   -1.2740   -0.0340    0.0410 C   0  0  0  0  0  0  0  0  0  0  0  0
   -1.9730   -1.1680    0.0680 O   0  0  0  0  0  0  0  0  0  0  0  0
   -1.2020   -2.2010    0.0490 C   0  0  0  0  0  0  0  0  0  0  0  0
    0.0990   -1.7460    0.0060 C   0  0  0  0  0  0  0  0  0  0  0  0
    1.5800   -2.6860   -0.0360 Cl  0  0  0  0  0  0  0  0  0  0  0  0
    0.0710   -0.3670    0.0000 C   0  0  0  0  0  0  0  0  0  0  0  0
  1  2  1  0
  2  3  2  0
  2 11  1  0
  3  4  1  0
  4  5  2  0
  5  6  1  0
  6  7  1  0
  6 11  2  0
  7  8  1  0
  8  9  2  0
  9 10  1  0
  9 11  1  0
M  END
