
     RDKit          3D

 26 28  0  0  0  0  0  0  0  0999 V2000
   -6.7360   -1.3950   -0.1790 N   0  0  0  0  0  0  0  0  0  0  0  0
   -5.3290   -1.4380   -0.0410 C   0  0  0  0  0  0  0  0  0  0  0  0
   -4.6730   -2.5240    0.4250 N   0  0  0  0  0  0  0  0  0  0  0  0
   -3.3300   -2.5540    0.5520 C   0  0  0  0  0  0  0  0  0  0  0  0
   -2.5430   -1.5100    0.2250 N   0  0  0  0  0  0  0  0  0  0  0  0
   -3.1570   -0.4030   -0.2450 C   0  0  0  0  0  0  0  0  0  0  0  0
   -4.5380   -0.3510   -0.3830 C   0  0  0  0  0  0  0  0  0  0  0  0
   -4.8330    0.8640   -0.8660 N   0  0  0  0  0  0  0  0  0  0  0  0
   -3.7060    1.5830   -1.0400 C   0  0  0  0  0  0  0  0  0  0  0  0
   -2.6800    0.8030   -0.6580 N   0  0  0  0  0  0  0  0  0  0  0  0
   -1.2630    1.1640   -0.6720 C   0  0  2  0  0  0  0  0  0  0  0  0
   -0.5470    0.2690    0.0720 O   0  0  0  0  0  0  0  0  0  0  0  0
    0.2070    0.9320    1.0180 C   0  0  2  0  0  0  0  0  0  0  0  0
    0.4860    0.1300    2.2390 C   0  0  0  0  0  0  0  0  0  0  0  0
    1.3600   -1.3730    1.8650 S   0  0  0  0  0  0  0  0  0  0  0  0
    3.0410   -1.2420    1.3220 C   0  0  0  0  0  0  0  0  0  0  0  0
    3.2770   -0.6430   -0.0250 C   0  0  0  0  0  0  0  0  0  0  0  0
    4.7920   -0.6170   -0.2850 C   0  0  2  0  0  0  0  0  0  0  0  0
    4.9990   -0.0140   -1.6150 N   0  0  0  0  0  0  0  0  0  0  0  0
    5.3880   -1.9530   -0.2310 C   0  0  0  0  0  0  0  0  0  0  0  0
    5.5610   -2.6250    0.8000 O   0  0  0  0  0  0  0  0  0  0  0  0
    5.8080   -2.5480   -1.4340 O   0  0  0  0  0  0  0  0  0  0  0  0
   -0.7060    2.1430    1.3780 C   0  0  1  0  0  0  0  0  0  0  0  0
    0.0050    3.1210    2.0260 O   0  0  0  0  0  0  0  0  0  0  0  0
   -1.0870    2.5350   -0.0510 C   0  0  1  0  0  0  0  0  0  0  0  0
    0.0160    3.2110   -0.5700 O   0  0  0  0  0  0  0  0  0  0  0  0
  1  2  1  0
  2  3  2  0
  2  7  1  0
  3  4  1  0
  4  5  2  0
  5  6  1  0
  6  7  2  0
  6 10  1  0
  7  8  1  0
  8  9  2  0
  9 10  1  0
 11 10  1  1
 11 12  1  0
 11 25  1  0
 12 13  1  0
 13 14  1  1
 13 23  1  0
 14 15  1  0
 15 16  1  0
 16 17  1  0
 17 18  1  0
 18 19  1  6
 18 20  1  0
 20 21  2  0
 20 22  1  0
 23 24  1  6
 23 25  1  0
 25 26  1  6
M  END
