
     RDKit          3D

 11 12  0  0  0  0  0  0  0  0999 V2000
   -1.2200    2.5060    0.0110 O   0  0  0  0  0  0  0  0  0  0  0  0
   -0.9560    1.1430    0.0010 C   0  0  0  0  0  0  0  0  0  0  0  0
   -1.9690    0.2000   -0.0180 C   0  0  0  0  0  0  0  0  0  0  0  0
   -1.7190   -1.1600   -0.0280 C   0  0  0  0  0  0  0  0  0  0  0  0
   -3.0580   -2.3190   -0.0530 Cl  0  0  0  0  0  0  0  0  0  0  0  0
   -0.4170   -1.5940   -0.0190 C   0  0  0  0  0  0  0  0  0  0  0  0
    0.6080   -0.6780   -0.0000 C   0  0  0  0  0  0  0  0  0  0  0  0
    1.9550   -0.7530    0.0130 N   0  0  0  0  0  0  0  0  0  0  0  0
    2.5050    0.4740    0.0300 C   0  0  0  0  0  0  0  0  0  0  0  0
    1.4990    1.3670    0.0280 N   0  0  0  0  0  0  0  0  0  0  0  0
    0.3340    0.6970    0.0100 C   0  0  0  0  0  0  0  0  0  0  0  0
  1  2  1  0
  2  3  2  0
  2 11  1  0
  3  4  1  0
  4  5  1  0
  4  6  2  0
  6  7  1  0
  7  8  1  0
  7 11  2  0
  8  9  1  0
  9 10  2  0
 10 11  1  0
M  END
