
     RDKit          3D

 11 12  0  0  0  0  0  0  0  0999 V2000
   -2.0790   -1.1320   -0.0390 N   0  0  0  0  0  0  0  0  0  0  0  0
   -1.0550   -0.1460   -0.0190 C   0  0  0  0  0  0  0  0  0  0  0  0
   -1.3650    1.2180   -0.0190 C   0  0  0  0  0  0  0  0  0  0  0  0
   -0.3350    2.1250    0.0010 C   0  0  0  0  0  0  0  0  0  0  0  0
    0.9620    1.7650    0.0220 N   0  0  0  0  0  0  0  0  0  0  0  0
    1.3060    0.4640    0.0230 C   0  0  0  0  0  0  0  0  0  0  0  0
    2.5250   -0.2170    0.0410 C   0  0  0  0  0  0  0  0  0  0  0  0
    4.1210    0.5270    0.0700 Cl  0  0  0  0  0  0  0  0  0  0  0  0
    2.2120   -1.4840    0.0320 O   0  0  0  0  0  0  0  0  0  0  0  0
    0.9270   -1.6860    0.0100 C   0  0  0  0  0  0  0  0  0  0  0  0
    0.2850   -0.4650    0.0030 C   0  0  0  0  0  0  0  0  0  0  0  0
  1  2  1  0
  2  3  2  0
  2 11  1  0
  3  4  1  0
  4  5  2  0
  5  6  1  0
  6  7  2  0
  6 11  1  0
  7  8  1  0
  7  9  1  0
  9 10  1  0
 10 11  2  0
M  END
