
     RDKit          3D

 11 12  0  0  0  0  0  0  0  0999 V2000
    2.0480   -1.4780   -0.1640 N   0  0  0  0  0  0  0  0  0  0  0  0
    1.0440   -0.4660   -0.0690 C   0  0  0  0  0  0  0  0  0  0  0  0
    1.3750    0.8750   -0.0120 C   0  0  0  0  0  0  0  0  0  0  0  0
    0.4100    1.8580    0.0800 C   0  0  0  0  0  0  0  0  0  0  0  0
    0.8590    3.5540    0.1510 Cl  0  0  0  0  0  0  0  0  0  0  0  0
   -0.9040    1.4390    0.1110 C   0  0  0  0  0  0  0  0  0  0  0  0
   -1.2720    0.1060    0.0550 C   0  0  0  0  0  0  0  0  0  0  0  0
   -2.4560   -0.5960    0.0660 C   0  0  0  0  0  0  0  0  0  0  0  0
   -2.1570   -1.9020   -0.0150 N   0  0  0  0  0  0  0  0  0  0  0  0
   -0.8600   -2.0480   -0.0760 O   0  0  0  0  0  0  0  0  0  0  0  0
   -0.2780   -0.8540   -0.0360 C   0  0  0  0  0  0  0  0  0  0  0  0
  1  2  1  0
  2  3  2  0
  2 11  1  0
  3  4  1  0
  4  5  1  0
  4  6  2  0
  6  7  1  0
  7  8  1  0
  7 11  2  0
  8  9  2  0
  9 10  1  0
 10 11  1  0
M  END
