
     RDKit          3D

 11 12  0  0  0  0  0  0  0  0999 V2000
   -1.6790   -1.7890   -0.1140 N   0  0  0  0  0  0  0  0  0  0  0  0
   -0.4140   -1.1500   -0.0740 C   0  0  0  0  0  0  0  0  0  0  0  0
    0.7480   -1.8230   -0.1190 N   0  0  0  0  0  0  0  0  0  0  0  0
    1.9490   -1.2190   -0.0810 C   0  0  0  0  0  0  0  0  0  0  0  0
    3.4590   -2.1380   -0.1430 Cl  0  0  0  0  0  0  0  0  0  0  0  0
    1.9840    0.1540    0.0070 C   0  0  0  0  0  0  0  0  0  0  0  0
    0.8360    0.9230    0.0580 C   0  0  0  0  0  0  0  0  0  0  0  0
    0.5730    2.2120    0.1420 O   0  0  0  0  0  0  0  0  0  0  0  0
   -0.7130    2.4250    0.1570 C   0  0  0  0  0  0  0  0  0  0  0  0
   -1.3490    1.1960    0.0790 C   0  0  0  0  0  0  0  0  0  0  0  0
   -0.3630    0.2410    0.0160 C   0  0  0  0  0  0  0  0  0  0  0  0
  1  2  1  0
  2  3  2  0
  2 11  1  0
  3  4  1  0
  4  5  1  0
  4  6  2  0
  6  7  1  0
  7  8  1  0
  7 11  2  0
  8  9  1  0
  9 10  2  0
 10 11  1  0
M  END
