
     RDKit          3D

 11 12  0  0  0  0  0  0  0  0999 V2000
    2.7720   -0.5600    0.3650 N   0  0  0  0  0  0  0  0  0  0  0  0
    1.4160   -0.1630    0.1870 C   0  0  0  0  0  0  0  0  0  0  0  0
    1.0910    1.1930    0.1610 C   0  0  0  0  0  0  0  0  0  0  0  0
   -0.2330    1.5430   -0.0130 C   0  0  0  0  0  0  0  0  0  0  0  0
   -0.6600    3.2300   -0.0480 Cl  0  0  0  0  0  0  0  0  0  0  0  0
   -1.2290    0.6000   -0.1610 C   0  0  0  0  0  0  0  0  0  0  0  0
   -2.5680    0.6330   -0.3420 N   0  0  0  0  0  0  0  0  0  0  0  0
   -3.0500   -0.6270   -0.4240 C   0  0  0  0  0  0  0  0  0  0  0  0
   -2.0290   -1.4450   -0.2970 O   0  0  0  0  0  0  0  0  0  0  0  0
   -0.9180   -0.7530   -0.1370 C   0  0  0  0  0  0  0  0  0  0  0  0
    0.4050   -1.0940    0.0370 C   0  0  0  0  0  0  0  0  0  0  0  0
  1  2  1  0
  2  3  2  0
  2 11  1  0
  3  4  1  0
  4  5  1  0
  4  6  2  0
  6  7  1  0
  6 10  1  0
  7  8  2  0
  8  9  1  0
  9 10  1  0
 10 11  2  0
M  END
