
     RDKit          3D

 11 12  0  0  0  0  0  0  0  0999 V2000
   -2.4090    1.8840   -0.1200 O   0  0  0  0  0  0  0  0  0  0  0  0
   -1.8450    0.7590   -0.1020 C   0  0  0  0  0  0  0  0  0  0  0  0
   -2.4090   -0.4560   -0.1540 N   0  0  0  0  0  0  0  0  0  0  0  0
   -1.4550   -1.3660   -0.1080 N   0  0  0  0  0  0  0  0  0  0  0  0
   -0.2440   -0.7400   -0.0260 C   0  0  0  0  0  0  0  0  0  0  0  0
    1.0590   -1.1790    0.0480 C   0  0  0  0  0  0  0  0  0  0  0  0
    2.1180   -0.2920    0.1250 C   0  0  0  0  0  0  0  0  0  0  0  0
    3.7820   -0.8500    0.2190 Cl  0  0  0  0  0  0  0  0  0  0  0  0
    1.9060    1.0740    0.1320 C   0  0  0  0  0  0  0  0  0  0  0  0
    0.5980    1.5060    0.0580 C   0  0  0  0  0  0  0  0  0  0  0  0
   -0.4590    0.6230   -0.0190 C   0  0  0  0  0  0  0  0  0  0  0  0
  1  2  2  0
  2  3  1  0
  2 11  1  0
  3  4  1  0
  4  5  1  0
  5  6  2  0
  5 11  1  0
  6  7  1  0
  7  8  1  0
  7  9  2  0
  9 10  1  0
 10 11  2  0
M  END
