
     RDKit          3D

 20 19  0  0  0  0  0  0  0  0999 V2000
   -5.9150    0.2730   -1.8050 C   0  0  0  0  0  0  0  0  0  0  0  0
   -4.6940   -0.2260   -2.2830 O   0  0  0  0  0  0  0  0  0  0  0  0
   -3.9250   -0.5780   -1.3060 O   0  0  0  0  0  0  0  0  0  0  0  0
   -2.7050    0.0230   -1.2790 C   0  0  0  0  0  0  0  0  0  0  0  0
   -1.8100   -0.3610   -0.1760 C   0  0  0  0  0  0  0  0  0  0  0  0
   -0.4350    0.2680   -0.0800 C   0  0  0  0  0  0  0  0  0  0  0  0
    0.2920   -0.0280   -1.2330 O   0  0  0  0  0  0  0  0  0  0  0  0
    1.4820    0.4890   -1.2020 O   0  0  0  0  0  0  0  0  0  0  0  0
    1.6660    1.3820   -0.2430 O   0  0  0  0  0  0  0  0  0  0  0  0
    2.5910    1.2780    0.7760 C   0  0  0  0  0  0  0  0  0  0  0  0
    2.1730    1.6910    2.3180 P   0  0  0  0  0  0  0  0  0  0  0  0
    4.1890    0.7100    0.4220 S   0  0  2  0  0  0  0  0  0  0  0  0
    4.2060   -1.0780    0.6000 C   0  0  0  0  0  0  0  0  0  0  0  0
    5.2130    1.2920    1.3530 O   0  0  0  0  0  0  0  0  0  0  0  0
    4.7220    1.1430   -1.3750 P   0  0  0  0  0  0  0  0  0  0  0  0
    6.5040    1.5800   -1.6690 C   0  0  0  0  0  0  0  0  0  0  0  0
   -2.1500   -1.2230    0.7280 C   0  0  0  0  0  0  0  0  0  0  0  0
   -3.4590   -1.8940    0.7320 C   0  0  0  0  0  0  0  0  0  0  0  0
   -1.2240   -1.5260    1.7460 O   0  0  0  0  0  0  0  0  0  0  0  0
   -1.3030   -0.8680    2.9980 C   0  0  0  0  0  0  0  0  0  0  0  0
  1  2  1  0
  2  3  1  0
  3  4  1  0
  4  5  1  0
  5  6  1  0
  5 17  2  3
  6  7  1  0
  7  8  1  0
  8  9  1  0
  9 10  1  0
 10 11  2  0
 10 12  1  0
 12 13  1  6
 12 14  2  0
 12 15  2  0
 15 16  1  0
 17 18  1  0
 17 19  1  0
 19 20  1  0
M  END
