
     RDKit          3D

 20 19  0  0  0  0  0  0  0  0999 V2000
   -3.1970   -1.8970   -1.8130 C   0  0  0  0  0  0  0  0  0  0  0  0
   -2.4400   -0.9790   -1.1370 O   0  0  0  0  0  0  0  0  0  0  0  0
   -3.1140   -0.2470   -0.1990 C   0  0  2  0  0  0  0  0  0  0  0  0
   -3.7360   -1.0880    0.8910 C   0  0  0  0  0  0  0  0  0  0  0  0
   -4.1980    0.6180   -0.7950 C   0  0  0  0  0  0  0  0  0  0  0  0
   -5.0420    1.5630    0.5710 P   0  0  0  0  0  0  0  0  0  0  0  0
   -2.1520    0.6810    0.4870 C   0  0  0  0  0  0  0  0  0  0  0  0
   -2.5720    1.4550    1.3980 O   0  0  0  0  0  0  0  0  0  0  0  0
   -0.7570    0.6890    0.1090 C   0  0  0  0  0  0  0  0  0  0  0  0
   -0.3210   -0.0630   -0.7840 O   0  0  0  0  0  0  0  0  0  0  0  0
    0.1200    1.5410    0.7400 O   0  0  0  0  0  0  0  0  0  0  0  0
    1.3960    1.5410    0.3870 O   0  0  0  0  0  0  0  0  0  0  0  0
    1.8780    0.3170    0.1610 O   0  0  0  0  0  0  0  0  0  0  0  0
    3.1840    0.2240   -0.3060 C   0  0  0  0  0  0  0  0  0  0  0  0
    3.3650    0.0180   -1.5970 C   0  0  0  0  0  0  0  0  0  0  0  0
    2.2980   -0.1000   -2.4420 O   0  0  0  0  0  0  0  0  0  0  0  0
    4.3510    0.3540    0.6230 C   0  0  1  0  0  0  0  0  0  0  0  0
    5.6220    0.2160   -0.1540 C   0  0  0  0  0  0  0  0  0  0  0  0
    4.3680    1.6110    1.2380 O   0  0  0  0  0  0  0  0  0  0  0  0
    4.3270   -0.9550    1.9340 P   0  0  0  0  0  0  0  0  0  0  0  0
  1  2  1  0
  2  3  1  0
  3  4  1  1
  3  5  1  0
  3  7  1  0
  5  6  1  0
  7  8  2  0
  7  9  1  0
  9 10  2  0
  9 11  1  0
 11 12  1  0
 12 13  1  0
 13 14  1  0
 14 15  2  3
 14 17  1  0
 15 16  1  0
 17 18  1  6
 17 19  1  0
 17 20  1  0
M  END
