
     RDKit          3D

 20 20  0  0  0  0  0  0  0  0999 V2000
   -5.1310    1.4510    0.8870 C   0  0  0  0  0  0  0  0  0  0  0  0
   -4.6830   -0.3470    0.7460 P   0  0  0  0  0  0  0  0  0  0  0  0
   -5.4880   -1.0720   -0.7690 C   0  0  0  0  0  0  0  0  0  0  0  0
   -2.8020   -0.4810    0.5630 C   0  0  0  0  0  0  0  0  0  0  0  0
   -2.5030    0.0490   -0.6390 O   0  0  0  0  0  0  0  0  0  0  0  0
   -1.3340    0.1100   -1.0960 O   0  0  0  0  0  0  0  0  0  0  0  0
   -0.4720    0.9950   -0.4930 C   0  0  0  0  0  0  0  0  0  0  0  0
   -0.2800    0.6170    0.8510 O   0  0  0  0  0  0  0  0  0  0  0  0
    0.2950   -0.6530    1.0520 C   0  0  0  0  0  0  0  0  0  0  0  0
    1.6010   -0.7470    0.7920 C   0  0  0  0  0  0  0  0  0  0  0  0
    2.2640   -1.9660    0.9600 O   0  0  0  0  0  0  0  0  0  0  0  0
    3.6170   -2.0600    0.6900 C   0  0  0  0  0  0  0  0  0  0  0  0
    4.2060   -3.1430    0.8400 O   0  0  0  0  0  0  0  0  0  0  0  0
    4.3640   -0.8960    0.2280 C   0  0  0  0  0  0  0  0  0  0  0  0
    5.7260   -0.9340   -0.0580 O   0  0  0  0  0  0  0  0  0  0  0  0
    3.7240    0.2450    0.0750 C   0  0  0  0  0  0  0  0  0  0  0  0
    4.4800    1.4500   -0.3990 C   0  0  0  0  0  0  0  0  0  0  0  0
    6.2410    1.0170   -0.6710 P   0  0  0  0  0  0  0  0  0  0  0  0
    7.3160    2.1380   -0.7600 O   0  0  0  0  0  0  0  0  0  0  0  0
    2.3650    0.3150    0.3530 O   0  0  0  0  0  0  0  0  0  0  0  0
  1  2  1  0
  2  3  1  0
  2  4  1  0
  4  5  1  0
  5  6  1  0
  6  7  1  0
  7  8  1  0
  8  9  1  0
  9 10  2  3
 10 11  1  0
 10 20  1  0
 11 12  1  0
 12 13  2  0
 12 14  1  0
 14 15  1  0
 14 16  2  0
 16 17  1  0
 16 20  1  0
 17 18  1  0
 18 19  2  0
M  END
