
     RDKit          3D

 19 18  0  0  0  0  0  0  0  0999 V2000
    0.5890   -3.8270    0.0780 C   0  0  0  0  0  0  0  0  0  0  0  0
   -0.2830   -2.6820   -0.4080 C   0  0  0  0  0  0  0  0  0  0  0  0
    0.1860   -1.4520    0.3590 C   0  0  1  0  0  0  0  0  0  0  0  0
   -0.0110   -1.7270    1.8300 C   0  0  0  0  0  0  0  0  0  0  0  0
    1.5460   -1.2230    0.1130 O   0  0  0  0  0  0  0  0  0  0  0  0
    1.7090   -1.0310   -1.1590 O   0  0  0  0  0  0  0  0  0  0  0  0
    2.6200   -0.1670   -1.4700 O   0  0  0  0  0  0  0  0  0  0  0  0
    3.8560   -0.3940   -0.9170 C   0  0  0  0  0  0  0  0  0  0  0  0
    4.7160    0.6160   -1.3460 O   0  0  0  0  0  0  0  0  0  0  0  0
    4.3120    1.8120   -0.9890 O   0  0  0  0  0  0  0  0  0  0  0  0
    5.6810    2.7990   -0.5410 P   0  0  0  0  0  0  0  0  0  0  0  0
   -0.5840   -0.2660   -0.0170 C   0  0  0  0  0  0  0  0  0  0  0  0
    0.0010    0.7500   -0.5280 O   0  0  0  0  0  0  0  0  0  0  0  0
   -2.0150   -0.2200    0.1830 C   0  0  0  0  0  0  0  0  0  0  0  0
   -2.5980   -1.1930    0.6890 O   0  0  0  0  0  0  0  0  0  0  0  0
   -2.7890    0.9790   -0.2120 C   0  0  1  0  0  0  0  0  0  0  0  0
   -4.2470    0.7660    0.1020 C   0  0  0  0  0  0  0  0  0  0  0  0
   -2.1140    2.4200    0.7630 P   0  0  0  0  0  0  0  0  0  0  0  0
   -3.2820    3.8730    0.6210 C   0  0  0  0  0  0  0  0  0  0  0  0
  1  2  1  0
  2  3  1  0
  3  4  1  1
  3  5  1  0
  3 12  1  0
  5  6  1  0
  6  7  1  0
  7  8  1  0
  8  9  1  0
  9 10  1  0
 10 11  1  0
 12 13  2  0
 12 14  1  0
 14 15  2  0
 14 16  1  0
 16 17  1  1
 16 18  1  0
 18 19  1  0
M  END
