
     RDKit          3D

 20 19  0  0  0  0  0  0  0  0999 V2000
    5.8430    0.3190   -0.8740 C   0  0  0  0  0  0  0  0  0  0  0  0
    4.8790   -0.6480   -1.2840 O   0  0  0  0  0  0  0  0  0  0  0  0
    4.1120   -1.2550   -0.2690 C   0  0  0  0  0  0  0  0  0  0  0  0
    4.7850   -2.1160    0.6890 C   0  0  0  0  0  0  0  0  0  0  0  0
    6.0110   -2.2950    0.5920 O   0  0  0  0  0  0  0  0  0  0  0  0
    2.8220   -1.0600   -0.1770 C   0  0  0  0  0  0  0  0  0  0  0  0
    2.0420   -1.6390    0.8040 O   0  0  0  0  0  0  0  0  0  0  0  0
    0.7500   -1.8710    0.6870 O   0  0  0  0  0  0  0  0  0  0  0  0
    0.0370   -0.7720    0.8450 O   0  0  0  0  0  0  0  0  0  0  0  0
   -1.1390   -0.8820    0.2750 O   0  0  0  0  0  0  0  0  0  0  0  0
   -1.8590    0.2650    0.5750 C   0  0  1  0  0  0  0  0  0  0  0  0
   -1.9710    0.3230    2.1150 C   0  0  0  0  0  0  0  0  0  0  0  0
   -1.0840    1.4530    0.0750 C   0  0  2  0  0  0  0  0  0  0  0  0
   -0.8390    1.3120   -1.7340 P   0  0  0  0  0  0  0  0  0  0  0  0
    0.5260    1.6460    0.9920 P   0  0  0  0  0  0  0  0  0  0  0  0
    1.6090    2.6070    0.4510 O   0  0  0  0  0  0  0  0  0  0  0  0
   -3.2560    0.2990    0.0730 C   0  0  1  0  0  0  0  0  0  0  0  0
   -3.4380    0.2100   -1.4060 C   0  0  0  0  0  0  0  0  0  0  0  0
   -4.1110   -0.8130    0.6950 C   0  0  0  0  0  0  0  0  0  0  0  0
   -3.7870    1.5470    0.4810 O   0  0  0  0  0  0  0  0  0  0  0  0
  1  2  1  0
  2  3  1  0
  3  4  1  0
  3  6  2  3
  4  5  2  0
  6  7  1  0
  7  8  1  0
  8  9  1  0
  9 10  1  0
 10 11  1  0
 11 12  1  1
 11 13  1  0
 11 17  1  0
 13 14  1  6
 13 15  1  0
 15 16  2  0
 17 18  1  6
 17 19  1  0
 17 20  1  0
M  END
