
     RDKit          3D

 19 19  0  0  0  0  0  0  0  0999 V2000
   -3.9050    1.2160   -0.5100 C   0  0  0  0  0  0  0  0  0  0  0  0
   -3.2450   -0.4940   -0.5090 P   0  0  0  0  0  0  0  0  0  0  0  0
   -4.2920   -1.5090    0.6450 C   0  0  0  0  0  0  0  0  0  0  0  0
   -1.4700   -0.6600   -0.1720 C   0  0  0  0  0  0  0  0  0  0  0  0
   -0.5970    0.4480   -0.5890 C   0  0  2  0  0  0  0  0  0  0  0  0
   -0.8690    1.7860    0.0100 C   0  0  0  0  0  0  0  0  0  0  0  0
   -0.4160    0.5810   -2.0780 C   0  0  0  0  0  0  0  0  0  0  0  0
   -1.1750    0.3170   -3.0130 O   0  0  0  0  0  0  0  0  0  0  0  0
    0.8650    1.0950   -2.1830 O   0  0  0  0  0  0  0  0  0  0  0  0
    1.4330    1.1960   -0.9450 O   0  0  0  0  0  0  0  0  0  0  0  0
    0.8820    0.0730   -0.2960 C   0  0  2  0  0  0  0  0  0  0  0  0
    1.2610   -1.0960   -1.1950 C   0  0  0  0  0  0  0  0  0  0  0  0
    2.5280   -1.2200   -1.4420 O   0  0  0  0  0  0  0  0  0  0  0  0
    3.6260   -1.4320   -0.8050 C   0  0  0  0  0  0  0  0  0  0  0  0
    4.1820   -0.5190    0.2330 C   0  0  0  0  0  0  0  0  0  0  0  0
    4.4390    0.7680   -0.2090 O   0  0  0  0  0  0  0  0  0  0  0  0
    1.1560   -0.1160    0.9840 O   0  0  0  0  0  0  0  0  0  0  0  0
    0.9770    1.1200    2.1090 P   0  0  0  0  0  0  0  0  0  0  0  0
    2.1890    2.0780    2.3950 O   0  0  0  0  0  0  0  0  0  0  0  0
  1  2  1  0
  2  3  1  0
  2  4  1  0
  4  5  1  0
  5  6  1  1
  5  7  1  0
  5 11  1  0
  7  8  2  0
  7  9  1  0
  9 10  1  0
 10 11  1  0
 11 12  1  6
 11 17  1  0
 12 13  1  0
 13 14  1  0
 14 15  1  0
 15 16  1  0
 17 18  1  0
 18 19  2  0
M  END
