
     RDKit          3D

 20 20  0  0  0  0  0  0  0  0999 V2000
    3.3240   -2.1320   -0.9910 C   0  0  0  0  0  0  0  0  0  0  0  0
    1.8790   -1.3660   -0.0770 P   0  0  0  0  0  0  0  0  0  0  0  0
    2.1520    0.4540    0.1410 C   0  0  0  0  0  0  0  0  0  0  0  0
    1.1080    1.2890   -0.5580 C   0  0  2  0  0  0  0  0  0  0  0  0
    1.4860    2.7490   -0.2750 C   0  0  0  0  0  0  0  0  0  0  0  0
   -0.2290    1.0840    0.1340 C   0  0  1  0  0  0  0  0  0  0  0  0
   -0.0550    1.4930    1.4560 O   0  0  0  0  0  0  0  0  0  0  0  0
   -1.1960    1.9370   -0.4490 O   0  0  0  0  0  0  0  0  0  0  0  0
   -2.7000    1.6940    0.3430 P   0  0  0  0  0  0  0  0  0  0  0  0
   -3.3650    3.1280    1.0140 O   0  0  0  0  0  0  0  0  0  0  0  0
   -3.8120    0.7690   -0.5660 O   0  0  0  0  0  0  0  0  0  0  0  0
   -0.7250   -0.3010    0.0420 C   0  0  0  0  0  0  0  0  0  0  0  0
   -0.9530   -1.0330    1.1380 C   0  0  0  0  0  0  0  0  0  0  0  0
   -1.4390   -2.3950    1.1000 C   0  0  0  0  0  0  0  0  0  0  0  0
   -1.7160   -3.2840    2.4330 S   0  0  0  0  0  0  0  0  0  0  0  0
   -1.6990   -3.0140   -0.1970 C   0  0  0  0  0  0  0  0  0  0  0  0
   -2.1210   -4.1880   -0.3190 O   0  0  0  0  0  0  0  0  0  0  0  0
   -1.4330   -2.1680   -1.3750 C   0  0  0  0  0  0  0  0  0  0  0  0
   -1.6510   -2.6860   -2.4930 O   0  0  0  0  0  0  0  0  0  0  0  0
   -0.9710   -0.8870   -1.1760 O   0  0  0  0  0  0  0  0  0  0  0  0
  1  2  1  0
  2  3  1  0
  3  4  1  0
  4  5  1  1
  4  6  1  0
  6  7  1  1
  6  8  1  0
  6 12  1  0
  8  9  1  0
  9 10  1  0
  9 11  1  0
 12 13  2  0
 12 20  1  0
 13 14  1  0
 14 15  2  0
 14 16  1  0
 16 17  2  0
 16 18  1  0
 18 19  2  0
 18 20  1  0
M  END
