
     RDKit          3D

 26 29  0  0  0  0  0  0  0  0999 V2000
    1.6720   -0.9990   -1.2960 C   0  0  0  0  0  0  0  0  0  0  0  0
    1.7480   -0.2240   -0.0020 C   0  0  2  0  0  0  0  0  0  0  0  0
    1.1410   -1.0150    1.1060 C   0  0  0  0  0  0  0  0  0  0  0  0
   -0.3310   -1.1300    1.0720 C   0  0  2  0  0  0  0  0  0  0  0  0
   -0.6500   -2.3400    0.4090 O   0  0  0  0  0  0  0  0  0  0  0  0
   -1.1000    0.0180    0.5660 C   0  0  1  0  0  0  0  0  0  0  0  0
   -0.3920    0.7890   -0.5560 C   0  0  1  0  0  0  0  0  0  0  0  0
   -1.0860    2.0630   -0.8790 C   0  0  0  0  0  0  0  0  0  0  0  0
   -2.4780    2.2120   -0.3990 C   0  0  0  0  0  0  0  0  0  0  0  0
   -3.2030    0.9460   -0.1410 C   0  0  0  0  0  0  0  0  0  0  0  0
   -4.5230    0.9190   -0.2000 C   0  0  0  0  0  0  0  0  0  0  0  0
   -5.1960   -0.3440    0.0610 C   0  0  0  0  0  0  0  0  0  0  0  0
   -6.2100   -0.6430   -0.6230 O   0  0  0  0  0  0  0  0  0  0  0  0
   -4.6470   -1.2180    1.1290 C   0  0  0  0  0  0  0  0  0  0  0  0
   -3.1950   -0.8990    1.4130 C   0  0  0  0  0  0  0  0  0  0  0  0
   -2.5060   -0.3270    0.1870 C   0  0  2  0  0  0  0  0  0  0  0  0
   -2.6320   -1.2430   -0.9860 C   0  0  0  0  0  0  0  0  0  0  0  0
    0.9620    1.0690   -0.0460 C   0  0  2  0  0  0  0  0  0  0  0  0
    1.8530    1.9470   -0.8170 C   0  0  0  0  0  0  0  0  0  0  0  0
    3.1310    1.7920    0.0250 C   0  0  0  0  0  0  0  0  0  0  0  0
    3.1370    0.2770    0.2820 C   0  0  1  0  0  0  0  0  0  0  0  0
    3.5060    0.0210    1.6070 O   0  0  0  0  0  0  0  0  0  0  0  0
    4.1550   -0.2750   -0.6230 C   0  0  0  0  0  0  0  0  0  0  0  0
    4.0370   -0.1570   -1.8130 O   0  0  0  0  0  0  0  0  0  0  0  0
    5.3270   -0.9770   -0.0810 C   0  0  0  0  0  0  0  0  0  0  0  0
    5.3590   -1.0530    1.2980 O   0  0  0  0  0  0  0  0  0  0  0  0
  2  1  1  6
  2  3  1  0
  2 18  1  0
  2 21  1  0
  3  4  1  0
  4  5  1  6
  6  4  1  6
  6  7  1  0
  6 16  1  0
  7  8  1  1
  7 18  1  0
  8  9  1  0
  9 10  1  0
 10 11  2  0
 10 16  1  0
 11 12  1  0
 12 13  2  0
 12 14  1  0
 14 15  1  0
 15 16  1  0
 16 17  1  6
 18 19  1  6
 19 20  1  0
 20 21  1  0
 21 22  1  1
 21 23  1  0
 23 24  2  0
 23 25  1  0
 25 26  1  0
M  END
