
     RDKit          3D

 26 28  0  0  0  0  0  0  0  0999 V2000
   -4.9210   -2.0460    2.3650 C   0  0  0  0  0  0  0  0  0  0  0  0
   -3.6690   -1.2360    2.2840 C   0  0  0  0  0  0  0  0  0  0  0  0
   -3.2590   -1.1860    0.8020 C   0  0  1  0  0  0  0  0  0  0  0  0
   -4.1980   -0.6240    0.0170 O   0  0  0  0  0  0  0  0  0  0  0  0
   -4.0520    0.6090   -0.5020 C   0  0  1  0  0  0  0  0  0  0  0  0
   -4.4220    0.4990   -1.9960 C   0  0  0  0  0  0  0  0  0  0  0  0
   -5.0320    1.6330    0.0500 C   0  0  0  0  0  0  0  0  0  0  0  0
   -4.9180    1.8000    1.4260 O   0  0  0  0  0  0  0  0  0  0  0  0
   -2.6780    1.2100   -0.4830 C   0  0  0  0  0  0  0  0  0  0  0  0
   -1.7050    0.0580   -0.6050 C   0  0  1  0  0  0  0  0  0  0  0  0
   -0.2860    0.5230   -0.8610 C   0  0  0  0  0  0  0  0  0  0  0  0
    0.5580   -0.7590   -0.8670 C   0  0  1  0  0  0  0  0  0  0  0  0
    1.8560   -0.6210   -1.5500 C   0  0  2  0  0  0  0  0  0  0  0  0
    2.5040   -1.8790   -1.4600 O   0  0  0  0  0  0  0  0  0  0  0  0
    2.7630    0.4770   -1.1130 C   0  0  2  0  0  0  0  0  0  0  0  0
    4.0070    0.3790   -2.0060 C   0  0  0  0  0  0  0  0  0  0  0  0
    5.0060    1.4380   -1.6760 C   0  0  0  0  0  0  0  0  0  0  0  0
    4.9720    1.8140   -0.3340 O   0  0  0  0  0  0  0  0  0  0  0  0
    4.6690    0.7660    0.4990 C   0  0  1  0  0  0  0  0  0  0  0  0
    5.5280   -0.4480    0.3150 C   0  0  0  0  0  0  0  0  0  0  0  0
    4.8320    1.2370    1.9290 C   0  0  0  0  0  0  0  0  0  0  0  0
    3.1780    0.4500    0.3200 C   0  0  1  0  0  0  0  0  0  0  0  0
    2.5340    1.4760    1.0500 O   0  0  0  0  0  0  0  0  0  0  0  0
    0.5450   -1.3110    0.5120 C   0  0  0  0  0  0  0  0  0  0  0  0
   -0.8520   -1.8830    0.7540 C   0  0  0  0  0  0  0  0  0  0  0  0
   -1.8460   -0.7420    0.6470 C   0  0  2  0  0  0  0  0  0  0  0  0
  1  2  1  0
  3  2  1  1
  3  4  1  0
  3 26  1  0
  4  5  1  0
  5  6  1  6
  5  7  1  0
  5  9  1  0
  7  8  1  0
 10  9  1  1
 10 11  1  0
 10 26  1  0
 12 11  1  1
 12 13  1  0
 12 24  1  0
 13 14  1  1
 13 15  1  0
 15 16  1  6
 15 22  1  0
 16 17  1  0
 17 18  1  0
 18 19  1  0
 19 20  1  6
 19 21  1  0
 19 22  1  0
 22 23  1  1
 24 25  1  0
 26 25  1  6
M  END
