
     RDKit          3D

 26 29  0  0  0  0  0  0  0  0999 V2000
    0.8460   -1.7240   -2.9520 O   0  0  0  0  0  0  0  0  0  0  0  0
    1.2310   -0.6770   -2.1160 C   0  0  1  0  0  0  0  0  0  0  0  0
   -0.0340   -0.0740   -1.5440 C   0  0  0  0  0  0  0  0  0  0  0  0
   -0.3430   -0.8380   -0.2870 C   0  0  1  0  0  0  0  0  0  0  0  0
   -1.1490    0.0230    0.6180 C   0  0  0  0  0  0  0  0  0  0  0  0
   -2.4360    0.5600    0.1460 C   0  0  1  0  0  0  0  0  0  0  0  0
   -3.5080   -0.4120   -0.2350 C   0  0  0  0  0  0  0  0  0  0  0  0
   -4.7340    0.3400   -0.7330 C   0  0  0  0  0  0  0  0  0  0  0  0
   -5.5470    0.9830    0.3320 C   0  0  0  0  0  0  0  0  0  0  0  0
   -5.2240    2.3260    0.5300 O   0  0  0  0  0  0  0  0  0  0  0  0
   -3.8490    2.5390    0.4080 C   0  0  0  0  0  0  0  0  0  0  0  0
   -3.0580    1.5080    1.1660 C   0  0  2  0  0  0  0  0  0  0  0  0
   -2.1040    2.0690    1.9980 O   0  0  0  0  0  0  0  0  0  0  0  0
   -0.7720   -2.2290   -0.5210 C   0  0  0  0  0  0  0  0  0  0  0  0
   -1.0900   -2.9100    0.7980 C   0  0  0  0  0  0  0  0  0  0  0  0
    0.0520   -2.7370    1.7770 C   0  0  0  0  0  0  0  0  0  0  0  0
    1.2660   -2.1040    1.2060 C   0  0  0  0  0  0  0  0  0  0  0  0
    1.0910   -0.9510    0.2960 C   0  0  1  0  0  0  0  0  0  0  0  0
    1.9820   -1.1290   -0.9020 C   0  0  2  0  0  0  0  0  0  0  0  0
    3.3500   -0.5750   -0.7670 C   0  0  2  0  0  0  0  0  0  0  0  0
    3.9260   -1.0730    0.4100 O   0  0  0  0  0  0  0  0  0  0  0  0
    3.5090    0.8980   -0.8200 C   0  0  2  0  0  0  0  0  0  0  0  0
    5.0140    1.1840   -0.7090 C   0  0  0  0  0  0  0  0  0  0  0  0
    5.0260    2.4880    0.0120 C   0  0  0  0  0  0  0  0  0  0  0  0
    3.6940    2.5460    0.6820 C   0  0  0  0  0  0  0  0  0  0  0  0
    2.9170    1.5150    0.2370 O   0  0  0  0  0  0  0  0  0  0  0  0
  2  1  1  6
  2  3  1  0
 19  2  1  6
  3  4  1  0
  4  5  1  1
  4 14  1  0
  4 18  1  0
  6  5  1  1
  6  7  1  0
  6 12  1  0
  7  8  1  0
  8  9  1  0
  9 10  1  0
 10 11  1  0
 11 12  1  0
 12 13  1  6
 14 15  1  0
 15 16  1  0
 16 17  1  0
 18 17  1  1
 18 19  1  0
 19 20  1  0
 20 21  1  1
 20 22  1  0
 22 23  1  1
 22 26  1  0
 23 24  1  0
 24 25  1  0
 25 26  1  0
M  END
