
     RDKit          3D

 26 28  0  0  0  0  0  0  0  0999 V2000
   -1.6300    5.1660   -0.4610 C   0  0  0  0  0  0  0  0  0  0  0  0
   -0.5750    4.1550   -0.0610 C   0  0  2  0  0  0  0  0  0  0  0  0
    0.1560    3.7920   -1.1960 O   0  0  0  0  0  0  0  0  0  0  0  0
   -1.2760    2.9650    0.5260 C   0  0  1  0  0  0  0  0  0  0  0  0
   -2.2300    2.3140   -0.4560 C   0  0  0  0  0  0  0  0  0  0  0  0
   -2.5000    0.9550    0.0960 C   0  0  0  0  0  0  0  0  0  0  0  0
   -1.3480   -0.0560   -0.2190 C   0  0  2  0  0  0  0  0  0  0  0  0
   -1.6210   -0.4460   -1.6200 C   0  0  0  0  0  0  0  0  0  0  0  0
   -2.8940   -1.1090   -1.9520 C   0  0  0  0  0  0  0  0  0  0  0  0
   -2.8710   -2.4630   -1.5810 O   0  0  0  0  0  0  0  0  0  0  0  0
   -3.2970   -2.4730   -0.2570 C   0  0  0  0  0  0  0  0  0  0  0  0
   -2.0580   -2.3960    0.5920 C   0  0  1  0  0  0  0  0  0  0  0  0
   -2.5480   -2.9300    1.9710 C   0  0  0  0  0  0  0  0  0  0  0  0
   -1.2050   -3.4010    0.1380 O   0  0  0  0  0  0  0  0  0  0  0  0
   -1.4700   -1.0850    0.8400 C   0  0  0  0  0  0  0  0  0  0  0  0
   -0.1330    0.8000   -0.1090 C   0  0  2  0  0  0  0  0  0  0  0  0
    1.1990    0.2990    0.1710 C   0  0  0  0  0  0  0  0  0  0  0  0
    1.8950   -0.6620   -0.7140 C   0  0  2  0  0  0  0  0  0  0  0  0
    1.2120   -1.8510   -0.7950 O   0  0  0  0  0  0  0  0  0  0  0  0
    3.3100   -0.9690   -0.2360 C   0  0  1  0  0  0  0  0  0  0  0  0
    4.1410    0.3140   -0.2870 C   0  0  0  0  0  0  0  0  0  0  0  0
    3.4190   -1.5590    1.1150 C   0  0  0  0  0  0  0  0  0  0  0  0
    4.7880   -2.2630    1.0480 C   0  0  0  0  0  0  0  0  0  0  0  0
    5.0140   -2.3680   -0.4210 C   0  0  0  0  0  0  0  0  0  0  0  0
    3.9480   -1.8490   -1.1050 O   0  0  0  0  0  0  0  0  0  0  0  0
   -0.3740    1.8830    0.9920 C   0  0  0  0  0  0  0  0  0  0  0  0
  2  1  1  6
  2  3  1  0
  2  4  1  0
  4  5  1  6
  4 26  1  0
  5  6  1  0
  7  6  1  1
  7  8  1  0
  7 15  1  0
  7 16  1  0
  8  9  1  0
  9 10  1  0
 10 11  1  0
 11 12  1  0
 12 13  1  1
 12 14  1  0
 12 15  1  0
 16 17  1  1
 16 26  1  0
 17 18  1  0
 18 19  1  1
 18 20  1  0
 20 21  1  1
 20 22  1  0
 20 25  1  0
 22 23  1  0
 23 24  1  0
 24 25  1  0
M  END
