
     RDKit          3D

 26 28  0  0  0  0  0  0  0  0999 V2000
   -4.1290    2.0720   -0.3760 C   0  0  0  0  0  0  0  0  0  0  0  0
   -3.6010    1.2340    0.7090 C   0  0  0  0  0  0  0  0  0  0  0  0
   -2.6910    0.0990    0.4040 C   0  0  1  0  0  0  0  0  0  0  0  0
   -1.4350    0.5050   -0.2460 C   0  0  2  0  0  0  0  0  0  0  0  0
   -0.8310    1.5600    0.5010 O   0  0  0  0  0  0  0  0  0  0  0  0
   -1.5660    0.8150   -1.6790 C   0  0  0  0  0  0  0  0  0  0  0  0
   -0.2720    1.4820   -2.1960 C   0  0  0  0  0  0  0  0  0  0  0  0
    0.7980    0.4150   -2.1140 C   0  0  0  0  0  0  0  0  0  0  0  0
    0.9570    0.0160   -0.6810 C   0  0  2  0  0  0  0  0  0  0  0  0
   -0.3460   -0.5970   -0.1330 C   0  0  0  0  0  0  0  0  0  0  0  0
    1.2330    1.0980    0.1030 O   0  0  0  0  0  0  0  0  0  0  0  0
    2.5240    1.5490    0.0500 C   0  0  0  0  0  0  0  0  0  0  0  0
    3.4900    0.5330    0.6190 C   0  0  1  0  0  0  0  0  0  0  0  0
    4.8080    0.7210   -0.1030 C   0  0  0  0  0  0  0  0  0  0  0  0
    3.7530    0.8030    2.0960 C   0  0  0  0  0  0  0  0  0  0  0  0
    4.2960    2.0530    2.2970 O   0  0  0  0  0  0  0  0  0  0  0  0
    2.9780   -0.8760    0.5160 C   0  0  1  0  0  0  0  0  0  0  0  0
    2.3470   -1.2690    1.7090 O   0  0  0  0  0  0  0  0  0  0  0  0
    1.9930   -1.0800   -0.5940 C   0  0  1  0  0  0  0  0  0  0  0  0
    1.3560   -2.4460   -0.3820 C   0  0  0  0  0  0  0  0  0  0  0  0
    2.7940   -1.1980   -1.8910 C   0  0  0  0  0  0  0  0  0  0  0  0
   -2.5130   -0.6240    1.7530 C   0  0  0  0  0  0  0  0  0  0  0  0
   -3.9150   -1.2250    1.9770 C   0  0  0  0  0  0  0  0  0  0  0  0
   -4.5900   -1.2600    0.6290 C   0  0  0  0  0  0  0  0  0  0  0  0
   -3.4210   -1.0250   -0.3220 C   0  0  2  0  0  0  0  0  0  0  0  0
   -2.6820   -2.1780   -0.2970 O   0  0  0  0  0  0  0  0  0  0  0  0
  1  2  1  0
  3  2  1  1
  3  4  1  0
  3 22  1  0
  3 25  1  0
  4  5  1  1
  4  6  1  0
  4 10  1  0
  6  7  1  0
  7  8  1  0
  9  8  1  6
  9 10  1  0
  9 11  1  0
  9 19  1  0
 11 12  1  0
 12 13  1  0
 13 14  1  6
 13 15  1  0
 13 17  1  0
 15 16  1  0
 17 18  1  1
 17 19  1  0
 19 20  1  1
 19 21  1  0
 22 23  1  0
 23 24  1  0
 24 25  1  0
 25 26  1  1
M  END
