
     RDKit          3D

 26 28  0  0  0  0  0  0  0  0999 V2000
    3.3660    0.8260    2.2820 C   0  0  0  0  0  0  0  0  0  0  0  0
    2.9470    1.3900    0.9670 C   0  0  1  0  0  0  0  0  0  0  0  0
    2.5230    2.8270    1.0410 C   0  0  0  0  0  0  0  0  0  0  0  0
    4.2130    1.3940    0.0820 C   0  0  0  0  0  0  0  0  0  0  0  0
    1.9660    0.5250    0.1960 C   0  0  1  0  0  0  0  0  0  0  0  0
    2.6940   -0.8190   -0.0480 C   0  0  0  0  0  0  0  0  0  0  0  0
    1.6410   -1.8270   -0.3220 C   0  0  0  0  0  0  0  0  0  0  0  0
    0.3280   -1.2540   -0.7910 C   0  0  1  0  0  0  0  0  0  0  0  0
   -0.3720   -2.3380   -1.2840 O   0  0  0  0  0  0  0  0  0  0  0  0
   -0.2320   -3.5250   -0.6480 C   0  0  0  0  0  0  0  0  0  0  0  0
   -0.8100   -3.6560    0.7100 C   0  0  0  0  0  0  0  0  0  0  0  0
   -1.7270   -2.5160    1.0860 C   0  0  2  0  0  0  0  0  0  0  0  0
   -3.0680   -2.6920    0.4460 C   0  0  0  0  0  0  0  0  0  0  0  0
   -3.5720   -3.9290    0.9420 O   0  0  0  0  0  0  0  0  0  0  0  0
   -1.1500   -1.2020    1.2660 C   0  0  0  0  0  0  0  0  0  0  0  0
   -0.4010   -0.4540    0.2280 C   0  0  2  0  0  0  0  0  0  0  0  0
   -1.3440    0.5880   -0.3430 C   0  0  2  0  0  0  0  0  0  0  0  0
   -2.0990    1.1470    0.7290 O   0  0  0  0  0  0  0  0  0  0  0  0
   -2.3410    0.0970   -1.3260 C   0  0  0  0  0  0  0  0  0  0  0  0
   -2.4670    0.9240   -2.5960 C   0  0  0  0  0  0  0  0  0  0  0  0
   -3.1460    2.1100   -2.4120 O   0  0  0  0  0  0  0  0  0  0  0  0
   -2.1760    3.1040   -2.2580 C   0  0  0  0  0  0  0  0  0  0  0  0
   -1.5340    3.0380   -0.9150 C   0  0  1  0  0  0  0  0  0  0  0  0
   -2.3890    3.1850    0.1390 O   0  0  0  0  0  0  0  0  0  0  0  0
   -0.6190    1.8370   -0.8470 C   0  0  0  0  0  0  0  0  0  0  0  0
    0.7520    0.2480    0.9780 C   0  0  0  0  0  0  0  0  0  0  0  0
  2  1  1  1
  2  3  1  0
  2  4  1  0
  2  5  1  0
  5  6  1  1
  5 26  1  0
  6  7  1  0
  8  7  1  1
  8  9  1  0
  8 16  1  0
  9 10  1  0
 10 11  1  0
 11 12  1  0
 12 13  1  6
 12 15  1  0
 13 14  1  0
 16 15  1  1
 16 17  1  0
 16 26  1  0
 17 18  1  1
 17 19  1  0
 17 25  1  0
 19 20  1  0
 20 21  1  0
 21 22  1  0
 22 23  1  0
 23 24  1  1
 23 25  1  0
M  END
