
     RDKit          3D

 26 28  0  0  0  0  0  0  0  0999 V2000
   -0.3190   -3.1180    0.0600 C   0  0  0  0  0  0  0  0  0  0  0  0
   -0.3750   -1.8740   -0.8260 C   0  0  2  0  0  0  0  0  0  0  0  0
    0.8870   -1.8650   -1.6060 C   0  0  0  0  0  0  0  0  0  0  0  0
    1.9560   -1.4780   -0.6460 C   0  0  0  0  0  0  0  0  0  0  0  0
    1.7820   -0.0070   -0.2390 C   0  0  2  0  0  0  0  0  0  0  0  0
    2.0440    0.6700   -1.4700 O   0  0  0  0  0  0  0  0  0  0  0  0
    2.9560    0.2650    0.5880 C   0  0  2  0  0  0  0  0  0  0  0  0
    3.2010   -0.6210    1.7730 C   0  0  0  0  0  0  0  0  0  0  0  0
    4.3690   -0.2280    2.4720 O   0  0  0  0  0  0  0  0  0  0  0  0
    3.3310    1.6600    0.9110 C   0  0  0  0  0  0  0  0  0  0  0  0
    4.6370    1.9830    0.1670 C   0  0  0  0  0  0  0  0  0  0  0  0
    5.2360    0.7280    0.2550 O   0  0  0  0  0  0  0  0  0  0  0  0
    4.1880   -0.0460   -0.3070 C   0  0  0  0  0  0  0  0  0  0  0  0
    0.4110    0.3680    0.1710 C   0  0  1  0  0  0  0  0  0  0  0  0
    0.4080    0.6260    1.7040 C   0  0  0  0  0  0  0  0  0  0  0  0
    0.1590    1.7690   -0.3910 C   0  0  0  0  0  0  0  0  0  0  0  0
   -0.6720   -0.6060   -0.0550 C   0  0  1  0  0  0  0  0  0  0  0  0
   -2.0290   -0.1610   -0.5470 C   0  0  1  0  0  0  0  0  0  0  0  0
   -2.0660    0.0980   -2.0130 C   0  0  0  0  0  0  0  0  0  0  0  0
   -2.7970   -1.3790   -0.4510 O   0  0  0  0  0  0  0  0  0  0  0  0
   -2.8040    0.7440    0.3350 C   0  0  2  0  0  0  0  0  0  0  0  0
   -3.1300    0.1670    1.7100 C   0  0  0  0  0  0  0  0  0  0  0  0
   -4.4310   -0.5520    1.4140 C   0  0  0  0  0  0  0  0  0  0  0  0
   -4.7400   -0.2680    0.0590 O   0  0  0  0  0  0  0  0  0  0  0  0
   -4.2190    1.0050   -0.0410 C   0  0  2  0  0  0  0  0  0  0  0  0
   -4.5460    1.8310   -1.1910 C   0  0  0  0  0  0  0  0  0  0  0  0
  2  1  1  1
  2  3  1  0
 17  2  1  6
  3  4  1  0
  4  5  1  0
  5  6  1  6
  5  7  1  0
  5 14  1  0
  7  8  1  1
  7 10  1  0
  7 13  1  0
  8  9  1  0
 10 11  1  0
 11 12  1  0
 12 13  1  0
 14 15  1  1
 14 16  1  0
 14 17  1  0
 17 18  1  0
 18 19  1  6
 18 20  1  0
 18 21  1  0
 21 22  1  1
 21 25  1  0
 22 23  1  0
 23 24  1  0
 24 25  1  0
 25 26  1  6
M  END
