
     RDKit          3D

 26 29  0  0  0  0  0  0  0  0999 V2000
    3.9270   -2.9470    1.0640 O   0  0  0  0  0  0  0  0  0  0  0  0
    2.8370   -2.4680    0.3220 C   0  0  1  0  0  0  0  0  0  0  0  0
    1.6330   -3.2410    0.7630 C   0  0  0  0  0  0  0  0  0  0  0  0
    0.3330   -2.6980    0.2930 C   0  0  0  0  0  0  0  0  0  0  0  0
    0.4910   -1.3730   -0.3650 C   0  0  1  0  0  0  0  0  0  0  0  0
    1.2380   -1.5460   -1.5420 O   0  0  0  0  0  0  0  0  0  0  0  0
   -0.8060   -0.7540   -0.7810 C   0  0  2  0  0  0  0  0  0  0  0  0
   -0.5990    0.5710   -1.4350 C   0  0  0  0  0  0  0  0  0  0  0  0
   -1.9220    0.9440   -2.1060 C   0  0  0  0  0  0  0  0  0  0  0  0
   -2.9490    0.1560   -1.6560 O   0  0  0  0  0  0  0  0  0  0  0  0
   -3.0380    0.0460   -0.2880 C   0  0  1  0  0  0  0  0  0  0  0  0
   -3.3530    1.3730    0.3540 C   0  0  0  0  0  0  0  0  0  0  0  0
   -4.7110    1.3930    1.0120 C   0  0  0  0  0  0  0  0  0  0  0  0
   -5.8150    0.9960    0.0600 C   0  0  1  0  0  0  0  0  0  0  0  0
   -6.1320    2.0610   -0.7990 O   0  0  0  0  0  0  0  0  0  0  0  0
   -5.4250   -0.2370   -0.6940 C   0  0  0  0  0  0  0  0  0  0  0  0
   -4.2310   -0.8730    0.0040 C   0  0  0  0  0  0  0  0  0  0  0  0
   -1.7960   -0.5910    0.3290 C   0  0  0  0  0  0  0  0  0  0  0  0
    1.3040   -0.5030    0.5470 C   0  0  0  0  0  0  0  0  0  0  0  0
    2.7200   -0.9830    0.5430 C   0  0  2  0  0  0  0  0  0  0  0  0
    3.6050   -0.3000   -0.4430 C   0  0  0  0  0  0  0  0  0  0  0  0
    3.6050    1.1930   -0.3560 C   0  0  1  0  0  0  0  0  0  0  0  0
    4.0470    1.7370    0.9550 C   0  0  0  0  0  0  0  0  0  0  0  0
    5.4440    2.2500    0.6270 C   0  0  0  0  0  0  0  0  0  0  0  0
    5.1850    2.7110   -0.8140 C   0  0  0  0  0  0  0  0  0  0  0  0
    4.5020    1.6520   -1.3340 O   0  0  0  0  0  0  0  0  0  0  0  0
  2  1  1  1
  2  3  1  0
  2 20  1  0
  3  4  1  0
  4  5  1  0
  5  6  1  6
  5  7  1  0
  5 19  1  0
  7  8  1  1
  7 18  1  0
  8  9  1  0
  9 10  1  0
 10 11  1  0
 11 12  1  1
 11 17  1  0
 11 18  1  0
 12 13  1  0
 13 14  1  0
 14 15  1  6
 14 16  1  0
 16 17  1  0
 19 20  1  0
 20 21  1  6
 22 21  1  1
 22 23  1  0
 22 26  1  0
 23 24  1  0
 24 25  1  0
 25 26  1  0
M  END
