
     RDKit          3D

 20 22  0  0  0  0  0  0  0  0999 V2000
    5.0300    1.9090   -0.1340 O   0  0  0  0  0  0  0  0  0  0  0  0
    4.4260    0.6760   -0.2610 C   0  0  0  0  0  0  0  0  0  0  0  0
    5.1980   -0.4500   -0.4060 C   0  0  0  0  0  0  0  0  0  0  0  0
    4.6130   -1.6980   -0.5350 C   0  0  0  0  0  0  0  0  0  0  0  0
    3.2430   -1.8500   -0.5220 C   0  0  0  0  0  0  0  0  0  0  0  0
    2.7110   -3.1230   -0.6550 O   0  0  0  0  0  0  0  0  0  0  0  0
    2.4690   -0.7140   -0.3750 C   0  0  0  0  0  0  0  0  0  0  0  0
    0.9950   -0.8850   -0.3620 C   0  0  0  0  0  0  0  0  0  0  0  0
    0.3880    0.3830   -0.2030 O   0  0  0  0  0  0  0  0  0  0  0  0
   -0.9840    0.5600   -0.1530 C   0  0  0  0  0  0  0  0  0  0  0  0
   -1.8860   -0.4740   -0.2510 C   0  0  0  0  0  0  0  0  0  0  0  0
   -3.2610   -0.2510   -0.1940 C   0  0  0  0  0  0  0  0  0  0  0  0
   -3.7270    1.0330   -0.0380 C   0  0  0  0  0  0  0  0  0  0  0  0
   -2.8290    2.0500    0.0580 C   0  0  0  0  0  0  0  0  0  0  0  0
   -1.4660    1.8400    0.0040 C   0  0  0  0  0  0  0  0  0  0  0  0
   -0.5740    2.9270    0.1080 O   0  0  0  0  0  0  0  0  0  0  0  0
   -5.2300    0.9140   -0.0250 C   0  0  0  0  0  0  0  0  0  0  0  0
   -5.4500   -0.2980   -0.7000 O   0  0  0  0  0  0  0  0  0  0  0  0
   -4.4380   -1.1430   -0.2630 C   0  0  0  0  0  0  0  0  0  0  0  0
    3.0540    0.5370   -0.2460 C   0  0  0  0  0  0  0  0  0  0  0  0
  1  2  1  0
  2  3  2  0
  2 20  1  0
  3  4  1  0
  4  5  2  0
  5  6  1  0
  5  7  1  0
  7  8  1  0
  7 20  2  0
  8  9  1  0
  9 10  1  0
 10 11  2  0
 10 15  1  0
 11 12  1  0
 12 13  2  0
 12 19  1  0
 13 14  1  0
 13 17  1  0
 14 15  2  0
 15 16  1  0
 17 18  1  0
 18 19  1  0
M  END
