
     RDKit          3D

 20 21  0  0  0  0  0  0  0  0999 V2000
   -3.1530   -3.1040    1.0850 C   0  0  0  0  0  0  0  0  0  0  0  0
   -2.5730   -2.0940    0.0890 C   0  0  0  0  0  0  0  0  0  0  0  0
   -2.0300   -1.0530    0.8350 O   0  0  0  0  0  0  0  0  0  0  0  0
   -1.3980    0.0750    0.3380 C   0  0  0  0  0  0  0  0  0  0  0  0
   -2.2330    1.1870    0.0610 C   0  0  0  0  0  0  0  0  0  0  0  0
   -3.5740    1.0800    0.2940 O   0  0  0  0  0  0  0  0  0  0  0  0
   -1.6940    2.3430   -0.4310 C   0  0  0  0  0  0  0  0  0  0  0  0
   -2.4290    3.5500   -0.7570 C   0  0  0  0  0  0  0  0  0  0  0  0
   -3.6440    3.6770   -0.6260 O   0  0  0  0  0  0  0  0  0  0  0  0
   -1.7430    4.6710   -1.2580 O   0  0  0  0  0  0  0  0  0  0  0  0
   -0.3010    2.3350   -0.6300 C   0  0  0  0  0  0  0  0  0  0  0  0
    0.5130    1.2630   -0.3650 C   0  0  0  0  0  0  0  0  0  0  0  0
   -0.0420    0.1140    0.1280 C   0  0  0  0  0  0  0  0  0  0  0  0
    0.7550   -1.0720    0.4440 C   0  0  0  0  0  0  0  0  0  0  0  0
    2.1990   -0.9870    0.1050 C   0  0  2  0  0  0  0  0  0  0  0  0
    2.5100   -1.5490   -1.2750 C   0  0  0  0  0  0  0  0  0  0  0  0
    2.9610   -1.8430    1.0970 C   0  0  0  0  0  0  0  0  0  0  0  0
    2.7730    0.4030    0.1910 C   0  0  0  0  0  0  0  0  0  0  0  0
    1.9930    1.3990   -0.6270 C   0  0  2  0  0  0  0  0  0  0  0  0
    2.3460    2.6720   -0.1810 O   0  0  0  0  0  0  0  0  0  0  0  0
  1  2  1  0
  2  3  1  0
  3  4  1  0
  4  5  2  0
  4 13  1  0
  5  6  1  0
  5  7  1  0
  7  8  1  0
  7 11  2  0
  8  9  2  0
  8 10  1  0
 11 12  1  0
 12 13  2  0
 12 19  1  0
 13 14  1  0
 14 15  1  0
 15 16  1  6
 15 17  1  0
 15 18  1  0
 18 19  1  0
 19 20  1  1
M  END
