
     RDKit          3D

 20 21  0  0  0  0  0  0  0  0999 V2000
   -4.3820   -2.1170   -0.7220 C   0  0  0  0  0  0  0  0  0  0  0  0
   -3.4770   -2.2300    0.4560 C   0  0  0  0  0  0  0  0  0  0  0  0
   -2.3030   -1.4630    0.3460 O   0  0  0  0  0  0  0  0  0  0  0  0
   -2.2600   -0.1060    0.2080 C   0  0  0  0  0  0  0  0  0  0  0  0
   -3.4160    0.6290    0.1670 C   0  0  0  0  0  0  0  0  0  0  0  0
   -3.4020    2.0140    0.0270 C   0  0  0  0  0  0  0  0  0  0  0  0
   -2.2060    2.6640   -0.0740 C   0  0  0  0  0  0  0  0  0  0  0  0
   -2.1710    4.0620   -0.2160 O   0  0  0  0  0  0  0  0  0  0  0  0
   -1.0360    1.9600   -0.0370 C   0  0  0  0  0  0  0  0  0  0  0  0
   -1.0640    0.5700    0.1040 C   0  0  0  0  0  0  0  0  0  0  0  0
    0.2280   -0.1430    0.1390 C   0  0  0  0  0  0  0  0  0  0  0  0
    1.2740    0.7760    0.0150 O   0  0  0  0  0  0  0  0  0  0  0  0
    2.5860    0.3360    0.0210 C   0  0  0  0  0  0  0  0  0  0  0  0
    3.5790    1.2870   -0.1040 C   0  0  0  0  0  0  0  0  0  0  0  0
    4.8850    0.8470   -0.0970 C   0  0  0  0  0  0  0  0  0  0  0  0
    5.9020    1.8000   -0.2230 O   0  0  0  0  0  0  0  0  0  0  0  0
    5.2000   -0.4970    0.0290 C   0  0  0  0  0  0  0  0  0  0  0  0
    4.1790   -1.4150    0.1520 C   0  0  0  0  0  0  0  0  0  0  0  0
    4.4480   -2.7670    0.2810 O   0  0  0  0  0  0  0  0  0  0  0  0
    2.8720   -1.0070    0.1490 C   0  0  0  0  0  0  0  0  0  0  0  0
  1  2  1  0
  2  3  1  0
  3  4  1  0
  4  5  2  0
  4 10  1  0
  5  6  1  0
  6  7  2  0
  7  8  1  0
  7  9  1  0
  9 10  2  0
 10 11  1  0
 11 12  1  0
 12 13  1  0
 13 14  2  0
 13 20  1  0
 14 15  1  0
 15 16  1  0
 15 17  2  0
 17 18  1  0
 18 19  1  0
 18 20  2  0
M  END
