
     RDKit          3D

 20 21  0  0  0  0  0  0  0  0999 V2000
    3.8790    3.0060    0.6180 C   0  0  0  0  0  0  0  0  0  0  0  0
    4.3930    1.6910    0.4800 O   0  0  0  0  0  0  0  0  0  0  0  0
    3.5480    0.6000    0.2660 C   0  0  0  0  0  0  0  0  0  0  0  0
    4.1130   -0.6410    0.1420 C   0  0  0  0  0  0  0  0  0  0  0  0
    3.3390   -1.7750   -0.0710 C   0  0  0  0  0  0  0  0  0  0  0  0
    4.0460   -2.9690   -0.1800 O   0  0  0  0  0  0  0  0  0  0  0  0
    1.9730   -1.6660   -0.1600 C   0  0  0  0  0  0  0  0  0  0  0  0
    1.2290   -2.9390   -0.2890 C   0  0  0  0  0  0  0  0  0  0  0  0
    1.3360   -0.4400   -0.0470 C   0  0  0  0  0  0  0  0  0  0  0  0
    0.0800   -0.1890   -0.1100 O   0  0  0  0  0  0  0  0  0  0  0  0
   -1.1810    0.0620   -0.1720 C   0  0  0  0  0  0  0  0  0  0  0  0
   -1.6210    1.2820    0.4840 C   0  0  0  0  0  0  0  0  0  0  0  0
   -2.9200    1.6430    0.4810 C   0  0  0  0  0  0  0  0  0  0  0  0
   -3.8830    0.8770   -0.1390 C   0  0  0  0  0  0  0  0  0  0  0  0
   -5.3030    1.3140   -0.1120 C   0  0  0  0  0  0  0  0  0  0  0  0
   -5.9250    0.7100    0.9870 O   0  0  0  0  0  0  0  0  0  0  0  0
   -3.5270   -0.2780   -0.7730 C   0  0  0  0  0  0  0  0  0  0  0  0
   -2.1750   -0.6700   -0.7820 C   0  0  0  0  0  0  0  0  0  0  0  0
   -1.8760   -1.8350   -1.4530 O   0  0  0  0  0  0  0  0  0  0  0  0
    2.2040    0.7000    0.1750 C   0  0  0  0  0  0  0  0  0  0  0  0
  1  2  1  0
  2  3  1  0
  3  4  2  0
  3 20  1  0
  4  5  1  0
  5  6  1  0
  5  7  2  0
  7  8  1  0
  7  9  1  0
  9 10  1  0
  9 20  2  0
 10 11  1  0
 11 12  2  0
 11 18  1  0
 12 13  1  0
 13 14  2  0
 14 15  1  0
 14 17  1  0
 15 16  1  0
 17 18  2  0
 18 19  1  0
M  END
