
     RDKit          3D

 20 21  0  0  0  0  0  0  0  0999 V2000
   -2.4710    2.9050   -0.8770 O   0  0  0  0  0  0  0  0  0  0  0  0
   -2.2980    2.5950    0.4500 C   0  0  0  0  0  0  0  0  0  0  0  0
   -2.7480    1.1930    0.8130 C   0  0  0  0  0  0  0  0  0  0  0  0
   -1.9980    0.1340    0.0430 C   0  0  2  0  0  0  0  0  0  0  0  0
   -2.2380    0.3380   -1.3340 O   0  0  0  0  0  0  0  0  0  0  0  0
   -2.6060   -1.1970    0.4070 C   0  0  0  0  0  0  0  0  0  0  0  0
   -1.9360   -2.3530   -0.2970 C   0  0  0  0  0  0  0  0  0  0  0  0
   -2.5730   -3.5370    0.1110 O   0  0  0  0  0  0  0  0  0  0  0  0
   -0.5540    0.1250    0.2510 C   0  0  0  0  0  0  0  0  0  0  0  0
    0.0150    0.4690    1.4550 C   0  0  0  0  0  0  0  0  0  0  0  0
    1.3880    0.4300    1.5610 C   0  0  0  0  0  0  0  0  0  0  0  0
    1.9290    0.7740    2.7690 O   0  0  0  0  0  0  0  0  0  0  0  0
    2.1990    0.0570    0.4900 C   0  0  0  0  0  0  0  0  0  0  0  0
    3.5840    0.0240    0.6120 C   0  0  0  0  0  0  0  0  0  0  0  0
    4.3790   -0.3480   -0.4610 C   0  0  0  0  0  0  0  0  0  0  0  0
    5.7620   -0.3740   -0.3200 O   0  0  0  0  0  0  0  0  0  0  0  0
    3.8150   -0.6970   -1.6780 C   0  0  0  0  0  0  0  0  0  0  0  0
    2.4510   -0.6530   -1.7610 C   0  0  0  0  0  0  0  0  0  0  0  0
    1.6320   -0.2890   -0.7170 C   0  0  0  0  0  0  0  0  0  0  0  0
    0.2570   -0.2510   -0.8250 C   0  0  0  0  0  0  0  0  0  0  0  0
  1  2  1  0
  2  3  1  0
  3  4  1  0
  4  5  1  6
  4  6  1  0
  4  9  1  0
  6  7  1  0
  7  8  1  0
  9 10  2  0
  9 20  1  0
 10 11  1  0
 11 12  1  0
 11 13  2  0
 13 14  1  0
 13 19  1  0
 14 15  2  0
 15 16  1  0
 15 17  1  0
 17 18  2  0
 18 19  1  0
 19 20  2  0
M  END
