
     RDKit          3D

 14 14  0  0  0  0  0  0  0  0999 V2000
    4.2360    0.7090   -0.1080 C   0  0  0  0  0  0  0  0  0  0  0  0
    3.0630    1.0410    0.3900 C   0  0  0  0  0  0  0  0  0  0  0  0
    1.8680    0.2090    0.2690 C   0  0  0  0  0  0  0  0  0  0  0  0
    2.0140   -1.0530   -0.4630 C   0  0  0  0  0  0  0  0  0  0  0  0
    0.7420    0.5990    0.7900 C   0  0  0  0  0  0  0  0  0  0  0  0
   -0.5010   -0.1490    0.7290 C   0  0  1  0  0  0  0  0  0  0  0  0
   -0.4110   -1.6150    1.0340 C   0  0  0  0  0  0  0  0  0  0  0  0
   -1.5740    0.5230    2.0850 S   0  0  0  0  0  0  0  0  0  0  0  0
   -3.1010    0.2600    1.1290 C   0  0  0  0  0  0  0  0  0  0  0  0
   -4.2450    0.0460    1.5830 O   0  0  0  0  0  0  0  0  0  0  0  0
   -2.6080    0.3700   -0.2340 C   0  0  0  0  0  0  0  0  0  0  0  0
   -3.5780    0.6940   -1.3510 C   0  0  0  0  0  0  0  0  0  0  0  0
   -1.3550    0.1740   -0.4240 C   0  0  0  0  0  0  0  0  0  0  0  0
   -0.7360    0.2550   -1.7150 O   0  0  0  0  0  0  0  0  0  0  0  0
  1  2  2  0
  2  3  1  0
  3  4  1  0
  3  5  2  3
  5  6  1  0
  6  7  1  1
  6  8  1  0
  6 13  1  0
  8  9  1  0
  9 10  2  0
  9 11  1  0
 11 12  1  0
 11 13  2  0
 13 14  1  0
M  END
