
     RDKit          3D

 16 16  0  0  0  0  0  0  0  0999 V2000
   -4.2200   -1.3550    0.4160 C   0  0  0  0  0  0  0  0  0  0  0  0
   -3.3360   -0.1390    0.1660 C   0  0  1  0  0  0  0  0  0  0  0  0
   -3.5200    0.3000   -1.2880 C   0  0  0  0  0  0  0  0  0  0  0  0
   -3.6750    0.9780    1.0930 C   0  0  0  0  0  0  0  0  0  0  0  0
   -2.0000   -0.5890    0.2830 O   0  0  0  0  0  0  0  0  0  0  0  0
   -0.8940    0.2080    0.1280 C   0  0  0  0  0  0  0  0  0  0  0  0
   -1.0830    1.4230   -0.1380 O   0  0  0  0  0  0  0  0  0  0  0  0
    0.5020   -0.2790    0.2530 C   0  0  0  0  0  0  0  0  0  0  0  0
    1.4430    0.7340    0.0480 O   0  0  0  0  0  0  0  0  0  0  0  0
    2.7960    0.3550    0.1500 C   0  0  0  0  0  0  0  0  0  0  0  0
    3.2880    0.1930    1.3480 C   0  0  0  0  0  0  0  0  0  0  0  0
    4.7230   -0.2100    1.4890 C   0  0  0  0  0  0  0  0  0  0  0  0
    5.3520   -0.3600    0.2580 O   0  0  0  0  0  0  0  0  0  0  0  0
    4.8030   -0.1810   -0.9910 C   0  0  0  0  0  0  0  0  0  0  0  0
    3.5340    0.1740   -1.0710 C   0  0  0  0  0  0  0  0  0  0  0  0
    2.8980    0.3770   -2.3220 N   0  0  0  0  0  0  0  0  0  0  0  0
  2  1  1  1
  2  3  1  0
  2  4  1  0
  2  5  1  0
  5  6  1  0
  6  7  2  0
  6  8  1  0
  8  9  1  0
  9 10  1  0
 10 11  2  0
 10 15  1  0
 11 12  1  0
 12 13  1  0
 13 14  1  0
 14 15  2  0
 15 16  1  0
M  END
