
     RDKit          3D

 16 17  0  0  0  0  0  0  0  0999 V2000
    5.5250   -0.4080    0.1880 C   0  0  0  0  0  0  0  0  0  0  0  0
    4.7370    0.7410    0.0430 O   0  0  0  0  0  0  0  0  0  0  0  0
    3.3620    0.5950   -0.0810 C   0  0  0  0  0  0  0  0  0  0  0  0
    2.7960   -0.5310   -0.0670 O   0  0  0  0  0  0  0  0  0  0  0  0
    2.5480    1.8260   -0.2340 C   0  0  0  0  0  0  0  0  0  0  0  0
    1.1450    1.5410   -0.3510 N   0  0  0  0  0  0  0  0  0  0  0  0
    0.3980    0.8660    0.6560 C   0  0  0  0  0  0  0  0  0  0  0  0
    1.0040    0.4980    1.7090 O   0  0  0  0  0  0  0  0  0  0  0  0
   -1.0300    0.6220    0.4420 C   0  0  1  0  0  0  0  0  0  0  0  0
   -1.2950   -0.3310   -0.7070 C   0  0  0  0  0  0  0  0  0  0  0  0
   -2.6970   -0.7540   -0.4130 C   0  0  0  0  0  0  0  0  0  0  0  0
   -3.8110   -1.2230   -0.9340 C   0  0  0  0  0  0  0  0  0  0  0  0
   -4.8400   -1.3860    0.1250 C   0  0  0  0  0  0  0  0  0  0  0  0
   -4.0910   -0.9220    1.3180 C   0  0  0  0  0  0  0  0  0  0  0  0
   -2.8600   -0.5580    1.0160 C   0  0  0  0  0  0  0  0  0  0  0  0
   -1.6410   -0.0560    1.5240 O   0  0  0  0  0  0  0  0  0  0  0  0
  1  2  1  0
  2  3  1  0
  3  4  2  0
  3  5  1  0
  5  6  1  0
  6  7  1  0
  7  8  2  0
  9  7  1  1
  9 10  1  0
  9 16  1  0
 10 11  1  0
 11 12  2  0
 11 15  1  0
 12 13  1  0
 13 14  1  0
 14 15  2  0
 15 16  1  0
M  END
