
     RDKit          3D

 16 17  0  0  0  0  0  0  0  0999 V2000
    3.6030   -0.3180   -1.5680 N   0  0  0  0  0  0  0  0  0  0  0  0
    2.4040   -0.2620   -0.7430 C   0  0  1  0  0  0  0  0  0  0  0  0
    1.5700   -1.4780   -0.9240 C   0  0  0  0  0  0  0  0  0  0  0  0
    0.3210   -1.4990   -0.1100 C   0  0  0  0  0  0  0  0  0  0  0  0
   -0.4880   -0.4340   -0.4210 O   0  0  0  0  0  0  0  0  0  0  0  0
   -1.6630   -0.3940    0.2990 C   0  0  1  0  0  0  0  0  0  0  0  0
   -1.6910    0.8870    1.0890 C   0  0  0  0  0  0  0  0  0  0  0  0
   -3.0650    1.2330    1.5970 C   0  0  0  0  0  0  0  0  0  0  0  0
   -3.9490    1.2830    0.5390 O   0  0  0  0  0  0  0  0  0  0  0  0
   -4.1100    0.0530   -0.0510 C   0  0  0  0  0  0  0  0  0  0  0  0
   -2.8370   -0.4960   -0.6390 C   0  0  0  0  0  0  0  0  0  0  0  0
    2.8460   -0.0250    0.6850 C   0  0  0  0  0  0  0  0  0  0  0  0
    3.2820    1.4450    0.5720 C   0  0  0  0  0  0  0  0  0  0  0  0
    2.2110    1.9680   -0.1930 O   0  0  0  0  0  0  0  0  0  0  0  0
    1.7250    0.9970   -1.0630 C   0  0  0  0  0  0  0  0  0  0  0  0
    0.8560    1.2300   -1.9450 O   0  0  0  0  0  0  0  0  0  0  0  0
  2  1  1  6
  2  3  1  0
  2 12  1  0
  2 15  1  0
  3  4  1  0
  4  5  1  0
  6  5  1  6
  6  7  1  0
  6 11  1  0
  7  8  1  0
  8  9  1  0
  9 10  1  0
 10 11  1  0
 12 13  1  0
 13 14  1  0
 14 15  1  0
 15 16  2  0
M  END
