
     RDKit          3D

 16 17  0  0  0  0  0  0  0  0999 V2000
    5.0450    0.0330    0.1660 C   0  0  0  0  0  0  0  0  0  0  0  0
    4.0180    1.0220   -0.2080 C   0  0  0  0  0  0  0  0  0  0  0  0
    4.4410    2.1610   -0.5850 O   0  0  0  0  0  0  0  0  0  0  0  0
    2.6090    0.7980   -0.1800 C   0  0  0  0  0  0  0  0  0  0  0  0
    1.3670    2.0490   -0.6500 S   0  0  0  0  0  0  0  0  0  0  0  0
   -0.0620    0.8760   -0.2980 C   0  0  0  0  0  0  0  0  0  0  0  0
   -1.4020    1.4010   -0.5230 N   0  0  0  0  0  0  0  0  0  0  0  0
   -2.5360    0.6120   -0.2910 C   0  0  0  0  0  0  0  0  0  0  0  0
   -3.7830    1.1710   -0.5250 C   0  0  0  0  0  0  0  0  0  0  0  0
   -4.9500    0.4680   -0.3240 C   0  0  0  0  0  0  0  0  0  0  0  0
   -4.8900   -0.8340    0.1230 C   0  0  0  0  0  0  0  0  0  0  0  0
   -3.6730   -1.4210    0.3650 C   0  0  0  0  0  0  0  0  0  0  0  0
   -2.5010   -0.6880    0.1540 C   0  0  0  0  0  0  0  0  0  0  0  0
    0.5230   -0.0700    0.0460 N   0  0  0  0  0  0  0  0  0  0  0  0
    1.8170   -0.2640    0.1560 C   0  0  0  0  0  0  0  0  0  0  0  0
    2.4530   -1.5600    0.6220 C   0  0  0  0  0  0  0  0  0  0  0  0
  1  2  1  0
  2  3  2  0
  2  4  1  0
  4  5  1  0
  4 15  2  0
  5  6  1  0
  6  7  1  0
  6 14  2  0
  7  8  1  0
  8  9  2  0
  8 13  1  0
  9 10  1  0
 10 11  2  0
 11 12  1  0
 12 13  2  0
 14 15  1  0
 15 16  1  0
M  END
