
     RDKit          3D

 19 21  0  0  0  0  0  0  0  0999 V2000
    5.0900   -0.9560    0.6960 C   0  0  0  0  0  0  0  0  0  0  0  0
    3.7110   -0.5610    0.3610 C   0  0  0  0  0  0  0  0  0  0  0  0
    2.6370   -0.9630    1.1100 C   0  0  0  0  0  0  0  0  0  0  0  0
    1.3400   -0.5890    0.7930 C   0  0  0  0  0  0  0  0  0  0  0  0
    0.1800   -1.0460    1.5970 C   0  0  0  0  0  0  0  0  0  0  0  0
    1.1850    0.2230   -0.3320 C   0  0  0  0  0  0  0  0  0  0  0  0
    0.0930    0.7660   -0.9300 C   0  0  0  0  0  0  0  0  0  0  0  0
   -1.3080    0.6450   -0.5320 C   0  0  0  0  0  0  0  0  0  0  0  0
   -1.7990    1.1000    0.6610 C   0  0  0  0  0  0  0  0  0  0  0  0
   -3.1040    0.9930    0.9280 N   0  0  0  0  0  0  0  0  0  0  0  0
   -3.9460    0.4410    0.0380 C   0  0  0  0  0  0  0  0  0  0  0  0
   -5.2210    0.3580    0.3440 N   0  0  0  0  0  0  0  0  0  0  0  0
   -3.5020   -0.0340   -1.1770 C   0  0  0  0  0  0  0  0  0  0  0  0
   -2.1590    0.0780   -1.4490 C   0  0  0  0  0  0  0  0  0  0  0  0
   -1.7330   -0.4100   -2.6870 O   0  0  0  0  0  0  0  0  0  0  0  0
    0.5510    1.4650   -2.0090 N   0  0  0  0  0  0  0  0  0  0  0  0
    1.8400    1.3900   -2.1110 N   0  0  0  0  0  0  0  0  0  0  0  0
    2.2670    0.6220   -1.0790 C   0  0  0  0  0  0  0  0  0  0  0  0
    3.4990    0.2160   -0.7080 N   0  0  0  0  0  0  0  0  0  0  0  0
  1  2  1  0
  2  3  2  0
  2 19  1  0
  3  4  1  0
  4  5  1  0
  4  6  2  0
  6  7  1  0
  6 18  1  0
  7  8  1  0
  7 16  2  0
  8  9  2  0
  8 14  1  0
  9 10  1  0
 10 11  1  0
 11 12  2  0
 11 13  1  0
 13 14  2  0
 14 15  1  0
 16 17  1  0
 17 18  1  0
 18 19  2  0
M  CHG  1  12   1
M  END
