
     RDKit          3D

 19 21  0  0  0  0  0  0  0  0999 V2000
    1.2480    0.3800   -0.8960 N   0  0  0  0  0  0  0  0  0  0  0  0
    1.2760   -0.6500    0.0620 C   0  0  0  0  0  0  0  0  0  0  0  0
    2.4010   -1.1570    0.3810 N   0  0  0  0  0  0  0  0  0  0  0  0
    3.5960   -0.7050   -0.2050 N   0  0  0  0  0  0  0  0  0  0  0  0
    4.0720    0.6370   -0.0820 C   0  0  0  0  0  0  0  0  0  0  0  0
    5.3240    0.7640   -0.8030 N   0  0  0  0  0  0  0  0  0  0  0  0
    0.0100   -1.1060    0.6610 C   0  0  0  0  0  0  0  0  0  0  0  0
   -0.1800   -2.0700    1.5870 N   0  0  0  0  0  0  0  0  0  0  0  0
   -1.5130   -2.1800    1.8720 C   0  0  0  0  0  0  0  0  0  0  0  0
   -2.2520   -1.3420    1.1910 C   0  0  0  0  0  0  0  0  0  0  0  0
   -3.4280   -0.7520    0.8010 C   0  0  0  0  0  0  0  0  0  0  0  0
   -4.0130    0.4130    1.3210 C   0  0  0  0  0  0  0  0  0  0  0  0
   -3.2430    1.7040    1.1000 C   0  0  0  0  0  0  0  0  0  0  0  0
   -2.3330    1.6490   -0.0700 C   0  0  0  0  0  0  0  0  0  0  0  0
   -1.8140    0.3560   -0.4520 C   0  0  0  0  0  0  0  0  0  0  0  0
   -2.6370    0.1120   -1.7140 C   0  0  0  0  0  0  0  0  0  0  0  0
   -3.6430   -0.8540   -1.6980 C   0  0  0  0  0  0  0  0  0  0  0  0
   -4.2370   -1.2590   -0.3060 O   0  0  0  0  0  0  0  0  0  0  0  0
   -1.1240   -0.5350    0.2840 C   0  0  0  0  0  0  0  0  0  0  0  0
  1  2  1  0
  2  3  2  3
  2  7  1  0
  3  4  1  0
  4  5  1  0
  5  6  1  0
  7  8  2  0
  7 19  1  0
  8  9  1  0
  9 10  2  0
 10 11  1  0
 10 19  1  0
 11 12  2  0
 11 18  1  0
 12 13  1  0
 13 14  2  0
 14 15  1  0
 15 16  1  0
 15 19  2  0
 16 17  2  0
 17 18  1  0
M  CHG  1   6   1
M  END
