
     RDKit          3D

 16 17  0  0  0  0  0  0  0  0999 V2000
   -3.1080   -0.3510    2.1900 C   0  0  0  0  0  0  0  0  0  0  0  0
   -2.4640   -0.2900    0.8270 C   0  0  2  0  0  0  0  0  0  0  0  0
   -1.1340    0.4650    0.9500 C   0  0  0  0  0  0  0  0  0  0  0  0
   -0.4980    0.3680   -0.3400 N   0  0  0  0  0  0  0  0  0  0  0  0
    0.8100   -0.1520   -0.5120 C   0  0  0  0  0  0  0  0  0  0  0  0
    1.3260   -0.2190   -1.6490 O   0  0  0  0  0  0  0  0  0  0  0  0
    1.6000   -0.6130    0.5270 O   0  0  0  0  0  0  0  0  0  0  0  0
    2.8780   -1.1270    0.3990 C   0  0  0  0  0  0  0  0  0  0  0  0
    3.8940   -0.1990   -0.1900 C   0  0  2  0  0  0  0  0  0  0  0  0
    5.2840   -0.8220   -0.3060 C   0  0  0  0  0  0  0  0  0  0  0  0
    5.0530    0.2740    0.6870 C   0  0  0  0  0  0  0  0  0  0  0  0
   -1.2130    0.8170   -1.5130 C   0  0  0  0  0  0  0  0  0  0  0  0
   -2.6560    0.3820   -1.5120 C   0  0  0  0  0  0  0  0  0  0  0  0
   -3.2940    0.4730   -0.1640 C   0  0  1  0  0  0  0  0  0  0  0  0
   -4.6110    0.0720   -0.1960 O   0  0  0  0  0  0  0  0  0  0  0  0
   -3.2630    1.8250    0.2430 O   0  0  0  0  0  0  0  0  0  0  0  0
  2  1  1  1
  2  3  1  0
  2 14  1  0
  3  4  1  0
  4  5  1  0
  4 12  1  0
  5  6  2  0
  5  7  1  0
  7  8  1  0
  9  8  1  1
  9 10  1  0
  9 11  1  0
 10 11  1  0
 12 13  1  0
 13 14  1  0
 14 15  1  6
 14 16  1  0
M  END
