
     RDKit          3D

 16 17  0  0  0  0  0  0  0  0999 V2000
    0.1110    3.2250    0.0850 C   0  0  0  0  0  0  0  0  0  0  0  0
    0.3540    2.4470   -1.0800 O   0  0  0  0  0  0  0  0  0  0  0  0
    0.7470    1.1310   -0.8730 C   0  0  0  0  0  0  0  0  0  0  0  0
    2.0880    0.7780   -0.7530 C   0  0  0  0  0  0  0  0  0  0  0  0
    3.0540    1.7660   -0.8450 O   0  0  0  0  0  0  0  0  0  0  0  0
    2.4340   -0.5470   -0.5470 C   0  0  0  0  0  0  0  0  0  0  0  0
    3.7800   -0.8490   -0.4350 O   0  0  0  0  0  0  0  0  0  0  0  0
    1.4400   -1.4970   -0.4620 C   0  0  0  0  0  0  0  0  0  0  0  0
    1.7940   -2.9260   -0.2400 C   0  0  0  0  0  0  0  0  0  0  0  0
    0.1190   -1.1460   -0.5800 C   0  0  0  0  0  0  0  0  0  0  0  0
   -0.2170    0.1770   -0.7860 C   0  0  0  0  0  0  0  0  0  0  0  0
   -1.6470    0.5080   -0.9060 C   0  0  0  0  0  0  0  0  0  0  0  0
   -2.5020   -0.3000   -0.1070 N   0  0  0  0  0  0  0  0  0  0  0  0
   -2.9020    0.2730    1.1370 C   0  0  0  0  0  0  0  0  0  0  0  0
   -2.2320   -1.6860   -0.0970 C   0  0  0  0  0  0  0  0  0  0  0  0
   -0.9340   -2.0480   -0.5050 O   0  0  0  0  0  0  0  0  0  0  0  0
  1  2  1  0
  2  3  1  0
  3  4  2  0
  3 11  1  0
  4  5  1  0
  4  6  1  0
  6  7  1  0
  6  8  2  0
  8  9  1  0
  8 10  1  0
 10 11  2  0
 10 16  1  0
 11 12  1  0
 12 13  1  0
 13 14  1  0
 13 15  1  0
 15 16  1  0
M  END
