
     RDKit          3D

 16 17  0  0  0  0  0  0  0  0999 V2000
   -3.9290   -1.0560   -0.4340 C   0  0  0  0  0  0  0  0  0  0  0  0
   -3.0770    0.1690   -0.3220 C   0  0  0  0  0  0  0  0  0  0  0  0
   -1.6390   -0.1470   -0.1450 C   0  0  0  0  0  0  0  0  0  0  0  0
   -1.0770   -1.3660   -0.0810 N   0  0  0  0  0  0  0  0  0  0  0  0
    0.2620   -1.1910    0.0860 C   0  0  0  0  0  0  0  0  0  0  0  0
    0.5470    0.1450    0.1290 C   0  0  0  0  0  0  0  0  0  0  0  0
   -0.6600    0.8090   -0.0180 C   0  0  0  0  0  0  0  0  0  0  0  0
   -0.8050    2.2560   -0.0290 C   0  0  0  0  0  0  0  0  0  0  0  0
    0.1690    3.0130    0.0950 O   0  0  0  0  0  0  0  0  0  0  0  0
   -2.0580    2.8640   -0.1820 O   0  0  0  0  0  0  0  0  0  0  0  0
    1.9380    0.6220    0.3140 C   0  0  0  0  0  0  0  0  0  0  0  0
    2.8780   -0.3690   -0.3050 C   0  0  1  0  0  0  0  0  0  0  0  0
    4.3230    0.0540   -0.1850 C   0  0  0  0  0  0  0  0  0  0  0  0
    2.6600   -1.6230    0.3610 O   0  0  0  0  0  0  0  0  0  0  0  0
    1.3790   -2.1360    0.2100 C   0  0  0  0  0  0  0  0  0  0  0  0
    1.0950   -3.3590    0.1700 O   0  0  0  0  0  0  0  0  0  0  0  0
  1  2  1  0
  2  3  1  0
  3  4  1  0
  3  7  2  0
  4  5  1  0
  5  6  2  0
  5 15  1  0
  6  7  1  0
  6 11  1  0
  7  8  1  0
  8  9  2  0
  8 10  1  0
 11 12  1  0
 12 13  1  1
 12 14  1  0
 14 15  1  0
 15 16  2  0
M  END
