
     RDKit          3D

 20 22  0  0  0  0  0  0  0  0999 V2000
   -4.7780   -1.6220   -0.6300 C   0  0  0  0  0  0  0  0  0  0  0  0
   -3.4830   -1.5300   -0.4070 C   0  0  0  0  0  0  0  0  0  0  0  0
   -2.6560   -2.6810   -0.6380 N   0  0  0  0  0  0  0  0  0  0  0  0
   -1.2650   -2.8640   -0.3830 C   0  0  0  0  0  0  0  0  0  0  0  0
   -0.7700   -3.9870   -0.4230 O   0  0  0  0  0  0  0  0  0  0  0  0
   -0.3390   -1.7600   -0.0630 C   0  0  0  0  0  0  0  0  0  0  0  0
    1.0210   -1.7960   -0.3230 C   0  0  0  0  0  0  0  0  0  0  0  0
    1.5700   -0.6070    0.1000 C   0  0  0  0  0  0  0  0  0  0  0  0
    2.8500   -0.1550    0.0690 N   0  0  0  0  0  0  0  0  0  0  0  0
    3.2120    1.0530    0.5340 C   0  0  0  0  0  0  0  0  0  0  0  0
    4.6140    1.5550    0.5030 C   0  0  0  0  0  0  0  0  0  0  0  0
    5.4840    0.4880   -0.1210 C   0  0  0  0  0  0  0  0  0  0  0  0
    2.1840    1.8420    1.0640 C   0  0  0  0  0  0  0  0  0  0  0  0
    0.8800    1.3960    1.1020 C   0  0  0  0  0  0  0  0  0  0  0  0
    0.5550    0.1440    0.6110 C   0  0  0  0  0  0  0  0  0  0  0  0
   -0.5830   -0.5680    0.5030 N   0  0  0  0  0  0  0  0  0  0  0  0
   -1.8390    0.0130    0.9890 C   0  0  0  0  0  0  0  0  0  0  0  0
   -2.9790   -0.2340    0.0610 C   0  0  0  0  0  0  0  0  0  0  0  0
   -3.5910    0.8470   -0.3930 C   0  0  0  0  0  0  0  0  0  0  0  0
   -3.1990    2.2170   -0.0110 C   0  0  0  0  0  0  0  0  0  0  0  0
  1  2  2  0
  2  3  1  0
  2 18  1  0
  3  4  1  0
  4  5  2  0
  4  6  1  0
  6  7  2  0
  6 16  1  0
  7  8  1  0
  8  9  2  0
  8 15  1  0
  9 10  1  0
 10 11  1  0
 10 13  2  0
 11 12  1  0
 13 14  1  0
 14 15  2  0
 15 16  1  0
 16 17  1  0
 17 18  1  0
 18 19  2  3
 19 20  1  0
M  CHG  1   9   1
M  END
