
     RDKit          3D

 20 22  0  0  0  0  0  0  0  0999 V2000
   -4.8230   -1.0530   -0.2950 C   0  0  0  0  0  0  0  0  0  0  0  0
   -3.6170   -0.5110    0.2450 N   0  0  1  0  0  0  0  0  0  0  0  0
   -3.3460   -1.0370    1.5670 C   0  0  0  0  0  0  0  0  0  0  0  0
   -2.4840   -0.7300   -0.5940 C   0  0  0  0  0  0  0  0  0  0  0  0
   -2.6120   -1.4030   -1.7900 C   0  0  0  0  0  0  0  0  0  0  0  0
   -1.5410   -1.6280   -2.6180 C   0  0  0  0  0  0  0  0  0  0  0  0
   -0.2980   -1.1570   -2.2240 C   0  0  0  0  0  0  0  0  0  0  0  0
   -0.1550   -0.4900   -1.0440 C   0  0  0  0  0  0  0  0  0  0  0  0
    1.1390    0.0340   -0.5720 C   0  0  0  0  0  0  0  0  0  0  0  0
    1.1900    0.7030    0.6470 C   0  0  0  0  0  0  0  0  0  0  0  0
    2.4060    1.1840    1.0720 C   0  0  0  0  0  0  0  0  0  0  0  0
    2.5360    1.8620    2.2760 C   0  0  0  0  0  0  0  0  0  0  0  0
    3.7420    2.3430    2.7040 C   0  0  0  0  0  0  0  0  0  0  0  0
    4.8530    2.1500    1.9190 C   0  0  0  0  0  0  0  0  0  0  0  0
    4.8020    1.4890    0.7160 C   0  0  0  0  0  0  0  0  0  0  0  0
    3.5470    1.0140    0.3170 C   0  0  0  0  0  0  0  0  0  0  0  0
    3.4730    0.3520   -0.8790 C   0  0  0  0  0  0  0  0  0  0  0  0
    4.5110    0.1930   -1.5720 O   0  0  0  0  0  0  0  0  0  0  0  0
    2.2540   -0.1200   -1.2850 N   0  0  0  0  0  0  0  0  0  0  0  0
   -1.2610   -0.2980   -0.2640 N   0  0  0  0  0  0  0  0  0  0  0  0
  2  1  1  6
  2  3  1  0
  2  4  1  0
  4  5  2  0
  4 20  1  0
  5  6  1  0
  6  7  2  0
  7  8  1  0
  8  9  1  0
  8 20  2  0
  9 10  2  0
  9 19  1  0
 10 11  1  0
 11 12  2  0
 11 16  1  0
 12 13  1  0
 13 14  2  0
 14 15  1  0
 15 16  2  0
 16 17  1  0
 17 18  2  0
 17 19  1  0
M  CHG  1   2   1
M  END
