
     RDKit          3D

 20 23  0  0  0  0  0  0  0  0999 V2000
    5.4110    0.0140    1.4880 C   0  0  0  0  0  0  0  0  0  0  0  0
    4.2860    0.2880    2.2370 C   0  0  0  0  0  0  0  0  0  0  0  0
    3.0700    0.3080    1.6610 N   0  0  0  0  0  0  0  0  0  0  0  0
    2.9660    0.0590    0.3490 C   0  0  0  0  0  0  0  0  0  0  0  0
    4.0500   -0.2230   -0.4600 C   0  0  0  0  0  0  0  0  0  0  0  0
    5.3110   -0.2440    0.1370 C   0  0  0  0  0  0  0  0  0  0  0  0
    3.6170   -0.4250   -1.7190 N   0  0  0  0  0  0  0  0  0  0  0  0
    2.2790   -0.2770   -1.7210 C   0  0  0  0  0  0  0  0  0  0  0  0
    1.3330   -0.3770   -2.7470 C   0  0  0  0  0  0  0  0  0  0  0  0
    0.0030   -0.1730   -2.4670 C   0  0  0  0  0  0  0  0  0  0  0  0
   -0.4620    0.1290   -1.2050 C   0  0  0  0  0  0  0  0  0  0  0  0
   -1.9060    0.3420   -0.9390 C   0  0  0  0  0  0  0  0  0  0  0  0
   -2.1950    0.6450    0.4220 N   0  0  1  0  0  0  0  0  0  0  0  0
   -3.5730    1.1510    0.4750 C   0  0  0  0  0  0  0  0  0  0  0  0
   -4.5660    0.1180    0.0210 C   0  0  0  0  0  0  0  0  0  0  0  0
   -4.0930   -1.1680    0.3460 O   0  0  0  0  0  0  0  0  0  0  0  0
   -3.4730   -1.0420    1.5920 C   0  0  0  0  0  0  0  0  0  0  0  0
   -2.0900   -0.4620    1.3180 C   0  0  0  0  0  0  0  0  0  0  0  0
    0.4860    0.2230   -0.2080 C   0  0  0  0  0  0  0  0  0  0  0  0
    1.8440    0.0200   -0.4690 C   0  0  0  0  0  0  0  0  0  0  0  0
  1  2  2  0
  1  6  1  0
  2  3  1  0
  3  4  2  0
  4  5  1  0
  4 20  1  0
  5  6  2  0
  5  7  1  0
  7  8  1  0
  8  9  2  0
  8 20  1  0
  9 10  1  0
 10 11  2  0
 11 12  1  0
 11 19  1  0
 13 12  1  6
 13 14  1  0
 13 18  1  0
 14 15  1  0
 15 16  1  0
 16 17  1  0
 17 18  1  0
 19 20  2  0
M  CHG  1  13   1
M  END
