
     RDKit          3D

 20 23  0  0  0  0  0  0  0  0999 V2000
    5.7830   -1.7750   -0.3970 C   0  0  0  0  0  0  0  0  0  0  0  0
    5.5040   -0.3610   -0.8630 C   0  0  0  0  0  0  0  0  0  0  0  0
    4.0700   -0.0660   -0.5530 C   0  0  0  0  0  0  0  0  0  0  0  0
    3.0740   -0.3390   -1.4690 C   0  0  0  0  0  0  0  0  0  0  0  0
    1.7720   -0.0460   -1.1280 C   0  0  0  0  0  0  0  0  0  0  0  0
    1.4120    0.5050    0.0780 C   0  0  0  0  0  0  0  0  0  0  0  0
    0.0330    0.8170    0.4450 C   0  0  2  0  0  0  0  0  0  0  0  0
   -0.8960   -0.3060    0.3220 C   0  0  0  0  0  0  0  0  0  0  0  0
   -2.1920   -0.0610    0.1880 C   0  0  0  0  0  0  0  0  0  0  0  0
   -3.3090   -0.9510    0.0500 N   0  0  0  0  0  0  0  0  0  0  0  0
   -4.5020   -0.2070    0.3480 C   0  0  2  0  0  0  0  0  0  0  0  0
   -5.3760   -0.5150    1.4820 C   0  0  0  0  0  0  0  0  0  0  0  0
   -5.8470   -0.7470    0.0540 C   0  0  0  0  0  0  0  0  0  0  0  0
   -4.1150    1.1600    0.0050 C   0  0  0  0  0  0  0  0  0  0  0  0
   -4.9270    2.0580   -0.3600 O   0  0  0  0  0  0  0  0  0  0  0  0
   -2.7130    1.2600    0.1580 N   0  0  0  0  0  0  0  0  0  0  0  0
   -1.8060    2.4120    0.2770 C   0  0  0  0  0  0  0  0  0  0  0  0
   -0.5270    1.9480   -0.4340 C   0  0  0  0  0  0  0  0  0  0  0  0
    2.3950    0.7620    0.9550 N   0  0  0  0  0  0  0  0  0  0  0  0
    3.6840    0.4860    0.6510 C   0  0  0  0  0  0  0  0  0  0  0  0
  1  2  1  0
  2  3  1  0
  3  4  2  0
  3 20  1  0
  4  5  1  0
  5  6  2  0
  7  6  1  6
  6 19  1  0
  7  8  1  0
  7 18  1  0
  8  9  2  0
  9 10  1  0
  9 16  1  0
 10 11  1  0
 11 12  1  1
 11 13  1  0
 11 14  1  0
 12 13  1  0
 14 15  2  0
 14 16  1  0
 16 17  1  0
 17 18  1  0
 19 20  2  0
M  CHG  1  19   1
M  END
