
     RDKit          3D

 20 23  0  0  0  0  0  0  0  0999 V2000
   -0.3640   -1.0040   -1.2630 C   0  0  0  0  0  0  0  0  0  0  0  0
   -1.6830   -1.2330   -1.6220 C   0  0  0  0  0  0  0  0  0  0  0  0
   -2.6370   -0.4910   -0.9440 C   0  0  0  0  0  0  0  0  0  0  0  0
   -2.2470    0.4250    0.0370 C   0  0  0  0  0  0  0  0  0  0  0  0
   -0.9570    0.6080    0.3460 C   0  0  0  0  0  0  0  0  0  0  0  0
    0.0230   -0.1100   -0.3040 C   0  0  0  0  0  0  0  0  0  0  0  0
    1.4280    0.0910    0.0330 C   0  0  0  0  0  0  0  0  0  0  0  0
    1.7620    0.9820    0.9840 N   0  0  0  0  0  0  0  0  0  0  0  0
    3.0260    1.2320    1.3600 C   0  0  0  0  0  0  0  0  0  0  0  0
    4.0240    0.5350    0.7330 C   0  0  0  0  0  0  0  0  0  0  0  0
    3.7200   -0.3860   -0.2470 C   0  0  0  0  0  0  0  0  0  0  0  0
    2.4250   -0.5730   -0.5590 N   0  0  0  0  0  0  0  0  0  0  0  0
    4.9950   -1.0000   -0.7620 C   0  0  0  0  0  0  0  0  0  0  0  0
    5.8980   -0.8220    0.4630 C   0  0  0  0  0  0  0  0  0  0  0  0
    5.4990    0.5690    0.9040 C   0  0  0  0  0  0  0  0  0  0  0  0
   -3.1720    1.3340    0.8890 C   0  0  0  0  0  0  0  0  0  0  0  0
   -4.4110    0.8750    0.5810 N   0  0  0  0  0  0  0  0  0  0  0  0
   -5.5850    0.3610    0.2150 C   0  0  0  0  0  0  0  0  0  0  0  0
   -5.2240   -0.7840   -0.8000 C   0  0  0  0  0  0  0  0  0  0  0  0
   -3.9470   -0.7130   -1.2950 O   0  0  0  0  0  0  0  0  0  0  0  0
  1  2  2  0
  1  6  1  0
  2  3  1  0
  3  4  2  0
  3 20  1  0
  4  5  1  0
  4 16  1  0
  5  6  2  0
  6  7  1  0
  7  8  2  0
  7 12  1  0
  8  9  1  0
  9 10  2  0
 10 11  1  0
 10 15  1  0
 11 12  2  0
 11 13  1  0
 13 14  1  0
 14 15  1  0
 16 17  1  0
 17 18  1  0
 18 19  1  0
 19 20  1  0
M  CHG  1  17   1
M  END
