
     RDKit          3D

 21 22  0  0  0  0  0  0  0  0999 V2000
    5.9770    1.3920    0.1000 C   0  0  0  0  0  0  0  0  0  0  0  0
    6.2730    0.4050    1.0910 N   0  0  0  0  0  0  0  0  0  0  0  0
    6.5780   -0.8880    0.5830 C   0  0  0  0  0  0  0  0  0  0  0  0
    5.3960   -1.5320   -0.0050 C   0  0  0  0  0  0  0  0  0  0  0  0
    5.5220   -2.7030   -0.5160 O   0  0  0  0  0  0  0  0  0  0  0  0
    4.1110   -0.9330   -0.0430 N   0  0  0  0  0  0  0  0  0  0  0  0
    3.0350   -1.6790   -0.6500 C   0  0  0  0  0  0  0  0  0  0  0  0
    1.8010   -0.8540   -0.5950 C   0  0  0  0  0  0  0  0  0  0  0  0
    1.6960    0.5550   -0.7110 C   0  0  0  0  0  0  0  0  0  0  0  0
    0.4940    1.0980   -0.6290 C   0  0  0  0  0  0  0  0  0  0  0  0
   -0.6040    0.2100   -0.4290 C   0  0  0  0  0  0  0  0  0  0  0  0
   -1.9660    0.6120   -0.3180 N   0  0  0  0  0  0  0  0  0  0  0  0
   -2.9520   -0.3680   -0.1130 C   0  0  0  0  0  0  0  0  0  0  0  0
   -2.5740   -1.5640   -0.0370 O   0  0  0  0  0  0  0  0  0  0  0  0
   -4.3370   -0.0800    0.0120 N   0  0  0  0  0  0  0  0  0  0  0  0
   -5.2310   -1.1850    0.2220 C   0  0  0  0  0  0  0  0  0  0  0  0
   -6.6520   -0.8560    0.2470 C   0  0  0  0  0  0  0  0  0  0  0  0
   -7.0830    0.3670    0.0650 C   0  0  0  0  0  0  0  0  0  0  0  0
   -6.2100    1.5000   -0.1750 C   0  0  0  0  0  0  0  0  0  0  0  0
   -4.7520    1.2840   -0.0800 C   0  0  0  0  0  0  0  0  0  0  0  0
    0.1410   -1.3100   -0.3720 S   0  0  0  0  0  0  0  0  0  0  0  0
  1  2  1  0
  2  3  1  0
  3  4  1  0
  4  5  2  0
  4  6  1  0
  6  7  1  0
  7  8  1  0
  8  9  2  0
  8 21  1  0
  9 10  1  0
 10 11  2  0
 11 12  1  0
 11 21  1  0
 12 13  1  0
 13 14  2  0
 13 15  1  0
 15 16  1  0
 15 20  1  0
 16 17  1  0
 17 18  2  0
 18 19  1  0
 19 20  1  0
M  END
