
     RDKit          3D

 22 22  0  0  0  0  0  0  0  0999 V2000
   -3.5390    2.8040   -0.0820 C   0  0  0  0  0  0  0  0  0  0  0  0
   -3.9550    1.3510   -0.0840 C   0  0  0  0  0  0  0  0  0  0  0  0
   -3.0450    0.3780   -0.0530 C   0  0  0  0  0  0  0  0  0  0  0  0
   -1.6600    0.8450   -0.0140 C   0  0  0  0  0  0  0  0  0  0  0  0
   -0.6290    0.0420    0.0260 C   0  0  0  0  0  0  0  0  0  0  0  0
    0.7780    0.4860    0.0640 C   0  0  0  0  0  0  0  0  0  0  0  0
    1.2100    1.8930    0.0640 C   0  0  0  0  0  0  0  0  0  0  0  0
    1.7560   -0.4190    0.1040 C   0  0  0  0  0  0  0  0  0  0  0  0
    3.1700   -0.0370    0.1430 C   0  0  0  0  0  0  0  0  0  0  0  0
    4.1510   -0.8790    0.1820 C   0  0  0  0  0  0  0  0  0  0  0  0
    5.5300   -0.3670    0.2180 C   0  0  0  0  0  0  0  0  0  0  0  0
    5.7440    1.0830    0.2080 C   0  0  0  0  0  0  0  0  0  0  0  0
    6.5340   -1.2050    0.2580 C   0  0  0  0  0  0  0  0  0  0  0  0
    7.9460   -0.8990    0.2980 C   0  0  0  0  0  0  0  0  0  0  0  0
    8.4730    0.2140    0.3010 O   0  0  0  0  0  0  0  0  0  0  0  0
    8.8480   -1.9830    0.3380 O   0  0  0  0  0  0  0  0  0  0  0  0
   -3.3510   -1.0680   -0.0660 C   0  0  2  0  0  0  0  0  0  0  0  0
   -2.8580   -1.8140    1.1490 C   0  0  0  0  0  0  0  0  0  0  0  0
   -2.7660   -1.7510   -1.2910 C   0  0  0  0  0  0  0  0  0  0  0  0
   -4.8420   -1.3260   -0.1330 C   0  0  0  0  0  0  0  0  0  0  0  0
   -5.5600   -0.2470   -0.9080 C   0  0  0  0  0  0  0  0  0  0  0  0
   -5.3860    1.0170   -0.1050 C   0  0  0  0  0  0  0  0  0  0  0  0
  1  2  1  0
  2  3  2  0
  2 22  1  0
  3  4  1  0
  3 17  1  0
  4  5  2  3
  5  6  1  0
  6  7  1  0
  6  8  2  3
  8  9  1  0
  9 10  2  3
 10 11  1  0
 11 12  1  0
 11 13  2  3
 13 14  1  0
 14 15  2  0
 14 16  1  0
 17 18  1  1
 17 19  1  0
 17 20  1  0
 20 21  1  0
 21 22  1  0
M  END
