
     RDKit          3D

 18 19  0  0  0  0  0  0  0  0999 V2000
   -3.7610   -0.7000    0.7100 C   0  0  0  0  0  0  0  0  0  0  0  0
   -2.7080    0.0630   -0.0140 C   0  0  0  0  0  0  0  0  0  0  0  0
   -1.3360   -0.3250    0.3140 C   0  0  0  0  0  0  0  0  0  0  0  0
   -0.9710   -1.2490    1.1550 C   0  0  0  0  0  0  0  0  0  0  0  0
    0.4050   -1.5960    1.4450 C   0  0  0  0  0  0  0  0  0  0  0  0
    1.4140   -0.9830    0.8600 C   0  0  0  0  0  0  0  0  0  0  0  0
    2.7990   -1.3500    1.1680 C   0  0  0  0  0  0  0  0  0  0  0  0
    2.9940   -2.2600    2.0000 O   0  0  0  0  0  0  0  0  0  0  0  0
    3.8720   -0.6430    0.4950 C   0  0  0  0  0  0  0  0  0  0  0  0
    5.0780   -0.9420    0.7440 O   0  0  0  0  0  0  0  0  0  0  0  0
    3.5200    0.3720   -0.4300 N   0  0  0  0  0  0  0  0  0  0  0  0
    2.1730    0.6950   -0.6980 C   0  0  0  0  0  0  0  0  0  0  0  0
    1.1640    0.0850   -0.1160 C   0  0  0  0  0  0  0  0  0  0  0  0
   -0.2500    0.4240   -0.3970 C   0  0  0  0  0  0  0  0  0  0  0  0
   -0.5510    1.3010   -1.1970 N   0  0  0  0  0  0  0  0  0  0  0  0
   -0.2830    2.2810   -2.1030 C   0  0  1  0  0  0  0  0  0  0  0  0
   -1.4420    2.7970   -2.7350 F   0  0  0  0  0  0  0  0  0  0  0  0
    0.2560    3.4370   -1.4980 F   0  0  0  0  0  0  0  0  0  0  0  0
  1  2  1  0
  2  3  1  0
  3  4  2  0
  3 14  1  0
  4  5  1  0
  5  6  2  0
  6  7  1  0
  6 13  1  0
  7  8  2  0
  7  9  1  0
  9 10  2  0
  9 11  1  0
 11 12  1  0
 12 13  2  0
 13 14  1  0
 14 15  2  3
 15 16  1  0
 16 17  1  1
 16 18  1  0
M  END
