
     RDKit          3D

 21 22  0  0  0  0  0  0  0  0999 V2000
   -4.4620   -0.2820    0.7310 C   0  0  0  0  0  0  0  0  0  0  0  0
   -4.0070    0.3850   -0.5530 C   0  0  2  0  0  0  0  0  0  0  0  0
   -5.2730    0.5250   -1.4090 C   0  0  0  0  0  0  0  0  0  0  0  0
   -3.0590   -0.4640   -1.3320 C   0  0  0  0  0  0  0  0  0  0  0  0
   -1.8500   -0.8200   -0.6800 N   0  0  0  0  0  0  0  0  0  0  0  0
   -0.8160    0.0630   -0.3120 C   0  0  0  0  0  0  0  0  0  0  0  0
   -0.8300    1.3590   -0.7660 C   0  0  0  0  0  0  0  0  0  0  0  0
    0.1640    2.2590   -0.4150 C   0  0  0  0  0  0  0  0  0  0  0  0
    1.2000    1.8730    0.4030 C   0  0  0  0  0  0  0  0  0  0  0  0
    1.2320    0.5760    0.8680 C   0  0  0  0  0  0  0  0  0  0  0  0
    2.3180    0.1030    1.7520 C   0  0  0  0  0  0  0  0  0  0  0  0
    3.4680   -0.4030    1.0740 N   0  0  0  0  0  0  0  0  0  0  0  0
    4.4380    0.4440    0.7610 N   0  0  0  0  0  0  0  0  0  0  0  0
    5.5070   -0.0350    0.1260 C   0  0  0  0  0  0  0  0  0  0  0  0
    6.7230    0.9960   -0.2720 S   0  0  0  0  0  0  0  0  0  0  0  0
    5.6370   -1.3360   -0.2070 N   0  0  0  0  0  0  0  0  0  0  0  0
    4.6680   -2.2160    0.0980 C   0  0  0  0  0  0  0  0  0  0  0  0
    4.7730   -3.4250   -0.2030 O   0  0  0  0  0  0  0  0  0  0  0  0
    3.5530   -1.7050    0.7630 C   0  0  0  0  0  0  0  0  0  0  0  0
    2.6630   -2.5440    1.0380 O   0  0  0  0  0  0  0  0  0  0  0  0
    0.2380   -0.3110    0.5130 C   0  0  0  0  0  0  0  0  0  0  0  0
  2  1  1  1
  2  3  1  0
  2  4  1  0
  4  5  1  0
  5  6  1  0
  6  7  2  0
  6 21  1  0
  7  8  1  0
  8  9  2  0
  9 10  1  0
 10 11  1  0
 10 21  2  0
 11 12  1  0
 12 13  1  0
 12 19  1  0
 13 14  1  0
 14 15  2  0
 14 16  1  0
 16 17  1  0
 17 18  2  0
 17 19  1  0
 19 20  2  0
M  END
