
     RDKit          3D

 18 18  0  0  0  0  0  0  0  0999 V2000
    4.4010    0.9160   -2.1660 C   0  0  0  0  0  0  0  0  0  0  0  0
    3.3670    0.2150   -1.5070 O   0  0  0  0  0  0  0  0  0  0  0  0
    2.3490    0.8220   -0.7960 C   0  0  0  0  0  0  0  0  0  0  0  0
    2.3290    2.0550   -0.7230 O   0  0  0  0  0  0  0  0  0  0  0  0
    1.3310   -0.0010   -0.1530 C   0  0  0  0  0  0  0  0  0  0  0  0
    1.4040   -1.2990   -0.2640 C   0  0  0  0  0  0  0  0  0  0  0  0
    0.5370   -2.2820    0.2710 N   0  0  0  0  0  0  0  0  0  0  0  0
   -0.8480   -2.2920    0.5720 C   0  0  0  0  0  0  0  0  0  0  0  0
   -1.5070   -0.9330    0.5040 C   0  0  0  0  0  0  0  0  0  0  0  0
   -2.7230   -0.9940    0.0730 C   0  0  0  0  0  0  0  0  0  0  0  0
   -3.6790    0.0760   -0.1430 C   0  0  1  0  0  0  0  0  0  0  0  0
   -4.3650   -0.1370   -1.3770 F   0  0  0  0  0  0  0  0  0  0  0  0
   -4.7200   -0.0130    0.7910 F   0  0  0  0  0  0  0  0  0  0  0  0
   -0.9390    0.3320    0.8630 C   0  0  0  0  0  0  0  0  0  0  0  0
   -1.7170    1.2640    1.6750 C   0  0  0  0  0  0  0  0  0  0  0  0
    0.2910    0.7480    0.5810 C   0  0  0  0  0  0  0  0  0  0  0  0
    0.6380    2.0570    1.0300 C   0  0  0  0  0  0  0  0  0  0  0  0
    0.9160    3.1310    1.3780 N   0  0  0  0  0  0  0  0  0  0  0  0
  1  2  1  0
  2  3  1  0
  3  4  2  0
  3  5  1  0
  5  6  2  0
  5 16  1  0
  6  7  1  0
  7  8  1  0
  8  9  1  0
  9 10  2  3
  9 14  1  0
 10 11  1  0
 11 12  1  6
 11 13  1  0
 14 15  1  0
 14 16  2  0
 16 17  1  0
 17 18  3  0
M  END
