
     RDKit          3D

 21 22  0  0  0  0  0  0  0  0999 V2000
   -5.2540   -0.2710    0.3920 C   0  0  0  0  0  0  0  0  0  0  0  0
   -4.3130    0.6820   -0.3150 C   0  0  2  0  0  0  0  0  0  0  0  0
   -3.7870    0.0010   -1.5420 C   0  0  0  0  0  0  0  0  0  0  0  0
   -3.2360    1.1790    0.6070 C   0  0  1  0  0  0  0  0  0  0  0  0
   -3.8970    1.9010    1.7590 C   0  0  0  0  0  0  0  0  0  0  0  0
   -2.3700    0.1270    1.0290 N   0  0  0  0  0  0  0  0  0  0  0  0
   -0.9670    0.1750    0.7160 C   0  0  0  0  0  0  0  0  0  0  0  0
   -0.5790    1.1710    0.0700 O   0  0  0  0  0  0  0  0  0  0  0  0
   -0.1270   -0.8860    1.1490 N   0  0  0  0  0  0  0  0  0  0  0  0
    1.2800   -0.8800    0.8510 C   0  0  0  0  0  0  0  0  0  0  0  0
    1.4690   -0.8870   -0.6390 C   0  0  0  0  0  0  0  0  0  0  0  0
    2.9610   -0.8870   -0.8700 C   0  0  0  0  0  0  0  0  0  0  0  0
    3.5630   -2.1270   -0.9510 C   0  0  0  0  0  0  0  0  0  0  0  0
    4.9330   -2.0920   -1.1630 C   0  0  0  0  0  0  0  0  0  0  0  0
    5.5350   -0.8560   -1.2680 C   0  0  0  0  0  0  0  0  0  0  0  0
    7.2580   -0.4020   -1.5380 S   0  0  0  0  0  0  0  0  0  0  0  0
    6.9360    1.4280   -1.5060 C   0  0  0  0  0  0  0  0  0  0  0  0
    7.8390    2.2800   -1.6540 O   0  0  0  0  0  0  0  0  0  0  0  0
    5.6350    1.4540   -1.3050 N   0  0  0  0  0  0  0  0  0  0  0  0
    4.9500    0.3460   -1.1890 C   0  0  0  0  0  0  0  0  0  0  0  0
    3.5700    0.2790   -0.9750 N   0  0  0  0  0  0  0  0  0  0  0  0
  2  1  1  1
  2  3  1  0
  2  4  1  0
  4  5  1  1
  4  6  1  0
  6  7  1  0
  7  8  2  0
  7  9  1  0
  9 10  1  0
 10 11  1  0
 11 12  1  0
 12 13  2  0
 12 21  1  0
 13 14  1  0
 14 15  2  0
 15 16  1  0
 15 20  1  0
 16 17  1  0
 17 18  2  0
 17 19  1  0
 19 20  1  0
 20 21  2  0
M  END
