
     RDKit          3D

 21 22  0  0  0  0  0  0  0  0999 V2000
   -6.8070    0.5210    0.2740 C   0  0  0  0  0  0  0  0  0  0  0  0
   -6.3600   -0.7240    1.5060 S   0  0  0  0  0  0  0  0  0  0  0  0
   -5.2960   -1.9780    0.7500 C   0  0  0  0  0  0  0  0  0  0  0  0
   -3.9960   -1.4140    0.3570 C   0  0  0  0  0  0  0  0  0  0  0  0
   -3.8720   -0.8890   -0.9240 C   0  0  0  0  0  0  0  0  0  0  0  0
   -2.7030   -0.3400   -1.3830 C   0  0  0  0  0  0  0  0  0  0  0  0
   -1.5940   -0.3110   -0.5200 C   0  0  0  0  0  0  0  0  0  0  0  0
   -0.4410    0.2830   -1.0760 N   0  0  0  0  0  0  0  0  0  0  0  0
    0.8720    0.2350   -0.5390 C   0  0  0  0  0  0  0  0  0  0  0  0
    1.0350   -0.3920    0.5210 O   0  0  0  0  0  0  0  0  0  0  0  0
    1.9630    0.8810   -1.1910 N   0  0  0  0  0  0  0  0  0  0  0  0
    3.2910    0.8820   -0.7260 C   0  0  0  0  0  0  0  0  0  0  0  0
    3.7250    0.2690    0.4140 C   0  0  0  0  0  0  0  0  0  0  0  0
    5.0650    0.3200    0.8030 C   0  0  0  0  0  0  0  0  0  0  0  0
    5.5340   -0.3460    2.0450 C   0  0  0  0  0  0  0  0  0  0  0  0
    5.9660    1.0010    0.0220 C   0  0  0  0  0  0  0  0  0  0  0  0
    5.5620    1.6050   -1.0940 N   0  0  0  0  0  0  0  0  0  0  0  0
    4.2800    1.5540   -1.4630 C   0  0  0  0  0  0  0  0  0  0  0  0
    3.9210    2.1220   -2.5040 O   0  0  0  0  0  0  0  0  0  0  0  0
   -1.7220   -0.8260    0.7310 C   0  0  0  0  0  0  0  0  0  0  0  0
   -2.9200   -1.3590    1.1230 N   0  0  0  0  0  0  0  0  0  0  0  0
  1  2  1  0
  2  3  1  0
  3  4  1  0
  4  5  2  0
  4 21  1  0
  5  6  1  0
  6  7  2  0
  7  8  1  0
  7 20  1  0
  8  9  1  0
  9 10  2  0
  9 11  1  0
 11 12  1  0
 12 13  2  0
 12 18  1  0
 13 14  1  0
 14 15  1  0
 14 16  2  0
 16 17  1  0
 17 18  1  0
 18 19  2  0
 20 21  2  0
M  END
