
     RDKit          3D

 20 21  0  0  0  0  0  0  0  0999 V2000
   -4.2380    1.1470    2.4130 C   0  0  0  0  0  0  0  0  0  0  0  0
   -3.4900    0.6420    1.2510 C   0  0  0  0  0  0  0  0  0  0  0  0
   -4.1140    0.3790    0.0800 C   0  0  0  0  0  0  0  0  0  0  0  0
   -3.3970   -0.1030   -1.0230 C   0  0  0  0  0  0  0  0  0  0  0  0
   -4.1500   -0.3660   -2.2540 C   0  0  0  0  0  0  0  0  0  0  0  0
   -2.0500   -0.2990   -0.8820 C   0  0  0  0  0  0  0  0  0  0  0  0
   -1.2900   -0.7920   -2.0460 C   0  0  0  0  0  0  0  0  0  0  0  0
   -1.3610   -0.0460    0.2950 C   0  0  0  0  0  0  0  0  0  0  0  0
    0.0010   -0.3020    0.3460 N   0  0  0  0  0  0  0  0  0  0  0  0
    0.8960   -0.0710    1.4070 C   0  0  0  0  0  0  0  0  0  0  0  0
    0.4620    0.4400    2.4630 O   0  0  0  0  0  0  0  0  0  0  0  0
    2.3600   -0.4310    1.2820 C   0  0  0  0  0  0  0  0  0  0  0  0
    3.1660    0.8080    0.2410 S   0  0  0  0  0  0  0  0  0  0  0  0
    4.8940    0.4220    0.0290 C   0  0  0  0  0  0  0  0  0  0  0  0
    5.9290    0.8600    0.7550 N   0  0  0  0  0  0  0  0  0  0  0  0
    7.0580    0.3450    0.2700 N   0  0  0  0  0  0  0  0  0  0  0  0
    6.6900   -0.4210   -0.7730 C   0  0  0  0  0  0  0  0  0  0  0  0
    7.5100   -1.0570   -1.4640 O   0  0  0  0  0  0  0  0  0  0  0  0
    5.3530   -0.3860   -0.9370 N   0  0  0  0  0  0  0  0  0  0  0  0
   -2.1120    0.4220    1.3390 C   0  0  0  0  0  0  0  0  0  0  0  0
  1  2  1  0
  2  3  2  0
  2 20  1  0
  3  4  1  0
  4  5  1  0
  4  6  2  0
  6  7  1  0
  6  8  1  0
  8  9  1  0
  8 20  2  0
  9 10  1  0
 10 11  2  0
 10 12  1  0
 12 13  1  0
 13 14  1  0
 14 15  2  0
 14 19  1  0
 15 16  1  0
 16 17  1  0
 17 18  2  0
 17 19  1  0
M  END
