
     RDKit          3D

 30 32  0  0  0  0  0  0  0  0999 V2000
   -5.3860    2.1010   -1.2800 C   0  0  0  0  0  0  0  0  0  0  0  0
   -5.1150    1.1380   -0.1520 C   0  0  0  0  0  0  0  0  0  0  0  0
   -6.0820    0.8380    0.5600 O   0  0  0  0  0  0  0  0  0  0  0  0
   -3.8390    0.6100    0.0820 N   0  0  0  0  0  0  0  0  0  0  0  0
   -3.4760   -0.3040    1.1100 C   0  0  0  0  0  0  0  0  0  0  0  0
   -4.3800   -0.9380    1.9060 C   0  0  0  0  0  0  0  0  0  0  0  0
   -4.0440   -1.8560    2.8600 C   0  0  0  0  0  0  0  0  0  0  0  0
   -2.7420   -2.1900    3.0660 C   0  0  0  0  0  0  0  0  0  0  0  0
   -1.7860   -1.5610    2.2700 C   0  0  0  0  0  0  0  0  0  0  0  0
   -2.1060   -0.6270    1.2970 C   0  0  0  0  0  0  0  0  0  0  0  0
   -1.1310    0.0560    0.5420 N   0  0  0  0  0  0  0  0  0  0  0  0
    0.2160   -0.3000    0.4300 C   0  0  0  0  0  0  0  0  0  0  0  0
    0.6320   -1.3390    1.0550 O   0  0  0  0  0  0  0  0  0  0  0  0
    1.2160    0.4330   -0.3620 C   0  0  0  0  0  0  0  0  0  0  0  0
    2.4950    0.0340   -0.4030 C   0  0  0  0  0  0  0  0  0  0  0  0
    2.8520   -1.1110    0.3360 N   0  0  0  0  0  0  0  0  0  0  0  0
    3.4630   -2.1240   -0.1820 C   0  0  0  0  0  0  0  0  0  0  0  0
    3.8210   -3.2970    0.6070 C   0  0  0  0  0  0  0  0  0  0  0  0
    3.6000   -3.5130    1.8920 C   0  0  0  0  0  0  0  0  0  0  0  0
    4.1070   -4.7790    2.2640 N   0  0  0  0  0  0  0  0  0  0  0  0
    4.6600   -5.3300    1.1040 C   0  0  0  0  0  0  0  0  0  0  0  0
    4.5050   -4.4790    0.1120 C   0  0  0  0  0  0  0  0  0  0  0  0
    3.5190    0.7320   -1.1660 C   0  0  0  0  0  0  0  0  0  0  0  0
    3.3040    2.1780   -1.4140 C   0  0  0  0  0  0  0  0  0  0  0  0
    1.8940    2.6820   -1.3560 C   0  0  0  0  0  0  0  0  0  0  0  0
    0.8940    1.6080   -1.1510 C   0  0  0  0  0  0  0  0  0  0  0  0
   -0.2520    1.7290   -1.6920 N   0  0  0  0  0  0  0  0  0  0  0  0
   -0.7660    2.7800   -2.4900 C   0  0  0  0  0  0  0  0  0  0  0  0
   -1.2460    3.9710   -1.6860 C   0  0  0  0  0  0  0  0  0  0  0  0
   -1.8900    5.2720   -2.7870 S   0  0  0  0  0  0  0  0  0  0  0  0
  1  2  1  0
  2  3  2  0
  2  4  1  0
  4  5  1  0
  5  6  2  0
  5 10  1  0
  6  7  1  0
  7  8  2  0
  8  9  1  0
  9 10  2  0
 10 11  1  0
 11 12  1  0
 12 13  2  0
 12 14  1  0
 14 15  2  0
 14 26  1  0
 15 16  1  0
 15 23  1  0
 16 17  2  3
 17 18  1  0
 18 19  2  0
 18 22  1  0
 19 20  1  0
 20 21  1  0
 21 22  2  0
 23 24  1  0
 24 25  1  0
 25 26  1  0
 26 27  2  3
 27 28  1  0
 28 29  1  0
 29 30  1  0
M  CHG  1  20   1
M  END
