
     RDKit          3D

 30 31  0  0  0  0  0  0  0  0999 V2000
    1.7920   -3.1800   -1.0110 C   0  0  0  0  0  0  0  0  0  0  0  0
    0.5900   -2.6590   -0.2330 C   0  0  2  0  0  0  0  0  0  0  0  0
    0.4870   -3.5090    1.0050 C   0  0  0  0  0  0  0  0  0  0  0  0
   -0.5780   -2.8040   -1.1730 C   0  0  0  0  0  0  0  0  0  0  0  0
   -1.6440   -3.2250   -0.3970 O   0  0  0  0  0  0  0  0  0  0  0  0
   -2.0310   -2.2750    0.4740 C   0  0  0  0  0  0  0  0  0  0  0  0
   -2.7380   -1.1770   -0.2610 C   0  0  0  0  0  0  0  0  0  0  0  0
   -3.0180   -0.0100    0.6190 C   0  0  0  0  0  0  0  0  0  0  0  0
   -3.9270   -0.4540    1.6270 O   0  0  0  0  0  0  0  0  0  0  0  0
   -2.5610    1.2170    0.5500 C   0  0  0  0  0  0  0  0  0  0  0  0
   -3.0900    2.0270    1.5950 O   0  0  0  0  0  0  0  0  0  0  0  0
   -2.3940    3.1440    2.0970 C   0  0  0  0  0  0  0  0  0  0  0  0
   -2.0090    4.0010    0.9510 C   0  0  0  0  0  0  0  0  0  0  0  0
   -1.4400    3.1910   -0.1270 C   0  0  0  0  0  0  0  0  0  0  0  0
   -1.6570    1.8600   -0.3750 C   0  0  0  0  0  0  0  0  0  0  0  0
   -0.8830    1.3440   -1.5100 C   0  0  0  0  0  0  0  0  0  0  0  0
   -1.3700    1.8860   -2.7460 O   0  0  0  0  0  0  0  0  0  0  0  0
    0.1490    0.5150   -1.6720 C   0  0  0  0  0  0  0  0  0  0  0  0
    0.6710    0.2410   -3.0740 C   0  0  0  0  0  0  0  0  0  0  0  0
    1.9770    0.6150   -3.1450 O   0  0  0  0  0  0  0  0  0  0  0  0
    0.9790   -0.1490   -0.6370 C   0  0  0  0  0  0  0  0  0  0  0  0
    2.1940    0.4230   -0.3510 C   0  0  0  0  0  0  0  0  0  0  0  0
    2.6650    1.5670   -0.9770 O   0  0  0  0  0  0  0  0  0  0  0  0
    3.1410   -0.0990    0.6530 C   0  0  1  0  0  0  0  0  0  0  0  0
    4.3660   -0.4380    0.1360 O   0  0  0  0  0  0  0  0  0  0  0  0
    3.2240    0.8850    1.7930 C   0  0  0  0  0  0  0  0  0  0  0  0
    1.9100    1.0720    2.4090 C   0  0  0  0  0  0  0  0  0  0  0  0
    0.9600    1.3900    1.6200 O   0  0  0  0  0  0  0  0  0  0  0  0
    1.6000    0.9400    3.7470 O   0  0  0  0  0  0  0  0  0  0  0  0
    0.6940   -1.2820    0.0940 O   0  0  0  0  0  0  0  0  0  0  0  0
  2  1  1  6
  2  3  1  0
  2  4  1  0
  2 30  1  0
  4  5  1  0
  5  6  1  0
  6  7  1  0
  7  8  1  0
  8  9  1  0
  8 10  2  0
 10 11  1  0
 10 15  1  0
 11 12  1  0
 12 13  1  0
 13 14  1  0
 14 15  2  0
 15 16  1  0
 16 17  1  0
 16 18  2  0
 18 19  1  0
 18 21  1  0
 19 20  1  0
 21 22  2  3
 21 30  1  0
 22 23  1  0
 22 24  1  0
 24 25  1  6
 24 26  1  0
 26 27  1  0
 27 28  2  0
 27 29  1  0
M  END
