
     RDKit          3D

 30 33  0  0  0  0  0  0  0  0999 V2000
   -1.7590   -3.8740    0.6410 O   0  0  0  0  0  0  0  0  0  0  0  0
   -1.5680   -2.7740    0.0570 C   0  0  0  0  0  0  0  0  0  0  0  0
   -2.6210   -2.3200   -0.8150 N   0  0  0  0  0  0  0  0  0  0  0  0
   -3.7500   -3.0480   -0.9710 O   0  0  0  0  0  0  0  0  0  0  0  0
   -0.3400   -1.9920    0.2460 C   0  0  1  0  0  0  0  0  0  0  0  0
   -0.5690   -0.7120    1.0570 C   0  0  0  0  0  0  0  0  0  0  0  0
   -1.5480    0.1990    0.4800 C   0  0  0  0  0  0  0  0  0  0  0  0
   -1.2710    1.1380   -0.4670 C   0  0  0  0  0  0  0  0  0  0  0  0
   -2.2700    1.9820   -0.9400 C   0  0  0  0  0  0  0  0  0  0  0  0
   -3.5560    1.9160   -0.4890 C   0  0  0  0  0  0  0  0  0  0  0  0
   -4.5380    2.7810   -0.9870 C   0  0  0  0  0  0  0  0  0  0  0  0
   -5.8230    2.7010   -0.5250 C   0  0  0  0  0  0  0  0  0  0  0  0
   -6.1400    1.7670    0.4310 C   0  0  0  0  0  0  0  0  0  0  0  0
   -5.1630    0.9010    0.9330 C   0  0  0  0  0  0  0  0  0  0  0  0
   -3.8610    0.9760    0.4700 C   0  0  0  0  0  0  0  0  0  0  0  0
   -2.8740    0.1250    0.9520 C   0  0  0  0  0  0  0  0  0  0  0  0
    0.6110   -2.8230    0.9950 N   0  0  0  0  0  0  0  0  0  0  0  0
    2.0900   -3.0670    0.1970 S   0  0  2  0  0  0  0  0  0  0  0  0
    1.8920   -3.6740   -1.1640 O   0  0  0  0  0  0  0  0  0  0  0  0
    3.0160   -3.9690    0.9490 O   0  0  0  0  0  0  0  0  0  0  0  0
    2.9030   -1.5410   -0.0560 C   0  0  0  0  0  0  0  0  0  0  0  0
    2.7270   -0.8360   -1.2260 C   0  0  0  0  0  0  0  0  0  0  0  0
    3.3820    0.3840   -1.4200 C   0  0  0  0  0  0  0  0  0  0  0  0
    4.2200    0.9200   -0.4590 C   0  0  0  0  0  0  0  0  0  0  0  0
    4.8770    2.1230   -0.6370 C   0  0  0  0  0  0  0  0  0  0  0  0
    5.7150    2.6450    0.3370 C   0  0  0  0  0  0  0  0  0  0  0  0
    5.9000    1.9500    1.5110 C   0  0  0  0  0  0  0  0  0  0  0  0
    5.2380    0.7560    1.6690 C   0  0  0  0  0  0  0  0  0  0  0  0
    4.3960    0.2100    0.7140 C   0  0  0  0  0  0  0  0  0  0  0  0
    3.7480   -0.9920    0.9030 C   0  0  0  0  0  0  0  0  0  0  0  0
  1  2  2  0
  2  3  1  0
  2  5  1  0
  3  4  1  0
  5  6  1  1
  5 17  1  0
  6  7  1  0
  7  8  2  0
  7 16  1  0
  8  9  1  0
  9 10  2  0
 10 11  1  0
 10 15  1  0
 11 12  2  0
 12 13  1  0
 13 14  2  0
 14 15  1  0
 15 16  2  0
 18 17  1  1
 18 19  2  0
 18 20  2  0
 18 21  1  0
 21 22  2  0
 21 30  1  0
 22 23  1  0
 23 24  2  0
 24 25  1  0
 24 29  1  0
 25 26  2  0
 26 27  1  0
 27 28  2  0
 28 29  1  0
 29 30  2  0
M  END
