
     RDKit          3D

 30 32  0  0  0  0  0  0  0  0999 V2000
   -0.8010   -2.0780    0.9960 C   0  0  0  0  0  0  0  0  0  0  0  0
   -0.1330   -1.1000    0.4190 C   0  0  0  0  0  0  0  0  0  0  0  0
    1.3310   -1.0700    0.3090 C   0  0  0  0  0  0  0  0  0  0  0  0
    2.1640   -2.0530    0.8020 O   0  0  0  0  0  0  0  0  0  0  0  0
    1.6660    0.0180   -0.3180 C   0  0  0  0  0  0  0  0  0  0  0  0
    2.9170    0.5100   -0.6710 O   0  0  0  0  0  0  0  0  0  0  0  0
    4.1060    0.2850    0.0670 C   0  0  1  0  0  0  0  0  0  0  0  0
    3.9410    0.8370    1.4750 C   0  0  0  0  0  0  0  0  0  0  0  0
    3.6880    2.2050    1.4410 O   0  0  0  0  0  0  0  0  0  0  0  0
    4.4340   -1.0270    0.0380 O   0  0  0  0  0  0  0  0  0  0  0  0
    5.6270   -1.4020   -0.5070 C   0  0  0  0  0  0  0  0  0  0  0  0
    6.8100   -0.9030    0.2510 C   0  0  0  0  0  0  0  0  0  0  0  0
    6.8690    0.4510    0.3260 O   0  0  0  0  0  0  0  0  0  0  0  0
    0.4400    0.7670   -0.6560 C   0  0  0  0  0  0  0  0  0  0  0  0
    0.3990    1.9800   -1.3270 O   0  0  0  0  0  0  0  0  0  0  0  0
   -0.6340    0.1230   -0.2290 C   0  0  0  0  0  0  0  0  0  0  0  0
   -2.0830    0.5200   -0.3290 C   0  0  1  0  0  0  0  0  0  0  0  0
   -2.1260    1.7810   -1.2150 C   0  0  0  0  0  0  0  0  0  0  0  0
   -2.8570   -0.5180   -1.0260 C   0  0  0  0  0  0  0  0  0  0  0  0
   -4.1190   -0.9010   -0.3610 C   0  0  0  0  0  0  0  0  0  0  0  0
   -5.1720   -1.5170   -0.8600 C   0  0  0  0  0  0  0  0  0  0  0  0
   -6.1980   -1.6870    0.1820 C   0  0  0  0  0  0  0  0  0  0  0  0
   -5.5750   -1.0700    1.3720 C   0  0  0  0  0  0  0  0  0  0  0  0
   -4.3800   -0.6210    1.0500 C   0  0  0  0  0  0  0  0  0  0  0  0
   -3.3510    0.0310    1.7170 O   0  0  0  0  0  0  0  0  0  0  0  0
   -2.5900    0.9820    1.0100 C   0  0  1  0  0  0  0  0  0  0  0  0
   -1.4650    1.3860    1.7420 O   0  0  0  0  0  0  0  0  0  0  0  0
   -3.4670    2.1670    0.8540 C   0  0  0  0  0  0  0  0  0  0  0  0
   -3.0790    3.2710    1.2980 O   0  0  0  0  0  0  0  0  0  0  0  0
   -4.7100    2.1310    0.2390 O   0  0  0  0  0  0  0  0  0  0  0  0
  1  2  2  0
  2  3  1  0
  2 16  1  0
  3  4  1  0
  3  5  2  0
  5  6  1  0
  5 14  1  0
  6  7  1  0
  7  8  1  1
  7 10  1  0
  8  9  1  0
 10 11  1  0
 11 12  1  0
 12 13  1  0
 14 15  1  0
 14 16  2  0
 16 17  1  0
 17 18  1  6
 17 19  1  0
 17 26  1  0
 19 20  1  0
 20 21  2  0
 20 24  1  0
 21 22  1  0
 22 23  1  0
 23 24  2  0
 24 25  1  0
 25 26  1  0
 26 27  1  1
 26 28  1  0
 28 29  2  0
 28 30  1  0
M  END
