
     RDKit          3D

 30 33  0  0  0  0  0  0  0  0999 V2000
    7.9360   -0.6130   -1.3330 C   0  0  0  0  0  0  0  0  0  0  0  0
    8.7490   -0.5450   -0.0900 C   0  0  0  0  0  0  0  0  0  0  0  0
    8.2280    0.2360    0.9770 N   0  0  0  0  0  0  0  0  0  0  0  0
    6.9680    0.8620    0.7760 C   0  0  0  0  0  0  0  0  0  0  0  0
    5.7950   -0.0110    0.8160 C   0  0  0  0  0  0  0  0  0  0  0  0
    5.8890   -1.3640    1.0350 C   0  0  0  0  0  0  0  0  0  0  0  0
    4.7630   -2.1820    1.0710 C   0  0  0  0  0  0  0  0  0  0  0  0
    3.5230   -1.6300    0.8840 C   0  0  0  0  0  0  0  0  0  0  0  0
    2.2490   -2.1630    0.8650 C   0  0  0  0  0  0  0  0  0  0  0  0
    1.3680   -1.1280    0.6320 C   0  0  0  0  0  0  0  0  0  0  0  0
   -0.0820   -1.2000    0.5280 C   0  0  0  0  0  0  0  0  0  0  0  0
   -0.6840   -2.3040    0.6560 O   0  0  0  0  0  0  0  0  0  0  0  0
   -0.8620   -0.0470    0.2820 N   0  0  0  0  0  0  0  0  0  0  0  0
   -2.2620   -0.1780    0.1930 C   0  0  0  0  0  0  0  0  0  0  0  0
   -3.1570   -0.9570    0.2470 N   0  0  0  0  0  0  0  0  0  0  0  0
   -4.4130   -0.6740    0.1040 N   0  0  0  0  0  0  0  0  0  0  0  0
   -4.8720    0.3920   -0.1010 C   0  0  0  0  0  0  0  0  0  0  0  0
   -6.1360    1.1590   -0.3210 C   0  0  1  0  0  0  0  0  0  0  0  0
   -6.8550    0.5140   -1.4860 C   0  0  0  0  0  0  0  0  0  0  0  0
   -8.1760    0.0080   -0.9640 C   0  0  2  0  0  0  0  0  0  0  0  0
   -8.6150   -1.2560   -1.6730 C   0  0  0  0  0  0  0  0  0  0  0  0
   -9.2470    1.0720   -1.0090 C   0  0  0  0  0  0  0  0  0  0  0  0
   -7.8600   -0.2610    0.4950 C   0  0  0  0  0  0  0  0  0  0  0  0
   -7.0560    0.9370    0.8550 C   0  0  0  0  0  0  0  0  0  0  0  0
   -7.0640    1.6350    1.8300 O   0  0  0  0  0  0  0  0  0  0  0  0
   -3.2460    1.4070   -0.1360 S   0  0  0  0  0  0  0  0  0  0  0  0
    2.0900   -0.0040    0.5140 N   0  0  0  0  0  0  0  0  0  0  0  0
    3.4130   -0.2730    0.6630 C   0  0  0  0  0  0  0  0  0  0  0  0
    4.5490    0.5430    0.6280 C   0  0  0  0  0  0  0  0  0  0  0  0
    4.3680    2.0150    0.3820 C   0  0  0  0  0  0  0  0  0  0  0  0
  1  2  1  0
  2  3  1  0
  3  4  1  0
  4  5  1  0
  5  6  2  0
  5 29  1  0
  6  7  1  0
  7  8  2  0
  8  9  1  0
  8 28  1  0
  9 10  2  0
 10 11  1  0
 10 27  1  0
 11 12  2  0
 11 13  1  0
 13 14  1  0
 14 15  2  0
 14 26  1  0
 15 16  1  0
 16 17  2  0
 18 17  1  1
 17 26  1  0
 18 19  1  0
 18 24  1  0
 19 20  1  0
 20 21  1  6
 20 22  1  0
 20 23  1  0
 23 24  1  0
 24 25  2  0
 27 28  1  0
 28 29  2  0
 29 30  1  0
M  CHG  1   3   1
M  END
