
     RDKit          3D

 30 33  0  0  0  0  0  0  0  0999 V2000
    0.8090    3.8310   -1.8790 C   0  0  0  0  0  0  0  0  0  0  0  0
    0.5460    3.3450   -0.5780 O   0  0  0  0  0  0  0  0  0  0  0  0
    0.2120    2.0480   -0.2930 C   0  0  0  0  0  0  0  0  0  0  0  0
   -1.0880    1.6130   -0.2700 C   0  0  0  0  0  0  0  0  0  0  0  0
   -2.1270    2.5240   -0.5490 O   0  0  0  0  0  0  0  0  0  0  0  0
   -1.4420    0.2970    0.0180 C   0  0  0  0  0  0  0  0  0  0  0  0
   -2.6030   -0.2450    0.0740 O   0  0  0  0  0  0  0  0  0  0  0  0
   -3.7710   -0.7900    0.1300 C   0  0  0  0  0  0  0  0  0  0  0  0
   -3.8300   -2.2030    0.4200 C   0  0  0  0  0  0  0  0  0  0  0  0
   -5.0040   -2.8710    0.5010 C   0  0  0  0  0  0  0  0  0  0  0  0
   -5.0300   -4.2550    0.7850 O   0  0  0  0  0  0  0  0  0  0  0  0
   -6.1950   -2.2260    0.3090 C   0  0  0  0  0  0  0  0  0  0  0  0
   -6.1760   -0.8520    0.0260 C   0  0  0  0  0  0  0  0  0  0  0  0
   -7.4480   -0.2870   -0.1540 O   0  0  0  0  0  0  0  0  0  0  0  0
   -4.9950   -0.1910   -0.0530 C   0  0  0  0  0  0  0  0  0  0  0  0
   -5.0180    1.2640   -0.3410 C   0  0  0  0  0  0  0  0  0  0  0  0
   -0.3450   -0.5960    0.2950 C   0  0  0  0  0  0  0  0  0  0  0  0
    0.9420   -0.1730    0.2730 C   0  0  0  0  0  0  0  0  0  0  0  0
    2.1420   -0.8480    0.5060 C   0  0  0  0  0  0  0  0  0  0  0  0
    2.2980   -2.1750    0.8320 O   0  0  0  0  0  0  0  0  0  0  0  0
    3.1250    0.0950    0.3420 C   0  0  0  0  0  0  0  0  0  0  0  0
    4.5870    0.0310    0.4400 C   0  0  1  0  0  0  0  0  0  0  0  0
    5.3000    1.3570    0.0400 C   0  0  0  0  0  0  0  0  0  0  0  0
    4.9940    2.3400    0.9520 O   0  0  0  0  0  0  0  0  0  0  0  0
    4.9890   -0.4300    1.7470 O   0  0  0  0  0  0  0  0  0  0  0  0
    5.4220   -1.0810    0.5520 C   0  0  1  0  0  0  0  0  0  0  0  0
    5.0540   -2.4900    0.2690 C   0  0  0  0  0  0  0  0  0  0  0  0
    6.8530   -0.9090    0.4950 O   0  0  0  0  0  0  0  0  0  0  0  0
    2.5200    1.2530    0.0340 O   0  0  0  0  0  0  0  0  0  0  0  0
    1.2260    1.1340   -0.0170 C   0  0  0  0  0  0  0  0  0  0  0  0
  1  2  1  0
  2  3  1  0
  3  4  2  0
  3 30  1  0
  4  5  1  0
  4  6  1  0
  6  7  1  0
  6 17  2  0
  7  8  1  0
  8  9  2  0
  8 15  1  0
  9 10  1  0
 10 11  1  0
 10 12  2  0
 12 13  1  0
 13 14  1  0
 13 15  2  0
 15 16  1  0
 17 18  1  0
 18 19  1  0
 18 30  2  0
 19 20  1  0
 19 21  2  0
 21 22  1  0
 21 29  1  0
 22 23  1  6
 22 25  1  0
 22 26  1  0
 23 24  1  0
 25 26  1  0
 26 27  1  1
 26 28  1  0
 29 30  1  0
M  END
