
     RDKit          3D

 30 32  0  0  0  0  0  0  0  0999 V2000
   -5.7800   -3.8060   -0.7110 C   0  0  0  0  0  0  0  0  0  0  0  0
   -5.3910   -2.3850   -0.6940 C   0  0  0  0  0  0  0  0  0  0  0  0
   -4.1300   -2.0030   -0.6270 C   0  0  0  0  0  0  0  0  0  0  0  0
   -3.0130   -2.9540   -0.5620 C   0  0  0  0  0  0  0  0  0  0  0  0
   -1.7690   -2.4710   -0.4700 C   0  0  0  0  0  0  0  0  0  0  0  0
   -0.7240   -3.4380   -0.4140 O   0  0  0  0  0  0  0  0  0  0  0  0
   -1.4910   -1.0660   -0.4300 C   0  0  0  0  0  0  0  0  0  0  0  0
   -2.5040   -0.1860   -0.5040 C   0  0  0  0  0  0  0  0  0  0  0  0
   -3.8170   -0.6590   -0.5990 O   0  0  0  0  0  0  0  0  0  0  0  0
   -2.3030    1.2910   -0.5070 C   0  0  0  0  0  0  0  0  0  0  0  0
   -3.0740    2.0430    0.3460 O   0  0  0  0  0  0  0  0  0  0  0  0
   -1.4050    1.9330   -1.3010 C   0  0  0  0  0  0  0  0  0  0  0  0
   -1.3730    3.4580   -1.1510 C   0  0  0  0  0  0  0  0  0  0  0  0
   -2.3040    3.8970   -0.2030 O   0  0  0  0  0  0  0  0  0  0  0  0
   -0.6730    1.2030   -2.1060 O   0  0  0  0  0  0  0  0  0  0  0  0
    0.4300    0.8370   -2.8210 C   0  0  0  0  0  0  0  0  0  0  0  0
    1.7740    1.2370   -2.2720 C   0  0  0  0  0  0  0  0  0  0  0  0
    2.3780    0.5250   -1.2870 O   0  0  0  0  0  0  0  0  0  0  0  0
    2.9460    0.8230   -0.0310 C   0  0  0  0  0  0  0  0  0  0  0  0
    4.2730    1.4070    0.2000 C   0  0  2  0  0  0  0  0  0  0  0  0
    5.2670    0.8890   -0.7000 O   0  0  0  0  0  0  0  0  0  0  0  0
    4.9150    1.1050    1.5460 C   0  0  0  0  0  0  0  0  0  0  0  0
    5.2040   -0.2340    1.6820 O   0  0  0  0  0  0  0  0  0  0  0  0
    2.0730    0.4840    0.9880 C   0  0  0  0  0  0  0  0  0  0  0  0
    2.4880    0.7200    2.2380 O   0  0  0  0  0  0  0  0  0  0  0  0
    2.3180   -0.1080    3.3790 C   0  0  0  0  0  0  0  0  0  0  0  0
    1.0850   -0.9480    3.0640 C   0  0  0  0  0  0  0  0  0  0  0  0
    0.2700   -0.1960    2.1990 O   0  0  0  0  0  0  0  0  0  0  0  0
    0.6990   -0.1150    0.6520 C   0  0  0  0  0  0  0  0  0  0  0  0
   -0.1080   -0.4900   -0.0050 C   0  0  0  0  0  0  0  0  0  0  0  0
  1  2  1  0
  2  3  2  3
  3  4  1  0
  3  9  1  0
  4  5  2  0
  5  6  1  0
  5  7  1  0
  7  8  2  0
  7 30  1  0
  8  9  1  0
  8 10  1  0
 10 11  1  0
 10 12  2  0
 12 13  1  0
 12 15  1  0
 13 14  1  0
 15 16  1  0
 16 17  1  0
 17 18  1  0
 18 19  1  0
 19 20  1  0
 19 24  2  0
 20 21  1  6
 20 22  1  0
 22 23  1  0
 24 25  1  0
 24 29  1  0
 25 26  1  0
 26 27  1  0
 27 28  1  0
 28 29  1  0
 29 30  2  0
M  END
