
     RDKit          3D

 30 32  0  0  0  0  0  0  0  0999 V2000
   -4.7580    3.9030   -1.8230 O   0  0  0  0  0  0  0  0  0  0  0  0
   -3.5930    3.5970   -1.4850 C   0  0  0  0  0  0  0  0  0  0  0  0
   -2.6610    4.5930   -1.3550 O   0  0  0  0  0  0  0  0  0  0  0  0
   -3.1840    2.1950   -1.2190 C   0  0  0  0  0  0  0  0  0  0  0  0
   -4.0390    1.2090   -1.3300 C   0  0  0  0  0  0  0  0  0  0  0  0
   -3.5910   -0.1550   -1.0580 C   0  0  0  0  0  0  0  0  0  0  0  0
   -4.6180   -1.1170   -1.2260 O   0  0  0  0  0  0  0  0  0  0  0  0
   -2.3680   -0.4680   -0.7020 C   0  0  0  0  0  0  0  0  0  0  0  0
   -1.9760   -1.8550   -0.4380 C   0  0  0  0  0  0  0  0  0  0  0  0
   -3.0370   -2.8610   -0.1700 C   0  0  0  0  0  0  0  0  0  0  0  0
   -3.8380   -2.5960    1.0990 C   0  0  0  0  0  0  0  0  0  0  0  0
   -4.8320   -3.5230    1.2870 O   0  0  0  0  0  0  0  0  0  0  0  0
   -1.3700    0.6340   -0.5590 C   0  0  1  0  0  0  0  0  0  0  0  0
   -0.7440    0.7220    0.7990 C   0  0  0  0  0  0  0  0  0  0  0  0
    0.6030    1.2540    0.5130 C   0  0  0  0  0  0  0  0  0  0  0  0
    1.4370    1.8930    1.4540 O   0  0  0  0  0  0  0  0  0  0  0  0
    0.9650    1.0730   -0.7360 C   0  0  0  0  0  0  0  0  0  0  0  0
    2.1780    1.4540   -1.3460 O   0  0  0  0  0  0  0  0  0  0  0  0
    3.3670    1.6950   -0.6830 C   0  0  0  0  0  0  0  0  0  0  0  0
    3.9020    0.5300    0.0670 C   0  0  0  0  0  0  0  0  0  0  0  0
    3.2700   -0.6860    0.0770 C   0  0  0  0  0  0  0  0  0  0  0  0
    3.7980   -1.7640    0.7840 C   0  0  0  0  0  0  0  0  0  0  0  0
    3.1850   -3.0060    0.8150 O   0  0  0  0  0  0  0  0  0  0  0  0
    4.9810   -1.6430    1.5020 C   0  0  0  0  0  0  0  0  0  0  0  0
    5.6150   -0.4320    1.4950 C   0  0  0  0  0  0  0  0  0  0  0  0
    6.8100   -0.2550    2.2000 O   0  0  0  0  0  0  0  0  0  0  0  0
    5.0770    0.6170    0.7910 C   0  0  0  0  0  0  0  0  0  0  0  0
    5.7440    1.8280    0.8050 O   0  0  0  0  0  0  0  0  0  0  0  0
   -0.1500    0.3780   -1.4250 C   0  0  0  0  0  0  0  0  0  0  0  0
   -1.9110    1.8740   -0.8520 O   0  0  0  0  0  0  0  0  0  0  0  0
  1  2  2  0
  2  3  1  0
  2  4  1  0
  4  5  2  0
  4 30  1  0
  5  6  1  0
  6  7  1  0
  6  8  2  0
  8  9  1  0
  8 13  1  0
  9 10  1  0
 10 11  1  0
 11 12  1  0
 13 14  1  1
 13 29  1  0
 13 30  1  0
 14 15  1  0
 15 16  1  0
 15 17  2  0
 17 18  1  0
 17 29  1  0
 18 19  1  0
 19 20  1  0
 20 21  2  0
 20 27  1  0
 21 22  1  0
 22 23  1  0
 22 24  2  0
 24 25  1  0
 25 26  1  0
 25 27  2  0
 27 28  1  0
M  END
