
     RDKit          3D

 23 25  0  0  0  0  0  0  0  0999 V2000
    5.8660    2.4240    0.1490 N   0  0  0  0  0  0  0  0  0  0  0  0
    4.5380    2.1460   -0.2840 C   0  0  0  0  0  0  0  0  0  0  0  0
    3.8490    3.0360   -1.0260 N   0  0  0  0  0  0  0  0  0  0  0  0
    2.5970    2.7390   -1.4170 C   0  0  0  0  0  0  0  0  0  0  0  0
    2.0650    1.5740   -1.0640 N   0  0  0  0  0  0  0  0  0  0  0  0
    2.7190    0.6460   -0.3170 C   0  0  0  0  0  0  0  0  0  0  0  0
    3.9880    0.9210    0.0910 C   0  0  0  0  0  0  0  0  0  0  0  0
    4.4060   -0.1280    0.7960 N   0  0  0  0  0  0  0  0  0  0  0  0
    3.4280   -1.0510    0.8370 C   0  0  0  0  0  0  0  0  0  0  0  0
    2.3700   -0.5710    0.1400 N   0  0  0  0  0  0  0  0  0  0  0  0
    1.0930   -1.1680   -0.1110 C   0  0  2  0  0  0  0  0  0  0  0  0
    0.1310   -0.1620   -0.1830 O   0  0  0  0  0  0  0  0  0  0  0  0
   -1.0460   -0.9040   -0.0750 C   0  0  2  0  0  0  0  0  0  0  0  0
   -2.2290    0.0110   -0.0040 C   0  0  0  0  0  0  0  0  0  0  0  0
   -3.4240   -0.6060    0.1020 O   0  0  0  0  0  0  0  0  0  0  0  0
   -4.8060    0.1980    0.1930 P   0  0  0  0  0  0  0  0  0  0  0  0
   -5.1710    1.1200    1.6010 O   0  0  0  0  0  0  0  0  0  0  0  0
   -4.3190    1.4840   -0.4490 O   0  0  0  0  0  0  0  0  0  0  0  0
   -6.0470   -0.1010   -0.8390 O   0  0  0  0  0  0  0  0  0  0  0  0
   -0.8130   -1.7090    1.1550 C   0  0  1  0  0  0  0  0  0  0  0  0
   -1.5480   -2.8680    1.2390 O   0  0  0  0  0  0  0  0  0  0  0  0
    0.6550   -2.1210    0.9680 C   0  0  1  0  0  0  0  0  0  0  0  0
    0.6920   -3.4120    0.4030 O   0  0  0  0  0  0  0  0  0  0  0  0
  1  2  1  0
  2  3  2  0
  2  7  1  0
  3  4  1  0
  4  5  2  0
  5  6  1  0
  6  7  2  0
  6 10  1  0
  7  8  1  0
  8  9  2  0
  9 10  1  0
 11 10  1  1
 11 12  1  0
 11 22  1  0
 12 13  1  0
 13 14  1  1
 13 20  1  0
 14 15  1  0
 15 16  1  0
 16 17  1  0
 16 18  1  0
 16 19  1  0
 20 21  1  6
 20 22  1  0
 22 23  1  6
M  END
