
     RDKit          3D

 16 15  0  0  0  0  0  0  0  0999 V2000
    4.2960    1.7390   -0.0340 C   0  0  0  0  0  0  0  0  0  0  0  0
    2.9830    1.3140    0.5920 C   0  0  0  0  0  0  0  0  0  0  0  0
    2.0330    1.0580   -0.4310 O   0  0  0  0  0  0  0  0  0  0  0  0
    0.6710    0.3750    0.4020 P   0  0  0  0  0  0  0  0  0  0  0  0
    1.3240   -0.8430    1.4570 O   0  0  0  0  0  0  0  0  0  0  0  0
   -0.5470   -0.3970   -0.8070 C   0  0  2  0  0  0  0  0  0  0  0  0
   -1.6580    0.2960   -0.9760 O   0  0  0  0  0  0  0  0  0  0  0  0
   -2.6550    0.4710   -0.3240 O   0  0  0  0  0  0  0  0  0  0  0  0
   -2.5670    1.4280    0.7180 C   0  0  0  0  0  0  0  0  0  0  0  0
   -3.2000    2.6620    0.2450 C   0  0  0  0  0  0  0  0  0  0  0  0
   -3.1540    3.6210    0.9090 O   0  0  0  0  0  0  0  0  0  0  0  0
   -0.7430   -1.8610   -0.4850 C   0  0  2  0  0  0  0  0  0  0  0  0
   -1.3290   -2.0320    0.9200 C   0  0  0  0  0  0  0  0  0  0  0  0
    0.4890   -2.4820   -0.4910 O   0  0  0  0  0  0  0  0  0  0  0  0
   -1.6580   -2.5400   -1.4020 C   0  0  0  0  0  0  0  0  0  0  0  0
   -1.3990   -3.6140   -1.9120 O   0  0  0  0  0  0  0  0  0  0  0  0
  1  2  1  0
  2  3  1  0
  3  4  1  0
  4  5  1  0
  4  6  1  0
  6  7  1  1
  6 12  1  0
  7  8  1  0
  8  9  1  0
  9 10  1  0
 10 11  2  0
 12 13  1  1
 12 14  1  0
 12 15  1  0
 15 16  2  0
M  END
