
     RDKit          3D

 16 16  0  0  0  0  0  0  0  0999 V2000
    3.3620   -1.1730   -0.3180 C   0  0  0  0  0  0  0  0  0  0  0  0
    2.7820    0.0890   -0.2240 O   0  0  0  0  0  0  0  0  0  0  0  0
    1.6940    0.2050   -0.9160 O   0  0  0  0  0  0  0  0  0  0  0  0
    0.5790    0.5140   -0.1410 C   0  0  1  0  0  0  0  0  0  0  0  0
    0.7310    1.7840    0.5840 C   0  0  0  0  0  0  0  0  0  0  0  0
    1.7740    2.4770    0.4800 O   0  0  0  0  0  0  0  0  0  0  0  0
   -0.2700    2.2670    1.4120 O   0  0  0  0  0  0  0  0  0  0  0  0
   -0.6530    0.5820   -0.9940 C   0  0  0  0  0  0  0  0  0  0  0  0
   -1.5880   -0.4810   -0.5270 C   0  0  1  0  0  0  0  0  0  0  0  0
   -2.5840   -0.0040    0.5020 C   0  0  0  0  0  0  0  0  0  0  0  0
   -2.4500   -1.2100   -1.9930 P   0  0  0  0  0  0  0  0  0  0  0  0
   -3.4230   -0.2580   -2.7620 O   0  0  0  0  0  0  0  0  0  0  0  0
   -0.6870   -1.4490    0.1380 C   0  0  0  0  0  0  0  0  0  0  0  0
   -0.7650   -2.7250    0.1810 O   0  0  0  0  0  0  0  0  0  0  0  0
    0.3520   -0.6410    0.7630 C   0  0  0  0  0  0  0  0  0  0  0  0
    0.9410   -0.8900    1.8710 O   0  0  0  0  0  0  0  0  0  0  0  0
  1  2  1  0
  2  3  1  0
  4  3  1  6
  4  5  1  0
  4  8  1  0
  4 15  1  0
  5  6  2  0
  5  7  1  0
  8  9  1  0
  9 10  1  1
  9 11  1  0
  9 13  1  0
 11 12  2  0
 13 14  2  0
 13 15  1  0
 15 16  2  0
M  END
