
     RDKit          3D

 15 14  0  0  0  0  0  0  0  0999 V2000
   -3.2030    0.2960   -1.2890 C   0  0  0  0  0  0  0  0  0  0  0  0
   -2.2900   -0.0710   -0.0680 C   0  0  2  0  0  0  0  0  0  0  0  0
   -2.6870    0.9510    1.0080 C   0  0  0  0  0  0  0  0  0  0  0  0
   -0.8880    0.1840   -0.4870 C   0  0  0  0  0  0  0  0  0  0  0  0
    0.2150   -0.1500    0.4310 C   0  0  1  0  0  0  0  0  0  0  0  0
    1.4330    0.2260   -0.2600 O   0  0  0  0  0  0  0  0  0  0  0  0
    2.1720   -0.8910   -0.5360 C   0  0  0  0  0  0  0  0  0  0  0  0
    3.4620   -0.5800   -1.2590 C   0  0  0  0  0  0  0  0  0  0  0  0
    4.2400    0.2710   -0.4500 O   0  0  0  0  0  0  0  0  0  0  0  0
    5.3620    0.5270   -1.1080 O   0  0  0  0  0  0  0  0  0  0  0  0
    0.2410    0.4630    1.7310 C   0  0  0  0  0  0  0  0  0  0  0  0
    1.1120    1.3920    1.9450 O   0  0  0  0  0  0  0  0  0  0  0  0
   -0.5440    0.2020    2.8420 O   0  0  0  0  0  0  0  0  0  0  0  0
   -2.6100   -1.7880    0.4950 P   0  0  0  0  0  0  0  0  0  0  0  0
   -3.2090   -2.1020    1.8920 O   0  0  0  0  0  0  0  0  0  0  0  0
  2  1  1  6
  2  3  1  0
  2  4  1  0
  2 14  1  0
  5  4  1  6
  5  6  1  0
  5 11  1  0
  6  7  1  0
  7  8  1  0
  8  9  1  0
  9 10  1  0
 11 12  2  0
 11 13  1  0
 14 15  2  0
M  END
