
     RDKit          3D

 34 37  0  0  0  0  0  0  0  0999 V2000
   -6.2280   -0.1920    0.2430 C   0  0  0  0  0  0  0  0  0  0  0  0
   -5.6810   -1.1060   -0.7290 N   0  0  1  0  0  0  0  0  0  0  0  0
   -6.7150   -2.0340   -1.1910 C   0  0  0  0  0  0  0  0  0  0  0  0
   -5.1110   -0.4640   -1.8820 C   0  0  0  0  0  0  0  0  0  0  0  0
   -5.0670    1.0100   -1.7760 C   0  0  0  0  0  0  0  0  0  0  0  0
   -6.0510    1.8370   -2.1560 N   0  0  0  0  0  0  0  0  0  0  0  0
   -5.6690    3.0990   -1.9160 C   0  0  0  0  0  0  0  0  0  0  0  0
   -4.4040    3.0180   -1.3700 C   0  0  0  0  0  0  0  0  0  0  0  0
   -4.0560    1.7340   -1.2940 N   0  0  0  0  0  0  0  0  0  0  0  0
   -2.8410    1.2160   -0.7960 C   0  0  0  0  0  0  0  0  0  0  0  0
   -2.7910    0.7890    0.5170 C   0  0  0  0  0  0  0  0  0  0  0  0
   -1.6210    0.2810    1.0390 C   0  0  0  0  0  0  0  0  0  0  0  0
   -0.4490    0.1740    0.2810 C   0  0  0  0  0  0  0  0  0  0  0  0
    0.7120   -0.3480    0.8670 N   0  0  0  0  0  0  0  0  0  0  0  0
    0.8090   -1.5240    1.7110 C   0  0  0  0  0  0  0  0  0  0  0  0
    1.7450   -0.9870    2.8030 C   0  0  0  0  0  0  0  0  0  0  0  0
    2.8180   -0.3110    1.9810 C   0  0  2  0  0  0  0  0  0  0  0  0
    3.3620    0.8530    2.6450 N   0  0  0  0  0  0  0  0  0  0  0  0
    5.0610    0.7510    2.8640 S   0  0  2  0  0  0  0  0  0  0  0  0
    5.4710   -0.3780    3.7270 O   0  0  0  0  0  0  0  0  0  0  0  0
    5.4990    2.0370    3.5320 O   0  0  0  0  0  0  0  0  0  0  0  0
    5.9440    0.6430    1.3600 C   0  0  0  0  0  0  0  0  0  0  0  0
    6.3880   -0.5190    0.9380 C   0  0  0  0  0  0  0  0  0  0  0  0
    7.1140   -0.5630   -0.3130 C   0  0  0  0  0  0  0  0  0  0  0  0
    7.6920   -1.6430   -0.9950 C   0  0  0  0  0  0  0  0  0  0  0  0
    8.3070   -1.4120   -2.1340 C   0  0  0  0  0  0  0  0  0  0  0  0
    8.4000   -0.1400   -2.6750 C   0  0  0  0  0  0  0  0  0  0  0  0
    9.0870    0.5100   -4.0660 Cl  0  0  0  0  0  0  0  0  0  0  0  0
    7.4800    0.7790   -1.3510 S   0  0  0  0  0  0  0  0  0  0  0  0
    2.0660    0.1420    0.7840 C   0  0  0  0  0  0  0  0  0  0  0  0
    2.5200    0.8320   -0.1480 O   0  0  0  0  0  0  0  0  0  0  0  0
   -0.5280    0.6080   -1.0280 C   0  0  0  0  0  0  0  0  0  0  0  0
    0.5550    0.5360   -1.8140 F   0  0  0  0  0  0  0  0  0  0  0  0
   -1.6950    1.1180   -1.5600 C   0  0  0  0  0  0  0  0  0  0  0  0
  2  1  1  1
  2  3  1  0
  2  4  1  0
  4  5  1  0
  5  6  2  0
  5  9  1  0
  6  7  1  0
  7  8  2  0
  8  9  1  0
  9 10  1  0
 10 11  2  0
 10 34  1  0
 11 12  1  0
 12 13  2  0
 13 14  1  0
 13 32  1  0
 14 15  1  0
 14 30  1  0
 15 16  1  0
 16 17  1  0
 17 18  1  1
 17 30  1  0
 19 18  1  6
 19 20  2  0
 19 21  2  0
 19 22  1  0
 22 23  2  3
 23 24  1  0
 24 25  2  0
 24 29  1  0
 25 26  1  0
 26 27  2  0
 27 28  1  0
 27 29  1  0
 30 31  2  0
 32 33  1  0
 32 34  2  0
M  CHG  1   2   1
M  END
