
     RDKit          3D

 35 39  0  0  0  0  0  0  0  0999 V2000
    8.5150    1.5160    1.7260 N   0  0  0  0  0  0  0  0  0  0  0  0
    8.0990    0.6050    0.7050 C   0  0  0  0  0  0  0  0  0  0  0  0
    8.9210   -0.0390   -0.0280 N   0  0  0  0  0  0  0  0  0  0  0  0
    8.5000   -0.9400   -1.0380 C   0  0  0  0  0  0  0  0  0  0  0  0
    9.3790   -1.5590   -1.7430 O   0  0  0  0  0  0  0  0  0  0  0  0
    7.0950   -1.1940   -1.3080 C   0  0  0  0  0  0  0  0  0  0  0  0
    6.1690   -0.4250   -0.4350 C   0  0  0  0  0  0  0  0  0  0  0  0
    4.8040   -0.5960   -0.6140 C   0  0  0  0  0  0  0  0  0  0  0  0
    3.9100    0.1090    0.1870 C   0  0  0  0  0  0  0  0  0  0  0  0
    2.4950   -0.1060    0.0000 N   0  0  0  0  0  0  0  0  0  0  0  0
    1.5090    0.7800    0.3510 C   0  0  0  0  0  0  0  0  0  0  0  0
    1.8640    1.8950    0.8760 O   0  0  0  0  0  0  0  0  0  0  0  0
    0.0750    0.6120    0.1990 C   0  0  0  0  0  0  0  0  0  0  0  0
   -0.7760    1.6530    0.6110 C   0  0  0  0  0  0  0  0  0  0  0  0
   -2.1410    1.5960    0.5050 C   0  0  0  0  0  0  0  0  0  0  0  0
   -3.1670    2.9220    1.0330 Cl  0  0  0  0  0  0  0  0  0  0  0  0
   -2.7750    0.4970   -0.0220 C   0  0  0  0  0  0  0  0  0  0  0  0
   -4.1900    0.4410   -0.1320 N   0  0  0  0  0  0  0  0  0  0  0  0
   -5.0440   -0.0810    0.9120 C   0  0  0  0  0  0  0  0  0  0  0  0
   -6.3100    0.6920    1.0950 C   0  0  0  0  0  0  0  0  0  0  0  0
   -6.9220    1.0450   -0.1940 N   0  0  0  0  0  0  0  0  0  0  0  0
   -8.0510    1.9220    0.1410 C   0  0  0  0  0  0  0  0  0  0  0  0
   -9.1680    1.0160    1.1860 Cl  0  0  0  0  0  0  0  0  0  0  0  0
   -5.9790    1.8010   -0.9940 C   0  0  0  0  0  0  0  0  0  0  0  0
   -4.8130    0.9260   -1.3420 C   0  0  0  0  0  0  0  0  0  0  0  0
   -1.9600   -0.5290   -0.4300 C   0  0  0  0  0  0  0  0  0  0  0  0
   -0.5600   -0.4810   -0.3250 C   0  0  0  0  0  0  0  0  0  0  0  0
    0.3320   -1.4700   -0.7110 O   0  0  0  0  0  0  0  0  0  0  0  0
    0.0920   -2.8670   -0.7940 C   0  0  0  0  0  0  0  0  0  0  0  0
   -1.2290   -3.2800   -0.2280 C   0  0  0  0  0  0  0  0  0  0  0  0
   -2.3860   -2.8950   -1.1230 C   0  0  0  0  0  0  0  0  0  0  0  0
   -2.7350   -1.5520   -0.9310 O   0  0  0  0  0  0  0  0  0  0  0  0
    4.4150    0.9470    1.1260 C   0  0  0  0  0  0  0  0  0  0  0  0
    5.7760    1.1470    1.3380 C   0  0  0  0  0  0  0  0  0  0  0  0
    6.6530    0.4300    0.5230 C   0  0  0  0  0  0  0  0  0  0  0  0
  1  2  1  0
  2  3  2  0
  2 35  1  0
  3  4  1  0
  4  5  2  0
  4  6  1  0
  6  7  1  0
  7  8  2  0
  7 35  1  0
  8  9  1  0
  9 10  1  0
  9 33  2  0
 10 11  1  0
 11 12  2  0
 11 13  1  0
 13 14  2  0
 13 27  1  0
 14 15  1  0
 15 16  1  0
 15 17  2  0
 17 18  1  0
 17 26  1  0
 18 19  1  0
 18 25  1  0
 19 20  1  0
 20 21  1  0
 21 22  1  0
 21 24  1  0
 22 23  1  0
 24 25  1  0
 26 27  2  0
 26 32  1  0
 27 28  1  0
 28 29  1  0
 29 30  1  0
 30 31  1  0
 31 32  1  0
 33 34  1  0
 34 35  2  0
M  END
