
     RDKit          3D

 34 38  0  0  0  0  0  0  0  0999 V2000
    2.9090   -1.7690   -3.0730 O   0  0  0  0  0  0  0  0  0  0  0  0
    1.8040   -1.6370   -2.4960 C   0  0  0  0  0  0  0  0  0  0  0  0
    0.6340   -2.2000   -3.2520 C   0  0  0  0  0  0  0  0  0  0  0  0
   -0.5910   -1.9140   -2.6560 O   0  0  0  0  0  0  0  0  0  0  0  0
   -1.0510   -0.6120   -2.5250 C   0  0  0  0  0  0  0  0  0  0  0  0
   -0.3420    0.3290   -2.9620 O   0  0  0  0  0  0  0  0  0  0  0  0
   -2.3300   -0.3340   -1.8940 C   0  0  0  0  0  0  0  0  0  0  0  0
   -2.7700    0.9670   -1.7730 C   0  0  0  0  0  0  0  0  0  0  0  0
   -3.9780    1.2340   -1.1770 C   0  0  0  0  0  0  0  0  0  0  0  0
   -4.7680    0.1900   -0.6900 C   0  0  0  0  0  0  0  0  0  0  0  0
   -6.0820    0.4340   -0.0390 C   0  0  1  0  0  0  0  0  0  0  0  0
   -7.2140   -0.1720   -0.7870 C   0  0  0  0  0  0  0  0  0  0  0  0
   -7.9040   -1.2980   -0.0720 C   0  0  0  0  0  0  0  0  0  0  0  0
   -8.6080   -0.5870    1.4670 S   0  0  0  0  0  0  0  0  0  0  0  0
   -7.2940    0.5320    2.0920 C   0  0  0  0  0  0  0  0  0  0  0  0
   -6.0110    0.0370    1.4100 C   0  0  2  0  0  0  0  0  0  0  0  0
   -4.9680    0.7890    1.9900 O   0  0  0  0  0  0  0  0  0  0  0  0
   -4.3270   -1.1110   -0.8120 C   0  0  0  0  0  0  0  0  0  0  0  0
   -3.1000   -1.3820   -1.4170 C   0  0  0  0  0  0  0  0  0  0  0  0
    1.6630   -1.0170   -1.2410 N   0  0  0  0  0  0  0  0  0  0  0  0
    2.7300   -0.4800   -0.5100 C   0  0  0  0  0  0  0  0  0  0  0  0
    2.4060    0.2280    0.6560 C   0  0  0  0  0  0  0  0  0  0  0  0
    3.3450    0.7970    1.4670 C   0  0  0  0  0  0  0  0  0  0  0  0
    4.7140    0.7050    1.1760 C   0  0  0  0  0  0  0  0  0  0  0  0
    5.0280    0.0160    0.0410 C   0  0  0  0  0  0  0  0  0  0  0  0
    4.0690   -0.5630   -0.7840 C   0  0  0  0  0  0  0  0  0  0  0  0
    6.4320   -0.1070   -0.3050 C   0  0  0  0  0  0  0  0  0  0  0  0
    6.7730   -0.7310   -1.3400 O   0  0  0  0  0  0  0  0  0  0  0  0
    7.4760    0.4910    0.5400 C   0  0  0  0  0  0  0  0  0  0  0  0
    8.8020    0.5140    0.4380 C   0  0  0  0  0  0  0  0  0  0  0  0
    9.3860    1.2600    1.5690 C   0  0  0  0  0  0  0  0  0  0  0  0
    8.2010    1.6670    2.3440 C   0  0  0  0  0  0  0  0  0  0  0  0
    7.0870    1.2070    1.7270 C   0  0  0  0  0  0  0  0  0  0  0  0
    5.6670    1.3450    2.0980 C   0  0  0  0  0  0  0  0  0  0  0  0
  1  2  2  0
  2  3  1  0
  2 20  1  0
  3  4  1  0
  4  5  1  0
  5  6  2  0
  5  7  1  0
  7  8  2  0
  7 19  1  0
  8  9  1  0
  9 10  2  0
 11 10  1  6
 10 18  1  0
 11 12  1  0
 11 16  1  0
 12 13  1  0
 13 14  1  0
 14 15  1  0
 15 16  1  0
 16 17  1  1
 18 19  2  0
 20 21  1  0
 21 22  2  0
 21 26  1  0
 22 23  1  0
 23 24  2  0
 24 25  1  0
 24 34  1  0
 25 26  2  0
 25 27  1  0
 27 28  2  0
 27 29  1  0
 29 30  2  0
 29 33  1  0
 30 31  1  0
 31 32  1  0
 32 33  2  0
 33 34  1  0
M  END
