
     RDKit          3D

 35 39  0  0  0  0  0  0  0  0999 V2000
    5.8110   -2.9040    0.5040 C   0  0  0  0  0  0  0  0  0  0  0  0
    4.8930   -1.7780    0.5200 N   0  0  0  0  0  0  0  0  0  0  0  0
    3.5510   -1.8600    0.0280 C   0  0  0  0  0  0  0  0  0  0  0  0
    3.0960   -2.7550   -0.7340 O   0  0  0  0  0  0  0  0  0  0  0  0
    2.7820   -0.7800    0.5170 N   0  0  0  0  0  0  0  0  0  0  0  0
    1.4120   -0.4440    0.3400 C   0  0  0  0  0  0  0  0  0  0  0  0
    0.9740    0.6510   -0.3550 C   0  0  0  0  0  0  0  0  0  0  0  0
   -0.3700    0.9540   -0.5100 C   0  0  0  0  0  0  0  0  0  0  0  0
   -1.3170    0.1210    0.0600 C   0  0  0  0  0  0  0  0  0  0  0  0
   -2.7600    0.4110   -0.0830 C   0  0  0  0  0  0  0  0  0  0  0  0
   -3.1120    1.5950   -0.2630 O   0  0  0  0  0  0  0  0  0  0  0  0
   -3.6670   -0.6860   -0.0050 N   0  0  0  0  0  0  0  0  0  0  0  0
   -5.0530   -0.4210   -0.1430 C   0  0  0  0  0  0  0  0  0  0  0  0
   -5.9000   -1.5350   -0.0670 C   0  0  0  0  0  0  0  0  0  0  0  0
   -7.2630   -1.4320   -0.1870 C   0  0  0  0  0  0  0  0  0  0  0  0
   -7.7650   -0.1490   -0.3890 C   0  0  0  0  0  0  0  0  0  0  0  0
   -6.9500    0.9450   -0.4650 C   0  0  0  0  0  0  0  0  0  0  0  0
   -5.6070    0.7790   -0.3390 N   0  0  0  0  0  0  0  0  0  0  0  0
   -7.8300    2.1230   -0.6750 C   0  0  0  0  0  0  0  0  0  0  0  0
   -9.1370    1.7070   -0.1860 N   0  0  0  0  0  0  0  0  0  0  0  0
   -9.1590    0.3140   -0.5670 C   0  0  0  0  0  0  0  0  0  0  0  0
   -0.9170   -0.9870    0.7660 C   0  0  0  0  0  0  0  0  0  0  0  0
    0.4300   -1.2450    0.8900 C   0  0  0  0  0  0  0  0  0  0  0  0
    0.9050   -2.6560    1.7920 Cl  0  0  0  0  0  0  0  0  0  0  0  0
    3.6670    0.0120    1.3430 C   0  0  0  0  0  0  0  0  0  0  0  0
    3.3620    0.8870    2.1520 O   0  0  0  0  0  0  0  0  0  0  0  0
    5.0400   -0.4570    1.0090 C   0  0  2  0  0  0  0  0  0  0  0  0
    5.7400    0.5110    0.1630 C   0  0  0  0  0  0  0  0  0  0  0  0
    5.7150    1.8350    0.6160 C   0  0  0  0  0  0  0  0  0  0  0  0
    6.3730    2.8240   -0.0710 C   0  0  0  0  0  0  0  0  0  0  0  0
    6.3340    4.4900    0.5110 Cl  0  0  0  0  0  0  0  0  0  0  0  0
    7.0740    2.5440   -1.2210 C   0  0  0  0  0  0  0  0  0  0  0  0
    7.0840    1.2350   -1.6470 C   0  0  0  0  0  0  0  0  0  0  0  0
    6.4390    0.2130   -0.9910 C   0  0  0  0  0  0  0  0  0  0  0  0
    6.4650   -1.0950   -1.4470 O   0  0  0  0  0  0  0  0  0  0  0  0
  1  2  1  0
  2  3  1  0
  2 27  1  0
  3  4  2  0
  3  5  1  0
  5  6  1  0
  5 25  1  0
  6  7  2  0
  6 23  1  0
  7  8  1  0
  8  9  2  0
  9 10  1  0
  9 22  1  0
 10 11  2  0
 10 12  1  0
 12 13  1  0
 13 14  2  0
 13 18  1  0
 14 15  1  0
 15 16  2  0
 16 17  1  0
 16 21  1  0
 17 18  2  0
 17 19  1  0
 19 20  1  0
 20 21  1  0
 22 23  2  0
 23 24  1  0
 25 26  2  0
 25 27  1  0
 27 28  1  6
 28 29  2  0
 28 34  1  0
 29 30  1  0
 30 31  1  0
 30 32  2  0
 32 33  1  0
 33 34  2  0
 34 35  1  0
M  END
