
     RDKit          3D

 35 39  0  0  0  0  0  0  0  0999 V2000
   -3.3720    1.3080    3.6040 C   0  0  0  0  0  0  0  0  0  0  0  0
   -3.3800    0.8960    2.3550 C   0  0  0  0  0  0  0  0  0  0  0  0
   -2.9310   -0.4630    1.8590 C   0  0  0  0  0  0  0  0  0  0  0  0
   -3.2380   -0.3700    0.4400 N   0  0  0  0  0  0  0  0  0  0  0  0
   -3.4490   -1.4900   -0.3960 C   0  0  0  0  0  0  0  0  0  0  0  0
   -4.7100   -2.0160   -0.5570 C   0  0  0  0  0  0  0  0  0  0  0  0
   -4.9450   -3.1190   -1.3570 C   0  0  0  0  0  0  0  0  0  0  0  0
   -6.5350   -3.7960   -1.5640 Cl  0  0  0  0  0  0  0  0  0  0  0  0
   -3.8790   -3.6950   -2.0030 C   0  0  0  0  0  0  0  0  0  0  0  0
   -4.0410   -5.0930   -3.0420 Cl  0  0  0  0  0  0  0  0  0  0  0  0
   -2.6120   -3.1570   -1.8330 C   0  0  0  0  0  0  0  0  0  0  0  0
   -2.3410   -2.0630   -1.0470 C   0  0  0  0  0  0  0  0  0  0  0  0
   -1.0720   -1.4770   -0.8280 N   0  0  0  0  0  0  0  0  0  0  0  0
    0.1180   -1.7930   -1.5160 C   0  0  0  0  0  0  0  0  0  0  0  0
    0.0800   -2.6660   -2.4490 O   0  0  0  0  0  0  0  0  0  0  0  0
    1.3910   -1.1530   -1.2100 C   0  0  0  0  0  0  0  0  0  0  0  0
    2.2160   -0.7500   -2.2320 C   0  0  0  0  0  0  0  0  0  0  0  0
    3.3920   -0.0530   -1.9940 C   0  0  0  0  0  0  0  0  0  0  0  0
    3.7140    0.2280   -0.6910 C   0  0  0  0  0  0  0  0  0  0  0  0
    4.9040    0.9810   -0.3980 N   0  0  0  0  0  0  0  0  0  0  0  0
    4.8880    2.0340    0.5500 C   0  0  0  0  0  0  0  0  0  0  0  0
    3.7540    2.2940    1.0910 O   0  0  0  0  0  0  0  0  0  0  0  0
    6.0920    2.8060    0.9140 C   0  0  0  0  0  0  0  0  0  0  0  0
    7.3610    2.1880    0.4610 C   0  0  0  0  0  0  0  0  0  0  0  0
    7.2470    1.4600   -0.7380 O   0  0  0  0  0  0  0  0  0  0  0  0
    6.1320    0.6960   -1.0560 C   0  0  0  0  0  0  0  0  0  0  0  0
    6.1730   -0.2400   -1.9070 O   0  0  0  0  0  0  0  0  0  0  0  0
    2.9220   -0.1580    0.3560 C   0  0  0  0  0  0  0  0  0  0  0  0
    1.7300   -0.8690    0.0760 C   0  0  0  0  0  0  0  0  0  0  0  0
    0.9570   -1.2780    1.2720 C   0  0  0  0  0  0  0  0  0  0  0  0
   -3.2560    1.0170    0.0420 C   0  0  1  0  0  0  0  0  0  0  0  0
   -4.1890    1.3690   -0.9880 N   0  0  0  0  0  0  0  0  0  0  0  0
   -4.4000    2.7490   -0.6750 N   0  0  0  0  0  0  0  0  0  0  0  0
   -4.4910    2.7500    0.7510 C   0  0  0  0  0  0  0  0  0  0  0  0
   -3.8400    1.7110    1.2380 C   0  0  0  0  0  0  0  0  0  0  0  0
  1  2  2  0
  2  3  1  0
  2 35  1  0
  3  4  1  0
  4  5  1  0
  4 31  1  0
  5  6  2  0
  5 12  1  0
  6  7  1  0
  7  8  1  0
  7  9  2  0
  9 10  1  0
  9 11  1  0
 11 12  2  0
 12 13  1  0
 13 14  1  0
 14 15  2  0
 14 16  1  0
 16 17  2  0
 16 29  1  0
 17 18  1  0
 18 19  2  0
 19 20  1  0
 19 28  1  0
 20 21  1  0
 20 26  1  0
 21 22  2  0
 21 23  1  0
 23 24  1  0
 24 25  1  0
 25 26  1  0
 26 27  2  0
 28 29  2  0
 29 30  1  0
 31 32  1  6
 31 35  1  0
 32 33  1  0
 33 34  1  0
 34 35  2  0
M  END
