
     RDKit          3D

 35 38  0  0  0  0  0  0  0  0999 V2000
    4.1080   -4.2390   -1.1280 C   0  0  0  0  0  0  0  0  0  0  0  0
    4.2550   -3.0810   -0.5240 C   0  0  0  0  0  0  0  0  0  0  0  0
    3.0500   -2.3230   -0.1640 C   0  0  0  0  0  0  0  0  0  0  0  0
    3.2000   -1.1650    0.4350 C   0  0  0  0  0  0  0  0  0  0  0  0
    2.0460   -0.4160    0.7910 N   0  0  0  0  0  0  0  0  0  0  0  0
    1.4620    0.4480   -0.2080 C   0  0  0  0  0  0  0  0  0  0  0  0
    0.9260    1.6720    0.4950 C   0  0  0  0  0  0  0  0  0  0  0  0
   -0.1470    1.2430    1.3760 N   0  0  0  0  0  0  0  0  0  0  0  0
   -1.2730    2.0790    1.6200 C   0  0  0  0  0  0  0  0  0  0  0  0
   -2.2010    1.7030    2.3700 O   0  0  0  0  0  0  0  0  0  0  0  0
   -1.4080    3.4140    1.0130 C   0  0  0  0  0  0  0  0  0  0  0  0
   -2.0150    3.6160   -0.1960 C   0  0  0  0  0  0  0  0  0  0  0  0
   -2.1120    4.8540   -0.7060 N   0  0  0  0  0  0  0  0  0  0  0  0
   -1.6180    5.9120   -0.0440 C   0  0  0  0  0  0  0  0  0  0  0  0
   -1.7240    7.0640   -0.5490 O   0  0  0  0  0  0  0  0  0  0  0  0
   -1.0200    5.7230    1.1450 N   0  0  0  0  0  0  0  0  0  0  0  0
   -0.9030    4.5190    1.6840 C   0  0  0  0  0  0  0  0  0  0  0  0
   -0.3410    4.3110    2.8080 O   0  0  0  0  0  0  0  0  0  0  0  0
    0.0010   -0.0420    2.0020 C   0  0  1  0  0  0  0  0  0  0  0  0
   -0.8990   -1.0990    1.4710 C   0  0  0  0  0  0  0  0  0  0  0  0
   -0.8260   -2.2500    1.9440 O   0  0  0  0  0  0  0  0  0  0  0  0
   -1.8090   -0.7850    0.4530 N   0  0  0  0  0  0  0  0  0  0  0  0
   -2.7100   -1.6710   -0.1380 C   0  0  0  0  0  0  0  0  0  0  0  0
   -2.8360   -2.9870    0.2020 C   0  0  0  0  0  0  0  0  0  0  0  0
   -3.7670   -3.8300   -0.4340 C   0  0  0  0  0  0  0  0  0  0  0  0
   -4.5850   -3.3500   -1.4250 C   0  0  0  0  0  0  0  0  0  0  0  0
   -4.4790   -2.0350   -1.7840 C   0  0  0  0  0  0  0  0  0  0  0  0
   -5.4950   -1.3640   -3.0410 Cl  0  0  0  0  0  0  0  0  0  0  0  0
   -3.5630   -1.2270   -1.1510 C   0  0  0  0  0  0  0  0  0  0  0  0
   -3.4450    0.2120   -1.5420 C   0  0  0  0  0  0  0  0  0  0  0  0
    1.4380   -0.4800    2.0980 C   0  0  0  0  0  0  0  0  0  0  0  0
    4.5180   -0.6050    0.7600 C   0  0  0  0  0  0  0  0  0  0  0  0
    4.7090    0.9360    1.5580 Cl  0  0  0  0  0  0  0  0  0  0  0  0
    5.6100   -1.2790    0.4430 C   0  0  0  0  0  0  0  0  0  0  0  0
    5.6120   -2.5900   -0.2320 C   0  0  0  0  0  0  0  0  0  0  0  0
  1  2  2  0
  2  3  1  0
  2 35  1  0
  3  4  2  0
  4  5  1  0
  4 32  1  0
  5  6  1  0
  5 31  1  0
  6  7  1  0
  7  8  1  0
  8  9  1  0
  8 19  1  0
  9 10  2  0
  9 11  1  0
 11 12  2  0
 11 17  1  0
 12 13  1  0
 13 14  1  0
 14 15  2  0
 14 16  1  0
 16 17  1  0
 17 18  2  0
 19 20  1  6
 19 31  1  0
 20 21  2  0
 20 22  1  0
 22 23  1  0
 23 24  2  0
 23 29  1  0
 24 25  1  0
 25 26  2  0
 26 27  1  0
 27 28  1  0
 27 29  2  0
 29 30  1  0
 32 33  1  0
 32 34  2  0
 34 35  1  0
M  END
