
     RDKit          3D

 35 37  0  0  0  0  0  0  0  0999 V2000
    9.1380    1.6450   -1.8710 C   0  0  0  0  0  0  0  0  0  0  0  0
    8.1720    0.8260   -1.5540 C   0  0  0  0  0  0  0  0  0  0  0  0
    7.4470   -0.1080   -2.4540 C   0  0  0  0  0  0  0  0  0  0  0  0
    6.1430   -0.1350   -1.7750 N   0  0  0  0  0  0  0  0  0  0  0  0
    6.4220    0.0780   -0.3720 C   0  0  0  0  0  0  0  0  0  0  0  0
    5.5130   -0.2790    0.7100 C   0  0  0  0  0  0  0  0  0  0  0  0
    5.7310   -0.1050    1.9750 C   0  0  0  0  0  0  0  0  0  0  0  0
    6.8650    0.4600    2.6240 C   0  0  0  0  0  0  0  0  0  0  0  0
    7.8710    0.8960    2.0580 O   0  0  0  0  0  0  0  0  0  0  0  0
    6.8960    0.5570    4.0470 O   0  0  0  0  0  0  0  0  0  0  0  0
    3.9610   -1.0560    0.1730 S   0  0  0  0  0  0  0  0  0  0  0  0
    2.7270   -1.1580    1.4640 C   0  0  0  0  0  0  0  0  0  0  0  0
    2.1690    0.1690    1.8040 C   0  0  2  0  0  0  0  0  0  0  0  0
    1.1760    0.1250    2.8150 O   0  0  0  0  0  0  0  0  0  0  0  0
    1.6540    1.0260    0.6980 C   0  0  0  0  0  0  0  0  0  0  0  0
    0.4840    0.7120    0.0800 O   0  0  0  0  0  0  0  0  0  0  0  0
    0.0680   -0.3070   -0.7010 C   0  0  0  0  0  0  0  0  0  0  0  0
    0.8690   -1.2180   -0.9900 O   0  0  0  0  0  0  0  0  0  0  0  0
   -1.2890   -0.4320   -1.2520 C   0  0  0  0  0  0  0  0  0  0  0  0
   -1.7190    0.0770   -2.4850 C   0  0  0  0  0  0  0  0  0  0  0  0
   -0.8930    0.8330   -3.4600 C   0  0  0  0  0  0  0  0  0  0  0  0
   -3.0260   -0.2680   -2.5820 N   0  0  0  0  0  0  0  0  0  0  0  0
   -3.4240   -0.9570   -1.4870 C   0  0  0  0  0  0  0  0  0  0  0  0
   -2.3380   -1.0670   -0.6400 C   0  0  0  0  0  0  0  0  0  0  0  0
   -2.4920   -1.7630    0.6250 C   0  0  0  0  0  0  0  0  0  0  0  0
   -1.4940   -2.2260    1.1890 O   0  0  0  0  0  0  0  0  0  0  0  0
   -3.8190   -1.9260    1.2480 C   0  0  0  0  0  0  0  0  0  0  0  0
   -4.9150   -1.2270    0.4180 C   0  0  1  0  0  0  0  0  0  0  0  0
   -6.2040   -1.8780    0.9320 C   0  0  0  0  0  0  0  0  0  0  0  0
   -4.8230    0.2280    0.7180 C   0  0  0  0  0  0  0  0  0  0  0  0
   -5.7790    1.1190    0.0120 C   0  0  2  0  0  0  0  0  0  0  0  0
   -5.5370    2.5910    0.4250 C   0  0  0  0  0  0  0  0  0  0  0  0
   -7.2310    0.8770    0.2530 C   0  0  0  0  0  0  0  0  0  0  0  0
   -4.6790   -1.5880   -1.0200 C   0  0  0  0  0  0  0  0  0  0  0  0
    7.5830    0.6260   -0.2880 N   0  0  0  0  0  0  0  0  0  0  0  0
  1  2  2  0
  2  3  1  0
  2 35  1  0
  3  4  1  0
  4  5  1  0
  5  6  1  0
  5 35  2  0
  6  7  2  3
  6 11  1  0
  7  8  1  0
  8  9  2  0
  8 10  1  0
 11 12  1  0
 12 13  1  0
 13 14  1  1
 13 15  1  0
 15 16  1  0
 16 17  1  0
 17 18  2  0
 17 19  1  0
 19 20  2  0
 19 24  1  0
 20 21  1  0
 20 22  1  0
 22 23  1  0
 23 24  2  0
 23 34  1  0
 24 25  1  0
 25 26  2  0
 25 27  1  0
 27 28  1  0
 28 29  1  1
 28 30  1  0
 28 34  1  0
 30 31  1  0
 31 32  1  1
 31 33  1  0
M  END
