
     RDKit          3D

 34 37  0  0  0  0  0  0  0  0999 V2000
    4.7970   -2.9570    0.8010 C   0  0  0  0  0  0  0  0  0  0  0  0
    3.4020   -2.5160    1.0150 C   0  0  0  0  0  0  0  0  0  0  0  0
    2.9480   -1.4780   -0.0430 C   0  0  2  0  0  0  0  0  0  0  0  0
    3.1140   -2.2900   -1.3500 C   0  0  0  0  0  0  0  0  0  0  0  0
    3.9720   -0.4200   -0.0050 C   0  0  0  0  0  0  0  0  0  0  0  0
    3.4130    0.7920   -0.5920 C   0  0  0  0  0  0  0  0  0  0  0  0
    2.0290    1.2380   -0.1870 C   0  0  2  0  0  0  0  0  0  0  0  0
    1.6730    1.9690   -1.3030 O   0  0  0  0  0  0  0  0  0  0  0  0
    2.2700    2.3360    0.8890 C   0  0  0  0  0  0  0  0  0  0  0  0
    1.6080    1.8840    2.1450 C   0  0  0  0  0  0  0  0  0  0  0  0
    1.4660    0.4350    1.8500 C   0  0  0  0  0  0  0  0  0  0  0  0
    1.0860    0.2930    0.3870 C   0  0  1  0  0  0  0  0  0  0  0  0
   -0.3540    0.2650    0.0480 C   0  0  1  0  0  0  0  0  0  0  0  0
   -0.1870   -0.0780   -1.3740 O   0  0  0  0  0  0  0  0  0  0  0  0
   -1.1020   -0.9530    0.5340 C   0  0  1  0  0  0  0  0  0  0  0  0
   -1.2790   -1.3170    1.9190 C   0  0  0  0  0  0  0  0  0  0  0  0
   -2.7340   -1.7360    2.2880 C   0  0  0  0  0  0  0  0  0  0  0  0
   -3.2950   -2.7820    1.4160 C   0  0  0  0  0  0  0  0  0  0  0  0
   -2.8430   -2.5910    0.0080 C   0  0  1  0  0  0  0  0  0  0  0  0
   -3.9970   -2.8990   -0.9150 C   0  0  1  0  0  0  0  0  0  0  0  0
   -5.0820   -2.0890   -0.7020 O   0  0  0  0  0  0  0  0  0  0  0  0
   -3.5610   -2.9800   -2.3590 C   0  0  0  0  0  0  0  0  0  0  0  0
   -2.4720   -3.7960   -2.5360 O   0  0  0  0  0  0  0  0  0  0  0  0
   -2.4990   -1.0870   -0.1290 C   0  0  0  0  0  0  0  0  0  0  0  0
   -1.2690    1.4020   -0.2020 C   0  0  2  0  0  0  0  0  0  0  0  0
   -1.1130    2.3190   -1.3670 C   0  0  0  0  0  0  0  0  0  0  0  0
   -0.9370    3.7660   -1.0730 C   0  0  1  0  0  0  0  0  0  0  0  0
   -0.9200    4.4790   -2.2380 O   0  0  0  0  0  0  0  0  0  0  0  0
    0.2690    5.1960   -2.3190 C   0  0  0  0  0  0  0  0  0  0  0  0
   -2.0810    4.2570   -0.1940 C   0  0  0  0  0  0  0  0  0  0  0  0
   -1.7230    3.6210    1.1450 C   0  0  0  0  0  0  0  0  0  0  0  0
   -1.7740    2.1480    0.9980 C   0  0  0  0  0  0  0  0  0  0  0  0
   -2.2660    1.5840    1.9410 O   0  0  0  0  0  0  0  0  0  0  0  0
    1.5470   -1.1890    0.1430 C   0  0  0  0  0  0  0  0  0  0  0  0
  1  2  1  0
  2  3  1  0
  3  4  1  6
  3  5  1  0
  3 34  1  0
  5  6  1  0
  6  7  1  0
  7  8  1  6
  7  9  1  0
  7 12  1  0
  9 10  1  0
 10 11  1  0
 12 11  1  1
 12 13  1  0
 12 34  1  0
 13 14  1  6
 13 15  1  0
 13 25  1  0
 15 16  1  1
 15 24  1  0
 16 17  1  0
 17 18  1  0
 19 18  1  1
 19 20  1  0
 19 24  1  0
 20 21  1  6
 20 22  1  0
 22 23  1  0
 25 26  1  6
 25 32  1  0
 26 27  1  0
 27 28  1  6
 27 30  1  0
 28 29  1  0
 30 31  1  0
 31 32  1  0
 32 33  2  0
M  END
