
     RDKit          3D

 35 38  0  0  0  0  0  0  0  0999 V2000
    6.1870   -0.9590   -0.0960 C   0  0  0  0  0  0  0  0  0  0  0  0
    6.1510    0.4450    0.9720 S   0  0  1  0  0  0  0  0  0  0  0  0
    5.3150    0.1650    2.2070 O   0  0  0  0  0  0  0  0  0  0  0  0
    7.5600    0.6420    1.5150 O   0  0  0  0  0  0  0  0  0  0  0  0
    5.6430    1.8810    0.1710 C   0  0  0  0  0  0  0  0  0  0  0  0
    6.5990    2.8950   -0.0030 C   0  0  0  0  0  0  0  0  0  0  0  0
    6.3220    4.0850   -0.6280 C   0  0  0  0  0  0  0  0  0  0  0  0
    5.0520    4.3140   -1.1130 C   0  0  0  0  0  0  0  0  0  0  0  0
    4.1190    3.3240   -0.9430 C   0  0  0  0  0  0  0  0  0  0  0  0
    4.3950    2.1110   -0.3080 C   0  0  0  0  0  0  0  0  0  0  0  0
    3.3340    1.1340   -0.1800 C   0  0  0  0  0  0  0  0  0  0  0  0
    3.2140   -0.0300   -0.8890 C   0  0  0  0  0  0  0  0  0  0  0  0
    2.1430   -0.8860   -0.6800 C   0  0  0  0  0  0  0  0  0  0  0  0
    1.1550   -0.6130    0.2410 C   0  0  0  0  0  0  0  0  0  0  0  0
    0.0260   -1.4900    0.4440 N   0  0  0  0  0  0  0  0  0  0  0  0
    0.0630   -2.7120    1.2010 C   0  0  0  0  0  0  0  0  0  0  0  0
   -1.2830   -3.3570    1.0420 C   0  0  0  0  0  0  0  0  0  0  0  0
   -2.2050   -2.3520    0.3920 C   0  0  2  0  0  0  0  0  0  0  0  0
   -2.9620   -2.9550   -0.6900 N   0  0  0  0  0  0  0  0  0  0  0  0
   -4.6220   -2.8910   -0.3400 S   0  0  2  0  0  0  0  0  0  0  0  0
   -4.9030   -3.7330    0.8760 O   0  0  0  0  0  0  0  0  0  0  0  0
   -5.3680   -3.5450   -1.4950 O   0  0  0  0  0  0  0  0  0  0  0  0
   -5.2750   -1.3010   -0.1680 C   0  0  0  0  0  0  0  0  0  0  0  0
   -6.5720   -1.1200   -0.2910 C   0  0  0  0  0  0  0  0  0  0  0  0
   -7.2100    0.1610   -0.1640 C   0  0  0  0  0  0  0  0  0  0  0  0
   -8.4760    0.5890   -0.2490 C   0  0  0  0  0  0  0  0  0  0  0  0
   -8.7940    1.8740   -0.0780 C   0  0  0  0  0  0  0  0  0  0  0  0
   -7.8120    2.7880    0.1920 C   0  0  0  0  0  0  0  0  0  0  0  0
   -7.8340    4.5010    0.4700 Cl  0  0  0  0  0  0  0  0  0  0  0  0
   -6.3220    1.7270    0.2020 S   0  0  0  0  0  0  0  0  0  0  0  0
   -1.2900   -1.2940   -0.0530 C   0  0  0  0  0  0  0  0  0  0  0  0
   -1.5620   -0.2820   -0.7980 O   0  0  0  0  0  0  0  0  0  0  0  0
    1.2680    0.5570    0.9610 C   0  0  0  0  0  0  0  0  0  0  0  0
    0.2880    0.8280    1.8750 F   0  0  0  0  0  0  0  0  0  0  0  0
    2.3230    1.4050    0.7580 C   0  0  0  0  0  0  0  0  0  0  0  0
  2  1  1  6
  2  3  2  0
  2  4  2  0
  2  5  1  0
  5  6  2  0
  5 10  1  0
  6  7  1  0
  7  8  2  0
  8  9  1  0
  9 10  2  0
 10 11  1  0
 11 12  2  0
 11 35  1  0
 12 13  1  0
 13 14  2  0
 14 15  1  0
 14 33  1  0
 15 16  1  0
 15 31  1  0
 16 17  1  0
 17 18  1  0
 18 19  1  6
 18 31  1  0
 20 19  1  6
 20 21  2  0
 20 22  2  0
 20 23  1  0
 23 24  2  3
 24 25  1  0
 25 26  2  0
 25 30  1  0
 26 27  1  0
 27 28  2  0
 28 29  1  0
 28 30  1  0
 31 32  2  0
 33 34  1  0
 33 35  2  0
M  END
