
     RDKit          3D

 34 37  0  0  0  0  0  0  0  0999 V2000
    3.0120    0.8270   -3.7070 C   0  0  0  0  0  0  0  0  0  0  0  0
    3.1640    0.3760   -2.2380 C   0  0  0  0  0  0  0  0  0  0  0  0
    1.9560    0.0230   -1.8000 O   0  0  0  0  0  0  0  0  0  0  0  0
    1.7760   -0.4070   -0.4970 C   0  0  1  0  0  0  0  0  0  0  0  0
    0.3300   -0.6710   -0.2840 C   0  0  0  0  0  0  0  0  0  0  0  0
   -0.7150    0.3780   -0.4670 C   0  0  2  0  0  0  0  0  0  0  0  0
   -2.0540   -0.3480   -0.1380 C   0  0  2  0  0  0  0  0  0  0  0  0
   -2.0620   -1.3950   -1.1030 O   0  0  0  0  0  0  0  0  0  0  0  0
   -3.2240    0.4960   -0.4730 C   0  0  0  0  0  0  0  0  0  0  0  0
   -4.4180    0.2950    0.4450 C   0  0  2  0  0  0  0  0  0  0  0  0
   -4.3520    1.2970    1.5780 C   0  0  0  0  0  0  0  0  0  0  0  0
   -3.4960    0.5590    2.5810 C   0  0  0  0  0  0  0  0  0  0  0  0
   -3.3630   -0.7870    1.9610 C   0  0  1  0  0  0  0  0  0  0  0  0
   -4.4240   -0.9250    1.0560 O   0  0  0  0  0  0  0  0  0  0  0  0
   -2.0960   -1.0610    1.1800 C   0  0  1  0  0  0  0  0  0  0  0  0
   -2.0650   -2.5640    1.0150 C   0  0  0  0  0  0  0  0  0  0  0  0
   -2.0700   -3.3880    2.2480 C   0  0  0  0  0  0  0  0  0  0  0  0
   -1.9840   -4.7700    1.9250 O   0  0  0  0  0  0  0  0  0  0  0  0
   -0.8690    0.7910   -1.9140 C   0  0  0  0  0  0  0  0  0  0  0  0
   -0.5070    2.1500   -2.3310 C   0  0  1  0  0  0  0  0  0  0  0  0
   -1.3200    2.5860   -3.5050 C   0  0  0  0  0  0  0  0  0  0  0  0
   -0.7260    2.8870   -4.5640 O   0  0  0  0  0  0  0  0  0  0  0  0
   -2.7080    2.6620   -3.4390 O   0  0  0  0  0  0  0  0  0  0  0  0
   -0.6390    3.2520   -1.3270 C   0  0  0  0  0  0  0  0  0  0  0  0
    0.0430    2.7780   -0.0750 C   0  0  1  0  0  0  0  0  0  0  0  0
   -0.0820    3.8710    0.9630 C   0  0  0  0  0  0  0  0  0  0  0  0
   -0.4810    1.5000    0.4640 C   0  0  0  0  0  0  0  0  0  0  0  0
    2.3820   -1.8460   -0.5530 C   0  0  0  0  0  0  0  0  0  0  0  0
    2.4930   -2.4310    0.8260 C   0  0  1  0  0  0  0  0  0  0  0  0
    3.1200   -3.8280    0.6770 C   0  0  0  0  0  0  0  0  0  0  0  0
    3.4470   -1.6540    1.7040 C   0  0  0  0  0  0  0  0  0  0  0  0
    3.8850   -0.4550    0.8930 C   0  0  2  0  0  0  0  0  0  0  0  0
    4.6670    0.4600    1.8170 C   0  0  0  0  0  0  0  0  0  0  0  0
    2.5630    0.2710    0.5420 C   0  0  0  0  0  0  0  0  0  0  0  0
  1  2  1  0
  2  3  1  0
  3  4  1  0
  4  5  1  1
  4 28  1  0
  4 34  1  0
  6  5  1  6
  6  7  1  0
  6 19  1  0
  6 27  1  0
  7  8  1  6
  7  9  1  0
  7 15  1  0
 10  9  1  6
 10 11  1  0
 10 14  1  0
 11 12  1  0
 13 12  1  6
 13 14  1  0
 13 15  1  0
 15 16  1  6
 16 17  1  0
 17 18  1  0
 19 20  1  0
 20 21  1  6
 20 24  1  0
 21 22  2  0
 21 23  1  0
 24 25  1  0
 25 26  1  1
 25 27  1  0
 28 29  1  0
 29 30  1  6
 29 31  1  0
 31 32  1  0
 32 33  1  1
 32 34  1  0
M  END
