
     RDKit          3D

 35 36  0  0  0  0  0  0  0  0999 V2000
   -6.1930    1.8300   -1.1960 C   0  0  0  0  0  0  0  0  0  0  0  0
   -5.6540    0.5150   -1.2990 O   0  0  0  0  0  0  0  0  0  0  0  0
   -6.1390   -0.5070   -0.4330 C   0  0  0  0  0  0  0  0  0  0  0  0
   -5.2810   -1.0770    0.3760 C   0  0  0  0  0  0  0  0  0  0  0  0
   -3.8320   -0.6940    0.4250 C   0  0  2  0  0  0  0  0  0  0  0  0
   -3.0310   -1.8040    0.0910 O   0  0  0  0  0  0  0  0  0  0  0  0
   -3.4240   -0.2490    1.7900 C   0  0  0  0  0  0  0  0  0  0  0  0
   -2.0500    0.1400    1.9060 N   0  0  0  0  0  0  0  0  0  0  0  0
   -1.5160    1.2160    1.1350 C   0  0  0  0  0  0  0  0  0  0  0  0
   -2.2500    1.8630    0.3220 O   0  0  0  0  0  0  0  0  0  0  0  0
   -0.1510    1.5760    1.2700 N   0  0  0  0  0  0  0  0  0  0  0  0
    0.5090    2.6230    0.5450 C   0  0  0  0  0  0  0  0  0  0  0  0
    0.4990    2.3560   -0.9360 C   0  0  2  0  0  0  0  0  0  0  0  0
    1.1720    1.0880   -1.3360 C   0  0  0  0  0  0  0  0  0  0  0  0
    2.5760    0.9320   -0.9850 C   0  0  0  0  0  0  0  0  0  0  0  0
    3.2400    1.7460   -0.3180 O   0  0  0  0  0  0  0  0  0  0  0  0
    3.2510   -0.2630   -1.4500 N   0  0  0  0  0  0  0  0  0  0  0  0
    4.6090   -0.4080   -1.1070 C   0  0  0  0  0  0  0  0  0  0  0  0
    5.0030   -1.4350   -0.4040 C   0  0  0  0  0  0  0  0  0  0  0  0
    6.4350   -1.5980   -0.0360 C   0  0  0  0  0  0  0  0  0  0  0  0
    6.7540   -2.5900    0.6300 O   0  0  0  0  0  0  0  0  0  0  0  0
    7.4230   -0.6320   -0.4400 C   0  0  0  0  0  0  0  0  0  0  0  0
    8.7040   -0.6260   -0.2040 C   0  0  0  0  0  0  0  0  0  0  0  0
    9.4490   -1.5950    0.5270 C   0  0  0  0  0  0  0  0  0  0  0  0
   10.9450   -1.3830    0.6800 C   0  0  0  0  0  0  0  0  0  0  0  0
    9.0140   -2.6050    1.0610 O   0  0  0  0  0  0  0  0  0  0  0  0
    6.8740    0.5060   -1.2390 C   0  0  0  0  0  0  0  0  0  0  0  0
    5.5870    0.5700   -1.5210 C   0  0  0  0  0  0  0  0  0  0  0  0
    0.9690    3.7720   -1.9290 S   0  0  0  0  0  0  0  0  0  0  0  0
    2.6630    4.3150   -1.7110 C   0  0  0  0  0  0  0  0  0  0  0  0
   -5.7330   -2.1590    1.2370 C   0  0  0  0  0  0  0  0  0  0  0  0
   -6.9730   -2.5840    1.2210 C   0  0  0  0  0  0  0  0  0  0  0  0
   -7.4050   -3.7080    2.1340 C   0  0  0  0  0  0  0  0  0  0  0  0
   -7.9640   -2.0300    0.3030 C   0  0  0  0  0  0  0  0  0  0  0  0
   -7.5510   -0.8640   -0.4810 C   0  0  0  0  0  0  0  0  0  0  0  0
  1  2  1  0
  2  3  1  0
  3  4  2  0
  3 35  1  0
  4  5  1  0
  4 31  1  0
  5  6  1  1
  5  7  1  0
  7  8  1  0
  8  9  1  0
  9 10  2  0
  9 11  1  0
 11 12  1  0
 13 12  1  1
 13 14  1  0
 13 29  1  0
 14 15  1  0
 15 16  2  0
 15 17  1  0
 17 18  1  0
 18 19  2  0
 18 28  1  0
 19 20  1  0
 20 21  2  0
 20 22  1  0
 22 23  2  3
 22 27  1  0
 23 24  1  0
 24 25  1  0
 24 26  2  0
 27 28  2  0
 29 30  1  0
 31 32  2  0
 32 33  1  0
 32 34  1  0
 34 35  1  0
M  END
