
     RDKit          3D

 34 37  0  0  0  0  0  0  0  0999 V2000
    7.6910    2.7620   -0.1000 C   0  0  0  0  0  0  0  0  0  0  0  0
    7.5880    1.2350   -0.0000 C   0  0  0  0  0  0  0  0  0  0  0  0
    7.0640    0.8060   -1.1990 O   0  0  0  0  0  0  0  0  0  0  0  0
    6.8940   -0.5560   -1.3140 C   0  0  0  0  0  0  0  0  0  0  0  0
    5.9450   -1.0170   -0.2320 C   0  0  0  0  0  0  0  0  0  0  0  0
    4.6350   -0.2860   -0.4370 C   0  0  0  0  0  0  0  0  0  0  0  0
    3.6010   -0.6700    0.5950 C   0  0  2  0  0  0  0  0  0  0  0  0
    3.2840   -2.1420    0.5610 C   0  0  0  0  0  0  0  0  0  0  0  0
    2.2220   -2.4620    1.5610 C   0  0  1  0  0  0  0  0  0  0  0  0
    2.6440   -3.5410    2.5380 C   0  0  0  0  0  0  0  0  0  0  0  0
    1.7600   -1.2060    2.2680 C   0  0  0  0  0  0  0  0  0  0  0  0
    1.4320   -0.1950    1.2190 C   0  0  2  0  0  0  0  0  0  0  0  0
    0.8430    1.0930    1.7870 C   0  0  0  0  0  0  0  0  0  0  0  0
    0.2810    1.6230    0.6230 O   0  0  0  0  0  0  0  0  0  0  0  0
   -0.5990    0.6190    0.1440 C   0  0  2  0  0  0  0  0  0  0  0  0
   -0.7640    0.8610   -1.3050 C   0  0  0  0  0  0  0  0  0  0  0  0
   -1.8900    0.1580   -1.9490 C   0  0  2  0  0  0  0  0  0  0  0  0
   -2.5210    1.0430   -2.9600 C   0  0  0  0  0  0  0  0  0  0  0  0
   -3.7840    0.5150   -3.5480 C   0  0  0  0  0  0  0  0  0  0  0  0
   -3.8440   -0.9390   -3.2570 C   0  0  0  0  0  0  0  0  0  0  0  0
   -3.8270   -1.2270   -1.7610 C   0  0  0  0  0  0  0  0  0  0  0  0
   -2.8980   -0.4650   -0.9570 C   0  0  2  0  0  0  0  0  0  0  0  0
   -3.1430    0.4780    0.1030 C   0  0  1  0  0  0  0  0  0  0  0  0
   -3.2200    1.8080   -0.4420 O   0  0  0  0  0  0  0  0  0  0  0  0
   -4.2650    0.4310    1.0560 C   0  0  1  0  0  0  0  0  0  0  0  0
   -4.3470   -0.8840    1.8320 C   0  0  0  0  0  0  0  0  0  0  0  0
   -3.9290    1.3960    2.2720 C   0  0  0  0  0  0  0  0  0  0  0  0
   -3.7600    2.6780    1.8820 O   0  0  0  0  0  0  0  0  0  0  0  0
   -5.5750    1.0280    0.7000 C   0  0  2  0  0  0  0  0  0  0  0  0
   -6.3840    0.5930   -0.4170 C   0  0  0  0  0  0  0  0  0  0  0  0
   -5.4160    2.4280    0.5650 O   0  0  0  0  0  0  0  0  0  0  0  0
   -1.8510    0.5570    0.9470 C   0  0  0  0  0  0  0  0  0  0  0  0
    0.2770   -0.6290    0.3200 C   0  0  0  0  0  0  0  0  0  0  0  0
    2.4940    0.1230    0.3900 O   0  0  0  0  0  0  0  0  0  0  0  0
  1  2  1  0
  2  3  1  0
  3  4  1  0
  4  5  1  0
  5  6  1  0
  7  6  1  6
  7  8  1  0
  7 34  1  0
  8  9  1  0
  9 10  1  1
  9 11  1  0
 12 11  1  1
 12 13  1  0
 12 33  1  0
 12 34  1  0
 13 14  1  0
 14 15  1  0
 15 16  1  6
 15 32  1  0
 15 33  1  0
 17 16  1  1
 17 18  1  0
 17 22  1  0
 18 19  1  0
 19 20  1  0
 20 21  1  0
 22 21  1  6
 22 23  1  0
 23 24  1  6
 23 25  1  0
 23 32  1  0
 25 26  1  1
 25 27  1  0
 25 29  1  0
 27 28  1  0
 29 30  1  6
 29 31  1  0
M  END
