
     RDKit          3D

 27 29  0  0  0  0  0  0  0  0999 V2000
    7.4170    1.2510    0.1930 N   0  0  0  0  0  0  0  0  0  0  0  0
    6.3670    0.6450   -0.4380 C   0  0  0  0  0  0  0  0  0  0  0  0
    6.3290    0.1050   -1.6780 N   0  0  0  0  0  0  0  0  0  0  0  0
    5.3020   -0.3850   -2.2030 C   0  0  0  0  0  0  0  0  0  0  0  0
    4.0250   -0.5020   -1.6860 N   0  0  0  0  0  0  0  0  0  0  0  0
    4.0060   -0.0110   -0.3850 C   0  0  0  0  0  0  0  0  0  0  0  0
    5.0810    0.5220    0.1830 C   0  0  0  0  0  0  0  0  0  0  0  0
    4.8640    0.6850    1.5300 N   0  0  0  0  0  0  0  0  0  0  0  0
    3.6420    0.1660    1.7210 C   0  0  0  0  0  0  0  0  0  0  0  0
    3.0850   -0.2330    0.5390 N   0  0  0  0  0  0  0  0  0  0  0  0
    1.7280   -0.6850    0.4730 C   0  0  2  0  0  0  0  0  0  0  0  0
    1.1250   -0.5860   -0.7830 O   0  0  0  0  0  0  0  0  0  0  0  0
   -0.1960   -0.5130   -0.4470 C   0  0  2  0  0  0  0  0  0  0  0  0
   -1.1800   -0.5280   -1.5960 C   0  0  0  0  0  0  0  0  0  0  0  0
   -2.3740   -0.0330   -1.0840 O   0  0  0  0  0  0  0  0  0  0  0  0
   -3.5960   -1.0200   -0.8390 P   0  0  0  0  0  0  0  0  0  0  0  0
   -3.3900   -1.9350    0.6270 O   0  0  0  0  0  0  0  0  0  0  0  0
   -3.0480   -2.2430   -1.5600 O   0  0  0  0  0  0  0  0  0  0  0  0
   -4.2350    0.0000    0.1470 O   0  0  0  0  0  0  0  0  0  0  0  0
   -5.5160    0.9130   -0.1150 P   0  0  0  0  0  0  0  0  0  0  0  0
   -7.0610    0.3380    0.1770 O   0  0  0  0  0  0  0  0  0  0  0  0
   -5.3720    2.5630   -0.4720 O   0  0  0  0  0  0  0  0  0  0  0  0
   -5.6240    0.5970   -1.5960 O   0  0  0  0  0  0  0  0  0  0  0  0
   -0.2980    0.5830    0.5350 C   0  0  1  0  0  0  0  0  0  0  0  0
   -1.4210    0.6080    1.3280 O   0  0  0  0  0  0  0  0  0  0  0  0
    0.9090    0.2320    1.4280 C   0  0  1  0  0  0  0  0  0  0  0  0
    0.4100   -0.5180    2.4950 O   0  0  0  0  0  0  0  0  0  0  0  0
  1  2  1  0
  2  3  2  0
  2  7  1  0
  3  4  1  0
  4  5  2  0
  5  6  1  0
  6  7  2  0
  6 10  1  0
  7  8  1  0
  8  9  2  0
  9 10  1  0
 11 10  1  6
 11 12  1  0
 11 26  1  0
 12 13  1  0
 13 14  1  6
 13 24  1  0
 14 15  1  0
 15 16  1  0
 16 17  1  0
 16 18  1  0
 16 19  1  0
 19 20  1  0
 20 21  1  0
 20 22  1  0
 20 23  1  0
 24 25  1  1
 24 26  1  0
 26 27  1  1
M  END
