
     RDKit          3D

 21 22  0  0  0  0  0  0  0  0999 V2000
    1.2790   -0.8660   -0.6600 O   0  0  0  0  0  0  0  0  0  0  0  0
    0.6770    0.2270   -0.4660 C   0  0  0  0  0  0  0  0  0  0  0  0
    1.4390    1.3740   -0.5050 O   0  0  0  0  0  0  0  0  0  0  0  0
    2.8280    1.3520   -0.7460 C   0  0  0  0  0  0  0  0  0  0  0  0
    3.6030    0.5660    0.2950 C   0  0  0  0  0  0  0  0  0  0  0  0
    4.9700    0.6000   -0.0260 O   0  0  0  0  0  0  0  0  0  0  0  0
    5.9100   -0.2770    1.1200 P   0  0  0  0  0  0  0  0  0  0  0  0
    6.4630   -1.7330    0.3550 O   0  0  0  0  0  0  0  0  0  0  0  0
    7.3000    0.6720    1.5770 O   0  0  0  0  0  0  0  0  0  0  0  0
   -0.7450    0.2660   -0.2150 N   0  0  0  0  0  0  0  0  0  0  0  0
   -1.3930    1.5160   -0.0000 C   0  0  0  0  0  0  0  0  0  0  0  0
   -2.8340    1.5170   -0.5250 C   0  0  0  0  0  0  0  0  0  0  0  0
   -3.5400    0.3310    0.0950 C   0  0  1  0  0  0  0  0  0  0  0  0
   -4.8910    0.3410   -0.0630 O   0  0  0  0  0  0  0  0  0  0  0  0
   -5.4980   -0.7790   -0.2360 O   0  0  0  0  0  0  0  0  0  0  0  0
   -4.9750   -1.8340    0.4320 N   0  0  0  0  0  0  0  0  0  0  0  0
   -3.5900   -2.0610    0.2010 C   0  0  0  0  0  0  0  0  0  0  0  0
   -3.0590   -3.1420    0.5250 O   0  0  0  0  0  0  0  0  0  0  0  0
   -2.8920   -0.9140   -0.4390 C   0  0  1  0  0  0  0  0  0  0  0  0
   -3.1900   -1.0080   -1.8180 O   0  0  0  0  0  0  0  0  0  0  0  0
   -1.4390   -0.9990   -0.1980 C   0  0  0  0  0  0  0  0  0  0  0  0
  1  2  2  0
  2  3  1  0
  2 10  1  0
  3  4  1  0
  4  5  1  0
  5  6  1  0
  6  7  1  0
  7  8  1  0
  7  9  1  0
 10 11  1  0
 10 21  1  0
 11 12  1  0
 13 12  1  6
 13 14  1  0
 13 19  1  0
 14 15  1  0
 15 16  1  0
 16 17  1  0
 17 18  2  0
 17 19  1  0
 19 20  1  6
 19 21  1  0
M  END
