
     RDKit          3D

 20 20  0  0  0  0  0  0  0  0999 V2000
    6.2620   -0.3920   -1.5130 C   0  0  0  0  0  0  0  0  0  0  0  0
    4.9260    0.0670   -1.4490 O   0  0  0  0  0  0  0  0  0  0  0  0
    3.9390   -0.5450   -0.6960 C   0  0  0  0  0  0  0  0  0  0  0  0
    4.2870   -1.5750   -0.0360 O   0  0  0  0  0  0  0  0  0  0  0  0
    2.6370   -0.0910   -0.6380 O   0  0  0  0  0  0  0  0  0  0  0  0
    1.6560   -0.7350    0.1370 C   0  0  0  0  0  0  0  0  0  0  0  0
    2.0600   -1.7430    0.7630 O   0  0  0  0  0  0  0  0  0  0  0  0
    0.3120   -0.2470    0.1830 N   0  0  0  0  0  0  0  0  0  0  0  0
   -0.1110    0.9300   -0.5520 C   0  0  0  0  0  0  0  0  0  0  0  0
   -1.4640    1.2680    0.0870 C   0  0  1  0  0  0  0  0  0  0  0  0
   -2.5030    2.2760   -1.0460 P   0  0  0  0  0  0  0  0  0  0  0  0
   -1.8480    3.8390   -1.2350 O   0  0  0  0  0  0  0  0  0  0  0  0
   -2.8240    1.4790   -2.5430 O   0  0  0  0  0  0  0  0  0  0  0  0
   -1.9870   -0.1180    0.3040 C   0  0  2  0  0  0  0  0  0  0  0  0
   -3.2000   -0.2080    1.1650 C   0  0  0  0  0  0  0  0  0  0  0  0
   -4.2830    0.5270    0.5810 N   0  0  0  0  0  0  0  0  0  0  0  0
   -0.7850   -0.8010    0.9240 C   0  0  1  0  0  0  0  0  0  0  0  0
   -0.8940   -2.2720    0.8630 C   0  0  0  0  0  0  0  0  0  0  0  0
   -1.8110   -2.8060    1.5470 O   0  0  0  0  0  0  0  0  0  0  0  0
   -0.0810   -3.0760    0.1240 O   0  0  0  0  0  0  0  0  0  0  0  0
  1  2  1  0
  2  3  1  0
  3  4  2  0
  3  5  1  0
  5  6  1  0
  6  7  2  0
  6  8  1  0
  8  9  1  0
  8 17  1  0
  9 10  1  0
 10 11  1  6
 10 14  1  0
 11 12  1  0
 11 13  1  0
 14 15  1  1
 14 17  1  0
 15 16  1  0
 17 18  1  6
 18 19  2  0
 18 20  1  0
M  END
