
     RDKit          3D

 20 20  0  0  0  0  0  0  0  0999 V2000
   -3.1100    0.4340   -1.4860 N   0  0  0  0  0  0  0  0  0  0  0  0
   -2.5310   -0.6980   -0.7520 C   0  0  2  0  0  0  0  0  0  0  0  0
   -3.6310   -1.6480   -0.3420 C   0  0  0  0  0  0  0  0  0  0  0  0
   -4.7780   -0.9550   -0.0630 O   0  0  0  0  0  0  0  0  0  0  0  0
   -4.5590    0.3400    1.0450 P   0  0  0  0  0  0  0  0  0  0  0  0
   -6.1040    1.1610    1.1950 O   0  0  0  0  0  0  0  0  0  0  0  0
   -3.4090    1.4950    0.5290 O   0  0  0  0  0  0  0  0  0  0  0  0
   -2.1040    1.1720    0.7910 C   0  0  0  0  0  0  0  0  0  0  0  0
   -1.7830   -0.2730    0.4650 C   0  0  1  0  0  0  0  0  0  0  0  0
   -2.2370   -1.0210    1.5490 O   0  0  0  0  0  0  0  0  0  0  0  0
   -0.3220   -0.4970    0.3550 C   0  0  0  0  0  0  0  0  0  0  0  0
    0.2650   -1.2390    1.1470 O   0  0  0  0  0  0  0  0  0  0  0  0
    0.4580    0.1330   -0.6650 N   0  0  0  0  0  0  0  0  0  0  0  0
    1.8840   -0.0740   -0.7870 C   0  0  0  0  0  0  0  0  0  0  0  0
    2.6550    0.3450    0.4250 C   0  0  0  0  0  0  0  0  0  0  0  0
    4.1180    0.0750    0.1620 C   0  0  0  0  0  0  0  0  0  0  0  0
    4.9240    0.4470    1.2680 O   0  0  0  0  0  0  0  0  0  0  0  0
    6.2890    0.2470    1.1470 C   0  0  0  0  0  0  0  0  0  0  0  0
    6.7780   -0.2470    0.0890 O   0  0  0  0  0  0  0  0  0  0  0  0
    7.1880    0.5720    2.1670 O   0  0  0  0  0  0  0  0  0  0  0  0
  2  1  1  1
  2  3  1  0
  2  9  1  0
  3  4  1  0
  4  5  1  0
  5  6  1  0
  5  7  1  0
  7  8  1  0
  8  9  1  0
  9 10  1  1
  9 11  1  0
 11 12  2  0
 11 13  1  0
 13 14  1  0
 14 15  1  0
 15 16  1  0
 16 17  1  0
 17 18  1  0
 18 19  2  0
 18 20  1  0
M  END
