
     RDKit          3D

 21 21  0  0  0  0  0  0  0  0999 V2000
    1.3160    0.4410   -0.6400 O   0  0  0  0  0  0  0  0  0  0  0  0
    1.1120    0.1220    0.5680 C   0  0  0  0  0  0  0  0  0  0  0  0
    2.1380   -0.0870    1.5040 N   0  0  0  0  0  0  0  0  0  0  0  0
    3.5150    0.0090    1.2360 C   0  0  0  0  0  0  0  0  0  0  0  0
    3.9710   -0.8010    0.0060 C   0  0  0  0  0  0  0  0  0  0  0  0
    5.3230   -0.7170   -0.0060 O   0  0  0  0  0  0  0  0  0  0  0  0
    6.0180    0.7830   -0.3750 P   0  0  0  0  0  0  0  0  0  0  0  0
    7.0520    1.1830    1.0290 O   0  0  0  0  0  0  0  0  0  0  0  0
    6.9740    0.7120   -1.7880 O   0  0  0  0  0  0  0  0  0  0  0  0
   -0.2280   -0.0450    1.0050 N   0  0  0  0  0  0  0  0  0  0  0  0
   -1.2650    0.0330    0.0210 C   0  0  2  0  0  0  0  0  0  0  0  0
   -2.1280    1.2410    0.3180 C   0  0  0  0  0  0  0  0  0  0  0  0
   -2.8420    1.7360   -0.7570 O   0  0  0  0  0  0  0  0  0  0  0  0
   -3.3660    0.8160   -1.6190 C   0  0  0  0  0  0  0  0  0  0  0  0
   -4.3160   -0.0650   -0.7850 C   0  0  1  0  0  0  0  0  0  0  0  0
   -4.9530    0.7370    0.1230 O   0  0  0  0  0  0  0  0  0  0  0  0
   -5.2370   -0.6200   -1.6130 O   0  0  0  0  0  0  0  0  0  0  0  0
   -6.0560   -1.3610   -0.8820 O   0  0  0  0  0  0  0  0  0  0  0  0
   -3.5600   -1.0660   -0.0610 C   0  0  0  0  0  0  0  0  0  0  0  0
   -4.2290   -1.9090    0.5360 O   0  0  0  0  0  0  0  0  0  0  0  0
   -2.0900   -1.2380    0.0760 C   0  0  0  0  0  0  0  0  0  0  0  0
  1  2  2  0
  2  3  1  0
  2 10  1  0
  3  4  1  0
  4  5  1  0
  5  6  1  0
  6  7  1  0
  7  8  1  0
  7  9  1  0
 11 10  1  1
 11 12  1  0
 11 21  1  0
 12 13  1  0
 13 14  1  0
 14 15  1  0
 15 16  1  1
 15 17  1  0
 15 19  1  0
 17 18  1  0
 19 20  2  0
 19 21  1  0
M  END
