
     RDKit          3D

 20 21  0  0  0  0  0  0  0  0999 V2000
   -3.2160   -0.3390   -1.6620 N   0  0  0  0  0  0  0  0  0  0  0  0
   -2.5470    0.0840   -0.4120 C   0  0  2  0  0  0  0  0  0  0  0  0
   -1.4780   -0.8500   -0.0530 C   0  0  0  0  0  0  0  0  0  0  0  0
   -0.2170   -0.6710    0.1890 C   0  0  0  0  0  0  0  0  0  0  0  0
    0.5040    0.5910    0.1640 C   0  0  0  0  0  0  0  0  0  0  0  0
    0.0830    1.7240   -0.0870 O   0  0  0  0  0  0  0  0  0  0  0  0
    1.9120    0.5440    0.4720 N   0  0  0  0  0  0  0  0  0  0  0  0
    2.7170    1.7770    0.4680 C   0  0  0  0  0  0  0  0  0  0  0  0
    4.0150    1.4780    0.7880 O   0  0  0  0  0  0  0  0  0  0  0  0
    4.6660    0.3800   -0.3550 P   0  0  0  0  0  0  0  0  0  0  0  0
    4.7850    1.1080   -1.9440 O   0  0  0  0  0  0  0  0  0  0  0  0
    6.2290   -0.1300    0.1980 O   0  0  0  0  0  0  0  0  0  0  0  0
    0.3910   -2.0140    0.5110 C   0  0  0  0  0  0  0  0  0  0  0  0
   -0.6380   -2.9170    0.3970 O   0  0  0  0  0  0  0  0  0  0  0  0
   -1.8050   -2.2980    0.0700 C   0  0  0  0  0  0  0  0  0  0  0  0
   -2.9110   -2.8680   -0.0890 O   0  0  0  0  0  0  0  0  0  0  0  0
   -3.6860    0.0170    0.6300 C   0  0  0  0  0  0  0  0  0  0  0  0
   -3.3320    1.0850    1.4520 O   0  0  0  0  0  0  0  0  0  0  0  0
   -3.0920    2.0700    0.4650 C   0  0  0  0  0  0  0  0  0  0  0  0
   -2.3050    1.3980   -0.4730 O   0  0  0  0  0  0  0  0  0  0  0  0
  2  1  1  6
  2  3  1  0
  2 17  1  0
  2 20  1  0
  3  4  2  0
  3 15  1  0
  4  5  1  0
  4 13  1  0
  5  6  2  0
  5  7  1  0
  7  8  1  0
  8  9  1  0
  9 10  1  0
 10 11  1  0
 10 12  1  0
 13 14  1  0
 14 15  1  0
 15 16  2  0
 17 18  1  0
 18 19  1  0
 19 20  1  0
M  END
