
     RDKit          3D

 20 21  0  0  0  0  0  0  0  0999 V2000
   -2.4660    3.3520   -1.7170 O   0  0  0  0  0  0  0  0  0  0  0  0
   -2.9300    2.5760   -0.9100 C   0  0  0  0  0  0  0  0  0  0  0  0
   -3.2330    1.1440   -1.1660 C   0  0  0  0  0  0  0  0  0  0  0  0
   -2.6480    0.5550    0.1620 C   0  0  2  0  0  0  0  0  0  0  0  0
   -3.2360    1.5050    1.1290 C   0  0  0  0  0  0  0  0  0  0  0  0
   -3.2790    2.7620    0.4050 O   0  0  0  0  0  0  0  0  0  0  0  0
   -1.3390    0.3770    0.1170 O   0  0  0  0  0  0  0  0  0  0  0  0
   -1.1610   -0.7580   -0.6080 C   0  0  1  0  0  0  0  0  0  0  0  0
    0.1360   -1.3840   -0.6830 C   0  0  0  0  0  0  0  0  0  0  0  0
    0.5210   -1.6960   -1.9260 O   0  0  0  0  0  0  0  0  0  0  0  0
    0.9650   -1.6930    0.3660 N   0  0  0  0  0  0  0  0  0  0  0  0
    2.2700   -2.2560    0.3130 C   0  0  0  0  0  0  0  0  0  0  0  0
    3.3400   -1.2720   -0.1530 C   0  0  0  0  0  0  0  0  0  0  0  0
    3.3260   -0.2170    0.7570 O   0  0  0  0  0  0  0  0  0  0  0  0
    4.5420    0.9190    0.4110 P   0  0  0  0  0  0  0  0  0  0  0  0
    5.2130    1.5910    1.8890 O   0  0  0  0  0  0  0  0  0  0  0  0
    3.9640    2.2170   -0.5970 O   0  0  0  0  0  0  0  0  0  0  0  0
   -2.2280   -1.6490   -0.1680 N   0  0  0  0  0  0  0  0  0  0  0  0
   -3.3050   -0.8630    0.2280 C   0  0  0  0  0  0  0  0  0  0  0  0
   -4.4030   -1.0050    0.5770 O   0  0  0  0  0  0  0  0  0  0  0  0
  1  2  2  0
  2  3  1  0
  2  6  1  0
  4  3  1  6
  4  5  1  0
  4  7  1  0
  4 19  1  0
  5  6  1  0
  7  8  1  0
  8  9  1  1
  8 18  1  0
  9 10  2  0
  9 11  1  0
 11 12  1  0
 12 13  1  0
 13 14  1  0
 14 15  1  0
 15 16  1  0
 15 17  1  0
 18 19  1  0
 19 20  2  0
M  END
