
     RDKit          3D

 20 21  0  0  0  0  0  0  0  0999 V2000
   -4.3760    0.2660    2.5720 O   0  0  0  0  0  0  0  0  0  0  0  0
   -4.2720   -0.1100    1.3590 C   0  0  0  0  0  0  0  0  0  0  0  0
   -4.9150    0.4180    0.2250 N   0  0  0  0  0  0  0  0  0  0  0  0
   -4.4300   -0.2720   -0.9440 C   0  0  0  0  0  0  0  0  0  0  0  0
   -3.4100   -1.2570   -0.4140 C   0  0  1  0  0  0  0  0  0  0  0  0
   -2.0560   -0.8760   -0.8760 C   0  0  0  0  0  0  0  0  0  0  0  0
   -1.8310   -0.8970   -2.1200 O   0  0  0  0  0  0  0  0  0  0  0  0
   -1.0310   -0.5000   -0.0190 O   0  0  0  0  0  0  0  0  0  0  0  0
    0.2430   -0.1430   -0.4810 C   0  0  1  0  0  0  0  0  0  0  0  0
    0.5970    1.2220   -0.0030 C   0  0  0  0  0  0  0  0  0  0  0  0
    0.2600    2.2840   -0.4980 O   0  0  0  0  0  0  0  0  0  0  0  0
    1.4480    1.0260    1.2030 C   0  0  0  0  0  0  0  0  0  0  0  0
    2.2430   -0.1340    0.8060 N   0  0  0  0  0  0  0  0  0  0  0  0
    3.6460   -0.3900    1.0660 C   0  0  0  0  0  0  0  0  0  0  0  0
    4.7200    0.2860   -0.2920 P   0  0  0  0  0  0  0  0  0  0  0  0
    4.4520    1.9720   -0.5540 O   0  0  0  0  0  0  0  0  0  0  0  0
    6.3740    0.0620    0.1470 O   0  0  0  0  0  0  0  0  0  0  0  0
    1.3290   -0.9710    0.0970 C   0  0  0  0  0  0  0  0  0  0  0  0
    1.4350   -2.2360   -0.0180 O   0  0  0  0  0  0  0  0  0  0  0  0
   -3.4500   -1.1670    0.9900 O   0  0  0  0  0  0  0  0  0  0  0  0
  1  2  2  0
  2  3  1  0
  2 20  1  0
  3  4  1  0
  4  5  1  0
  5  6  1  6
  5 20  1  0
  6  7  2  0
  6  8  1  0
  9  8  1  1
  9 10  1  0
  9 18  1  0
 10 11  2  0
 10 12  1  0
 12 13  1  0
 13 14  1  0
 13 18  1  0
 14 15  1  0
 15 16  1  0
 15 17  1  0
 18 19  2  0
M  END
