
     RDKit          3D

 20 21  0  0  0  0  0  0  0  0999 V2000
   -2.7710   -1.9180    2.4460 N   0  0  0  0  0  0  0  0  0  0  0  0
   -2.6490   -1.1560    1.4110 C   0  0  0  0  0  0  0  0  0  0  0  0
   -1.3090   -0.7970    1.0230 N   0  0  0  0  0  0  0  0  0  0  0  0
   -0.9690   -0.2810   -0.1050 C   0  0  0  0  0  0  0  0  0  0  0  0
    0.4510    0.0150   -0.3100 C   0  0  0  0  0  0  0  0  0  0  0  0
    0.9990    0.5420   -1.3900 C   0  0  0  0  0  0  0  0  0  0  0  0
    2.3890    0.6740   -1.2090 O   0  0  0  0  0  0  0  0  0  0  0  0
    2.5860    0.6190    0.1920 C   0  0  2  0  0  0  0  0  0  0  0  0
    3.9160    0.0000    0.5490 C   0  0  0  0  0  0  0  0  0  0  0  0
    4.9110    0.7600   -0.0060 O   0  0  0  0  0  0  0  0  0  0  0  0
    6.4990    0.1780    0.3150 P   0  0  0  0  0  0  0  0  0  0  0  0
    7.6750    1.3840   -0.0750 O   0  0  0  0  0  0  0  0  0  0  0  0
    6.8680   -1.2920   -0.4740 O   0  0  0  0  0  0  0  0  0  0  0  0
    1.5010   -0.2000    0.5880 O   0  0  0  0  0  0  0  0  0  0  0  0
   -1.7810    0.0420   -1.1800 O   0  0  0  0  0  0  0  0  0  0  0  0
   -3.1560   -0.1720   -1.4330 C   0  0  0  0  0  0  0  0  0  0  0  0
   -3.9620    0.2110   -0.2180 C   0  0  1  0  0  0  0  0  0  0  0  0
   -5.3960    0.3800   -0.6230 C   0  0  0  0  0  0  0  0  0  0  0  0
   -6.1210    0.7730    0.5010 O   0  0  0  0  0  0  0  0  0  0  0  0
   -3.8330   -0.7730    0.7930 O   0  0  0  0  0  0  0  0  0  0  0  0
  1  2  2  0
  2  3  1  0
  2 20  1  0
  3  4  2  0
  4  5  1  0
  4 15  1  0
  5  6  2  0
  5 14  1  0
  6  7  1  0
  7  8  1  0
  8  9  1  6
  8 14  1  0
  9 10  1  0
 10 11  1  0
 11 12  1  0
 11 13  1  0
 15 16  1  0
 16 17  1  0
 17 18  1  6
 17 20  1  0
 18 19  1  0
M  END
