
     RDKit          3D

 43 45  0  0  0  0  0  0  0  0999 V2000
   -4.3700   -1.8550   -3.5120 C   0  0  0  0  0  0  0  0  0  0  0  0
   -3.2690   -0.9220   -3.0790 C   0  0  0  0  0  0  0  0  0  0  0  0
   -3.6960    0.3260   -2.9980 N   0  0  0  0  0  0  0  0  0  0  0  0
   -3.0750    1.4970   -2.6560 C   0  0  0  0  0  0  0  0  0  0  0  0
   -2.6570    1.9190   -1.4480 C   0  0  0  0  0  0  0  0  0  0  0  0
   -2.7200    1.3500   -0.2740 O   0  0  0  0  0  0  0  0  0  0  0  0
   -3.2770    1.2350    0.9430 C   0  0  2  0  0  0  0  0  0  0  0  0
   -4.2700    0.0910    1.0940 C   0  0  0  0  0  0  0  0  0  0  0  0
   -4.0440    2.4740    1.4410 C   0  0  0  0  0  0  0  0  0  0  0  0
   -5.1020    2.7820    0.5790 O   0  0  0  0  0  0  0  0  0  0  0  0
   -5.8970    3.8760    0.8730 C   0  0  0  0  0  0  0  0  0  0  0  0
   -5.6610    4.5640    1.8900 O   0  0  0  0  0  0  0  0  0  0  0  0
   -2.2140    0.9610    1.9870 C   0  0  0  0  0  0  0  0  0  0  0  0
   -2.4490    1.3550    3.1680 O   0  0  0  0  0  0  0  0  0  0  0  0
   -0.9730    0.2730    1.6580 N   0  0  0  0  0  0  0  0  0  0  0  0
    0.1920    0.7030    2.3660 C   0  0  0  0  0  0  0  0  0  0  0  0
    1.1570    1.2870    1.8900 N   0  0  0  0  0  0  0  0  0  0  0  0
    2.3050    1.9100    1.6590 C   0  0  0  0  0  0  0  0  0  0  0  0
    2.2100    3.4470    1.9980 O   0  0  0  0  0  0  0  0  0  0  0  0
    3.4970    1.7320    1.2460 C   0  0  0  0  0  0  0  0  0  0  0  0
    4.4750    0.8170    0.7420 C   0  0  0  0  0  0  0  0  0  0  0  0
    4.7840   -0.4290    0.5210 C   0  0  0  0  0  0  0  0  0  0  0  0
    6.1620   -0.6760   -0.1230 C   0  0  0  0  0  0  0  0  0  0  0  0
    6.6120   -1.8550   -0.3820 C   0  0  0  0  0  0  0  0  0  0  0  0
    7.8650   -1.9900   -0.9660 O   0  0  0  0  0  0  0  0  0  0  0  0
    6.9330    0.4310   -0.4270 O   0  0  0  0  0  0  0  0  0  0  0  0
    7.3160    0.7980   -1.6340 O   0  0  0  0  0  0  0  0  0  0  0  0
    4.0100   -1.6490    0.7440 C   0  0  0  0  0  0  0  0  0  0  0  0
    4.0030   -2.4480   -0.3090 O   0  0  0  0  0  0  0  0  0  0  0  0
    3.2660   -2.1810    1.8110 N   0  0  0  0  0  0  0  0  0  0  0  0
    2.0210   -1.7980    2.3790 C   0  0  0  0  0  0  0  0  0  0  0  0
    2.0730   -1.5240    3.6580 O   0  0  0  0  0  0  0  0  0  0  0  0
    0.7540   -1.6690    1.7870 N   0  0  0  0  0  0  0  0  0  0  0  0
    0.2790   -1.4820    0.4430 C   0  0  1  0  0  0  0  0  0  0  0  0
    1.0110   -0.6550   -0.5100 C   0  0  0  0  0  0  0  0  0  0  0  0
    1.2620   -1.0150   -1.8020 O   0  0  0  0  0  0  0  0  0  0  0  0
    0.1500   -1.0720   -2.6200 O   0  0  0  0  0  0  0  0  0  0  0  0
   -1.0630   -1.7550   -2.2310 C   0  0  0  0  0  0  0  0  0  0  0  0
   -1.9890   -1.1640   -2.7690 N   0  0  0  0  0  0  0  0  0  0  0  0
   -0.9600   -2.8920   -1.3630 N   0  0  0  0  0  0  0  0  0  0  0  0
   -0.2660   -2.7890   -0.1170 C   0  0  0  0  0  0  0  0  0  0  0  0
   -0.0490   -3.7530    0.6140 O   0  0  0  0  0  0  0  0  0  0  0  0
   -1.1190   -0.7790    0.7070 C   0  0  0  0  0  0  0  0  0  0  0  0
  1  2  1  0
  2  3  2  0
  2 39  1  0
  3  4  1  0
  4  5  2  0
  5  6  1  0
  6  7  1  0
  7  8  1  6
  7  9  1  0
  7 13  1  0
  9 10  1  0
 10 11  1  0
 11 12  2  0
 13 14  2  0
 13 15  1  0
 15 16  1  0
 15 43  1  0
 16 17  2  0
 17 18  1  0
 18 19  1  0
 18 20  2  0
 20 21  1  0
 21 22  2  0
 22 23  1  0
 22 28  1  0
 23 24  2  3
 23 26  1  0
 24 25  1  0
 26 27  1  0
 28 29  2  0
 28 30  1  0
 30 31  1  0
 31 32  2  0
 31 33  1  0
 33 34  1  0
 34 35  1  6
 34 41  1  0
 34 43  1  0
 35 36  1  0
 36 37  1  0
 37 38  1  0
 38 39  2  0
 38 40  1  0
 40 41  1  0
 41 42  2  0
M  END
