
     RDKit          3D

 43 45  0  0  0  0  0  0  0  0999 V2000
    6.0650    2.6060   -0.5790 N   0  0  0  0  0  0  0  0  0  0  0  0
    6.6080    1.3120   -0.7300 C   0  0  0  0  0  0  0  0  0  0  0  0
    7.3570    1.1740   -1.7710 O   0  0  0  0  0  0  0  0  0  0  0  0
    6.3690    0.2030    0.1870 C   0  0  1  0  0  0  0  0  0  0  0  0
    4.9690   -0.2810    0.3190 C   0  0  0  0  0  0  0  0  0  0  0  0
    3.9870    0.6810    0.8200 C   0  0  0  0  0  0  0  0  0  0  0  0
    4.3670    1.8230    1.1810 O   0  0  0  0  0  0  0  0  0  0  0  0
    2.5830    0.3650    0.9190 N   0  0  0  0  0  0  0  0  0  0  0  0
    1.7260    1.4170    1.4390 C   0  0  0  0  0  0  0  0  0  0  0  0
    0.2460    1.0170    1.3060 C   0  0  1  0  0  0  0  0  0  0  0  0
   -0.6920    2.2010    1.3650 C   0  0  0  0  0  0  0  0  0  0  0  0
   -2.0630    1.6780    1.7180 C   0  0  0  0  0  0  0  0  0  0  0  0
   -2.4950    1.7670    2.8450 O   0  0  0  0  0  0  0  0  0  0  0  0
   -2.8460    1.0600    0.6510 C   0  0  0  0  0  0  0  0  0  0  0  0
   -4.2710    1.0350    0.8050 N   0  0  0  0  0  0  0  0  0  0  0  0
   -4.9760    2.1050    1.3990 C   0  0  0  0  0  0  0  0  0  0  0  0
   -4.4450    3.1580    1.8360 O   0  0  0  0  0  0  0  0  0  0  0  0
   -6.4100    2.0560    1.5500 N   0  0  0  0  0  0  0  0  0  0  0  0
   -7.1290    3.1230    2.1440 C   0  0  0  0  0  0  0  0  0  0  0  0
   -6.5010    4.1290    2.5470 O   0  0  0  0  0  0  0  0  0  0  0  0
   -8.5010    3.0780    2.2890 O   0  0  0  0  0  0  0  0  0  0  0  0
   -5.0000   -0.1020    0.3280 C   0  0  0  0  0  0  0  0  0  0  0  0
   -4.2410   -1.1320   -0.4250 C   0  0  0  0  0  0  0  0  0  0  0  0
   -3.7490   -0.6610   -1.6180 O   0  0  0  0  0  0  0  0  0  0  0  0
   -3.4080   -1.2440   -2.7980 C   0  0  0  0  0  0  0  0  0  0  0  0
   -3.9400   -0.7390   -3.8570 O   0  0  0  0  0  0  0  0  0  0  0  0
   -2.5180   -2.3690   -3.0410 C   0  0  0  0  0  0  0  0  0  0  0  0
   -2.8240   -3.3490   -3.8710 C   0  0  0  0  0  0  0  0  0  0  0  0
   -1.9520   -4.3890   -4.0680 O   0  0  0  0  0  0  0  0  0  0  0  0
   -1.1960   -2.4860   -2.3710 C   0  0  0  0  0  0  0  0  0  0  0  0
   -0.9130   -1.6930   -1.3350 N   0  0  0  0  0  0  0  0  0  0  0  0
    0.3380   -1.9820   -0.8960 C   0  0  0  0  0  0  0  0  0  0  0  0
    0.7850   -2.9370   -1.6680 N   0  0  0  0  0  0  0  0  0  0  0  0
   -0.1330   -3.2330   -2.5450 O   0  0  0  0  0  0  0  0  0  0  0  0
    0.7080   -1.1200    0.2790 C   0  0  2  0  0  0  0  0  0  0  0  0
    0.1390   -1.8320    1.4410 C   0  0  0  0  0  0  0  0  0  0  0  0
   -0.8130   -1.4700    2.1580 O   0  0  0  0  0  0  0  0  0  0  0  0
    0.7000   -3.0770    1.8360 O   0  0  0  0  0  0  0  0  0  0  0  0
    0.1850    0.2740    0.0390 C   0  0  0  0  0  0  0  0  0  0  0  0
    2.1720   -0.9530    0.4970 C   0  0  0  0  0  0  0  0  0  0  0  0
    7.2610   -0.9360   -0.2370 C   0  0  0  0  0  0  0  0  0  0  0  0
    8.6640   -0.7020   -0.2430 N   0  0  0  0  0  0  0  0  0  0  0  0
    6.7540   -2.0420   -0.5660 O   0  0  0  0  0  0  0  0  0  0  0  0
  1  2  1  0
  2  3  2  0
  2  4  1  0
  4  5  1  6
  4 41  1  0
  5  6  1  0
  6  7  2  0
  6  8  1  0
  8  9  1  0
  8 40  1  0
 10  9  1  6
 10 11  1  0
 10 39  1  0
 11 12  1  0
 12 13  2  0
 12 14  1  0
 14 15  1  0
 15 16  1  0
 15 22  1  0
 16 17  2  0
 16 18  1  0
 18 19  1  0
 19 20  2  0
 19 21  1  0
 22 23  1  0
 23 24  1  0
 24 25  1  0
 25 26  2  0
 25 27  1  0
 27 28  2  3
 27 30  1  0
 28 29  1  0
 30 31  2  0
 30 34  1  0
 31 32  1  0
 32 33  2  0
 32 35  1  0
 33 34  1  0
 35 36  1  1
 35 39  1  0
 35 40  1  0
 36 37  2  0
 36 38  1  0
 41 42  1  0
 41 43  2  0
M  END
