
     RDKit          3D

 43 46  0  0  0  0  0  0  0  0999 V2000
    7.9940    1.3690    2.5590 O   0  0  0  0  0  0  0  0  0  0  0  0
    7.2610    2.0630    1.8120 C   0  0  0  0  0  0  0  0  0  0  0  0
    7.6800    3.3520    1.5220 O   0  0  0  0  0  0  0  0  0  0  0  0
    6.0250    1.5440    1.2720 N   0  0  0  0  0  0  0  0  0  0  0  0
    5.6400    0.2310    1.5000 C   0  0  0  0  0  0  0  0  0  0  0  0
    6.5460   -0.6820    2.0070 N   0  0  0  0  0  0  0  0  0  0  0  0
    5.9160   -1.8640    1.9540 C   0  0  0  0  0  0  0  0  0  0  0  0
    6.5150   -3.0560    2.3830 O   0  0  0  0  0  0  0  0  0  0  0  0
    4.7430   -1.7020    1.4680 O   0  0  0  0  0  0  0  0  0  0  0  0
    4.5050   -0.3980    1.1640 C   0  0  0  0  0  0  0  0  0  0  0  0
    3.2450    0.0140    0.6310 C   0  0  0  0  0  0  0  0  0  0  0  0
    2.3940   -0.9150    0.2130 N   0  0  0  0  0  0  0  0  0  0  0  0
    1.1030   -0.6380   -0.2450 C   0  0  0  0  0  0  0  0  0  0  0  0
    0.5750    0.5310   -0.3190 N   0  0  0  0  0  0  0  0  0  0  0  0
    1.3360    1.6530    0.0890 C   0  0  0  0  0  0  0  0  0  0  0  0
    0.9100    2.9020    0.0660 C   0  0  0  0  0  0  0  0  0  0  0  0
   -0.3930    3.3680   -0.3700 C   0  0  0  0  0  0  0  0  0  0  0  0
   -0.5320    4.2810   -1.2980 C   0  0  0  0  0  0  0  0  0  0  0  0
    0.5450    4.8640   -1.9250 O   0  0  0  0  0  0  0  0  0  0  0  0
   -1.6820    2.8490    0.2400 C   0  0  2  0  0  0  0  0  0  0  0  0
   -1.4970    1.6690    0.9240 O   0  0  0  0  0  0  0  0  0  0  0  0
   -2.5600    2.6700   -0.7840 O   0  0  0  0  0  0  0  0  0  0  0  0
   -3.8940    2.7800   -0.5080 C   0  0  0  0  0  0  0  0  0  0  0  0
   -4.3210    2.2380    0.7950 C   0  0  0  0  0  0  0  0  0  0  0  0
   -4.0870    2.9910    1.8050 O   0  0  0  0  0  0  0  0  0  0  0  0
   -4.9380    1.0240    1.0450 N   0  0  0  0  0  0  0  0  0  0  0  0
   -5.4970    0.0880    0.0880 C   0  0  0  0  0  0  0  0  0  0  0  0
   -4.4550   -0.4870   -0.8400 C   0  0  0  0  0  0  0  0  0  0  0  0
   -4.1400   -1.8560   -0.5510 N   0  0  0  0  0  0  0  0  0  0  0  0
   -4.3200   -2.4510    0.7740 C   0  0  0  0  0  0  0  0  0  0  0  0
   -4.7710   -1.9490    1.8290 O   0  0  0  0  0  0  0  0  0  0  0  0
   -3.8700   -3.7910    0.6760 O   0  0  0  0  0  0  0  0  0  0  0  0
   -2.7770   -3.6290   -0.2630 C   0  0  2  0  0  0  0  0  0  0  0  0
   -1.7160   -2.7570    0.3160 C   0  0  0  0  0  0  0  0  0  0  0  0
   -1.1130   -1.7700   -0.6440 C   0  0  0  0  0  0  0  0  0  0  0  0
    0.3250   -1.7640   -0.6670 N   0  0  0  0  0  0  0  0  0  0  0  0
    1.0200   -2.9460   -1.1380 C   0  0  0  0  0  0  0  0  0  0  0  0
    0.8120   -3.1740   -2.6250 C   0  0  0  0  0  0  0  0  0  0  0  0
    1.2800   -2.0940   -3.3630 O   0  0  0  0  0  0  0  0  0  0  0  0
   -3.6030   -2.8930   -1.3200 C   0  0  0  0  0  0  0  0  0  0  0  0
   -3.5670   -3.3840   -2.4720 O   0  0  0  0  0  0  0  0  0  0  0  0
    2.7210    1.3410    0.5790 C   0  0  0  0  0  0  0  0  0  0  0  0
    3.3570    2.3290    0.9380 O   0  0  0  0  0  0  0  0  0  0  0  0
  1  2  2  0
  2  3  1  0
  2  4  1  0
  4  5  1  0
  5  6  1  0
  5 10  2  0
  6  7  2  0
  7  8  1  0
  7  9  1  0
  9 10  1  0
 10 11  1  0
 11 12  2  0
 11 42  1  0
 12 13  1  0
 13 14  2  0
 13 36  1  0
 14 15  1  0
 15 16  2  0
 15 42  1  0
 16 17  1  0
 17 18  2  3
 17 20  1  0
 18 19  1  0
 20 21  1  6
 20 22  1  0
 22 23  1  0
 23 24  1  0
 24 25  2  0
 24 26  1  0
 26 27  1  0
 27 28  1  0
 28 29  1  0
 29 30  1  0
 29 40  1  0
 30 31  2  0
 30 32  1  0
 32 33  1  0
 33 34  1  1
 33 40  1  0
 34 35  1  0
 35 36  1  0
 36 37  1  0
 37 38  1  0
 38 39  1  0
 40 41  2  0
 42 43  2  0
M  END
