
     RDKit          3D

 43 46  0  0  0  0  0  0  0  0999 V2000
   -2.8490   -3.2640    2.7670 C   0  0  0  0  0  0  0  0  0  0  0  0
   -2.3810   -1.9490    2.6020 O   0  0  0  0  0  0  0  0  0  0  0  0
   -2.2450   -1.2830    1.4320 N   0  0  0  0  0  0  0  0  0  0  0  0
   -1.1550   -0.8300    0.9860 C   0  0  0  0  0  0  0  0  0  0  0  0
   -0.9260   -0.1060   -0.2550 C   0  0  0  0  0  0  0  0  0  0  0  0
   -1.6360    0.2850   -1.2950 C   0  0  0  0  0  0  0  0  0  0  0  0
   -3.0320   -0.0400   -1.3700 C   0  0  0  0  0  0  0  0  0  0  0  0
   -3.8140    0.2790   -2.3960 C   0  0  0  0  0  0  0  0  0  0  0  0
   -3.4270    0.9800   -3.5800 C   0  0  0  0  0  0  0  0  0  0  0  0
   -4.3590    1.2210   -4.5120 C   0  0  0  0  0  0  0  0  0  0  0  0
   -5.7010    0.8110   -4.3640 N   0  0  0  0  0  0  0  0  0  0  0  0
   -3.6390   -0.7370   -0.3010 O   0  0  0  0  0  0  0  0  0  0  0  0
   -5.0580   -0.7790   -0.2170 C   0  0  0  0  0  0  0  0  0  0  0  0
   -5.4430   -1.5470    1.0230 C   0  0  0  0  0  0  0  0  0  0  0  0
   -6.8420   -1.6100    1.1580 O   0  0  0  0  0  0  0  0  0  0  0  0
   -7.0860   -2.2880    2.2550 O   0  0  0  0  0  0  0  0  0  0  0  0
   -0.8850    1.0330   -2.2370 O   0  0  0  0  0  0  0  0  0  0  0  0
   -0.4700    2.3660   -2.0630 C   0  0  0  0  0  0  0  0  0  0  0  0
    0.9420    2.6720   -1.8420 C   0  0  0  0  0  0  0  0  0  0  0  0
    1.7310    2.2500   -2.7790 O   0  0  0  0  0  0  0  0  0  0  0  0
    1.5280    3.3640   -0.7560 N   0  0  0  0  0  0  0  0  0  0  0  0
    1.5210    2.9540    0.6320 C   0  0  0  0  0  0  0  0  0  0  0  0
    1.1180    3.4940    1.7960 N   0  0  0  0  0  0  0  0  0  0  0  0
    1.3740    2.6090    2.7940 N   0  0  0  0  0  0  0  0  0  0  0  0
    1.9270    1.5390    2.2520 C   0  0  0  0  0  0  0  0  0  0  0  0
    1.9880    1.8030    0.9710 O   0  0  0  0  0  0  0  0  0  0  0  0
    2.4790    0.1780    2.6270 C   0  0  1  0  0  0  0  0  0  0  0  0
    1.6560   -0.6100    3.5780 C   0  0  0  0  0  0  0  0  0  0  0  0
    0.6080   -1.4370    2.8600 C   0  0  0  0  0  0  0  0  0  0  0  0
    0.1820   -2.4790    3.3190 O   0  0  0  0  0  0  0  0  0  0  0  0
    0.1010   -0.9910    1.6190 N   0  0  0  0  0  0  0  0  0  0  0  0
    1.0450   -0.3790    0.7370 C   0  0  0  0  0  0  0  0  0  0  0  0
    0.5210    0.1030   -0.2610 N   0  0  0  0  0  0  0  0  0  0  0  0
    2.4440   -0.5130    1.2170 C   0  0  1  0  0  0  0  0  0  0  0  0
    3.2830    0.1740    0.3740 O   0  0  0  0  0  0  0  0  0  0  0  0
    4.3790   -0.3500   -0.3010 C   0  0  0  0  0  0  0  0  0  0  0  0
    4.6230   -1.5600   -0.1220 O   0  0  0  0  0  0  0  0  0  0  0  0
    5.1390    0.4640   -1.1240 O   0  0  0  0  0  0  0  0  0  0  0  0
    6.2490   -0.0350   -1.8130 C   0  0  0  0  0  0  0  0  0  0  0  0
    7.3230   -0.5760   -0.8910 C   0  0  0  0  0  0  0  0  0  0  0  0
    7.8200    0.5050    0.0200 C   0  0  0  0  0  0  0  0  0  0  0  0
    7.3370    1.6630   -0.0760 O   0  0  0  0  0  0  0  0  0  0  0  0
    8.7960    0.2760    0.9690 O   0  0  0  0  0  0  0  0  0  0  0  0
  1  2  1  0
  2  3  1  0
  3  4  2  3
  4  5  1  0
  4 31  1  0
  5  6  2  0
  5 33  1  0
  6  7  1  0
  6 17  1  0
  7  8  2  3
  7 12  1  0
  8  9  1  0
  9 10  2  3
 10 11  1  0
 12 13  1  0
 13 14  1  0
 14 15  1  0
 15 16  1  0
 17 18  1  0
 18 19  1  0
 19 20  2  0
 19 21  1  0
 21 22  1  0
 22 23  2  0
 22 26  1  0
 23 24  1  0
 24 25  2  0
 25 26  1  0
 25 27  1  0
 27 28  1  1
 27 34  1  0
 28 29  1  0
 29 30  2  0
 29 31  1  0
 31 32  1  0
 32 33  2  0
 32 34  1  0
 34 35  1  6
 35 36  1  0
 36 37  2  0
 36 38  1  0
 38 39  1  0
 39 40  1  0
 40 41  1  0
 41 42  2  0
 41 43  1  0
M  END
