
     RDKit          3D

 44 48  0  0  0  0  0  0  0  0999 V2000
  -11.6630   -0.4920   -0.0970 N   0  0  0  0  0  0  0  0  0  0  0  0
  -10.2940   -0.7930   -0.0040 C   0  0  0  0  0  0  0  0  0  0  0  0
   -9.9050   -1.9790    0.1200 O   0  0  0  0  0  0  0  0  0  0  0  0
   -9.3030    0.2930   -0.0480 C   0  0  0  0  0  0  0  0  0  0  0  0
   -8.0420   -0.0190    0.0430 C   0  0  0  0  0  0  0  0  0  0  0  0
   -6.9750    0.8860    0.0170 N   0  0  0  0  0  0  0  0  0  0  0  0
   -5.6470    0.5530    0.2050 C   0  0  2  0  0  0  0  0  0  0  0  0
   -5.1090   -0.5120   -0.5860 O   0  0  0  0  0  0  0  0  0  0  0  0
   -3.8190   -0.3260   -0.1760 C   0  0  2  0  0  0  0  0  0  0  0  0
   -2.6370   -1.0130   -0.7170 C   0  0  0  0  0  0  0  0  0  0  0  0
   -1.6160   -0.3640    0.0170 O   0  0  0  0  0  0  0  0  0  0  0  0
   -0.1150   -0.7570   -0.5300 P   0  0  2  0  0  0  0  0  0  0  0  0
    0.3940    0.4450   -1.4390 O   0  0  0  0  0  0  0  0  0  0  0  0
   -0.1390   -2.0670   -1.5740 O   0  0  0  0  0  0  0  0  0  0  0  0
    0.9890   -0.8300    0.7110 O   0  0  0  0  0  0  0  0  0  0  0  0
    1.5280   -2.3700    1.1640 P   0  0  1  0  0  0  0  0  0  0  0  0
    1.5340   -2.3070    2.7330 O   0  0  0  0  0  0  0  0  0  0  0  0
    0.6800   -3.6540    0.6910 O   0  0  0  0  0  0  0  0  0  0  0  0
    3.2160   -2.3710    0.8230 O   0  0  0  0  0  0  0  0  0  0  0  0
    3.3190   -1.4550   -0.3170 C   0  0  0  0  0  0  0  0  0  0  0  0
    4.1980   -0.3690    0.1810 C   0  0  1  0  0  0  0  0  0  0  0  0
    5.3860   -0.7480    0.6910 O   0  0  0  0  0  0  0  0  0  0  0  0
    6.1700    0.4220    0.7560 C   0  0  1  0  0  0  0  0  0  0  0  0
    7.4400   -0.0030    0.2510 N   0  0  0  0  0  0  0  0  0  0  0  0
    7.6130   -1.0750   -0.5710 C   0  0  0  0  0  0  0  0  0  0  0  0
    8.9370   -1.1760   -0.8370 N   0  0  0  0  0  0  0  0  0  0  0  0
    9.5850   -0.1980   -0.1990 C   0  0  0  0  0  0  0  0  0  0  0  0
   10.9320    0.1040   -0.1550 C   0  0  0  0  0  0  0  0  0  0  0  0
   11.8880   -0.6480   -0.8750 N   0  0  0  0  0  0  0  0  0  0  0  0
   11.2840    1.1510    0.6000 N   0  0  0  0  0  0  0  0  0  0  0  0
   10.3680    1.8880    1.2830 C   0  0  0  0  0  0  0  0  0  0  0  0
    9.0660    1.5640    1.2080 N   0  0  0  0  0  0  0  0  0  0  0  0
    8.6380    0.5340    0.4810 C   0  0  0  0  0  0  0  0  0  0  0  0
    5.5420    1.4750   -0.0620 C   0  0  2  0  0  0  0  0  0  0  0  0
    4.7800    2.3490    0.7690 O   0  0  0  0  0  0  0  0  0  0  0  0
    4.4440    0.7030   -0.8360 C   0  0  2  0  0  0  0  0  0  0  0  0
    3.3140    1.4870   -1.0340 O   0  0  0  0  0  0  0  0  0  0  0  0
   -3.8800   -0.5110    1.3520 C   0  0  1  0  0  0  0  0  0  0  0  0
   -2.9860    0.3840    1.9250 O   0  0  0  0  0  0  0  0  0  0  0  0
   -5.3390   -0.0310    1.5790 C   0  0  1  0  0  0  0  0  0  0  0  0
   -5.4160    0.9200    2.5550 O   0  0  0  0  0  0  0  0  0  0  0  0
   -7.3120    2.2960   -0.1190 C   0  0  0  0  0  0  0  0  0  0  0  0
   -8.5850    2.6370   -0.2070 C   0  0  0  0  0  0  0  0  0  0  0  0
   -9.7040    1.6980   -0.1610 C   0  0  0  0  0  0  0  0  0  0  0  0
  1  2  1  0
  2  3  2  0
  2  4  1  0
  4  5  2  0
  4 44  1  0
  5  6  1  0
  7  6  1  1
  6 42  1  0
  7  8  1  0
  7 40  1  0
  8  9  1  0
  9 10  1  6
  9 38  1  0
 10 11  1  0
 11 12  1  0
 12 13  2  0
 12 14  1  6
 12 15  1  0
 15 16  1  0
 16 17  2  0
 16 18  1  1
 16 19  1  0
 19 20  1  0
 21 20  1  6
 21 22  1  0
 21 36  1  0
 22 23  1  0
 23 24  1  6
 23 34  1  0
 24 25  1  0
 24 33  1  0
 25 26  2  0
 26 27  1  0
 27 28  2  0
 27 33  1  0
 28 29  1  0
 28 30  1  0
 30 31  2  0
 31 32  1  0
 32 33  2  0
 34 35  1  1
 34 36  1  0
 36 37  1  1
 38 39  1  1
 38 40  1  0
 40 41  1  1
 42 43  2  0
 43 44  1  0
M  END
