
     RDKit          3D

 43 45  0  0  0  0  0  0  0  0999 V2000
   -3.3260    2.6400   -1.1620 O   0  0  0  0  0  0  0  0  0  0  0  0
   -2.3120    2.7320   -0.3790 C   0  0  0  0  0  0  0  0  0  0  0  0
   -2.2860    4.0310    0.2700 N   0  0  0  0  0  0  0  0  0  0  0  0
   -1.0430    4.5910    0.7710 C   0  0  0  0  0  0  0  0  0  0  0  0
   -0.4240    5.3300   -0.4230 C   0  0  0  0  0  0  0  0  0  0  0  0
   -0.6270    4.4690   -1.5220 O   0  0  0  0  0  0  0  0  0  0  0  0
    0.5650    3.8860   -1.9180 C   0  0  0  0  0  0  0  0  0  0  0  0
    0.4850    2.4740   -2.0060 O   0  0  0  0  0  0  0  0  0  0  0  0
    1.4710    1.7300   -1.4510 N   0  0  0  0  0  0  0  0  0  0  0  0
    1.3340    0.5820   -0.8880 C   0  0  0  0  0  0  0  0  0  0  0  0
    2.4010   -0.0870   -0.3570 N   0  0  0  0  0  0  0  0  0  0  0  0
    3.2800   -0.8650   -0.7700 C   0  0  0  0  0  0  0  0  0  0  0  0
    3.3260   -1.2630   -2.1400 N   0  0  0  0  0  0  0  0  0  0  0  0
    2.7170   -0.4960   -3.1800 C   0  0  0  0  0  0  0  0  0  0  0  0
    3.0080   -1.2380   -4.4990 C   0  0  0  0  0  0  0  0  0  0  0  0
    4.4160   -1.2910   -4.6230 O   0  0  0  0  0  0  0  0  0  0  0  0
    4.7660   -1.9050   -5.7180 O   0  0  0  0  0  0  0  0  0  0  0  0
    4.3170   -1.4080    0.1510 C   0  0  0  0  0  0  0  0  0  0  0  0
    5.1950   -2.1930   -0.2890 O   0  0  0  0  0  0  0  0  0  0  0  0
    4.3320   -1.0580    1.5160 N   0  0  0  0  0  0  0  0  0  0  0  0
    5.3610   -1.6160    2.3640 C   0  0  0  0  0  0  0  0  0  0  0  0
    5.2560   -1.1590    3.7890 C   0  0  0  0  0  0  0  0  0  0  0  0
    6.3030   -1.7680    4.4950 O   0  0  0  0  0  0  0  0  0  0  0  0
    6.3030   -1.4320    5.7630 O   0  0  0  0  0  0  0  0  0  0  0  0
   -0.0360    0.0120   -0.8270 C   0  0  1  0  0  0  0  0  0  0  0  0
    0.0320   -1.3460   -0.5430 O   0  0  0  0  0  0  0  0  0  0  0  0
    0.0190   -2.4330   -1.4060 C   0  0  0  0  0  0  0  0  0  0  0  0
    1.0140   -3.2600   -1.3850 O   0  0  0  0  0  0  0  0  0  0  0  0
   -0.9990   -2.7370   -2.3320 N   0  0  0  0  0  0  0  0  0  0  0  0
   -2.4210   -2.8310   -2.0960 C   0  0  0  0  0  0  0  0  0  0  0  0
   -2.7940   -3.6510   -0.9180 C   0  0  0  0  0  0  0  0  0  0  0  0
   -3.0880   -3.0760    0.2370 O   0  0  0  0  0  0  0  0  0  0  0  0
   -4.2220   -2.4020    0.4710 C   0  0  0  0  0  0  0  0  0  0  0  0
   -4.2170   -1.8520    1.8420 C   0  0  0  0  0  0  0  0  0  0  0  0
   -3.8670   -0.4310    2.0370 C   0  0  2  0  0  0  0  0  0  0  0  0
   -4.7230    0.5430    1.2810 C   0  0  0  0  0  0  0  0  0  0  0  0
   -4.5500    1.8010    1.7770 O   0  0  0  0  0  0  0  0  0  0  0  0
   -3.6470    1.9670    2.7760 C   0  0  0  0  0  0  0  0  0  0  0  0
   -2.3530    1.2070    2.6140 C   0  0  0  0  0  0  0  0  0  0  0  0
   -2.5180   -0.0370    1.9210 N   0  0  0  0  0  0  0  0  0  0  0  0
   -1.8150   -0.2680    0.7550 C   0  0  0  0  0  0  0  0  0  0  0  0
   -0.8080    0.7630    0.2820 C   0  0  2  0  0  0  0  0  0  0  0  0
   -1.3550    1.9040   -0.0830 O   0  0  0  0  0  0  0  0  0  0  0  0
  1  2  2  0
  2  3  1  0
  2 43  1  0
  3  4  1  0
  4  5  1  0
  5  6  1  0
  6  7  1  0
  7  8  1  0
  8  9  1  0
  9 10  2  0
 10 11  1  0
 10 25  1  0
 11 12  2  3
 12 13  1  0
 12 18  1  0
 13 14  1  0
 14 15  1  0
 15 16  1  0
 16 17  1  0
 18 19  2  0
 18 20  1  0
 20 21  1  0
 21 22  1  0
 22 23  1  0
 23 24  1  0
 25 26  1  1
 25 42  1  0
 26 27  1  0
 27 28  2  0
 27 29  1  0
 29 30  1  0
 30 31  1  0
 31 32  1  0
 32 33  1  0
 33 34  1  0
 35 34  1  6
 35 36  1  0
 35 40  1  0
 36 37  1  0
 37 38  1  0
 38 39  1  0
 39 40  1  0
 40 41  1  0
 42 41  1  6
 42 43  1  0
M  END
