
     RDKit          3D

 43 45  0  0  0  0  0  0  0  0999 V2000
    6.6990   -0.7860    1.3360 C   0  0  0  0  0  0  0  0  0  0  0  0
    6.1090   -1.4940    0.1420 C   0  0  1  0  0  0  0  0  0  0  0  0
    6.7600   -0.9700   -1.1410 C   0  0  0  0  0  0  0  0  0  0  0  0
    6.3660   -2.9700    0.2380 C   0  0  0  0  0  0  0  0  0  0  0  0
    4.7280   -1.2470    0.1050 O   0  0  0  0  0  0  0  0  0  0  0  0
    4.1640   -0.0160   -0.0420 C   0  0  0  0  0  0  0  0  0  0  0  0
    4.9430    0.9860   -0.1760 O   0  0  0  0  0  0  0  0  0  0  0  0
    2.7560    0.1650   -0.0500 N   0  0  0  0  0  0  0  0  0  0  0  0
    2.2380    1.4960   -0.2050 C   0  0  0  0  0  0  0  0  0  0  0  0
    2.7270    2.0690   -1.2630 O   0  0  0  0  0  0  0  0  0  0  0  0
    1.3160    2.2590    0.5740 N   0  0  0  0  0  0  0  0  0  0  0  0
    1.4470    3.0390    1.7620 C   0  0  0  0  0  0  0  0  0  0  0  0
    1.6540    2.5000    2.9550 O   0  0  0  0  0  0  0  0  0  0  0  0
    1.3870    4.4640    1.9180 N   0  0  0  0  0  0  0  0  0  0  0  0
    0.1950    5.3260    1.7250 C   0  0  0  0  0  0  0  0  0  0  0  0
   -0.9110    4.5340    1.0500 C   0  0  0  0  0  0  0  0  0  0  0  0
   -2.1950    4.9810    1.2960 O   0  0  0  0  0  0  0  0  0  0  0  0
   -3.1170    3.9670    1.5420 C   0  0  0  0  0  0  0  0  0  0  0  0
   -3.7610    3.4520    0.2960 C   0  0  0  0  0  0  0  0  0  0  0  0
   -3.6570    4.3750   -0.7950 O   0  0  0  0  0  0  0  0  0  0  0  0
   -4.3390    2.3910    0.1000 N   0  0  0  0  0  0  0  0  0  0  0  0
   -4.7940    1.1930    0.5010 C   0  0  0  0  0  0  0  0  0  0  0  0
   -5.7310    1.0810    1.3790 O   0  0  0  0  0  0  0  0  0  0  0  0
   -4.3520   -0.0760    0.0510 O   0  0  0  0  0  0  0  0  0  0  0  0
   -3.0210   -0.4370   -0.0370 C   0  0  2  0  0  0  0  0  0  0  0  0
   -2.3000    0.7280   -0.6820 C   0  0  0  0  0  0  0  0  0  0  0  0
   -1.0760    0.1080   -1.3110 C   0  0  0  0  0  0  0  0  0  0  0  0
   -0.5750   -0.8200   -0.3260 N   0  0  0  0  0  0  0  0  0  0  0  0
    0.5270   -0.5910    0.5160 C   0  0  0  0  0  0  0  0  0  0  0  0
    0.6120   -0.0560    1.6430 O   0  0  0  0  0  0  0  0  0  0  0  0
    1.9630   -1.0310    0.1080 C   0  0  1  0  0  0  0  0  0  0  0  0
    1.7250   -1.8420   -1.1510 C   0  0  0  0  0  0  0  0  0  0  0  0
    0.8110   -2.8200   -0.8850 O   0  0  0  0  0  0  0  0  0  0  0  0
   -0.4490   -2.7620   -1.5040 C   0  0  0  0  0  0  0  0  0  0  0  0
   -1.3440   -2.0920   -0.4750 C   0  0  2  0  0  0  0  0  0  0  0  0
   -2.7280   -1.6720   -0.8800 C   0  0  1  0  0  0  0  0  0  0  0  0
   -3.6800   -2.6660   -0.4720 N   0  0  0  0  0  0  0  0  0  0  0  0
   -4.8190   -3.0180   -1.3540 C   0  0  0  0  0  0  0  0  0  0  0  0
   -4.9770   -2.4670   -2.3680 O   0  0  0  0  0  0  0  0  0  0  0  0
   -5.5450   -4.0930   -0.6590 N   0  0  0  0  0  0  0  0  0  0  0  0
   -6.6810   -4.3770   -1.9430 C   0  0  0  0  0  0  0  0  0  0  0  0
   -6.5300   -3.7080   -2.8730 O   0  0  0  0  0  0  0  0  0  0  0  0
   -7.5440   -5.3590   -1.5800 O   0  0  0  0  0  0  0  0  0  0  0  0
  2  1  1  1
  2  3  1  0
  2  4  1  0
  2  5  1  0
  5  6  1  0
  6  7  2  0
  6  8  1  0
  8  9  1  0
  8 31  1  0
  9 10  2  0
  9 11  1  0
 11 12  1  0
 12 13  2  0
 12 14  1  0
 14 15  1  0
 15 16  1  0
 16 17  1  0
 17 18  1  0
 18 19  1  0
 19 20  1  0
 19 21  2  0
 21 22  1  0
 22 23  2  0
 22 24  1  0
 25 24  1  6
 25 26  1  0
 25 36  1  0
 26 27  1  0
 27 28  1  0
 28 29  1  0
 28 35  1  0
 29 30  2  0
 29 31  1  0
 31 32  1  6
 32 33  1  0
 33 34  1  0
 35 34  1  6
 35 36  1  0
 36 37  1  1
 37 38  1  0
 38 39  2  0
 38 40  1  0
 40 41  1  0
 41 42  2  0
 41 43  1  0
M  END
