
     RDKit          3D

 31 35  0  0  0  0  0  0  0  0999 V2000
   -1.3390    2.6260   -0.1920 C   0  0  0  0  0  0  0  0  0  0  0  0
   -1.6610    1.1490   -0.0200 C   0  0  0  0  0  0  0  0  0  0  0  0
   -0.6290    0.3230    0.0120 C   0  0  0  0  0  0  0  0  0  0  0  0
   -0.6980   -1.1480    0.1680 C   0  0  0  0  0  0  0  0  0  0  0  0
   -1.8330   -1.7990    0.2860 C   0  0  0  0  0  0  0  0  0  0  0  0
   -1.9360   -3.2730    0.4710 C   0  0  1  0  0  0  0  0  0  0  0  0
   -3.2330   -3.8560    0.4580 C   0  0  0  0  0  0  0  0  0  0  0  0
   -3.2990   -5.2780    0.7900 N   0  0  0  0  0  0  0  0  0  0  0  0
   -4.3100   -3.3500    0.2080 O   0  0  0  0  0  0  0  0  0  0  0  0
   -0.8030   -4.0460   -0.7060 S   0  0  0  0  0  0  0  0  0  0  0  0
    0.7140   -3.1060   -0.3630 C   0  0  0  0  0  0  0  0  0  0  0  0
    1.9700   -3.4800   -0.4070 N   0  0  0  0  0  0  0  0  0  0  0  0
    2.6860   -2.4240   -0.2120 N   0  0  0  0  0  0  0  0  0  0  0  0
    1.8590   -1.3140   -0.0300 C   0  0  0  0  0  0  0  0  0  0  0  0
    2.4370    0.0060    0.2650 C   0  0  1  0  0  0  0  0  0  0  0  0
    3.7540   -0.2930    1.0700 C   0  0  0  0  0  0  0  0  0  0  0  0
    4.8760   -0.5600    0.1190 C   0  0  0  0  0  0  0  0  0  0  0  0
    5.3410    0.7890   -0.4430 C   0  0  2  0  0  0  0  0  0  0  0  0
    6.4010    1.3820    0.4270 C   0  0  0  0  0  0  0  0  0  0  0  0
    4.0820    1.6390   -0.5070 C   0  0  0  0  0  0  0  0  0  0  0  0
    2.9600    0.7140   -0.9700 C   0  0  0  0  0  0  0  0  0  0  0  0
    0.5930   -1.7800   -0.1320 N   0  0  0  0  0  0  0  0  0  0  0  0
   -3.3650   -0.9180    0.2040 S   0  0  1  0  0  0  0  0  0  0  0  0
   -4.1200   -1.2710   -1.0740 O   0  0  0  0  0  0  0  0  0  0  0  0
   -4.2340   -1.2040    1.4020 O   0  0  0  0  0  0  0  0  0  0  0  0
   -2.9890    0.7370    0.1020 N   0  0  0  0  0  0  0  0  0  0  0  0
   -4.0390    1.6580    0.1450 C   0  0  0  0  0  0  0  0  0  0  0  0
   -4.9180    1.7510   -0.8540 C   0  0  0  0  0  0  0  0  0  0  0  0
   -5.8870    2.7730   -0.5510 C   0  0  0  0  0  0  0  0  0  0  0  0
   -5.6160    3.3090    0.6200 C   0  0  0  0  0  0  0  0  0  0  0  0
   -4.4180    2.6440    1.1580 C   0  0  0  0  0  0  0  0  0  0  0  0
  1  2  1  0
  2  3  2  0
  2 26  1  0
  3  4  1  0
  4  5  2  0
  4 22  1  0
  5  6  1  0
  5 23  1  0
  6  7  1  6
  6 10  1  0
  7  8  1  0
  7  9  2  0
 10 11  1  0
 11 12  2  0
 11 22  1  0
 12 13  1  0
 13 14  2  0
 15 14  1  6
 14 22  1  0
 15 16  1  0
 15 21  1  0
 16 17  1  0
 17 18  1  0
 18 19  1  1
 18 20  1  0
 20 21  1  0
 23 24  2  0
 23 25  2  0
 23 26  1  6
 26 27  1  0
 27 28  2  0
 27 31  1  0
 28 29  1  0
 29 30  2  0
 30 31  1  0
M  END
