
     RDKit          3D

 29 31  0  0  0  0  0  0  0  0999 V2000
   -6.1340   -0.1540   -1.9170 C   0  0  0  0  0  0  0  0  0  0  0  0
   -5.8180    0.0130   -0.4510 C   0  0  0  0  0  0  0  0  0  0  0  0
   -4.7410   -0.4990    0.1720 C   0  0  0  0  0  0  0  0  0  0  0  0
   -3.7360   -1.3050   -0.5700 C   0  0  0  0  0  0  0  0  0  0  0  0
   -2.6740   -0.4740   -1.2420 C   0  0  0  0  0  0  0  0  0  0  0  0
   -1.9280    0.3640   -0.3860 N   0  0  0  0  0  0  0  0  0  0  0  0
   -1.4460    1.5770   -1.0390 C   0  0  0  0  0  0  0  0  0  0  0  0
   -0.4660    1.3090   -2.1250 C   0  0  0  0  0  0  0  0  0  0  0  0
    0.7550    0.5990   -1.6680 C   0  0  0  0  0  0  0  0  0  0  0  0
    1.5700    1.3050   -0.6630 C   0  0  0  0  0  0  0  0  0  0  0  0
    1.2830    2.4790   -0.3280 O   0  0  0  0  0  0  0  0  0  0  0  0
    2.6940    0.6490   -0.0690 N   0  0  0  0  0  0  0  0  0  0  0  0
    3.1880   -0.6900   -0.3200 C   0  0  0  0  0  0  0  0  0  0  0  0
    4.6740   -0.5370   -0.0750 C   0  0  2  0  0  0  0  0  0  0  0  0
    5.1710   -1.8070    0.4000 N   0  0  0  0  0  0  0  0  0  0  0  0
    6.2150   -2.4470   -0.3030 C   0  0  0  0  0  0  0  0  0  0  0  0
    6.7710   -3.7030    0.0910 N   0  0  0  0  0  0  0  0  0  0  0  0
    6.7200   -1.9230   -1.3410 O   0  0  0  0  0  0  0  0  0  0  0  0
    4.7580    0.5250    0.9290 C   0  0  0  0  0  0  0  0  0  0  0  0
    5.7340    0.9440    1.8310 C   0  0  0  0  0  0  0  0  0  0  0  0
    5.5370    2.0020    2.6790 C   0  0  0  0  0  0  0  0  0  0  0  0
    4.3390    2.6930    2.6580 C   0  0  0  0  0  0  0  0  0  0  0  0
    3.3590    2.2840    1.7630 C   0  0  0  0  0  0  0  0  0  0  0  0
    3.5530    1.2200    0.9080 C   0  0  0  0  0  0  0  0  0  0  0  0
   -4.8320   -0.1160    1.5580 C   0  0  0  0  0  0  0  0  0  0  0  0
   -4.0750   -0.4500    2.5750 C   0  0  0  0  0  0  0  0  0  0  0  0
   -2.9580   -1.2990    2.5410 N   0  0  0  0  0  0  0  0  0  0  0  0
   -6.0830    0.6920    1.6960 C   0  0  0  0  0  0  0  0  0  0  0  0
   -6.6210    0.7380    0.5000 C   0  0  0  0  0  0  0  0  0  0  0  0
  1  2  1  0
  2  3  2  0
  2 29  1  0
  3  4  1  0
  3 25  1  0
  4  5  1  0
  5  6  1  0
  6  7  1  0
  7  8  1  0
  8  9  1  0
  9 10  1  0
 10 11  2  0
 10 12  1  0
 12 13  1  0
 12 24  1  0
 13 14  1  0
 14 15  1  1
 14 19  1  0
 15 16  1  0
 16 17  1  0
 16 18  2  0
 19 20  2  0
 19 24  1  0
 20 21  1  0
 21 22  2  0
 22 23  1  0
 23 24  2  0
 25 26  2  3
 25 28  1  0
 26 27  1  0
 28 29  2  0
M  CHG  2   6   1  27   1
M  END
