
     RDKit          3D

 31 35  0  0  0  0  0  0  0  0999 V2000
    6.3310   -1.9710   -2.1740 O   0  0  0  0  0  0  0  0  0  0  0  0
    6.0700   -0.9460   -1.5330 C   0  0  0  0  0  0  0  0  0  0  0  0
    6.9640    0.2000   -1.3100 C   0  0  0  0  0  0  0  0  0  0  0  0
    8.2620    0.4590   -1.7170 C   0  0  0  0  0  0  0  0  0  0  0  0
    8.8950    1.5860   -1.3950 N   0  0  0  0  0  0  0  0  0  0  0  0
    8.2900    2.5230   -0.6560 C   0  0  0  0  0  0  0  0  0  0  0  0
    6.9990    2.2870   -0.2420 C   0  0  0  0  0  0  0  0  0  0  0  0
    6.3050    1.1290   -0.5540 C   0  0  0  0  0  0  0  0  0  0  0  0
    4.9230    0.6330   -0.2350 C   0  0  0  0  0  0  0  0  0  0  0  0
    3.8970    1.1020    0.4360 N   0  0  0  0  0  0  0  0  0  0  0  0
    2.7740    0.4230    0.5510 C   0  0  0  0  0  0  0  0  0  0  0  0
    1.6730    0.6170    1.1110 N   0  0  0  0  0  0  0  0  0  0  0  0
    0.6540   -0.3690    1.0230 C   0  0  0  0  0  0  0  0  0  0  0  0
   -0.1490   -0.5410    0.0010 C   0  0  0  0  0  0  0  0  0  0  0  0
   -1.0860   -1.6720    0.2710 C   0  0  2  0  0  0  0  0  0  0  0  0
   -2.4030   -1.1620    0.7850 C   0  0  0  0  0  0  0  0  0  0  0  0
   -3.3420   -2.2090    1.0620 N   0  0  0  0  0  0  0  0  0  0  0  0
   -4.8130   -1.4770    1.6460 S   0  0  2  0  0  0  0  0  0  0  0  0
   -4.4750   -0.2370    2.4110 O   0  0  0  0  0  0  0  0  0  0  0  0
   -5.4420   -2.4300    2.6340 O   0  0  0  0  0  0  0  0  0  0  0  0
   -5.8830   -1.1190    0.3780 N   0  0  0  0  0  0  0  0  0  0  0  0
   -5.8650    0.1280   -0.2710 C   0  0  0  0  0  0  0  0  0  0  0  0
   -5.8670    0.1720   -1.6520 C   0  0  0  0  0  0  0  0  0  0  0  0
   -5.8420    1.3950   -2.3170 C   0  0  0  0  0  0  0  0  0  0  0  0
   -5.8140    2.5890   -1.6140 C   0  0  0  0  0  0  0  0  0  0  0  0
   -5.8130    2.5410   -0.2430 C   0  0  0  0  0  0  0  0  0  0  0  0
   -5.8380    1.3110    0.4220 C   0  0  0  0  0  0  0  0  0  0  0  0
   -0.3370   -2.4680    1.3290 C   0  0  0  0  0  0  0  0  0  0  0  0
    0.3440   -1.3490    2.0810 C   0  0  0  0  0  0  0  0  0  0  0  0
    3.1800   -1.1020   -0.4100 S   0  0  0  0  0  0  0  0  0  0  0  0
    4.8420   -0.5730   -0.8270 C   0  0  0  0  0  0  0  0  0  0  0  0
  1  2  2  0
  2  3  1  0
  2 31  1  0
  3  4  2  0
  3  8  1  0
  4  5  1  0
  5  6  2  0
  6  7  1  0
  7  8  2  0
  8  9  1  0
  9 10  1  0
  9 31  2  0
 10 11  1  0
 11 12  2  3
 11 30  1  0
 12 13  1  0
 13 14  2  0
 13 29  1  0
 14 15  1  0
 15 16  1  1
 15 28  1  0
 16 17  1  0
 18 17  1  6
 18 19  2  0
 18 20  2  0
 18 21  1  0
 21 22  1  0
 22 23  2  0
 22 27  1  0
 23 24  1  0
 24 25  2  0
 25 26  1  0
 26 27  2  0
 28 29  1  0
 30 31  1  0
M  END
