
     RDKit          3D

 31 35  0  0  0  0  0  0  0  0999 V2000
   -3.6560   -1.8530   -1.7990 C   0  0  0  0  0  0  0  0  0  0  0  0
   -4.6110   -0.8290   -1.3070 C   0  0  0  0  0  0  0  0  0  0  0  0
   -5.6810   -0.4860   -2.0590 C   0  0  0  0  0  0  0  0  0  0  0  0
   -6.5730    0.4650   -1.6400 C   0  0  0  0  0  0  0  0  0  0  0  0
   -6.3230    1.0540   -0.4150 C   0  0  0  0  0  0  0  0  0  0  0  0
   -5.2430    0.7270    0.3730 C   0  0  0  0  0  0  0  0  0  0  0  0
   -5.0750    1.3930    1.6700 C   0  0  2  0  0  0  0  0  0  0  0  0
   -3.7340    1.8030    1.9080 N   0  0  0  0  0  0  0  0  0  0  0  0
   -3.3580    1.1420    2.9550 C   0  0  0  0  0  0  0  0  0  0  0  0
   -4.9260    0.3110    3.1150 S   0  0  0  0  0  0  0  0  0  0  0  0
   -4.3740   -0.2190   -0.0650 C   0  0  0  0  0  0  0  0  0  0  0  0
   -3.2190   -0.6850    0.6420 N   0  0  0  0  0  0  0  0  0  0  0  0
   -1.9450   -0.2590    0.2370 C   0  0  0  0  0  0  0  0  0  0  0  0
   -1.7940    0.5410   -0.7320 O   0  0  0  0  0  0  0  0  0  0  0  0
   -0.6870   -0.7290    0.9110 C   0  0  0  0  0  0  0  0  0  0  0  0
    0.6020   -0.8930   -0.3560 S   0  0  0  0  0  0  0  0  0  0  0  0
    2.1750   -0.3250    0.2160 C   0  0  0  0  0  0  0  0  0  0  0  0
    2.3800    0.1450    1.4430 N   0  0  0  0  0  0  0  0  0  0  0  0
    3.5810    0.5800    1.8860 C   0  0  0  0  0  0  0  0  0  0  0  0
    4.6730    0.5500    1.0450 C   0  0  0  0  0  0  0  0  0  0  0  0
    4.5040    0.0680   -0.2360 C   0  0  0  0  0  0  0  0  0  0  0  0
    5.5850    0.0210   -1.0800 C   0  0  0  0  0  0  0  0  0  0  0  0
    5.3860   -0.4750   -2.3670 C   0  0  0  0  0  0  0  0  0  0  0  0
    4.1890   -0.8890   -2.7620 N   0  0  0  0  0  0  0  0  0  0  0  0
    3.1410   -0.8430   -1.9330 C   0  0  0  0  0  0  0  0  0  0  0  0
    2.0180   -1.2430   -2.3300 O   0  0  0  0  0  0  0  0  0  0  0  0
    3.2710   -0.3680   -0.6620 C   0  0  0  0  0  0  0  0  0  0  0  0
    6.9510    0.4360   -0.7050 C   0  0  0  0  0  0  0  0  0  0  0  0
    7.0150    1.0800    0.6230 C   0  0  0  0  0  0  0  0  0  0  0  0
    8.0860    1.6710    0.9830 O   0  0  0  0  0  0  0  0  0  0  0  0
    5.9130    1.0630    1.5110 N   0  0  0  0  0  0  0  0  0  0  0  0
  1  2  1  0
  2  3  2  0
  2 11  1  0
  3  4  1  0
  4  5  2  0
  5  6  1  0
  7  6  1  6
  6 11  2  0
  7  8  1  0
  7 10  1  0
  8  9  2  0
  9 10  1  0
 11 12  1  0
 12 13  1  0
 13 14  2  0
 13 15  1  0
 15 16  1  0
 16 17  1  0
 17 18  2  0
 17 27  1  0
 18 19  1  0
 19 20  2  0
 20 21  1  0
 20 31  1  0
 21 22  1  0
 21 27  2  0
 22 23  2  0
 22 28  1  0
 23 24  1  0
 24 25  1  0
 25 26  2  0
 25 27  1  0
 28 29  1  0
 29 30  2  0
 29 31  1  0
M  END
