
     RDKit          3D

 30 34  0  0  0  0  0  0  0  0999 V2000
    6.5120   -1.1110    1.7230 C   0  0  0  0  0  0  0  0  0  0  0  0
    6.1470   -0.1740    0.5680 C   0  0  2  0  0  0  0  0  0  0  0  0
    4.6750   -0.0920    0.5010 N   0  0  0  0  0  0  0  0  0  0  0  0
    3.9930    1.1040    0.7290 C   0  0  0  0  0  0  0  0  0  0  0  0
    4.6600    2.1420    1.0010 O   0  0  0  0  0  0  0  0  0  0  0  0
    2.5520    1.1760    0.6620 C   0  0  0  0  0  0  0  0  0  0  0  0
    1.8140    0.0640    0.3700 C   0  0  0  0  0  0  0  0  0  0  0  0
    0.4100    0.1980    0.3180 C   0  0  0  0  0  0  0  0  0  0  0  0
   -0.2280    1.3770    0.5450 C   0  0  0  0  0  0  0  0  0  0  0  0
   -1.6070    1.5550    0.5050 N   0  0  0  0  0  0  0  0  0  0  0  0
   -2.5660    0.5740    0.2290 C   0  0  0  0  0  0  0  0  0  0  0  0
   -2.2230   -0.5980   -0.0140 O   0  0  0  0  0  0  0  0  0  0  0  0
   -4.0020    0.9290    0.2250 C   0  0  0  0  0  0  0  0  0  0  0  0
   -4.6390    2.5960    0.5600 S   0  0  0  0  0  0  0  0  0  0  0  0
   -6.3280    2.0860    0.3470 C   0  0  0  0  0  0  0  0  0  0  0  0
   -8.0630    2.5410    0.3440 S   0  0  0  0  0  0  0  0  0  0  0  0
   -8.6460    0.8470   -0.0700 C   0  0  0  0  0  0  0  0  0  0  0  0
   -7.4590    0.1150   -0.1620 C   0  0  0  0  0  0  0  0  0  0  0  0
   -6.3080    0.7860    0.0570 C   0  0  0  0  0  0  0  0  0  0  0  0
   -5.1150    0.1600   -0.0120 C   0  0  0  0  0  0  0  0  0  0  0  0
   -5.0620   -1.2410   -0.3210 N   0  0  0  0  0  0  0  0  0  0  0  0
   -6.2330   -2.0350   -0.0570 C   0  0  0  0  0  0  0  0  0  0  0  0
   -7.4820   -1.3770   -0.4950 C   0  0  0  0  0  0  0  0  0  0  0  0
    0.5760    2.4670    0.8370 N   0  0  0  0  0  0  0  0  0  0  0  0
    1.8990    2.3650    0.8910 C   0  0  0  0  0  0  0  0  0  0  0  0
    6.6310   -0.7390   -0.7100 C   0  0  0  0  0  0  0  0  0  0  0  0
    7.6720   -0.3170   -1.4820 C   0  0  0  0  0  0  0  0  0  0  0  0
    7.7080   -1.1810   -2.5690 C   0  0  0  0  0  0  0  0  0  0  0  0
    6.7460   -2.0370   -2.4180 O   0  0  0  0  0  0  0  0  0  0  0  0
    6.0900   -1.8010   -1.3250 N   0  0  0  0  0  0  0  0  0  0  0  0
  2  1  1  1
  2  3  1  0
  2 26  1  0
  3  4  1  0
  4  5  2  0
  4  6  1  0
  6  7  2  0
  6 25  1  0
  7  8  1  0
  8  9  2  0
  9 10  1  0
  9 24  1  0
 10 11  1  0
 11 12  2  0
 11 13  1  0
 13 14  1  0
 13 20  2  0
 14 15  1  0
 15 16  1  0
 15 19  2  0
 16 17  1  0
 17 18  2  0
 18 19  1  0
 18 23  1  0
 19 20  1  0
 20 21  1  0
 21 22  1  0
 22 23  1  0
 24 25  2  0
 26 27  1  0
 26 30  2  0
 27 28  2  0
 28 29  1  0
 29 30  1  0
M  END
