
     RDKit          3D

 31 35  0  0  0  0  0  0  0  0999 V2000
   -0.8890    0.2320   -3.7320 N   0  0  0  0  0  0  0  0  0  0  0  0
   -0.7890   -0.6400   -2.5850 C   0  0  1  0  0  0  0  0  0  0  0  0
    0.3460   -0.3050   -1.7070 C   0  0  0  0  0  0  0  0  0  0  0  0
    0.6530    0.9840   -1.3310 C   0  0  0  0  0  0  0  0  0  0  0  0
    1.7200    1.2680   -0.5080 C   0  0  0  0  0  0  0  0  0  0  0  0
    2.5540    0.2660   -0.0050 C   0  0  0  0  0  0  0  0  0  0  0  0
    3.7380    0.6160    0.8040 C   0  0  0  0  0  0  0  0  0  0  0  0
    4.1830    1.8150    0.8070 N   0  0  0  0  0  0  0  0  0  0  0  0
    5.2990    2.0830    1.5760 N   0  0  0  0  0  0  0  0  0  0  0  0
    6.0640    0.4740    1.6310 S   0  0  2  0  0  0  0  0  0  0  0  0
    6.8020    0.2730    2.8830 O   0  0  0  0  0  0  0  0  0  0  0  0
    6.7570    0.1640    0.3760 O   0  0  0  0  0  0  0  0  0  0  0  0
    4.4270   -0.2780    1.6940 C   0  0  0  0  0  0  0  0  0  0  0  0
    4.1130   -1.2300    2.4560 C   0  0  0  0  0  0  0  0  0  0  0  0
    2.5020   -1.8520    2.7240 S   0  0  0  0  0  0  0  0  0  0  0  0
    1.5100   -0.7130    2.7320 O   0  0  0  0  0  0  0  0  0  0  0  0
    2.2530   -1.0190   -0.3780 C   0  0  0  0  0  0  0  0  0  0  0  0
    1.1710   -1.2880   -1.2100 C   0  0  0  0  0  0  0  0  0  0  0  0
   -2.0870   -0.7880   -1.8220 C   0  0  1  0  0  0  0  0  0  0  0  0
   -1.8570   -1.6640   -0.7320 N   0  0  0  0  0  0  0  0  0  0  0  0
   -2.1040   -1.4460    0.4980 C   0  0  0  0  0  0  0  0  0  0  0  0
   -1.8860   -2.3210    1.7020 C   0  0  0  0  0  0  0  0  0  0  0  0
   -2.8040   -1.6900    2.7240 C   0  0  0  0  0  0  0  0  0  0  0  0
   -2.8660   -0.2270    2.3750 C   0  0  0  0  0  0  0  0  0  0  0  0
   -2.6910   -0.2310    0.9380 N   0  0  0  0  0  0  0  0  0  0  0  0
   -2.9770    0.7070   -0.1080 C   0  0  0  0  0  0  0  0  0  0  0  0
   -3.5700    1.8970    0.3210 C   0  0  0  0  0  0  0  0  0  0  0  0
   -3.9080    2.8710   -0.5940 C   0  0  0  0  0  0  0  0  0  0  0  0
   -3.6530    2.6490   -1.9080 C   0  0  0  0  0  0  0  0  0  0  0  0
   -3.0660    1.4670   -2.3130 C   0  0  0  0  0  0  0  0  0  0  0  0
   -2.7070    0.4540   -1.4270 C   0  0  0  0  0  0  0  0  0  0  0  0
  2  1  1  6
  2  3  1  0
  2 19  1  0
  3  4  2  0
  3 18  1  0
  4  5  1  0
  5  6  2  0
  6  7  1  0
  6 17  1  0
  7  8  2  0
  7 13  1  0
  8  9  1  0
 10  9  1  6
 10 11  2  0
 10 12  2  0
 10 13  1  0
 13 14  2  3
 14 15  1  0
 15 16  2  0
 17 18  2  0
 19 20  1  1
 19 31  1  0
 20 21  2  0
 21 22  1  0
 21 25  1  0
 22 23  1  0
 23 24  1  0
 24 25  1  0
 25 26  1  0
 26 27  2  0
 26 31  1  0
 27 28  1  0
 28 29  2  0
 29 30  1  0
 30 31  2  0
M  END
