
     RDKit          3D

 19 21  0  0  0  0  0  0  0  0999 V2000
    6.3540   -0.5250    0.5920 N   0  0  0  0  0  0  0  0  0  0  0  0
    5.8400   -0.0000   -0.6570 C   0  0  0  0  0  0  0  0  0  0  0  0
    4.3650    0.1140   -0.5430 C   0  0  0  0  0  0  0  0  0  0  0  0
    3.6800   -0.2320    0.5980 C   0  0  0  0  0  0  0  0  0  0  0  0
    2.3100   -0.1260    0.7030 C   0  0  0  0  0  0  0  0  0  0  0  0
    1.5780    0.3390   -0.3570 C   0  0  0  0  0  0  0  0  0  0  0  0
    0.1210    0.4430   -0.2220 C   0  0  0  0  0  0  0  0  0  0  0  0
   -0.5870    0.8900   -1.2380 C   0  0  0  0  0  0  0  0  0  0  0  0
   -2.0550    1.0060   -1.1340 C   0  0  0  0  0  0  0  0  0  0  0  0
   -2.6200    0.6620   -0.0330 C   0  0  0  0  0  0  0  0  0  0  0  0
   -4.0250    0.7870    0.0280 O   0  0  0  0  0  0  0  0  0  0  0  0
   -4.7220   -0.4610    0.0570 C   0  0  0  0  0  0  0  0  0  0  0  0
   -6.2170   -0.2450    0.1210 C   0  0  2  0  0  0  0  0  0  0  0  0
   -6.9920   -0.9500   -0.9560 C   0  0  0  0  0  0  0  0  0  0  0  0
   -6.8400    0.4460   -0.8910 O   0  0  0  0  0  0  0  0  0  0  0  0
   -1.9470    0.1590    1.1430 C   0  0  0  0  0  0  0  0  0  0  0  0
   -0.4920    0.0430    1.0590 C   0  0  0  0  0  0  0  0  0  0  0  0
    2.2120    0.6940   -1.5080 C   0  0  0  0  0  0  0  0  0  0  0  0
    3.6070    0.5830   -1.6070 C   0  0  0  0  0  0  0  0  0  0  0  0
  1  2  1  0
  2  3  1  0
  3  4  2  0
  3 19  1  0
  4  5  1  0
  5  6  2  0
  6  7  1  0
  6 18  1  0
  7  8  2  0
  7 17  1  0
  8  9  1  0
  9 10  2  0
 10 11  1  0
 10 16  1  0
 11 12  1  0
 13 12  1  6
 13 14  1  0
 13 15  1  0
 14 15  1  0
 16 17  1  0
 18 19  2  0
M  CHG  1   1   1
M  END
