
     RDKit          3D

 19 20  0  0  0  0  0  0  0  0999 V2000
    1.2140    5.3400   -0.7350 C   0  0  0  0  0  0  0  0  0  0  0  0
    0.4470    4.1150   -0.4380 C   0  0  0  0  0  0  0  0  0  0  0  0
    1.0730    2.9940   -0.1740 C   0  0  0  0  0  0  0  0  0  0  0  0
    0.3170    1.7760    0.1210 C   0  0  0  0  0  0  0  0  0  0  0  0
   -0.9730    1.6170    0.1660 O   0  0  0  0  0  0  0  0  0  0  0  0
   -1.2930    0.3840    0.4630 C   0  0  0  0  0  0  0  0  0  0  0  0
   -0.1170   -0.3580    0.6330 C   0  0  0  0  0  0  0  0  0  0  0  0
    0.9060    0.5310    0.4150 C   0  0  0  0  0  0  0  0  0  0  0  0
    2.3680    0.3580    0.4470 C   0  0  0  0  0  0  0  0  0  0  0  0
    2.8710   -0.9310    0.7560 N   0  0  0  0  0  0  0  0  0  0  0  0
    3.1330   -1.6250   -0.5050 C   0  0  0  0  0  0  0  0  0  0  0  0
    4.5330   -1.4410   -0.9860 C   0  0  0  0  0  0  0  0  0  0  0  0
   -0.1300   -1.7850    0.9730 C   0  0  0  0  0  0  0  0  0  0  0  0
   -1.5020   -2.4300    0.8900 C   0  0  0  0  0  0  0  0  0  0  0  0
   -2.4640   -1.4290    1.5250 C   0  0  0  0  0  0  0  0  0  0  0  0
   -2.6310   -0.2550    0.6230 C   0  0  2  0  0  0  0  0  0  0  0  0
   -3.2290   -0.5570   -0.7100 C   0  0  0  0  0  0  0  0  0  0  0  0
   -4.5730   -1.1980   -0.6310 C   0  0  0  0  0  0  0  0  0  0  0  0
   -4.6150   -2.4010    0.0260 O   0  0  0  0  0  0  0  0  0  0  0  0
  1  2  1  0
  2  3  2  3
  3  4  1  0
  4  5  1  0
  4  8  2  0
  5  6  1  0
  6  7  2  0
  6 16  1  0
  7  8  1  0
  7 13  1  0
  8  9  1  0
  9 10  1  0
 10 11  1  0
 11 12  1  0
 13 14  1  0
 14 15  1  0
 15 16  1  0
 16 17  1  6
 17 18  1  0
 18 19  1  0
M  CHG  1  10   1
M  END
