
     RDKit          3D

 19 20  0  0  0  0  0  0  0  0999 V2000
    4.6780   -1.6630    1.4200 C   0  0  0  0  0  0  0  0  0  0  0  0
    4.1540   -0.2650    1.4240 C   0  0  1  0  0  0  0  0  0  0  0  0
    5.0920    0.6080    0.6270 C   0  0  0  0  0  0  0  0  0  0  0  0
    2.7160   -0.1830    0.9170 C   0  0  0  0  0  0  0  0  0  0  0  0
    2.3250    1.2720    0.9730 C   0  0  0  0  0  0  0  0  0  0  0  0
    1.0350    1.5550    0.5520 O   0  0  0  0  0  0  0  0  0  0  0  0
    0.6020    1.2560   -0.7220 C   0  0  0  0  0  0  0  0  0  0  0  0
    1.3970    0.7110   -1.5170 O   0  0  0  0  0  0  0  0  0  0  0  0
   -0.7900    1.5940   -1.1010 C   0  0  0  0  0  0  0  0  0  0  0  0
   -1.6280    0.3590   -1.2930 C   0  0  1  0  0  0  0  0  0  0  0  0
   -1.7210   -0.4740   -0.0670 C   0  0  0  0  0  0  0  0  0  0  0  0
   -0.8010   -1.2470    0.5160 C   0  0  0  0  0  0  0  0  0  0  0  0
   -1.3490   -1.8930    1.7300 C   0  0  0  0  0  0  0  0  0  0  0  0
   -2.7320   -1.3780    1.7630 C   0  0  0  0  0  0  0  0  0  0  0  0
   -2.9390   -0.5580    0.7210 C   0  0  0  0  0  0  0  0  0  0  0  0
   -4.1680    0.1830    0.3420 C   0  0  0  0  0  0  0  0  0  0  0  0
   -3.8180    1.2690   -0.6340 C   0  0  0  0  0  0  0  0  0  0  0  0
   -3.0000    0.7280   -1.7680 C   0  0  2  0  0  0  0  0  0  0  0  0
   -3.6280   -0.4330   -2.3840 N   0  0  0  0  0  0  0  0  0  0  0  0
  2  1  1  6
  2  3  1  0
  2  4  1  0
  4  5  1  0
  5  6  1  0
  6  7  1  0
  7  8  2  0
  7  9  1  0
 10  9  1  1
 10 11  1  0
 10 18  1  0
 11 12  2  0
 11 15  1  0
 12 13  1  0
 13 14  1  0
 14 15  2  0
 15 16  1  0
 16 17  1  0
 17 18  1  0
 18 19  1  1
M  CHG  1  19   1
M  END
