
     RDKit          3D

 19 20  0  0  0  0  0  0  0  0999 V2000
   -4.1410   -1.9440   -0.1600 C   0  0  0  0  0  0  0  0  0  0  0  0
   -4.2840   -0.6500   -0.9740 C   0  0  1  0  0  0  0  0  0  0  0  0
   -5.6390   -0.0760   -0.6510 C   0  0  0  0  0  0  0  0  0  0  0  0
   -3.1870    0.3150   -0.5730 C   0  0  1  0  0  0  0  0  0  0  0  0
   -3.3430    1.5770   -1.3780 C   0  0  0  0  0  0  0  0  0  0  0  0
   -3.3370    0.5360    0.8530 N   0  0  0  0  0  0  0  0  0  0  0  0
   -1.8540   -0.2330   -0.9010 C   0  0  0  0  0  0  0  0  0  0  0  0
   -1.5560   -0.2970   -2.0830 O   0  0  0  0  0  0  0  0  0  0  0  0
   -0.9440   -0.6780    0.1900 C   0  0  1  0  0  0  0  0  0  0  0  0
    0.0430   -1.7140   -0.1750 C   0  0  0  0  0  0  0  0  0  0  0  0
    0.4380   -0.2090    0.2050 C   0  0  0  0  0  0  0  0  0  0  0  0
    1.6450    0.2940    0.2430 C   0  0  0  0  0  0  0  0  0  0  0  0
    2.8850   -0.3830   -0.0540 C   0  0  0  0  0  0  0  0  0  0  0  0
    4.0790    0.1390   -0.0080 C   0  0  0  0  0  0  0  0  0  0  0  0
    4.3200    1.5350    0.3660 C   0  0  0  0  0  0  0  0  0  0  0  0
    5.1470    1.4830    1.6620 C   0  0  0  0  0  0  0  0  0  0  0  0
    6.0900    0.5010    1.6050 O   0  0  0  0  0  0  0  0  0  0  0  0
    6.4340    0.0220    0.3740 C   0  0  0  0  0  0  0  0  0  0  0  0
    5.2800   -0.6680   -0.3350 C   0  0  0  0  0  0  0  0  0  0  0  0
  2  1  1  1
  2  3  1  0
  2  4  1  0
  4  5  1  6
  4  6  1  0
  4  7  1  0
  7  8  2  0
  9  7  1  6
  9 10  1  0
  9 11  1  0
 10 11  1  0
 11 12  2  3
 12 13  1  0
 13 14  2  3
 14 15  1  0
 14 19  1  0
 15 16  1  0
 16 17  1  0
 17 18  1  0
 18 19  1  0
M  CHG  1   6   1
M  END
