
     RDKit          3D

 19 21  0  0  0  0  0  0  0  0999 V2000
   -0.7120    0.8030    1.2900 O   0  0  0  0  0  0  0  0  0  0  0  0
   -0.9100    0.1660    0.0470 C   0  0  2  0  0  0  0  0  0  0  0  0
    0.4720   -0.1990   -0.4570 C   0  0  0  0  0  0  0  0  0  0  0  0
    1.2020   -1.1110    0.4610 C   0  0  0  0  0  0  0  0  0  0  0  0
    2.4600   -1.4220    0.0040 O   0  0  0  0  0  0  0  0  0  0  0  0
    3.5690   -0.6730   -0.1890 C   0  0  0  0  0  0  0  0  0  0  0  0
    3.6340    0.6620    0.1070 C   0  0  0  0  0  0  0  0  0  0  0  0
    4.7890    1.4010   -0.1110 C   0  0  0  0  0  0  0  0  0  0  0  0
    5.9290    0.8330   -0.6340 C   0  0  0  0  0  0  0  0  0  0  0  0
    5.8830   -0.5130   -0.9380 C   0  0  0  0  0  0  0  0  0  0  0  0
    4.7400   -1.2330   -0.7210 C   0  0  0  0  0  0  0  0  0  0  0  0
   -1.5310    1.1050   -0.9540 C   0  0  0  0  0  0  0  0  0  0  0  0
   -2.8800    0.6240   -1.4520 C   0  0  0  0  0  0  0  0  0  0  0  0
   -3.6900    0.2990   -0.2530 C   0  0  0  0  0  0  0  0  0  0  0  0
   -3.1430   -0.5320    0.6220 C   0  0  0  0  0  0  0  0  0  0  0  0
   -4.0580   -0.7490    1.7370 C   0  0  0  0  0  0  0  0  0  0  0  0
   -5.1360   -0.0300    1.4850 C   0  0  0  0  0  0  0  0  0  0  0  0
   -4.9550    0.6450    0.2510 N   0  0  0  0  0  0  0  0  0  0  0  0
   -1.7750   -1.0290    0.2750 C   0  0  0  0  0  0  0  0  0  0  0  0
  2  1  1  1
  2  3  1  0
  2 12  1  0
  2 19  1  0
  3  4  1  0
  4  5  1  0
  5  6  1  0
  6  7  2  0
  6 11  1  0
  7  8  1  0
  8  9  2  0
  9 10  1  0
 10 11  2  0
 12 13  1  0
 13 14  1  0
 14 15  2  0
 14 18  1  0
 15 16  1  0
 15 19  1  0
 16 17  2  0
 17 18  1  0
M  CHG  1  18   1
M  END
