
     RDKit          3D

 19 20  0  0  0  0  0  0  0  0999 V2000
    5.0290   -0.0920   -1.2680 C   0  0  0  0  0  0  0  0  0  0  0  0
    3.9830    0.0580   -0.3130 O   0  0  0  0  0  0  0  0  0  0  0  0
    3.3790    1.2720   -0.0850 C   0  0  0  0  0  0  0  0  0  0  0  0
    3.7930    2.2710   -0.7680 O   0  0  0  0  0  0  0  0  0  0  0  0
    2.3020    1.5370    0.8680 C   0  0  0  0  0  0  0  0  0  0  0  0
    1.8320    0.2940    1.5310 C   0  0  0  0  0  0  0  0  0  0  0  0
    1.2530   -0.7590    0.6500 C   0  0  0  0  0  0  0  0  0  0  0  0
    0.0470   -0.3560   -0.1330 C   0  0  1  0  0  0  0  0  0  0  0  0
   -0.4330   -1.4740   -0.9830 C   0  0  0  0  0  0  0  0  0  0  0  0
   -0.4100   -2.7940   -0.2950 C   0  0  0  0  0  0  0  0  0  0  0  0
   -1.3630   -2.8050    0.8400 C   0  0  0  0  0  0  0  0  0  0  0  0
   -2.3320   -1.6640    0.8980 C   0  0  0  0  0  0  0  0  0  0  0  0
   -1.8370   -0.4540    1.4670 N   0  0  0  0  0  0  0  0  0  0  0  0
   -1.0150    0.3640    0.6520 C   0  0  2  0  0  0  0  0  0  0  0  0
   -1.8260    1.2530   -0.1960 C   0  0  0  0  0  0  0  0  0  0  0  0
   -3.1350    1.2280   -0.3120 C   0  0  0  0  0  0  0  0  0  0  0  0
   -3.6010    2.2850   -1.2670 C   0  0  0  0  0  0  0  0  0  0  0  0
   -2.3250    2.9230   -1.6660 C   0  0  0  0  0  0  0  0  0  0  0  0
   -1.3310    2.3350   -1.0600 C   0  0  0  0  0  0  0  0  0  0  0  0
  1  2  1  0
  2  3  1  0
  3  4  2  0
  3  5  1  0
  5  6  1  0
  6  7  1  0
  8  7  1  1
  8  9  1  0
  8 14  1  0
  9 10  1  0
 10 11  1  0
 11 12  1  0
 12 13  1  0
 13 14  1  0
 14 15  1  6
 15 16  2  0
 15 19  1  0
 16 17  1  0
 17 18  1  0
 18 19  2  0
M  CHG  1  13   1
M  END
