
     RDKit          3D

 21 23  0  0  0  0  0  0  0  0999 V2000
   -5.2120   -1.0570    0.1910 C   0  0  0  0  0  0  0  0  0  0  0  0
   -3.7910   -1.3530    0.4790 C   0  0  0  0  0  0  0  0  0  0  0  0
   -3.3730   -2.5420    0.8640 C   0  0  0  0  0  0  0  0  0  0  0  0
   -1.9570   -2.5470    1.0730 C   0  0  0  0  0  0  0  0  0  0  0  0
   -1.4970   -1.2950    0.8000 C   0  0  0  0  0  0  0  0  0  0  0  0
   -0.0690   -0.9430    0.9130 C   0  0  0  0  0  0  0  0  0  0  0  0
    0.6440   -1.5690   -0.2830 C   0  0  0  0  0  0  0  0  0  0  0  0
    2.1210   -1.3910   -0.2400 C   0  0  0  0  0  0  0  0  0  0  0  0
    2.5010    0.0710   -0.3380 C   0  0  1  0  0  0  0  0  0  0  0  0
    4.0200    0.2350   -0.3160 C   0  0  1  0  0  0  0  0  0  0  0  0
    4.7330   -0.2820    0.9210 C   0  0  0  0  0  0  0  0  0  0  0  0
    4.9040   -0.9310   -0.4220 C   0  0  0  0  0  0  0  0  0  0  0  0
    2.0770    0.6340   -1.5670 O   0  0  0  0  0  0  0  0  0  0  0  0
    1.6240    1.9310   -1.6860 C   0  0  0  0  0  0  0  0  0  0  0  0
    2.0690    2.7910   -2.4880 O   0  0  0  0  0  0  0  0  0  0  0  0
    0.5090    2.3480   -0.7860 C   0  0  0  0  0  0  0  0  0  0  0  0
   -0.5830    1.5110   -1.0060 O   0  0  0  0  0  0  0  0  0  0  0  0
   -1.5310    1.7790   -0.0470 C   0  0  1  0  0  0  0  0  0  0  0  0
   -2.1580    3.1190   -0.5200 C   0  0  0  0  0  0  0  0  0  0  0  0
   -2.6160    0.8090    0.0590 C   0  0  0  0  0  0  0  0  0  0  0  0
   -2.6010   -0.4520    0.4080 C   0  0  0  0  0  0  0  0  0  0  0  0
  1  2  1  0
  2  3  2  0
  2 21  1  0
  3  4  1  0
  4  5  2  0
  5  6  1  0
  5 21  1  0
  6  7  1  0
  7  8  1  0
  9  8  1  6
  9 10  1  0
  9 13  1  0
 10 11  1  1
 10 12  1  0
 11 12  1  0
 13 14  1  0
 14 15  2  0
 14 16  1  0
 16 17  1  0
 17 18  1  0
 18 19  1  6
 18 20  1  0
 20 21  2  0
M  END
