
     RDKit          3D

 11 11  0  0  0  0  0  0  0  0999 V2000
    3.0920   -1.3620   -1.1350 O   0  0  0  0  0  0  0  0  0  0  0  0
    2.2100   -1.3200   -0.0690 C   0  0  0  0  0  0  0  0  0  0  0  0
    1.4360   -0.1830   -0.1900 O   0  0  0  0  0  0  0  0  0  0  0  0
    0.5100   -0.0620    0.8550 C   0  0  1  0  0  0  0  0  0  0  0  0
    0.6830    1.1270    1.5110 O   0  0  0  0  0  0  0  0  0  0  0  0
   -0.4300    1.9120    1.3400 C   0  0  0  0  0  0  0  0  0  0  0  0
   -0.9420    1.4910   -0.0210 C   0  0  0  0  0  0  0  0  0  0  0  0
   -0.8520   -0.0280    0.1860 C   0  0  2  0  0  0  0  0  0  0  0  0
   -1.8000   -0.4710    1.0760 O   0  0  0  0  0  0  0  0  0  0  0  0
   -0.8670   -0.7540   -1.1290 C   0  0  0  0  0  0  0  0  0  0  0  0
   -2.1170   -0.5700   -1.7010 O   0  0  0  0  0  0  0  0  0  0  0  0
  1  2  1  0
  2  3  1  0
  4  3  1  6
  4  5  1  0
  4  8  1  0
  5  6  1  0
  6  7  1  0
  7  8  1  0
  8  9  1  1
  8 10  1  0
 10 11  1  0
M  END
