
     RDKit          3D

 11 11  0  0  0  0  0  0  0  0999 V2000
   -2.8400    0.3480   -0.7070 O   0  0  0  0  0  0  0  0  0  0  0  0
   -1.8770   -0.6620   -0.6320 C   0  0  0  0  0  0  0  0  0  0  0  0
   -0.6880   -0.1010    0.0810 C   0  0  1  0  0  0  0  0  0  0  0  0
   -1.1320    0.2950    1.3640 O   0  0  0  0  0  0  0  0  0  0  0  0
    0.3840   -1.1470    0.3240 C   0  0  1  0  0  0  0  0  0  0  0  0
    0.3590   -2.0150   -0.7670 O   0  0  0  0  0  0  0  0  0  0  0  0
    1.7000   -0.4800    0.5270 C   0  0  0  0  0  0  0  0  0  0  0  0
    1.6420    0.9310    0.9650 C   0  0  0  0  0  0  0  0  0  0  0  0
    0.7360    1.7310    0.3490 O   0  0  0  0  0  0  0  0  0  0  0  0
   -0.0880    1.1010   -0.5650 C   0  0  1  0  0  0  0  0  0  0  0  0
    0.6330    0.8300   -1.7150 O   0  0  0  0  0  0  0  0  0  0  0  0
  1  2  1  0
  2  3  1  0
  3  4  1  1
  3  5  1  0
  3 10  1  0
  5  6  1  6
  5  7  1  0
  7  8  1  0
  8  9  1  0
  9 10  1  0
 10 11  1  6
M  END
