
     RDKit          3D

 11 11  0  0  0  0  0  0  0  0999 V2000
    2.6870   -1.0400    0.4540 O   0  0  0  0  0  0  0  0  0  0  0  0
    2.0260    0.1910    0.3350 C   0  0  1  0  0  0  0  0  0  0  0  0
    2.4690    0.9160   -0.7500 O   0  0  0  0  0  0  0  0  0  0  0  0
    0.5600   -0.0930    0.3220 C   0  0  2  0  0  0  0  0  0  0  0  0
    0.2510   -0.7350    1.5390 O   0  0  0  0  0  0  0  0  0  0  0  0
    0.1440   -1.0040   -0.8140 C   0  0  0  0  0  0  0  0  0  0  0  0
   -1.0790   -1.5400   -0.4250 O   0  0  0  0  0  0  0  0  0  0  0  0
   -2.0720   -0.6050   -0.2960 C   0  0  0  0  0  0  0  0  0  0  0  0
   -1.7330    0.6290    0.4360 C   0  0  0  0  0  0  0  0  0  0  0  0
   -0.3110    1.1160    0.2240 C   0  0  2  0  0  0  0  0  0  0  0  0
   -0.2670    1.6730   -1.0650 O   0  0  0  0  0  0  0  0  0  0  0  0
  2  1  1  6
  2  3  1  0
  2  4  1  0
  4  5  1  1
  4  6  1  0
  4 10  1  0
  6  7  1  0
  7  8  1  0
  8  9  1  0
  9 10  1  0
 10 11  1  6
M  END
