
     RDKit          3D

 11 11  0  0  0  0  0  0  0  0999 V2000
    3.0600   -0.5330    0.2850 C   0  0  0  0  0  0  0  0  0  0  0  0
    1.6870   -0.5660    0.1480 O   0  0  0  0  0  0  0  0  0  0  0  0
    1.2850    0.6210   -0.4560 C   0  0  0  0  0  0  0  0  0  0  0  0
   -0.2240    0.6510   -0.6380 C   0  0  1  0  0  0  0  0  0  0  0  0
   -0.5650    1.8490   -1.2410 O   0  0  0  0  0  0  0  0  0  0  0  0
   -0.6590   -0.3880   -1.4200 O   0  0  0  0  0  0  0  0  0  0  0  0
   -1.7490   -0.9820   -0.7850 C   0  0  0  0  0  0  0  0  0  0  0  0
   -1.2420   -0.9890    0.6620 C   0  0  2  0  0  0  0  0  0  0  0  0
   -2.2320   -1.3100    1.5550 O   0  0  0  0  0  0  0  0  0  0  0  0
   -0.8540    0.4940    0.7330 C   0  0  2  0  0  0  0  0  0  0  0  0
   -2.0440    1.2070    0.7360 O   0  0  0  0  0  0  0  0  0  0  0  0
  1  2  1  0
  2  3  1  0
  3  4  1  0
  4  5  1  6
  4  6  1  0
  4 10  1  0
  6  7  1  0
  7  8  1  0
  8  9  1  1
  8 10  1  0
 10 11  1  6
M  END
