
     RDKit          3D

 12 11  0  0  0  0  0  0  0  0999 V2000
   -1.6150   -1.2710   -0.7410 C   0  0  0  0  0  0  0  0  0  0  0  0
   -1.0940   -0.1290    0.1140 C   0  0  1  0  0  0  0  0  0  0  0  0
   -1.9720    1.0850    0.0490 C   0  0  0  0  0  0  0  0  0  0  0  0
   -1.0810   -0.5770    1.4350 O   0  0  0  0  0  0  0  0  0  0  0  0
   -2.3160   -0.9060    1.7840 O   0  0  0  0  0  0  0  0  0  0  0  0
    0.3370    0.1590   -0.3090 C   0  0  1  0  0  0  0  0  0  0  0  0
    0.3260    0.6120   -1.6440 O   0  0  0  0  0  0  0  0  0  0  0  0
    0.9620    1.2410    0.5090 C   0  0  0  0  0  0  0  0  0  0  0  0
    0.1700    2.3870    0.3880 O   0  0  0  0  0  0  0  0  0  0  0  0
    1.0700   -0.9940   -0.2090 O   0  0  0  0  0  0  0  0  0  0  0  0
    2.3790   -0.9000   -0.5810 C   0  0  0  0  0  0  0  0  0  0  0  0
    2.9680   -2.1760   -0.4190 O   0  0  0  0  0  0  0  0  0  0  0  0
  2  1  1  6
  2  3  1  0
  2  4  1  0
  2  6  1  0
  4  5  1  0
  6  7  1  6
  6  8  1  0
  6 10  1  0
  8  9  1  0
 10 11  1  0
 11 12  1  0
M  END
