
     RDKit          3D

 12 12  0  0  0  0  0  0  0  0999 V2000
   -3.4720    0.3610   -0.2340 O   0  0  0  0  0  0  0  0  0  0  0  0
   -2.3150   -0.4380   -0.2100 C   0  0  0  0  0  0  0  0  0  0  0  0
   -1.2250    0.4080    0.3920 C   0  0  1  0  0  0  0  0  0  0  0  0
   -1.6780    0.7500    1.6880 O   0  0  0  0  0  0  0  0  0  0  0  0
    0.0650   -0.3490    0.5950 C   0  0  2  0  0  0  0  0  0  0  0  0
   -0.1690   -1.4930    1.3610 O   0  0  0  0  0  0  0  0  0  0  0  0
    0.9210    0.4880    1.3090 O   0  0  0  0  0  0  0  0  0  0  0  0
    1.5670    1.1990    0.2980 C   0  0  0  0  0  0  0  0  0  0  0  0
    2.0680    0.0230   -0.5560 C   0  0  1  0  0  0  0  0  0  0  0  0
    2.9780   -0.6660    0.2270 O   0  0  0  0  0  0  0  0  0  0  0  0
    0.7480   -0.7520   -0.6670 C   0  0  2  0  0  0  0  0  0  0  0  0
    0.0870   -0.3420   -1.8230 O   0  0  0  0  0  0  0  0  0  0  0  0
  1  2  1  0
  2  3  1  0
  3  4  1  1
  3  5  1  0
  5  6  1  1
  5  7  1  0
  5 11  1  0
  7  8  1  0
  8  9  1  0
  9 10  1  1
  9 11  1  0
 11 12  1  6
M  END
