
     RDKit          3D

 11 11  0  0  0  0  0  0  0  0999 V2000
    3.4870    0.7920   -0.5970 O   0  0  0  0  0  0  0  0  0  0  0  0
    2.7560   -0.3500   -0.2260 C   0  0  0  0  0  0  0  0  0  0  0  0
    1.4560    0.1660    0.4030 C   0  0  1  0  0  0  0  0  0  0  0  0
    0.8020    0.9140   -0.5560 O   0  0  0  0  0  0  0  0  0  0  0  0
   -0.5250    1.0820   -0.1040 C   0  0  0  0  0  0  0  0  0  0  0  0
   -1.2120   -0.2420   -0.3770 C   0  0  2  0  0  0  0  0  0  0  0  0
   -1.3950   -0.3190   -1.7580 O   0  0  0  0  0  0  0  0  0  0  0  0
   -2.5450   -0.2580    0.3070 C   0  0  0  0  0  0  0  0  0  0  0  0
   -3.2880    0.8240   -0.1220 O   0  0  0  0  0  0  0  0  0  0  0  0
   -0.2930   -1.3290    0.1300 C   0  0  0  0  0  0  0  0  0  0  0  0
    0.7130   -0.8470    0.9470 O   0  0  0  0  0  0  0  0  0  0  0  0
  1  2  1  0
  3  2  1  6
  3  4  1  0
  3 11  1  0
  4  5  1  0
  5  6  1  0
  6  7  1  6
  6  8  1  0
  6 10  1  0
  8  9  1  0
 10 11  1  0
M  END
