
     RDKit          3D

 19 19  0  0  0  0  0  0  0  0999 V2000
   -2.0600   -2.1370    0.1790 N   0  0  0  0  0  0  0  0  0  0  0  0
   -2.5010   -1.4240   -0.9980 C   0  0  0  0  0  0  0  0  0  0  0  0
   -2.9300   -0.0130   -0.6810 C   0  0  2  0  0  0  0  0  0  0  0  0
   -3.3500    0.6620   -1.8120 O   0  0  0  0  0  0  0  0  0  0  0  0
   -1.8240    0.7880   -0.0350 C   0  0  2  0  0  0  0  0  0  0  0  0
   -1.3690    0.1500    1.1030 O   0  0  0  0  0  0  0  0  0  0  0  0
   -2.3650    2.1370    0.3930 C   0  0  0  0  0  0  0  0  0  0  0  0
   -3.4130    1.9810    1.3060 O   0  0  0  0  0  0  0  0  0  0  0  0
   -0.7090    1.0510   -1.0240 C   0  0  0  0  0  0  0  0  0  0  0  0
    0.3090    1.8020   -0.6050 O   0  0  0  0  0  0  0  0  0  0  0  0
    1.1080    1.5100    0.4000 C   0  0  0  0  0  0  0  0  0  0  0  0
    2.0170    0.3650    0.4420 C   0  0  2  0  0  0  0  0  0  0  0  0
    2.7330    0.4960    1.6910 O   0  0  0  0  0  0  0  0  0  0  0  0
    3.1410    0.4950   -0.6000 C   0  0  0  0  0  0  0  0  0  0  0  0
    4.2540   -0.3880   -0.1070 C   0  0  0  0  0  0  0  0  0  0  0  0
    3.8400   -1.6860    0.0170 O   0  0  0  0  0  0  0  0  0  0  0  0
    2.5510   -1.9490   -0.3270 C   0  0  0  0  0  0  0  0  0  0  0  0
    1.5480   -1.0220    0.3870 C   0  0  1  0  0  0  0  0  0  0  0  0
    1.4530   -1.5600    1.7050 O   0  0  0  0  0  0  0  0  0  0  0  0
  1  2  1  0
  2  3  1  0
  3  4  1  6
  3  5  1  0
  5  6  1  1
  5  7  1  0
  5  9  1  0
  7  8  1  0
  9 10  1  0
 10 11  1  0
 11 12  1  0
 12 13  1  1
 12 14  1  0
 12 18  1  0
 14 15  1  0
 15 16  1  0
 16 17  1  0
 17 18  1  0
 18 19  1  1
M  END
