
     RDKit          3D

 19 19  0  0  0  0  0  0  0  0999 V2000
   -0.9130    1.6670    0.6540 O   0  0  0  0  0  0  0  0  0  0  0  0
   -1.2440    0.4530    0.6390 C   0  0  0  0  0  0  0  0  0  0  0  0
   -0.3040   -0.4440    0.2110 O   0  0  0  0  0  0  0  0  0  0  0  0
    0.9980   -0.1090   -0.2120 C   0  0  1  0  0  0  0  0  0  0  0  0
    1.0010    0.8250   -1.3990 C   0  0  0  0  0  0  0  0  0  0  0  0
    0.3680    0.2870   -2.4970 O   0  0  0  0  0  0  0  0  0  0  0  0
    1.8230    0.5130    0.8670 C   0  0  0  0  0  0  0  0  0  0  0  0
    3.0970   -0.2110    1.1760 C   0  0  1  0  0  0  0  0  0  0  0  0
    2.8390   -1.3970    1.8260 O   0  0  0  0  0  0  0  0  0  0  0  0
    3.8870   -0.5340   -0.0880 C   0  0  0  0  0  0  0  0  0  0  0  0
    3.0530   -1.4520   -0.8500 N   0  0  0  0  0  0  0  0  0  0  0  0
    1.6470   -1.3720   -0.6540 C   0  0  0  0  0  0  0  0  0  0  0  0
    0.9640   -2.4310   -0.8720 O   0  0  0  0  0  0  0  0  0  0  0  0
   -2.6240    0.0840    1.0860 C   0  0  2  0  0  0  0  0  0  0  0  0
   -2.7060   -1.3020    0.9650 O   0  0  0  0  0  0  0  0  0  0  0  0
   -3.6600    0.7170    0.2570 C   0  0  0  0  0  0  0  0  0  0  0  0
   -3.7290    2.0870    0.1800 O   0  0  0  0  0  0  0  0  0  0  0  0
   -4.5130   -0.0200   -0.4040 C   0  0  0  0  0  0  0  0  0  0  0  0
   -5.5160    0.5180   -1.2060 O   0  0  0  0  0  0  0  0  0  0  0  0
  1  2  2  0
  2  3  1  0
  2 14  1  0
  3  4  1  0
  4  5  1  6
  4  7  1  0
  4 12  1  0
  5  6  1  0
  7  8  1  0
  8  9  1  6
  8 10  1  0
 10 11  1  0
 11 12  1  0
 12 13  2  0
 14 15  1  6
 14 16  1  0
 16 17  1  0
 16 18  2  3
 18 19  1  0
M  END
