
     RDKit          3D

 19 19  0  0  0  0  0  0  0  0999 V2000
   -2.0790   -1.1020    1.0770 C   0  0  0  0  0  0  0  0  0  0  0  0
   -1.5670   -0.3370   -0.1070 C   0  0  2  0  0  0  0  0  0  0  0  0
   -1.9990    1.0940   -0.1200 C   0  0  1  0  0  0  0  0  0  0  0  0
   -3.4330    1.1490   -0.3070 O   0  0  0  0  0  0  0  0  0  0  0  0
   -1.9020    1.7850    1.2290 C   0  0  0  0  0  0  0  0  0  0  0  0
   -2.4000    3.0860    1.0360 O   0  0  0  0  0  0  0  0  0  0  0  0
   -2.1610   -0.9180   -1.2460 O   0  0  0  0  0  0  0  0  0  0  0  0
   -1.7950   -2.1910   -1.5050 C   0  0  0  0  0  0  0  0  0  0  0  0
   -0.5490   -2.6260   -1.2610 O   0  0  0  0  0  0  0  0  0  0  0  0
    0.0520   -2.0780   -0.1300 C   0  0  0  0  0  0  0  0  0  0  0  0
   -0.0940   -0.5880   -0.2960 C   0  0  1  0  0  0  0  0  0  0  0  0
    0.1280   -0.3220   -1.8290 C   0  0  0  0  0  0  0  0  0  0  0  0
    0.8730    0.2740    0.3660 C   0  0  2  0  0  0  0  0  0  0  0  0
    0.7100    1.5810   -0.1120 O   0  0  0  0  0  0  0  0  0  0  0  0
    2.2880   -0.1010   -0.0120 C   0  0  0  0  0  0  0  0  0  0  0  0
    3.2280    0.8480    0.6110 N   0  0  0  0  0  0  0  0  0  0  0  0
    4.6210    0.7620    0.4450 C   0  0  0  0  0  0  0  0  0  0  0  0
    5.0530   -0.1910   -0.2830 O   0  0  0  0  0  0  0  0  0  0  0  0
    5.5160    1.6590    1.0330 O   0  0  0  0  0  0  0  0  0  0  0  0
  2  1  1  1
  2  3  1  0
  2  7  1  0
  2 11  1  0
  3  4  1  1
  3  5  1  0
  5  6  1  0
  7  8  1  0
  8  9  1  0
  9 10  1  0
 10 11  1  0
 11 12  1  6
 11 13  1  0
 13 14  1  6
 13 15  1  0
 15 16  1  0
 16 17  1  0
 17 18  2  0
 17 19  1  0
M  END
