
     RDKit          3D

 20 20  0  0  0  0  0  0  0  0999 V2000
   -3.3530   -3.1760   -1.3000 C   0  0  0  0  0  0  0  0  0  0  0  0
   -2.5440   -2.3710   -0.3420 C   0  0  0  0  0  0  0  0  0  0  0  0
   -2.3350   -2.8060    0.8110 O   0  0  0  0  0  0  0  0  0  0  0  0
   -1.9850   -1.1070   -0.6720 N   0  0  0  0  0  0  0  0  0  0  0  0
   -1.1980   -0.3400    0.2860 C   0  0  2  0  0  0  0  0  0  0  0  0
   -1.9770    0.9030    0.6130 C   0  0  1  0  0  0  0  0  0  0  0  0
   -1.8740    1.2490    1.9650 O   0  0  0  0  0  0  0  0  0  0  0  0
   -1.6400    2.0700   -0.2030 C   0  0  0  0  0  0  0  0  0  0  0  0
   -0.3830    2.2590   -0.6270 C   0  0  0  0  0  0  0  0  0  0  0  0
   -0.0530    3.4100   -1.4310 C   0  0  0  0  0  0  0  0  0  0  0  0
   -0.9340    4.2310   -1.7340 O   0  0  0  0  0  0  0  0  0  0  0  0
    1.2360    3.6000   -1.8640 O   0  0  0  0  0  0  0  0  0  0  0  0
    0.5220    1.2870   -0.2360 O   0  0  0  0  0  0  0  0  0  0  0  0
    0.1870   -0.0790   -0.2000 C   0  0  1  0  0  0  0  0  0  0  0  0
    1.1720   -0.8640    0.6430 C   0  0  2  0  0  0  0  0  0  0  0  0
    1.2070   -0.4060    1.9520 O   0  0  0  0  0  0  0  0  0  0  0  0
    2.5530   -0.9180    0.0940 C   0  0  2  0  0  0  0  0  0  0  0  0
    3.2860   -1.8120    0.9110 O   0  0  0  0  0  0  0  0  0  0  0  0
    3.2820    0.4220    0.2390 C   0  0  0  0  0  0  0  0  0  0  0  0
    4.6150    0.2850   -0.1940 O   0  0  0  0  0  0  0  0  0  0  0  0
  1  2  1  0
  2  3  2  0
  2  4  1  0
  5  4  1  6
  5  6  1  0
  5 14  1  0
  6  7  1  1
  6  8  1  0
  8  9  2  0
  9 10  1  0
  9 13  1  0
 10 11  2  0
 10 12  1  0
 14 13  1  1
 14 15  1  0
 15 16  1  1
 15 17  1  0
 17 18  1  1
 17 19  1  0
 19 20  1  0
M  END
