
     RDKit          3D

 23 24  0  0  0  0  0  0  0  0999 V2000
   -8.3680    0.2460   -0.4530 C   0  0  0  0  0  0  0  0  0  0  0  0
   -7.4140   -0.3730    0.2410 C   0  0  0  0  0  0  0  0  0  0  0  0
   -6.3310   -1.1400   -0.4450 C   0  0  0  0  0  0  0  0  0  0  0  0
   -5.0830   -0.5480   -0.0820 O   0  0  0  0  0  0  0  0  0  0  0  0
   -3.8850   -1.0470   -0.5670 C   0  0  0  0  0  0  0  0  0  0  0  0
   -3.8540   -2.0310   -1.3390 O   0  0  0  0  0  0  0  0  0  0  0  0
   -2.6420   -0.4140   -0.1730 C   0  0  0  0  0  0  0  0  0  0  0  0
   -1.3800   -0.8000   -0.5750 C   0  0  0  0  0  0  0  0  0  0  0  0
   -0.5010    0.0800    0.0420 C   0  0  0  0  0  0  0  0  0  0  0  0
    0.9690    0.0580   -0.0920 C   0  0  0  0  0  0  0  0  0  0  0  0
    1.5330   -0.7850   -0.7960 O   0  0  0  0  0  0  0  0  0  0  0  0
    1.7010    1.0010    0.5860 O   0  0  0  0  0  0  0  0  0  0  0  0
    3.1080    1.0990    0.5560 C   0  0  0  0  0  0  0  0  0  0  0  0
    3.6940   -0.1600    1.1340 C   0  0  0  0  0  0  0  0  0  0  0  0
    5.0790   -0.1990    1.1740 O   0  0  0  0  0  0  0  0  0  0  0  0
    5.9760   -0.1450    0.1000 C   0  0  0  0  0  0  0  0  0  0  0  0
    6.8460   -1.0830   -0.0880 C   0  0  0  0  0  0  0  0  0  0  0  0
    7.7650   -0.9660   -1.2380 C   0  0  0  0  0  0  0  0  0  0  0  0
    7.7260    0.8770   -1.4140 S   0  0  0  0  0  0  0  0  0  0  0  0
    5.9580    0.9800   -0.8510 C   0  0  0  0  0  0  0  0  0  0  0  0
   -1.2160    0.9370    0.7690 N   0  0  0  0  0  0  0  0  0  0  0  0
   -2.5150    0.6870    0.6770 C   0  0  0  0  0  0  0  0  0  0  0  0
   -3.6280    1.4110    1.3320 C   0  0  0  0  0  0  0  0  0  0  0  0
  1  2  2  0
  2  3  1  0
  3  4  1  0
  4  5  1  0
  5  6  2  0
  5  7  1  0
  7  8  1  0
  7 22  2  0
  8  9  2  0
  9 10  1  0
  9 21  1  0
 10 11  2  0
 10 12  1  0
 12 13  1  0
 13 14  1  0
 14 15  1  0
 15 16  1  0
 16 17  2  0
 16 20  1  0
 17 18  1  0
 18 19  1  0
 19 20  1  0
 21 22  1  0
 22 23  1  0
M  END
