
     RDKit          3D

 20 20  0  0  0  0  0  0  0  0999 V2000
   -1.3500   -2.3370   -0.3090 C   0  0  0  0  0  0  0  0  0  0  0  0
   -0.8940   -0.9040   -0.1560 C   0  0  2  0  0  0  0  0  0  0  0  0
   -0.7110   -0.3660   -1.4160 O   0  0  0  0  0  0  0  0  0  0  0  0
    0.2250   -0.7280    0.7890 C   0  0  0  0  0  0  0  0  0  0  0  0
    1.4970   -1.4700    0.4940 C   0  0  2  0  0  0  0  0  0  0  0  0
    2.4670   -1.2170    1.4630 O   0  0  0  0  0  0  0  0  0  0  0  0
    2.0300   -1.0630   -0.8400 C   0  0  0  0  0  0  0  0  0  0  0  0
    2.2710    0.2390   -0.9780 O   0  0  0  0  0  0  0  0  0  0  0  0
    3.1290    0.9820   -0.3000 C   0  0  2  0  0  0  0  0  0  0  0  0
    3.0160    1.1300    1.0610 O   0  0  0  0  0  0  0  0  0  0  0  0
    3.0270    2.3160   -0.8180 O   0  0  0  0  0  0  0  0  0  0  0  0
    4.5170    0.5270   -0.6040 N   0  0  0  0  0  0  0  0  0  0  0  0
    5.3020    1.3640    0.1480 O   0  0  0  0  0  0  0  0  0  0  0  0
   -2.0800   -0.0890    0.4310 C   0  0  1  0  0  0  0  0  0  0  0  0
   -2.3820   -0.7200    1.7720 C   0  0  0  0  0  0  0  0  0  0  0  0
   -1.6040    1.3160    0.5370 C   0  0  0  0  0  0  0  0  0  0  0  0
   -2.5780    2.2930    0.3900 O   0  0  0  0  0  0  0  0  0  0  0  0
   -3.4720    2.0150   -0.6360 C   0  0  0  0  0  0  0  0  0  0  0  0
   -4.1330    0.6900   -0.2270 C   0  0  0  0  0  0  0  0  0  0  0  0
   -3.1700   -0.2730   -0.3780 O   0  0  0  0  0  0  0  0  0  0  0  0
  2  1  1  6
  2  3  1  0
  2  4  1  0
  2 14  1  0
  4  5  1  0
  5  6  1  1
  5  7  1  0
  7  8  1  0
  8  9  1  0
  9 10  1  1
  9 11  1  0
  9 12  1  0
 12 13  1  0
 14 15  1  1
 14 16  1  0
 14 20  1  0
 16 17  1  0
 17 18  1  0
 18 19  1  0
 19 20  1  0
M  END
