
     RDKit          3D

 19 19  0  0  0  0  0  0  0  0999 V2000
    6.2330   -0.3100   -0.0320 N   0  0  0  0  0  0  0  0  0  0  0  0
    5.0570   -0.4650    0.7960 C   0  0  0  0  0  0  0  0  0  0  0  0
    3.8580    0.0790    0.0220 C   0  0  2  0  0  0  0  0  0  0  0  0
    4.1530    1.4290   -0.2260 O   0  0  0  0  0  0  0  0  0  0  0  0
    2.5920   -0.0670    0.8260 C   0  0  0  0  0  0  0  0  0  0  0  0
    1.5320    0.5060    0.1090 O   0  0  0  0  0  0  0  0  0  0  0  0
    1.0970    0.1140   -1.1410 C   0  0  0  0  0  0  0  0  0  0  0  0
    1.6880   -0.8370   -1.7030 O   0  0  0  0  0  0  0  0  0  0  0  0
   -0.0490    0.8030   -1.8090 C   0  0  0  0  0  0  0  0  0  0  0  0
   -1.2880   -0.0590   -1.7600 C   0  0  2  0  0  0  0  0  0  0  0  0
   -2.3580    0.5670   -2.3740 O   0  0  0  0  0  0  0  0  0  0  0  0
   -1.6940   -0.4030   -0.3520 C   0  0  1  0  0  0  0  0  0  0  0  0
   -0.6050   -1.0340    0.2660 O   0  0  0  0  0  0  0  0  0  0  0  0
   -2.0980    0.7850    0.4570 C   0  0  0  0  0  0  0  0  0  0  0  0
   -2.8180    0.0890    1.5940 C   0  0  0  0  0  0  0  0  0  0  0  0
   -3.5330   -0.9910    0.8000 C   0  0  1  0  0  0  0  0  0  0  0  0
   -4.8770   -0.3780    0.3790 C   0  0  0  0  0  0  0  0  0  0  0  0
   -5.6710   -0.1060    1.4690 O   0  0  0  0  0  0  0  0  0  0  0  0
   -2.7650   -1.2530   -0.3030 O   0  0  0  0  0  0  0  0  0  0  0  0
  1  2  1  0
  2  3  1  0
  3  4  1  1
  3  5  1  0
  5  6  1  0
  6  7  1  0
  7  8  2  0
  7  9  1  0
  9 10  1  0
 10 11  1  1
 10 12  1  0
 12 13  1  1
 12 14  1  0
 12 19  1  0
 14 15  1  0
 15 16  1  0
 16 17  1  6
 16 19  1  0
 17 18  1  0
M  END
