
     RDKit          3D

 40 41  0  0  0  0  0  0  0  0999 V2000
   -5.7590   -3.9760    0.1920 C   0  0  0  0  0  0  0  0  0  0  0  0
   -4.4540   -4.4880    0.7940 C   0  0  0  0  0  0  0  0  0  0  0  0
   -3.9440   -3.4650    1.6470 O   0  0  0  0  0  0  0  0  0  0  0  0
   -3.6610   -2.1670    0.9350 C   0  0  0  0  0  0  0  0  0  0  0  0
   -2.7150   -2.2550    0.1060 C   0  0  0  0  0  0  0  0  0  0  0  0
   -2.0150   -1.3600   -0.8600 C   0  0  2  0  0  0  0  0  0  0  0  0
   -2.1020   -2.1820   -2.1770 C   0  0  0  0  0  0  0  0  0  0  0  0
   -1.5350   -1.4870   -3.2740 N   0  0  0  0  0  0  0  0  0  0  0  0
   -0.5980   -1.2650   -0.3620 C   0  0  0  0  0  0  0  0  0  0  0  0
    0.3550   -0.4090   -1.1020 C   0  0  0  0  0  0  0  0  0  0  0  0
    1.6810   -0.4550   -0.3580 C   0  0  1  0  0  0  0  0  0  0  0  0
    2.2770   -1.7890   -0.2660 C   0  0  0  0  0  0  0  0  0  0  0  0
    3.4550   -2.1220    0.1440 N   0  0  0  0  0  0  0  0  0  0  0  0
    4.4990   -1.2830    0.6170 C   0  0  0  0  0  0  0  0  0  0  0  0
    5.2900   -1.6550    1.5970 C   0  0  0  0  0  0  0  0  0  0  0  0
    5.0450   -2.9870    2.1840 C   0  0  0  0  0  0  0  0  0  0  0  0
    5.7970   -3.4370    3.1750 C   0  0  0  0  0  0  0  0  0  0  0  0
    6.8430   -2.7010    3.7140 O   0  0  0  0  0  0  0  0  0  0  0  0
    4.8200    0.0610    0.0650 C   0  0  0  0  0  0  0  0  0  0  0  0
    6.0250    0.4140    0.0350 N   0  0  0  0  0  0  0  0  0  0  0  0
    3.8960    1.0090   -0.4730 N   0  0  0  0  0  0  0  0  0  0  0  0
    4.3160    2.3700   -0.6340 C   0  0  2  0  0  0  0  0  0  0  0  0
    5.3380    2.5940   -1.6960 C   0  0  0  0  0  0  0  0  0  0  0  0
    5.7940    4.0040   -1.8750 C   0  0  0  0  0  0  0  0  0  0  0  0
    6.4000    4.5570   -0.7470 O   0  0  0  0  0  0  0  0  0  0  0  0
    4.3050    3.2350    0.5550 C   0  0  0  0  0  0  0  0  0  0  0  0
    5.0800    2.9590    1.7600 C   0  0  0  0  0  0  0  0  0  0  0  0
    4.7050    1.7710    2.3830 O   0  0  0  0  0  0  0  0  0  0  0  0
    2.5580    0.6150   -0.8890 C   0  0  0  0  0  0  0  0  0  0  0  0
    2.1270    1.3340   -1.8560 O   0  0  0  0  0  0  0  0  0  0  0  0
   -4.5340   -1.1640    1.3990 C   0  0  0  0  0  0  0  0  0  0  0  0
   -5.4590   -1.7250    2.2530 O   0  0  0  0  0  0  0  0  0  0  0  0
   -4.7430    0.1960    1.2630 N   0  0  0  0  0  0  0  0  0  0  0  0
   -6.0040    0.7760    1.8680 C   0  0  0  0  0  0  0  0  0  0  0  0
   -6.7690    1.2930    0.6830 C   0  0  0  0  0  0  0  0  0  0  0  0
   -5.9700    2.2860   -0.0890 C   0  0  0  0  0  0  0  0  0  0  0  0
   -4.6430    1.7000   -0.5510 C   0  0  2  0  0  0  0  0  0  0  0  0
   -3.7890    2.7410   -1.1900 C   0  0  0  0  0  0  0  0  0  0  0  0
   -4.9340    0.7060   -1.4490 O   0  0  0  0  0  0  0  0  0  0  0  0
   -3.9110    1.1900    0.7010 C   0  0  0  0  0  0  0  0  0  0  0  0
  1  2  1  0
  2  3  1  0
  3  4  1  0
  4  5  2  3
  4 31  1  0
  5  6  1  0
  6  7  1  6
  6  9  1  0
  7  8  1  0
  9 10  1  0
 11 10  1  6
 11 12  1  0
 11 29  1  0
 12 13  2  0
 13 14  1  0
 14 15  2  3
 14 19  1  0
 15 16  1  0
 16 17  2  3
 17 18  1  0
 19 20  2  0
 19 21  1  0
 21 22  1  0
 21 29  1  0
 22 23  1  1
 22 26  1  0
 23 24  1  0
 24 25  1  0
 26 27  1  0
 27 28  1  0
 29 30  2  0
 31 32  2  0
 31 33  1  0
 33 34  1  0
 33 40  1  0
 34 35  1  0
 35 36  1  0
 36 37  1  0
 37 38  1  6
 37 39  1  0
 37 40  1  0
M  CHG  1   8   1
M  END
