
     RDKit          3D

 46 49  0  0  0  0  0  0  0  0999 V2000
   -8.3610   -0.6280   -1.7340 C   0  0  0  0  0  0  0  0  0  0  0  0
   -8.5560    0.2980   -0.5290 C   0  0  2  0  0  0  0  0  0  0  0  0
   -9.9780    0.7070   -0.3450 C   0  0  0  0  0  0  0  0  0  0  0  0
   -7.7280    1.5430   -0.8130 C   0  0  0  0  0  0  0  0  0  0  0  0
   -7.9640   -0.4320    0.6580 C   0  0  0  0  0  0  0  0  0  0  0  0
   -8.0640    0.3140    1.9440 C   0  0  2  0  0  0  0  0  0  0  0  0
   -7.4250    1.5520    1.9440 O   0  0  0  0  0  0  0  0  0  0  0  0
   -7.3550   -0.5250    3.0190 C   0  0  0  0  0  0  0  0  0  0  0  0
   -5.9930   -0.6380    2.7230 O   0  0  0  0  0  0  0  0  0  0  0  0
   -5.0570   -1.3120    3.4710 C   0  0  0  0  0  0  0  0  0  0  0  0
   -5.4610   -1.9600    4.6190 C   0  0  0  0  0  0  0  0  0  0  0  0
   -4.5470   -2.6600    5.4120 C   0  0  0  0  0  0  0  0  0  0  0  0
   -3.2280   -2.7030    5.0420 C   0  0  0  0  0  0  0  0  0  0  0  0
   -2.2120   -3.4130    5.8120 C   0  0  0  0  0  0  0  0  0  0  0  0
   -1.4210   -3.9830    6.4200 N   0  0  0  0  0  0  0  0  0  0  0  0
   -2.8480   -2.0360    3.8720 C   0  0  0  0  0  0  0  0  0  0  0  0
   -3.7130   -1.3400    3.0700 C   0  0  0  0  0  0  0  0  0  0  0  0
   -3.3780   -0.6530    1.8850 N   0  0  0  0  0  0  0  0  0  0  0  0
   -2.0970   -0.4980    1.3270 C   0  0  0  0  0  0  0  0  0  0  0  0
   -1.1190   -0.9940    1.8970 O   0  0  0  0  0  0  0  0  0  0  0  0
   -1.8410    0.2560    0.0390 C   0  0  0  0  0  0  0  0  0  0  0  0
   -0.3720    0.1870   -0.1520 C   0  0  0  0  0  0  0  0  0  0  0  0
    0.4240    1.2230    0.2510 C   0  0  0  0  0  0  0  0  0  0  0  0
    1.8240    1.1190    0.1400 C   0  0  0  0  0  0  0  0  0  0  0  0
    2.4020   -0.0160   -0.3690 C   0  0  0  0  0  0  0  0  0  0  0  0
    3.8950   -0.2070   -0.4470 C   0  0  1  0  0  0  0  0  0  0  0  0
    4.1720   -1.5720    0.0360 N   0  0  0  0  0  0  0  0  0  0  0  0
    4.2950   -0.0740   -1.8630 C   0  0  0  0  0  0  0  0  0  0  0  0
    4.4850    1.0860   -2.3200 O   0  0  0  0  0  0  0  0  0  0  0  0
    4.4650   -1.1700   -2.6860 O   0  0  0  0  0  0  0  0  0  0  0  0
    4.8740   -1.0290   -4.0200 C   0  0  0  0  0  0  0  0  0  0  0  0
    6.2750   -0.5570   -4.0720 C   0  0  0  0  0  0  0  0  0  0  0  0
    6.8020   -0.2730   -5.2260 O   0  0  0  0  0  0  0  0  0  0  0  0
    7.0400   -0.4220   -2.9110 N   0  0  0  0  0  0  0  0  0  0  0  0
    8.3440   -0.0120   -2.8850 N   0  0  0  0  0  0  0  0  0  0  0  0
    8.8740    0.9060   -2.1540 C   0  0  0  0  0  0  0  0  0  0  0  0
    8.0350    1.6900   -1.1730 C   0  0  0  0  0  0  0  0  0  0  0  0
    8.9180    3.3040   -1.4050 S   0  0  0  0  0  0  0  0  0  0  0  0
   10.5060    2.5830   -1.7790 C   0  0  0  0  0  0  0  0  0  0  0  0
   11.7650    3.1050   -1.7260 C   0  0  0  0  0  0  0  0  0  0  0  0
   12.8810    2.2980   -2.0540 C   0  0  0  0  0  0  0  0  0  0  0  0
   12.6310    1.0040   -2.4180 C   0  0  0  0  0  0  0  0  0  0  0  0
   11.3640    0.5010   -2.4650 C   0  0  0  0  0  0  0  0  0  0  0  0
   10.2540    1.2980   -2.1400 C   0  0  0  0  0  0  0  0  0  0  0  0
    1.5820   -1.0500   -0.7740 C   0  0  0  0  0  0  0  0  0  0  0  0
    0.2060   -0.9470   -0.6660 C   0  0  0  0  0  0  0  0  0  0  0  0
  2  1  1  6
  2  3  1  0
  2  4  1  0
  2  5  1  0
  5  6  1  0
  6  7  1  6
  6  8  1  0
  8  9  1  0
  9 10  1  0
 10 11  2  0
 10 17  1  0
 11 12  1  0
 12 13  2  0
 13 14  1  0
 13 16  1  0
 14 15  3  0
 16 17  2  0
 17 18  1  0
 18 19  1  0
 19 20  2  0
 19 21  1  0
 21 22  1  0
 22 23  2  0
 22 46  1  0
 23 24  1  0
 24 25  2  0
 25 26  1  0
 25 45  1  0
 26 27  1  6
 26 28  1  0
 28 29  2  0
 28 30  1  0
 30 31  1  0
 31 32  1  0
 32 33  2  0
 32 34  1  0
 34 35  1  0
 35 36  2  3
 36 37  1  0
 36 44  1  0
 37 38  1  0
 38 39  1  0
 39 40  2  0
 39 44  1  0
 40 41  1  0
 41 42  2  0
 42 43  1  0
 43 44  2  0
 45 46  2  0
M  END
