
     RDKit          3D

 41 42  0  0  0  0  0  0  0  0999 V2000
    4.5670   -2.6560   -0.7000 C   0  0  0  0  0  0  0  0  0  0  0  0
    4.6890   -1.2440   -1.1640 C   0  0  0  0  0  0  0  0  0  0  0  0
    3.5320   -0.3640   -0.6580 C   0  0  2  0  0  0  0  0  0  0  0  0
    3.5070   -0.3520    0.8350 C   0  0  0  0  0  0  0  0  0  0  0  0
    4.8370    0.2060    1.2930 C   0  0  0  0  0  0  0  0  0  0  0  0
    5.6750   -0.4670    2.0280 C   0  0  0  0  0  0  0  0  0  0  0  0
    5.4300   -1.8080    2.4890 C   0  0  0  0  0  0  0  0  0  0  0  0
    6.3550   -2.4320    3.2450 C   0  0  0  0  0  0  0  0  0  0  0  0
    6.1310   -3.7080    3.6890 O   0  0  0  0  0  0  0  0  0  0  0  0
    5.1040    1.6250    0.9060 C   0  0  0  0  0  0  0  0  0  0  0  0
    6.2970    2.2520    1.5140 C   0  0  0  0  0  0  0  0  0  0  0  0
    6.2460    2.4780    2.9940 C   0  0  0  0  0  0  0  0  0  0  0  0
    7.4550    3.0530    3.4530 O   0  0  0  0  0  0  0  0  0  0  0  0
    2.3200   -0.8830   -1.2740 N   0  0  0  0  0  0  0  0  0  0  0  0
    1.6160   -0.0760   -2.2240 C   0  0  0  0  0  0  0  0  0  0  0  0
    2.1190    1.0510   -2.4480 O   0  0  0  0  0  0  0  0  0  0  0  0
    0.3890   -0.6140   -2.8530 C   0  0  0  0  0  0  0  0  0  0  0  0
   -0.4260    0.3310   -3.6220 C   0  0  0  0  0  0  0  0  0  0  0  0
   -1.1190    1.4490   -2.9870 C   0  0  2  0  0  0  0  0  0  0  0  0
   -0.3850    2.4640   -2.2120 C   0  0  0  0  0  0  0  0  0  0  0  0
   -1.5470    3.4060   -1.8220 C   0  0  0  0  0  0  0  0  0  0  0  0
   -2.7320    2.5330   -1.6490 C   0  0  0  0  0  0  0  0  0  0  0  0
   -2.3360    1.1640   -2.1730 C   0  0  1  0  0  0  0  0  0  0  0  0
   -3.3470    0.6680   -3.0910 N   0  0  0  0  0  0  0  0  0  0  0  0
   -3.6800   -0.6850   -3.1180 C   0  0  0  0  0  0  0  0  0  0  0  0
   -4.0020   -1.3120   -4.1630 O   0  0  0  0  0  0  0  0  0  0  0  0
   -3.6630   -1.4690   -1.8340 C   0  0  2  0  0  0  0  0  0  0  0  0
   -2.6830   -2.6400   -2.1100 C   0  0  0  0  0  0  0  0  0  0  0  0
   -5.0190   -2.0130   -1.6830 C   0  0  0  0  0  0  0  0  0  0  0  0
   -5.8750   -1.9850   -0.5770 N   0  0  0  0  0  0  0  0  0  0  0  0
   -5.5170   -2.6160   -2.7200 O   0  0  0  0  0  0  0  0  0  0  0  0
   -3.1160   -0.7290   -0.7560 N   0  0  0  0  0  0  0  0  0  0  0  0
   -3.4780   -1.0330    0.6120 C   0  0  0  0  0  0  0  0  0  0  0  0
   -4.5660   -0.1410    1.1060 C   0  0  0  0  0  0  0  0  0  0  0  0
   -5.0200    0.7770    0.3790 O   0  0  0  0  0  0  0  0  0  0  0  0
   -5.1280   -0.2900    2.4010 N   0  0  0  0  0  0  0  0  0  0  0  0
   -6.1660    0.6000    2.8230 C   0  0  2  0  0  0  0  0  0  0  0  0
   -5.7790    1.1960    4.1530 C   0  0  0  0  0  0  0  0  0  0  0  0
   -7.5100   -0.0750    2.9820 C   0  0  0  0  0  0  0  0  0  0  0  0
   -2.1680    0.2950   -1.0200 C   0  0  0  0  0  0  0  0  0  0  0  0
   -1.1960    0.4350   -0.2470 O   0  0  0  0  0  0  0  0  0  0  0  0
  1  2  1  0
  3  2  1  1
  3  4  1  0
  3 14  1  0
  4  5  1  0
  5  6  2  3
  5 10  1  0
  6  7  1  0
  7  8  2  3
  8  9  1  0
 10 11  1  0
 11 12  1  0
 12 13  1  0
 14 15  1  0
 15 16  2  0
 15 17  1  0
 17 18  1  0
 19 18  1  1
 19 20  1  0
 19 23  1  0
 20 21  1  0
 21 22  1  0
 23 22  1  1
 23 24  1  0
 23 40  1  0
 24 25  1  0
 25 26  2  0
 25 27  1  0
 27 28  1  6
 27 29  1  0
 27 32  1  0
 29 30  1  0
 29 31  2  0
 32 33  1  0
 32 40  1  0
 33 34  1  0
 34 35  2  0
 34 36  1  0
 36 37  1  0
 37 38  1  1
 37 39  1  0
 40 41  2  0
M  END
