
     RDKit          3D

 41 42  0  0  0  0  0  0  0  0999 V2000
   -3.4590   -2.2210   -4.2650 C   0  0  0  0  0  0  0  0  0  0  0  0
   -4.0030   -1.6050   -3.2190 C   0  0  0  0  0  0  0  0  0  0  0  0
   -4.9350   -2.2600   -2.3390 C   0  0  0  0  0  0  0  0  0  0  0  0
   -5.5310   -1.7510   -1.2820 C   0  0  0  0  0  0  0  0  0  0  0  0
   -6.4150   -2.5840   -0.5620 N   0  0  0  0  0  0  0  0  0  0  0  0
   -5.3080   -0.3280   -0.8400 C   0  0  1  0  0  0  0  0  0  0  0  0
   -6.3390    0.5250   -1.4590 C   0  0  0  0  0  0  0  0  0  0  0  0
   -6.0960    1.8780   -1.2050 O   0  0  0  0  0  0  0  0  0  0  0  0
   -5.1950   -0.2330    0.6260 N   0  0  0  0  0  0  0  0  0  0  0  0
   -6.3860   -0.3460    1.4100 C   0  0  0  0  0  0  0  0  0  0  0  0
   -7.1590    0.8670    1.7500 C   0  0  0  0  0  0  0  0  0  0  0  0
   -8.2590    0.5600    2.5450 O   0  0  0  0  0  0  0  0  0  0  0  0
   -9.1390   -0.2690    1.9600 C   0  0  0  0  0  0  0  0  0  0  0  0
   -3.9100   -0.0510    1.2120 C   0  0  0  0  0  0  0  0  0  0  0  0
   -2.9690    0.0190    0.2930 O   0  0  0  0  0  0  0  0  0  0  0  0
   -3.5000    0.0560    2.6020 C   0  0  1  0  0  0  0  0  0  0  0  0
   -4.0050    1.3450    3.2160 C   0  0  0  0  0  0  0  0  0  0  0  0
   -3.9310   -1.0790    3.5030 C   0  0  0  0  0  0  0  0  0  0  0  0
   -2.0670    0.0450    2.6770 O   0  0  0  0  0  0  0  0  0  0  0  0
   -1.2180    0.9480    2.1180 C   0  0  0  0  0  0  0  0  0  0  0  0
   -1.6940    1.9030    1.4620 O   0  0  0  0  0  0  0  0  0  0  0  0
    0.2690    0.8710    2.2380 C   0  0  2  0  0  0  0  0  0  0  0  0
    0.9250    0.6690    0.8900 C   0  0  0  0  0  0  0  0  0  0  0  0
    2.2880    1.2160    1.0410 N   0  0  0  0  0  0  0  0  0  0  0  0
    3.1750    0.5740    0.0680 C   0  0  0  0  0  0  0  0  0  0  0  0
    4.5050    1.1850    0.0590 C   0  0  0  0  0  0  0  0  0  0  0  0
    4.6680    2.1680    0.8790 O   0  0  0  0  0  0  0  0  0  0  0  0
    5.6240    0.8190   -0.7490 N   0  0  0  0  0  0  0  0  0  0  0  0
    6.8420    1.5780   -0.6480 C   0  0  1  0  0  0  0  0  0  0  0  0
    7.9940    0.7830   -0.0520 C   0  0  0  0  0  0  0  0  0  0  0  0
    7.2540    2.5350   -1.6710 C   0  0  0  0  0  0  0  0  0  0  0  0
    7.4820    2.1760   -3.0780 C   0  0  0  0  0  0  0  0  0  0  0  0
    6.2900    1.7790   -3.7820 N   0  0  0  0  0  0  0  0  0  0  0  0
    5.6000   -0.3940   -1.5430 C   0  0  2  0  0  0  0  0  0  0  0  0
    4.4500   -0.5990   -2.4440 C   0  0  0  0  0  0  0  0  0  0  0  0
    5.8100   -1.6160   -0.6350 C   0  0  2  0  0  0  0  0  0  0  0  0
    5.8110   -2.9650   -1.3970 C   0  0  0  0  0  0  0  0  0  0  0  0
    4.8060   -2.6500   -0.3820 C   0  0  0  0  0  0  0  0  0  0  0  0
    2.7750    0.9120    2.3810 C   0  0  0  0  0  0  0  0  0  0  0  0
    2.0560   -0.2520    3.0210 C   0  0  0  0  0  0  0  0  0  0  0  0
    0.6930   -0.1670    3.0400 O   0  0  0  0  0  0  0  0  0  0  0  0
  1  2  2  0
  2  3  1  0
  3  4  2  3
  4  5  1  0
  4  6  1  0
  6  7  1  1
  6  9  1  0
  7  8  1  0
  9 10  1  0
  9 14  1  0
 10 11  1  0
 11 12  1  0
 12 13  1  0
 14 15  2  0
 14 16  1  0
 16 17  1  1
 16 18  1  0
 16 19  1  0
 19 20  1  0
 20 21  2  0
 22 20  1  6
 22 23  1  0
 22 41  1  0
 23 24  1  0
 24 25  1  0
 24 39  1  0
 25 26  1  0
 26 27  2  0
 26 28  1  0
 28 29  1  0
 28 34  1  0
 29 30  1  6
 29 31  1  0
 31 32  1  0
 32 33  1  0
 34 35  1  1
 34 36  1  0
 36 37  1  6
 36 38  1  0
 37 38  1  0
 39 40  1  0
 40 41  1  0
M  CHG  1  33   1
M  END
