
     RDKit          3D

 46 50  0  0  0  0  0  0  0  0999 V2000
   -1.4220   -2.6140    0.6970 C   0  0  0  0  0  0  0  0  0  0  0  0
   -0.4880   -3.2030   -0.3330 C   0  0  0  0  0  0  0  0  0  0  0  0
    0.1970   -2.1890   -1.1250 N   0  0  2  0  0  0  0  0  0  0  0  0
    1.5030   -1.9070   -0.6510 C   0  0  0  0  0  0  0  0  0  0  0  0
    2.4430   -2.9980   -0.9800 C   0  0  0  0  0  0  0  0  0  0  0  0
    2.0410   -4.1250   -1.6360 C   0  0  0  0  0  0  0  0  0  0  0  0
    2.9360   -5.1550   -1.9170 C   0  0  0  0  0  0  0  0  0  0  0  0
    2.5170   -6.3810   -2.6240 C   0  0  0  0  0  0  0  0  0  0  0  0
    4.2380   -5.0100   -1.5170 C   0  0  0  0  0  0  0  0  0  0  0  0
    4.6400   -3.8530   -0.8470 C   0  0  0  0  0  0  0  0  0  0  0  0
    3.7830   -2.8320   -0.5610 C   0  0  0  0  0  0  0  0  0  0  0  0
    4.0930   -1.6200    0.0880 N   0  0  0  0  0  0  0  0  0  0  0  0
    5.3340   -1.2430    0.6620 C   0  0  0  0  0  0  0  0  0  0  0  0
    6.2840   -2.0690    0.6070 O   0  0  0  0  0  0  0  0  0  0  0  0
    5.5680    0.0520    1.3130 C   0  0  0  0  0  0  0  0  0  0  0  0
    4.6330    1.0480    1.4270 C   0  0  0  0  0  0  0  0  0  0  0  0
    4.9220    2.2690    2.0520 C   0  0  0  0  0  0  0  0  0  0  0  0
    3.9640    3.2560    2.1510 C   0  0  0  0  0  0  0  0  0  0  0  0
    4.2030    4.4750    2.7550 C   0  0  0  0  0  0  0  0  0  0  0  0
    5.4880    4.6420    3.2620 C   0  0  0  0  0  0  0  0  0  0  0  0
    6.4630    3.6710    3.1760 C   0  0  0  0  0  0  0  0  0  0  0  0
    6.1810    2.4740    2.5660 C   0  0  0  0  0  0  0  0  0  0  0  0
    7.1100    1.4870    2.4540 N   0  0  0  0  0  0  0  0  0  0  0  0
    6.8080    0.3240    1.8510 C   0  0  0  0  0  0  0  0  0  0  0  0
    7.7990   -0.6720    1.7560 O   0  0  0  0  0  0  0  0  0  0  0  0
   -0.6760   -1.0290   -1.2170 C   0  0  2  0  0  0  0  0  0  0  0  0
   -0.8520   -0.5890   -2.6550 C   0  0  0  0  0  0  0  0  0  0  0  0
   -1.1960    0.8400   -2.5540 C   0  0  0  0  0  0  0  0  0  0  0  0
   -1.6540    1.4800   -3.5450 O   0  0  0  0  0  0  0  0  0  0  0  0
   -0.9150    1.2560   -1.2290 N   0  0  0  0  0  0  0  0  0  0  0  0
   -1.2800    2.5100   -0.6390 C   0  0  0  0  0  0  0  0  0  0  0  0
   -2.6200    2.4750    0.0870 C   0  0  1  0  0  0  0  0  0  0  0  0
   -2.7820    3.9120    0.6350 C   0  0  0  0  0  0  0  0  0  0  0  0
   -4.0010    4.0990    1.2580 O   0  0  0  0  0  0  0  0  0  0  0  0
   -3.6970    2.3060   -0.8500 N   0  0  0  0  0  0  0  0  0  0  0  0
   -5.0110    1.9240   -0.5210 C   0  0  0  0  0  0  0  0  0  0  0  0
   -5.4420    1.5430    0.7280 C   0  0  0  0  0  0  0  0  0  0  0  0
   -6.7600    1.1530    0.9780 C   0  0  0  0  0  0  0  0  0  0  0  0
   -7.1440    0.7780    2.2590 O   0  0  0  0  0  0  0  0  0  0  0  0
   -6.2110    0.7850    3.3190 C   0  0  0  0  0  0  0  0  0  0  0  0
   -7.6750    1.1430   -0.0520 C   0  0  0  0  0  0  0  0  0  0  0  0
   -7.2640    1.5170   -1.2970 C   0  0  0  0  0  0  0  0  0  0  0  0
   -5.9670    1.8960   -1.5230 C   0  0  0  0  0  0  0  0  0  0  0  0
   -5.5920    2.2900   -2.9160 C   0  0  0  0  0  0  0  0  0  0  0  0
   -0.2040    0.1760   -0.5690 C   0  0  0  0  0  0  0  0  0  0  0  0
    0.6100    0.3710    0.3430 O   0  0  0  0  0  0  0  0  0  0  0  0
  1  2  1  0
  3  2  1  1
  3  4  1  0
  3 26  1  0
  4  5  1  0
  5  6  2  0
  5 11  1  0
  6  7  1  0
  7  8  1  0
  7  9  2  0
  9 10  1  0
 10 11  2  0
 11 12  1  0
 12 13  1  0
 13 14  2  0
 13 15  1  0
 15 16  2  0
 15 24  1  0
 16 17  1  0
 17 18  2  0
 17 22  1  0
 18 19  1  0
 19 20  2  0
 20 21  1  0
 21 22  2  0
 22 23  1  0
 23 24  2  0
 24 25  1  0
 26 27  1  6
 26 45  1  0
 27 28  1  0
 28 29  2  0
 28 30  1  0
 30 31  1  0
 30 45  1  0
 32 31  1  6
 32 33  1  0
 32 35  1  0
 33 34  1  0
 35 36  1  0
 36 37  2  0
 36 43  1  0
 37 38  1  0
 38 39  1  0
 38 41  2  0
 39 40  1  0
 41 42  1  0
 42 43  2  0
 43 44  1  0
 45 46  2  0
M  CHG  1   3   1
M  END
