
     RDKit          3D

 18 18  0  0  0  0  0  0  0  0999 V2000
    3.2350   -2.1400    0.0410 N   0  0  0  0  0  0  0  0  0  0  0  0
    2.7040   -0.9180   -0.5890 C   0  0  0  0  0  0  0  0  0  0  0  0
    1.2730   -0.7960   -0.0380 C   0  0  2  0  0  0  0  0  0  0  0  0
    0.7030   -2.0200   -0.4960 O   0  0  0  0  0  0  0  0  0  0  0  0
    0.5680    0.3780   -0.6070 C   0  0  1  0  0  0  0  0  0  0  0  0
   -0.7960    0.6470   -0.1450 C   0  0  0  0  0  0  0  0  0  0  0  0
   -1.8960   -0.3050   -0.3000 C   0  0  1  0  0  0  0  0  0  0  0  0
   -2.1680   -0.7040   -1.7260 C   0  0  0  0  0  0  0  0  0  0  0  0
   -3.3230   -1.4260   -1.8740 O   0  0  0  0  0  0  0  0  0  0  0  0
   -2.1400   -1.3380    0.7300 C   0  0  0  0  0  0  0  0  0  0  0  0
   -2.1300   -0.5230    1.8860 O   0  0  0  0  0  0  0  0  0  0  0  0
   -3.0190    0.4720    1.4820 C   0  0  1  0  0  0  0  0  0  0  0  0
   -2.6580    1.7330    1.9580 O   0  0  0  0  0  0  0  0  0  0  0  0
   -3.0480    0.5160    0.1060 O   0  0  0  0  0  0  0  0  0  0  0  0
    1.3960    1.6350   -0.3130 C   0  0  1  0  0  0  0  0  0  0  0  0
    0.7940    2.7850   -0.8190 O   0  0  0  0  0  0  0  0  0  0  0  0
    1.6870    1.7650    1.1630 C   0  0  0  0  0  0  0  0  0  0  0  0
    2.5680    2.8490    1.3950 O   0  0  0  0  0  0  0  0  0  0  0  0
  1  2  1  0
  2  3  1  0
  3  4  1  6
  3  5  1  0
  5  6  1  1
  5 15  1  0
  7  6  1  6
  7  8  1  0
  7 10  1  0
  7 14  1  0
  8  9  1  0
 10 11  1  0
 11 12  1  0
 12 13  1  1
 12 14  1  0
 15 16  1  1
 15 17  1  0
 17 18  1  0
M  CHG  1   1   1
M  END
