
     RDKit          3D

 17 18  0  0  0  0  0  0  0  0999 V2000
    0.2750   -2.6770   -1.2620 N   0  0  0  0  0  0  0  0  0  0  0  0
    0.1090   -1.3040   -0.8450 C   0  0  1  0  0  0  0  0  0  0  0  0
   -1.3960   -0.9700   -0.7440 C   0  0  0  0  0  0  0  0  0  0  0  0
   -1.3140    0.0040    0.4030 C   0  0  2  0  0  0  0  0  0  0  0  0
   -2.5970    0.4570    0.9810 C   0  0  0  0  0  0  0  0  0  0  0  0
   -3.4240    1.1480   -0.0610 C   0  0  0  0  0  0  0  0  0  0  0  0
   -3.7260    0.2980   -1.0900 O   0  0  0  0  0  0  0  0  0  0  0  0
   -0.5660    1.0870   -0.0860 O   0  0  0  0  0  0  0  0  0  0  0  0
    0.5410    1.3800    0.7120 C   0  0  0  0  0  0  0  0  0  0  0  0
    1.4410    0.1780    0.7150 C   0  0  2  0  0  0  0  0  0  0  0  0
    2.0410    0.0440    1.9960 O   0  0  0  0  0  0  0  0  0  0  0  0
    2.5480    0.3200   -0.2560 C   0  0  0  0  0  0  0  0  0  0  0  0
    3.3720    1.4970    0.0980 C   0  0  0  0  0  0  0  0  0  0  0  0
    3.1230    2.1860    1.1150 O   0  0  0  0  0  0  0  0  0  0  0  0
    4.4670    1.9030   -0.6770 O   0  0  0  0  0  0  0  0  0  0  0  0
    0.5730   -1.0350    0.5440 C   0  0  1  0  0  0  0  0  0  0  0  0
   -0.5640   -0.7750    1.3120 O   0  0  0  0  0  0  0  0  0  0  0  0
  2  1  1  1
  2  3  1  0
  2 16  1  0
  3  4  1  0
  4  5  1  1
  4  8  1  0
  4 17  1  0
  5  6  1  0
  6  7  1  0
  8  9  1  0
  9 10  1  0
 10 11  1  1
 10 12  1  0
 10 16  1  0
 12 13  1  0
 13 14  2  0
 13 15  1  0
 16 17  1  1
M  CHG  1   1   1
M  END
