
     RDKit          3D

 17 17  0  0  0  0  0  0  0  0999 V2000
   -5.0580    0.8000    1.7260 C   0  0  0  0  0  0  0  0  0  0  0  0
   -3.7450    0.3810    1.7660 O   0  0  0  0  0  0  0  0  0  0  0  0
   -3.5340   -0.6030    0.8200 C   0  0  2  0  0  0  0  0  0  0  0  0
   -3.1770   -1.8050    1.4210 O   0  0  0  0  0  0  0  0  0  0  0  0
   -2.5220   -0.1890   -0.2260 C   0  0  2  0  0  0  0  0  0  0  0  0
   -2.3860   -1.2390   -1.1190 O   0  0  0  0  0  0  0  0  0  0  0  0
   -1.1730    0.1050    0.3800 C   0  0  0  0  0  0  0  0  0  0  0  0
   -0.2660    0.4620   -0.6950 N   0  0  1  0  0  0  0  0  0  0  0  0
    0.4620    1.6300   -0.2740 C   0  0  0  0  0  0  0  0  0  0  0  0
    1.9320    1.3640   -0.6040 C   0  0  2  0  0  0  0  0  0  0  0  0
    2.1290    1.7400   -1.9090 O   0  0  0  0  0  0  0  0  0  0  0  0
    1.9860   -0.1270   -0.3860 C   0  0  2  0  0  0  0  0  0  0  0  0
    3.0870   -0.7420   -0.8480 O   0  0  0  0  0  0  0  0  0  0  0  0
    3.8980   -1.4150    0.0010 C   0  0  0  0  0  0  0  0  0  0  0  0
    4.4440   -0.4530    1.0380 C   0  0  0  0  0  0  0  0  0  0  0  0
    5.1610    0.5490    0.3930 O   0  0  0  0  0  0  0  0  0  0  0  0
    0.6810   -0.5750   -0.9870 C   0  0  0  0  0  0  0  0  0  0  0  0
  1  2  1  0
  2  3  1  0
  3  4  1  1
  3  5  1  0
  5  6  1  6
  5  7  1  0
  8  7  1  1
  8  9  1  0
  8 17  1  0
  9 10  1  0
 10 11  1  6
 10 12  1  0
 12 13  1  6
 12 17  1  0
 13 14  1  0
 14 15  1  0
 15 16  1  0
M  CHG  1   8   1
M  END
