
     RDKit          3D

 11 11  0  0  0  0  0  0  0  0999 V2000
    3.2490   -0.5630   -0.4680 O   0  0  0  0  0  0  0  0  0  0  0  0
    2.4370    0.4970   -0.1190 C   0  0  0  0  0  0  0  0  0  0  0  0
    0.9960    0.0960   -0.3210 C   0  0  1  0  0  0  0  0  0  0  0  0
    0.6360   -1.1020    0.5360 C   0  0  0  0  0  0  0  0  0  0  0  0
   -0.7270   -1.4620    0.3740 N   0  0  0  0  0  0  0  0  0  0  0  0
   -1.4790   -0.6890   -0.5480 C   0  0  1  0  0  0  0  0  0  0  0  0
   -2.8460   -0.9720   -0.3130 O   0  0  0  0  0  0  0  0  0  0  0  0
   -1.3150    0.7850   -0.4470 C   0  0  1  0  0  0  0  0  0  0  0  0
   -2.3500    1.4240    0.2270 O   0  0  0  0  0  0  0  0  0  0  0  0
    0.0460    1.2040    0.0890 C   0  0  2  0  0  0  0  0  0  0  0  0
    0.4470    2.4350   -0.3790 O   0  0  0  0  0  0  0  0  0  0  0  0
  1  2  1  0
  3  2  1  1
  3  4  1  0
  3 10  1  0
  4  5  1  0
  5  6  1  0
  6  7  1  1
  6  8  1  0
  8  9  1  1
  8 10  1  0
 10 11  1  6
M  CHG  1   5   1
M  END
