
     RDKit          3D

 17 17  0  0  0  0  0  0  0  0999 V2000
   -0.7270   -1.4600    1.2470 N   0  0  0  0  0  0  0  0  0  0  0  0
   -0.5090   -0.3120    0.3890 C   0  0  1  0  0  0  0  0  0  0  0  0
   -1.6760    0.6760    0.5140 C   0  0  2  0  0  0  0  0  0  0  0  0
   -1.6750    1.3220    1.8820 C   0  0  0  0  0  0  0  0  0  0  0  0
   -2.6490    2.3300    1.8410 O   0  0  0  0  0  0  0  0  0  0  0  0
   -2.8620    0.1250    0.1580 O   0  0  0  0  0  0  0  0  0  0  0  0
   -3.5260    0.6280   -0.8960 C   0  0  0  0  0  0  0  0  0  0  0  0
   -4.7260   -0.0800   -1.0990 O   0  0  0  0  0  0  0  0  0  0  0  0
    0.8010    0.3030    0.7440 C   0  0  0  0  0  0  0  0  0  0  0  0
    1.9590   -0.1240   -0.1220 C   0  0  1  0  0  0  0  0  0  0  0  0
    3.1300    0.0300    0.5960 O   0  0  0  0  0  0  0  0  0  0  0  0
    4.0350    0.8810   -0.0210 C   0  0  0  0  0  0  0  0  0  0  0  0
    5.1630    0.9540    0.7930 O   0  0  0  0  0  0  0  0  0  0  0  0
    1.8160   -1.5950   -0.4480 C   0  0  0  0  0  0  0  0  0  0  0  0
    0.5660   -1.8700   -1.2360 C   0  0  0  0  0  0  0  0  0  0  0  0
   -0.4830   -0.8150   -1.0450 C   0  0  2  0  0  0  0  0  0  0  0  0
   -0.2150    0.2830   -1.8640 O   0  0  0  0  0  0  0  0  0  0  0  0
  2  1  1  1
  2  3  1  0
  2  9  1  0
  2 16  1  0
  3  4  1  1
  3  6  1  0
  4  5  1  0
  6  7  1  0
  7  8  1  0
  9 10  1  0
 10 11  1  1
 10 14  1  0
 11 12  1  0
 12 13  1  0
 14 15  1  0
 15 16  1  0
 16 17  1  6
M  CHG  1   1   1
M  END
