
     RDKit          3D

 18 19  0  0  0  0  0  0  0  0999 V2000
   -1.1690   -1.4300   -1.8690 C   0  0  0  0  0  0  0  0  0  0  0  0
   -1.1500   -0.7360   -0.4990 C   0  0  1  0  0  0  0  0  0  0  0  0
   -2.3710   -1.2990    0.2420 C   0  0  0  0  0  0  0  0  0  0  0  0
   -2.2920   -2.7180    0.3990 N   0  0  0  0  0  0  0  0  0  0  0  0
   -0.0500   -1.0440    0.2290 O   0  0  0  0  0  0  0  0  0  0  0  0
    1.0200   -0.2080    0.1300 C   0  0  1  0  0  0  0  0  0  0  0  0
    1.8890   -0.4350    1.3780 C   0  0  0  0  0  0  0  0  0  0  0  0
    3.1730    0.0370    1.1950 O   0  0  0  0  0  0  0  0  0  0  0  0
    3.8410   -0.5390    0.1400 C   0  0  0  0  0  0  0  0  0  0  0  0
    2.9350   -1.3950   -0.5070 O   0  0  0  0  0  0  0  0  0  0  0  0
    1.9430   -0.5540   -1.0450 C   0  0  0  0  0  0  0  0  0  0  0  0
    0.6790    1.2570    0.1180 C   0  0  2  0  0  0  0  0  0  0  0  0
    1.3010    1.9700    1.1210 O   0  0  0  0  0  0  0  0  0  0  0  0
   -0.8050    1.4620    0.1440 C   0  0  1  0  0  0  0  0  0  0  0  0
   -1.3550    1.4130    1.4110 O   0  0  0  0  0  0  0  0  0  0  0  0
   -1.0750    2.8760   -0.3870 C   0  0  0  0  0  0  0  0  0  0  0  0
   -2.4680    3.0790   -0.4180 O   0  0  0  0  0  0  0  0  0  0  0  0
   -1.3920    0.5870   -0.7260 O   0  0  0  0  0  0  0  0  0  0  0  0
  2  1  1  6
  2  3  1  0
  2  5  1  0
  2 18  1  0
  3  4  1  0
  5  6  1  0
  6  7  1  1
  6 11  1  0
  6 12  1  0
  7  8  1  0
  8  9  1  0
  9 10  1  0
 10 11  1  0
 12 13  1  1
 12 14  1  0
 14 15  1  1
 14 16  1  0
 14 18  1  0
 16 17  1  0
M  CHG  1   4   1
M  END
