
     RDKit          3D

 17 17  0  0  0  0  0  0  0  0999 V2000
   -3.0270   -0.9540    0.4740 C   0  0  0  0  0  0  0  0  0  0  0  0
   -2.2440    0.1020   -0.1950 C   0  0  1  0  0  0  0  0  0  0  0  0
   -3.0420    0.4620   -1.3360 O   0  0  0  0  0  0  0  0  0  0  0  0
   -2.1430    1.3940    0.5300 C   0  0  0  0  0  0  0  0  0  0  0  0
   -1.4340    1.4500    1.7400 N   0  0  0  0  0  0  0  0  0  0  0  0
   -0.9700   -0.3330   -0.8460 C   0  0  1  0  0  0  0  0  0  0  0  0
   -1.3590   -1.2740   -2.0090 C   0  0  0  0  0  0  0  0  0  0  0  0
   -1.8560   -2.4680   -1.5630 O   0  0  0  0  0  0  0  0  0  0  0  0
   -0.4960    0.7990   -1.5310 O   0  0  0  0  0  0  0  0  0  0  0  0
    0.7470    1.0890   -1.0700 C   0  0  0  0  0  0  0  0  0  0  0  0
    1.2890   -0.0240   -0.2440 C   0  0  2  0  0  0  0  0  0  0  0  0
    2.3930   -0.6410   -0.7350 O   0  0  0  0  0  0  0  0  0  0  0  0
    3.5380   -0.6530   -0.0170 C   0  0  0  0  0  0  0  0  0  0  0  0
    4.0130    0.7680    0.1890 C   0  0  0  0  0  0  0  0  0  0  0  0
    4.2190    1.2900   -1.1100 O   0  0  0  0  0  0  0  0  0  0  0  0
    0.0940   -0.9280   -0.0720 C   0  0  1  0  0  0  0  0  0  0  0  0
   -0.0840   -1.2040    1.2480 O   0  0  0  0  0  0  0  0  0  0  0  0
  2  1  1  1
  2  3  1  0
  2  4  1  0
  2  6  1  0
  4  5  1  0
  6  7  1  6
  6  9  1  0
  6 16  1  0
  7  8  1  0
  9 10  1  0
 10 11  1  0
 11 12  1  6
 11 16  1  0
 12 13  1  0
 13 14  1  0
 14 15  1  0
 16 17  1  1
M  CHG  1   5   1
M  END
