
     RDKit          3D

 22 22  0  0  0  0  0  0  0  0999 V2000
    0.9320   -1.4720   -3.1210 C   0  0  0  0  0  0  0  0  0  0  0  0
   -0.1390   -1.3960   -2.0230 C   0  0  0  0  0  0  0  0  0  0  0  0
    0.4040   -0.7150   -0.8190 C   0  0  2  0  0  0  0  0  0  0  0  0
    1.5460   -1.3720   -0.2410 N   0  0  0  0  0  0  0  0  0  0  0  0
    2.7970   -0.6990   -0.1010 C   0  0  0  0  0  0  0  0  0  0  0  0
    2.8230    0.4910   -0.5140 O   0  0  0  0  0  0  0  0  0  0  0  0
    3.9880   -1.3400    0.4870 C   0  0  0  0  0  0  0  0  0  0  0  0
    5.1250   -0.3610    0.5190 C   0  0  0  0  0  0  0  0  0  0  0  0
    4.7930    0.8400    1.3510 C   0  0  0  0  0  0  0  0  0  0  0  0
    5.6870    1.9230    1.4880 N   0  0  0  0  0  0  0  0  0  0  0  0
    3.6900    0.8520    1.9270 O   0  0  0  0  0  0  0  0  0  0  0  0
   -0.6950   -0.5450    0.2150 C   0  0  0  0  0  0  0  0  0  0  0  0
   -0.5210   -0.9960    1.3540 O   0  0  0  0  0  0  0  0  0  0  0  0
   -1.8660    0.1340   -0.2120 N   0  0  0  0  0  0  0  0  0  0  0  0
   -3.0050    0.3930    0.5980 C   0  0  0  0  0  0  0  0  0  0  0  0
   -3.0400    0.0040    1.8480 C   0  0  0  0  0  0  0  0  0  0  0  0
   -4.1940    0.2460    2.7300 C   0  0  0  0  0  0  0  0  0  0  0  0
   -5.2990    0.9520    2.1110 C   0  0  0  0  0  0  0  0  0  0  0  0
   -5.3100    1.3600    0.8690 C   0  0  0  0  0  0  0  0  0  0  0  0
   -4.1310    1.1000    0.0090 C   0  0  0  0  0  0  0  0  0  0  0  0
   -4.2160    1.5400   -1.2360 C   0  0  0  0  0  0  0  0  0  0  0  0
   -3.1000    1.4610   -2.5790 S   0  0  0  0  0  0  0  0  0  0  0  0
  1  2  1  0
  3  2  1  6
  3  4  1  0
  3 12  1  0
  4  5  1  0
  5  6  2  0
  5  7  1  0
  7  8  1  0
  8  9  1  0
  9 10  1  0
  9 11  2  0
 12 13  2  0
 12 14  1  0
 14 15  1  0
 15 16  2  0
 15 20  1  0
 16 17  1  0
 17 18  1  0
 18 19  2  0
 19 20  1  0
 20 21  2  3
 21 22  1  0
M  END
