
     RDKit          3D

 15 15  0  0  0  0  0  0  0  0999 V2000
    4.4080    1.0030   -0.2000 C   0  0  0  0  0  0  0  0  0  0  0  0
    3.1460    0.3870    0.2750 C   0  0  0  0  0  0  0  0  0  0  0  0
    3.1330   -0.4260    1.2350 O   0  0  0  0  0  0  0  0  0  0  0  0
    1.9250    0.6950   -0.3380 N   0  0  0  0  0  0  0  0  0  0  0  0
    0.6410    0.1800    0.0120 C   0  0  1  0  0  0  0  0  0  0  0  0
   -0.3220    1.2660    0.4580 C   0  0  2  0  0  0  0  0  0  0  0  0
    0.3480    2.2160    1.2000 O   0  0  0  0  0  0  0  0  0  0  0  0
   -1.2840    0.5780    1.2310 O   0  0  0  0  0  0  0  0  0  0  0  0
   -2.0890   -0.1210    0.3540 C   0  0  2  0  0  0  0  0  0  0  0  0
   -3.1100   -0.8780    1.1820 C   0  0  0  0  0  0  0  0  0  0  0  0
   -3.8910    0.0020    1.9450 O   0  0  0  0  0  0  0  0  0  0  0  0
   -1.3560   -1.1180   -0.4910 C   0  0  2  0  0  0  0  0  0  0  0  0
   -1.1140   -2.3060    0.1900 O   0  0  0  0  0  0  0  0  0  0  0  0
   -0.0580   -0.5790   -1.0590 C   0  0  2  0  0  0  0  0  0  0  0  0
    0.6610   -1.6610   -1.5500 O   0  0  0  0  0  0  0  0  0  0  0  0
  1  2  1  0
  2  3  2  0
  2  4  1  0
  5  4  1  6
  5  6  1  0
  5 14  1  0
  6  7  1  1
  6  8  1  0
  8  9  1  0
  9 10  1  1
  9 12  1  0
 10 11  1  0
 12 13  1  1
 12 14  1  0
 14 15  1  1
M  END
