
     RDKit          3D

 15 15  0  0  0  0  0  0  0  0999 V2000
    3.1760   -0.7830   -1.4200 O   0  0  0  0  0  0  0  0  0  0  0  0
    2.4190   -0.4970   -0.2950 C   0  0  2  0  0  0  0  0  0  0  0  0
    0.9840   -0.8280   -0.4230 C   0  0  0  0  0  0  0  0  0  0  0  0
    0.6530   -2.2230   -0.3840 N   0  0  0  0  0  0  0  0  0  0  0  0
   -0.7980   -2.2550   -0.1640 C   0  0  2  0  0  0  0  0  0  0  0  0
   -0.9730   -1.9460    1.1970 O   0  0  0  0  0  0  0  0  0  0  0  0
   -1.3360   -3.4810   -0.4770 O   0  0  0  0  0  0  0  0  0  0  0  0
   -1.3350   -1.2130   -0.9060 O   0  0  0  0  0  0  0  0  0  0  0  0
   -2.2980   -0.4940   -0.2520 C   0  0  0  0  0  0  0  0  0  0  0  0
   -2.4100    0.9380   -0.6600 C   0  0  0  0  0  0  0  0  0  0  0  0
   -1.2430    1.5200   -1.0710 O   0  0  0  0  0  0  0  0  0  0  0  0
   -0.7730    2.5330   -0.2770 C   0  0  0  0  0  0  0  0  0  0  0  0
    0.6300    2.3570    0.2060 C   0  0  0  0  0  0  0  0  0  0  0  0
    1.4340    1.6070   -0.6180 O   0  0  0  0  0  0  0  0  0  0  0  0
    2.4790    0.9800    0.0480 C   0  0  0  0  0  0  0  0  0  0  0  0
  2  1  1  6
  2  3  1  0
  2 15  1  0
  3  4  1  0
  4  5  1  0
  5  6  1  1
  5  7  1  0
  5  8  1  0
  8  9  1  0
  9 10  1  0
 10 11  1  0
 11 12  1  0
 12 13  1  0
 13 14  1  0
 14 15  1  0
M  END
