
     RDKit          3D

 14 14  0  0  0  0  0  0  0  0999 V2000
   -2.6400   -0.2560   -0.8930 N   0  0  0  0  0  0  0  0  0  0  0  0
   -1.2420   -0.4110   -1.2810 C   0  0  0  0  0  0  0  0  0  0  0  0
   -0.4300   -0.0090   -0.0420 C   0  0  2  0  0  0  0  0  0  0  0  0
   -0.8560   -0.9600    1.0340 C   0  0  0  0  0  0  0  0  0  0  0  0
   -1.3810   -0.5430    2.1080 O   0  0  0  0  0  0  0  0  0  0  0  0
   -0.6990   -2.3250    0.9100 O   0  0  0  0  0  0  0  0  0  0  0  0
   -0.8550    1.3920    0.3030 C   0  0  0  0  0  0  0  0  0  0  0  0
   -0.1150    2.4430   -0.4600 C   0  0  0  0  0  0  0  0  0  0  0  0
    1.2540    2.3210   -0.4180 O   0  0  0  0  0  0  0  0  0  0  0  0
    1.7130    1.1640    0.1680 C   0  0  0  0  0  0  0  0  0  0  0  0
    1.0340   -0.0830   -0.3190 C   0  0  2  0  0  0  0  0  0  0  0  0
    1.2620   -0.2180   -1.6870 O   0  0  0  0  0  0  0  0  0  0  0  0
    1.7130   -1.2580    0.3750 C   0  0  0  0  0  0  0  0  0  0  0  0
    1.5080   -1.1610    1.7520 O   0  0  0  0  0  0  0  0  0  0  0  0
  1  2  1  0
  3  2  1  6
  3  4  1  0
  3  7  1  0
  3 11  1  0
  4  5  2  0
  4  6  1  0
  7  8  1  0
  8  9  1  0
  9 10  1  0
 10 11  1  0
 11 12  1  6
 11 13  1  0
 13 14  1  0
M  END
