
     RDKit          3D

 15 15  0  0  0  0  0  0  0  0999 V2000
   -3.3440    0.8360    0.5130 N   0  0  0  0  0  0  0  0  0  0  0  0
   -2.6770   -0.3800    0.9060 C   0  0  1  0  0  0  0  0  0  0  0  0
   -3.4020   -1.5060    0.2300 C   0  0  0  0  0  0  0  0  0  0  0  0
   -4.2600   -2.2390    0.7860 O   0  0  0  0  0  0  0  0  0  0  0  0
   -2.9400   -1.5480   -1.0570 O   0  0  0  0  0  0  0  0  0  0  0  0
   -1.8120   -0.7040   -1.2390 C   0  0  0  0  0  0  0  0  0  0  0  0
   -1.3410   -0.4410    0.1820 C   0  0  2  0  0  0  0  0  0  0  0  0
   -0.5850   -1.5040    0.6510 O   0  0  0  0  0  0  0  0  0  0  0  0
   -0.6790    0.8810    0.3370 C   0  0  0  0  0  0  0  0  0  0  0  0
    0.6640    0.9780   -0.3310 C   0  0  0  0  0  0  0  0  0  0  0  0
    1.5840    0.0800    0.1340 O   0  0  0  0  0  0  0  0  0  0  0  0
    2.7980    0.2140   -0.5140 C   0  0  2  0  0  0  0  0  0  0  0  0
    3.1680   -0.9420   -1.1960 O   0  0  0  0  0  0  0  0  0  0  0  0
    3.9220    0.5900    0.4210 C   0  0  0  0  0  0  0  0  0  0  0  0
    4.1280   -0.3450    1.4190 O   0  0  0  0  0  0  0  0  0  0  0  0
  2  1  1  6
  2  3  1  0
  2  7  1  0
  3  4  2  0
  3  5  1  0
  5  6  1  0
  6  7  1  0
  7  8  1  1
  7  9  1  0
  9 10  1  0
 10 11  1  0
 11 12  1  0
 12 13  1  1
 12 14  1  0
 14 15  1  0
M  END
