
     RDKit          3D

 14 14  0  0  0  0  0  0  0  0999 V2000
   -1.6030    2.2310   -0.6550 N   0  0  0  0  0  0  0  0  0  0  0  0
   -1.2660    1.5090    0.5450 C   0  0  2  0  0  0  0  0  0  0  0  0
   -0.2950    2.2050    1.2890 O   0  0  0  0  0  0  0  0  0  0  0  0
   -0.7170    0.1590    0.1970 C   0  0  1  0  0  0  0  0  0  0  0  0
   -1.7460   -0.6140   -0.5870 C   0  0  0  0  0  0  0  0  0  0  0  0
   -3.0110   -0.8120    0.2010 C   0  0  2  0  0  0  0  0  0  0  0  0
   -2.7350   -1.5140    1.3880 O   0  0  0  0  0  0  0  0  0  0  0  0
   -3.9140   -1.5590   -0.5770 O   0  0  0  0  0  0  0  0  0  0  0  0
    0.4660    0.2880   -0.5800 O   0  0  0  0  0  0  0  0  0  0  0  0
    1.5420   -0.2620    0.0630 C   0  0  1  0  0  0  0  0  0  0  0  0
    2.2880   -1.2840   -0.7820 C   0  0  0  0  0  0  0  0  0  0  0  0
    3.7020   -1.0740   -0.3290 C   0  0  0  0  0  0  0  0  0  0  0  0
    3.7790    0.1110    0.3460 O   0  0  0  0  0  0  0  0  0  0  0  0
    2.6170    0.8160    0.1790 C   0  0  0  0  0  0  0  0  0  0  0  0
  2  1  1  6
  2  3  1  0
  2  4  1  0
  4  5  1  6
  4  9  1  0
  5  6  1  0
  6  7  1  1
  6  8  1  0
 10  9  1  6
 10 11  1  0
 10 14  1  0
 11 12  1  0
 12 13  1  0
 13 14  1  0
M  END
