
     RDKit          3D

 14 14  0  0  0  0  0  0  0  0999 V2000
    4.1240    0.0180   -0.0010 C   0  0  0  0  0  0  0  0  0  0  0  0
    3.0070   -0.2820   -0.8460 O   0  0  0  0  0  0  0  0  0  0  0  0
    1.7710   -0.2890   -0.2730 C   0  0  0  0  0  0  0  0  0  0  0  0
    0.8380    0.5270   -0.7280 C   0  0  0  0  0  0  0  0  0  0  0  0
    1.1550    1.3860   -1.7970 N   0  0  0  0  0  0  0  0  0  0  0  0
   -0.4870    0.4680   -0.0580 C   0  0  1  0  0  0  0  0  0  0  0  0
   -1.4690    1.1040   -0.8110 O   0  0  0  0  0  0  0  0  0  0  0  0
   -0.8360   -0.9420    0.2500 C   0  0  2  0  0  0  0  0  0  0  0  0
   -1.7620   -0.9520    1.3230 O   0  0  0  0  0  0  0  0  0  0  0  0
   -2.9770   -0.3250    1.2180 C   0  0  0  0  0  0  0  0  0  0  0  0
   -3.7810   -0.5650    0.1940 C   0  0  0  0  0  0  0  0  0  0  0  0
   -5.0110    0.0480    0.0560 O   0  0  0  0  0  0  0  0  0  0  0  0
    0.1990   -1.7810    0.5260 O   0  0  0  0  0  0  0  0  0  0  0  0
    1.3870   -1.1900    0.8730 C   0  0  0  0  0  0  0  0  0  0  0  0
  1  2  1  0
  2  3  1  0
  3  4  2  0
  3 14  1  0
  4  5  1  0
  4  6  1  0
  6  7  1  6
  6  8  1  0
  8  9  1  1
  8 13  1  0
  9 10  1  0
 10 11  2  3
 11 12  1  0
 13 14  1  0
M  END
