
     RDKit          3D

 15 15  0  0  0  0  0  0  0  0999 V2000
    4.6380    0.9010    0.4890 N   0  0  0  0  0  0  0  0  0  0  0  0
    3.4100    0.8740   -0.0360 O   0  0  0  0  0  0  0  0  0  0  0  0
    3.1360   -0.4070   -0.4880 C   0  0  0  0  0  0  0  0  0  0  0  0
    1.7360   -0.4790   -1.0970 C   0  0  1  0  0  0  0  0  0  0  0  0
    1.5270   -1.7790   -1.5260 O   0  0  0  0  0  0  0  0  0  0  0  0
    0.7140   -0.0590   -0.0420 C   0  0  2  0  0  0  0  0  0  0  0  0
    0.9070   -0.9800    1.0150 O   0  0  0  0  0  0  0  0  0  0  0  0
   -0.6500   -0.1380   -0.6360 C   0  0  0  0  0  0  0  0  0  0  0  0
   -1.7770    0.2440    0.2550 C   0  0  1  0  0  0  0  0  0  0  0  0
   -1.8510   -0.6300    1.4830 C   0  0  0  0  0  0  0  0  0  0  0  0
   -1.9660   -1.9580    1.0140 O   0  0  0  0  0  0  0  0  0  0  0  0
   -1.8360    1.7040    0.5730 C   0  0  0  0  0  0  0  0  0  0  0  0
   -3.0180    2.1330   -0.0480 O   0  0  0  0  0  0  0  0  0  0  0  0
   -3.8240    0.9950    0.0730 C   0  0  0  0  0  0  0  0  0  0  0  0
   -2.9930    0.0130   -0.4360 O   0  0  0  0  0  0  0  0  0  0  0  0
  1  2  1  0
  2  3  1  0
  3  4  1  0
  4  5  1  1
  4  6  1  0
  6  7  1  1
  6  8  1  0
  9  8  1  6
  9 10  1  0
  9 12  1  0
  9 15  1  0
 10 11  1  0
 12 13  1  0
 13 14  1  0
 14 15  1  0
M  END
