
     RDKit          3D

 15 15  0  0  0  0  0  0  0  0999 V2000
    2.2140   -0.7780   -0.7460 C   0  0  0  0  0  0  0  0  0  0  0  0
    1.2680    0.1490   -0.0070 C   0  0  2  0  0  0  0  0  0  0  0  0
    2.0620    0.7880    1.0740 C   0  0  0  0  0  0  0  0  0  0  0  0
    3.2050    1.5700    0.7480 N   0  0  0  0  0  0  0  0  0  0  0  0
    1.7410    0.6490    2.2790 O   0  0  0  0  0  0  0  0  0  0  0  0
    0.2210   -0.5480    0.5820 O   0  0  0  0  0  0  0  0  0  0  0  0
   -0.7770   -0.9030   -0.3210 C   0  0  1  0  0  0  0  0  0  0  0  0
   -1.5960   -2.0660    0.1850 C   0  0  0  0  0  0  0  0  0  0  0  0
   -2.5910   -2.4490   -0.6720 O   0  0  0  0  0  0  0  0  0  0  0  0
   -1.5950    0.2440   -0.7980 C   0  0  1  0  0  0  0  0  0  0  0  0
   -2.4670    0.8660    0.2510 C   0  0  0  0  0  0  0  0  0  0  0  0
   -1.7390    1.3080    1.3450 O   0  0  0  0  0  0  0  0  0  0  0  0
   -0.6630    1.2560   -1.2180 O   0  0  0  0  0  0  0  0  0  0  0  0
    0.6820    1.1650   -0.9170 C   0  0  0  0  0  0  0  0  0  0  0  0
    1.4580    1.9960   -1.4480 O   0  0  0  0  0  0  0  0  0  0  0  0
  2  1  1  6
  2  3  1  0
  2  6  1  0
  2 14  1  0
  3  4  1  0
  3  5  2  0
  6  7  1  0
  7  8  1  1
  7 10  1  0
  8  9  1  0
 10 11  1  1
 10 13  1  0
 11 12  1  0
 13 14  1  0
 14 15  2  0
M  END
