
     RDKit          3D

 26 29  0  0  0  0  0  0  0  0999 V2000
    2.5560   -1.9320   -2.1210 O   0  0  0  0  0  0  0  0  0  0  0  0
    3.5010   -1.2740   -1.6340 C   0  0  0  0  0  0  0  0  0  0  0  0
    4.8280   -1.5230   -1.9860 O   0  0  0  0  0  0  0  0  0  0  0  0
    5.6410   -0.6470   -1.2940 C   0  0  0  0  0  0  0  0  0  0  0  0
    6.9170   -0.3570   -1.1660 C   0  0  0  0  0  0  0  0  0  0  0  0
    7.0090    0.7550   -0.1950 C   0  0  0  0  0  0  0  0  0  0  0  0
    5.6070    1.0280    0.1850 C   0  0  0  0  0  0  0  0  0  0  0  0
    4.8330    0.2080   -0.4600 C   0  0  0  0  0  0  0  0  0  0  0  0
    3.4190   -0.2010   -0.6800 C   0  0  0  0  0  0  0  0  0  0  0  0
    2.4120    0.3600   -0.0850 C   0  0  0  0  0  0  0  0  0  0  0  0
    1.0070   -0.0590   -0.3140 C   0  0  0  0  0  0  0  0  0  0  0  0
    0.0220    0.5350    0.3090 C   0  0  0  0  0  0  0  0  0  0  0  0
   -1.3770    0.2490    0.1960 C   0  0  0  0  0  0  0  0  0  0  0  0
   -2.1890    0.9900    0.9250 C   0  0  0  0  0  0  0  0  0  0  0  0
   -1.7190    2.0440    1.8000 C   0  0  0  0  0  0  0  0  0  0  0  0
   -2.1810    2.2050    3.1100 C   0  0  0  0  0  0  0  0  0  0  0  0
   -1.5370    3.2850    3.6330 C   0  0  0  0  0  0  0  0  0  0  0  0
   -0.6950    3.7640    2.6330 C   0  0  0  0  0  0  0  0  0  0  0  0
   -0.8470    2.9950    1.5860 O   0  0  0  0  0  0  0  0  0  0  0  0
   -1.8870   -0.7820   -0.7070 C   0  0  0  0  0  0  0  0  0  0  0  0
   -0.9960   -1.3950   -1.4310 O   0  0  0  0  0  0  0  0  0  0  0  0
   -3.2050   -1.2110   -0.9080 N   0  0  0  0  0  0  0  0  0  0  0  0
   -3.5070   -2.2280   -1.9410 C   0  0  0  0  0  0  0  0  0  0  0  0
   -4.5590   -3.0620   -1.2500 C   0  0  0  0  0  0  0  0  0  0  0  0
   -5.4860   -1.9220   -0.7950 C   0  0  0  0  0  0  0  0  0  0  0  0
   -4.4350   -0.8910   -0.2820 C   0  0  0  0  0  0  0  0  0  0  0  0
  1  2  2  0
  2  3  1  0
  2  9  1  0
  3  4  1  0
  4  5  2  0
  4  8  1  0
  5  6  1  0
  6  7  1  0
  7  8  2  0
  8  9  1  0
  9 10  2  3
 10 11  1  0
 11 12  2  3
 12 13  1  0
 13 14  2  3
 13 20  1  0
 14 15  1  0
 15 16  2  0
 15 19  1  0
 16 17  1  0
 17 18  2  0
 18 19  1  0
 20 21  2  0
 20 22  1  0
 22 23  1  0
 22 26  1  0
 23 24  1  0
 24 25  1  0
 25 26  1  0
M  END
