
     RDKit          3D

 26 30  0  0  0  0  0  0  0  0999 V2000
    5.9950   -1.3720   -1.1480 C   0  0  0  0  0  0  0  0  0  0  0  0
    5.4170    0.0100   -1.3470 C   0  0  0  0  0  0  0  0  0  0  0  0
    4.1210    0.0140   -0.8420 O   0  0  0  0  0  0  0  0  0  0  0  0
    4.1730   -0.3050    0.5120 C   0  0  2  0  0  0  0  0  0  0  0  0
    3.2440   -1.4470    0.7730 C   0  0  0  0  0  0  0  0  0  0  0  0
    2.0320   -0.7900    1.3310 C   0  0  0  0  0  0  0  0  0  0  0  0
    1.0620   -1.3880    1.8480 O   0  0  0  0  0  0  0  0  0  0  0  0
    2.1620    0.6080    1.1780 N   0  0  0  0  0  0  0  0  0  0  0  0
    1.1290    1.6090    0.9840 C   0  0  2  0  0  0  0  0  0  0  0  0
    0.3280    1.6970    2.2520 C   0  0  0  0  0  0  0  0  0  0  0  0
   -0.5810    0.6190    2.2840 O   0  0  0  0  0  0  0  0  0  0  0  0
   -1.4690    0.5010    1.2010 C   0  0  0  0  0  0  0  0  0  0  0  0
   -2.7580    0.0210    1.3320 C   0  0  0  0  0  0  0  0  0  0  0  0
   -3.6180   -0.0890    0.2590 C   0  0  0  0  0  0  0  0  0  0  0  0
   -3.1850    0.2920   -0.9930 C   0  0  0  0  0  0  0  0  0  0  0  0
   -1.8980    0.7710   -1.1230 C   0  0  0  0  0  0  0  0  0  0  0  0
   -1.0340    0.8830   -0.0560 C   0  0  0  0  0  0  0  0  0  0  0  0
    0.3310    1.3980   -0.2470 C   0  0  0  0  0  0  0  0  0  0  0  0
   -4.2750    0.0830   -1.9700 C   0  0  0  0  0  0  0  0  0  0  0  0
   -4.2140    0.3280   -3.2050 O   0  0  0  0  0  0  0  0  0  0  0  0
   -5.4260   -0.4560   -1.2460 C   0  0  0  0  0  0  0  0  0  0  0  0
   -6.6740   -0.8820   -1.3330 C   0  0  0  0  0  0  0  0  0  0  0  0
   -7.1590   -1.2950    0.0010 C   0  0  0  0  0  0  0  0  0  0  0  0
   -5.9940   -1.0410    0.8750 C   0  0  0  0  0  0  0  0  0  0  0  0
   -5.0040   -0.5580    0.1440 C   0  0  0  0  0  0  0  0  0  0  0  0
    3.5700    0.8980    1.2480 C   0  0  0  0  0  0  0  0  0  0  0  0
  1  2  1  0
  2  3  1  0
  4  3  1  6
  4  5  1  0
  4 26  1  0
  5  6  1  0
  6  7  2  0
  6  8  1  0
  9  8  1  1
  8 26  1  0
  9 10  1  0
  9 18  1  0
 10 11  1  0
 11 12  1  0
 12 13  2  0
 12 17  1  0
 13 14  1  0
 14 15  2  0
 14 25  1  0
 15 16  1  0
 15 19  1  0
 16 17  2  0
 17 18  1  0
 19 20  2  0
 19 21  1  0
 21 22  2  0
 21 25  1  0
 22 23  1  0
 23 24  1  0
 24 25  2  0
M  END
