
     RDKit          3D

 26 29  0  0  0  0  0  0  0  0999 V2000
   -6.6780    0.1280    1.3250 C   0  0  0  0  0  0  0  0  0  0  0  0
   -5.5280   -0.3130    0.4760 C   0  0  0  0  0  0  0  0  0  0  0  0
   -5.3620   -1.6340    0.0910 C   0  0  0  0  0  0  0  0  0  0  0  0
   -4.2780   -2.0140   -0.7010 C   0  0  0  0  0  0  0  0  0  0  0  0
   -3.3550   -1.0810   -1.1150 C   0  0  0  0  0  0  0  0  0  0  0  0
   -3.5090    0.2370   -0.7380 C   0  0  0  0  0  0  0  0  0  0  0  0
   -4.5870    0.6090    0.0490 C   0  0  0  0  0  0  0  0  0  0  0  0
   -2.4790    1.1950   -1.2150 C   0  0  0  0  0  0  0  0  0  0  0  0
   -1.9250    0.8390   -2.5540 C   0  0  0  0  0  0  0  0  0  0  0  0
   -2.0920   -0.4590   -2.9530 O   0  0  0  0  0  0  0  0  0  0  0  0
   -2.1740   -1.4000   -1.9590 C   0  0  1  0  0  0  0  0  0  0  0  0
   -0.9400   -1.4010   -1.1030 C   0  0  0  0  0  0  0  0  0  0  0  0
   -0.8290   -2.1950   -0.1350 O   0  0  0  0  0  0  0  0  0  0  0  0
    0.1220   -0.5420   -1.3310 O   0  0  0  0  0  0  0  0  0  0  0  0
    1.2630   -0.5750   -0.5050 C   0  0  0  0  0  0  0  0  0  0  0  0
    2.2330    0.4400   -0.9710 C   0  0  0  0  0  0  0  0  0  0  0  0
    1.9320    1.1410   -1.9660 O   0  0  0  0  0  0  0  0  0  0  0  0
    3.5120    0.6410   -0.3120 C   0  0  0  0  0  0  0  0  0  0  0  0
    4.3830    1.5960   -0.7800 C   0  0  0  0  0  0  0  0  0  0  0  0
    5.6130    1.8100   -0.1690 C   0  0  0  0  0  0  0  0  0  0  0  0
    5.9800    1.0650    0.9200 C   0  0  0  0  0  0  0  0  0  0  0  0
    5.1320    0.1030    1.4130 C   0  0  0  0  0  0  0  0  0  0  0  0
    3.9050   -0.0950    0.7850 C   0  0  0  0  0  0  0  0  0  0  0  0
    5.8150   -0.5100    2.5720 C   0  0  0  0  0  0  0  0  0  0  0  0
    7.1010    0.2230    2.6400 C   0  0  0  0  0  0  0  0  0  0  0  0
    7.1640    1.1010    1.6990 N   0  0  0  0  0  0  0  0  0  0  0  0
  1  2  1  0
  2  3  2  0
  2  7  1  0
  3  4  1  0
  4  5  2  0
  5  6  1  0
  5 11  1  0
  6  7  2  0
  6  8  1  0
  8  9  1  0
  9 10  1  0
 10 11  1  0
 11 12  1  1
 12 13  2  0
 12 14  1  0
 14 15  1  0
 15 16  1  0
 16 17  2  0
 16 18  1  0
 18 19  2  0
 18 23  1  0
 19 20  1  0
 20 21  2  0
 21 22  1  0
 21 26  1  0
 22 23  2  0
 22 24  1  0
 24 25  1  0
 25 26  2  0
M  END
