
     RDKit          3D

 25 28  0  0  0  0  0  0  0  0999 V2000
   -1.2620   -2.5910   -0.3480 C   0  0  0  0  0  0  0  0  0  0  0  0
   -1.0960   -1.4840    0.5580 O   0  0  0  0  0  0  0  0  0  0  0  0
   -2.2500   -0.7700    0.8230 C   0  0  0  0  0  0  0  0  0  0  0  0
   -3.3370   -1.4590    1.2540 C   0  0  0  0  0  0  0  0  0  0  0  0
   -4.5800   -0.7680    1.5480 C   0  0  0  0  0  0  0  0  0  0  0  0
   -5.6990   -1.4510    1.9890 C   0  0  0  0  0  0  0  0  0  0  0  0
   -6.8830   -0.8270    2.2740 C   0  0  0  0  0  0  0  0  0  0  0  0
   -6.9650    0.5430    2.1150 C   0  0  0  0  0  0  0  0  0  0  0  0
   -5.8820    1.2690    1.6800 C   0  0  0  0  0  0  0  0  0  0  0  0
   -4.6880    0.5970    1.3980 C   0  0  0  0  0  0  0  0  0  0  0  0
   -3.5900    1.2830    0.9640 O   0  0  0  0  0  0  0  0  0  0  0  0
   -2.3370    0.6550    0.6590 C   0  0  0  0  0  0  0  0  0  0  0  0
   -1.3660    1.4120    0.2580 C   0  0  0  0  0  0  0  0  0  0  0  0
   -0.0080    1.1350   -0.1210 C   0  0  0  0  0  0  0  0  0  0  0  0
    0.8430    2.0850   -0.5190 N   0  0  0  0  0  0  0  0  0  0  0  0
    2.0870    1.4990   -0.8210 C   0  0  0  0  0  0  0  0  0  0  0  0
    3.2840    2.0500   -0.9140 C   0  0  0  0  0  0  0  0  0  0  0  0
    4.4650    1.2320   -1.2480 C   0  0  0  0  0  0  0  0  0  0  0  0
    4.5400    0.1850   -2.1410 C   0  0  0  0  0  0  0  0  0  0  0  0
    5.8320   -0.2990   -2.1460 C   0  0  0  0  0  0  0  0  0  0  0  0
    6.5080    0.4890   -1.2360 C   0  0  0  0  0  0  0  0  0  0  0  0
    7.9450    0.3270   -0.9120 C   0  0  0  0  0  0  0  0  0  0  0  0
    5.6730    1.3630   -0.7420 O   0  0  0  0  0  0  0  0  0  0  0  0
    1.7630    0.0490   -1.0170 C   0  0  0  0  0  0  0  0  0  0  0  0
    0.6570   -0.0600   -0.1550 O   0  0  0  0  0  0  0  0  0  0  0  0
  1  2  1  0
  2  3  1  0
  3  4  2  0
  3 12  1  0
  4  5  1  0
  5  6  2  0
  5 10  1  0
  6  7  1  0
  7  8  2  0
  8  9  1  0
  9 10  2  0
 10 11  1  0
 11 12  1  0
 12 13  2  3
 13 14  1  0
 14 15  2  0
 14 25  1  0
 15 16  1  0
 16 17  2  3
 16 24  1  0
 17 18  1  0
 18 19  2  0
 18 23  1  0
 19 20  1  0
 20 21  2  0
 21 22  1  0
 21 23  1  0
 24 25  1  0
M  END
