
     RDKit          3D

 26 29  0  0  0  0  0  0  0  0999 V2000
    6.2180   -1.3530   -0.2630 C   0  0  0  0  0  0  0  0  0  0  0  0
    5.3050   -1.1860    0.9120 C   0  0  0  0  0  0  0  0  0  0  0  0
    3.9030   -0.8840    0.5220 C   0  0  0  0  0  0  0  0  0  0  0  0
    2.9540   -1.8800    0.6030 C   0  0  0  0  0  0  0  0  0  0  0  0
    1.6370   -1.6170    0.2430 C   0  0  0  0  0  0  0  0  0  0  0  0
    1.3290   -0.3590   -0.1830 C   0  0  0  0  0  0  0  0  0  0  0  0
    2.2830    0.6400   -0.2650 C   0  0  0  0  0  0  0  0  0  0  0  0
    3.6130    0.3920    0.0930 C   0  0  0  0  0  0  0  0  0  0  0  0
    4.6360    1.4760   -0.0000 C   0  0  0  0  0  0  0  0  0  0  0  0
    1.9730    1.9870   -0.7260 C   0  0  0  0  0  0  0  0  0  0  0  0
    0.5260    2.1930   -1.0790 C   0  0  0  0  0  0  0  0  0  0  0  0
   -0.0880    0.9250   -1.6430 C   0  0  0  0  0  0  0  0  0  0  0  0
   -0.0560   -0.0370   -0.5460 N   0  0  0  0  0  0  0  0  0  0  0  0
   -1.1080   -0.6580    0.1120 C   0  0  0  0  0  0  0  0  0  0  0  0
   -0.9240   -1.6790    0.8850 O   0  0  0  0  0  0  0  0  0  0  0  0
   -2.4980   -0.2880    0.0420 C   0  0  0  0  0  0  0  0  0  0  0  0
   -3.5150   -1.1560    0.4350 C   0  0  0  0  0  0  0  0  0  0  0  0
   -4.8260   -0.8160    0.4540 C   0  0  0  0  0  0  0  0  0  0  0  0
   -5.7790   -1.7590    0.8660 O   0  0  0  0  0  0  0  0  0  0  0  0
   -5.3610   -3.0580    1.2580 C   0  0  0  0  0  0  0  0  0  0  0  0
   -5.2270    0.4370    0.0770 C   0  0  0  0  0  0  0  0  0  0  0  0
   -4.2570    1.3230   -0.3160 C   0  0  0  0  0  0  0  0  0  0  0  0
   -2.8960    0.9610   -0.3330 C   0  0  0  0  0  0  0  0  0  0  0  0
   -4.9260    2.4890   -0.6380 O   0  0  0  0  0  0  0  0  0  0  0  0
   -6.2310    2.4390   -0.0900 C   0  0  0  0  0  0  0  0  0  0  0  0
   -6.4720    1.0460   -0.0010 O   0  0  0  0  0  0  0  0  0  0  0  0
  1  2  1  0
  2  3  1  0
  3  4  2  0
  3  8  1  0
  4  5  1  0
  5  6  2  0
  6  7  1  0
  6 13  1  0
  7  8  2  0
  7 10  1  0
  8  9  1  0
 10 11  1  0
 11 12  1  0
 12 13  1  0
 13 14  1  0
 14 15  2  0
 14 16  1  0
 16 17  2  0
 16 23  1  0
 17 18  1  0
 18 19  1  0
 18 21  2  0
 19 20  1  0
 21 22  1  0
 21 26  1  0
 22 23  2  0
 22 24  1  0
 24 25  1  0
 25 26  1  0
M  END
