
     RDKit          3D

 25 29  0  0  0  0  0  0  0  0999 V2000
    0.2100   -2.9990    2.8300 O   0  0  0  0  0  0  0  0  0  0  0  0
   -0.3290   -2.1720    2.0470 C   0  0  0  0  0  0  0  0  0  0  0  0
   -1.6560   -1.9340    1.7500 N   0  0  0  0  0  0  0  0  0  0  0  0
   -1.8250   -0.9590    0.8670 C   0  0  0  0  0  0  0  0  0  0  0  0
   -3.1620   -0.5890    0.4420 C   0  0  0  0  0  0  0  0  0  0  0  0
   -4.2010   -1.4780    0.7550 C   0  0  0  0  0  0  0  0  0  0  0  0
   -5.5020   -1.3470    0.3690 C   0  0  0  0  0  0  0  0  0  0  0  0
   -5.7990   -0.2450   -0.3910 C   0  0  0  0  0  0  0  0  0  0  0  0
   -4.8130    0.6620   -0.7260 C   0  0  0  0  0  0  0  0  0  0  0  0
   -3.4940    0.5050   -0.3180 C   0  0  0  0  0  0  0  0  0  0  0  0
   -2.7870    1.5790   -0.8110 O   0  0  0  0  0  0  0  0  0  0  0  0
   -3.7130    2.5850   -1.1430 C   0  0  0  0  0  0  0  0  0  0  0  0
   -4.8900    1.8350   -1.4770 O   0  0  0  0  0  0  0  0  0  0  0  0
   -0.5130   -0.4810    0.5070 C   0  0  0  0  0  0  0  0  0  0  0  0
   -0.0550    0.4780   -0.3740 C   0  0  0  0  0  0  0  0  0  0  0  0
    1.3200    0.6500   -0.4770 C   0  0  0  0  0  0  0  0  0  0  0  0
    2.2280   -0.0660    0.2300 C   0  0  0  0  0  0  0  0  0  0  0  0
    3.6560    0.1550    0.0870 C   0  0  0  0  0  0  0  0  0  0  0  0
    4.4980   -0.9280    0.2680 C   0  0  0  0  0  0  0  0  0  0  0  0
    5.8550   -0.7870    0.1480 C   0  0  0  0  0  0  0  0  0  0  0  0
    6.3820    0.4490   -0.1580 C   0  0  0  0  0  0  0  0  0  0  0  0
    5.5500    1.5290   -0.3390 C   0  0  0  0  0  0  0  0  0  0  0  0
    4.2000    1.3700   -0.2150 C   0  0  0  0  0  0  0  0  0  0  0  0
    1.7790   -1.0190    1.1020 C   0  0  0  0  0  0  0  0  0  0  0  0
    0.4260   -1.2220    1.2340 C   0  0  0  0  0  0  0  0  0  0  0  0
  1  2  2  0
  2  3  1  0
  2 25  1  0
  3  4  2  0
  4  5  1  0
  4 14  1  0
  5  6  2  0
  5 10  1  0
  6  7  1  0
  7  8  2  0
  8  9  1  0
  9 10  2  0
  9 13  1  0
 10 11  1  0
 11 12  1  0
 12 13  1  0
 14 15  2  0
 14 25  1  0
 15 16  1  0
 16 17  2  0
 17 18  1  0
 17 24  1  0
 18 19  2  0
 18 23  1  0
 19 20  1  0
 20 21  2  0
 21 22  1  0
 22 23  2  0
 24 25  2  0
M  END
