
     RDKit          3D

 13 13  0  0  0  0  0  0  0  0999 V2000
    3.2780   -1.3200    0.5340 C   0  0  0  0  0  0  0  0  0  0  0  0
    2.2350   -1.2360   -0.3800 O   0  0  0  0  0  0  0  0  0  0  0  0
    1.1750   -0.4900    0.0610 C   0  0  2  0  0  0  0  0  0  0  0  0
    0.0060   -1.2610    0.0600 O   0  0  0  0  0  0  0  0  0  0  0  0
   -1.0420   -0.5700    0.6470 C   0  0  2  0  0  0  0  0  0  0  0  0
   -2.2660   -1.4580    0.5570 C   0  0  0  0  0  0  0  0  0  0  0  0
   -3.3860   -0.8330    1.1320 O   0  0  0  0  0  0  0  0  0  0  0  0
   -1.3230    0.7520    0.0240 C   0  0  2  0  0  0  0  0  0  0  0  0
   -2.1580    0.6570   -1.0970 O   0  0  0  0  0  0  0  0  0  0  0  0
   -0.0790    1.5520   -0.2680 C   0  0  2  0  0  0  0  0  0  0  0  0
   -0.3690    2.6330   -1.0790 O   0  0  0  0  0  0  0  0  0  0  0  0
    0.9290    0.6320   -0.9290 C   0  0  1  0  0  0  0  0  0  0  0  0
    2.1100    1.3020   -1.2400 O   0  0  0  0  0  0  0  0  0  0  0  0
  1  2  1  0
  3  2  1  6
  3  4  1  0
  3 12  1  0
  4  5  1  0
  5  6  1  6
  5  8  1  0
  6  7  1  0
  8  9  1  6
  8 10  1  0
 10 11  1  6
 10 12  1  0
 12 13  1  1
M  END
