
     RDKit          3D

 16 17  0  0  0  0  0  0  0  0999 V2000
    4.6880   -0.9400    0.6940 C   0  0  0  0  0  0  0  0  0  0  0  0
    3.9440    0.0550   -0.0740 N   0  0  0  0  0  0  0  0  0  0  0  0
    2.5250    0.0120   -0.0950 C   0  0  0  0  0  0  0  0  0  0  0  0
    1.8260    0.9390   -0.8090 C   0  0  0  0  0  0  0  0  0  0  0  0
    0.4610    0.9070   -0.8370 C   0  0  0  0  0  0  0  0  0  0  0  0
   -0.2270   -0.0640   -0.1400 C   0  0  0  0  0  0  0  0  0  0  0  0
   -1.6840   -0.1160   -0.1550 C   0  0  0  0  0  0  0  0  0  0  0  0
   -2.2840   -1.2960   -0.3320 N   0  0  0  0  0  0  0  0  0  0  0  0
   -3.6110   -1.4710   -0.3640 C   0  0  0  0  0  0  0  0  0  0  0  0
   -4.2740   -3.0760   -0.6030 Cl  0  0  0  0  0  0  0  0  0  0  0  0
   -4.4230   -0.3640   -0.2050 C   0  0  0  0  0  0  0  0  0  0  0  0
   -3.8300    0.8680   -0.0210 C   0  0  0  0  0  0  0  0  0  0  0  0
   -2.4580    1.0080    0.0060 C   0  0  0  0  0  0  0  0  0  0  0  0
   -1.8760    2.2730    0.1950 O   0  0  0  0  0  0  0  0  0  0  0  0
    0.5090   -1.0060    0.5880 C   0  0  0  0  0  0  0  0  0  0  0  0
    1.8430   -0.9490    0.5950 N   0  0  0  0  0  0  0  0  0  0  0  0
  1  2  1  0
  2  3  1  0
  3  4  2  0
  3 16  1  0
  4  5  1  0
  5  6  2  0
  6  7  1  0
  6 15  1  0
  7  8  2  0
  7 13  1  0
  8  9  1  0
  9 10  1  0
  9 11  2  0
 11 12  1  0
 12 13  2  0
 13 14  1  0
 15 16  2  0
M  END
