
     RDKit          3D

 14 15  0  0  0  0  0  0  0  0999 V2000
    2.8680    1.3250    0.2890 C   0  0  0  0  0  0  0  0  0  0  0  0
    2.9380    0.0010   -0.4520 C   0  0  1  0  0  0  0  0  0  0  0  0
    2.5700   -1.0670    0.4720 N   0  0  0  0  0  0  0  0  0  0  0  0
    1.1460   -1.1010    0.4410 C   0  0  0  0  0  0  0  0  0  0  0  0
    0.7090   -0.4780   -0.6430 C   0  0  0  0  0  0  0  0  0  0  0  0
   -0.6970   -0.2660   -1.0910 C   0  0  1  0  0  0  0  0  0  0  0  0
   -0.8960   -0.8510   -2.3310 O   0  0  0  0  0  0  0  0  0  0  0  0
   -1.6180   -0.8210   -0.0260 C   0  0  2  0  0  0  0  0  0  0  0  0
   -3.0510   -0.3280   -0.2560 C   0  0  0  0  0  0  0  0  0  0  0  0
   -2.8990    1.0800    0.0910 N   0  0  0  0  0  0  0  0  0  0  0  0
   -1.8190    1.1370    1.0160 C   0  0  0  0  0  0  0  0  0  0  0  0
   -1.4250    2.2070    1.5660 O   0  0  0  0  0  0  0  0  0  0  0  0
   -1.3140   -0.1440    1.1830 O   0  0  0  0  0  0  0  0  0  0  0  0
    1.8370   -0.0230   -1.3430 O   0  0  0  0  0  0  0  0  0  0  0  0
  2  1  1  1
  2  3  1  0
  2 14  1  0
  3  4  1  0
  4  5  2  0
  5  6  1  0
  5 14  1  0
  6  7  1  6
  6  8  1  0
  8  9  1  6
  8 13  1  0
  9 10  1  0
 10 11  1  0
 11 12  2  0
 11 13  1  0
M  END
