
     RDKit          3D

 13 13  0  0  0  0  0  0  0  0999 V2000
    4.4940   -0.5920    0.5100 N   0  0  0  0  0  0  0  0  0  0  0  0
    3.3640    0.1540    0.0760 C   0  0  0  0  0  0  0  0  0  0  0  0
    2.2390    0.1230    0.7540 C   0  0  0  0  0  0  0  0  0  0  0  0
    2.1730   -0.6630    1.9160 O   0  0  0  0  0  0  0  0  0  0  0  0
    1.0580    0.8760    0.3460 C   0  0  0  0  0  0  0  0  0  0  0  0
   -0.1120    0.0770    0.0790 N   0  0  0  0  0  0  0  0  0  0  0  0
    0.0610   -0.6890   -1.0850 C   0  0  0  0  0  0  0  0  0  0  0  0
   -1.1030   -0.4410   -2.0260 C   0  0  0  0  0  0  0  0  0  0  0  0
   -2.2530   -0.7540   -1.3220 O   0  0  0  0  0  0  0  0  0  0  0  0
   -2.5140    0.2860   -0.4460 C   0  0  1  0  0  0  0  0  0  0  0  0
   -3.6110   -0.1800    0.5000 C   0  0  0  0  0  0  0  0  0  0  0  0
   -3.2450   -1.3000    1.2180 O   0  0  0  0  0  0  0  0  0  0  0  0
   -1.3170    0.7630    0.3020 C   0  0  0  0  0  0  0  0  0  0  0  0
  1  2  1  0
  2  3  2  3
  3  4  1  0
  3  5  1  0
  5  6  1  0
  6  7  1  0
  6 13  1  0
  7  8  1  0
  8  9  1  0
  9 10  1  0
 10 11  1  1
 10 13  1  0
 11 12  1  0
M  END
