
     RDKit          3D

 14 15  0  0  0  0  0  0  0  0999 V2000
    0.9980    1.8450    0.7720 N   0  0  0  0  0  0  0  0  0  0  0  0
    1.5370    0.6820    0.1800 C   0  0  0  0  0  0  0  0  0  0  0  0
    2.8590    0.5360    0.0270 C   0  0  0  0  0  0  0  0  0  0  0  0
    3.4190   -0.6620   -0.5820 C   0  0  0  0  0  0  0  0  0  0  0  0
    2.5750   -1.5980   -0.9790 C   0  0  0  0  0  0  0  0  0  0  0  0
    1.1890   -1.4920   -0.8410 O   0  0  0  0  0  0  0  0  0  0  0  0
    0.6280   -0.3640   -0.2650 C   0  0  0  0  0  0  0  0  0  0  0  0
   -0.6860   -0.2510   -0.1280 C   0  0  0  0  0  0  0  0  0  0  0  0
   -1.4050    0.8020    0.4230 O   0  0  0  0  0  0  0  0  0  0  0  0
   -2.7410    0.4090    0.6740 C   0  0  1  0  0  0  0  0  0  0  0  0
   -3.6570    1.4040    0.3390 O   0  0  0  0  0  0  0  0  0  0  0  0
   -2.9880   -0.7190   -0.2080 N   0  0  0  0  0  0  0  0  0  0  0  0
   -1.6940   -1.2230   -0.5310 C   0  0  0  0  0  0  0  0  0  0  0  0
   -1.4880   -2.3360   -1.0780 O   0  0  0  0  0  0  0  0  0  0  0  0
  1  2  1  0
  2  3  2  0
  2  7  1  0
  3  4  1  0
  4  5  2  0
  5  6  1  0
  6  7  1  0
  7  8  2  3
  8  9  1  0
  8 13  1  0
  9 10  1  0
 10 11  1  6
 10 12  1  0
 12 13  1  0
 13 14  2  0
M  END
