
     RDKit          3D

 26 27  0  0  0  0  0  0  0  0999 V2000
   -1.2440   -0.7550    1.4210 C   0  0  0  0  0  0  0  0  0  0  0  0
   -0.7700   -0.1070    0.4240 C   0  0  0  0  0  0  0  0  0  0  0  0
    0.5950   -0.4720   -0.0060 C   0  0  0  0  0  0  0  0  0  0  0  0
    0.8470   -1.6880   -0.2340 C   0  0  0  0  0  0  0  0  0  0  0  0
   -0.3720   -2.9750   -0.0530 S   0  0  0  0  0  0  0  0  0  0  0  0
    0.3830   -4.5790    0.2940 C   0  0  0  0  0  0  0  0  0  0  0  0
    1.6420    0.5980   -0.1380 C   0  0  0  0  0  0  0  0  0  0  0  0
    2.9830    0.1300    0.1570 C   0  0  0  0  0  0  0  0  0  0  0  0
    3.2300   -1.0700    0.5230 O   0  0  0  0  0  0  0  0  0  0  0  0
    4.1570    0.9290    0.0750 N   0  0  0  0  0  0  0  0  0  0  0  0
    5.4500    0.4010    0.3810 C   0  0  0  0  0  0  0  0  0  0  0  0
    5.6470   -1.1530    0.8410 S   0  0  0  0  0  0  0  0  0  0  0  0
    6.5470    1.2090    0.2870 O   0  0  0  0  0  0  0  0  0  0  0  0
    7.8660    0.8270    0.5350 C   0  0  0  0  0  0  0  0  0  0  0  0
    1.4540    1.8820   -0.4780 C   0  0  0  0  0  0  0  0  0  0  0  0
    0.1900    2.5620   -0.8050 C   0  0  0  0  0  0  0  0  0  0  0  0
   -1.0890    2.1750   -0.6280 C   0  0  0  0  0  0  0  0  0  0  0  0
   -2.0060    3.1450   -1.1010 N   0  0  0  0  0  0  0  0  0  0  0  0
   -3.2410    2.8480   -1.0890 C   0  0  0  0  0  0  0  0  0  0  0  0
   -3.8040    1.5500   -0.6160 C   0  0  0  0  0  0  0  0  0  0  0  0
   -5.2490    1.4610   -0.6160 C   0  0  0  0  0  0  0  0  0  0  0  0
   -5.9770    1.5350   -2.2620 Cl  0  0  0  0  0  0  0  0  0  0  0  0
   -3.0050    0.6050   -0.1520 C   0  0  0  0  0  0  0  0  0  0  0  0
   -3.3740   -0.7040    0.3130 C   0  0  0  0  0  0  0  0  0  0  0  0
   -4.6890   -1.1150   -0.1600 N   0  0  0  0  0  0  0  0  0  0  0  0
   -1.5810    0.9190   -0.1510 N   0  0  0  0  0  0  0  0  0  0  0  0
  1  2  2  0
  2  3  1  0
  2 26  1  0
  3  4  2  3
  3  7  1  0
  4  5  1  0
  5  6  1  0
  7  8  1  0
  7 15  2  0
  8  9  2  0
  8 10  1  0
 10 11  1  0
 11 12  2  0
 11 13  1  0
 13 14  1  0
 15 16  1  0
 16 17  2  0
 17 18  1  0
 17 26  1  0
 18 19  2  0
 19 20  1  0
 20 21  1  0
 20 23  2  0
 21 22  1  0
 23 24  1  0
 23 26  1  0
 24 25  1  0
M  CHG  1  25   1
M  END
