
     RDKit          3D

 14 15  0  0  0  0  0  0  0  0999 V2000
    4.0120    1.0900   -0.6330 O   0  0  0  0  0  0  0  0  0  0  0  0
    2.9930    0.3910   -0.3480 C   0  0  0  0  0  0  0  0  0  0  0  0
    2.9950   -1.0560   -0.6750 C   0  0  0  0  0  0  0  0  0  0  0  0
    1.6590   -1.4800   -0.8800 O   0  0  0  0  0  0  0  0  0  0  0  0
    0.6010   -0.9540   -0.1540 C   0  0  0  0  0  0  0  0  0  0  0  0
   -0.5700   -1.5640   -0.1100 C   0  0  0  0  0  0  0  0  0  0  0  0
   -1.6410   -0.9580    0.6710 C   0  0  0  0  0  0  0  0  0  0  0  0
   -2.5050   -1.6720    1.2740 O   0  0  0  0  0  0  0  0  0  0  0  0
   -1.6780    0.5270    0.7320 C   0  0  2  0  0  0  0  0  0  0  0  0
   -2.8060    0.9550   -0.2160 C   0  0  0  0  0  0  0  0  0  0  0  0
   -2.5080    0.5560   -1.5260 O   0  0  0  0  0  0  0  0  0  0  0  0
   -0.4450    1.0810    0.4000 N   0  0  0  0  0  0  0  0  0  0  0  0
    0.7200    0.3140    0.6100 C   0  0  2  0  0  0  0  0  0  0  0  0
    1.8980    1.0280    0.2710 N   0  0  0  0  0  0  0  0  0  0  0  0
  1  2  2  0
  2  3  1  0
  2 14  1  0
  3  4  1  0
  4  5  1  0
  5  6  2  0
  5 13  1  0
  6  7  1  0
  7  8  2  0
  7  9  1  0
  9 10  1  6
  9 12  1  0
 10 11  1  0
 13 12  1  6
 13 14  1  0
M  END
