
     RDKit          3D

 25 29  0  0  0  0  0  0  0  0999 V2000
    0.0030    3.2810    1.6300 O   0  0  0  0  0  0  0  0  0  0  0  0
   -0.3670    2.1810    1.0790 C   0  0  0  0  0  0  0  0  0  0  0  0
   -1.6770    1.7170    0.9430 N   0  0  0  0  0  0  0  0  0  0  0  0
   -1.7390    0.5480    0.3280 C   0  0  0  0  0  0  0  0  0  0  0  0
   -2.9850   -0.1530    0.0620 C   0  0  0  0  0  0  0  0  0  0  0  0
   -3.1550   -1.3440   -0.5610 C   0  0  0  0  0  0  0  0  0  0  0  0
   -4.4090   -1.9450   -0.7750 C   0  0  0  0  0  0  0  0  0  0  0  0
   -5.5330   -1.3040   -0.3350 C   0  0  0  0  0  0  0  0  0  0  0  0
   -5.3880   -0.0910    0.3020 C   0  0  0  0  0  0  0  0  0  0  0  0
   -4.1570    0.4870    0.5060 C   0  0  0  0  0  0  0  0  0  0  0  0
   -4.3590    1.7000    1.1720 O   0  0  0  0  0  0  0  0  0  0  0  0
   -5.6450    1.5980    1.8030 C   0  0  0  0  0  0  0  0  0  0  0  0
   -6.3380    0.7790    0.8490 O   0  0  0  0  0  0  0  0  0  0  0  0
   -0.3650    0.1900    0.0220 C   0  0  0  0  0  0  0  0  0  0  0  0
    0.2240   -0.8870   -0.5980 C   0  0  0  0  0  0  0  0  0  0  0  0
    1.6020   -0.9810   -0.7630 C   0  0  0  0  0  0  0  0  0  0  0  0
    2.4160    0.0430   -0.2890 C   0  0  0  0  0  0  0  0  0  0  0  0
    3.8590   -0.0120   -0.4390 C   0  0  0  0  0  0  0  0  0  0  0  0
    4.4740   -1.2600   -0.4150 C   0  0  0  0  0  0  0  0  0  0  0  0
    5.8400   -1.3500   -0.5530 C   0  0  0  0  0  0  0  0  0  0  0  0
    6.6570   -0.2330   -0.7200 C   0  0  0  0  0  0  0  0  0  0  0  0
    6.0300    0.9910   -0.7410 C   0  0  0  0  0  0  0  0  0  0  0  0
    4.6630    1.1020   -0.6040 C   0  0  0  0  0  0  0  0  0  0  0  0
    1.8670    1.1390    0.3380 C   0  0  0  0  0  0  0  0  0  0  0  0
    0.5050    1.1890    0.4790 C   0  0  0  0  0  0  0  0  0  0  0  0
  1  2  2  0
  2  3  1  0
  2 25  1  0
  3  4  2  0
  4  5  1  0
  4 14  1  0
  5  6  2  0
  5 10  1  0
  6  7  1  0
  7  8  2  0
  8  9  1  0
  9 10  2  0
  9 13  1  0
 10 11  1  0
 11 12  1  0
 12 13  1  0
 14 15  2  0
 14 25  1  0
 15 16  1  0
 16 17  2  0
 17 18  1  0
 17 24  1  0
 18 19  2  0
 18 23  1  0
 19 20  1  0
 20 21  2  0
 21 22  1  0
 22 23  2  0
 24 25  2  0
M  END
