
     RDKit          3D

 13 13  0  0  0  0  0  0  0  0999 V2000
    3.1410    1.2910   -0.5450 C   0  0  0  0  0  0  0  0  0  0  0  0
    2.1660    1.0790    0.3680 O   0  0  0  0  0  0  0  0  0  0  0  0
    1.1470    0.2640    0.1100 C   0  0  2  0  0  0  0  0  0  0  0  0
   -0.0290    1.0310    0.1230 O   0  0  0  0  0  0  0  0  0  0  0  0
   -0.9060    0.4290   -0.7520 C   0  0  2  0  0  0  0  0  0  0  0  0
   -2.2150    1.2180   -0.6780 C   0  0  0  0  0  0  0  0  0  0  0  0
   -1.9780    2.5410   -1.0440 O   0  0  0  0  0  0  0  0  0  0  0  0
   -1.0970   -1.0150   -0.4940 C   0  0  2  0  0  0  0  0  0  0  0  0
   -2.4830   -1.2610   -0.4090 O   0  0  0  0  0  0  0  0  0  0  0  0
   -0.4070   -1.5570    0.7100 C   0  0  2  0  0  0  0  0  0  0  0  0
   -1.3040   -1.4970    1.7920 O   0  0  0  0  0  0  0  0  0  0  0  0
    0.9050   -0.8860    1.0290 C   0  0  1  0  0  0  0  0  0  0  0  0
    1.8920   -1.8410    1.0310 O   0  0  0  0  0  0  0  0  0  0  0  0
  1  2  1  0
  3  2  1  1
  3  4  1  0
  3 12  1  0
  4  5  1  0
  5  6  1  1
  5  8  1  0
  6  7  1  0
  8  9  1  1
  8 10  1  0
 10 11  1  1
 10 12  1  0
 12 13  1  6
M  END
