
     RDKit          3D

 25 28  0  0  0  0  0  0  0  0999 V2000
   -0.8880    2.2730   -0.9380 C   0  0  0  0  0  0  0  0  0  0  0  0
   -1.0630    1.2510    0.0570 O   0  0  0  0  0  0  0  0  0  0  0  0
   -2.2950    0.6180    0.1680 C   0  0  0  0  0  0  0  0  0  0  0  0
   -3.4070    1.3840    0.1230 C   0  0  0  0  0  0  0  0  0  0  0  0
   -4.7430    0.8250    0.2280 C   0  0  0  0  0  0  0  0  0  0  0  0
   -5.8790    1.6230    0.1800 C   0  0  0  0  0  0  0  0  0  0  0  0
   -7.1500    1.0920    0.2800 C   0  0  0  0  0  0  0  0  0  0  0  0
   -7.3280   -0.2650    0.4330 C   0  0  0  0  0  0  0  0  0  0  0  0
   -6.2170   -1.0710    0.4840 C   0  0  0  0  0  0  0  0  0  0  0  0
   -4.9370   -0.5310    0.3820 C   0  0  0  0  0  0  0  0  0  0  0  0
   -3.8120   -1.3110    0.4290 O   0  0  0  0  0  0  0  0  0  0  0  0
   -2.4810   -0.8020    0.3280 C   0  0  0  0  0  0  0  0  0  0  0  0
   -1.4960   -1.6480    0.3860 C   0  0  0  0  0  0  0  0  0  0  0  0
   -0.0710   -1.4400    0.3150 C   0  0  0  0  0  0  0  0  0  0  0  0
    0.6300   -0.4010    0.1780 N   0  0  0  0  0  0  0  0  0  0  0  0
    2.0220   -0.6700    0.1550 C   0  0  0  0  0  0  0  0  0  0  0  0
    2.9650    0.2270    0.2630 C   0  0  0  0  0  0  0  0  0  0  0  0
    4.3900   -0.0540    0.2420 C   0  0  0  0  0  0  0  0  0  0  0  0
    5.0540   -1.0280    0.9230 C   0  0  0  0  0  0  0  0  0  0  0  0
    6.4060   -0.9130    0.5840 C   0  0  0  0  0  0  0  0  0  0  0  0
    6.4820    0.1390   -0.2920 C   0  0  0  0  0  0  0  0  0  0  0  0
    7.7350    0.6530   -0.9410 C   0  0  0  0  0  0  0  0  0  0  0  0
    5.2920    0.6070   -0.4630 O   0  0  0  0  0  0  0  0  0  0  0  0
    2.0850   -2.1240   -0.0450 C   0  0  0  0  0  0  0  0  0  0  0  0
    0.8250   -2.5390    0.4050 O   0  0  0  0  0  0  0  0  0  0  0  0
  1  2  1  0
  2  3  1  0
  3  4  2  0
  3 12  1  0
  4  5  1  0
  5  6  2  0
  5 10  1  0
  6  7  1  0
  7  8  2  0
  8  9  1  0
  9 10  2  0
 10 11  1  0
 11 12  1  0
 12 13  2  3
 13 14  1  0
 14 15  2  0
 14 25  1  0
 15 16  1  0
 16 17  2  3
 16 24  1  0
 17 18  1  0
 18 19  2  0
 18 23  1  0
 19 20  1  0
 20 21  2  0
 21 22  1  0
 21 23  1  0
 24 25  1  0
M  END
