
     RDKit          3D

 26 29  0  0  0  0  0  0  0  0999 V2000
   -5.4860    2.6370    0.3480 C   0  0  0  0  0  0  0  0  0  0  0  0
   -4.6820    1.4160    0.2240 C   0  0  0  0  0  0  0  0  0  0  0  0
   -4.3860    0.6410    1.3380 C   0  0  0  0  0  0  0  0  0  0  0  0
   -3.6300   -0.5010    1.1990 C   0  0  0  0  0  0  0  0  0  0  0  0
   -3.1670   -0.8710   -0.0700 C   0  0  0  0  0  0  0  0  0  0  0  0
   -3.4560   -0.1110   -1.1800 C   0  0  0  0  0  0  0  0  0  0  0  0
   -4.2090    1.0280   -1.0390 C   0  0  0  0  0  0  0  0  0  0  0  0
   -2.9290   -0.5760   -2.4820 C   0  0  0  0  0  0  0  0  0  0  0  0
   -3.1170   -2.0760   -2.4820 C   0  0  0  0  0  0  0  0  0  0  0  0
   -2.5440   -2.7440   -1.4480 O   0  0  0  0  0  0  0  0  0  0  0  0
   -2.3500   -2.0870   -0.2710 C   0  0  1  0  0  0  0  0  0  0  0  0
   -0.8860   -1.7800   -0.1660 C   0  0  0  0  0  0  0  0  0  0  0  0
   -0.0670   -2.1120   -1.0580 O   0  0  0  0  0  0  0  0  0  0  0  0
   -0.3340   -1.1120    0.9150 O   0  0  0  0  0  0  0  0  0  0  0  0
    1.0150   -0.8310    1.0090 C   0  0  0  0  0  0  0  0  0  0  0  0
    1.5900   -0.0060   -0.0340 C   0  0  0  0  0  0  0  0  0  0  0  0
    0.8960    0.4270   -0.9690 O   0  0  0  0  0  0  0  0  0  0  0  0
    2.9920    0.3320   -0.0050 C   0  0  0  0  0  0  0  0  0  0  0  0
    3.5430    1.1170   -0.9960 C   0  0  0  0  0  0  0  0  0  0  0  0
    4.8780    1.4690   -1.0170 C   0  0  0  0  0  0  0  0  0  0  0  0
    5.7270    1.0330   -0.0160 C   0  0  0  0  0  0  0  0  0  0  0  0
    5.1910    0.2520    0.9740 C   0  0  0  0  0  0  0  0  0  0  0  0
    3.8610   -0.0890    0.9800 C   0  0  0  0  0  0  0  0  0  0  0  0
    6.2930   -0.0950    1.9370 C   0  0  0  0  0  0  0  0  0  0  0  0
    7.4530    0.5920    1.3340 C   0  0  0  0  0  0  0  0  0  0  0  0
    7.1150    1.2090    0.2550 N   0  0  0  0  0  0  0  0  0  0  0  0
  1  2  1  0
  2  3  2  0
  2  7  1  0
  3  4  1  0
  4  5  2  0
  5  6  1  0
  5 11  1  0
  6  7  2  0
  6  8  1  0
  8  9  1  0
  9 10  1  0
 10 11  1  0
 11 12  1  6
 12 13  2  0
 12 14  1  0
 14 15  1  0
 15 16  1  0
 16 17  2  0
 16 18  1  0
 18 19  2  0
 18 23  1  0
 19 20  1  0
 20 21  2  0
 21 22  1  0
 21 26  1  0
 22 23  2  0
 22 24  1  0
 24 25  1  0
 25 26  2  0
M  END
