
     RDKit          3D

 26 30  0  0  0  0  0  0  0  0999 V2000
   -5.5030    1.3620   -0.6550 C   0  0  0  0  0  0  0  0  0  0  0  0
   -4.1230    0.7690   -0.5690 C   0  0  0  0  0  0  0  0  0  0  0  0
   -4.1160   -0.3510    0.1310 C   0  0  0  0  0  0  0  0  0  0  0  0
   -5.2990   -0.9670    0.7610 C   0  0  0  0  0  0  0  0  0  0  0  0
   -4.8910   -2.0670    1.3670 C   0  0  0  0  0  0  0  0  0  0  0  0
   -3.4570   -2.2200    1.1680 C   0  0  0  0  0  0  0  0  0  0  0  0
   -2.9840   -1.1990    0.4300 C   0  0  0  0  0  0  0  0  0  0  0  0
   -1.5590   -1.0460    0.0460 C   0  0  0  0  0  0  0  0  0  0  0  0
   -1.2330    0.2080   -0.5500 N   0  0  0  0  0  0  0  0  0  0  0  0
   -0.1960    0.9710    0.0430 C   0  0  0  0  0  0  0  0  0  0  0  0
    0.0970    2.0980   -0.4530 O   0  0  0  0  0  0  0  0  0  0  0  0
    0.5820    0.5260    1.2300 C   0  0  1  0  0  0  0  0  0  0  0  0
    1.4540   -0.6490    0.9220 C   0  0  0  0  0  0  0  0  0  0  0  0
    2.7790   -0.0060    0.6350 C   0  0  0  0  0  0  0  0  0  0  0  0
    2.7450    1.2890    1.0920 C   0  0  0  0  0  0  0  0  0  0  0  0
    3.8860    2.0720    0.9210 C   0  0  0  0  0  0  0  0  0  0  0  0
    5.0310    1.5980    0.3160 C   0  0  0  0  0  0  0  0  0  0  0  0
    5.0260    0.2950   -0.1290 C   0  0  0  0  0  0  0  0  0  0  0  0
    3.9010   -0.5160    0.0270 C   0  0  0  0  0  0  0  0  0  0  0  0
    4.1680   -1.7800   -0.5090 O   0  0  0  0  0  0  0  0  0  0  0  0
    5.2160   -1.6010   -1.4700 C   0  0  0  0  0  0  0  0  0  0  0  0
    6.0550   -0.5310   -0.8090 C   0  0  0  0  0  0  0  0  0  0  0  0
    1.5000    1.5110    1.6490 O   0  0  0  0  0  0  0  0  0  0  0  0
   -1.8040    0.8740   -1.7340 C   0  0  0  0  0  0  0  0  0  0  0  0
   -3.0590    1.5060   -1.2540 C   0  0  0  0  0  0  0  0  0  0  0  0
   -3.2690    2.7180   -1.4160 O   0  0  0  0  0  0  0  0  0  0  0  0
  1  2  1  0
  2  3  2  0
  2 25  1  0
  3  4  1  0
  3  7  1  0
  4  5  2  0
  5  6  1  0
  6  7  2  0
  7  8  1  0
  8  9  1  0
  9 10  1  0
  9 24  1  0
 10 11  2  0
 12 10  1  6
 12 13  1  0
 12 23  1  0
 13 14  1  0
 14 15  2  0
 14 19  1  0
 15 16  1  0
 15 23  1  0
 16 17  2  0
 17 18  1  0
 18 19  2  0
 18 22  1  0
 19 20  1  0
 20 21  1  0
 21 22  1  0
 24 25  1  0
 25 26  2  0
M  END
