
     RDKit          3D

 26 29  0  0  0  0  0  0  0  0999 V2000
   -6.2520    0.5460   -1.1990 C   0  0  0  0  0  0  0  0  0  0  0  0
   -5.5120    0.8850    0.0780 C   0  0  0  0  0  0  0  0  0  0  0  0
   -4.0460    0.7060   -0.0690 C   0  0  0  0  0  0  0  0  0  0  0  0
   -3.2510    1.8180   -0.2090 C   0  0  0  0  0  0  0  0  0  0  0  0
   -1.8810    1.6920   -0.3470 C   0  0  0  0  0  0  0  0  0  0  0  0
   -1.3530    0.4320   -0.3380 C   0  0  0  0  0  0  0  0  0  0  0  0
   -2.1170   -0.7340   -0.1990 C   0  0  0  0  0  0  0  0  0  0  0  0
   -3.4790   -0.5750   -0.0640 C   0  0  0  0  0  0  0  0  0  0  0  0
   -4.3240   -1.7700    0.0840 C   0  0  0  0  0  0  0  0  0  0  0  0
   -1.5270   -2.0810   -0.1920 C   0  0  0  0  0  0  0  0  0  0  0  0
   -0.0520   -2.1560   -0.3880 C   0  0  0  0  0  0  0  0  0  0  0  0
    0.4040   -0.9740   -1.2200 C   0  0  0  0  0  0  0  0  0  0  0  0
    0.0730    0.1950   -0.4520 N   0  0  0  0  0  0  0  0  0  0  0  0
    0.9270    1.1200    0.1710 C   0  0  0  0  0  0  0  0  0  0  0  0
    0.4570    2.2320    0.6460 O   0  0  0  0  0  0  0  0  0  0  0  0
    2.3640    1.0090    0.3800 C   0  0  0  0  0  0  0  0  0  0  0  0
    3.0660   -0.1500    0.2300 C   0  0  0  0  0  0  0  0  0  0  0  0
    4.4520   -0.1380    0.3880 C   0  0  0  0  0  0  0  0  0  0  0  0
    5.1240   -1.3440    0.2240 O   0  0  0  0  0  0  0  0  0  0  0  0
    4.4770   -2.5490   -0.0880 C   0  0  0  0  0  0  0  0  0  0  0  0
    5.1780    0.9900    0.6930 C   0  0  0  0  0  0  0  0  0  0  0  0
    4.4700    2.1630    0.8470 C   0  0  0  0  0  0  0  0  0  0  0  0
    3.1010    2.1600    0.6920 C   0  0  0  0  0  0  0  0  0  0  0  0
    5.4160    3.1480    1.1500 O   0  0  0  0  0  0  0  0  0  0  0  0
    6.7100    2.6660    0.8540 C   0  0  0  0  0  0  0  0  0  0  0  0
    6.5340    1.2490    0.8970 O   0  0  0  0  0  0  0  0  0  0  0  0
  1  2  1  0
  2  3  1  0
  3  4  2  0
  3  8  1  0
  4  5  1  0
  5  6  2  0
  6  7  1  0
  6 13  1  0
  7  8  2  0
  7 10  1  0
  8  9  1  0
 10 11  1  0
 11 12  1  0
 12 13  1  0
 13 14  1  0
 14 15  2  0
 14 16  1  0
 16 17  2  0
 16 23  1  0
 17 18  1  0
 18 19  1  0
 18 21  2  0
 19 20  1  0
 21 22  1  0
 21 26  1  0
 22 23  2  0
 22 24  1  0
 24 25  1  0
 25 26  1  0
M  END
