
     RDKit          3D

 26 29  0  0  0  0  0  0  0  0999 V2000
   -2.4240   -4.5090   -0.6190 C   0  0  0  0  0  0  0  0  0  0  0  0
   -2.6600   -3.2710   -0.2960 C   0  0  0  0  0  0  0  0  0  0  0  0
   -3.9940   -2.8120    0.0990 C   0  0  0  0  0  0  0  0  0  0  0  0
   -4.2390   -1.3530   -0.0030 C   0  0  0  0  0  0  0  0  0  0  0  0
   -3.2410   -0.5910   -0.8050 C   0  0  0  0  0  0  0  0  0  0  0  0
   -1.8470   -0.9710   -0.5780 C   0  0  0  0  0  0  0  0  0  0  0  0
   -1.5580   -2.3000   -0.3260 C   0  0  0  0  0  0  0  0  0  0  0  0
   -0.2440   -2.7130   -0.1040 C   0  0  0  0  0  0  0  0  0  0  0  0
    0.7320   -1.7430   -0.1490 C   0  0  0  0  0  0  0  0  0  0  0  0
    0.4370   -0.4190   -0.4010 C   0  0  0  0  0  0  0  0  0  0  0  0
    1.5550    0.5470   -0.4280 C   0  0  0  0  0  0  0  0  0  0  0  0
    1.3540    1.7680   -0.6520 O   0  0  0  0  0  0  0  0  0  0  0  0
    2.8590    0.1520   -0.2100 O   0  0  0  0  0  0  0  0  0  0  0  0
    3.9570    1.0540   -0.2300 C   0  0  1  0  0  0  0  0  0  0  0  0
    4.8120    0.9190    1.0100 C   0  0  0  0  0  0  0  0  0  0  0  0
    5.7430   -0.1870    0.6480 C   0  0  0  0  0  0  0  0  0  0  0  0
    5.7630   -0.3410   -0.7070 O   0  0  0  0  0  0  0  0  0  0  0  0
    4.9230    0.5650   -1.2920 C   0  0  0  0  0  0  0  0  0  0  0  0
   -0.8610   -0.0070   -0.6210 C   0  0  0  0  0  0  0  0  0  0  0  0
   -1.1380    1.4090   -0.8860 C   0  0  0  0  0  0  0  0  0  0  0  0
   -1.1170    1.7860   -2.1080 O   0  0  0  0  0  0  0  0  0  0  0  0
   -1.4260    2.3620    0.1640 C   0  0  0  0  0  0  0  0  0  0  0  0
   -1.6820    3.6380   -0.0090 C   0  0  0  0  0  0  0  0  0  0  0  0
   -1.9270    4.2800    1.3170 C   0  0  0  0  0  0  0  0  0  0  0  0
   -1.7570    3.1180    2.2330 C   0  0  0  0  0  0  0  0  0  0  0  0
   -1.4770    2.0630    1.5440 N   0  0  0  0  0  0  0  0  0  0  0  0
  1  2  2  0
  2  3  1  0
  2  7  1  0
  3  4  1  0
  4  5  1  0
  5  6  1  0
  6  7  2  0
  6 19  1  0
  7  8  1  0
  8  9  2  0
  9 10  1  0
 10 11  1  0
 10 19  2  0
 11 12  2  0
 11 13  1  0
 14 13  1  1
 14 15  1  0
 14 18  1  0
 15 16  1  0
 16 17  1  0
 17 18  1  0
 19 20  1  0
 20 21  2  0
 20 22  1  0
 22 23  2  0
 22 26  1  0
 23 24  1  0
 24 25  1  0
 25 26  2  0
M  END
