
     RDKit          3D

 26 29  0  0  0  0  0  0  0  0999 V2000
    2.0050   -2.1260    1.7280 O   0  0  0  0  0  0  0  0  0  0  0  0
    3.0640   -1.9230    1.0580 C   0  0  0  0  0  0  0  0  0  0  0  0
    4.2390   -2.6680    1.2240 O   0  0  0  0  0  0  0  0  0  0  0  0
    5.2200   -2.2030    0.3450 C   0  0  0  0  0  0  0  0  0  0  0  0
    6.4900   -2.4310   -0.0160 C   0  0  0  0  0  0  0  0  0  0  0  0
    6.7910   -1.4470   -1.0750 C   0  0  0  0  0  0  0  0  0  0  0  0
    5.5590   -0.6540   -1.2600 C   0  0  0  0  0  0  0  0  0  0  0  0
    4.6600   -1.1130   -0.4230 C   0  0  0  0  0  0  0  0  0  0  0  0
    3.2550   -0.9150    0.0270 C   0  0  0  0  0  0  0  0  0  0  0  0
    2.4360   -0.0070   -0.4530 C   0  0  0  0  0  0  0  0  0  0  0  0
    1.0440    0.1650    0.0130 C   0  0  0  0  0  0  0  0  0  0  0  0
    0.3040    1.0820   -0.5130 C   0  0  0  0  0  0  0  0  0  0  0  0
   -1.0420    1.4780   -0.2850 C   0  0  0  0  0  0  0  0  0  0  0  0
   -1.3970    2.5740   -1.0400 C   0  0  0  0  0  0  0  0  0  0  0  0
   -2.6540    3.2530   -1.0680 C   0  0  0  0  0  0  0  0  0  0  0  0
   -3.2900    3.9540   -0.0720 C   0  0  0  0  0  0  0  0  0  0  0  0
   -4.4870    4.4410   -0.5430 C   0  0  0  0  0  0  0  0  0  0  0  0
   -4.5380    4.0050   -1.8540 C   0  0  0  0  0  0  0  0  0  0  0  0
   -3.4690    3.3230   -2.1290 O   0  0  0  0  0  0  0  0  0  0  0  0
   -2.0560    0.8080    0.4380 C   0  0  0  0  0  0  0  0  0  0  0  0
   -3.1850    1.5030    0.5820 O   0  0  0  0  0  0  0  0  0  0  0  0
   -2.2090   -0.4420    1.0690 N   0  0  0  0  0  0  0  0  0  0  0  0
   -3.3480   -0.7800    1.9790 C   0  0  0  0  0  0  0  0  0  0  0  0
   -3.8600   -2.0400    1.3400 C   0  0  0  0  0  0  0  0  0  0  0  0
   -2.6150   -2.7550    0.8710 C   0  0  0  0  0  0  0  0  0  0  0  0
   -1.5070   -1.6860    0.9680 C   0  0  0  0  0  0  0  0  0  0  0  0
  1  2  2  0
  2  3  1  0
  2  9  1  0
  3  4  1  0
  4  5  2  0
  4  8  1  0
  5  6  1  0
  6  7  1  0
  7  8  2  0
  8  9  1  0
  9 10  2  3
 10 11  1  0
 11 12  2  3
 12 13  1  0
 13 14  2  3
 13 20  1  0
 14 15  1  0
 15 16  2  0
 15 19  1  0
 16 17  1  0
 17 18  2  0
 18 19  1  0
 20 21  2  0
 20 22  1  0
 22 23  1  0
 22 26  1  0
 23 24  1  0
 24 25  1  0
 25 26  1  0
M  END
