
     RDKit          3D

 26 30  0  0  0  0  0  0  0  0999 V2000
   -5.3220   -0.5280   -2.2660 C   0  0  0  0  0  0  0  0  0  0  0  0
   -6.1800   -0.0150   -1.1380 C   0  0  0  0  0  0  0  0  0  0  0  0
   -5.5130    0.7960   -0.2550 O   0  0  0  0  0  0  0  0  0  0  0  0
   -4.4440    0.1920    0.3730 C   0  0  2  0  0  0  0  0  0  0  0  0
   -4.5320    0.3390    1.8940 C   0  0  0  0  0  0  0  0  0  0  0  0
   -3.1050    0.1690    2.2760 C   0  0  0  0  0  0  0  0  0  0  0  0
   -2.7040   -0.2480    3.3910 O   0  0  0  0  0  0  0  0  0  0  0  0
   -2.3160    0.5610    1.1610 N   0  0  0  0  0  0  0  0  0  0  0  0
   -0.8660    0.5560    1.1150 C   0  0  2  0  0  0  0  0  0  0  0  0
   -0.3640    1.9470    0.8990 C   0  0  0  0  0  0  0  0  0  0  0  0
    0.7660    2.0210    0.0570 O   0  0  0  0  0  0  0  0  0  0  0  0
    1.6500    0.9580   -0.0110 C   0  0  0  0  0  0  0  0  0  0  0  0
    3.0200    1.1150   -0.0780 C   0  0  0  0  0  0  0  0  0  0  0  0
    3.8620    0.0300   -0.1430 C   0  0  0  0  0  0  0  0  0  0  0  0
    3.3040   -1.2300   -0.1410 C   0  0  0  0  0  0  0  0  0  0  0  0
    1.9300   -1.4010   -0.0750 C   0  0  0  0  0  0  0  0  0  0  0  0
    1.1080   -0.3120   -0.0100 C   0  0  0  0  0  0  0  0  0  0  0  0
   -0.3760   -0.4140    0.0620 C   0  0  0  0  0  0  0  0  0  0  0  0
    4.4120   -2.2040   -0.2180 C   0  0  0  0  0  0  0  0  0  0  0  0
    4.3100   -3.4530   -0.2390 O   0  0  0  0  0  0  0  0  0  0  0  0
    5.6890   -1.4820   -0.2680 C   0  0  0  0  0  0  0  0  0  0  0  0
    7.0040   -1.5990   -0.3380 C   0  0  0  0  0  0  0  0  0  0  0  0
    7.6010   -0.2530   -0.3400 C   0  0  0  0  0  0  0  0  0  0  0  0
    6.4250    0.6390   -0.2610 C   0  0  0  0  0  0  0  0  0  0  0  0
    5.3150   -0.0570   -0.2190 C   0  0  0  0  0  0  0  0  0  0  0  0
   -3.1850    0.9690    0.0720 C   0  0  0  0  0  0  0  0  0  0  0  0
  1  2  1  0
  2  3  1  0
  4  3  1  6
  4  5  1  0
  4 26  1  0
  5  6  1  0
  6  7  2  0
  6  8  1  0
  9  8  1  6
  8 26  1  0
  9 10  1  0
  9 18  1  0
 10 11  1  0
 11 12  1  0
 12 13  2  0
 12 17  1  0
 13 14  1  0
 14 15  2  0
 14 25  1  0
 15 16  1  0
 15 19  1  0
 16 17  2  0
 17 18  1  0
 19 20  2  0
 19 21  1  0
 21 22  2  0
 21 25  1  0
 22 23  1  0
 23 24  1  0
 24 25  2  0
M  END
