
     RDKit          3D

 44 48  0  0  0  0  0  0  0  0999 V2000
   -4.6270    1.0160   -4.1380 C   0  0  0  0  0  0  0  0  0  0  0  0
   -4.7920   -0.4460   -3.7180 C   0  0  0  0  0  0  0  0  0  0  0  0
   -3.5990   -0.8290   -3.0980 O   0  0  0  0  0  0  0  0  0  0  0  0
   -3.3610   -2.0940   -2.5780 C   0  0  0  0  0  0  0  0  0  0  0  0
   -4.2910   -2.9280   -2.6850 O   0  0  0  0  0  0  0  0  0  0  0  0
   -2.0820   -2.3760   -1.9580 C   0  0  1  0  0  0  0  0  0  0  0  0
   -0.9840   -2.3230   -3.0340 C   0  0  0  0  0  0  0  0  0  0  0  0
   -1.6850   -1.8860   -0.6380 C   0  0  0  0  0  0  0  0  0  0  0  0
   -1.6310   -0.4840   -0.2490 C   0  0  2  0  0  0  0  0  0  0  0  0
   -0.8190    0.2710   -1.2470 C   0  0  0  0  0  0  0  0  0  0  0  0
   -1.1660    1.3480   -1.7880 O   0  0  0  0  0  0  0  0  0  0  0  0
    0.4420   -0.2510   -1.6250 N   0  0  0  0  0  0  0  0  0  0  0  0
    1.2660   -0.9820   -0.6240 C   0  0  1  0  0  0  0  0  0  0  0  0
    2.5450   -0.2360   -0.6270 N   0  0  0  0  0  0  0  0  0  0  0  0
    3.3180   -0.6380   -1.7750 C   0  0  0  0  0  0  0  0  0  0  0  0
    4.6290    0.1600   -1.7130 C   0  0  0  0  0  0  0  0  0  0  0  0
    5.2680   -0.2520   -0.3800 C   0  0  0  0  0  0  0  0  0  0  0  0
    6.8770    0.5980   -0.0960 P   0  0  0  0  0  0  0  0  0  0  0  0
    6.7000    1.9390    0.9890 O   0  0  0  0  0  0  0  0  0  0  0  0
    6.4910    1.4880    2.2920 C   0  0  0  0  0  0  0  0  0  0  0  0
    7.4610    1.1920   -1.6200 O   0  0  0  0  0  0  0  0  0  0  0  0
    8.7490    1.6960   -1.4610 C   0  0  0  0  0  0  0  0  0  0  0  0
    9.2770    2.2170   -2.7670 C   0  0  0  0  0  0  0  0  0  0  0  0
    0.6640   -0.6820    0.7000 C   0  0  0  0  0  0  0  0  0  0  0  0
   -0.5960   -0.4480    0.9270 C   0  0  0  0  0  0  0  0  0  0  0  0
   -1.0180   -0.0030    2.2550 C   0  0  0  0  0  0  0  0  0  0  0  0
   -1.9300    1.0870    2.3510 C   0  0  0  0  0  0  0  0  0  0  0  0
   -2.0830    1.3300    3.5730 O   0  0  0  0  0  0  0  0  0  0  0  0
   -1.3680    0.5130    4.3460 C   0  0  0  0  0  0  0  0  0  0  0  0
   -1.1920    0.3710    5.7050 C   0  0  0  0  0  0  0  0  0  0  0  0
   -0.3450   -0.6170    6.1880 C   0  0  0  0  0  0  0  0  0  0  0  0
    0.3330   -1.4700    5.3070 C   0  0  0  0  0  0  0  0  0  0  0  0
    0.1590   -1.3290    3.9500 C   0  0  0  0  0  0  0  0  0  0  0  0
   -0.6810   -0.3460    3.5150 C   0  0  0  0  0  0  0  0  0  0  0  0
   -2.3390    1.4990    0.9480 C   0  0  0  0  0  0  0  0  0  0  0  0
   -2.7190    0.2000    0.3400 N   0  0  0  0  0  0  0  0  0  0  0  0
   -4.0160   -0.2240    0.4670 C   0  0  0  0  0  0  0  0  0  0  0  0
   -4.2770   -1.4070   -0.0670 O   0  0  0  0  0  0  0  0  0  0  0  0
   -5.2110    0.3200    1.0530 C   0  0  0  0  0  0  0  0  0  0  0  0
   -5.3040    1.3600    1.9150 C   0  0  0  0  0  0  0  0  0  0  0  0
   -6.5500    1.8620    2.3580 C   0  0  0  0  0  0  0  0  0  0  0  0
   -7.7140    1.3110    1.9300 C   0  0  0  0  0  0  0  0  0  0  0  0
   -7.6580    0.2650    1.0660 C   0  0  0  0  0  0  0  0  0  0  0  0
   -6.4420   -0.2200    0.6370 C   0  0  0  0  0  0  0  0  0  0  0  0
  1  2  1  0
  2  3  1  0
  3  4  1  0
  4  5  2  0
  4  6  1  0
  6  7  1  6
  6  8  1  0
  9  8  1  6
  9 10  1  0
  9 25  1  0
  9 36  1  0
 10 11  2  0
 10 12  1  0
 12 13  1  0
 13 14  1  1
 13 24  1  0
 14 15  1  0
 15 16  1  0
 16 17  1  0
 17 18  1  0
 18 19  1  0
 18 21  1  0
 19 20  1  0
 21 22  1  0
 22 23  1  0
 24 25  2  0
 25 26  1  0
 26 27  2  0
 26 34  1  0
 27 28  1  0
 27 35  1  0
 28 29  1  0
 29 30  2  0
 29 34  1  0
 30 31  1  0
 31 32  2  0
 32 33  1  0
 33 34  2  0
 35 36  1  0
 36 37  1  0
 37 38  2  0
 37 39  1  0
 39 40  2  0
 39 44  1  0
 40 41  1  0
 41 42  2  0
 42 43  1  0
 43 44  2  0
M  END
