
     RDKit          3D

 43 47  0  0  0  0  0  0  0  0999 V2000
    1.3980   -5.3410    0.1480 C   0  0  0  0  0  0  0  0  0  0  0  0
    0.5220   -4.6080   -0.6350 O   0  0  0  0  0  0  0  0  0  0  0  0
   -0.3080   -3.8600    0.1910 C   0  0  0  0  0  0  0  0  0  0  0  0
   -1.2570   -3.0820   -0.5850 C   0  0  0  0  0  0  0  0  0  0  0  0
   -1.4630   -1.8230   -0.6500 C   0  0  0  0  0  0  0  0  0  0  0  0
   -2.5570   -1.4070   -1.5750 C   0  0  0  0  0  0  0  0  0  0  0  0
   -3.4270   -0.3470   -0.9870 C   0  0  0  0  0  0  0  0  0  0  0  0
   -2.5580    0.8310   -0.5850 C   0  0  1  0  0  0  0  0  0  0  0  0
   -3.0640    1.9940   -1.1580 N   0  0  0  0  0  0  0  0  0  0  0  0
   -4.3140    2.5300   -1.0060 C   0  0  1  0  0  0  0  0  0  0  0  0
   -4.7790    3.0690    0.2990 C   0  0  0  0  0  0  0  0  0  0  0  0
   -5.6300    4.0690   -0.5260 C   0  0  0  0  0  0  0  0  0  0  0  0
   -4.5040    3.9690   -1.5570 C   0  0  0  0  0  0  0  0  0  0  0  0
   -2.2690    0.8220    0.8500 C   0  0  1  0  0  0  0  0  0  0  0  0
   -1.8930    2.1580    1.1860 O   0  0  0  0  0  0  0  0  0  0  0  0
   -2.1140    2.2480    2.5540 C   0  0  0  0  0  0  0  0  0  0  0  0
   -3.2900    1.3260    2.7660 C   0  0  0  0  0  0  0  0  0  0  0  0
   -3.3340    0.5250    1.6300 O   0  0  0  0  0  0  0  0  0  0  0  0
   -1.0720   -0.0030    1.2150 C   0  0  1  0  0  0  0  0  0  0  0  0
   -1.1720   -0.5920    2.4930 N   0  0  0  0  0  0  0  0  0  0  0  0
   -2.0670   -1.6040    2.9490 C   0  0  0  0  0  0  0  0  0  0  0  0
   -3.0620   -2.2970    2.3500 C   0  0  0  0  0  0  0  0  0  0  0  0
   -3.5880   -3.1640    3.3160 C   0  0  0  0  0  0  0  0  0  0  0  0
   -2.8780   -2.9500    4.4580 C   0  0  0  0  0  0  0  0  0  0  0  0
   -2.0040   -2.0370    4.2050 O   0  0  0  0  0  0  0  0  0  0  0  0
   -0.6600   -0.9690    0.1760 C   0  0  0  0  0  0  0  0  0  0  0  0
    0.6370   -1.0130   -0.0560 C   0  0  0  0  0  0  0  0  0  0  0  0
    1.4660   -0.1600    0.7780 N   0  0  0  0  0  0  0  0  0  0  0  0
    2.0180    1.0520    0.2810 C   0  0  1  0  0  0  0  0  0  0  0  0
    2.6960    1.7520    1.4690 C   0  0  0  0  0  0  0  0  0  0  0  0
    3.1050    0.8850   -0.7600 C   0  0  0  0  0  0  0  0  0  0  0  0
    3.5940    2.2570   -1.1860 C   0  0  0  0  0  0  0  0  0  0  0  0
    4.9250    2.1400   -2.4630 P   0  0  0  0  0  0  0  0  0  0  0  0
    5.9700    0.8050   -2.2270 O   0  0  0  0  0  0  0  0  0  0  0  0
    6.5280    0.7460   -0.9600 C   0  0  0  0  0  0  0  0  0  0  0  0
    5.7250    3.6220   -2.7340 O   0  0  0  0  0  0  0  0  0  0  0  0
    6.6400    3.9710   -1.7490 C   0  0  0  0  0  0  0  0  0  0  0  0
    1.3950   -1.7180   -1.0640 C   0  0  0  0  0  0  0  0  0  0  0  0
    1.0100   -1.9010   -2.3590 C   0  0  0  0  0  0  0  0  0  0  0  0
    1.8130   -2.5890   -3.2310 C   0  0  0  0  0  0  0  0  0  0  0  0
    3.0260   -3.1160   -2.8340 C   0  0  0  0  0  0  0  0  0  0  0  0
    3.4530   -2.9510   -1.5260 C   0  0  0  0  0  0  0  0  0  0  0  0
    2.6160   -2.2540   -0.6830 C   0  0  0  0  0  0  0  0  0  0  0  0
  1  2  1  0
  2  3  1  0
  3  4  1  0
  4  5  2  3
  5  6  1  0
  5 26  1  0
  6  7  1  0
  7  8  1  0
  8  9  1  1
  8 14  1  0
 10  9  1  1
 10 11  1  0
 10 13  1  0
 11 12  1  0
 12 13  1  0
 14 15  1  1
 14 18  1  0
 14 19  1  0
 15 16  1  0
 16 17  1  0
 17 18  1  0
 19 20  1  1
 19 26  1  0
 20 21  1  0
 21 22  2  0
 21 25  1  0
 22 23  1  0
 23 24  2  0
 24 25  1  0
 26 27  2  3
 27 28  1  0
 27 38  1  0
 28 29  1  0
 29 30  1  1
 29 31  1  0
 31 32  1  0
 32 33  1  0
 33 34  1  0
 33 36  1  0
 34 35  1  0
 36 37  1  0
 38 39  2  0
 38 43  1  0
 39 40  1  0
 40 41  2  0
 41 42  1  0
 42 43  2  0
M  END
