
     RDKit          3D

 44 47  0  0  0  0  0  0  0  0999 V2000
  -13.6460   -0.8780   -1.9380 C   0  0  0  0  0  0  0  0  0  0  0  0
  -13.3700   -1.6540   -0.8280 O   0  0  0  0  0  0  0  0  0  0  0  0
  -12.4320   -0.7900    0.3370 P   0  0  0  0  0  0  0  0  0  0  0  0
  -12.3140   -1.7570    1.8000 O   0  0  0  0  0  0  0  0  0  0  0  0
  -10.7470   -0.5740   -0.3250 C   0  0  0  0  0  0  0  0  0  0  0  0
  -10.3580    0.6330   -0.9170 C   0  0  0  0  0  0  0  0  0  0  0  0
   -9.0370    0.7420   -1.3720 C   0  0  0  0  0  0  0  0  0  0  0  0
   -8.1360   -0.2850   -1.2510 C   0  0  0  0  0  0  0  0  0  0  0  0
   -6.8220   -0.0900   -1.7010 N   0  0  0  0  0  0  0  0  0  0  0  0
   -5.6870   -0.2790   -0.8680 C   0  0  0  0  0  0  0  0  0  0  0  0
   -5.7950   -0.7220    0.4290 C   0  0  0  0  0  0  0  0  0  0  0  0
   -4.7250   -0.8850    1.2770 C   0  0  0  0  0  0  0  0  0  0  0  0
   -3.4470   -0.5750    0.7850 C   0  0  0  0  0  0  0  0  0  0  0  0
   -3.2810   -0.1290   -0.5090 C   0  0  0  0  0  0  0  0  0  0  0  0
   -4.4110    0.0140   -1.3200 C   0  0  0  0  0  0  0  0  0  0  0  0
   -1.9150    0.0770   -1.0680 C   0  0  0  0  0  0  0  0  0  0  0  0
   -1.0130    0.4630   -0.0450 N   0  0  0  0  0  0  0  0  0  0  0  0
    0.1310    1.3570   -0.2480 C   0  0  0  0  0  0  0  0  0  0  0  0
    0.4830    1.7580   -1.3650 O   0  0  0  0  0  0  0  0  0  0  0  0
    0.8410    1.7780    0.8320 O   0  0  0  0  0  0  0  0  0  0  0  0
    1.9210    2.5830    0.9390 C   0  0  2  0  0  0  0  0  0  0  0  0
    2.0840    2.7290    2.5190 C   0  0  0  0  0  0  0  0  0  0  0  0
    1.7740    3.9970    0.4740 C   0  0  0  0  0  0  0  0  0  0  0  0
    3.2450    1.9760    0.5300 C   0  0  0  0  0  0  0  0  0  0  0  0
    4.1640    2.6530   -0.2510 C   0  0  0  0  0  0  0  0  0  0  0  0
    5.4180    2.0750   -0.5180 C   0  0  0  0  0  0  0  0  0  0  0  0
    5.7900    0.8600   -0.0410 C   0  0  0  0  0  0  0  0  0  0  0  0
    7.0730    0.2490   -0.1920 N   0  0  0  0  0  0  0  0  0  0  0  0
    8.2360    0.9590   -0.5430 C   0  0  0  0  0  0  0  0  0  0  0  0
    8.1550    2.2220   -0.7560 O   0  0  0  0  0  0  0  0  0  0  0  0
    9.5950    0.4140   -0.6930 C   0  0  2  0  0  0  0  0  0  0  0  0
   10.4410    1.3600   -1.5290 C   0  0  0  0  0  0  0  0  0  0  0  0
    9.7270   -1.0120   -1.0930 C   0  0  0  0  0  0  0  0  0  0  0  0
    9.1420   -1.8100   -0.1450 O   0  0  0  0  0  0  0  0  0  0  0  0
    9.2520   -3.1410   -0.4420 C   0  0  0  0  0  0  0  0  0  0  0  0
   10.6350   -3.6890   -0.5370 C   0  0  0  0  0  0  0  0  0  0  0  0
   10.5010   -5.0570   -0.8510 O   0  0  0  0  0  0  0  0  0  0  0  0
    4.8360    0.1820    0.7520 C   0  0  0  0  0  0  0  0  0  0  0  0
    3.6150    0.7510    1.0080 C   0  0  0  0  0  0  0  0  0  0  0  0
   -1.2010   -0.0530    1.2880 C   0  0  0  0  0  0  0  0  0  0  0  0
   -2.3270   -0.5400    1.7190 C   0  0  0  0  0  0  0  0  0  0  0  0
   -2.4820   -1.0540    3.1070 C   0  0  0  0  0  0  0  0  0  0  0  0
   -8.5430   -1.4520   -0.6730 C   0  0  0  0  0  0  0  0  0  0  0  0
   -9.8530   -1.6060   -0.2030 C   0  0  0  0  0  0  0  0  0  0  0  0
  1  2  1  0
  2  3  1  0
  3  4  1  0
  3  5  1  0
  5  6  2  0
  5 44  1  0
  6  7  1  0
  7  8  2  0
  8  9  1  0
  8 43  1  0
  9 10  1  0
 10 11  2  0
 10 15  1  0
 11 12  1  0
 12 13  2  0
 13 14  1  0
 13 41  1  0
 14 15  2  0
 14 16  1  0
 16 17  1  0
 17 18  1  0
 17 40  1  0
 18 19  2  0
 18 20  1  0
 20 21  1  0
 21 22  1  1
 21 23  1  0
 21 24  1  0
 24 25  2  0
 24 39  1  0
 25 26  1  0
 26 27  2  0
 27 28  1  0
 27 38  1  0
 28 29  1  0
 29 30  2  0
 29 31  1  0
 31 32  1  6
 31 33  1  0
 33 34  1  0
 34 35  1  0
 35 36  1  0
 36 37  1  0
 38 39  2  0
 40 41  2  0
 41 42  1  0
 43 44  2  0
M  END
