
     RDKit          3D

 43 46  0  0  0  0  0  0  0  0999 V2000
    6.4590    2.0210    2.2580 C   0  0  0  0  0  0  0  0  0  0  0  0
    6.6380    0.4840    2.1410 C   0  0  0  0  0  0  0  0  0  0  0  0
    5.4310    0.0430    1.6440 O   0  0  0  0  0  0  0  0  0  0  0  0
    5.4040   -1.6580    1.3800 P   0  0  0  0  0  0  0  0  0  0  0  0
    3.5850   -2.2170    1.3600 C   0  0  0  0  0  0  0  0  0  0  0  0
    2.7350   -1.0220    1.2340 C   0  0  0  0  0  0  0  0  0  0  0  0
    1.2500   -1.2420    1.3030 C   0  0  2  0  0  0  0  0  0  0  0  0
    0.9130   -1.8380    2.6610 C   0  0  0  0  0  0  0  0  0  0  0  0
    0.7340   -2.0540    0.1850 C   0  0  0  0  0  0  0  0  0  0  0  0
   -0.7560   -2.3460    0.1970 C   0  0  0  0  0  0  0  0  0  0  0  0
   -1.5430   -1.4520   -0.6970 C   0  0  1  0  0  0  0  0  0  0  0  0
   -2.9310   -1.4640   -0.3780 N   0  0  0  0  0  0  0  0  0  0  0  0
   -3.8130   -1.6850   -1.5100 C   0  0  0  0  0  0  0  0  0  0  0  0
   -5.2510   -1.7490   -1.2800 C   0  0  0  0  0  0  0  0  0  0  0  0
   -5.7780   -2.6210   -0.2280 C   0  0  0  0  0  0  0  0  0  0  0  0
   -6.7790   -3.4670   -0.6480 C   0  0  0  0  0  0  0  0  0  0  0  0
   -7.3910   -4.3580    0.2150 C   0  0  0  0  0  0  0  0  0  0  0  0
   -6.9860   -4.3930    1.5300 C   0  0  0  0  0  0  0  0  0  0  0  0
   -5.9920   -3.5670    1.9900 C   0  0  0  0  0  0  0  0  0  0  0  0
   -5.3850   -2.6710    1.0850 C   0  0  0  0  0  0  0  0  0  0  0  0
   -4.3540   -1.8910    1.6750 N   0  0  0  0  0  0  0  0  0  0  0  0
   -3.2630   -1.2150    1.0010 C   0  0  0  0  0  0  0  0  0  0  0  0
   -2.5830   -0.3980    1.6080 O   0  0  0  0  0  0  0  0  0  0  0  0
   -0.9040   -0.1020   -0.7640 C   0  0  0  0  0  0  0  0  0  0  0  0
   -0.8890    0.4060   -1.9800 C   0  0  0  0  0  0  0  0  0  0  0  0
   -0.3780    1.6430   -2.4850 C   0  0  0  0  0  0  0  0  0  0  0  0
   -0.4930    1.9120   -3.7910 C   0  0  0  0  0  0  0  0  0  0  0  0
   -1.1340    0.9630   -4.7540 C   0  0  0  0  0  0  0  0  0  0  0  0
   -0.9370    1.5460   -6.0010 O   0  0  0  0  0  0  0  0  0  0  0  0
   -0.7920    2.9120   -5.7620 C   0  0  0  0  0  0  0  0  0  0  0  0
   -0.1080    2.9950   -4.5220 O   0  0  0  0  0  0  0  0  0  0  0  0
   -0.2310    0.6780    0.2390 C   0  0  0  0  0  0  0  0  0  0  0  0
   -0.4650    1.9380    0.3780 C   0  0  0  0  0  0  0  0  0  0  0  0
    0.1430    2.7730    1.3450 C   0  0  0  0  0  0  0  0  0  0  0  0
   -0.0780    4.1120    1.4400 C   0  0  0  0  0  0  0  0  0  0  0  0
    0.6350    4.8270    2.4930 C   0  0  0  0  0  0  0  0  0  0  0  0
   -0.1290    5.4960    3.4250 O   0  0  0  0  0  0  0  0  0  0  0  0
   -0.9570    4.6540    0.5260 O   0  0  0  0  0  0  0  0  0  0  0  0
   -1.8630    5.6510    0.8890 C   0  0  0  0  0  0  0  0  0  0  0  0
    0.6120    0.0840    1.2560 N   0  0  0  0  0  0  0  0  0  0  0  0
    6.1140   -2.0430   -0.1780 O   0  0  0  0  0  0  0  0  0  0  0  0
    6.0180   -0.9130   -1.0060 C   0  0  0  0  0  0  0  0  0  0  0  0
    6.5870   -1.1000   -2.3680 C   0  0  0  0  0  0  0  0  0  0  0  0
  1  2  1  0
  2  3  1  0
  3  4  1  0
  4  5  1  0
  4 41  1  0
  5  6  1  0
  6  7  1  0
  7  8  1  1
  7  9  1  0
  7 40  1  0
  9 10  1  0
 10 11  1  0
 11 12  1  1
 11 24  1  0
 12 13  1  0
 12 22  1  0
 13 14  1  0
 14 15  1  0
 15 16  2  0
 15 20  1  0
 16 17  1  0
 17 18  2  0
 18 19  1  0
 19 20  2  0
 20 21  1  0
 21 22  1  0
 22 23  2  0
 24 25  2  3
 24 32  1  0
 25 26  1  0
 26 27  2  3
 27 28  1  0
 27 31  1  0
 28 29  1  0
 29 30  1  0
 30 31  1  0
 32 33  2  3
 32 40  1  0
 33 34  1  0
 34 35  2  3
 35 36  1  0
 35 38  1  0
 36 37  1  0
 38 39  1  0
 41 42  1  0
 42 43  1  0
M  END
