
     RDKit          3D

 44 47  0  0  0  0  0  0  0  0999 V2000
   -1.9960    6.0030    3.6550 C   0  0  0  0  0  0  0  0  0  0  0  0
   -2.4970    5.4440    2.4330 O   0  0  0  0  0  0  0  0  0  0  0  0
   -1.9660    4.2640    1.9450 C   0  0  0  0  0  0  0  0  0  0  0  0
   -2.4570    3.7350    0.7670 C   0  0  0  0  0  0  0  0  0  0  0  0
   -1.9690    2.5600    0.2290 C   0  0  0  0  0  0  0  0  0  0  0  0
   -0.9600    1.9010    0.8930 C   0  0  0  0  0  0  0  0  0  0  0  0
   -0.4670    0.7140    0.3500 O   0  0  0  0  0  0  0  0  0  0  0  0
   -1.0020    0.2130   -0.8280 C   0  0  0  0  0  0  0  0  0  0  0  0
   -0.4400   -1.0620   -1.2920 C   0  0  0  0  0  0  0  0  0  0  0  0
    0.1370   -1.1180   -2.4750 C   0  0  0  0  0  0  0  0  0  0  0  0
    0.2050    0.0720   -3.3090 C   0  0  0  0  0  0  0  0  0  0  0  0
   -0.6480    0.1100   -4.4430 C   0  0  0  0  0  0  0  0  0  0  0  0
   -0.6220    1.1680   -5.3150 C   0  0  0  0  0  0  0  0  0  0  0  0
   -1.5240    1.1850   -6.4950 C   0  0  0  0  0  0  0  0  0  0  0  0
    0.2680    2.1740   -5.0270 C   0  0  0  0  0  0  0  0  0  0  0  0
    1.1140    2.1390   -3.9070 C   0  0  0  0  0  0  0  0  0  0  0  0
    1.0910    1.0870   -3.0370 C   0  0  0  0  0  0  0  0  0  0  0  0
    1.9440    0.9920   -1.9060 N   0  0  0  0  0  0  0  0  0  0  0  0
    2.9790    1.8720   -1.5530 C   0  0  0  0  0  0  0  0  0  0  0  0
    3.2180    2.8540   -2.2740 O   0  0  0  0  0  0  0  0  0  0  0  0
    3.8350    1.7140   -0.3490 C   0  0  0  0  0  0  0  0  0  0  0  0
    3.8010    0.7880    0.5760 C   0  0  0  0  0  0  0  0  0  0  0  0
    4.8580    1.0430    1.5870 C   0  0  2  0  0  0  0  0  0  0  0  0
    4.2100    1.4310    3.2660 P   0  0  0  0  0  0  0  0  0  0  0  0
    5.4950    1.3010    4.4540 O   0  0  0  0  0  0  0  0  0  0  0  0
    3.6330    3.0640    3.3280 O   0  0  0  0  0  0  0  0  0  0  0  0
    5.5390    2.2770    1.1010 C   0  0  0  0  0  0  0  0  0  0  0  0
    4.9200    2.6210   -0.0010 C   0  0  0  0  0  0  0  0  0  0  0  0
   -0.6540   -2.2980   -0.5050 C   0  0  0  0  0  0  0  0  0  0  0  0
   -1.1770   -2.2060    0.6940 C   0  0  0  0  0  0  0  0  0  0  0  0
   -1.4580   -3.2970    1.6080 C   0  0  0  0  0  0  0  0  0  0  0  0
   -1.1900   -4.4650    1.2630 O   0  0  0  0  0  0  0  0  0  0  0  0
   -2.0310   -3.0500    2.8840 N   0  0  0  0  0  0  0  0  0  0  0  0
   -2.3210   -1.6590    3.2720 C   0  0  0  0  0  0  0  0  0  0  0  0
   -2.3390   -4.1200    3.8020 C   0  0  0  0  0  0  0  0  0  0  0  0
   -0.3020   -3.5740   -1.0070 N   0  0  0  0  0  0  0  0  0  0  0  0
   -0.9690   -4.3400   -2.0060 C   0  0  2  0  0  0  0  0  0  0  0  0
   -2.3800   -4.7060   -1.7410 C   0  0  0  0  0  0  0  0  0  0  0  0
   -2.3250   -6.1600   -1.3900 C   0  0  0  0  0  0  0  0  0  0  0  0
   -1.2070   -6.6800   -2.0320 O   0  0  0  0  0  0  0  0  0  0  0  0
   -0.2760   -5.6830   -2.1070 C   0  0  0  0  0  0  0  0  0  0  0  0
   -0.4670    2.4150    2.0570 C   0  0  0  0  0  0  0  0  0  0  0  0
    0.6050    1.7050    2.7900 C   0  0  0  0  0  0  0  0  0  0  0  0
   -0.9610    3.5870    2.5860 C   0  0  0  0  0  0  0  0  0  0  0  0
  1  2  1  0
  2  3  1  0
  3  4  2  0
  3 44  1  0
  4  5  1  0
  5  6  2  0
  6  7  1  0
  6 42  1  0
  7  8  1  0
  8  9  1  0
  9 10  2  3
  9 29  1  0
 10 11  1  0
 11 12  2  0
 11 17  1  0
 12 13  1  0
 13 14  1  0
 13 15  2  0
 15 16  1  0
 16 17  2  0
 17 18  1  0
 18 19  1  0
 19 20  2  0
 19 21  1  0
 21 22  2  0
 21 28  1  0
 22 23  1  0
 23 24  1  1
 23 27  1  0
 24 25  1  0
 24 26  1  0
 27 28  2  0
 29 30  2  3
 29 36  1  0
 30 31  1  0
 31 32  2  0
 31 33  1  0
 33 34  1  0
 33 35  1  0
 37 36  1  1
 37 38  1  0
 37 41  1  0
 38 39  1  0
 39 40  1  0
 40 41  1  0
 42 43  1  0
 42 44  2  0
M  END
