
     RDKit          3D

 44 48  0  0  0  0  0  0  0  0999 V2000
    0.0610   -4.3540   -3.9650 C   0  0  0  0  0  0  0  0  0  0  0  0
   -0.1730   -3.1500   -3.0290 C   0  0  2  0  0  0  0  0  0  0  0  0
    0.5430   -3.4810   -1.8510 O   0  0  0  0  0  0  0  0  0  0  0  0
    1.6260   -2.6550   -1.4630 C   0  0  0  0  0  0  0  0  0  0  0  0
    1.9010   -1.6700   -2.1810 O   0  0  0  0  0  0  0  0  0  0  0  0
    2.3720   -2.9420   -0.2970 N   0  0  0  0  0  0  0  0  0  0  0  0
    3.4700   -2.2080    0.1870 C   0  0  0  0  0  0  0  0  0  0  0  0
    4.0990   -1.2190   -0.4760 C   0  0  0  0  0  0  0  0  0  0  0  0
    5.1880   -0.5340    0.1070 C   0  0  0  0  0  0  0  0  0  0  0  0
    5.6540   -0.8280    1.3400 C   0  0  0  0  0  0  0  0  0  0  0  0
    6.7420   -0.1860    1.9320 N   0  0  0  0  0  0  0  0  0  0  0  0
    7.7740    0.4090    1.1770 C   0  0  0  0  0  0  0  0  0  0  0  0
    8.0960   -0.0440   -0.0930 C   0  0  0  0  0  0  0  0  0  0  0  0
    9.0820    0.5390   -0.8500 C   0  0  0  0  0  0  0  0  0  0  0  0
    9.7730    1.6240   -0.2980 C   0  0  0  0  0  0  0  0  0  0  0  0
    9.5080    2.1210    0.9490 C   0  0  0  0  0  0  0  0  0  0  0  0
   10.2040    3.2040    1.5410 N   0  0  0  0  0  0  0  0  0  0  0  0
   11.5040    3.6340    1.1940 C   0  0  0  0  0  0  0  0  0  0  0  0
   12.5330    2.9760    0.5530 C   0  0  0  0  0  0  0  0  0  0  0  0
   13.6070    3.8590    0.4320 C   0  0  0  0  0  0  0  0  0  0  0  0
   13.2230    4.9620    0.9720 O   0  0  0  0  0  0  0  0  0  0  0  0
   12.0240    4.9180    1.4360 C   0  0  0  0  0  0  0  0  0  0  0  0
    8.4920    1.4840    1.6660 C   0  0  0  0  0  0  0  0  0  0  0  0
    5.0130   -1.8500    2.0380 C   0  0  0  0  0  0  0  0  0  0  0  0
    3.9520   -2.5160    1.4710 C   0  0  0  0  0  0  0  0  0  0  0  0
   -1.6080   -2.9550   -2.7950 C   0  0  0  0  0  0  0  0  0  0  0  0
   -2.3110   -2.6630   -3.8020 O   0  0  0  0  0  0  0  0  0  0  0  0
   -2.2560   -3.0640   -1.5720 O   0  0  0  0  0  0  0  0  0  0  0  0
   -3.6820   -2.8450   -1.5220 C   0  0  0  0  0  0  0  0  0  0  0  0
   -4.0970   -3.0360   -0.0860 C   0  0  0  0  0  0  0  0  0  0  0  0
   -5.4460   -2.8670    0.1490 O   0  0  0  0  0  0  0  0  0  0  0  0
   -6.1420   -1.6990    0.0180 C   0  0  0  0  0  0  0  0  0  0  0  0
   -5.6130   -0.4830   -0.3220 C   0  0  0  0  0  0  0  0  0  0  0  0
   -6.3870    0.6760   -0.4460 C   0  0  0  0  0  0  0  0  0  0  0  0
   -7.7450    0.6410   -0.2260 C   0  0  0  0  0  0  0  0  0  0  0  0
   -8.5580    1.8770   -0.3740 C   0  0  1  0  0  0  0  0  0  0  0  0
   -9.9600    1.7270    0.1180 C   0  0  0  0  0  0  0  0  0  0  0  0
   -9.9730    1.6970    1.6230 C   0  0  2  0  0  0  0  0  0  0  0  0
  -11.3490    1.4450    2.1840 C   0  0  0  0  0  0  0  0  0  0  0  0
   -9.4490    3.0670    2.0640 C   0  0  0  0  0  0  0  0  0  0  0  0
   -8.0390    3.1740    1.5100 C   0  0  0  0  0  0  0  0  0  0  0  0
   -7.9700    2.9850    0.1670 O   0  0  0  0  0  0  0  0  0  0  0  0
   -8.2830   -0.5680    0.1140 C   0  0  0  0  0  0  0  0  0  0  0  0
   -7.5450   -1.7200    0.2430 C   0  0  0  0  0  0  0  0  0  0  0  0
  2  1  1  6
  2  3  1  0
  2 26  1  0
  3  4  1  0
  4  5  2  0
  4  6  1  0
  6  7  1  0
  7  8  2  0
  7 25  1  0
  8  9  1  0
  9 10  2  0
 10 11  1  0
 10 24  1  0
 11 12  1  0
 12 13  2  0
 12 23  1  0
 13 14  1  0
 14 15  2  0
 15 16  1  0
 16 17  1  0
 16 23  2  0
 17 18  1  0
 18 19  1  0
 18 22  2  0
 19 20  2  0
 20 21  1  0
 21 22  1  0
 24 25  2  0
 26 27  2  0
 26 28  1  0
 28 29  1  0
 29 30  1  0
 30 31  1  0
 31 32  1  0
 32 33  2  0
 32 44  1  0
 33 34  1  0
 34 35  2  0
 36 35  1  1
 35 43  1  0
 36 37  1  0
 36 42  1  0
 37 38  1  0
 38 39  1  6
 38 40  1  0
 40 41  1  0
 41 42  1  0
 43 44  2  0
M  END
