
     RDKit          3D

 44 48  0  0  0  0  0  0  0  0999 V2000
    6.0580   -3.5880   -2.8230 C   0  0  0  0  0  0  0  0  0  0  0  0
    4.7270   -2.9560   -2.6700 C   0  0  0  0  0  0  0  0  0  0  0  0
    4.5310   -2.0100   -1.7330 C   0  0  0  0  0  0  0  0  0  0  0  0
    5.4700   -1.5730   -0.8960 N   0  0  0  0  0  0  0  0  0  0  0  0
    4.9370   -0.6350   -0.1010 C   0  0  0  0  0  0  0  0  0  0  0  0
    5.5920    0.0760    0.9190 O   0  0  0  0  0  0  0  0  0  0  0  0
    6.9520   -0.2190    1.1380 C   0  0  0  0  0  0  0  0  0  0  0  0
    7.6750    0.0910   -0.1730 C   0  0  0  0  0  0  0  0  0  0  0  0
    3.5880   -0.5050   -0.4930 C   0  0  0  0  0  0  0  0  0  0  0  0
    2.7490    0.3170    0.0690 C   0  0  0  0  0  0  0  0  0  0  0  0
    1.3930    0.6210   -0.1470 C   0  0  0  0  0  0  0  0  0  0  0  0
    0.4390    0.3640   -0.9200 C   0  0  0  0  0  0  0  0  0  0  0  0
    0.4540   -0.4860   -2.0730 C   0  0  0  0  0  0  0  0  0  0  0  0
    1.3000   -0.5870   -3.1650 C   0  0  0  0  0  0  0  0  0  0  0  0
    0.7420   -1.5880   -3.9300 C   0  0  0  0  0  0  0  0  0  0  0  0
   -0.3660   -2.0320   -3.3060 O   0  0  0  0  0  0  0  0  0  0  0  0
   -0.5610   -1.4000   -2.2090 C   0  0  0  0  0  0  0  0  0  0  0  0
   -1.5650   -1.4370   -1.1410 C   0  0  1  0  0  0  0  0  0  0  0  0
   -1.1580   -2.5850   -0.1990 C   0  0  0  0  0  0  0  0  0  0  0  0
   -1.7580   -0.2900   -0.3740 N   0  0  0  0  0  0  0  0  0  0  0  0
   -3.1410    0.0490   -0.2040 C   0  0  0  0  0  0  0  0  0  0  0  0
   -3.9560   -0.8500    0.6550 C   0  0  2  0  0  0  0  0  0  0  0  0
   -3.4440   -0.9430    1.9690 O   0  0  0  0  0  0  0  0  0  0  0  0
   -4.4430   -2.4550   -0.0590 P   0  0  0  0  0  0  0  0  0  0  0  0
   -6.0470   -2.4570   -0.7230 O   0  0  0  0  0  0  0  0  0  0  0  0
   -6.9650   -2.1190    0.2650 C   0  0  0  0  0  0  0  0  0  0  0  0
   -8.3520   -2.1360   -0.3620 C   0  0  0  0  0  0  0  0  0  0  0  0
   -4.3540   -3.7590    1.0720 O   0  0  0  0  0  0  0  0  0  0  0  0
   -4.6430   -4.9540    0.4190 C   0  0  0  0  0  0  0  0  0  0  0  0
   -4.5870   -6.1380    1.3450 C   0  0  0  0  0  0  0  0  0  0  0  0
   -1.0020    0.8850   -0.6050 C   0  0  1  0  0  0  0  0  0  0  0  0
   -0.9610    1.8150    0.5120 C   0  0  0  0  0  0  0  0  0  0  0  0
   -1.3560    1.4830    1.6530 O   0  0  0  0  0  0  0  0  0  0  0  0
   -0.4710    3.1640    0.3700 N   0  0  0  0  0  0  0  0  0  0  0  0
   -0.4140    4.1210    1.4320 C   0  0  2  0  0  0  0  0  0  0  0  0
   -1.3730    5.2830    1.1920 C   0  0  0  0  0  0  0  0  0  0  0  0
   -0.6780    6.4480    1.8960 C   0  0  0  0  0  0  0  0  0  0  0  0
    0.7700    6.1200    1.7510 C   0  0  0  0  0  0  0  0  0  0  0  0
    1.8710    6.9170    1.8440 C   0  0  0  0  0  0  0  0  0  0  0  0
    3.1750    6.4350    1.6800 C   0  0  0  0  0  0  0  0  0  0  0  0
    3.3170    5.0840    1.4130 C   0  0  0  0  0  0  0  0  0  0  0  0
    2.1980    4.2960    1.3230 C   0  0  0  0  0  0  0  0  0  0  0  0
    0.9060    4.7680    1.4840 C   0  0  0  0  0  0  0  0  0  0  0  0
    3.4620   -1.3570   -1.4540 O   0  0  0  0  0  0  0  0  0  0  0  0
  1  2  1  0
  2  3  2  3
  3  4  1  0
  3 44  1  0
  4  5  2  0
  5  6  1  0
  5  9  1  0
  6  7  1  0
  7  8  1  0
  9 10  2  3
  9 44  1  0
 10 11  1  0
 11 12  2  3
 12 13  1  0
 12 31  1  0
 13 14  1  0
 13 17  2  0
 14 15  2  0
 15 16  1  0
 16 17  1  0
 17 18  1  0
 18 19  1  1
 18 20  1  0
 20 21  1  0
 20 31  1  0
 21 22  1  0
 22 23  1  1
 22 24  1  0
 24 25  1  0
 24 28  1  0
 25 26  1  0
 26 27  1  0
 28 29  1  0
 29 30  1  0
 31 32  1  1
 32 33  2  0
 32 34  1  0
 35 34  1  6
 35 36  1  0
 35 43  1  0
 36 37  1  0
 37 38  1  0
 38 39  2  0
 38 43  1  0
 39 40  1  0
 40 41  2  0
 41 42  1  0
 42 43  2  0
M  END
