
     RDKit          3D

 44 48  0  0  0  0  0  0  0  0999 V2000
   -8.2590   -2.7850   -0.6660 C   0  0  0  0  0  0  0  0  0  0  0  0
   -7.1900   -1.8580   -0.8570 O   0  0  0  0  0  0  0  0  0  0  0  0
   -7.1190   -0.6730   -0.1330 C   0  0  0  0  0  0  0  0  0  0  0  0
   -8.0060   -0.3970    0.7080 O   0  0  0  0  0  0  0  0  0  0  0  0
   -5.9990    0.2140   -0.3880 C   0  0  0  0  0  0  0  0  0  0  0  0
   -5.0730   -0.0680   -1.2650 C   0  0  0  0  0  0  0  0  0  0  0  0
   -3.9480    0.8530   -1.5010 C   0  0  1  0  0  0  0  0  0  0  0  0
   -4.0670    2.0780   -0.6340 C   0  0  0  0  0  0  0  0  0  0  0  0
   -2.9110    3.0170   -0.9000 C   0  0  0  0  0  0  0  0  0  0  0  0
   -2.0370    2.7150   -1.7610 O   0  0  0  0  0  0  0  0  0  0  0  0
   -2.7730    4.2170   -0.2220 O   0  0  0  0  0  0  0  0  0  0  0  0
   -1.6950    5.1070   -0.4600 C   0  0  0  0  0  0  0  0  0  0  0  0
   -2.6930    0.0960   -1.2010 C   0  0  0  0  0  0  0  0  0  0  0  0
   -1.8460   -0.0480   -2.1940 C   0  0  0  0  0  0  0  0  0  0  0  0
   -0.5900   -0.7320   -2.0740 C   0  0  0  0  0  0  0  0  0  0  0  0
   -0.2420   -1.2430   -0.8480 C   0  0  0  0  0  0  0  0  0  0  0  0
    0.8820   -1.8950   -0.6980 O   0  0  0  0  0  0  0  0  0  0  0  0
    1.9400   -2.3700   -0.1140 C   0  0  0  0  0  0  0  0  0  0  0  0
    3.2170   -1.7860   -0.0290 C   0  0  0  0  0  0  0  0  0  0  0  0
    3.5660   -0.5180   -0.6320 N   0  0  0  0  0  0  0  0  0  0  0  0
    4.8390    0.0730   -0.5450 C   0  0  0  0  0  0  0  0  0  0  0  0
    5.7430   -0.5080    0.1000 O   0  0  0  0  0  0  0  0  0  0  0  0
    5.2020    1.3630   -1.1740 C   0  0  0  0  0  0  0  0  0  0  0  0
    4.3740    2.0060   -2.0660 C   0  0  0  0  0  0  0  0  0  0  0  0
    4.7400    3.2190   -2.6490 C   0  0  0  0  0  0  0  0  0  0  0  0
    5.9560    3.7650   -2.3100 C   0  0  0  0  0  0  0  0  0  0  0  0
    6.5630    5.3550   -3.0060 P   0  0  0  0  0  0  0  0  0  0  0  0
    7.4640    6.2840   -2.1440 O   0  0  0  0  0  0  0  0  0  0  0  0
    6.7810    3.1200   -1.4180 C   0  0  0  0  0  0  0  0  0  0  0  0
    6.4030    1.9370   -0.8620 C   0  0  0  0  0  0  0  0  0  0  0  0
    3.9850   -2.6180    0.6560 N   0  0  0  0  0  0  0  0  0  0  0  0
    3.3130   -3.7170    1.0350 C   0  0  0  0  0  0  0  0  0  0  0  0
    3.6850   -4.8590    1.7600 C   0  0  0  0  0  0  0  0  0  0  0  0
    2.7800   -5.8640    2.0130 C   0  0  0  0  0  0  0  0  0  0  0  0
    1.4810   -5.7210    1.5320 C   0  0  0  0  0  0  0  0  0  0  0  0
    1.1030   -4.6040    0.8190 C   0  0  0  0  0  0  0  0  0  0  0  0
    2.0380   -3.6030    0.5770 C   0  0  0  0  0  0  0  0  0  0  0  0
   -1.1250   -1.0260    0.2390 N   0  0  0  0  0  0  0  0  0  0  0  0
   -0.6850   -1.2780    1.6450 C   0  0  0  0  0  0  0  0  0  0  0  0
   -0.6890   -0.0090    2.4500 C   0  0  0  0  0  0  0  0  0  0  0  0
    0.1830    1.0670    1.8830 C   0  0  2  0  0  0  0  0  0  0  0  0
    1.6360    0.8210    1.7280 C   0  0  0  0  0  0  0  0  0  0  0  0
    1.1710    1.7500    2.8190 C   0  0  0  0  0  0  0  0  0  0  0  0
   -2.4610   -0.5740    0.0640 C   0  0  0  0  0  0  0  0  0  0  0  0
  1  2  1  0
  2  3  1  0
  3  4  2  0
  3  5  1  0
  5  6  2  3
  6  7  1  0
  7  8  1  1
  7 13  1  0
  8  9  1  0
  9 10  2  0
  9 11  1  0
 11 12  1  0
 13 14  2  0
 13 44  1  0
 14 15  1  0
 15 16  2  0
 16 17  1  0
 16 38  1  0
 17 18  1  0
 18 19  2  0
 18 37  1  0
 19 20  1  0
 19 31  1  0
 20 21  1  0
 21 22  2  0
 21 23  1  0
 23 24  2  0
 23 30  1  0
 24 25  1  0
 25 26  2  0
 26 27  1  0
 26 29  1  0
 27 28  2  0
 29 30  2  0
 31 32  1  0
 32 33  2  0
 32 37  1  0
 33 34  1  0
 34 35  2  0
 35 36  1  0
 36 37  2  0
 38 39  1  0
 38 44  1  0
 39 40  1  0
 41 40  1  1
 41 42  1  0
 41 43  1  0
 42 43  1  0
M  END
