
     RDKit          3D

 12 11  0  0  0  0  0  0  0  0999 V2000
    0.8940   -2.0720   -0.0670 C   0  0  0  0  0  0  0  0  0  0  0  0
    1.2780   -0.6980   -0.3550 N   0  0  0  0  0  0  0  0  0  0  0  0
    0.2780    0.1690    0.2230 C   0  0  0  0  0  0  0  0  0  0  0  0
   -1.0560    0.0540   -0.5100 C   0  0  1  0  0  0  0  0  0  0  0  0
   -1.5540   -1.3010   -0.4510 N   0  0  0  0  0  0  0  0  0  0  0  0
   -2.0780    0.9370    0.2110 C   0  0  0  0  0  0  0  0  0  0  0  0
   -3.4130    0.8680   -0.4770 C   0  0  0  0  0  0  0  0  0  0  0  0
   -3.9430   -0.4110   -0.5310 O   0  0  0  0  0  0  0  0  0  0  0  0
    2.5970   -0.4350    0.1690 C   0  0  0  0  0  0  0  0  0  0  0  0
    3.1570    1.2910   -0.1870 P   0  0  0  0  0  0  0  0  0  0  0  0
    4.8850    1.4100   -0.1570 O   0  0  0  0  0  0  0  0  0  0  0  0
    2.4850    2.4640    0.8710 O   0  0  0  0  0  0  0  0  0  0  0  0
  1  2  1  0
  2  3  1  0
  2  9  1  0
  3  4  1  0
  4  5  1  1
  4  6  1  0
  6  7  1  0
  7  8  1  0
  9 10  1  0
 10 11  1  0
 10 12  1  0
M  END
