
     RDKit          3D

 13 12  0  0  0  0  0  0  0  0999 V2000
   -1.9080   -1.0980   -1.1290 C   0  0  0  0  0  0  0  0  0  0  0  0
   -1.1150   -0.1690   -0.2250 C   0  0  1  0  0  0  0  0  0  0  0  0
   -2.0170    0.2790    0.9400 C   0  0  0  0  0  0  0  0  0  0  0  0
   -3.5460    1.1140    0.4270 P   0  0  0  0  0  0  0  0  0  0  0  0
   -4.9490    0.1360    0.5700 O   0  0  0  0  0  0  0  0  0  0  0  0
   -3.4630    2.1530   -0.8900 O   0  0  0  0  0  0  0  0  0  0  0  0
   -0.0590   -0.9360    0.4320 N   0  0  0  0  0  0  0  0  0  0  0  0
    1.2170   -0.3250    0.5180 C   0  0  0  0  0  0  0  0  0  0  0  0
    2.0170   -0.3500   -0.7440 C   0  0  0  0  0  0  0  0  0  0  0  0
    3.2860    0.3420   -0.5180 N   0  0  0  0  0  0  0  0  0  0  0  0
    4.2010   -0.0500    0.4640 C   0  0  0  0  0  0  0  0  0  0  0  0
    3.9760   -1.0360    1.1910 O   0  0  0  0  0  0  0  0  0  0  0  0
    5.4070    0.6710    0.6500 O   0  0  0  0  0  0  0  0  0  0  0  0
  2  1  1  6
  2  3  1  0
  2  7  1  0
  3  4  1  0
  4  5  1  0
  4  6  1  0
  7  8  1  0
  8  9  1  0
  9 10  1  0
 10 11  1  0
 11 12  2  0
 11 13  1  0
M  END
