
     RDKit          3D

 12 11  0  0  0  0  0  0  0  0999 V2000
   -3.8310    0.1870   -1.1290 N   0  0  0  0  0  0  0  0  0  0  0  0
   -3.0970   -0.4340   -0.0570 C   0  0  2  0  0  0  0  0  0  0  0  0
   -3.5640   -1.7440    0.0690 O   0  0  0  0  0  0  0  0  0  0  0  0
   -3.2800    0.1950    1.1710 O   0  0  0  0  0  0  0  0  0  0  0  0
   -1.6030   -0.4380   -0.3300 C   0  0  0  0  0  0  0  0  0  0  0  0
   -1.1220    0.9270   -0.4570 N   0  0  0  0  0  0  0  0  0  0  0  0
    0.2930    0.9490   -0.7390 C   0  0  0  0  0  0  0  0  0  0  0  0
    1.1200    0.4720    0.4230 C   0  0  0  0  0  0  0  0  0  0  0  0
    2.5840    0.5330    0.0290 C   0  0  0  0  0  0  0  0  0  0  0  0
    3.6830   -0.0420    1.4050 P   0  0  0  0  0  0  0  0  0  0  0  0
    3.8260   -1.7710    1.4180 O   0  0  0  0  0  0  0  0  0  0  0  0
    5.2530    0.6970    1.2670 O   0  0  0  0  0  0  0  0  0  0  0  0
  2  1  1  6
  2  3  1  0
  2  4  1  0
  2  5  1  0
  5  6  1  0
  6  7  1  0
  7  8  1  0
  8  9  1  0
  9 10  1  0
 10 11  1  0
 10 12  1  0
M  END
