
     RDKit          3D

 13 12  0  0  0  0  0  0  0  0999 V2000
    1.6790   -1.5760    0.8390 C   0  0  0  0  0  0  0  0  0  0  0  0
    1.2460   -0.1930    0.3890 C   0  0  1  0  0  0  0  0  0  0  0  0
    2.3780    0.3360   -0.4950 C   0  0  0  0  0  0  0  0  0  0  0  0
    3.9170    0.3960    0.5210 P   0  0  0  0  0  0  0  0  0  0  0  0
    4.5670    1.9980    0.6350 O   0  0  0  0  0  0  0  0  0  0  0  0
    5.1540   -0.6390   -0.0890 O   0  0  0  0  0  0  0  0  0  0  0  0
    0.0790   -0.3650   -0.4450 N   0  0  0  0  0  0  0  0  0  0  0  0
   -1.1520    0.2920   -0.1290 C   0  0  0  0  0  0  0  0  0  0  0  0
   -1.2470    1.0250    0.8680 O   0  0  0  0  0  0  0  0  0  0  0  0
   -2.3010    0.1210   -0.9530 N   0  0  0  0  0  0  0  0  0  0  0  0
   -3.5670    0.7590   -0.6820 C   0  0  0  0  0  0  0  0  0  0  0  0
   -4.1220    0.3520    0.6690 C   0  0  0  0  0  0  0  0  0  0  0  0
   -4.2960   -1.0320    0.6500 O   0  0  0  0  0  0  0  0  0  0  0  0
  2  1  1  6
  2  3  1  0
  2  7  1  0
  3  4  1  0
  4  5  1  0
  4  6  1  0
  7  8  1  0
  8  9  2  0
  8 10  1  0
 10 11  1  0
 11 12  1  0
 12 13  1  0
M  END
