
     RDKit          3D

 13 12  0  0  0  0  0  0  0  0999 V2000
   -3.2370    1.0480   -1.0010 C   0  0  0  0  0  0  0  0  0  0  0  0
   -3.0440    1.6600    0.3450 C   0  0  0  0  0  0  0  0  0  0  0  0
   -2.0090    0.9040    1.1520 C   0  0  2  0  0  0  0  0  0  0  0  0
   -1.8560    1.5000    2.3950 O   0  0  0  0  0  0  0  0  0  0  0  0
   -0.7480    0.9930    0.4130 N   0  0  0  0  0  0  0  0  0  0  0  0
   -0.1140   -0.2140   -0.0490 C   0  0  0  0  0  0  0  0  0  0  0  0
   -0.6870   -1.2990    0.2110 O   0  0  0  0  0  0  0  0  0  0  0  0
    1.1090   -0.1430   -0.7660 N   0  0  0  0  0  0  0  0  0  0  0  0
    1.7600   -1.3230   -1.2360 C   0  0  0  0  0  0  0  0  0  0  0  0
    2.1320   -2.2710   -0.1260 C   0  0  0  0  0  0  0  0  0  0  0  0
    3.2970   -1.4170    1.0660 P   0  0  0  0  0  0  0  0  0  0  0  0
    2.7390    0.1900    1.4050 O   0  0  0  0  0  0  0  0  0  0  0  0
    4.8970   -1.3760    0.3930 O   0  0  0  0  0  0  0  0  0  0  0  0
  1  2  1  0
  2  3  1  0
  3  4  1  1
  3  5  1  0
  5  6  1  0
  6  7  2  0
  6  8  1  0
  8  9  1  0
  9 10  1  0
 10 11  1  0
 11 12  1  0
 11 13  1  0
M  END
