
     RDKit          3D

 12 11  0  0  0  0  0  0  0  0999 V2000
   -2.2010   -1.0510    0.9540 C   0  0  0  0  0  0  0  0  0  0  0  0
   -1.4670   -0.6780   -0.1980 N   0  0  0  0  0  0  0  0  0  0  0  0
   -0.0730   -0.7200   -0.1290 C   0  0  0  0  0  0  0  0  0  0  0  0
    0.5220    0.3610    0.7730 C   0  0  0  0  0  0  0  0  0  0  0  0
    1.9200    0.1900    0.8590 N   0  0  0  0  0  0  0  0  0  0  0  0
    2.7390    0.4510   -0.2750 C   0  0  0  0  0  0  0  0  0  0  0  0
    4.1860   -0.0160   -0.0220 C   0  0  0  0  0  0  0  0  0  0  0  0
    4.6710    0.6780    1.0730 O   0  0  0  0  0  0  0  0  0  0  0  0
   -2.1600   -0.4680   -1.3770 C   0  0  0  0  0  0  0  0  0  0  0  0
   -3.4700    0.8350   -1.0520 P   0  0  0  0  0  0  0  0  0  0  0  0
   -2.7630    1.9820    0.0490 O   0  0  0  0  0  0  0  0  0  0  0  0
   -4.8630    0.0760   -0.3460 O   0  0  0  0  0  0  0  0  0  0  0  0
  1  2  1  0
  2  3  1  0
  2  9  1  0
  3  4  1  0
  4  5  1  0
  5  6  1  0
  6  7  1  0
  7  8  1  0
  9 10  1  0
 10 11  1  0
 10 12  1  0
M  END
