
     RDKit          3D

 14 13  0  0  0  0  0  0  0  0999 V2000
    3.6860   -1.2490    0.6990 C   0  0  0  0  0  0  0  0  0  0  0  0
    3.3580    0.1010    0.3270 N   0  0  1  0  0  0  0  0  0  0  0  0
    3.2550    0.2480   -1.1130 C   0  0  0  0  0  0  0  0  0  0  0  0
    2.1890    0.5920    1.0170 C   0  0  0  0  0  0  0  0  0  0  0  0
    0.9100    0.0170    0.4960 C   0  0  0  0  0  0  0  0  0  0  0  0
   -0.1400    0.5590    1.2320 O   0  0  0  0  0  0  0  0  0  0  0  0
   -1.5310    0.0440    0.7920 P   0  0  0  0  0  0  0  0  0  0  0  0
   -1.0730   -1.4430    1.4260 O   0  0  0  0  0  0  0  0  0  0  0  0
   -1.3370    0.2940   -0.8010 O   0  0  0  0  0  0  0  0  0  0  0  0
   -2.9600   -0.5390    0.6850 O   0  0  0  0  0  0  0  0  0  0  0  0
   -4.1420    0.2070    0.0440 P   0  0  0  0  0  0  0  0  0  0  0  0
   -3.3710   -0.0870   -1.4150 O   0  0  0  0  0  0  0  0  0  0  0  0
   -3.7490    1.5420    0.9070 O   0  0  0  0  0  0  0  0  0  0  0  0
   -5.2510    0.9360   -0.7350 O   0  0  0  0  0  0  0  0  0  0  0  0
  2  1  1  6
  2  3  1  0
  2  4  1  0
  4  5  1  0
  5  6  1  0
  6  7  1  0
  7  8  1  0
  7  9  1  0
  7 10  1  0
 10 11  1  0
 11 12  1  0
 11 13  1  0
 11 14  1  0
M  CHG  1   2   1
M  END
