
     RDKit          3D

 13 12  0  0  0  0  0  0  0  0999 V2000
   -1.3940    1.9610    0.1290 C   0  0  0  0  0  0  0  0  0  0  0  0
   -1.6700    0.4760    0.2420 C   0  0  2  0  0  0  0  0  0  0  0  0
   -0.7260   -0.2460   -0.6680 C   0  0  0  0  0  0  0  0  0  0  0  0
    0.6200    0.0520   -0.2550 N   0  0  0  0  0  0  0  0  0  0  0  0
    1.5990   -0.6080   -1.0860 C   0  0  0  0  0  0  0  0  0  0  0  0
    2.9790   -0.2580   -0.6050 C   0  0  0  0  0  0  0  0  0  0  0  0
    3.3410   -0.7370    1.1050 P   0  0  0  0  0  0  0  0  0  0  0  0
    4.2570   -2.1570    1.3000 O   0  0  0  0  0  0  0  0  0  0  0  0
    4.0960    0.5770    1.9500 O   0  0  0  0  0  0  0  0  0  0  0  0
   -3.0540    0.1750   -0.0540 N   0  0  0  0  0  0  0  0  0  0  0  0
   -3.9530   -0.3720    0.8840 C   0  0  0  0  0  0  0  0  0  0  0  0
   -3.5430   -0.6180    2.0520 O   0  0  0  0  0  0  0  0  0  0  0  0
   -5.2920   -0.6580    0.5820 O   0  0  0  0  0  0  0  0  0  0  0  0
  2  1  1  6
  2  3  1  0
  2 10  1  0
  3  4  1  0
  4  5  1  0
  5  6  1  0
  6  7  1  0
  7  8  1  0
  7  9  1  0
 10 11  1  0
 11 12  2  0
 11 13  1  0
M  END
