
     RDKit          3D

 13 12  0  0  0  0  0  0  0  0999 V2000
   -0.9160    1.2570    1.1200 C   0  0  0  0  0  0  0  0  0  0  0  0
   -1.0810    0.4000   -0.1160 C   0  0  1  0  0  0  0  0  0  0  0  0
   -0.0960   -0.6790    0.0160 N   0  0  0  0  0  0  0  0  0  0  0  0
    1.1920   -0.0230    0.0160 C   0  0  0  0  0  0  0  0  0  0  0  0
    2.3260   -1.0220    0.1660 C   0  0  0  0  0  0  0  0  0  0  0  0
    3.5810   -0.3840    0.1660 O   0  0  0  0  0  0  0  0  0  0  0  0
    4.0640    0.3790   -0.8810 C   0  0  0  0  0  0  0  0  0  0  0  0
    3.3810    0.5370   -1.9090 O   0  0  0  0  0  0  0  0  0  0  0  0
    5.3170    1.0030   -0.8500 O   0  0  0  0  0  0  0  0  0  0  0  0
   -2.4510   -0.1470   -0.2420 C   0  0  0  0  0  0  0  0  0  0  0  0
   -3.5240    0.7960   -0.3230 N   0  0  0  0  0  0  0  0  0  0  0  0
   -2.6950   -1.4380   -0.2800 C   0  0  0  0  0  0  0  0  0  0  0  0
   -3.9910   -1.8810   -0.3980 O   0  0  0  0  0  0  0  0  0  0  0  0
  2  1  1  1
  2  3  1  0
  2 10  1  0
  3  4  1  0
  4  5  1  0
  5  6  1  0
  6  7  1  0
  7  8  2  0
  7  9  1  0
 10 11  1  0
 10 12  2  3
 12 13  1  0
M  END
