
     RDKit          3D

 12 11  0  0  0  0  0  0  0  0999 V2000
   -2.9450    1.6140    1.0690 N   0  0  0  0  0  0  0  0  0  0  0  0
   -2.4960    0.8140   -0.0420 C   0  0  2  0  0  0  0  0  0  0  0  0
   -3.5370   -0.2460   -0.3370 C   0  0  0  0  0  0  0  0  0  0  0  0
   -3.6610   -1.0290    0.8240 O   0  0  0  0  0  0  0  0  0  0  0  0
   -1.1680    0.1630    0.3390 C   0  0  0  0  0  0  0  0  0  0  0  0
   -0.7380   -0.6340   -0.7710 N   0  0  0  0  0  0  0  0  0  0  0  0
    0.5070   -1.3260   -0.5310 C   0  0  0  0  0  0  0  0  0  0  0  0
    1.6480   -0.3320   -0.4550 C   0  0  0  0  0  0  0  0  0  0  0  0
    2.9590   -1.0470   -0.1980 C   0  0  0  0  0  0  0  0  0  0  0  0
    4.2980    0.2360   -0.1250 P   0  0  0  0  0  0  0  0  0  0  0  0
    4.5760    0.7700    1.5080 O   0  0  0  0  0  0  0  0  0  0  0  0
    3.7880    1.5900   -1.0820 O   0  0  0  0  0  0  0  0  0  0  0  0
  2  1  1  1
  2  3  1  0
  2  5  1  0
  3  4  1  0
  5  6  1  0
  6  7  1  0
  7  8  1  0
  8  9  1  0
  9 10  1  0
 10 11  1  0
 10 12  1  0
M  END
