
     RDKit          3D

 15 16  0  0  0  0  0  0  0  0999 V2000
    2.3310   -0.6120   -2.1160 C   0  0  0  0  0  0  0  0  0  0  0  0
    2.3650   -0.2260   -0.8380 C   0  0  0  0  0  0  0  0  0  0  0  0
    3.4130    0.6350   -0.3670 N   0  0  0  0  0  0  0  0  0  0  0  0
    3.3710    0.9930    0.9990 C   0  0  0  0  0  0  0  0  0  0  0  0
    2.4440    0.5850    1.8350 C   0  0  0  0  0  0  0  0  0  0  0  0
    1.3700   -0.2880    1.3840 C   0  0  0  0  0  0  0  0  0  0  0  0
    1.3570   -0.6550    0.1180 C   0  0  0  0  0  0  0  0  0  0  0  0
    0.2940   -1.5180   -0.3210 N   0  0  0  0  0  0  0  0  0  0  0  0
   -1.0770   -1.3190    0.1030 C   0  0  0  0  0  0  0  0  0  0  0  0
   -1.5600    0.0430   -0.3300 C   0  0  0  0  0  0  0  0  0  0  0  0
   -0.8660    0.9690   -1.0060 N   0  0  0  0  0  0  0  0  0  0  0  0
   -1.6470    2.0140   -1.1850 N   0  0  0  0  0  0  0  0  0  0  0  0
   -2.8540    1.7920   -0.6330 C   0  0  0  0  0  0  0  0  0  0  0  0
   -2.7780    0.5600   -0.1070 N   0  0  0  0  0  0  0  0  0  0  0  0
   -3.8540   -0.1140    0.5990 C   0  0  0  0  0  0  0  0  0  0  0  0
  1  2  2  0
  2  3  1  0
  2  7  1  0
  3  4  1  0
  4  5  2  0
  5  6  1  0
  6  7  2  0
  7  8  1  0
  8  9  1  0
  9 10  1  0
 10 11  2  0
 10 14  1  0
 11 12  1  0
 12 13  2  0
 13 14  1  0
 14 15  1  0
M  END
