
     RDKit          3D

 21 22  0  0  0  0  0  0  0  0999 V2000
    0.9810    0.0530   -1.8510 C   0  0  0  0  0  0  0  0  0  0  0  0
    0.7620   -0.7680   -0.6090 C   0  0  0  0  0  0  0  0  0  0  0  0
    1.7240   -1.1050    0.1810 C   0  0  0  0  0  0  0  0  0  0  0  0
    3.1200   -0.7680    0.0180 C   0  0  0  0  0  0  0  0  0  0  0  0
    3.7960   -0.9010   -1.1820 C   0  0  0  0  0  0  0  0  0  0  0  0
    5.1260   -0.5580   -1.3230 C   0  0  0  0  0  0  0  0  0  0  0  0
    5.8370   -0.0560   -0.2300 C   0  0  0  0  0  0  0  0  0  0  0  0
    5.1760    0.0830    0.9740 C   0  0  0  0  0  0  0  0  0  0  0  0
    5.9190    0.6190    2.1400 C   0  0  0  0  0  0  0  0  0  0  0  0
    7.3110    0.5530    1.8990 O   0  0  0  0  0  0  0  0  0  0  0  0
    3.8500   -0.2690    1.0810 C   0  0  0  0  0  0  0  0  0  0  0  0
   -0.6520   -1.2120   -0.3060 C   0  0  0  0  0  0  0  0  0  0  0  0
   -1.5220   -0.0920   -0.0920 N   0  0  0  0  0  0  0  0  0  0  0  0
   -2.6270    0.0230   -0.9850 C   0  0  0  0  0  0  0  0  0  0  0  0
   -3.9340    0.0660   -0.3120 C   0  0  0  0  0  0  0  0  0  0  0  0
   -4.7330   -1.0520   -0.2780 C   0  0  0  0  0  0  0  0  0  0  0  0
   -5.9720   -1.0560    0.3580 C   0  0  0  0  0  0  0  0  0  0  0  0
   -6.4280    0.0920    0.9790 C   0  0  0  0  0  0  0  0  0  0  0  0
   -5.6360    1.2220    0.9520 C   0  0  0  0  0  0  0  0  0  0  0  0
   -6.1200    2.3890    1.5960 N   0  0  0  0  0  0  0  0  0  0  0  0
   -4.4090    1.2080    0.3170 C   0  0  0  0  0  0  0  0  0  0  0  0
  1  2  1  0
  2  3  2  3
  2 12  1  0
  3  4  1  0
  4  5  2  0
  4 11  1  0
  5  6  1  0
  6  7  2  0
  7  8  1  0
  8  9  1  0
  8 11  2  0
  9 10  1  0
 12 13  1  0
 13 14  1  0
 14 15  1  0
 15 16  2  0
 15 21  1  0
 16 17  1  0
 17 18  2  0
 18 19  1  0
 19 20  1  0
 19 21  2  0
M  CHG  1  13   1
M  END
