
     RDKit          3D

 21 22  0  0  0  0  0  0  0  0999 V2000
   -3.2720   -4.0050   -0.9780 C   0  0  0  0  0  0  0  0  0  0  0  0
   -3.6530   -2.5540   -0.8070 C   0  0  0  0  0  0  0  0  0  0  0  0
   -2.4580   -1.7200   -1.0130 N   0  0  0  0  0  0  0  0  0  0  0  0
   -2.5650   -0.6560   -0.0670 C   0  0  0  0  0  0  0  0  0  0  0  0
   -1.3700    0.2970   -0.1390 C   0  0  0  0  0  0  0  0  0  0  0  0
   -0.4500    0.0610   -0.9880 C   0  0  0  0  0  0  0  0  0  0  0  0
    0.7350    0.7450   -1.2720 N   0  0  0  0  0  0  0  0  0  0  0  0
    2.0210    0.3250   -0.7980 C   0  0  0  0  0  0  0  0  0  0  0  0
    3.1690    1.0320   -1.1030 C   0  0  0  0  0  0  0  0  0  0  0  0
    4.4090    0.6570   -0.6650 C   0  0  0  0  0  0  0  0  0  0  0  0
    4.5420   -0.4590    0.1060 C   0  0  0  0  0  0  0  0  0  0  0  0
    5.8840   -0.8660    0.5800 C   0  0  0  0  0  0  0  0  0  0  0  0
    3.4410   -1.2020    0.4420 C   0  0  0  0  0  0  0  0  0  0  0  0
    2.2070   -0.7940   -0.0160 C   0  0  0  0  0  0  0  0  0  0  0  0
   -1.4440    1.3820    0.8020 C   0  0  0  0  0  0  0  0  0  0  0  0
   -2.5230    1.5220    1.6850 C   0  0  0  0  0  0  0  0  0  0  0  0
   -2.6350    2.5400    2.5970 C   0  0  0  0  0  0  0  0  0  0  0  0
   -1.6470    3.4830    2.6660 C   0  0  0  0  0  0  0  0  0  0  0  0
   -0.5690    3.3960    1.8280 C   0  0  0  0  0  0  0  0  0  0  0  0
    0.4620    4.3570    1.8810 O   0  0  0  0  0  0  0  0  0  0  0  0
   -0.4730    2.3490    0.9030 C   0  0  0  0  0  0  0  0  0  0  0  0
  1  2  1  0
  2  3  1  0
  3  4  1  0
  4  5  1  0
  5  6  2  3
  5 15  1  0
  6  7  1  0
  7  8  1  0
  8  9  2  0
  8 14  1  0
  9 10  1  0
 10 11  2  0
 11 12  1  0
 11 13  1  0
 13 14  2  0
 15 16  2  0
 15 21  1  0
 16 17  1  0
 17 18  2  0
 18 19  1  0
 19 20  1  0
 19 21  2  0
M  CHG  1   3   1
M  END
