
     RDKit          3D

 21 22  0  0  0  0  0  0  0  0999 V2000
    4.6380   -1.1480   -0.6890 C   0  0  0  0  0  0  0  0  0  0  0  0
    3.7630    0.0840   -0.5270 C   0  0  0  0  0  0  0  0  0  0  0  0
    2.3310   -0.2480   -0.6910 C   0  0  0  0  0  0  0  0  0  0  0  0
    1.9110   -0.8700   -1.8950 N   0  0  0  0  0  0  0  0  0  0  0  0
    1.4690    0.0390    0.2590 C   0  0  0  0  0  0  0  0  0  0  0  0
    0.0310   -0.2980    0.0940 C   0  0  0  0  0  0  0  0  0  0  0  0
   -0.3120   -1.5150   -0.3620 N   0  0  0  0  0  0  0  0  0  0  0  0
   -1.5850   -1.8990   -0.5570 C   0  0  0  0  0  0  0  0  0  0  0  0
   -1.9170   -3.2370   -1.0390 C   0  0  0  0  0  0  0  0  0  0  0  0
   -2.4360   -4.1460    0.0470 C   0  0  0  0  0  0  0  0  0  0  0  0
   -2.5820   -0.9940   -0.2720 C   0  0  0  0  0  0  0  0  0  0  0  0
   -3.9930   -1.4390   -0.5170 C   0  0  0  0  0  0  0  0  0  0  0  0
   -2.2980    0.2830    0.2040 C   0  0  0  0  0  0  0  0  0  0  0  0
   -0.9640    0.6050    0.3790 C   0  0  0  0  0  0  0  0  0  0  0  0
   -0.5320    1.9240    0.8620 C   0  0  0  0  0  0  0  0  0  0  0  0
    0.4430    2.6430    0.2200 C   0  0  0  0  0  0  0  0  0  0  0  0
    0.8660    3.8870    0.6850 C   0  0  0  0  0  0  0  0  0  0  0  0
    0.3040    4.4350    1.8210 C   0  0  0  0  0  0  0  0  0  0  0  0
    0.7050    5.6690    2.3060 O   0  0  0  0  0  0  0  0  0  0  0  0
   -0.6750    3.7230    2.4730 C   0  0  0  0  0  0  0  0  0  0  0  0
   -1.0740    2.4970    1.9920 C   0  0  0  0  0  0  0  0  0  0  0  0
  1  2  1  0
  2  3  1  0
  3  4  1  0
  3  5  2  3
  5  6  1  0
  6  7  2  0
  6 14  1  0
  7  8  1  0
  8  9  1  0
  8 11  2  0
  9 10  1  0
 11 12  1  0
 11 13  1  0
 13 14  2  0
 14 15  1  0
 15 16  2  0
 15 21  1  0
 16 17  1  0
 17 18  2  0
 18 19  1  0
 18 20  1  0
 20 21  2  0
M  CHG  1   4   1
M  END
