
     RDKit          3D

 21 22  0  0  0  0  0  0  0  0999 V2000
    1.7440   -1.6010    2.2830 C   0  0  0  0  0  0  0  0  0  0  0  0
    2.4740   -0.8360    1.5370 C   0  0  0  0  0  0  0  0  0  0  0  0
    2.0120    0.1910    0.6690 C   0  0  0  0  0  0  0  0  0  0  0  0
    3.0300    0.8830    0.0640 C   0  0  0  0  0  0  0  0  0  0  0  0
    4.4320    0.5480    0.3290 C   0  0  0  0  0  0  0  0  0  0  0  0
    0.7270    0.7260    0.3430 C   0  0  0  0  0  0  0  0  0  0  0  0
    0.6210    2.1460    0.3010 C   0  0  0  0  0  0  0  0  0  0  0  0
   -0.4800    2.8150   -0.1490 C   0  0  0  0  0  0  0  0  0  0  0  0
   -0.4650    4.2040   -0.1420 O   0  0  0  0  0  0  0  0  0  0  0  0
    0.6130    4.9720    0.2970 C   0  0  0  0  0  0  0  0  0  0  0  0
   -1.5450    2.0790   -0.5850 C   0  0  0  0  0  0  0  0  0  0  0  0
   -1.4890    0.7250   -0.5640 C   0  0  0  0  0  0  0  0  0  0  0  0
   -2.6600   -0.0430   -0.9950 C   0  0  2  0  0  0  0  0  0  0  0  0
   -3.5370    0.8840   -1.8800 C   0  0  0  0  0  0  0  0  0  0  0  0
   -3.5370   -0.3360    0.1390 N   0  0  0  0  0  0  0  0  0  0  0  0
   -0.3420    0.0320   -0.0980 C   0  0  0  0  0  0  0  0  0  0  0  0
   -0.4020   -1.3550   -0.2330 N   0  0  0  0  0  0  0  0  0  0  0  0
    0.1090   -2.1810   -1.3410 C   0  0  0  0  0  0  0  0  0  0  0  0
    0.7460   -3.3210   -0.6280 C   0  0  0  0  0  0  0  0  0  0  0  0
   -0.2510   -3.6170    0.4760 C   0  0  0  0  0  0  0  0  0  0  0  0
   -1.0950   -2.3440    0.5460 C   0  0  0  0  0  0  0  0  0  0  0  0
  1  2  2  0
  2  3  1  0
  3  4  2  3
  3  6  1  0
  4  5  1  0
  6  7  2  0
  6 16  1  0
  7  8  1  0
  8  9  1  0
  8 11  2  0
  9 10  1  0
 11 12  1  0
 12 13  1  0
 12 16  2  0
 13 14  1  6
 13 15  1  0
 16 17  1  0
 17 18  1  0
 17 21  1  0
 18 19  1  0
 19 20  1  0
 20 21  1  0
M  CHG  1  15   1
M  END
