
     RDKit          3D

 21 22  0  0  0  0  0  0  0  0999 V2000
   -4.5820   -2.2140   -1.0250 C   0  0  0  0  0  0  0  0  0  0  0  0
   -4.2300   -1.8060    0.3750 C   0  0  0  0  0  0  0  0  0  0  0  0
   -2.8070   -1.4340    0.5630 C   0  0  0  0  0  0  0  0  0  0  0  0
   -2.0050   -2.4400    1.1210 C   0  0  0  0  0  0  0  0  0  0  0  0
   -0.6820   -2.2030    1.3240 C   0  0  0  0  0  0  0  0  0  0  0  0
   -0.0580   -0.9790    1.0000 C   0  0  0  0  0  0  0  0  0  0  0  0
    1.3350   -0.9040    1.2710 C   0  0  0  0  0  0  0  0  0  0  0  0
    1.7620   -1.6910    2.2290 O   0  0  0  0  0  0  0  0  0  0  0  0
    2.4070   -0.1290    0.6940 C   0  0  0  0  0  0  0  0  0  0  0  0
    2.3110    1.1110    0.1600 C   0  0  0  0  0  0  0  0  0  0  0  0
    3.4050    1.7800   -0.4370 C   0  0  0  0  0  0  0  0  0  0  0  0
    4.6420    1.1910   -0.5030 C   0  0  0  0  0  0  0  0  0  0  0  0
    5.7510    1.8570   -1.1060 N   0  0  0  0  0  0  0  0  0  0  0  0
    4.7600   -0.0710    0.0370 C   0  0  0  0  0  0  0  0  0  0  0  0
    6.0970   -0.7260   -0.0330 C   0  0  0  0  0  0  0  0  0  0  0  0
    3.6990   -0.7070    0.6090 C   0  0  0  0  0  0  0  0  0  0  0  0
   -0.8990   -0.0480    0.4620 C   0  0  0  0  0  0  0  0  0  0  0  0
   -2.2520   -0.2260    0.2300 C   0  0  0  0  0  0  0  0  0  0  0  0
   -3.1140    0.8040   -0.3470 C   0  0  0  0  0  0  0  0  0  0  0  0
   -2.5000    2.0530   -0.6630 N   0  0  0  0  0  0  0  0  0  0  0  0
   -3.5770    3.0630   -0.6010 C   0  0  0  0  0  0  0  0  0  0  0  0
  1  2  1  0
  2  3  1  0
  3  4  2  0
  3 18  1  0
  4  5  1  0
  5  6  2  0
  6  7  1  0
  6 17  1  0
  7  8  2  0
  7  9  1  0
  9 10  2  0
  9 16  1  0
 10 11  1  0
 11 12  2  0
 12 13  1  0
 12 14  1  0
 14 15  1  0
 14 16  2  0
 17 18  2  0
 18 19  1  0
 19 20  1  0
 20 21  1  0
M  CHG  1  20   1
M  END
