
     RDKit          3D

 21 22  0  0  0  0  0  0  0  0999 V2000
    4.6490    1.5820   -1.6000 C   0  0  0  0  0  0  0  0  0  0  0  0
    5.2400    0.6390   -0.7260 O   0  0  0  0  0  0  0  0  0  0  0  0
    4.5310   -0.1120    0.1830 C   0  0  0  0  0  0  0  0  0  0  0  0
    5.2320   -0.9970    0.9760 C   0  0  0  0  0  0  0  0  0  0  0  0
    4.6030   -1.7910    1.9160 C   0  0  0  0  0  0  0  0  0  0  0  0
    3.2550   -1.7160    2.0820 C   0  0  0  0  0  0  0  0  0  0  0  0
    2.5290   -0.8230    1.2860 C   0  0  0  0  0  0  0  0  0  0  0  0
    1.0780   -0.7130    1.4360 C   0  0  0  0  0  0  0  0  0  0  0  0
    0.3210   -1.6310    0.6140 N   0  0  0  0  0  0  0  0  0  0  0  0
   -0.1880   -1.0510   -0.5690 C   0  0  0  0  0  0  0  0  0  0  0  0
   -1.4340   -0.3090   -0.5760 C   0  0  0  0  0  0  0  0  0  0  0  0
   -1.8020    0.2150   -1.8330 C   0  0  0  0  0  0  0  0  0  0  0  0
   -0.9240   -0.0130   -3.0370 C   0  0  0  0  0  0  0  0  0  0  0  0
   -2.9650    0.9260   -1.9270 C   0  0  0  0  0  0  0  0  0  0  0  0
   -3.7850    1.1490   -0.8450 C   0  0  0  0  0  0  0  0  0  0  0  0
   -5.0420    1.9330   -1.0060 C   0  0  0  0  0  0  0  0  0  0  0  0
   -3.4580    0.6550    0.3890 C   0  0  0  0  0  0  0  0  0  0  0  0
   -4.3330    0.8850    1.5730 C   0  0  0  0  0  0  0  0  0  0  0  0
   -2.2570   -0.0790    0.4820 C   0  0  0  0  0  0  0  0  0  0  0  0
   -2.0110   -0.5550    1.8090 N   0  0  0  0  0  0  0  0  0  0  0  0
    3.1640   -0.0290    0.3440 C   0  0  0  0  0  0  0  0  0  0  0  0
  1  2  1  0
  2  3  1  0
  3  4  2  0
  3 21  1  0
  4  5  1  0
  5  6  2  0
  6  7  1  0
  7  8  1  0
  7 21  2  0
  8  9  1  0
  9 10  1  0
 10 11  1  0
 11 12  2  0
 11 19  1  0
 12 13  1  0
 12 14  1  0
 14 15  2  0
 15 16  1  0
 15 17  1  0
 17 18  1  0
 17 19  2  0
 19 20  1  0
M  CHG  1   9   1
M  END
