
     RDKit          3D

 11 11  0  0  0  0  0  0  0  0999 V2000
   -3.6030    0.3850   -1.6220 O   0  0  0  0  0  0  0  0  0  0  0  0
   -3.1240    0.4420   -0.4940 N   0  0  0  0  0  0  0  0  0  0  0  0
   -3.9400    0.7700    0.5480 O   0  0  0  0  0  0  0  0  0  0  0  0
   -1.7300    0.1640   -0.3000 C   0  0  0  0  0  0  0  0  0  0  0  0
   -1.1470    0.2160    0.9490 C   0  0  0  0  0  0  0  0  0  0  0  0
    0.1910   -0.0470    1.1650 C   0  0  0  0  0  0  0  0  0  0  0  0
    1.0120   -0.3790    0.1050 C   0  0  0  0  0  0  0  0  0  0  0  0
    2.4610   -0.6700    0.2840 C   0  0  0  0  0  0  0  0  0  0  0  0
    3.3410    0.9180    0.1050 S   0  0  0  0  0  0  0  0  0  0  0  0
    0.4330   -0.4320   -1.1480 C   0  0  0  0  0  0  0  0  0  0  0  0
   -0.9060   -0.1680   -1.3530 C   0  0  0  0  0  0  0  0  0  0  0  0
  1  2  2  0
  2  3  1  0
  2  4  1  0
  4  5  2  0
  4 11  1  0
  5  6  1  0
  6  7  2  0
  7  8  1  0
  7 10  1  0
  8  9  1  0
 10 11  2  0
M  CHG  2   2   1   3  -1
M  END
