
     RDKit          3D

 21 21  0  0  0  0  0  0  0  0999 V2000
   -4.8260    1.6430   -2.9760 C   0  0  0  0  0  0  0  0  0  0  0  0
   -4.5880    0.4600   -2.4050 C   0  0  0  0  0  0  0  0  0  0  0  0
   -3.3750    0.2250   -1.6010 C   0  0  0  0  0  0  0  0  0  0  0  0
   -3.7060   -0.1490   -0.2260 N   0  0  0  0  0  0  0  0  0  0  0  0
   -2.6890   -0.4240    0.7290 C   0  0  0  0  0  0  0  0  0  0  0  0
   -1.3340   -0.3380    0.3590 C   0  0  0  0  0  0  0  0  0  0  0  0
   -0.3160   -0.5920    1.2400 C   0  0  0  0  0  0  0  0  0  0  0  0
    1.0710   -0.5330    0.9450 N   0  0  0  0  0  0  0  0  0  0  0  0
    1.6620   -0.2860   -0.2970 C   0  0  0  0  0  0  0  0  0  0  0  0
    0.9530   -0.0850   -1.3060 O   0  0  0  0  0  0  0  0  0  0  0  0
    3.1430   -0.2660   -0.3900 C   0  0  0  0  0  0  0  0  0  0  0  0
    3.8370   -0.4670    0.6220 O   0  0  0  0  0  0  0  0  0  0  0  0
    3.7640   -0.0180   -1.6340 N   0  0  0  0  0  0  0  0  0  0  0  0
    5.1480    0.0650   -1.9380 C   0  0  0  0  0  0  0  0  0  0  0  0
    5.9510    1.1580   -1.3880 C   0  0  0  0  0  0  0  0  0  0  0  0
    6.0590    1.2030    0.0960 C   0  0  0  0  0  0  0  0  0  0  0  0
   -0.7070   -0.9420    2.5320 C   0  0  0  0  0  0  0  0  0  0  0  0
   -2.0330   -1.0260    2.8920 C   0  0  0  0  0  0  0  0  0  0  0  0
   -3.0580   -0.7710    2.0090 C   0  0  0  0  0  0  0  0  0  0  0  0
   -4.3840   -0.8650    2.4060 O   0  0  0  0  0  0  0  0  0  0  0  0
   -4.6580   -1.2280    3.7400 C   0  0  0  0  0  0  0  0  0  0  0  0
  1  2  2  0
  2  3  1  0
  3  4  1  0
  4  5  1  0
  5  6  2  0
  5 19  1  0
  6  7  1  0
  7  8  1  0
  7 17  2  0
  8  9  1  0
  9 10  2  0
  9 11  1  0
 11 12  2  0
 11 13  1  0
 13 14  1  0
 14 15  1  0
 15 16  1  0
 17 18  1  0
 18 19  2  0
 19 20  1  0
 20 21  1  0
M  END
