
     RDKit          3D

 10 10  0  0  0  0  0  0  0  0999 V2000
    2.5870   -0.1570    0.6760 N   0  0  0  0  0  0  0  0  0  0  0  0
    1.3920   -0.7070    0.0880 C   0  0  0  0  0  0  0  0  0  0  0  0
    0.1470    0.0300    0.4620 C   0  0  1  0  0  0  0  0  0  0  0  0
    0.1580    1.4730    0.0480 C   0  0  2  0  0  0  0  0  0  0  0  0
   -0.1340    2.3230    1.1300 O   0  0  0  0  0  0  0  0  0  0  0  0
   -1.0510    1.5780   -0.8900 C   0  0  0  0  0  0  0  0  0  0  0  0
   -1.8680    0.5130   -0.4410 O   0  0  0  0  0  0  0  0  0  0  0  0
   -0.9740   -0.5270   -0.4240 C   0  0  2  0  0  0  0  0  0  0  0  0
   -1.5080   -1.7840    0.2150 C   0  0  0  0  0  0  0  0  0  0  0  0
   -2.6210   -2.2540   -0.4400 O   0  0  0  0  0  0  0  0  0  0  0  0
  1  2  1  0
  3  2  1  6
  3  4  1  0
  3  8  1  0
  4  5  1  1
  4  6  1  0
  6  7  1  0
  7  8  1  0
  8  9  1  1
  9 10  1  0
M  CHG  1   1   1
M  END
