
     RDKit          3D

 10 10  0  0  0  0  0  0  0  0999 V2000
    1.9400    0.3670   -1.0330 N   0  0  0  0  0  0  0  0  0  0  0  0
    1.4570   -0.1770    0.1880 C   0  0  0  0  0  0  0  0  0  0  0  0
   -0.0070   -0.2060    0.3770 C   0  0  1  0  0  0  0  0  0  0  0  0
   -0.3380   -0.8130    1.7240 C   0  0  0  0  0  0  0  0  0  0  0  0
    0.2210   -0.0810    2.7520 O   0  0  0  0  0  0  0  0  0  0  0  0
   -0.4950    1.2510    0.4480 C   0  0  0  0  0  0  0  0  0  0  0  0
   -0.8900    1.5130   -0.8600 O   0  0  0  0  0  0  0  0  0  0  0  0
   -1.7080    0.3980   -1.1210 C   0  0  0  0  0  0  0  0  0  0  0  0
   -0.8490   -0.7840   -0.6600 C   0  0  1  0  0  0  0  0  0  0  0  0
   -0.2630   -1.3280   -1.7550 O   0  0  0  0  0  0  0  0  0  0  0  0
  1  2  1  0
  3  2  1  6
  3  4  1  0
  3  6  1  0
  3  9  1  0
  4  5  1  0
  6  7  1  0
  7  8  1  0
  8  9  1  0
  9 10  1  6
M  CHG  1   1   1
M  END
