
     RDKit          3D

 11 11  0  0  0  0  0  0  0  0999 V2000
   -1.3450    0.3930    1.8730 N   0  0  0  0  0  0  0  0  0  0  0  0
   -0.1500    0.8270    1.2350 C   0  0  0  0  0  0  0  0  0  0  0  0
    0.5490    1.6130    1.8330 O   0  0  0  0  0  0  0  0  0  0  0  0
    0.1510    0.2900   -0.1060 C   0  0  1  0  0  0  0  0  0  0  0  0
   -0.9370    0.6360   -1.0940 C   0  0  0  0  0  0  0  0  0  0  0  0
   -1.0260    2.0180   -1.1640 O   0  0  0  0  0  0  0  0  0  0  0  0
    1.4870    0.7350   -0.6330 C   0  0  0  0  0  0  0  0  0  0  0  0
    1.9050   -0.2570   -1.4810 O   0  0  0  0  0  0  0  0  0  0  0  0
    1.3450   -1.4480   -1.1120 C   0  0  0  0  0  0  0  0  0  0  0  0
    0.3690   -1.2060   -0.0020 C   0  0  2  0  0  0  0  0  0  0  0  0
   -0.7870   -1.9350   -0.0870 O   0  0  0  0  0  0  0  0  0  0  0  0
  1  2  1  0
  2  3  2  0
  2  4  1  0
  4  5  1  6
  4  7  1  0
  4 10  1  0
  5  6  1  0
  7  8  1  0
  8  9  1  0
  9 10  1  0
 10 11  1  6
M  CHG  1   1   1
M  END
