
     RDKit          3D

 13 13  0  0  0  0  0  0  0  0999 V2000
   -4.3500    0.3650   -0.2360 C   0  0  0  0  0  0  0  0  0  0  0  0
   -3.0200   -0.0130   -1.4200 S   0  0  0  0  0  0  0  0  0  0  0  0
   -1.4790    0.5330   -0.6650 C   0  0  0  0  0  0  0  0  0  0  0  0
   -0.9150    1.7450   -0.7710 N   0  0  0  0  0  0  0  0  0  0  0  0
    0.2220    1.7650   -0.0690 N   0  0  0  0  0  0  0  0  0  0  0  0
    0.4020    0.5580    0.4980 C   0  0  0  0  0  0  0  0  0  0  0  0
    1.7600    0.0610    1.5340 S   0  0  0  0  0  0  0  0  0  0  0  0
    3.1320   -0.6290    0.6130 C   0  0  0  0  0  0  0  0  0  0  0  0
    3.8050    0.3500   -0.2660 C   0  0  0  0  0  0  0  0  0  0  0  0
    4.7770   -0.0500   -0.9480 O   0  0  0  0  0  0  0  0  0  0  0  0
    3.4270    1.6640   -0.3760 O   0  0  0  0  0  0  0  0  0  0  0  0
   -0.6480   -0.1860    0.1240 N   0  0  0  0  0  0  0  0  0  0  0  0
   -0.8740   -1.5480    0.4970 C   0  0  0  0  0  0  0  0  0  0  0  0
  1  2  1  0
  2  3  1  0
  3  4  2  0
  3 12  1  0
  4  5  1  0
  5  6  2  0
  6  7  1  0
  6 12  1  0
  7  8  1  0
  8  9  1  0
  9 10  2  0
  9 11  1  0
 12 13  1  0
M  END
