
     RDKit          3D

 13 13  0  0  0  0  0  0  0  0999 V2000
   -4.0200   -0.6130    0.4030 C   0  0  0  0  0  0  0  0  0  0  0  0
   -3.0230   -1.1640    1.3700 C   0  0  0  0  0  0  0  0  0  0  0  0
   -1.7000   -1.2890    0.8370 N   0  0  0  0  0  0  0  0  0  0  0  0
   -0.9720   -0.1780    0.3530 C   0  0  0  0  0  0  0  0  0  0  0  0
   -1.5280    0.9470    0.4040 O   0  0  0  0  0  0  0  0  0  0  0  0
    0.3050   -0.2510   -0.1690 O   0  0  0  0  0  0  0  0  0  0  0  0
    0.9130    0.9380   -0.6150 C   0  0  0  0  0  0  0  0  0  0  0  0
    2.3090    0.5850   -1.1420 C   0  0  0  0  0  0  0  0  0  0  0  0
    2.4830    0.2640   -2.4740 N   0  0  0  0  0  0  0  0  0  0  0  0
    4.2950   -0.0590   -2.5370 S   0  0  0  0  0  0  0  0  0  0  0  0
    4.4530    0.3150   -0.6990 C   0  0  0  0  0  0  0  0  0  0  0  0
    6.2070    0.1460   -0.1010 S   0  0  0  0  0  0  0  0  0  0  0  0
    3.4050    0.5520   -0.4340 N   0  0  0  0  0  0  0  0  0  0  0  0
  1  2  1  0
  2  3  1  0
  3  4  1  0
  4  5  2  0
  4  6  1  0
  6  7  1  0
  7  8  1  0
  8  9  2  0
  8 13  1  0
  9 10  1  0
 10 11  1  0
 11 12  1  0
 11 13  2  0
M  END
