
     RDKit          3D

 13 13  0  0  0  0  0  0  0  0999 V2000
   -2.5070    1.1580    0.9970 C   0  0  0  0  0  0  0  0  0  0  0  0
   -1.6730    1.1000   -0.2740 C   0  0  0  0  0  0  0  0  0  0  0  0
   -1.2770   -0.2640   -0.5270 N   0  0  0  0  0  0  0  0  0  0  0  0
   -2.0990   -1.1010   -1.3070 C   0  0  0  0  0  0  0  0  0  0  0  0
   -3.1690   -0.6810   -1.7870 O   0  0  0  0  0  0  0  0  0  0  0  0
   -1.7080   -2.4000   -1.5380 O   0  0  0  0  0  0  0  0  0  0  0  0
   -0.0360   -0.7040    0.0430 C   0  0  0  0  0  0  0  0  0  0  0  0
    1.1460   -0.3490    0.0360 N   0  0  0  0  0  0  0  0  0  0  0  0
    2.1290   -0.8670    0.6070 C   0  0  0  0  0  0  0  0  0  0  0  0
    3.8900   -0.4340    0.6630 S   0  0  0  0  0  0  0  0  0  0  0  0
    4.1430    1.0390   -0.3310 C   0  0  0  0  0  0  0  0  0  0  0  0
    1.8310   -2.0660    1.3990 N   0  0  0  0  0  0  0  0  0  0  0  0
    0.0280   -2.1420    1.0800 S   0  0  0  0  0  0  0  0  0  0  0  0
  1  2  1  0
  2  3  1  0
  3  4  1  0
  3  7  1  0
  4  5  2  0
  4  6  1  0
  7  8  2  0
  7 13  1  0
  8  9  1  0
  9 10  1  0
  9 12  2  0
 10 11  1  0
 12 13  1  0
M  END
