
     RDKit          3D

 13 13  0  0  0  0  0  0  0  0999 V2000
   -3.0050    2.2250   -1.3050 C   0  0  0  0  0  0  0  0  0  0  0  0
   -1.2270    1.9700   -1.0700 S   0  0  0  0  0  0  0  0  0  0  0  0
   -0.9770    0.3130   -0.4730 C   0  0  0  0  0  0  0  0  0  0  0  0
   -2.0200   -0.4730   -0.2830 C   0  0  0  0  0  0  0  0  0  0  0  0
   -1.8680   -1.8120    0.1960 N   0  0  0  0  0  0  0  0  0  0  0  0
   -0.5740   -2.2720    0.4600 N   0  0  0  0  0  0  0  0  0  0  0  0
    0.5430   -1.3920    0.2440 C   0  0  0  0  0  0  0  0  0  0  0  0
    2.1710   -2.0360    0.6000 S   0  0  0  0  0  0  0  0  0  0  0  0
    3.3900   -0.7250    0.2380 C   0  0  0  0  0  0  0  0  0  0  0  0
    3.2350    0.4180    1.1730 C   0  0  0  0  0  0  0  0  0  0  0  0
    3.8470    0.4920    2.2700 O   0  0  0  0  0  0  0  0  0  0  0  0
    2.3790    1.4770    0.8500 O   0  0  0  0  0  0  0  0  0  0  0  0
    0.3260   -0.2020   -0.1880 N   0  0  0  0  0  0  0  0  0  0  0  0
  1  2  1  0
  2  3  1  0
  3  4  2  0
  3 13  1  0
  4  5  1  0
  5  6  1  0
  6  7  1  0
  7  8  1  0
  7 13  2  0
  8  9  1  0
  9 10  1  0
 10 11  2  0
 10 12  1  0
M  END
