
     RDKit          3D

 13 13  0  0  0  0  0  0  0  0999 V2000
    3.7110    3.3020    1.2000 N   0  0  0  0  0  0  0  0  0  0  0  0
    3.7580    2.2780    0.7040 C   0  0  0  0  0  0  0  0  0  0  0  0
    3.7970    0.9430    0.0730 C   0  0  0  0  0  0  0  0  0  0  0  0
    2.1570    0.5430   -0.5890 S   0  0  0  0  0  0  0  0  0  0  0  0
    0.9700    0.3470    0.7230 C   0  0  0  0  0  0  0  0  0  0  0  0
    1.4700    0.5160    2.2620 S   0  0  0  0  0  0  0  0  0  0  0  0
   -0.3270    0.0610    0.4110 O   0  0  0  0  0  0  0  0  0  0  0  0
   -0.7900   -1.0030   -0.3850 C   0  0  0  0  0  0  0  0  0  0  0  0
   -2.2670   -0.9020   -0.4400 C   0  0  0  0  0  0  0  0  0  0  0  0
   -3.2230   -1.3880    0.3740 N   0  0  0  0  0  0  0  0  0  0  0  0
   -4.4380   -1.0300   -0.0910 C   0  0  0  0  0  0  0  0  0  0  0  0
   -4.2260   -0.3370   -1.1700 O   0  0  0  0  0  0  0  0  0  0  0  0
   -2.9540   -0.2510   -1.3930 N   0  0  0  0  0  0  0  0  0  0  0  0
  1  2  3  0
  2  3  1  0
  3  4  1  0
  4  5  1  0
  5  6  2  0
  5  7  1  0
  7  8  1  0
  8  9  1  0
  9 10  1  0
  9 13  2  0
 10 11  2  0
 11 12  1  0
 12 13  1  0
M  END
