
     RDKit          3D

 13 13  0  0  0  0  0  0  0  0999 V2000
    2.3100    0.6240    1.6390 C   0  0  0  0  0  0  0  0  0  0  0  0
    2.8980   -0.1870    0.4970 C   0  0  2  0  0  0  0  0  0  0  0  0
    3.0440    0.6910   -0.6980 C   0  0  0  0  0  0  0  0  0  0  0  0
    1.9730   -1.7010    0.1940 S   0  0  0  0  0  0  0  0  0  0  0  0
    0.3140   -1.2240   -0.4130 C   0  0  0  0  0  0  0  0  0  0  0  0
    0.1670   -1.0810   -1.7620 N   0  0  0  0  0  0  0  0  0  0  0  0
   -1.6290   -0.6050   -1.8890 S   0  0  0  0  0  0  0  0  0  0  0  0
   -1.8440   -0.6900   -0.0780 C   0  0  0  0  0  0  0  0  0  0  0  0
   -3.1180   -0.4040    0.5000 N   0  0  0  0  0  0  0  0  0  0  0  0
   -4.2340   -0.0540   -0.2710 C   0  0  0  0  0  0  0  0  0  0  0  0
   -4.1140    0.0110   -1.5300 O   0  0  0  0  0  0  0  0  0  0  0  0
   -5.4900    0.2320    0.2560 O   0  0  0  0  0  0  0  0  0  0  0  0
   -0.7560   -1.0010    0.2870 N   0  0  0  0  0  0  0  0  0  0  0  0
  2  1  1  1
  2  3  1  0
  2  4  1  0
  4  5  1  0
  5  6  2  0
  5 13  1  0
  6  7  1  0
  7  8  1  0
  8  9  1  0
  8 13  2  0
  9 10  1  0
 10 11  2  0
 10 12  1  0
M  END
