
     RDKit          3D

 20 22  0  0  0  0  0  0  0  0999 V2000
   -2.9810    2.8220   -1.0430 O   0  0  0  0  0  0  0  0  0  0  0  0
   -2.4280    2.1010    0.0030 C   0  0  0  0  0  0  0  0  0  0  0  0
   -2.4200    0.6470   -0.3970 C   0  0  1  0  0  0  0  0  0  0  0  0
   -1.6220    0.3750   -1.6360 C   0  0  0  0  0  0  0  0  0  0  0  0
   -0.6740   -0.7990   -1.4090 C   0  0  2  0  0  0  0  0  0  0  0  0
   -1.4270   -2.0060   -0.9170 C   0  0  1  0  0  0  0  0  0  0  0  0
   -0.4850   -2.9650   -0.5530 O   0  0  0  0  0  0  0  0  0  0  0  0
   -2.2280   -1.6640    0.3030 C   0  0  1  0  0  0  0  0  0  0  0  0
   -2.1200   -2.5640    1.3290 O   0  0  0  0  0  0  0  0  0  0  0  0
   -1.8690   -0.2440    0.7050 C   0  0  2  0  0  0  0  0  0  0  0  0
   -2.4090    0.1100    1.9250 O   0  0  0  0  0  0  0  0  0  0  0  0
   -0.3660   -0.0500    0.7920 C   0  0  0  0  0  0  0  0  0  0  0  0
    0.3250   -0.4680   -0.3890 N   0  0  2  0  0  0  0  0  0  0  0  0
    1.2000    0.5100   -0.9520 C   0  0  0  0  0  0  0  0  0  0  0  0
    2.5430    0.5410   -0.3150 C   0  0  0  0  0  0  0  0  0  0  0  0
    3.5940   -0.2300   -0.7680 C   0  0  0  0  0  0  0  0  0  0  0  0
    4.8430   -0.2080   -0.1830 C   0  0  0  0  0  0  0  0  0  0  0  0
    5.0860    0.6110    0.9060 C   0  0  0  0  0  0  0  0  0  0  0  0
    4.0520    1.3900    1.3770 C   0  0  0  0  0  0  0  0  0  0  0  0
    2.8080    1.3580    0.7820 C   0  0  0  0  0  0  0  0  0  0  0  0
  1  2  1  0
  3  2  1  1
  3  4  1  0
  3 10  1  0
  5  4  1  1
  5  6  1  0
  5 13  1  0
  6  7  1  1
  6  8  1  0
  8  9  1  1
  8 10  1  0
 10 11  1  1
 10 12  1  0
 12 13  1  0
 13 14  1  6
 14 15  1  0
 15 16  2  0
 15 20  1  0
 16 17  1  0
 17 18  2  0
 18 19  1  0
 19 20  2  0
M  CHG  1  13   1
M  END
