
     RDKit          3D

 22 24  0  0  0  0  0  0  0  0999 V2000
    4.8850   -0.9310   -0.0070 N   0  0  0  0  0  0  0  0  0  0  0  0
    3.8230   -0.5970    0.8670 C   0  0  0  0  0  0  0  0  0  0  0  0
    3.7270   -1.1390    1.9930 O   0  0  0  0  0  0  0  0  0  0  0  0
    2.8070    0.3990    0.4650 C   0  0  2  0  0  0  0  0  0  0  0  0
    1.4080   -0.1510    0.5390 C   0  0  0  0  0  0  0  0  0  0  0  0
    0.5420    0.4150   -0.4710 N   0  0  0  0  0  0  0  0  0  0  0  0
   -0.5510   -0.3620   -0.8970 C   0  0  0  0  0  0  0  0  0  0  0  0
   -0.4100   -1.0970   -2.1010 C   0  0  0  0  0  0  0  0  0  0  0  0
   -1.3780   -1.9290   -2.5910 C   0  0  0  0  0  0  0  0  0  0  0  0
   -2.5350   -2.0390   -1.8580 C   0  0  0  0  0  0  0  0  0  0  0  0
   -3.5620   -2.8920   -2.3380 N   0  0  0  0  0  0  0  0  0  0  0  0
   -2.6960   -1.3350   -0.6870 C   0  0  0  0  0  0  0  0  0  0  0  0
   -1.7070   -0.4830   -0.1850 C   0  0  0  0  0  0  0  0  0  0  0  0
   -1.9340    0.3140    1.0100 C   0  0  0  0  0  0  0  0  0  0  0  0
   -3.0320    0.1450    1.8320 C   0  0  0  0  0  0  0  0  0  0  0  0
   -2.9250    1.0500    2.8470 C   0  0  0  0  0  0  0  0  0  0  0  0
   -1.7620    1.7430    2.6100 C   0  0  0  0  0  0  0  0  0  0  0  0
   -1.3280    2.7580    3.4540 O   0  0  0  0  0  0  0  0  0  0  0  0
   -1.2290    1.2710    1.5280 O   0  0  0  0  0  0  0  0  0  0  0  0
    0.8510    1.7170   -0.9850 C   0  0  0  0  0  0  0  0  0  0  0  0
    2.3300    2.0200   -0.9850 C   0  0  0  0  0  0  0  0  0  0  0  0
    3.0880    0.8860   -0.8210 O   0  0  0  0  0  0  0  0  0  0  0  0
  1  2  1  0
  2  3  2  0
  4  2  1  6
  4  5  1  0
  4 22  1  0
  5  6  1  0
  6  7  1  0
  6 20  1  0
  7  8  2  0
  7 13  1  0
  8  9  1  0
  9 10  2  0
 10 11  1  0
 10 12  1  0
 12 13  2  0
 13 14  1  0
 14 15  2  0
 14 19  1  0
 15 16  1  0
 16 17  2  0
 17 18  1  0
 17 19  1  0
 20 21  1  0
 21 22  1  0
M  END
