
     RDKit          3D

 21 22  0  0  0  0  0  0  0  0999 V2000
   -3.1840   -3.0990   -0.5780 C   0  0  0  0  0  0  0  0  0  0  0  0
   -3.5870   -1.6660   -0.4360 C   0  0  0  0  0  0  0  0  0  0  0  0
   -2.7860   -0.6850   -0.0530 C   0  0  0  0  0  0  0  0  0  0  0  0
   -1.3530   -0.8780    0.2950 C   0  0  0  0  0  0  0  0  0  0  0  0
   -0.4700   -0.0970   -0.6090 C   0  0  0  0  0  0  0  0  0  0  0  0
   -0.9650    0.6170   -1.5250 O   0  0  0  0  0  0  0  0  0  0  0  0
    0.9350   -0.1830   -0.4080 N   0  0  0  0  0  0  0  0  0  0  0  0
    1.4910   -1.0050    0.6370 C   0  0  0  0  0  0  0  0  0  0  0  0
    2.6800   -0.3380    1.2690 C   0  0  0  0  0  0  0  0  0  0  0  0
    3.6790    0.0870    0.2170 C   0  0  2  0  0  0  0  0  0  0  0  0
    4.1830   -1.0810   -0.5680 C   0  0  0  0  0  0  0  0  0  0  0  0
    4.7500    0.6890    0.8590 O   0  0  0  0  0  0  0  0  0  0  0  0
    3.0020    1.1320   -0.6420 C   0  0  2  0  0  0  0  0  0  0  0  0
    2.6870    2.3080    0.2640 C   0  0  0  0  0  0  0  0  0  0  0  0
    1.7760    0.5980   -1.3080 C   0  0  0  0  0  0  0  0  0  0  0  0
   -3.4930    0.5870   -0.0170 C   0  0  0  0  0  0  0  0  0  0  0  0
   -3.0650    1.7930    0.3130 C   0  0  0  0  0  0  0  0  0  0  0  0
   -3.9560    2.8950    0.2680 N   0  0  0  0  0  0  0  0  0  0  0  0
   -4.8660    0.2540   -0.4390 C   0  0  0  0  0  0  0  0  0  0  0  0
   -5.8270    1.0380   -0.5560 O   0  0  0  0  0  0  0  0  0  0  0  0
   -4.8800   -1.1290   -0.6840 N   0  0  0  0  0  0  0  0  0  0  0  0
  1  2  1  0
  2  3  2  0
  2 21  1  0
  3  4  1  0
  3 16  1  0
  4  5  1  0
  5  6  2  0
  5  7  1  0
  7  8  1  0
  7 15  1  0
  8  9  1  0
  9 10  1  0
 10 11  1  6
 10 12  1  0
 10 13  1  0
 13 14  1  1
 13 15  1  0
 16 17  2  3
 16 19  1  0
 17 18  1  0
 19 20  2  0
 19 21  1  0
M  END
