
     RDKit          3D

 22 23  0  0  0  0  0  0  0  0999 V2000
   -2.3750    2.7920    0.1590 C   0  0  0  0  0  0  0  0  0  0  0  0
   -2.3540    1.3810    0.0330 C   0  0  0  0  0  0  0  0  0  0  0  0
   -1.0040    0.9210    0.0440 C   0  0  0  0  0  0  0  0  0  0  0  0
   -0.4300   -0.2410   -0.0390 C   0  0  0  0  0  0  0  0  0  0  0  0
    1.0300   -0.4800   -0.0040 C   0  0  0  0  0  0  0  0  0  0  0  0
    1.3770   -1.7060   -0.1010 O   0  0  0  0  0  0  0  0  0  0  0  0
    1.9640    0.5450    0.1240 N   0  0  0  0  0  0  0  0  0  0  0  0
    3.3650    0.3280    0.1660 C   0  0  0  0  0  0  0  0  0  0  0  0
    3.9580   -0.8640    0.3960 C   0  0  0  0  0  0  0  0  0  0  0  0
    5.3550   -1.0460    0.4090 C   0  0  0  0  0  0  0  0  0  0  0  0
    5.9130   -2.2960    0.6510 O   0  0  0  0  0  0  0  0  0  0  0  0
    6.1220    0.0690    0.1730 C   0  0  0  0  0  0  0  0  0  0  0  0
    5.5410    1.2840   -0.0610 C   0  0  0  0  0  0  0  0  0  0  0  0
    6.3650    2.3980   -0.2980 O   0  0  0  0  0  0  0  0  0  0  0  0
    4.1800    1.4360   -0.0690 C   0  0  0  0  0  0  0  0  0  0  0  0
   -3.6180    0.8090   -0.0680 C   0  0  0  0  0  0  0  0  0  0  0  0
   -4.2210   -0.3300   -0.1940 C   0  0  0  0  0  0  0  0  0  0  0  0
   -3.7910   -1.6940   -0.3000 C   0  0  0  0  0  0  0  0  0  0  0  0
   -4.8010   -2.4810   -0.4100 N   0  0  0  0  0  0  0  0  0  0  0  0
   -6.0210   -1.7560   -0.3920 C   0  0  2  0  0  0  0  0  0  0  0  0
   -6.6690   -1.9600   -1.6830 N   0  0  0  0  0  0  0  0  0  0  0  0
   -5.6670   -0.4180   -0.2580 O   0  0  0  0  0  0  0  0  0  0  0  0
  1  2  2  0
  2  3  1  0
  2 16  1  0
  3  4  2  3
  4  5  1  0
  5  6  2  0
  5  7  1  0
  7  8  1  0
  8  9  2  0
  8 15  1  0
  9 10  1  0
 10 11  1  0
 10 12  2  0
 12 13  1  0
 13 14  1  0
 13 15  2  0
 16 17  2  3
 17 18  1  0
 17 22  1  0
 18 19  2  0
 19 20  1  0
 20 21  1  6
 20 22  1  0
M  END
