
     RDKit          3D

 22 23  0  0  0  0  0  0  0  0999 V2000
    5.6120    1.6050    0.1290 C   0  0  0  0  0  0  0  0  0  0  0  0
    4.6870    0.5220   -0.4760 C   0  0  0  0  0  0  0  0  0  0  0  0
    3.3890    0.7470   -0.1190 O   0  0  0  0  0  0  0  0  0  0  0  0
    2.2020    0.1990   -0.3270 C   0  0  0  0  0  0  0  0  0  0  0  0
    1.2260    1.1170   -0.4440 C   0  0  0  0  0  0  0  0  0  0  0  0
   -0.2360    1.0390   -0.6760 C   0  0  0  0  0  0  0  0  0  0  0  0
   -1.1710    0.1370   -0.4810 C   0  0  0  0  0  0  0  0  0  0  0  0
   -2.4550    0.4750   -0.8490 O   0  0  0  0  0  0  0  0  0  0  0  0
   -2.9750    1.7550   -1.0000 C   0  0  2  0  0  0  0  0  0  0  0  0
   -2.8760    2.5230    0.3210 C   0  0  0  0  0  0  0  0  0  0  0  0
   -4.4540    1.6570   -1.2770 C   0  0  0  0  0  0  0  0  0  0  0  0
   -5.1220    0.4190   -1.3540 N   0  0  0  0  0  0  0  0  0  0  0  0
   -5.1320    2.7060   -1.4490 O   0  0  0  0  0  0  0  0  0  0  0  0
   -1.1130   -1.2330    0.0840 C   0  0  0  0  0  0  0  0  0  0  0  0
   -0.1770   -2.1600    0.2050 C   0  0  0  0  0  0  0  0  0  0  0  0
    1.2420   -2.2010   -0.1900 C   0  0  0  0  0  0  0  0  0  0  0  0
    2.1560   -1.2400   -0.3910 C   0  0  0  0  0  0  0  0  0  0  0  0
    3.3880   -1.8100   -0.7720 N   0  0  0  0  0  0  0  0  0  0  0  0
   -0.6780   -3.3250    0.8460 N   0  0  0  0  0  0  0  0  0  0  0  0
   -2.0400   -3.0880    1.1420 C   0  0  0  0  0  0  0  0  0  0  0  0
   -2.8600   -3.8830    1.7220 O   0  0  0  0  0  0  0  0  0  0  0  0
   -2.3630   -1.7380    0.6580 C   0  0  0  0  0  0  0  0  0  0  0  0
  1  2  1  0
  2  3  1  0
  3  4  1  0
  4  5  2  0
  4 17  1  0
  5  6  1  0
  6  7  2  0
  7  8  1  0
  7 14  1  0
  8  9  1  0
  9 10  1  1
  9 11  1  0
 11 12  1  0
 11 13  2  0
 14 15  2  0
 14 22  1  0
 15 16  1  0
 15 19  1  0
 16 17  2  0
 17 18  1  0
 19 20  1  0
 20 21  2  0
 20 22  1  0
M  END
