
     RDKit          3D

 22 24  0  0  0  0  0  0  0  0999 V2000
    1.7690   -0.8590    1.3730 O   0  0  0  0  0  0  0  0  0  0  0  0
    1.6980   -0.9760    0.1440 C   0  0  0  0  0  0  0  0  0  0  0  0
    2.7360   -0.4970   -0.6520 N   0  0  0  0  0  0  0  0  0  0  0  0
    3.9380    0.1630   -0.3050 C   0  0  0  0  0  0  0  0  0  0  0  0
    3.9370    1.4870    0.3270 C   0  0  2  0  0  0  0  0  0  0  0  0
    3.3420    1.7940    1.6340 C   0  0  0  0  0  0  0  0  0  0  0  0
    2.1430    2.3920    0.9350 C   0  0  0  0  0  0  0  0  0  0  0  0
    2.9850    2.5030   -0.3210 C   0  0  0  0  0  0  0  0  0  0  0  0
    0.5260   -1.6140   -0.4170 N   0  0  0  0  0  0  0  0  0  0  0  0
   -0.4880   -2.0770    0.5000 C   0  0  2  0  0  0  0  0  0  0  0  0
   -0.4980   -3.6040    0.3720 C   0  0  0  0  0  0  0  0  0  0  0  0
   -1.9190   -3.9500   -0.0140 C   0  0  0  0  0  0  0  0  0  0  0  0
   -2.2710   -2.7240   -0.8700 C   0  0  0  0  0  0  0  0  0  0  0  0
   -1.8790   -1.6370    0.1100 C   0  0  2  0  0  0  0  0  0  0  0  0
   -1.8510   -0.3810   -0.4030 O   0  0  0  0  0  0  0  0  0  0  0  0
   -2.5910    0.5610    0.2690 C   0  0  2  0  0  0  0  0  0  0  0  0
   -3.6940    1.0870   -0.6300 C   0  0  0  0  0  0  0  0  0  0  0  0
   -3.1750    1.9310   -1.6810 N   0  0  0  0  0  0  0  0  0  0  0  0
   -2.1460    2.8450   -1.3680 C   0  0  0  0  0  0  0  0  0  0  0  0
   -1.8860    3.8670   -2.0440 O   0  0  0  0  0  0  0  0  0  0  0  0
   -1.3750    2.5980   -0.2410 O   0  0  0  0  0  0  0  0  0  0  0  0
   -1.8310    1.7300    0.7860 C   0  0  0  0  0  0  0  0  0  0  0  0
  1  2  2  0
  2  3  1  0
  2  9  1  0
  3  4  1  0
  5  4  1  6
  5  6  1  0
  5  8  1  0
  6  7  1  0
  7  8  1  0
 10  9  1  6
 10 11  1  0
 10 14  1  0
 11 12  1  0
 12 13  1  0
 13 14  1  0
 14 15  1  6
 16 15  1  6
 16 17  1  0
 16 22  1  0
 17 18  1  0
 18 19  1  0
 19 20  2  0
 19 21  1  0
 21 22  1  0
M  END
