
     RDKit          3D

 22 23  0  0  0  0  0  0  0  0999 V2000
    2.9120    1.3110   -0.7390 C   0  0  0  0  0  0  0  0  0  0  0  0
    2.3190    0.5740    0.1880 C   0  0  0  0  0  0  0  0  0  0  0  0
    2.0970    1.1480    1.4190 O   0  0  0  0  0  0  0  0  0  0  0  0
    1.0470    1.1380    2.3260 C   0  0  0  0  0  0  0  0  0  0  0  0
    0.3530    2.4620    2.4400 C   0  0  0  0  0  0  0  0  0  0  0  0
    0.3580    3.0770    3.5250 O   0  0  0  0  0  0  0  0  0  0  0  0
   -0.3240    3.0590    1.3480 N   0  0  0  0  0  0  0  0  0  0  0  0
   -1.1740    2.3210    0.4250 C   0  0  0  0  0  0  0  0  0  0  0  0
   -0.4560    2.1060   -0.8820 C   0  0  0  0  0  0  0  0  0  0  0  0
   -0.6280    0.7930   -1.2520 O   0  0  0  0  0  0  0  0  0  0  0  0
   -1.2740   -0.3410   -0.9080 C   0  0  0  0  0  0  0  0  0  0  0  0
   -2.5480   -0.5380   -1.2280 C   0  0  0  0  0  0  0  0  0  0  0  0
   -3.4170   -1.6900   -0.9450 C   0  0  2  0  0  0  0  0  0  0  0  0
   -4.6760   -1.2780   -0.3300 N   0  0  0  0  0  0  0  0  0  0  0  0
   -2.7610   -2.7260   -0.1480 C   0  0  0  0  0  0  0  0  0  0  0  0
   -3.4130   -3.7690    0.2380 O   0  0  0  0  0  0  0  0  0  0  0  0
   -1.4230   -2.5480    0.1740 N   0  0  0  0  0  0  0  0  0  0  0  0
   -0.5880   -1.4140   -0.1480 C   0  0  0  0  0  0  0  0  0  0  0  0
    0.7030   -1.5000    0.1140 C   0  0  0  0  0  0  0  0  0  0  0  0
    1.9270   -0.8040   -0.1140 C   0  0  0  0  0  0  0  0  0  0  0  0
    2.9270   -1.5680   -0.6550 C   0  0  0  0  0  0  0  0  0  0  0  0
    4.2910   -1.0890   -0.9230 C   0  0  0  0  0  0  0  0  0  0  0  0
  1  2  2  0
  2  3  1  0
  2 20  1  0
  3  4  1  0
  4  5  1  0
  5  6  2  0
  5  7  1  0
  7  8  1  0
  8  9  1  0
  9 10  1  0
 10 11  1  0
 11 12  2  0
 11 18  1  0
 12 13  1  0
 13 14  1  1
 13 15  1  0
 15 16  2  0
 15 17  1  0
 17 18  1  0
 18 19  2  0
 19 20  1  0
 20 21  2  3
 21 22  1  0
M  END
