
     RDKit          3D

 22 24  0  0  0  0  0  0  0  0999 V2000
    4.5450    2.6850   -1.2490 O   0  0  0  0  0  0  0  0  0  0  0  0
    3.3310    2.0070   -1.3050 C   0  0  0  0  0  0  0  0  0  0  0  0
    3.1170    1.3110    0.0270 C   0  0  2  0  0  0  0  0  0  0  0  0
    4.1930    0.3260    0.3500 C   0  0  1  0  0  0  0  0  0  0  0  0
    4.3020    0.2220    1.7350 O   0  0  0  0  0  0  0  0  0  0  0  0
    3.8170   -1.0440   -0.1720 C   0  0  2  0  0  0  0  0  0  0  0  0
    3.3230   -0.9790   -1.4710 O   0  0  0  0  0  0  0  0  0  0  0  0
    2.6470   -1.5150    0.7020 C   0  0  2  0  0  0  0  0  0  0  0  0
    2.2780   -2.8200    0.3830 O   0  0  0  0  0  0  0  0  0  0  0  0
    1.5440   -0.5550    0.4220 C   0  0  0  0  0  0  0  0  0  0  0  0
    0.2150   -0.7900    0.4270 N   0  0  0  0  0  0  0  0  0  0  0  0
   -0.4030    0.3630    0.1190 C   0  0  0  0  0  0  0  0  0  0  0  0
   -1.8730    0.6030    0.0010 C   0  0  0  0  0  0  0  0  0  0  0  0
   -2.6180   -0.6050    0.2680 N   0  0  0  0  0  0  0  0  0  0  0  0
   -4.0330   -0.5530    0.1990 C   0  0  0  0  0  0  0  0  0  0  0  0
   -4.6910    0.6110   -0.1140 C   0  0  0  0  0  0  0  0  0  0  0  0
   -6.0640    0.6600   -0.1810 C   0  0  0  0  0  0  0  0  0  0  0  0
   -6.8050   -0.4830    0.0710 C   0  0  0  0  0  0  0  0  0  0  0  0
   -6.1260   -1.6340    0.3820 C   0  0  0  0  0  0  0  0  0  0  0  0
   -4.7590   -1.7010    0.4530 C   0  0  0  0  0  0  0  0  0  0  0  0
    0.5910    1.2980   -0.0710 C   0  0  0  0  0  0  0  0  0  0  0  0
    1.7950    0.7290    0.1170 N   0  0  0  0  0  0  0  0  0  0  0  0
  1  2  1  0
  3  2  1  6
  3  4  1  0
  3 22  1  0
  4  5  1  1
  4  6  1  0
  6  7  1  6
  6  8  1  0
  8  9  1  6
  8 10  1  0
 10 11  2  0
 10 22  1  0
 11 12  1  0
 12 13  1  0
 12 21  2  0
 13 14  1  0
 14 15  1  0
 15 16  2  0
 15 20  1  0
 16 17  1  0
 17 18  2  0
 18 19  1  0
 19 20  2  0
 21 22  1  0
M  END
