
     RDKit          3D

 13 13  0  0  0  0  0  0  0  0999 V2000
   -3.0770   -0.3160   -0.6690 N   0  0  0  0  0  0  0  0  0  0  0  0
   -1.8920    0.3970   -0.2600 C   0  0  2  0  0  0  0  0  0  0  0  0
   -1.3540    1.2340   -1.3840 C   0  0  0  0  0  0  0  0  0  0  0  0
   -0.3180    2.0410   -0.9560 O   0  0  0  0  0  0  0  0  0  0  0  0
    0.4110    1.5030    0.0910 C   0  0  0  0  0  0  0  0  0  0  0  0
    0.4920    0.0180    0.0750 C   0  0  2  0  0  0  0  0  0  0  0  0
    1.1670   -0.4000   -1.0520 O   0  0  0  0  0  0  0  0  0  0  0  0
    2.2990   -1.1320   -0.8480 C   0  0  0  0  0  0  0  0  0  0  0  0
    3.3460   -0.3900   -0.0930 C   0  0  0  0  0  0  0  0  0  0  0  0
    3.7580    0.7710   -0.7550 O   0  0  0  0  0  0  0  0  0  0  0  0
   -0.8760   -0.6360    0.1840 C   0  0  1  0  0  0  0  0  0  0  0  0
   -1.2140   -0.9690    1.6230 C   0  0  0  0  0  0  0  0  0  0  0  0
   -1.1100    0.2260    2.3540 O   0  0  0  0  0  0  0  0  0  0  0  0
  2  1  1  6
  2  3  1  0
  2 11  1  0
  3  4  1  0
  4  5  1  0
  5  6  1  0
  6  7  1  6
  6 11  1  0
  7  8  1  0
  8  9  1  0
  9 10  1  0
 11 12  1  1
 12 13  1  0
M  CHG  1   1   1
M  END
