
     RDKit          3D

 14 14  0  0  0  0  0  0  0  0999 V2000
   -0.3300   -1.9340    0.8680 C   0  0  0  0  0  0  0  0  0  0  0  0
   -0.0200   -0.6130    0.1380 C   0  0  1  0  0  0  0  0  0  0  0  0
    1.4550   -0.4060    0.3600 C   0  0  1  0  0  0  0  0  0  0  0  0
    2.2200   -1.3710   -0.2770 O   0  0  0  0  0  0  0  0  0  0  0  0
    1.9440    0.9480   -0.0600 C   0  0  0  0  0  0  0  0  0  0  0  0
    3.3380    1.0520    0.3340 N   0  0  0  0  0  0  0  0  0  0  0  0
   -0.3860   -0.8470   -1.2860 C   0  0  0  0  0  0  0  0  0  0  0  0
   -1.7600   -1.2520   -1.3110 O   0  0  0  0  0  0  0  0  0  0  0  0
   -2.8130   -0.5900   -0.7060 C   0  0  0  0  0  0  0  0  0  0  0  0
   -3.9220   -1.2020   -0.6100 O   0  0  0  0  0  0  0  0  0  0  0  0
   -2.8130    0.7770   -0.1410 C   0  0  1  0  0  0  0  0  0  0  0  0
   -3.4730    0.8310    1.0870 O   0  0  0  0  0  0  0  0  0  0  0  0
   -1.3780    1.2660    0.0240 C   0  0  0  0  0  0  0  0  0  0  0  0
   -0.7100    0.3610    0.7840 O   0  0  0  0  0  0  0  0  0  0  0  0
  2  1  1  1
  2  3  1  0
  2  7  1  0
  2 14  1  0
  3  4  1  6
  3  5  1  0
  5  6  1  0
  7  8  1  0
  8  9  1  0
  9 10  2  0
  9 11  1  0
 11 12  1  1
 11 13  1  0
 13 14  1  0
M  CHG  1   6   1
M  END
