
     RDKit          3D

 14 14  0  0  0  0  0  0  0  0999 V2000
   -0.8830    2.2300   -0.5900 N   0  0  0  0  0  0  0  0  0  0  0  0
   -1.2260    0.9760   -1.2000 C   0  0  0  0  0  0  0  0  0  0  0  0
   -1.2150   -0.1440   -0.2480 C   0  0  1  0  0  0  0  0  0  0  0  0
   -2.0490    0.0450    0.8550 O   0  0  0  0  0  0  0  0  0  0  0  0
   -1.9060   -1.3860   -0.9410 C   0  0  0  0  0  0  0  0  0  0  0  0
   -1.4140   -2.4900   -0.3270 O   0  0  0  0  0  0  0  0  0  0  0  0
   -0.5710   -2.1300    0.6890 C   0  0  0  0  0  0  0  0  0  0  0  0
    0.0500   -0.8260    0.1020 C   0  0  1  0  0  0  0  0  0  0  0  0
    0.7880   -1.3250   -1.1340 C   0  0  0  0  0  0  0  0  0  0  0  0
    1.9520   -1.9410   -0.6660 O   0  0  0  0  0  0  0  0  0  0  0  0
    0.9560   -0.2090    1.0900 C   0  0  0  0  0  0  0  0  0  0  0  0
    1.4010    1.0170    0.6730 O   0  0  0  0  0  0  0  0  0  0  0  0
    2.2600    1.6230    1.5900 C   0  0  0  0  0  0  0  0  0  0  0  0
    2.6480    2.8640    1.0580 O   0  0  0  0  0  0  0  0  0  0  0  0
  1  2  1  0
  2  3  1  0
  3  4  1  1
  3  5  1  0
  3  8  1  0
  5  6  1  0
  6  7  1  0
  7  8  1  0
  8  9  1  6
  8 11  1  0
  9 10  1  0
 11 12  1  0
 12 13  1  0
 13 14  1  0
M  CHG  1   1   1
M  END
