
     RDKit          3D

 13 13  0  0  0  0  0  0  0  0999 V2000
   -1.2540   -0.6900   -1.6150 C   0  0  0  0  0  0  0  0  0  0  0  0
   -1.2310   -0.3480   -0.1710 C   0  0  2  0  0  0  0  0  0  0  0  0
   -1.3080   -1.6040    0.5930 N   0  0  0  0  0  0  0  0  0  0  0  0
   -2.3650    0.5080    0.2890 C   0  0  0  0  0  0  0  0  0  0  0  0
   -2.4080    1.7550   -0.2720 O   0  0  0  0  0  0  0  0  0  0  0  0
   -1.2160    2.2980   -0.6410 C   0  0  0  0  0  0  0  0  0  0  0  0
   -0.0180    1.8240    0.0860 C   0  0  1  0  0  0  0  0  0  0  0  0
    0.0970    2.5240    1.2870 O   0  0  0  0  0  0  0  0  0  0  0  0
    0.0490    0.3260    0.2790 C   0  0  2  0  0  0  0  0  0  0  0  0
    1.1720   -0.2220   -0.2910 O   0  0  0  0  0  0  0  0  0  0  0  0
    1.9750   -0.7890    0.6930 C   0  0  0  0  0  0  0  0  0  0  0  0
    3.2270   -1.4090    0.1240 C   0  0  0  0  0  0  0  0  0  0  0  0
    4.0210   -0.5080   -0.5410 O   0  0  0  0  0  0  0  0  0  0  0  0
  2  1  1  6
  2  3  1  0
  2  4  1  0
  2  9  1  0
  4  5  1  0
  5  6  1  0
  6  7  1  0
  7  8  1  1
  7  9  1  0
  9 10  1  6
 10 11  1  0
 11 12  1  0
 12 13  1  0
M  CHG  1   3   1
M  END
