
     RDKit          3D

 14 14  0  0  0  0  0  0  0  0999 V2000
    0.9860   -1.4190    0.8610 N   0  0  0  0  0  0  0  0  0  0  0  0
    0.5890   -0.1100    0.3770 C   0  0  1  0  0  0  0  0  0  0  0  0
    1.7050    0.4830   -0.4120 C   0  0  2  0  0  0  0  0  0  0  0  0
    2.0960   -0.2580   -1.5090 O   0  0  0  0  0  0  0  0  0  0  0  0
    2.9210    0.6560    0.4850 C   0  0  0  0  0  0  0  0  0  0  0  0
    3.8990    1.3330   -0.2800 O   0  0  0  0  0  0  0  0  0  0  0  0
   -0.7460   -0.1310   -0.2880 C   0  0  2  0  0  0  0  0  0  0  0  0
   -0.7140   -1.0750   -1.4700 C   0  0  0  0  0  0  0  0  0  0  0  0
   -2.0110   -1.0460   -2.0450 O   0  0  0  0  0  0  0  0  0  0  0  0
   -1.2030    1.2220   -0.7520 C   0  0  0  0  0  0  0  0  0  0  0  0
   -2.5480    1.4240   -0.7390 O   0  0  0  0  0  0  0  0  0  0  0  0
   -3.2060    0.9270    0.3740 C   0  0  0  0  0  0  0  0  0  0  0  0
   -3.0330   -0.4410    0.4450 O   0  0  0  0  0  0  0  0  0  0  0  0
   -1.7260   -0.7520    0.7120 C   0  0  0  0  0  0  0  0  0  0  0  0
  2  1  1  6
  2  3  1  0
  2  7  1  0
  3  4  1  6
  3  5  1  0
  5  6  1  0
  7  8  1  6
  7 10  1  0
  7 14  1  0
  8  9  1  0
 10 11  1  0
 11 12  1  0
 12 13  1  0
 13 14  1  0
M  CHG  1   1   1
M  END
