
     RDKit          3D

 10 10  0  0  0  0  0  0  0  0999 V2000
    2.5040    0.9760    0.1230 C   0  0  0  0  0  0  0  0  0  0  0  0
    1.2260    0.1750    0.1380 C   0  0  0  0  0  0  0  0  0  0  0  0
    0.9720   -0.5640    1.1380 N   0  0  0  0  0  0  0  0  0  0  0  0
   -0.2670   -1.3280    1.1290 C   0  0  0  0  0  0  0  0  0  0  0  0
   -0.7560   -1.5740   -0.2410 C   0  0  0  0  0  0  0  0  0  0  0  0
   -0.9830   -0.2250   -0.9760 C   0  0  1  0  0  0  0  0  0  0  0  0
   -1.7730    0.6950   -0.1320 C   0  0  0  0  0  0  0  0  0  0  0  0
   -2.7870    0.1620    0.5600 O   0  0  0  0  0  0  0  0  0  0  0  0
   -1.5680    1.9980    0.0660 O   0  0  0  0  0  0  0  0  0  0  0  0
    0.4050    0.3050   -0.9660 N   0  0  0  0  0  0  0  0  0  0  0  0
  1  2  1  0
  2  3  2  0
  2 10  1  0
  3  4  1  0
  4  5  1  0
  5  6  1  0
  6  7  1  1
  6 10  1  0
  7  8  2  0
  7  9  1  0
M  END
