
     RDKit          3D

 13 13  0  0  0  0  0  0  0  0999 V2000
   -0.9980   -1.2060   -1.3490 C   0  0  0  0  0  0  0  0  0  0  0  0
   -0.9500   -0.2300   -0.2860 N   0  0  1  0  0  0  0  0  0  0  0  0
   -2.2510   -0.3010    0.3950 C   0  0  0  0  0  0  0  0  0  0  0  0
   -3.1550    0.8400   -0.0580 C   0  0  0  0  0  0  0  0  0  0  0  0
   -2.5810    2.0770    0.2300 O   0  0  0  0  0  0  0  0  0  0  0  0
    0.0520   -0.5030    0.6870 C   0  0  0  0  0  0  0  0  0  0  0  0
    1.4300   -0.6880    0.1470 C   0  0  2  0  0  0  0  0  0  0  0  0
    1.5760   -1.7140   -0.7430 O   0  0  0  0  0  0  0  0  0  0  0  0
    2.3400   -0.8630    1.3760 C   0  0  0  0  0  0  0  0  0  0  0  0
    2.1860    0.3810    1.9740 O   0  0  0  0  0  0  0  0  0  0  0  0
    2.1880    1.3340    0.9820 C   0  0  0  0  0  0  0  0  0  0  0  0
    2.0510    0.6200   -0.3430 C   0  0  2  0  0  0  0  0  0  0  0  0
    1.2930    1.2710   -1.2610 O   0  0  0  0  0  0  0  0  0  0  0  0
  2  1  1  6
  2  3  1  0
  2  6  1  0
  3  4  1  0
  4  5  1  0
  6  7  1  0
  7  8  1  6
  7  9  1  0
  7 12  1  0
  9 10  1  0
 10 11  1  0
 11 12  1  0
 12 13  1  6
M  CHG  1   2   1
M  END
