
     RDKit          3D

 12 12  0  0  0  0  0  0  0  0999 V2000
   -1.3520    1.4970   -1.1270 C   0  0  0  0  0  0  0  0  0  0  0  0
   -1.8350    0.4340   -0.1830 C   0  0  0  0  0  0  0  0  0  0  0  0
   -3.0930    0.3100    0.1960 C   0  0  0  0  0  0  0  0  0  0  0  0
   -3.1650   -0.8390    1.1160 C   0  0  0  0  0  0  0  0  0  0  0  0
   -1.7960   -1.3440    1.2080 C   0  0  0  0  0  0  0  0  0  0  0  0
   -1.0260   -0.5950    0.4460 C   0  0  0  0  0  0  0  0  0  0  0  0
    0.4170   -0.7930    0.2810 C   0  0  0  0  0  0  0  0  0  0  0  0
    1.0200   -1.7210    0.8760 O   0  0  0  0  0  0  0  0  0  0  0  0
    1.1680    0.0350   -0.5390 O   0  0  0  0  0  0  0  0  0  0  0  0
    2.5410   -0.1540   -0.6970 C   0  0  0  0  0  0  0  0  0  0  0  0
    3.3280   -0.0470    0.5840 C   0  0  0  0  0  0  0  0  0  0  0  0
    3.1930    1.1950    1.1880 O   0  0  0  0  0  0  0  0  0  0  0  0
  1  2  1  0
  2  3  2  0
  2  6  1  0
  3  4  1  0
  4  5  1  0
  5  6  2  0
  6  7  1  0
  7  8  2  0
  7  9  1  0
  9 10  1  0
 10 11  1  0
 11 12  1  0
M  END
