
     RDKit          3D

 12 12  0  0  0  0  0  0  0  0999 V2000
    4.0480   -0.2880    0.9560 C   0  0  0  0  0  0  0  0  0  0  0  0
    3.7520   -0.7150   -0.4570 C   0  0  0  0  0  0  0  0  0  0  0  0
    2.6170    0.0200   -0.9440 O   0  0  0  0  0  0  0  0  0  0  0  0
    1.3860   -0.0600   -0.3200 C   0  0  0  0  0  0  0  0  0  0  0  0
    1.3000   -0.7990    0.6870 O   0  0  0  0  0  0  0  0  0  0  0  0
    0.2050    0.6710   -0.7810 C   0  0  0  0  0  0  0  0  0  0  0  0
   -1.0220    0.4290    0.0430 C   0  0  2  0  0  0  0  0  0  0  0  0
   -0.8240    0.8110    1.3750 O   0  0  0  0  0  0  0  0  0  0  0  0
   -1.4780   -1.0040    0.0520 C   0  0  0  0  0  0  0  0  0  0  0  0
   -2.8640   -0.8520    0.6990 C   0  0  0  0  0  0  0  0  0  0  0  0
   -3.3590    0.5150    0.2860 C   0  0  0  0  0  0  0  0  0  0  0  0
   -2.2380    1.1340   -0.5230 C   0  0  0  0  0  0  0  0  0  0  0  0
  1  2  1  0
  2  3  1  0
  3  4  1  0
  4  5  2  0
  4  6  1  0
  6  7  1  0
  7  8  1  1
  7  9  1  0
  7 12  1  0
  9 10  1  0
 10 11  1  0
 11 12  1  0
M  END
