
     RDKit          3D

 12 12  0  0  0  0  0  0  0  0999 V2000
    4.4180    0.0470   -1.2440 C   0  0  0  0  0  0  0  0  0  0  0  0
    3.4480   -0.0720   -0.2490 O   0  0  0  0  0  0  0  0  0  0  0  0
    2.0800   -0.1800   -0.5060 C   0  0  0  0  0  0  0  0  0  0  0  0
    1.7600   -0.1630   -1.7220 O   0  0  0  0  0  0  0  0  0  0  0  0
    1.1230   -0.3030    0.5840 C   0  0  0  0  0  0  0  0  0  0  0  0
   -0.3180   -0.4030    0.1290 C   0  0  2  0  0  0  0  0  0  0  0  0
   -0.4250   -1.5500   -0.6900 O   0  0  0  0  0  0  0  0  0  0  0  0
   -0.7620    0.7670   -0.6570 C   0  0  0  0  0  0  0  0  0  0  0  0
   -2.2610    0.8960   -0.7180 C   0  0  0  0  0  0  0  0  0  0  0  0
   -2.7490    1.0010    0.7120 C   0  0  0  0  0  0  0  0  0  0  0  0
   -2.5650   -0.4130    1.2830 C   0  0  0  0  0  0  0  0  0  0  0  0
   -1.1180   -0.6870    1.3690 C   0  0  0  0  0  0  0  0  0  0  0  0
  1  2  1  0
  2  3  1  0
  3  4  2  0
  3  5  1  0
  5  6  1  0
  6  7  1  6
  6  8  1  0
  6 12  1  0
  8  9  1  0
  9 10  1  0
 10 11  1  0
 11 12  1  0
M  END
