
     RDKit          3D

 12 12  0  0  0  0  0  0  0  0999 V2000
    4.3070    0.9820    0.7260 O   0  0  0  0  0  0  0  0  0  0  0  0
    2.9990    0.7960    0.2270 C   0  0  0  0  0  0  0  0  0  0  0  0
    2.6750   -0.6730    0.1830 C   0  0  0  0  0  0  0  0  0  0  0  0
    1.3010   -0.9370   -0.3400 C   0  0  0  0  0  0  0  0  0  0  0  0
    0.2610   -0.2860    0.5150 C   0  0  2  0  0  0  0  0  0  0  0  0
    0.3830   -0.8160    1.8030 O   0  0  0  0  0  0  0  0  0  0  0  0
   -1.1470   -0.6010    0.0320 C   0  0  2  0  0  0  0  0  0  0  0  0
   -1.2710   -1.9850    0.0370 O   0  0  0  0  0  0  0  0  0  0  0  0
   -1.4240   -0.0390   -1.3290 C   0  0  0  0  0  0  0  0  0  0  0  0
   -2.5610    0.9410   -1.1950 C   0  0  0  0  0  0  0  0  0  0  0  0
   -2.6800    1.2010    0.2840 C   0  0  0  0  0  0  0  0  0  0  0  0
   -2.1480   -0.0190    0.9840 C   0  0  0  0  0  0  0  0  0  0  0  0
  1  2  1  0
  2  3  1  0
  3  4  1  0
  4  5  1  0
  5  6  1  1
  5  7  1  0
  7  8  1  6
  7  9  1  0
  7 12  1  0
  9 10  1  0
 10 11  1  0
 11 12  1  0
M  END
