
     RDKit          3D

 21 23  0  0  0  0  0  0  0  0999 V2000
    5.6830   -2.2040   -0.1450 O   0  0  0  0  0  0  0  0  0  0  0  0
    5.2530   -1.0350    0.1060 C   0  0  0  0  0  0  0  0  0  0  0  0
    6.1370   -0.0110    0.4160 O   0  0  0  0  0  0  0  0  0  0  0  0
    5.7670    1.3190    0.6360 C   0  0  0  0  0  0  0  0  0  0  0  0
    4.3860    1.5400    0.6660 O   0  0  0  0  0  0  0  0  0  0  0  0
    3.4550    0.5680    0.3650 C   0  0  0  0  0  0  0  0  0  0  0  0
    2.1010    0.8600    0.3390 C   0  0  0  0  0  0  0  0  0  0  0  0
    1.1670   -0.1140    0.0370 C   0  0  0  0  0  0  0  0  0  0  0  0
   -0.1600    0.2690    0.0350 O   0  0  0  0  0  0  0  0  0  0  0  0
   -1.1400   -0.7000   -0.2690 C   0  0  0  0  0  0  0  0  0  0  0  0
   -2.5070   -0.1150   -0.2250 C   0  0  0  0  0  0  0  0  0  0  0  0
   -2.7390    1.2180    0.0800 C   0  0  0  0  0  0  0  0  0  0  0  0
   -4.0100    1.7390    0.1150 C   0  0  0  0  0  0  0  0  0  0  0  0
   -5.0830    0.8940   -0.1650 C   0  0  0  0  0  0  0  0  0  0  0  0
   -6.3990    1.3480   -0.1500 O   0  0  0  0  0  0  0  0  0  0  0  0
   -4.8930   -0.4370   -0.4740 C   0  0  0  0  0  0  0  0  0  0  0  0
   -5.9900   -1.2610   -0.7510 O   0  0  0  0  0  0  0  0  0  0  0  0
   -3.5940   -0.8930   -0.4910 C   0  0  0  0  0  0  0  0  0  0  0  0
    1.5680   -1.4120   -0.2480 C   0  0  0  0  0  0  0  0  0  0  0  0
    2.9150   -1.7000   -0.2210 C   0  0  0  0  0  0  0  0  0  0  0  0
    3.8400   -0.7180    0.0820 C   0  0  0  0  0  0  0  0  0  0  0  0
  1  2  2  0
  2  3  1  0
  2 21  1  0
  3  4  1  0
  4  5  1  0
  5  6  1  0
  6  7  2  0
  6 21  1  0
  7  8  1  0
  8  9  1  0
  8 19  2  0
  9 10  1  0
 10 11  1  0
 11 12  2  0
 11 18  1  0
 12 13  1  0
 13 14  2  0
 14 15  1  0
 14 16  1  0
 16 17  1  0
 16 18  2  0
 19 20  1  0
 20 21  2  0
M  END
