
     RDKit          3D

 21 23  0  0  0  0  0  0  0  0999 V2000
   -3.2420   -1.6350   -0.6270 C   0  0  0  0  0  0  0  0  0  0  0  0
   -2.9970   -0.4060    0.1470 C   0  0  0  0  0  0  0  0  0  0  0  0
   -1.7400   -0.2560    0.7420 C   0  0  0  0  0  0  0  0  0  0  0  0
   -0.7430   -1.3010    0.6000 C   0  0  0  0  0  0  0  0  0  0  0  0
    0.5180   -1.1380    0.2710 C   0  0  0  0  0  0  0  0  0  0  0  0
    1.1470    0.1330   -0.0170 C   0  0  0  0  0  0  0  0  0  0  0  0
    2.4330    0.2510   -0.3310 C   0  0  0  0  0  0  0  0  0  0  0  0
    3.0190    1.4880   -0.6040 O   0  0  0  0  0  0  0  0  0  0  0  0
    4.4070    1.7050   -0.4640 C   0  0  0  0  0  0  0  0  0  0  0  0
    5.2310    0.4690   -0.3690 C   0  0  0  0  0  0  0  0  0  0  0  0
    4.6020   -0.7200   -0.7310 O   0  0  0  0  0  0  0  0  0  0  0  0
    3.2670   -0.9450   -0.3940 C   0  0  0  0  0  0  0  0  0  0  0  0
    2.7810   -2.1510   -0.1470 C   0  0  0  0  0  0  0  0  0  0  0  0
    1.3770   -2.3220    0.2010 C   0  0  0  0  0  0  0  0  0  0  0  0
    0.8730   -3.4520    0.4430 O   0  0  0  0  0  0  0  0  0  0  0  0
   -1.5690    0.9100    1.4550 C   0  0  0  0  0  0  0  0  0  0  0  0
   -2.5730    1.8600    1.5670 C   0  0  0  0  0  0  0  0  0  0  0  0
   -3.8000    1.6680    0.9610 C   0  0  0  0  0  0  0  0  0  0  0  0
   -4.7930    2.6270    1.0830 O   0  0  0  0  0  0  0  0  0  0  0  0
   -3.9980    0.5150    0.2470 C   0  0  0  0  0  0  0  0  0  0  0  0
   -5.2400    0.3430   -0.3540 O   0  0  0  0  0  0  0  0  0  0  0  0
  1  2  1  0
  2  3  2  0
  2 20  1  0
  3  4  1  0
  3 16  1  0
  4  5  2  3
  5  6  1  0
  5 14  1  0
  6  7  2  0
  7  8  1  0
  7 12  1  0
  8  9  1  0
  9 10  1  0
 10 11  1  0
 11 12  1  0
 12 13  2  0
 13 14  1  0
 14 15  2  0
 16 17  2  0
 17 18  1  0
 18 19  1  0
 18 20  2  0
 20 21  1  0
M  END
