
     RDKit          3D

 22 23  0  0  0  0  0  0  0  0999 V2000
    5.2540    0.8380    0.4720 C   0  0  0  0  0  0  0  0  0  0  0  0
    3.8650    1.0310    0.3510 O   0  0  0  0  0  0  0  0  0  0  0  0
    3.0330   -0.0810    0.2740 C   0  0  0  0  0  0  0  0  0  0  0  0
    3.6590   -1.1980    0.3240 O   0  0  0  0  0  0  0  0  0  0  0  0
    1.6010   -0.0920    0.1470 C   0  0  0  0  0  0  0  0  0  0  0  0
    0.9200   -1.3300    0.0590 C   0  0  0  0  0  0  0  0  0  0  0  0
    1.7490   -2.5370    0.0570 C   0  0  0  0  0  0  0  0  0  0  0  0
    1.1490   -3.7580   -0.0640 O   0  0  0  0  0  0  0  0  0  0  0  0
   -0.4510   -1.3870   -0.0630 C   0  0  0  0  0  0  0  0  0  0  0  0
   -1.2520   -2.6260   -0.0750 C   0  0  0  0  0  0  0  0  0  0  0  0
   -1.1490   -0.1630   -0.1050 C   0  0  0  0  0  0  0  0  0  0  0  0
   -2.5220   -0.1660   -0.2600 C   0  0  0  0  0  0  0  0  0  0  0  0
   -3.2000   -1.3660   -0.3540 O   0  0  0  0  0  0  0  0  0  0  0  0
   -4.5860   -1.4690   -0.5120 C   0  0  0  0  0  0  0  0  0  0  0  0
   -3.2060    1.0250   -0.3220 C   0  0  0  0  0  0  0  0  0  0  0  0
   -2.6070    2.2540   -0.2420 C   0  0  0  0  0  0  0  0  0  0  0  0
   -3.3500    3.4240   -0.3110 O   0  0  0  0  0  0  0  0  0  0  0  0
   -1.2360    2.2540   -0.0900 C   0  0  0  0  0  0  0  0  0  0  0  0
   -0.6060    3.4760   -0.0090 O   0  0  0  0  0  0  0  0  0  0  0  0
   -0.5100    1.0550   -0.0230 C   0  0  0  0  0  0  0  0  0  0  0  0
    0.8840    1.0800    0.1070 C   0  0  0  0  0  0  0  0  0  0  0  0
    1.4910    2.4190    0.2260 C   0  0  0  0  0  0  0  0  0  0  0  0
  1  2  1  0
  2  3  1  0
  3  4  2  0
  3  5  1  0
  5  6  2  0
  5 21  1  0
  6  7  1  0
  6  9  1  0
  7  8  1  0
  9 10  1  0
  9 11  2  0
 11 12  1  0
 11 20  1  0
 12 13  1  0
 12 15  2  0
 13 14  1  0
 15 16  1  0
 16 17  1  0
 16 18  2  0
 18 19  1  0
 18 20  1  0
 20 21  2  0
 21 22  1  0
M  END
