
     RDKit          3D

 22 24  0  0  0  0  0  0  0  0999 V2000
   -0.4800    3.7190    0.3070 C   0  0  0  0  0  0  0  0  0  0  0  0
   -1.4230    2.6310    0.3840 C   0  0  0  0  0  0  0  0  0  0  0  0
   -2.6210    3.0170    0.7570 O   0  0  0  0  0  0  0  0  0  0  0  0
   -1.3190    1.2130    0.1310 C   0  0  0  0  0  0  0  0  0  0  0  0
   -0.2000    0.5460   -0.2790 C   0  0  0  0  0  0  0  0  0  0  0  0
    1.0960    1.2270   -0.4020 C   0  0  2  0  0  0  0  0  0  0  0  0
    1.2390    1.5500   -1.7490 O   0  0  0  0  0  0  0  0  0  0  0  0
    2.2410    0.3500   -0.0200 C   0  0  0  0  0  0  0  0  0  0  0  0
    3.4590    0.5720   -0.5980 C   0  0  0  0  0  0  0  0  0  0  0  0
    4.5730   -0.2120   -0.2440 C   0  0  0  0  0  0  0  0  0  0  0  0
    4.4320   -1.1480    0.6340 O   0  0  0  0  0  0  0  0  0  0  0  0
    3.2770   -1.3800    1.2010 C   0  0  0  0  0  0  0  0  0  0  0  0
    3.2190   -2.3070    2.0460 O   0  0  0  0  0  0  0  0  0  0  0  0
    2.1260   -0.6440    0.9030 C   0  0  0  0  0  0  0  0  0  0  0  0
   -0.2320   -0.8420   -0.5410 C   0  0  0  0  0  0  0  0  0  0  0  0
   -1.3800   -1.5750   -0.3920 C   0  0  0  0  0  0  0  0  0  0  0  0
   -2.5000   -0.9070    0.0220 C   0  0  0  0  0  0  0  0  0  0  0  0
   -2.5060    0.4480    0.2850 C   0  0  0  0  0  0  0  0  0  0  0  0
   -3.6810    1.0800    0.7060 O   0  0  0  0  0  0  0  0  0  0  0  0
   -3.5510   -1.8310    0.1120 O   0  0  0  0  0  0  0  0  0  0  0  0
   -3.0010   -3.1350    0.2270 C   0  0  0  0  0  0  0  0  0  0  0  0
   -1.7230   -3.0130   -0.5840 C   0  0  0  0  0  0  0  0  0  0  0  0
  1  2  1  0
  2  3  2  0
  2  4  1  0
  4  5  2  0
  4 18  1  0
  5  6  1  0
  5 15  1  0
  6  7  1  6
  6  8  1  0
  8  9  1  0
  8 14  2  0
  9 10  2  0
 10 11  1  0
 11 12  1  0
 12 13  2  0
 12 14  1  0
 15 16  2  0
 16 17  1  0
 16 22  1  0
 17 18  2  0
 17 20  1  0
 18 19  1  0
 20 21  1  0
 21 22  1  0
M  END
