
     RDKit          3D

 22 24  0  0  0  0  0  0  0  0999 V2000
    0.6640    2.1560    0.7050 O   0  0  0  0  0  0  0  0  0  0  0  0
   -0.2880    1.3480    0.4590 C   0  0  0  0  0  0  0  0  0  0  0  0
   -1.5360    1.9520    0.1910 O   0  0  0  0  0  0  0  0  0  0  0  0
   -2.7120    1.1830    0.0030 C   0  0  0  0  0  0  0  0  0  0  0  0
   -3.8450    1.8450    0.4020 C   0  0  0  0  0  0  0  0  0  0  0  0
   -5.0630    1.2210    0.2800 C   0  0  0  0  0  0  0  0  0  0  0  0
   -5.2100   -0.0560   -0.2310 C   0  0  0  0  0  0  0  0  0  0  0  0
   -4.0400   -0.6750   -0.6170 C   0  0  0  0  0  0  0  0  0  0  0  0
   -2.7990   -0.0850   -0.5120 C   0  0  0  0  0  0  0  0  0  0  0  0
   -1.7290   -0.9820   -1.0130 C   0  0  2  0  0  0  0  0  0  0  0  0
   -2.2540   -2.2510   -1.2330 O   0  0  0  0  0  0  0  0  0  0  0  0
   -0.5400   -1.0510   -0.1350 C   0  0  0  0  0  0  0  0  0  0  0  0
    0.0850   -0.0650    0.4980 C   0  0  0  0  0  0  0  0  0  0  0  0
    1.1940   -0.4000    1.2690 O   0  0  0  0  0  0  0  0  0  0  0  0
    2.4870   -0.2760    0.8480 C   0  0  0  0  0  0  0  0  0  0  0  0
    2.7390    0.2110   -0.4170 C   0  0  0  0  0  0  0  0  0  0  0  0
    4.0300    0.3610   -0.9040 C   0  0  0  0  0  0  0  0  0  0  0  0
    4.3100    0.8480   -2.1730 O   0  0  0  0  0  0  0  0  0  0  0  0
    5.0890    0.0120   -0.0940 C   0  0  0  0  0  0  0  0  0  0  0  0
    4.8150   -0.4720    1.1680 C   0  0  0  0  0  0  0  0  0  0  0  0
    3.5370   -0.6270    1.6650 C   0  0  0  0  0  0  0  0  0  0  0  0
    3.3250   -1.1270    2.9610 O   0  0  0  0  0  0  0  0  0  0  0  0
  1  2  2  0
  2  3  1  0
  2 13  1  0
  3  4  1  0
  4  5  2  0
  4  9  1  0
  5  6  1  0
  6  7  2  0
  7  8  1  0
  8  9  2  0
  9 10  1  0
 10 11  1  1
 10 12  1  0
 12 13  2  0
 13 14  1  0
 14 15  1  0
 15 16  2  0
 15 21  1  0
 16 17  1  0
 17 18  1  0
 17 19  2  0
 19 20  1  0
 20 21  2  0
 21 22  1  0
M  END
