
     RDKit          3D

 22 24  0  0  0  0  0  0  0  0999 V2000
    1.8330    1.7930   -0.8000 O   0  0  0  0  0  0  0  0  0  0  0  0
    1.5640    0.5860   -0.5980 C   0  0  0  0  0  0  0  0  0  0  0  0
    2.6060   -0.3070   -0.5290 O   0  0  0  0  0  0  0  0  0  0  0  0
    3.9610   -0.0800   -0.6460 C   0  0  0  0  0  0  0  0  0  0  0  0
    4.5590    0.8060    0.3870 C   0  0  2  0  0  0  0  0  0  0  0  0
    4.0550    2.0810    0.4350 O   0  0  0  0  0  0  0  0  0  0  0  0
    6.0680    0.8530    0.2110 C   0  0  0  0  0  0  0  0  0  0  0  0
    6.6100   -0.4200    0.1580 O   0  0  0  0  0  0  0  0  0  0  0  0
    0.1860    0.1080   -0.4360 C   0  0  0  0  0  0  0  0  0  0  0  0
   -0.1930   -1.1980   -0.2120 C   0  0  0  0  0  0  0  0  0  0  0  0
   -1.5680   -1.2290   -0.1180 C   0  0  0  0  0  0  0  0  0  0  0  0
   -2.4520   -2.2650    0.0980 C   0  0  0  0  0  0  0  0  0  0  0  0
   -1.9620   -3.5390    0.2600 O   0  0  0  0  0  0  0  0  0  0  0  0
   -3.8180   -2.0220    0.1490 C   0  0  0  0  0  0  0  0  0  0  0  0
   -4.2470   -0.7270   -0.0210 C   0  0  0  0  0  0  0  0  0  0  0  0
   -5.6000   -0.4550    0.0250 C   0  0  0  0  0  0  0  0  0  0  0  0
   -6.0280    0.8460   -0.1460 C   0  0  0  0  0  0  0  0  0  0  0  0
   -5.1470    1.8860   -0.3620 C   0  0  0  0  0  0  0  0  0  0  0  0
   -3.7860    1.5860   -0.4040 C   0  0  0  0  0  0  0  0  0  0  0  0
   -3.3480    0.3000   -0.2360 C   0  0  0  0  0  0  0  0  0  0  0  0
   -1.9770    0.0670   -0.2890 C   0  0  0  0  0  0  0  0  0  0  0  0
   -0.9220    0.8040   -0.4700 O   0  0  0  0  0  0  0  0  0  0  0  0
  1  2  2  0
  2  3  1  0
  2  9  1  0
  3  4  1  0
  4  5  1  0
  5  6  1  6
  5  7  1  0
  7  8  1  0
  9 10  2  0
  9 22  1  0
 10 11  1  0
 11 12  2  0
 11 21  1  0
 12 13  1  0
 12 14  1  0
 14 15  2  0
 15 16  1  0
 15 20  1  0
 16 17  2  0
 17 18  1  0
 18 19  2  0
 19 20  1  0
 20 21  2  0
 21 22  1  0
M  END
