
     RDKit          3D

 22 24  0  0  0  0  0  0  0  0999 V2000
   -4.1630   -2.4360    0.2540 C   0  0  0  0  0  0  0  0  0  0  0  0
   -3.8530   -1.5580   -0.9520 C   0  0  0  0  0  0  0  0  0  0  0  0
   -3.4590   -0.2240   -0.4660 C   0  0  0  0  0  0  0  0  0  0  0  0
   -2.2490    0.1390    0.0910 C   0  0  0  0  0  0  0  0  0  0  0  0
   -1.2160   -0.6810    0.2820 O   0  0  0  0  0  0  0  0  0  0  0  0
    0.0560   -0.3000    0.3820 C   0  0  0  0  0  0  0  0  0  0  0  0
    0.9510   -1.2560   -0.1010 C   0  0  0  0  0  0  0  0  0  0  0  0
    2.3070   -1.0340   -0.0790 C   0  0  0  0  0  0  0  0  0  0  0  0
    2.7640    0.1570    0.4330 C   0  0  0  0  0  0  0  0  0  0  0  0
    4.1980    0.4940    0.5070 C   0  0  2  0  0  0  0  0  0  0  0  0
    4.5130    1.7570    0.0370 O   0  0  0  0  0  0  0  0  0  0  0  0
    5.0990   -0.5400   -0.0790 C   0  0  0  0  0  0  0  0  0  0  0  0
    4.9540   -0.5270   -1.4690 O   0  0  0  0  0  0  0  0  0  0  0  0
    1.8650    1.1150    0.9180 C   0  0  0  0  0  0  0  0  0  0  0  0
    0.5070    0.8990    0.8980 C   0  0  0  0  0  0  0  0  0  0  0  0
   -0.1610    1.9210    1.3980 O   0  0  0  0  0  0  0  0  0  0  0  0
   -1.3540    2.3620    0.9980 C   0  0  0  0  0  0  0  0  0  0  0  0
   -1.6330    3.5660    1.1440 O   0  0  0  0  0  0  0  0  0  0  0  0
   -2.3330    1.5670    0.4190 C   0  0  0  0  0  0  0  0  0  0  0  0
   -3.5720    1.9830    0.0460 C   0  0  0  0  0  0  0  0  0  0  0  0
   -4.2590    0.9190   -0.4870 C   0  0  0  0  0  0  0  0  0  0  0  0
   -5.4390    1.0000   -0.9200 O   0  0  0  0  0  0  0  0  0  0  0  0
  1  2  1  0
  2  3  1  0
  3  4  2  0
  3 21  1  0
  4  5  1  0
  4 19  1  0
  5  6  1  0
  6  7  2  0
  6 15  1  0
  7  8  1  0
  8  9  2  0
  9 10  1  0
  9 14  1  0
 10 11  1  6
 10 12  1  0
 12 13  1  0
 14 15  2  0
 15 16  1  0
 16 17  1  0
 17 18  2  0
 17 19  1  0
 19 20  2  0
 20 21  1  0
 21 22  2  0
M  END
