
     RDKit          3D

 38 42  0  0  0  0  0  0  0  0999 V2000
   -2.5940    3.4920    1.0570 C   0  0  0  0  0  0  0  0  0  0  0  0
   -2.9680    2.1840    1.8200 C   0  0  0  0  0  0  0  0  0  0  0  0
   -2.5600    1.2040    1.0260 O   0  0  0  0  0  0  0  0  0  0  0  0
   -1.6200    0.3880    1.1510 N   0  0  0  0  0  0  0  0  0  0  0  0
   -1.2600   -0.2550   -0.1090 C   0  0  0  0  0  0  0  0  0  0  0  0
   -0.0270   -0.5930   -0.4610 C   0  0  0  0  0  0  0  0  0  0  0  0
   -0.1650   -1.1630   -1.7440 N   0  0  0  0  0  0  0  0  0  0  0  0
   -1.3100   -1.2050   -2.2120 C   0  0  0  0  0  0  0  0  0  0  0  0
   -2.2800   -1.7610   -3.6680 P   0  0  0  0  0  0  0  0  0  0  0  0
   -1.7700   -3.5600   -4.0490 C   0  0  0  0  0  0  0  0  0  0  0  0
   -4.0100   -1.9730   -2.9840 C   0  0  0  0  0  0  0  0  0  0  0  0
   -3.7990   -2.2950   -1.6150 O   0  0  0  0  0  0  0  0  0  0  0  0
   -3.4350   -1.1390   -0.9770 N   0  0  0  0  0  0  0  0  0  0  0  0
   -4.3650   -0.5840   -0.1680 N   0  0  0  0  0  0  0  0  0  0  0  0
   -5.2980    0.0670   -0.6890 O   0  0  0  0  0  0  0  0  0  0  0  0
   -2.1960   -0.5160   -1.2130 C   0  0  1  0  0  0  0  0  0  0  0  0
   -2.3910    0.7670   -1.8190 O   0  0  0  0  0  0  0  0  0  0  0  0
    1.1850   -0.3670    0.3720 C   0  0  1  0  0  0  0  0  0  0  0  0
    2.0390   -1.5470    0.0700 N   0  0  0  0  0  0  0  0  0  0  0  0
    3.2240   -2.0980    1.1800 P   0  0  0  0  0  0  0  0  0  0  0  0
    2.9440   -3.3150    2.2550 O   0  0  0  0  0  0  0  0  0  0  0  0
    3.6230   -3.8840    1.1750 C   0  0  2  0  0  0  0  0  0  0  0  0
    4.9520   -4.3450    1.3280 N   0  0  0  0  0  0  0  0  0  0  0  0
    2.7790   -4.6570    0.3360 O   0  0  0  0  0  0  0  0  0  0  0  0
    2.0540    0.7080   -0.1700 C   0  0  0  0  0  0  0  0  0  0  0  0
    3.1750    0.8270    0.3920 O   0  0  0  0  0  0  0  0  0  0  0  0
    1.6390    1.8200   -1.5650 P   0  0  0  0  0  0  0  0  0  0  0  0
    2.4360    3.3530   -1.6080 N   0  0  0  0  0  0  0  0  0  0  0  0
    3.7540    2.9210   -2.0710 C   0  0  0  0  0  0  0  0  0  0  0  0
    3.1130    1.7940   -2.7840 C   0  0  2  0  0  0  0  0  0  0  0  0
    2.7050    2.0110   -4.0580 O   0  0  0  0  0  0  0  0  0  0  0  0
    1.0000   -0.4280    1.8010 C   0  0  0  0  0  0  0  0  0  0  0  0
    1.8040   -0.8020    2.5440 O   0  0  0  0  0  0  0  0  0  0  0  0
   -0.6170    0.1400    2.5650 P   0  0  0  0  0  0  0  0  0  0  0  0
   -0.2430    1.5970    3.5100 N   0  0  0  0  0  0  0  0  0  0  0  0
   -1.0850    1.8810    4.6160 C   0  0  0  0  0  0  0  0  0  0  0  0
    1.0230    1.3550    4.0560 O   0  0  0  0  0  0  0  0  0  0  0  0
    1.1720    2.2400    5.0180 O   0  0  0  0  0  0  0  0  0  0  0  0
  1  2  1  0
  2  3  1  0
  3  4  1  0
  4  5  1  0
  4 34  1  0
  5  6  2  0
  5 16  1  0
  6  7  1  0
  6 18  1  0
  7  8  2  0
  8  9  1  0
  8 16  1  0
  9 10  1  0
  9 11  1  0
 11 12  1  0
 12 13  1  0
 13 14  1  0
 13 16  1  0
 14 15  2  0
 16 17  1  6
 18 19  1  6
 18 25  1  0
 18 32  1  0
 19 20  1  0
 20 21  1  0
 20 22  1  0
 21 22  1  0
 22 23  1  1
 22 24  1  0
 25 26  2  0
 25 27  1  0
 27 28  1  0
 27 30  1  0
 28 29  1  0
 29 30  1  0
 30 31  1  6
 32 33  2  0
 32 34  1  0
 34 35  1  0
 35 36  1  0
 35 37  1  0
 37 38  1  0
M  END
