
     RDKit          3D

 38 40  0  0  0  0  0  0  0  0999 V2000
   -5.3990    0.1230    2.0140 C   0  0  0  0  0  0  0  0  0  0  0  0
   -3.9200   -0.1990    2.0930 C   0  0  0  0  0  0  0  0  0  0  0  0
   -3.4530   -0.5140    0.8240 O   0  0  0  0  0  0  0  0  0  0  0  0
   -3.8860   -1.5930    0.1060 C   0  0  0  0  0  0  0  0  0  0  0  0
   -4.8310   -2.4340    0.7040 C   0  0  0  0  0  0  0  0  0  0  0  0
   -5.3020   -3.5370    0.0280 C   0  0  0  0  0  0  0  0  0  0  0  0
   -4.8440   -3.8150   -1.2330 C   0  0  0  0  0  0  0  0  0  0  0  0
   -3.9200   -2.9860   -1.8070 C   0  0  0  0  0  0  0  0  0  0  0  0
   -3.4270   -1.8740   -1.1640 C   0  0  0  0  0  0  0  0  0  0  0  0
   -2.4610   -1.0660   -1.8510 C   0  0  0  0  0  0  0  0  0  0  0  0
   -2.1020   -1.4190   -3.0330 O   0  0  0  0  0  0  0  0  0  0  0  0
   -1.8150    0.1130   -1.4020 N   0  0  0  0  0  0  0  0  0  0  0  0
   -0.8560    0.8360   -2.2000 C   0  0  1  0  0  0  0  0  0  0  0  0
   -1.6890    1.9050   -2.9440 C   0  0  0  0  0  0  0  0  0  0  0  0
   -2.4010    2.8070   -2.0340 C   0  0  0  0  0  0  0  0  0  0  0  0
   -2.3300    2.7200   -0.7840 O   0  0  0  0  0  0  0  0  0  0  0  0
   -3.2110    3.8300   -2.5110 O   0  0  0  0  0  0  0  0  0  0  0  0
   -3.9030    4.7070   -1.6230 C   0  0  0  0  0  0  0  0  0  0  0  0
    0.3200    1.3790   -1.5820 C   0  0  0  0  0  0  0  0  0  0  0  0
    0.5930    2.7330   -1.6880 C   0  0  0  0  0  0  0  0  0  0  0  0
    1.7390    3.2290   -1.1250 C   0  0  0  0  0  0  0  0  0  0  0  0
    2.6490    2.4460   -0.4530 C   0  0  0  0  0  0  0  0  0  0  0  0
    2.3940    1.0670   -0.3350 C   0  0  0  0  0  0  0  0  0  0  0  0
    3.4520    0.2650    0.1740 N   0  0  0  0  0  0  0  0  0  0  0  0
    4.4280    0.6400    1.1020 C   0  0  0  0  0  0  0  0  0  0  0  0
    4.4050    1.8060    1.5850 O   0  0  0  0  0  0  0  0  0  0  0  0
    5.5030   -0.2600    1.5630 C   0  0  0  0  0  0  0  0  0  0  0  0
    6.2780    0.0700    2.6600 C   0  0  0  0  0  0  0  0  0  0  0  0
    7.2880   -0.7770    3.0830 C   0  0  0  0  0  0  0  0  0  0  0  0
    7.5380   -1.9560    2.4240 C   0  0  0  0  0  0  0  0  0  0  0  0
    8.8830   -3.0530    3.0140 P   0  0  0  0  0  0  0  0  0  0  0  0
   10.3550   -2.7950    2.6180 O   0  0  0  0  0  0  0  0  0  0  0  0
    6.7730   -2.2950    1.3320 C   0  0  0  0  0  0  0  0  0  0  0  0
    5.7550   -1.4320    0.9130 C   0  0  0  0  0  0  0  0  0  0  0  0
    1.2290    0.5490   -0.8970 C   0  0  0  0  0  0  0  0  0  0  0  0
    0.8540   -0.8750   -0.8330 C   0  0  0  0  0  0  0  0  0  0  0  0
    1.6930   -1.5960   -0.0160 O   0  0  0  0  0  0  0  0  0  0  0  0
    1.3360   -1.2390    1.3130 C   0  0  0  0  0  0  0  0  0  0  0  0
  1  2  1  0
  2  3  1  0
  3  4  1  0
  4  5  2  0
  4  9  1  0
  5  6  1  0
  6  7  2  0
  7  8  1  0
  8  9  2  0
  9 10  1  0
 10 11  2  0
 10 12  1  0
 12 13  1  0
 13 14  1  1
 13 19  1  0
 14 15  1  0
 15 16  2  0
 15 17  1  0
 17 18  1  0
 19 20  2  0
 19 35  1  0
 20 21  1  0
 21 22  2  0
 22 23  1  0
 23 24  1  0
 23 35  2  0
 24 25  1  0
 25 26  2  0
 25 27  1  0
 27 28  2  0
 27 34  1  0
 28 29  1  0
 29 30  2  0
 30 31  1  0
 30 33  1  0
 31 32  2  0
 33 34  2  0
 35 36  1  0
 36 37  1  0
 37 38  1  0
M  END
