
     RDKit          3D

 38 41  0  0  0  0  0  0  0  0999 V2000
   -2.5970   -4.4280   -0.3590 N   0  0  0  0  0  0  0  0  0  0  0  0
   -1.6510   -3.6860   -1.1630 C   0  0  0  0  0  0  0  0  0  0  0  0
   -1.2620   -2.3670   -0.4770 C   0  0  1  0  0  0  0  0  0  0  0  0
   -0.6670   -2.6720    0.7900 N   0  0  0  0  0  0  0  0  0  0  0  0
   -1.3260   -2.6810    1.7820 O   0  0  0  0  0  0  0  0  0  0  0  0
   -0.4340   -1.6770   -1.3790 N   0  0  0  0  0  0  0  0  0  0  0  0
    1.0110   -1.0420   -1.2580 P   0  0  0  0  0  0  0  0  0  0  0  0
    2.0030   -1.0920    0.2710 C   0  0  2  0  0  0  0  0  0  0  0  0
    2.7690   -2.3710    0.5210 C   0  0  0  0  0  0  0  0  0  0  0  0
    3.6770   -2.5360   -0.6070 N   0  0  0  0  0  0  0  0  0  0  0  0
    4.4230   -3.6310   -0.5220 O   0  0  0  0  0  0  0  0  0  0  0  0
    1.1450   -0.7440    1.3500 N   0  0  0  0  0  0  0  0  0  0  0  0
    1.0100    0.5290    1.3340 C   0  0  0  0  0  0  0  0  0  0  0  0
    1.9600    1.1760    0.4120 C   0  0  1  0  0  0  0  0  0  0  0  0
    2.7820    2.1590    1.0060 O   0  0  0  0  0  0  0  0  0  0  0  0
    4.0760    1.9040    0.5170 C   0  0  0  0  0  0  0  0  0  0  0  0
    5.1540    2.8650    0.5390 C   0  0  0  0  0  0  0  0  0  0  0  0
    4.9820    4.0060    1.0100 O   0  0  0  0  0  0  0  0  0  0  0  0
    6.4310    2.5280    0.0250 N   0  0  0  0  0  0  0  0  0  0  0  0
    7.2240    1.7710    0.6440 O   0  0  0  0  0  0  0  0  0  0  0  0
    4.1390    0.6520    0.0390 C   0  0  0  0  0  0  0  0  0  0  0  0
    2.8880    0.0390    0.1970 N   0  0  0  0  0  0  0  0  0  0  0  0
    1.4510    1.5110   -0.8130 O   0  0  0  0  0  0  0  0  0  0  0  0
    0.6830    3.0610   -0.6920 P   0  0  0  0  0  0  0  0  0  0  0  0
    1.8560    4.3200   -0.9040 O   0  0  0  0  0  0  0  0  0  0  0  0
   -0.1320    3.1430    0.8360 O   0  0  0  0  0  0  0  0  0  0  0  0
   -1.4750    3.2030    1.0680 C   0  0  0  0  0  0  0  0  0  0  0  0
   -1.8830    3.9880    1.9810 O   0  0  0  0  0  0  0  0  0  0  0  0
   -2.4790    2.4660    0.3820 N   0  0  0  0  0  0  0  0  0  0  0  0
   -3.8320    3.0110    0.2630 C   0  0  0  0  0  0  0  0  0  0  0  0
   -4.8180    2.0910    0.9220 C   0  0  0  0  0  0  0  0  0  0  0  0
   -4.2960    0.5850    1.3980 P   0  0  0  0  0  0  0  0  0  0  0  0
   -2.6060    0.0900    0.7990 C   0  0  2  0  0  0  0  0  0  0  0  0
   -2.2540    1.1740   -0.2270 C   0  0  0  0  0  0  0  0  0  0  0  0
   -2.8650   -1.4840   -0.1520 P   0  0  0  0  0  0  0  0  0  0  0  0
   -3.7850   -1.2230   -1.6780 C   0  0  0  0  0  0  0  0  0  0  0  0
   -3.2000   -0.8690   -2.7240 O   0  0  0  0  0  0  0  0  0  0  0  0
   -5.1510   -1.4130   -1.7050 O   0  0  0  0  0  0  0  0  0  0  0  0
  1  2  1  0
  3  2  1  6
  3  4  1  0
  3  6  1  0
  3 35  1  0
  4  5  2  0
  6  7  2  0
  7  8  1  0
  8  9  1  1
  8 12  1  0
  8 22  1  0
  9 10  1  0
 10 11  1  0
 12 13  2  0
 13 14  1  0
 14 15  1  1
 14 22  1  0
 14 23  1  0
 15 16  1  0
 16 17  1  0
 16 21  2  0
 17 18  2  0
 17 19  1  0
 19 20  2  0
 21 22  1  0
 23 24  1  0
 24 25  1  0
 24 26  1  0
 26 27  1  0
 27 28  2  0
 27 29  1  0
 29 30  1  0
 29 34  1  0
 30 31  1  0
 31 32  2  0
 32 33  1  0
 33 34  1  0
 33 35  1  6
 35 36  1  0
 36 37  2  0
 36 38  1  0
M  END
