
     RDKit          3D

 37 39  0  0  0  0  0  0  0  0999 V2000
   -7.4620    2.4140    0.0190 C   0  0  0  0  0  0  0  0  0  0  0  0
   -6.1790    1.6150   -0.0890 C   0  0  0  0  0  0  0  0  0  0  0  0
   -6.2260    0.3520    0.7460 C   0  0  0  0  0  0  0  0  0  0  0  0
   -4.9060   -0.4240    0.6720 C   0  0  0  0  0  0  0  0  0  0  0  0
   -3.8580    0.1280    1.0250 O   0  0  0  0  0  0  0  0  0  0  0  0
   -2.8190    0.6620    1.3710 C   0  0  0  0  0  0  0  0  0  0  0  0
   -1.6340    0.6070    0.4270 C   0  0  0  0  0  0  0  0  0  0  0  0
   -1.5780    1.6430   -0.5230 C   0  0  0  0  0  0  0  0  0  0  0  0
   -2.8560    2.1520   -0.8600 O   0  0  0  0  0  0  0  0  0  0  0  0
   -2.9240    2.9580   -2.0270 C   0  0  0  0  0  0  0  0  0  0  0  0
   -0.4140    2.0880   -1.0790 C   0  0  0  0  0  0  0  0  0  0  0  0
    0.7390    1.4240   -0.6550 C   0  0  0  0  0  0  0  0  0  0  0  0
    0.7260    0.3770    0.2480 C   0  0  0  0  0  0  0  0  0  0  0  0
    1.8960   -0.5330    0.1320 C   0  0  2  0  0  0  0  0  0  0  0  0
    3.1730    0.1240   -0.1380 N   0  0  0  0  0  0  0  0  0  0  0  0
    3.9600    0.6060    0.9570 C   0  0  0  0  0  0  0  0  0  0  0  0
    3.4790    0.6440    2.0980 O   0  0  0  0  0  0  0  0  0  0  0  0
    5.3290    0.9730    0.6400 C   0  0  0  0  0  0  0  0  0  0  0  0
    5.7090    1.7310   -0.4310 C   0  0  0  0  0  0  0  0  0  0  0  0
    7.0800    1.7670   -0.7210 C   0  0  0  0  0  0  0  0  0  0  0  0
    8.0220    1.0970   -0.0230 C   0  0  0  0  0  0  0  0  0  0  0  0
    9.7680    1.0920   -0.5430 P   0  0  0  0  0  0  0  0  0  0  0  0
   10.7470    2.1320   -0.0210 O   0  0  0  0  0  0  0  0  0  0  0  0
    7.6080    0.3060    1.0550 C   0  0  0  0  0  0  0  0  0  0  0  0
    6.2720    0.2730    1.3550 C   0  0  0  0  0  0  0  0  0  0  0  0
    1.6660   -0.9840   -1.4100 C   0  0  0  0  0  0  0  0  0  0  0  0
    1.1990   -2.3080   -1.7080 C   0  0  0  0  0  0  0  0  0  0  0  0
    1.7270   -3.4220   -0.8680 C   0  0  0  0  0  0  0  0  0  0  0  0
    2.4150   -2.8960    0.3430 C   0  0  0  0  0  0  0  0  0  0  0  0
    3.3250   -3.6550    0.8120 O   0  0  0  0  0  0  0  0  0  0  0  0
    2.0630   -1.6630    0.8890 N   0  0  0  0  0  0  0  0  0  0  0  0
   -0.4510   -0.0450    0.8120 C   0  0  0  0  0  0  0  0  0  0  0  0
   -0.5800   -1.0460    1.6620 O   0  0  0  0  0  0  0  0  0  0  0  0
   -0.7740   -2.4120    1.5630 C   0  0  0  0  0  0  0  0  0  0  0  0
   -1.7560   -2.7660    0.5100 C   0  0  0  0  0  0  0  0  0  0  0  0
   -2.1760   -2.1010   -0.6800 C   0  0  0  0  0  0  0  0  0  0  0  0
   -2.3240   -3.9430    0.7000 O   0  0  0  0  0  0  0  0  0  0  0  0
  1  2  1  0
  2  3  1  0
  3  4  1  0
  4  5  1  0
  5  6  1  0
  6  7  1  0
  7  8  2  0
  7 32  1  0
  8  9  1  0
  8 11  1  0
  9 10  1  0
 11 12  2  0
 12 13  1  0
 13 14  1  0
 13 32  2  0
 14 15  1  6
 14 26  1  0
 14 31  1  0
 15 16  1  0
 16 17  2  0
 16 18  1  0
 18 19  2  0
 18 25  1  0
 19 20  1  0
 20 21  2  0
 21 22  1  0
 21 24  1  0
 22 23  2  0
 24 25  2  0
 26 27  1  0
 27 28  1  0
 28 29  1  0
 29 30  2  0
 29 31  1  0
 32 33  1  0
 33 34  1  0
 34 35  1  0
 35 36  1  0
 35 37  2  0
M  END
