
     RDKit          3D

 38 41  0  0  0  0  0  0  0  0999 V2000
   -5.1250   -1.4500   -2.3290 O   0  0  0  0  0  0  0  0  0  0  0  0
   -3.8820   -2.2750   -1.8310 P   0  0  0  0  0  0  0  0  0  0  0  0
   -4.0670   -3.3470   -0.3750 C   0  0  0  0  0  0  0  0  0  0  0  0
   -4.6480   -4.6090   -0.5420 C   0  0  0  0  0  0  0  0  0  0  0  0
   -4.8130   -5.4640    0.5250 C   0  0  0  0  0  0  0  0  0  0  0  0
   -4.3890   -5.0360    1.7610 C   0  0  0  0  0  0  0  0  0  0  0  0
   -3.8190   -3.7970    1.9230 C   0  0  0  0  0  0  0  0  0  0  0  0
   -3.6400   -2.9100    0.8510 C   0  0  0  0  0  0  0  0  0  0  0  0
   -3.0120   -1.5860    1.0880 C   0  0  2  0  0  0  0  0  0  0  0  0
   -3.8660   -0.6070    0.6130 O   0  0  0  0  0  0  0  0  0  0  0  0
   -1.6710   -1.5550    0.4590 C   0  0  0  0  0  0  0  0  0  0  0  0
   -1.0160   -2.7400    0.2610 N   0  0  0  0  0  0  0  0  0  0  0  0
    0.2000   -2.7690   -0.3110 C   0  0  0  0  0  0  0  0  0  0  0  0
    0.7710   -1.5700   -0.6950 C   0  0  0  0  0  0  0  0  0  0  0  0
    0.1490   -0.3550   -0.5150 C   0  0  0  0  0  0  0  0  0  0  0  0
    0.7230    0.9170   -0.9370 C   0  0  0  0  0  0  0  0  0  0  0  0
    1.9870    0.9130   -1.4780 O   0  0  0  0  0  0  0  0  0  0  0  0
    3.1820    0.5650   -0.9280 C   0  0  0  0  0  0  0  0  0  0  0  0
    3.2960    0.1410    0.3790 C   0  0  0  0  0  0  0  0  0  0  0  0
    4.4940   -0.2130    0.9450 C   0  0  0  0  0  0  0  0  0  0  0  0
    5.6840   -0.1570    0.1990 C   0  0  0  0  0  0  0  0  0  0  0  0
    6.8290   -0.5130    0.7950 O   0  0  0  0  0  0  0  0  0  0  0  0
    8.1450   -0.5860    0.4490 C   0  0  0  0  0  0  0  0  0  0  0  0
    8.8300    0.6850    0.0660 C   0  0  0  0  0  0  0  0  0  0  0  0
    8.7770    1.5940    1.1460 O   0  0  0  0  0  0  0  0  0  0  0  0
    5.5820    0.2620   -1.0980 C   0  0  0  0  0  0  0  0  0  0  0  0
    4.3530    0.6160   -1.6490 C   0  0  0  0  0  0  0  0  0  0  0  0
   -1.1010   -0.3640    0.0760 C   0  0  0  0  0  0  0  0  0  0  0  0
   -1.7430    0.8930    0.2730 N   0  0  0  0  0  0  0  0  0  0  0  0
   -2.5510    1.5600   -0.6550 C   0  0  0  0  0  0  0  0  0  0  0  0
   -2.7210    0.9810   -1.7830 O   0  0  0  0  0  0  0  0  0  0  0  0
   -3.2000    2.8420   -0.4320 C   0  0  0  0  0  0  0  0  0  0  0  0
   -4.0350    3.3540   -1.4040 C   0  0  0  0  0  0  0  0  0  0  0  0
   -4.6730    4.5620   -1.2510 C   0  0  0  0  0  0  0  0  0  0  0  0
   -4.4780    5.2920   -0.0940 C   0  0  0  0  0  0  0  0  0  0  0  0
   -5.1120    6.5300    0.0970 O   0  0  0  0  0  0  0  0  0  0  0  0
   -3.6440    4.7790    0.8730 C   0  0  0  0  0  0  0  0  0  0  0  0
   -2.9930    3.5470    0.7190 C   0  0  0  0  0  0  0  0  0  0  0  0
  1  2  2  0
  2  3  1  0
  3  4  2  0
  3  8  1  0
  4  5  1  0
  5  6  2  0
  6  7  1  0
  7  8  2  0
  8  9  1  0
  9 10  1  6
  9 11  1  0
 11 12  2  0
 11 28  1  0
 12 13  1  0
 13 14  2  0
 14 15  1  0
 15 16  1  0
 15 28  2  0
 16 17  1  0
 17 18  1  0
 18 19  2  0
 18 27  1  0
 19 20  1  0
 20 21  2  0
 21 22  1  0
 21 26  1  0
 22 23  1  0
 23 24  1  0
 24 25  1  0
 26 27  2  0
 28 29  1  0
 29 30  1  0
 30 31  2  0
 30 32  1  0
 32 33  2  0
 32 38  1  0
 33 34  1  0
 34 35  2  0
 35 36  1  0
 35 37  1  0
 37 38  2  0
M  END
