
     RDKit          3D

 38 40  0  0  0  0  0  0  0  0999 V2000
    7.7840    3.0790    1.3020 C   0  0  0  0  0  0  0  0  0  0  0  0
    7.4750    1.6280    1.3970 C   0  0  0  0  0  0  0  0  0  0  0  0
    8.3770    0.6840    1.8210 C   0  0  0  0  0  0  0  0  0  0  0  0
    8.0050   -0.6360    1.8780 C   0  0  0  0  0  0  0  0  0  0  0  0
    6.7480   -1.0390    1.5210 C   0  0  0  0  0  0  0  0  0  0  0  0
    5.8170   -0.1150    1.0910 C   0  0  0  0  0  0  0  0  0  0  0  0
    4.4460   -0.5070    0.6950 C   0  0  0  0  0  0  0  0  0  0  0  0
    3.5800   -0.4440    1.9270 C   0  0  0  0  0  0  0  0  0  0  0  0
    2.2020   -0.8100    1.6570 N   0  0  0  0  0  0  0  0  0  0  0  0
    1.4050   -0.0820    0.7210 C   0  0  0  0  0  0  0  0  0  0  0  0
    1.9260    0.8950    0.1280 O   0  0  0  0  0  0  0  0  0  0  0  0
    0.1050   -0.3840    0.4300 O   0  0  0  0  0  0  0  0  0  0  0  0
   -0.6080    0.4010   -0.5180 C   0  0  1  0  0  0  0  0  0  0  0  0
   -0.8780   -0.5080   -1.6620 C   0  0  0  0  0  0  0  0  0  0  0  0
   -1.6200   -0.0770   -2.6050 O   0  0  0  0  0  0  0  0  0  0  0  0
   -0.3870   -1.7770   -1.7900 O   0  0  0  0  0  0  0  0  0  0  0  0
   -0.6190   -2.6540   -2.8550 C   0  0  2  0  0  0  0  0  0  0  0  0
   -0.1280   -2.0820   -4.1840 C   0  0  0  0  0  0  0  0  0  0  0  0
   -2.0460   -3.0970   -2.9210 C   0  0  0  0  0  0  0  0  0  0  0  0
    0.2490   -3.8920   -2.6020 C   0  0  0  0  0  0  0  0  0  0  0  0
   -1.7690    1.1020    0.0260 C   0  0  0  0  0  0  0  0  0  0  0  0
   -1.6950    2.4950    0.2140 C   0  0  0  0  0  0  0  0  0  0  0  0
   -2.7420    3.2300    0.6850 C   0  0  0  0  0  0  0  0  0  0  0  0
   -2.6850    4.7040    0.8910 C   0  0  0  0  0  0  0  0  0  0  0  0
   -3.2200    5.5790   -0.6570 P   0  0  0  0  0  0  0  0  0  0  0  0
   -4.0160    4.4450   -1.6920 O   0  0  0  0  0  0  0  0  0  0  0  0
   -4.3900    6.7890   -0.1990 O   0  0  0  0  0  0  0  0  0  0  0  0
   -3.9120    2.5680    0.9840 C   0  0  0  0  0  0  0  0  0  0  0  0
   -4.0290    1.2060    0.8160 C   0  0  0  0  0  0  0  0  0  0  0  0
   -2.9360    0.4610    0.3290 C   0  0  0  0  0  0  0  0  0  0  0  0
   -3.0760   -0.9380    0.2090 N   0  0  0  0  0  0  0  0  0  0  0  0
   -4.3500   -1.5600    0.4900 C   0  0  0  0  0  0  0  0  0  0  0  0
   -5.4350   -1.4160   -0.2390 C   0  0  0  0  0  0  0  0  0  0  0  0
   -6.5120   -2.2080    0.3840 C   0  0  1  0  0  0  0  0  0  0  0  0
   -6.8370   -3.2320   -0.5080 O   0  0  0  0  0  0  0  0  0  0  0  0
   -5.8980   -2.8230    1.5630 C   0  0  0  0  0  0  0  0  0  0  0  0
   -4.6400   -2.4340    1.6100 C   0  0  0  0  0  0  0  0  0  0  0  0
    6.2240    1.2140    1.0440 C   0  0  0  0  0  0  0  0  0  0  0  0
  1  2  1  0
  2  3  2  0
  2 38  1  0
  3  4  1  0
  4  5  2  0
  5  6  1  0
  6  7  1  0
  6 38  2  0
  7  8  1  0
  8  9  1  0
  9 10  1  0
 10 11  2  0
 10 12  1  0
 13 12  1  1
 13 14  1  0
 13 21  1  0
 14 15  2  0
 14 16  1  0
 16 17  1  0
 17 18  1  6
 17 19  1  0
 17 20  1  0
 21 22  2  0
 21 30  1  0
 22 23  1  0
 23 24  1  0
 23 28  2  0
 24 25  1  0
 25 26  1  0
 25 27  1  0
 28 29  1  0
 29 30  2  0
 30 31  1  0
 31 32  1  0
 32 33  2  0
 32 37  1  0
 33 34  1  0
 34 35  1  6
 34 36  1  0
 36 37  2  0
M  END
