
     RDKit          3D

 22 23  0  0  0  0  0  0  0  0999 V2000
   -3.0200   -1.4170    2.0730 C   0  0  0  0  0  0  0  0  0  0  0  0
   -3.0350   -0.4150    0.8800 C   0  0  1  0  0  0  0  0  0  0  0  0
   -4.4250    0.1910    0.7720 C   0  0  0  0  0  0  0  0  0  0  0  0
   -1.8450    0.8370    1.3290 S   0  0  0  0  0  0  0  0  0  0  0  0
   -1.5840    2.1810    0.2200 C   0  0  0  0  0  0  0  0  0  0  0  0
   -0.8600    1.8060   -1.0400 C   0  0  0  0  0  0  0  0  0  0  0  0
    0.4280    1.2550   -0.6960 O   0  0  0  0  0  0  0  0  0  0  0  0
    1.3050    0.8260   -1.6600 C   0  0  0  0  0  0  0  0  0  0  0  0
    0.9790    0.9150   -2.8640 O   0  0  0  0  0  0  0  0  0  0  0  0
    2.6360    0.2540   -1.3830 C   0  0  0  0  0  0  0  0  0  0  0  0
    3.7650   -0.2940   -2.6040 S   0  0  0  0  0  0  0  0  0  0  0  0
    5.0130   -0.7880   -1.4180 C   0  0  0  0  0  0  0  0  0  0  0  0
    6.6370   -1.4860   -1.1640 S   0  0  0  0  0  0  0  0  0  0  0  0
    6.5270   -1.3570    0.6530 N   0  0  0  0  0  0  0  0  0  0  0  0
    5.3500   -0.8320    0.8660 C   0  0  0  0  0  0  0  0  0  0  0  0
    5.0810   -0.6560    2.1700 O   0  0  0  0  0  0  0  0  0  0  0  0
    4.4810   -0.4970   -0.1170 C   0  0  0  0  0  0  0  0  0  0  0  0
    3.2310    0.0470   -0.1930 C   0  0  0  0  0  0  0  0  0  0  0  0
    2.4330    0.4470    0.9510 O   0  0  0  0  0  0  0  0  0  0  0  0
   -2.7200   -1.1820   -0.3370 C   0  0  0  0  0  0  0  0  0  0  0  0
   -3.1130   -0.8120   -1.6430 N   0  0  0  0  0  0  0  0  0  0  0  0
   -2.0480   -2.2490   -0.2020 O   0  0  0  0  0  0  0  0  0  0  0  0
  2  1  1  1
  2  3  1  0
  2  4  1  0
  2 20  1  0
  4  5  1  0
  5  6  1  0
  6  7  1  0
  7  8  1  0
  8  9  2  0
  8 10  1  0
 10 11  1  0
 10 18  2  0
 11 12  1  0
 12 13  1  0
 12 17  2  0
 13 14  1  0
 14 15  1  0
 15 16  2  0
 15 17  1  0
 17 18  1  0
 18 19  1  0
 20 21  1  0
 20 22  2  0
M  END
