
     RDKit          3D

 13 13  0  0  0  0  0  0  0  0999 V2000
    2.8960    0.9830   -0.6050 O   0  0  0  0  0  0  0  0  0  0  0  0
    2.4880    0.1430    0.4160 C   0  0  2  0  0  0  0  0  0  0  0  0
    3.3070   -0.9940    0.4670 O   0  0  0  0  0  0  0  0  0  0  0  0
    1.0650   -0.2580    0.0910 C   0  0  0  0  0  0  0  0  0  0  0  0
    0.5040   -1.3630   -0.1140 N   0  0  0  0  0  0  0  0  0  0  0  0
   -0.7150   -0.7710   -0.3150 N   0  0  0  0  0  0  0  0  0  0  0  0
   -2.3750   -1.3270   -0.7040 S   0  0  0  0  0  0  0  0  0  0  0  0
   -3.5080    0.0060   -0.2490 C   0  0  2  0  0  0  0  0  0  0  0  0
   -3.5090    0.2040    1.1190 F   0  0  0  0  0  0  0  0  0  0  0  0
   -5.1500   -0.4400   -0.8180 Cl  0  0  0  0  0  0  0  0  0  0  0  0
   -3.0090    1.5490   -1.0150 Cl  0  0  0  0  0  0  0  0  0  0  0  0
   -0.1560    0.5100   -0.0940 C   0  0  2  0  0  0  0  0  0  0  0  0
   -0.0550    1.3340   -1.2030 F   0  0  0  0  0  0  0  0  0  0  0  0
  2  1  1  6
  2  3  1  0
  2  4  1  0
  4  5  2  0
  4 12  1  0
  5  6  1  0
  6  7  1  0
  6 12  1  0
  7  8  1  0
  8  9  1  1
  8 10  1  0
  8 11  1  0
 12 13  1  6
M  END
