
     RDKit          3D

 22 23  0  0  0  0  0  0  0  0999 V2000
   -1.8990    0.6480    0.6770 O   0  0  0  0  0  0  0  0  0  0  0  0
   -2.4090   -0.1420   -0.1170 C   0  0  0  0  0  0  0  0  0  0  0  0
   -3.4220    0.3000   -0.9170 O   0  0  0  0  0  0  0  0  0  0  0  0
   -4.0060    1.5420   -1.0030 C   0  0  0  0  0  0  0  0  0  0  0  0
   -4.6420    2.0990    0.2430 C   0  0  0  0  0  0  0  0  0  0  0  0
   -5.3450    3.7350   -0.1960 S   0  0  0  0  0  0  0  0  0  0  0  0
   -1.9770   -1.5420   -0.2390 C   0  0  0  0  0  0  0  0  0  0  0  0
   -2.4700   -2.4420   -1.1110 N   0  0  0  0  0  0  0  0  0  0  0  0
   -1.8580   -3.6260   -1.0240 C   0  0  0  0  0  0  0  0  0  0  0  0
   -0.9040   -3.4870   -0.0300 C   0  0  0  0  0  0  0  0  0  0  0  0
   -0.9830   -2.1780    0.4610 C   0  0  0  0  0  0  0  0  0  0  0  0
    0.0660   -1.5890    1.7250 S   0  0  0  0  0  0  0  0  0  0  0  0
    1.5780   -0.8200    1.1430 C   0  0  0  0  0  0  0  0  0  0  0  0
    2.6550   -1.1100    0.8240 N   0  0  0  0  0  0  0  0  0  0  0  0
    3.6810   -0.4030    0.4790 C   0  0  0  0  0  0  0  0  0  0  0  0
    5.0390   -0.9390    0.1290 C   0  0  0  0  0  0  0  0  0  0  0  0
    5.4690   -0.4930   -1.1100 O   0  0  0  0  0  0  0  0  0  0  0  0
    3.4480    0.9900    0.4890 C   0  0  0  0  0  0  0  0  0  0  0  0
    4.2830    2.0770    0.1610 C   0  0  0  0  0  0  0  0  0  0  0  0
    5.4740    1.9320   -0.1900 O   0  0  0  0  0  0  0  0  0  0  0  0
    3.7810    3.3970    0.2070 O   0  0  0  0  0  0  0  0  0  0  0  0
    1.7400    1.0520    1.0140 S   0  0  0  0  0  0  0  0  0  0  0  0
  1  2  2  0
  2  3  1  0
  2  7  1  0
  3  4  1  0
  4  5  1  0
  5  6  1  0
  7  8  1  0
  7 11  2  0
  8  9  1  0
  9 10  2  0
 10 11  1  0
 11 12  1  0
 12 13  1  0
 13 14  2  0
 13 22  1  0
 14 15  1  0
 15 16  1  0
 15 18  2  0
 16 17  1  0
 18 19  1  0
 18 22  1  0
 19 20  2  0
 19 21  1  0
M  END
