
     RDKit          3D

 22 23  0  0  0  0  0  0  0  0999 V2000
    2.9290   -2.6250    0.2630 C   0  0  0  0  0  0  0  0  0  0  0  0
    2.1040   -1.4970    0.1960 O   0  0  0  0  0  0  0  0  0  0  0  0
    2.6900   -0.2560   -0.0640 C   0  0  0  0  0  0  0  0  0  0  0  0
    2.6680    0.7320    0.7900 C   0  0  0  0  0  0  0  0  0  0  0  0
    3.3910    2.3020    0.5030 S   0  0  0  0  0  0  0  0  0  0  0  0
    4.1760    2.5450   -1.0420 C   0  0  0  0  0  0  0  0  0  0  0  0
    4.2420    1.5440   -2.0410 N   0  0  0  0  0  0  0  0  0  0  0  0
    4.7210    3.6890   -1.2880 O   0  0  0  0  0  0  0  0  0  0  0  0
    1.8520    0.4110    2.3300 S   0  0  1  0  0  0  0  0  0  0  0  0
    1.8950   -1.0710    2.6180 O   0  0  0  0  0  0  0  0  0  0  0  0
    2.5910    1.1750    3.3880 O   0  0  0  0  0  0  0  0  0  0  0  0
    0.2080    0.8780    2.2920 N   0  0  0  0  0  0  0  0  0  0  0  0
   -0.7560    0.3180    1.4100 C   0  0  0  0  0  0  0  0  0  0  0  0
   -0.9070   -1.0330    1.2020 C   0  0  0  0  0  0  0  0  0  0  0  0
   -1.8630   -1.5370    0.3450 C   0  0  0  0  0  0  0  0  0  0  0  0
   -2.7210   -0.7130   -0.3520 C   0  0  0  0  0  0  0  0  0  0  0  0
   -2.5900    0.6440   -0.1620 C   0  0  0  0  0  0  0  0  0  0  0  0
   -1.6330    1.1310    0.6960 C   0  0  0  0  0  0  0  0  0  0  0  0
   -3.6920    1.7090   -1.0710 S   0  0  0  0  0  0  0  0  0  0  0  0
   -5.2130    0.7740   -1.3800 C   0  0  0  0  0  0  0  0  0  0  0  0
   -5.0380   -0.6910   -1.2170 C   0  0  0  0  0  0  0  0  0  0  0  0
   -3.7020   -1.1470   -1.2250 O   0  0  0  0  0  0  0  0  0  0  0  0
  1  2  1  0
  2  3  1  0
  3  4  2  3
  4  5  1  0
  4  9  1  0
  5  6  1  0
  6  7  1  0
  6  8  2  0
  9 10  2  0
  9 11  2  0
  9 12  1  6
 12 13  1  0
 13 14  2  0
 13 18  1  0
 14 15  1  0
 15 16  2  0
 16 17  1  0
 16 22  1  0
 17 18  2  0
 17 19  1  0
 19 20  1  0
 20 21  1  0
 21 22  1  0
M  END
