
     RDKit          3D

 22 23  0  0  0  0  0  0  0  0999 V2000
   -2.0780    2.7790   -1.4390 C   0  0  0  0  0  0  0  0  0  0  0  0
   -2.3940    1.5960   -0.5620 C   0  0  0  0  0  0  0  0  0  0  0  0
   -3.5100    0.8490   -0.6020 N   0  0  0  0  0  0  0  0  0  0  0  0
   -3.4650   -0.1180    0.3130 C   0  0  0  0  0  0  0  0  0  0  0  0
   -4.4690   -1.1280    0.5860 C   0  0  0  0  0  0  0  0  0  0  0  0
   -5.5260   -1.1330   -0.0960 O   0  0  0  0  0  0  0  0  0  0  0  0
   -4.3270   -2.0920    1.5590 O   0  0  0  0  0  0  0  0  0  0  0  0
   -2.2630    0.0170    0.9680 C   0  0  0  0  0  0  0  0  0  0  0  0
   -1.7580   -0.8200    2.0620 C   0  0  0  0  0  0  0  0  0  0  0  0
   -1.5680    1.0900    0.4380 C   0  0  0  0  0  0  0  0  0  0  0  0
   -0.0260    1.7420    0.8400 S   0  0  2  0  0  0  0  0  0  0  0  0
    0.2350    1.5980    2.3320 O   0  0  0  0  0  0  0  0  0  0  0  0
   -0.0590    3.2240    0.5680 O   0  0  0  0  0  0  0  0  0  0  0  0
    1.2690    1.0710   -0.0220 N   0  0  0  0  0  0  0  0  0  0  0  0
    1.4550   -0.3370    0.1840 C   0  0  0  0  0  0  0  0  0  0  0  0
    2.6060   -0.8470   -0.6050 C   0  0  0  0  0  0  0  0  0  0  0  0
    2.5230   -1.3160   -1.8990 C   0  0  0  0  0  0  0  0  0  0  0  0
    3.8170   -1.6880   -2.2490 C   0  0  0  0  0  0  0  0  0  0  0  0
    4.6110   -1.4250   -1.1530 C   0  0  0  0  0  0  0  0  0  0  0  0
    6.3680   -1.7420   -1.1270 S   0  0  0  0  0  0  0  0  0  0  0  0
    7.2180   -1.2000    0.7400 S   0  0  0  0  0  0  0  0  0  0  0  0
    3.8650   -0.9290   -0.2000 O   0  0  0  0  0  0  0  0  0  0  0  0
  1  2  1  0
  2  3  1  0
  2 10  2  0
  3  4  1  0
  4  5  1  0
  4  8  2  0
  5  6  2  0
  5  7  1  0
  8  9  1  0
  8 10  1  0
 10 11  1  0
 11 12  2  0
 11 13  2  0
 11 14  1  6
 14 15  1  0
 15 16  1  0
 16 17  2  0
 16 22  1  0
 17 18  1  0
 18 19  2  0
 19 20  1  0
 19 22  1  0
 20 21  1  0
M  END
