
     RDKit          3D

 22 23  0  0  0  0  0  0  0  0999 V2000
    5.7350    2.5210    0.8160 C   0  0  0  0  0  0  0  0  0  0  0  0
    6.2210    0.9900    1.5210 S   0  0  1  0  0  0  0  0  0  0  0  0
    7.2870    0.3140    0.6920 O   0  0  0  0  0  0  0  0  0  0  0  0
    6.8300    1.1920    2.9000 O   0  0  0  0  0  0  0  0  0  0  0  0
    4.8760   -0.1390    1.6670 C   0  0  0  0  0  0  0  0  0  0  0  0
    3.5800    0.4970    2.7100 S   0  0  0  0  0  0  0  0  0  0  0  0
    2.6280    1.8170    1.9630 C   0  0  0  0  0  0  0  0  0  0  0  0
    1.8310    1.2760    0.8580 C   0  0  0  0  0  0  0  0  0  0  0  0
    2.0510    1.1140   -0.4780 C   0  0  0  0  0  0  0  0  0  0  0  0
    1.1220    0.5810   -1.2540 C   0  0  0  0  0  0  0  0  0  0  0  0
   -0.0790    0.1990   -0.6470 C   0  0  0  0  0  0  0  0  0  0  0  0
   -1.2410   -0.4000   -1.2770 N   0  0  0  0  0  0  0  0  0  0  0  0
   -2.3650   -0.7120   -0.4650 C   0  0  0  0  0  0  0  0  0  0  0  0
   -2.2690   -0.4410    0.7660 O   0  0  0  0  0  0  0  0  0  0  0  0
   -3.5440   -1.2970   -0.9790 N   0  0  0  0  0  0  0  0  0  0  0  0
   -4.6650   -1.5980   -0.1180 C   0  0  1  0  0  0  0  0  0  0  0  0
   -5.9080   -0.8440   -0.4970 C   0  0  0  0  0  0  0  0  0  0  0  0
   -6.7920   -1.9350   -1.0510 C   0  0  0  0  0  0  0  0  0  0  0  0
   -6.2680   -3.1650   -0.6540 O   0  0  0  0  0  0  0  0  0  0  0  0
   -5.0100   -3.0300   -0.1270 C   0  0  0  0  0  0  0  0  0  0  0  0
   -4.2750   -3.9530    0.2780 O   0  0  0  0  0  0  0  0  0  0  0  0
    0.1780    0.6220    1.0230 S   0  0  0  0  0  0  0  0  0  0  0  0
  2  1  1  6
  2  3  2  0
  2  4  2  0
  2  5  1  0
  5  6  1  0
  6  7  1  0
  7  8  1  0
  8  9  2  0
  8 22  1  0
  9 10  1  0
 10 11  2  0
 11 12  1  0
 11 22  1  0
 12 13  1  0
 13 14  2  0
 13 15  1  0
 16 15  1  6
 16 17  1  0
 16 20  1  0
 17 18  1  0
 18 19  1  0
 19 20  1  0
 20 21  2  0
M  END
