
     RDKit          3D

 22 23  0  0  0  0  0  0  0  0999 V2000
   -5.3800   -1.2130   -0.9750 C   0  0  0  0  0  0  0  0  0  0  0  0
   -4.1420   -0.7220   -0.2280 C   0  0  0  0  0  0  0  0  0  0  0  0
   -3.2530   -1.4930    0.4040 C   0  0  0  0  0  0  0  0  0  0  0  0
   -2.1910   -0.9840    1.0370 C   0  0  0  0  0  0  0  0  0  0  0  0
   -0.9010   -1.7390    1.9230 S   0  0  1  0  0  0  0  0  0  0  0  0
   -0.9070   -1.1430    3.3140 O   0  0  0  0  0  0  0  0  0  0  0  0
   -1.1760   -3.1920    1.9660 O   0  0  0  0  0  0  0  0  0  0  0  0
    0.6060   -1.4140    1.1910 N   0  0  0  0  0  0  0  0  0  0  0  0
    0.9240   -0.0040    1.1610 C   0  0  0  0  0  0  0  0  0  0  0  0
    2.2220    0.2700    0.5350 C   0  0  0  0  0  0  0  0  0  0  0  0
    3.0350   -0.7630    0.1370 C   0  0  0  0  0  0  0  0  0  0  0  0
    4.2510   -0.5140   -0.4510 C   0  0  0  0  0  0  0  0  0  0  0  0
    4.9870   -1.4700   -0.8120 O   0  0  0  0  0  0  0  0  0  0  0  0
    4.6640    0.8010   -0.6460 C   0  0  0  0  0  0  0  0  0  0  0  0
    6.2210    1.1580   -1.3990 S   0  0  1  0  0  0  0  0  0  0  0  0
    6.5280    2.6010   -1.1790 O   0  0  0  0  0  0  0  0  0  0  0  0
    7.2750    0.2490   -0.8630 O   0  0  0  0  0  0  0  0  0  0  0  0
    3.8180    1.8040   -0.2330 C   0  0  0  0  0  0  0  0  0  0  0  0
    2.6170    1.5350    0.3490 N   0  0  0  0  0  0  0  0  0  0  0  0
   -2.3750    0.7650    0.7720 S   0  0  0  0  0  0  0  0  0  0  0  0
   -3.8530    0.6870   -0.1630 C   0  0  0  0  0  0  0  0  0  0  0  0
   -4.6660    1.7760   -0.7730 C   0  0  0  0  0  0  0  0  0  0  0  0
  1  2  1  0
  2  3  1  0
  2 21  2  0
  3  4  2  0
  4  5  1  0
  4 20  1  0
  5  6  2  0
  5  7  2  0
  5  8  1  6
  8  9  1  0
  9 10  1  0
 10 11  2  0
 10 19  1  0
 11 12  1  0
 12 13  2  0
 12 14  1  0
 15 14  1  1
 14 18  2  0
 15 16  2  0
 15 17  2  0
 18 19  1  0
 20 21  1  0
 21 22  1  0
M  END
