
     RDKit          3D

 22 23  0  0  0  0  0  0  0  0999 V2000
    5.3820   -2.3700   -0.2630 O   0  0  0  0  0  0  0  0  0  0  0  0
    5.7020   -1.2510   -0.7000 C   0  0  0  0  0  0  0  0  0  0  0  0
    5.0110    0.0110   -0.2990 C   0  0  0  0  0  0  0  0  0  0  0  0
    5.4090    1.1990   -0.7330 C   0  0  0  0  0  0  0  0  0  0  0  0
    4.6940    2.3170   -0.2400 C   0  0  0  0  0  0  0  0  0  0  0  0
    3.5020    1.6120    0.8070 S   0  0  0  0  0  0  0  0  0  0  0  0
    3.9480   -0.0640    0.5850 C   0  0  0  0  0  0  0  0  0  0  0  0
    3.3850   -1.2340    1.1650 N   0  0  0  0  0  0  0  0  0  0  0  0
    2.0930   -2.0530    0.4570 S   0  0  1  0  0  0  0  0  0  0  0  0
    2.4460   -2.4680   -0.9680 O   0  0  0  0  0  0  0  0  0  0  0  0
    1.7780   -3.3590    1.1570 O   0  0  0  0  0  0  0  0  0  0  0  0
    0.6670   -1.1130    0.3690 C   0  0  0  0  0  0  0  0  0  0  0  0
    0.2300    0.0630    0.8530 C   0  0  0  0  0  0  0  0  0  0  0  0
   -1.0050    0.5060    0.6120 C   0  0  0  0  0  0  0  0  0  0  0  0
   -1.8340   -0.3190   -0.1750 C   0  0  0  0  0  0  0  0  0  0  0  0
   -3.1970   -0.0910   -0.5870 C   0  0  0  0  0  0  0  0  0  0  0  0
   -3.7530   -0.9580   -1.2900 O   0  0  0  0  0  0  0  0  0  0  0  0
   -3.9280    1.0730   -0.2260 N   0  0  0  0  0  0  0  0  0  0  0  0
   -5.2820    1.3150   -0.6250 C   0  0  0  0  0  0  0  0  0  0  0  0
   -6.1520    0.1960   -0.0770 C   0  0  0  0  0  0  0  0  0  0  0  0
   -6.0890    0.1400    1.3030 O   0  0  0  0  0  0  0  0  0  0  0  0
   -0.8400   -1.6700   -0.5360 S   0  0  0  0  0  0  0  0  0  0  0  0
  1  2  2  0
  2  3  1  0
  3  4  1  0
  3  7  2  0
  4  5  2  0
  5  6  1  0
  6  7  1  0
  7  8  1  0
  9  8  1  1
  9 10  2  0
  9 11  2  0
  9 12  1  0
 12 13  2  0
 12 22  1  0
 13 14  1  0
 14 15  2  0
 15 16  1  0
 15 22  1  0
 16 17  2  0
 16 18  1  0
 18 19  1  0
 19 20  1  0
 20 21  1  0
M  END
