
     RDKit          3D

 22 22  0  0  0  0  0  0  0  0999 V2000
    1.9820   -2.0810   -0.9280 C   0  0  0  0  0  0  0  0  0  0  0  0
    1.7500   -0.6690   -1.3280 C   0  0  1  0  0  0  0  0  0  0  0  0
    0.8900    0.0060   -0.2540 C   0  0  0  0  0  0  0  0  0  0  0  0
   -0.2980   -0.7250   -0.2180 O   0  0  0  0  0  0  0  0  0  0  0  0
   -1.1920   -0.2250    0.7230 C   0  0  2  0  0  0  0  0  0  0  0  0
   -1.3620   -1.3400    1.7630 C   0  0  0  0  0  0  0  0  0  0  0  0
   -2.5700    0.0040    0.1250 C   0  0  0  0  0  0  0  0  0  0  0  0
   -3.4600    0.5390    1.2070 C   0  0  0  0  0  0  0  0  0  0  0  0
   -4.8590    0.8090    0.7420 C   0  0  2  0  0  0  0  0  0  0  0  0
   -4.8940    1.8310   -0.3810 C   0  0  0  0  0  0  0  0  0  0  0  0
   -5.6480    1.3520    1.9160 C   0  0  0  0  0  0  0  0  0  0  0  0
   -5.4750   -0.4570    0.2060 C   0  0  0  0  0  0  0  0  0  0  0  0
   -6.8910   -0.2110   -0.2710 C   0  0  0  0  0  0  0  0  0  0  0  0
   -7.4300   -1.3950   -0.7570 O   0  0  0  0  0  0  0  0  0  0  0  0
    2.8450    0.1240   -1.8460 C   0  0  0  0  0  0  0  0  0  0  0  0
    4.0740    0.4140   -1.1070 C   0  0  1  0  0  0  0  0  0  0  0  0
    4.9100    1.2870   -2.0780 C   0  0  0  0  0  0  0  0  0  0  0  0
    3.9280    1.2700    0.1170 C   0  0  0  0  0  0  0  0  0  0  0  0
    5.3280    1.8110    0.4510 C   0  0  0  0  0  0  0  0  0  0  0  0
    6.2830    0.7210    0.7990 C   0  0  0  0  0  0  0  0  0  0  0  0
    5.6130   -0.6050    0.6070 C   0  0  0  0  0  0  0  0  0  0  0  0
    4.9700   -0.7380   -0.7740 C   0  0  0  0  0  0  0  0  0  0  0  0
  2  1  1  1
  2  3  1  0
  2 15  1  0
  3  4  1  0
  4  5  1  0
  5  6  1  1
  5  7  1  0
  7  8  1  0
  8  9  1  0
  9 10  1  6
  9 11  1  0
  9 12  1  0
 12 13  1  0
 13 14  1  0
 15 16  1  0
 16 17  1  6
 16 18  1  0
 16 22  1  0
 18 19  1  0
 19 20  1  0
 20 21  1  0
 21 22  1  0
M  END
