
     RDKit          3D

 22 22  0  0  0  0  0  0  0  0999 V2000
    0.0980    2.9240   -3.0080 C   0  0  0  0  0  0  0  0  0  0  0  0
   -0.2980    2.6880   -1.7860 C   0  0  0  0  0  0  0  0  0  0  0  0
   -0.7750    1.2890   -1.3390 C   0  0  0  0  0  0  0  0  0  0  0  0
    0.1490    0.9320   -0.2630 C   0  0  0  0  0  0  0  0  0  0  0  0
    0.1860   -0.3230    0.4510 C   0  0  1  0  0  0  0  0  0  0  0  0
    1.3940   -0.1170    1.4530 C   0  0  0  0  0  0  0  0  0  0  0  0
    2.6390    0.1520    0.7340 C   0  0  0  0  0  0  0  0  0  0  0  0
    3.2480    1.3210    0.9250 C   0  0  0  0  0  0  0  0  0  0  0  0
    2.7140    2.2550    1.7810 O   0  0  0  0  0  0  0  0  0  0  0  0
    4.5270    1.6840    0.2350 C   0  0  0  0  0  0  0  0  0  0  0  0
    5.2970    0.4300   -0.1380 C   0  0  0  0  0  0  0  0  0  0  0  0
    4.3670   -0.3830   -0.9980 C   0  0  0  0  0  0  0  0  0  0  0  0
    3.2020   -0.8740   -0.1670 C   0  0  0  0  0  0  0  0  0  0  0  0
   -0.8620   -0.8950    1.2800 C   0  0  0  0  0  0  0  0  0  0  0  0
   -2.1940   -1.2830    0.8340 C   0  0  1  0  0  0  0  0  0  0  0  0
   -3.1430   -0.3500    0.2850 C   0  0  0  0  0  0  0  0  0  0  0  0
   -3.5690   -0.5160   -0.8690 O   0  0  0  0  0  0  0  0  0  0  0  0
   -3.6590    0.8350    1.0490 C   0  0  0  0  0  0  0  0  0  0  0  0
   -4.6410    1.6380    0.2350 C   0  0  0  0  0  0  0  0  0  0  0  0
   -2.1000   -2.5560   -0.0620 C   0  0  1  0  0  0  0  0  0  0  0  0
   -1.4860   -3.6840    0.7460 C   0  0  0  0  0  0  0  0  0  0  0  0
   -3.4500   -2.9590   -0.5570 C   0  0  0  0  0  0  0  0  0  0  0  0
  1  2  2  0
  2  3  1  0
  3  4  1  0
  5  4  1  1
  5  6  1  0
  5 14  1  0
  6  7  1  0
  7  8  2  0
  7 13  1  0
  8  9  1  0
  8 10  1  0
 10 11  1  0
 11 12  1  0
 12 13  1  0
 15 14  1  6
 15 16  1  0
 15 20  1  0
 16 17  2  0
 16 18  1  0
 18 19  1  0
 20 21  1  1
 20 22  1  0
M  END
