
     RDKit          3D

 21 21  0  0  0  0  0  0  0  0999 V2000
    5.5760    3.5370   -2.2380 C   0  0  0  0  0  0  0  0  0  0  0  0
    5.2870    2.9850   -1.0840 C   0  0  0  0  0  0  0  0  0  0  0  0
    4.7420    1.5930   -0.9790 C   0  0  0  0  0  0  0  0  0  0  0  0
    3.3850    1.6320   -0.3080 C   0  0  0  0  0  0  0  0  0  0  0  0
    2.9030    0.1710   -0.2420 C   0  0  0  0  0  0  0  0  0  0  0  0
    1.6890    0.1000    0.3470 O   0  0  0  0  0  0  0  0  0  0  0  0
    1.0900   -1.1230    0.4950 C   0  0  2  0  0  0  0  0  0  0  0  0
   -0.2270   -0.8580    1.1780 C   0  0  0  0  0  0  0  0  0  0  0  0
   -1.1220    0.0850    0.4420 C   0  0  1  0  0  0  0  0  0  0  0  0
   -1.5700   -0.2920   -0.9220 C   0  0  0  0  0  0  0  0  0  0  0  0
   -2.2860    0.5320    1.3240 C   0  0  0  0  0  0  0  0  0  0  0  0
   -3.1220    1.4570    0.5320 C   0  0  0  0  0  0  0  0  0  0  0  0
   -4.3820    1.1720    0.2970 C   0  0  0  0  0  0  0  0  0  0  0  0
   -4.9600   -0.0860    0.8350 C   0  0  0  0  0  0  0  0  0  0  0  0
   -5.2510    2.0770   -0.4940 C   0  0  0  0  0  0  0  0  0  0  0  0
   -6.4310    2.5470    0.3270 C   0  0  0  0  0  0  0  0  0  0  0  0
    1.8710   -1.9840    1.5050 C   0  0  0  0  0  0  0  0  0  0  0  0
    1.3900   -3.4050    1.3450 C   0  0  0  0  0  0  0  0  0  0  0  0
    1.9050   -4.0370    0.0710 C   0  0  0  0  0  0  0  0  0  0  0  0
    2.0720   -2.9500   -0.9340 C   0  0  0  0  0  0  0  0  0  0  0  0
    0.9170   -1.9560   -0.7120 C   0  0  0  0  0  0  0  0  0  0  0  0
  1  2  2  0
  2  3  1  0
  3  4  1  0
  4  5  1  0
  5  6  1  0
  6  7  1  0
  7  8  1  1
  7 17  1  0
  7 21  1  0
  8  9  1  0
  9 10  1  6
  9 11  1  0
 11 12  1  0
 12 13  2  3
 13 14  1  0
 13 15  1  0
 15 16  1  0
 17 18  1  0
 18 19  1  0
 19 20  1  0
 20 21  1  0
M  END
