
     RDKit          3D

 22 22  0  0  0  0  0  0  0  0999 V2000
    6.0640    0.8860   -0.5530 C   0  0  0  0  0  0  0  0  0  0  0  0
    4.7640    0.5960   -0.2950 C   0  0  0  0  0  0  0  0  0  0  0  0
    4.3650    0.8570    0.9760 O   0  0  0  0  0  0  0  0  0  0  0  0
    4.7120    0.0650    2.0580 C   0  0  0  0  0  0  0  0  0  0  0  0
    6.1700   -0.0620    2.3310 C   0  0  0  0  0  0  0  0  0  0  0  0
    3.9380    0.0570   -1.3350 C   0  0  0  0  0  0  0  0  0  0  0  0
    4.7180   -0.1590   -2.6840 C   0  0  0  0  0  0  0  0  0  0  0  0
    2.7280   -0.2800   -1.4010 C   0  0  0  0  0  0  0  0  0  0  0  0
    1.5340   -0.3380   -0.6010 C   0  0  0  0  0  0  0  0  0  0  0  0
    1.4690    0.1750    0.7600 C   0  0  0  0  0  0  0  0  0  0  0  0
    0.4410   -0.8470   -1.2120 C   0  0  0  0  0  0  0  0  0  0  0  0
   -0.8970   -1.0090   -0.5880 C   0  0  0  0  0  0  0  0  0  0  0  0
   -1.9220   -0.1410   -1.2110 C   0  0  1  0  0  0  0  0  0  0  0  0
   -1.9310   -0.5780   -2.7140 C   0  0  0  0  0  0  0  0  0  0  0  0
   -2.9010    0.2290   -3.3250 O   0  0  0  0  0  0  0  0  0  0  0  0
   -3.3200   -0.1870   -0.8160 C   0  0  0  0  0  0  0  0  0  0  0  0
   -3.8510    0.1100    0.5110 C   0  0  2  0  0  0  0  0  0  0  0  0
   -3.4060   -0.7340    1.6470 C   0  0  0  0  0  0  0  0  0  0  0  0
   -4.0680   -0.3100    2.9630 C   0  0  0  0  0  0  0  0  0  0  0  0
   -5.3960    0.0670    0.4540 C   0  0  0  0  0  0  0  0  0  0  0  0
   -5.4880    1.5300    0.6800 C   0  0  0  0  0  0  0  0  0  0  0  0
   -3.9940    1.5920    0.8520 C   0  0  0  0  0  0  0  0  0  0  0  0
  1  2  2  0
  2  3  1  0
  2  6  1  0
  3  4  1  0
  4  5  1  0
  6  7  1  0
  6  8  2  3
  8  9  1  0
  9 10  1  0
  9 11  2  3
 11 12  1  0
 13 12  1  1
 13 14  1  0
 13 16  1  0
 14 15  1  0
 17 16  1  6
 17 18  1  0
 17 20  1  0
 17 22  1  0
 18 19  1  0
 20 21  1  0
 21 22  1  0
M  END
