
     RDKit          3D

 18 20  0  0  0  0  0  0  0  0999 V2000
   -3.2440   -2.4720    1.1480 C   0  0  0  0  0  0  0  0  0  0  0  0
   -2.7020   -2.1250   -0.2050 C   0  0  0  0  0  0  0  0  0  0  0  0
   -1.9470   -0.8860   -0.1680 N   0  0  0  0  0  0  0  0  0  0  0  0
   -2.4670    0.3330   -0.3710 C   0  0  0  0  0  0  0  0  0  0  0  0
   -3.7550    0.7850   -0.6540 C   0  0  0  0  0  0  0  0  0  0  0  0
   -3.9950    2.1320   -0.8150 C   0  0  0  0  0  0  0  0  0  0  0  0
   -2.9560    3.0270   -0.6940 C   0  0  0  0  0  0  0  0  0  0  0  0
   -1.6720    2.6190   -0.4150 C   0  0  0  0  0  0  0  0  0  0  0  0
   -1.4440    1.2480   -0.2550 C   0  0  0  0  0  0  0  0  0  0  0  0
   -0.2820    0.5540    0.0250 C   0  0  0  0  0  0  0  0  0  0  0  0
    1.0320    0.9850    0.2380 C   0  0  0  0  0  0  0  0  0  0  0  0
    1.9980    0.0570    0.5010 C   0  0  0  0  0  0  0  0  0  0  0  0
    3.3940    0.4630    0.7310 C   0  0  0  0  0  0  0  0  0  0  0  0
    4.1300    0.4860   -0.5420 N   0  0  0  0  0  0  0  0  0  0  0  0
    5.4740   -0.0150   -0.3500 C   0  0  0  0  0  0  0  0  0  0  0  0
    1.6690   -1.2700    0.5520 C   0  0  0  0  0  0  0  0  0  0  0  0
    0.3510   -1.6970    0.3380 C   0  0  0  0  0  0  0  0  0  0  0  0
   -0.6320   -0.7710    0.0720 C   0  0  0  0  0  0  0  0  0  0  0  0
  1  2  1  0
  2  3  1  0
  3  4  1  0
  3 18  1  0
  4  5  2  0
  4  9  1  0
  5  6  1  0
  6  7  2  0
  7  8  1  0
  8  9  2  0
  9 10  1  0
 10 11  2  0
 10 18  1  0
 11 12  1  0
 12 13  1  0
 12 16  2  0
 13 14  1  0
 14 15  1  0
 16 17  1  0
 17 18  2  0
M  CHG  1  14   1
M  END
