
     RDKit          3D

 22 21  0  0  0  0  0  0  0  0999 V2000
    3.7570   -0.2120   -2.3330 C   0  0  0  0  0  0  0  0  0  0  0  0
    2.2800    0.1380   -1.8830 C   0  0  0  0  0  0  0  0  0  0  0  0
    2.3380    0.1230   -0.4330 C   0  0  0  0  0  0  0  0  0  0  0  0
    1.6240   -0.3380    0.5520 C   0  0  0  0  0  0  0  0  0  0  0  0
    0.3650   -1.0560    0.3750 C   0  0  0  0  0  0  0  0  0  0  0  0
   -0.3960   -0.7770   -0.9330 C   0  0  0  0  0  0  0  0  0  0  0  0
   -1.6990   -0.0590   -0.5450 C   0  0  0  0  0  0  0  0  0  0  0  0
   -2.5420    0.2050   -1.7700 C   0  0  1  0  0  0  0  0  0  0  0  0
   -1.7940    1.0840   -2.7680 C   0  0  0  0  0  0  0  0  0  0  0  0
   -2.9390   -1.0440   -2.5050 C   0  0  0  0  0  0  0  0  0  0  0  0
   -3.7760    0.9410   -1.3470 C   0  0  2  0  0  0  0  0  0  0  0  0
   -3.4960    2.2600   -0.6880 C   0  0  0  0  0  0  0  0  0  0  0  0
   -4.6690    0.1350   -0.4510 C   0  0  0  0  0  0  0  0  0  0  0  0
   -4.5090    1.2180   -2.5170 O   0  0  0  0  0  0  0  0  0  0  0  0
   -0.3900   -1.6660    1.2260 C   0  0  0  0  0  0  0  0  0  0  0  0
   -0.1850   -1.7900    2.6820 C   0  0  0  0  0  0  0  0  0  0  0  0
   -1.5420   -2.5600    0.6970 C   0  0  0  0  0  0  0  0  0  0  0  0
    2.1790   -0.0930    1.9300 C   0  0  1  0  0  0  0  0  0  0  0  0
    2.5470   -1.3120    2.5500 O   0  0  0  0  0  0  0  0  0  0  0  0
    3.4710    0.7270    1.8420 C   0  0  0  0  0  0  0  0  0  0  0  0
    3.9080    0.9180    3.3320 C   0  0  0  0  0  0  0  0  0  0  0  0
    5.1700    1.7120    3.3750 C   0  0  0  0  0  0  0  0  0  0  0  0
  1  2  1  0
  2  3  1  0
  3  4  2  3
  4  5  1  0
  4 18  1  0
  5  6  1  0
  5 15  2  3
  6  7  1  0
  7  8  1  0
  8  9  1  6
  8 10  1  0
  8 11  1  0
 11 12  1  1
 11 13  1  0
 11 14  1  0
 15 16  1  0
 15 17  1  0
 18 19  1  6
 18 20  1  0
 20 21  1  0
 21 22  1  0
M  END
