
     RDKit          3D

 34 37  0  0  0  0  0  0  0  0999 V2000
    5.9660    0.3320   -1.7040 C   0  0  0  0  0  0  0  0  0  0  0  0
    4.6050    0.8310   -1.2230 C   0  0  2  0  0  0  0  0  0  0  0  0
    4.7250    1.9960   -0.3640 C   0  0  0  0  0  0  0  0  0  0  0  0
    4.1100    2.1220    0.7870 C   0  0  0  0  0  0  0  0  0  0  0  0
    4.3350    3.3870    1.5540 C   0  0  1  0  0  0  0  0  0  0  0  0
    5.1360    4.2580    0.8690 F   0  0  0  0  0  0  0  0  0  0  0  0
    3.1280    3.9920    1.8650 F   0  0  0  0  0  0  0  0  0  0  0  0
    3.2670    1.0540    1.2780 C   0  0  0  0  0  0  0  0  0  0  0  0
    2.6760    1.1580    2.3660 O   0  0  0  0  0  0  0  0  0  0  0  0
    3.1100   -0.1630    0.4760 C   0  0  0  0  0  0  0  0  0  0  0  0
    2.3230   -1.2170    0.9080 C   0  0  0  0  0  0  0  0  0  0  0  0
    2.1460   -2.3880    0.2070 C   0  0  0  0  0  0  0  0  0  0  0  0
    1.3980   -3.4930    0.6640 N   0  0  0  0  0  0  0  0  0  0  0  0
    0.1300   -3.8910    0.3800 C   0  0  0  0  0  0  0  0  0  0  0  0
   -0.2970   -5.3860    1.0960 S   0  0  0  0  0  0  0  0  0  0  0  0
   -0.8920   -3.3770   -0.4150 N   0  0  0  0  0  0  0  0  0  0  0  0
   -0.9710   -2.1900   -1.1630 C   0  0  0  0  0  0  0  0  0  0  0  0
   -0.0200   -1.4030   -1.1630 O   0  0  0  0  0  0  0  0  0  0  0  0
   -2.2220   -1.8770   -1.9660 C   0  0  0  0  0  0  0  0  0  0  0  0
   -3.2290   -1.2440   -1.1540 N   0  0  0  0  0  0  0  0  0  0  0  0
   -4.1860   -1.8830   -0.4620 C   0  0  0  0  0  0  0  0  0  0  0  0
   -4.4350   -3.1080   -0.3470 O   0  0  0  0  0  0  0  0  0  0  0  0
   -4.9390   -0.9440    0.1730 N   0  0  0  0  0  0  0  0  0  0  0  0
   -4.4620    0.2600   -0.1190 N   0  0  0  0  0  0  0  0  0  0  0  0
   -4.9760    1.5560    0.3530 C   0  0  2  0  0  0  0  0  0  0  0  0
   -3.8170    2.3320    0.8730 C   0  0  0  0  0  0  0  0  0  0  0  0
   -4.2910    3.4970    1.6730 C   0  0  0  0  0  0  0  0  0  0  0  0
   -5.8180    2.8250    2.4380 S   0  0  0  0  0  0  0  0  0  0  0  0
   -5.9180    1.2530    1.4930 C   0  0  0  0  0  0  0  0  0  0  0  0
   -3.4050    0.0690   -0.9390 C   0  0  0  0  0  0  0  0  0  0  0  0
   -2.6740    0.9620   -1.4430 O   0  0  0  0  0  0  0  0  0  0  0  0
    2.8350   -2.4510   -1.0110 C   0  0  0  0  0  0  0  0  0  0  0  0
    3.6150   -1.4330   -1.4610 C   0  0  0  0  0  0  0  0  0  0  0  0
    3.7720   -0.2450   -0.7130 C   0  0  0  0  0  0  0  0  0  0  0  0
  2  1  1  1
  2  3  1  0
  2 34  1  0
  3  4  2  0
  4  5  1  0
  4  8  1  0
  5  6  1  6
  5  7  1  0
  8  9  2  0
  8 10  1  0
 10 11  2  0
 10 34  1  0
 11 12  1  0
 12 13  1  0
 12 32  2  0
 13 14  1  0
 14 15  2  0
 14 16  1  0
 16 17  1  0
 17 18  2  0
 17 19  1  0
 19 20  1  0
 20 21  1  0
 20 30  1  0
 21 22  2  0
 21 23  1  0
 23 24  1  0
 25 24  1  1
 24 30  1  0
 25 26  1  0
 25 29  1  0
 26 27  1  0
 27 28  1  0
 28 29  1  0
 30 31  2  0
 32 33  1  0
 33 34  2  0
M  END
