
     RDKit          3D

 35 36  0  0  0  0  0  0  0  0999 V2000
   -6.7500    3.3410   -0.5210 C   0  0  0  0  0  0  0  0  0  0  0  0
   -6.0480    2.7300    0.3980 C   0  0  0  0  0  0  0  0  0  0  0  0
   -6.4150    2.9140    1.7780 N   0  0  0  0  0  0  0  0  0  0  0  0
   -6.4430    1.9710    2.8640 C   0  0  0  0  0  0  0  0  0  0  0  0
   -5.4690    0.8540    2.8040 C   0  0  0  0  0  0  0  0  0  0  0  0
   -5.5150   -0.0060    1.5720 C   0  0  0  0  0  0  0  0  0  0  0  0
   -4.5540    0.6220    0.5790 N   0  0  0  0  0  0  0  0  0  0  0  0
   -3.3660   -0.0660    0.3910 C   0  0  0  0  0  0  0  0  0  0  0  0
   -3.3640   -1.1550    1.1360 O   0  0  0  0  0  0  0  0  0  0  0  0
   -2.1500    0.0600   -0.3620 C   0  0  0  0  0  0  0  0  0  0  0  0
   -1.1140   -1.0650   -0.0550 C   0  0  1  0  0  0  0  0  0  0  0  0
   -0.7840   -1.1020    1.3190 N   0  0  0  0  0  0  0  0  0  0  0  0
   -1.6610   -2.3860   -0.4940 C   0  0  0  0  0  0  0  0  0  0  0  0
   -0.6240   -3.5000   -0.1890 C   0  0  0  0  0  0  0  0  0  0  0  0
   -1.1830   -4.8400   -0.6410 C   0  0  0  0  0  0  0  0  0  0  0  0
   -0.2260   -5.8660   -0.3540 N   0  0  0  0  0  0  0  0  0  0  0  0
    0.0360   -0.7510   -0.9720 C   0  0  0  0  0  0  0  0  0  0  0  0
   -0.3480   -0.8170   -2.1970 O   0  0  0  0  0  0  0  0  0  0  0  0
    1.3580   -0.4220   -0.6820 N   0  0  0  0  0  0  0  0  0  0  0  0
    2.1120   -0.2930    0.5140 C   0  0  0  0  0  0  0  0  0  0  0  0
    3.5520    0.2000    0.0800 C   0  0  2  0  0  0  0  0  0  0  0  0
    3.5060    1.5660   -0.0080 O   0  0  0  0  0  0  0  0  0  0  0  0
    4.2420    2.2570    0.9260 C   0  0  0  0  0  0  0  0  0  0  0  0
    5.7090    2.1060    0.9330 C   0  0  0  0  0  0  0  0  0  0  0  0
    6.4100    2.5910   -0.2900 C   0  0  0  0  0  0  0  0  0  0  0  0
    6.1730    4.0100   -0.5120 N   0  0  0  0  0  0  0  0  0  0  0  0
    3.6100   -0.5310   -1.2240 C   0  0  1  0  0  0  0  0  0  0  0  0
    4.7560   -0.1990   -2.1170 C   0  0  0  0  0  0  0  0  0  0  0  0
    3.4670   -2.0340   -1.0320 C   0  0  0  0  0  0  0  0  0  0  0  0
    4.5440   -2.6000   -0.1710 C   0  0  0  0  0  0  0  0  0  0  0  0
    4.3450   -3.9780   -0.0440 O   0  0  0  0  0  0  0  0  0  0  0  0
    2.2850   -0.0650   -1.7840 C   0  0  0  0  0  0  0  0  0  0  0  0
   -4.9140    1.8590   -0.0140 C   0  0  0  0  0  0  0  0  0  0  0  0
   -4.1330    2.3200   -0.9430 C   0  0  0  0  0  0  0  0  0  0  0  0
   -4.2220    3.6290   -1.6400 C   0  0  0  0  0  0  0  0  0  0  0  0
  1  2  2  0
  2  3  1  0
  2 33  1  0
  3  4  1  0
  4  5  1  0
  5  6  1  0
  6  7  1  0
  7  8  1  0
  7 33  1  0
  8  9  2  0
  8 10  1  0
 10 11  1  0
 11 12  1  1
 11 13  1  0
 11 17  1  0
 13 14  1  0
 14 15  1  0
 15 16  1  0
 17 18  2  0
 17 19  1  0
 19 20  1  0
 19 32  1  0
 20 21  1  0
 21 22  1  6
 21 27  1  0
 22 23  1  0
 23 24  1  0
 24 25  1  0
 25 26  1  0
 27 28  1  6
 27 29  1  0
 27 32  1  0
 29 30  1  0
 30 31  1  0
 33 34  2  3
 34 35  1  0
M  CHG  3  12   1  16   1  26   1
M  END
