
     RDKit          3D

 34 37  0  0  0  0  0  0  0  0999 V2000
    8.0340    1.0740   -2.6040 N   0  0  0  0  0  0  0  0  0  0  0  0
    7.0820    0.4970   -2.2570 C   0  0  0  0  0  0  0  0  0  0  0  0
    5.9110   -0.2330   -1.8110 C   0  0  0  0  0  0  0  0  0  0  0  0
    5.6190   -1.3790   -2.4150 C   0  0  0  0  0  0  0  0  0  0  0  0
    6.4440   -1.8570   -3.4650 N   0  0  0  0  0  0  0  0  0  0  0  0
    4.4450   -2.0910   -1.9900 N   0  0  0  0  0  0  0  0  0  0  0  0
    3.6240   -1.5620   -0.9420 C   0  0  0  0  0  0  0  0  0  0  0  0
    2.4860   -2.1580   -0.5900 C   0  0  0  0  0  0  0  0  0  0  0  0
    2.1560   -3.2960   -1.2590 F   0  0  0  0  0  0  0  0  0  0  0  0
    1.5160   -1.5600    0.3480 C   0  0  1  0  0  0  0  0  0  0  0  0
    0.6420   -2.5660    1.0210 C   0  0  0  0  0  0  0  0  0  0  0  0
   -0.2440   -3.4590   -0.2820 S   0  0  0  0  0  0  0  0  0  0  0  0
   -1.2930   -2.3330   -1.2130 C   0  0  0  0  0  0  0  0  0  0  0  0
   -2.4540   -1.8130   -0.4780 C   0  0  0  0  0  0  0  0  0  0  0  0
   -3.4830   -2.6160   -0.5130 O   0  0  0  0  0  0  0  0  0  0  0  0
   -2.6330   -0.6250    0.2350 N   0  0  0  0  0  0  0  0  0  0  0  0
   -3.9970   -0.4520    0.8200 C   0  0  0  0  0  0  0  0  0  0  0  0
   -3.9100   -0.3330    2.3350 C   0  0  0  0  0  0  0  0  0  0  0  0
   -2.9120    0.7910    2.6700 C   0  0  2  0  0  0  0  0  0  0  0  0
   -3.4000    1.5400    3.6460 F   0  0  0  0  0  0  0  0  0  0  0  0
   -2.5360    1.4190    1.3780 C   0  0  0  0  0  0  0  0  0  0  0  0
   -2.8780    2.5980    0.9900 C   0  0  0  0  0  0  0  0  0  0  0  0
   -3.7220    3.5290    1.7930 C   0  0  0  0  0  0  0  0  0  0  0  0
   -5.2050    3.9120    0.7870 S   0  0  0  0  0  0  0  0  0  0  0  0
   -4.6670    4.3250   -0.5890 O   0  0  0  0  0  0  0  0  0  0  0  0
   -2.4560    3.1060   -0.2840 O   0  0  0  0  0  0  0  0  0  0  0  0
   -2.1560    2.1270   -1.2740 C   0  0  0  0  0  0  0  0  0  0  0  0
   -1.1350    1.2080   -0.5940 C   0  0  0  0  0  0  0  0  0  0  0  0
   -1.7170    0.4360    0.5030 C   0  0  2  0  0  0  0  0  0  0  0  0
    2.0640   -0.5000    1.2000 C   0  0  0  0  0  0  0  0  0  0  0  0
    1.5390   -0.2100    2.3350 O   0  0  0  0  0  0  0  0  0  0  0  0
    3.2030    0.2250    0.7640 N   0  0  0  0  0  0  0  0  0  0  0  0
    3.9870   -0.3100   -0.3030 C   0  0  0  0  0  0  0  0  0  0  0  0
    5.0780    0.3000   -0.7330 C   0  0  0  0  0  0  0  0  0  0  0  0
  1  2  3  0
  2  3  1  0
  3  4  2  0
  3 34  1  0
  4  5  1  0
  4  6  1  0
  6  7  1  0
  7  8  2  0
  7 33  1  0
  8  9  1  0
  8 10  1  0
 10 11  1  1
 10 30  1  0
 11 12  1  0
 12 13  1  0
 13 14  1  0
 14 15  2  0
 14 16  1  0
 16 17  1  0
 16 29  1  0
 17 18  1  0
 18 19  1  0
 19 20  1  1
 19 21  1  0
 21 22  2  0
 21 29  1  0
 22 23  1  0
 22 26  1  0
 23 24  1  0
 24 25  2  0
 26 27  1  0
 27 28  1  0
 29 28  1  6
 30 31  2  0
 30 32  1  0
 32 33  1  0
 33 34  2  0
M  END
