
     RDKit          3D

 34 35  0  0  0  0  0  0  0  0999 V2000
   -2.5950   -2.4000   -2.3720 C   0  0  0  0  0  0  0  0  0  0  0  0
   -2.8280   -1.0370   -2.8220 C   0  0  0  0  0  0  0  0  0  0  0  0
   -3.6490   -0.0260   -2.1910 C   0  0  0  0  0  0  0  0  0  0  0  0
   -3.3090    0.3070   -0.6660 C   0  0  2  0  0  0  0  0  0  0  0  0
   -1.9360    0.7100   -0.7020 C   0  0  0  0  0  0  0  0  0  0  0  0
   -1.3800    0.9280   -1.8530 O   0  0  0  0  0  0  0  0  0  0  0  0
   -0.9960    0.9180    0.3260 N   0  0  0  0  0  0  0  0  0  0  0  0
    0.3450    1.3670    0.0920 C   0  0  0  0  0  0  0  0  0  0  0  0
    0.5560    2.4640   -0.7820 C   0  0  0  0  0  0  0  0  0  0  0  0
    1.8290    3.0030   -0.9510 C   0  0  0  0  0  0  0  0  0  0  0  0
    2.0840    4.1730   -1.8290 C   0  0  2  0  0  0  0  0  0  0  0  0
    3.4290    4.8380   -1.5480 C   0  0  0  0  0  0  0  0  0  0  0  0
    1.0710    5.2020   -1.6610 N   0  0  0  0  0  0  0  0  0  0  0  0
    2.8690    2.4520   -0.2630 C   0  0  0  0  0  0  0  0  0  0  0  0
    2.6790    1.3660    0.6020 C   0  0  0  0  0  0  0  0  0  0  0  0
    1.4060    0.8530    0.7510 C   0  0  0  0  0  0  0  0  0  0  0  0
    1.1530   -0.2730    1.6000 O   0  0  0  0  0  0  0  0  0  0  0  0
    2.3640   -0.8810    2.0070 C   0  0  0  0  0  0  0  0  0  0  0  0
    2.9630   -0.6760    3.1980 C   0  0  0  0  0  0  0  0  0  0  0  0
    4.1700   -1.3080    3.5310 C   0  0  0  0  0  0  0  0  0  0  0  0
    4.7730   -2.1650    2.6190 C   0  0  0  0  0  0  0  0  0  0  0  0
    6.0020   -2.7940    2.9610 N   0  0  0  0  0  0  0  0  0  0  0  0
    4.1720   -2.3820    1.4020 C   0  0  0  0  0  0  0  0  0  0  0  0
    4.8250   -3.2620    0.3930 C   0  0  0  0  0  0  0  0  0  0  0  0
    5.9060   -2.4710   -0.2480 C   0  0  0  0  0  0  0  0  0  0  0  0
    5.9440   -1.0480   -0.0750 N   0  0  0  0  0  0  0  0  0  0  0  0
    6.8010   -2.9980   -0.9450 O   0  0  0  0  0  0  0  0  0  0  0  0
    2.9850   -1.7510    1.1010 C   0  0  0  0  0  0  0  0  0  0  0  0
   -3.8090   -0.8580   -0.0540 N   0  0  1  0  0  0  0  0  0  0  0  0
   -3.2080   -1.2510    1.1960 C   0  0  0  0  0  0  0  0  0  0  0  0
   -5.2120   -0.4950    0.3360 C   0  0  0  0  0  0  0  0  0  0  0  0
   -6.1290   -1.6630    0.3670 C   0  0  0  0  0  0  0  0  0  0  0  0
   -7.5430   -1.2260    0.7080 C   0  0  0  0  0  0  0  0  0  0  0  0
   -7.5610   -0.6180    1.9340 O   0  0  0  0  0  0  0  0  0  0  0  0
  1  2  1  0
  2  3  1  0
  4  3  1  6
  4  5  1  0
  4 29  1  0
  5  6  2  0
  5  7  1  0
  7  8  1  0
  8  9  2  0
  8 16  1  0
  9 10  1  0
 10 11  1  0
 10 14  2  0
 11 12  1  1
 11 13  1  0
 14 15  1  0
 15 16  2  0
 16 17  1  0
 17 18  1  0
 18 19  2  0
 18 28  1  0
 19 20  1  0
 20 21  2  0
 21 22  1  0
 21 23  1  0
 23 24  1  0
 23 28  2  0
 24 25  1  0
 25 26  1  0
 25 27  2  0
 29 30  1  1
 29 31  1  0
 31 32  1  0
 32 33  1  0
 33 34  1  0
M  CHG  2  13   1  29   1
M  END
