
     RDKit          3D

 34 37  0  0  0  0  0  0  0  0999 V2000
    4.7010    2.1530   -2.9430 C   0  0  0  0  0  0  0  0  0  0  0  0
    5.2230    0.9660   -2.2000 C   0  0  0  0  0  0  0  0  0  0  0  0
    4.8330    0.7160   -0.9750 C   0  0  0  0  0  0  0  0  0  0  0  0
    3.9050    1.5900   -0.3620 N   0  0  0  0  0  0  0  0  0  0  0  0
    2.8070    1.0280    0.0800 C   0  0  0  0  0  0  0  0  0  0  0  0
    1.8310    1.6880    0.6780 N   0  0  0  0  0  0  0  0  0  0  0  0
    0.6990    1.2040    1.1520 C   0  0  0  0  0  0  0  0  0  0  0  0
    0.2310   -0.0860    1.1570 C   0  0  0  0  0  0  0  0  0  0  0  0
    0.9950   -1.1210    0.5980 C   0  0  0  0  0  0  0  0  0  0  0  0
    2.4900   -0.6370   -0.0560 S   0  0  0  0  0  0  0  0  0  0  0  0
    0.5640   -2.5110    0.5700 C   0  0  0  0  0  0  0  0  0  0  0  0
    1.2830   -3.4560    0.0480 C   0  0  0  0  0  0  0  0  0  0  0  0
    2.5910   -3.3440   -0.5810 C   0  0  2  0  0  0  0  0  0  0  0  0
    2.9400   -4.6090   -1.1050 F   0  0  0  0  0  0  0  0  0  0  0  0
    3.5520   -3.0870    0.3910 F   0  0  0  0  0  0  0  0  0  0  0  0
   -0.7290   -2.7930    1.1620 N   0  0  0  0  0  0  0  0  0  0  0  0
   -1.4800   -1.7490    1.7160 C   0  0  0  0  0  0  0  0  0  0  0  0
   -2.5890   -2.0250    2.2190 O   0  0  0  0  0  0  0  0  0  0  0  0
   -1.0580   -0.3950    1.7420 N   0  0  0  0  0  0  0  0  0  0  0  0
   -1.8530    0.5950    2.3100 C   0  0  0  0  0  0  0  0  0  0  0  0
   -2.8480    1.3540    1.5110 C   0  0  2  0  0  0  0  0  0  0  0  0
   -3.2960    2.5170    2.4530 C   0  0  0  0  0  0  0  0  0  0  0  0
   -4.1470    0.6210    1.2670 C   0  0  0  0  0  0  0  0  0  0  0  0
   -4.1850   -0.0200   -0.1060 C   0  0  1  0  0  0  0  0  0  0  0  0
   -5.5460   -0.5410   -0.3670 C   0  0  0  0  0  0  0  0  0  0  0  0
   -5.8960   -1.2020   -1.5640 N   0  0  0  0  0  0  0  0  0  0  0  0
   -6.4280   -0.3880    0.5120 O   0  0  0  0  0  0  0  0  0  0  0  0
   -3.8650    1.0060   -1.1730 C   0  0  0  0  0  0  0  0  0  0  0  0
   -3.3100    2.2750   -0.5470 C   0  0  0  0  0  0  0  0  0  0  0  0
   -2.3740    2.0460    0.4260 O   0  0  0  0  0  0  0  0  0  0  0  0
    5.3330   -0.4240   -0.2400 C   0  0  0  0  0  0  0  0  0  0  0  0
    6.2040   -1.2410   -0.8100 C   0  0  0  0  0  0  0  0  0  0  0  0
    6.6140   -0.9840   -2.0870 O   0  0  0  0  0  0  0  0  0  0  0  0
    6.1750    0.0890   -2.8830 C   0  0  0  0  0  0  0  0  0  0  0  0
  1  2  1  0
  2  3  2  0
  2 34  1  0
  3  4  1  0
  3 31  1  0
  4  5  2  3
  5  6  1  0
  5 10  1  0
  6  7  2  0
  7  8  1  0
  8  9  2  0
  8 19  1  0
  9 10  1  0
  9 11  1  0
 11 12  2  3
 11 16  1  0
 12 13  1  0
 13 14  1  1
 13 15  1  0
 16 17  1  0
 17 18  2  0
 17 19  1  0
 19 20  1  0
 20 21  1  0
 21 22  1  1
 21 23  1  0
 21 30  1  0
 23 24  1  0
 24 25  1  6
 24 28  1  0
 25 26  1  0
 25 27  2  0
 28 29  1  0
 29 30  1  0
 31 32  2  0
 32 33  1  0
 33 34  1  0
M  END
