
     RDKit          3D

 34 36  0  0  0  0  0  0  0  0999 V2000
    0.3720    4.7980    0.8990 C   0  0  0  0  0  0  0  0  0  0  0  0
   -0.9400    4.7960    0.8630 C   0  0  0  0  0  0  0  0  0  0  0  0
   -1.4650    6.0220    0.5030 F   0  0  0  0  0  0  0  0  0  0  0  0
   -1.7960    3.5910    0.9130 C   0  0  0  0  0  0  0  0  0  0  0  0
   -3.0850    3.6430    0.9840 C   0  0  0  0  0  0  0  0  0  0  0  0
   -4.4710    3.7610    1.0600 C   0  0  0  0  0  0  0  0  0  0  0  0
   -5.0000    3.2540    2.2730 F   0  0  0  0  0  0  0  0  0  0  0  0
   -1.2960    2.2340    0.6230 C   0  0  2  0  0  0  0  0  0  0  0  0
   -1.8810    1.1880    1.5150 C   0  0  0  0  0  0  0  0  0  0  0  0
   -1.5550   -0.1620    1.2970 N   0  0  0  0  0  0  0  0  0  0  0  0
   -2.3260   -0.9910    0.4770 C   0  0  1  0  0  0  0  0  0  0  0  0
   -1.5050   -1.8940   -0.4190 C   0  0  0  0  0  0  0  0  0  0  0  0
   -3.3030   -1.8680    1.2210 C   0  0  0  0  0  0  0  0  0  0  0  0
   -4.0300   -2.7030    0.2430 C   0  0  0  0  0  0  0  0  0  0  0  0
   -4.8110   -1.9360   -0.7800 C   0  0  0  0  0  0  0  0  0  0  0  0
   -0.3360   -0.7040    1.7550 C   0  0  0  0  0  0  0  0  0  0  0  0
    0.8210   -0.1960    0.9370 C   0  0  0  0  0  0  0  0  0  0  0  0
    1.6460   -1.1030    0.5030 C   0  0  0  0  0  0  0  0  0  0  0  0
    2.8230   -0.7710   -0.3170 C   0  0  0  0  0  0  0  0  0  0  0  0
    3.6040   -1.7270   -0.7290 C   0  0  0  0  0  0  0  0  0  0  0  0
    3.4460   -3.1120   -0.4650 N   0  0  0  0  0  0  0  0  0  0  0  0
    4.5380   -3.7460   -1.1680 C   0  0  0  0  0  0  0  0  0  0  0  0
    4.6820   -5.0160   -1.1410 O   0  0  0  0  0  0  0  0  0  0  0  0
    5.3040   -2.7210   -1.8120 C   0  0  0  0  0  0  0  0  0  0  0  0
    4.7530   -1.5180   -1.5520 C   0  0  0  0  0  0  0  0  0  0  0  0
    5.5700   -0.0250   -2.0980 S   0  0  1  0  0  0  0  0  0  0  0  0
    4.6020    1.0300   -2.4930 O   0  0  0  0  0  0  0  0  0  0  0  0
    6.3180    0.5150   -0.8580 O   0  0  0  0  0  0  0  0  0  0  0  0
    6.6130   -0.4810   -3.3440 N   0  0  0  0  0  0  0  0  0  0  0  0
    6.9780   -1.8680   -3.3830 N   0  0  0  0  0  0  0  0  0  0  0  0
    6.4340   -2.7510   -2.7620 C   0  0  0  0  0  0  0  0  0  0  0  0
    1.0730    1.2140    0.6200 C   0  0  0  0  0  0  0  0  0  0  0  0
    2.2160    1.6570    0.7200 O   0  0  0  0  0  0  0  0  0  0  0  0
    0.0210    2.1170    0.1780 N   0  0  0  0  0  0  0  0  0  0  0  0
  1  2  2  0
  2  3  1  0
  2  4  1  0
  4  5  2  3
  8  4  1  1
  5  6  1  0
  6  7  1  0
  8  9  1  0
  8 34  1  0
  9 10  1  0
 10 11  1  0
 10 16  1  0
 11 12  1  1
 11 13  1  0
 13 14  1  0
 14 15  1  0
 16 17  1  0
 17 18  2  3
 17 32  1  0
 18 19  1  0
 19 20  2  3
 20 21  1  0
 20 25  1  0
 21 22  1  0
 22 23  2  0
 22 24  1  0
 24 25  2  0
 24 31  1  0
 25 26  1  0
 26 27  2  0
 26 28  2  0
 26 29  1  6
 29 30  1  0
 30 31  2  0
 32 33  2  0
 32 34  1  0
M  END
