
     RDKit          3D

 16 17  0  0  0  0  0  0  0  0999 V2000
   -2.7300    1.5260    1.7770 N   0  0  0  0  0  0  0  0  0  0  0  0
   -2.6680    0.4760    0.7840 C   0  0  2  0  0  0  0  0  0  0  0  0
   -3.5430   -0.5490    1.0160 O   0  0  0  0  0  0  0  0  0  0  0  0
   -3.0490   -1.7100    0.4970 C   0  0  0  0  0  0  0  0  0  0  0  0
   -1.6480   -1.4440   -0.0100 C   0  0  1  0  0  0  0  0  0  0  0  0
   -1.7910   -0.9700   -1.7540 S   0  0  0  0  0  0  0  0  0  0  0  0
   -1.3060   -0.1960    0.8150 C   0  0  1  0  0  0  0  0  0  0  0  0
   -0.2680    0.6170    0.1860 C   0  0  0  0  0  0  0  0  0  0  0  0
   -0.5270    1.7420   -0.3130 O   0  0  0  0  0  0  0  0  0  0  0  0
    1.0510    0.1450    0.1280 N   0  0  0  0  0  0  0  0  0  0  0  0
    2.1480    0.9050   -0.4890 C   0  0  2  0  0  0  0  0  0  0  0  0
    2.8450    0.0510   -1.5250 C   0  0  0  0  0  0  0  0  0  0  0  0
    4.1840   -0.3330   -0.9350 C   0  0  0  0  0  0  0  0  0  0  0  0
    4.3590    0.4580    0.2260 O   0  0  0  0  0  0  0  0  0  0  0  0
    3.1960    1.1460    0.5220 C   0  0  0  0  0  0  0  0  0  0  0  0
    3.0500    1.8860    1.5270 O   0  0  0  0  0  0  0  0  0  0  0  0
  2  1  1  1
  2  3  1  0
  2  7  1  0
  3  4  1  0
  4  5  1  0
  5  6  1  6
  5  7  1  0
  7  8  1  6
  8  9  2  0
  8 10  1  0
 11 10  1  1
 11 12  1  0
 11 15  1  0
 12 13  1  0
 13 14  1  0
 14 15  1  0
 15 16  2  0
M  END
