
     RDKit          3D

 16 17  0  0  0  0  0  0  0  0999 V2000
    2.4150   -0.3200    1.2020 C   0  0  0  0  0  0  0  0  0  0  0  0
    2.0580    0.0560   -0.2050 C   0  0  2  0  0  0  0  0  0  0  0  0
    0.7190   -0.4470   -0.5870 C   0  0  0  0  0  0  0  0  0  0  0  0
    0.6370   -1.2370   -1.5560 O   0  0  0  0  0  0  0  0  0  0  0  0
   -0.4410   -0.0990    0.0580 O   0  0  0  0  0  0  0  0  0  0  0  0
   -1.7280   -0.5620   -0.2850 C   0  0  1  0  0  0  0  0  0  0  0  0
   -2.3820   -1.1310    0.9240 C   0  0  0  0  0  0  0  0  0  0  0  0
   -2.3990   -2.3290    1.2680 O   0  0  0  0  0  0  0  0  0  0  0  0
   -2.9920   -0.0560    1.6270 N   0  0  0  0  0  0  0  0  0  0  0  0
   -2.8550    1.1350    0.8360 C   0  0  0  0  0  0  0  0  0  0  0  0
   -2.9130    2.3320    1.2480 O   0  0  0  0  0  0  0  0  0  0  0  0
   -2.6330    0.6480   -0.5500 C   0  0  2  0  0  0  0  0  0  0  0  0
   -3.9020    0.1630   -1.0440 N   0  0  0  0  0  0  0  0  0  0  0  0
    3.1180   -0.2250   -1.2490 C   0  0  0  0  0  0  0  0  0  0  0  0
    3.8460    1.0550   -0.9040 C   0  0  0  0  0  0  0  0  0  0  0  0
    2.2400    1.8420   -0.5250 S   0  0  0  0  0  0  0  0  0  0  0  0
  2  1  1  1
  2  3  1  0
  2 14  1  0
  2 16  1  0
  3  4  2  0
  3  5  1  0
  6  5  1  1
  6  7  1  0
  6 12  1  0
  7  8  2  0
  7  9  1  0
  9 10  1  0
 10 11  2  0
 10 12  1  0
 12 13  1  1
 14 15  1  0
 15 16  1  0
M  END
