
     RDKit          3D

 16 17  0  0  0  0  0  0  0  0999 V2000
    5.1010    0.8500   -0.0400 O   0  0  0  0  0  0  0  0  0  0  0  0
    3.8010    1.2710    0.2630 C   0  0  0  0  0  0  0  0  0  0  0  0
    2.8570    0.2350   -0.2750 C   0  0  0  0  0  0  0  0  0  0  0  0
    1.4360    0.6080    0.0080 C   0  0  0  0  0  0  0  0  0  0  0  0
    1.0290    1.6750    0.6310 N   0  0  0  0  0  0  0  0  0  0  0  0
   -0.3430    1.6950    0.7120 O   0  0  0  0  0  0  0  0  0  0  0  0
   -0.8070    0.7810   -0.2370 C   0  0  1  0  0  0  0  0  0  0  0  0
    0.2840   -0.1450   -0.3600 N   0  0  0  0  0  0  0  0  0  0  0  0
    0.3600   -1.5390   -0.7510 C   0  0  0  0  0  0  0  0  0  0  0  0
   -0.0130   -2.4720    0.3840 C   0  0  0  0  0  0  0  0  0  0  0  0
   -0.6540   -1.4790    1.7370 S   0  0  0  0  0  0  0  0  0  0  0  0
   -2.1920   -0.6870    1.2690 C   0  0  0  0  0  0  0  0  0  0  0  0
   -2.1230    0.1720    0.0730 C   0  0  2  0  0  0  0  0  0  0  0  0
   -2.5320   -0.5560   -1.0690 O   0  0  0  0  0  0  0  0  0  0  0  0
   -3.1300    1.2960    0.2240 C   0  0  0  0  0  0  0  0  0  0  0  0
   -3.1480    2.1220   -0.8970 O   0  0  0  0  0  0  0  0  0  0  0  0
  1  2  1  0
  2  3  1  0
  3  4  1  0
  4  5  2  0
  4  8  1  0
  5  6  1  0
  7  6  1  1
  7  8  1  0
  7 13  1  0
  8  9  1  0
  9 10  1  0
 10 11  1  0
 11 12  1  0
 12 13  1  0
 13 14  1  6
 13 15  1  0
 15 16  1  0
M  END
