
     RDKit          3D

 16 17  0  0  0  0  0  0  0  0999 V2000
   -1.1380   -1.6600   -1.5880 O   0  0  0  0  0  0  0  0  0  0  0  0
   -1.1490   -0.6410   -0.8510 C   0  0  0  0  0  0  0  0  0  0  0  0
    0.0620   -0.2360   -0.2430 N   0  0  0  0  0  0  0  0  0  0  0  0
    1.3130   -0.9440   -0.4330 C   0  0  0  0  0  0  0  0  0  0  0  0
    2.3770   -0.2230    0.3670 C   0  0  2  0  0  0  0  0  0  0  0  0
    2.5350    1.1080   -0.0500 O   0  0  0  0  0  0  0  0  0  0  0  0
    3.8540    1.4760    0.2750 C   0  0  0  0  0  0  0  0  0  0  0  0
    4.4170    3.0060    0.4100 S   0  0  0  0  0  0  0  0  0  0  0  0
    4.6130    0.2910    0.4680 N   0  0  0  0  0  0  0  0  0  0  0  0
    3.7550   -0.8040    0.0280 C   0  0  2  0  0  0  0  0  0  0  0  0
    3.8700   -0.9020   -1.3540 O   0  0  0  0  0  0  0  0  0  0  0  0
   -2.4230    0.0660   -0.6670 C   0  0  1  0  0  0  0  0  0  0  0  0
   -3.4560   -0.7730    0.0660 C   0  0  0  0  0  0  0  0  0  0  0  0
   -4.4640    0.2970    0.4430 C   0  0  0  0  0  0  0  0  0  0  0  0
   -3.6520    1.5560    0.3480 C   0  0  0  0  0  0  0  0  0  0  0  0
   -2.3270    1.1710    0.1600 O   0  0  0  0  0  0  0  0  0  0  0  0
  1  2  2  0
  2  3  1  0
 12  2  1  1
  3  4  1  0
  5  4  1  6
  5  6  1  0
  5 10  1  0
  6  7  1  0
  7  8  2  0
  7  9  1  0
  9 10  1  0
 10 11  1  6
 12 13  1  0
 12 16  1  0
 13 14  1  0
 14 15  1  0
 15 16  1  0
M  END
