
     RDKit          3D

 16 17  0  0  0  0  0  0  0  0999 V2000
   -2.7780    2.8870   -0.7070 O   0  0  0  0  0  0  0  0  0  0  0  0
   -1.7330    1.9730   -0.1380 S   0  0  0  0  0  0  0  0  0  0  0  0
   -2.4300    0.8780    1.1490 C   0  0  0  0  0  0  0  0  0  0  0  0
   -1.4390   -0.2560    1.0110 C   0  0  0  0  0  0  0  0  0  0  0  0
   -1.3310   -0.5990   -0.4180 C   0  0  2  0  0  0  0  0  0  0  0  0
   -2.4160   -1.4480   -0.7570 O   0  0  0  0  0  0  0  0  0  0  0  0
   -0.0940   -1.4150   -0.7030 C   0  0  2  0  0  0  0  0  0  0  0  0
   -0.1020   -2.6100    0.0440 O   0  0  0  0  0  0  0  0  0  0  0  0
    1.1690   -0.6940   -0.4700 C   0  0  0  0  0  0  0  0  0  0  0  0
    2.3580   -1.3820   -0.5390 C   0  0  0  0  0  0  0  0  0  0  0  0
    3.5520   -0.7790   -0.3260 N   0  0  0  0  0  0  0  0  0  0  0  0
    3.5680    0.5290   -0.0390 C   0  0  0  0  0  0  0  0  0  0  0  0
    2.4030    1.2450    0.0390 C   0  0  0  0  0  0  0  0  0  0  0  0
    2.4240    2.6010    0.3370 O   0  0  0  0  0  0  0  0  0  0  0  0
    1.2130    0.6100   -0.1810 N   0  0  0  0  0  0  0  0  0  0  0  0
   -1.3110    0.6180   -1.2830 C   0  0  0  0  0  0  0  0  0  0  0  0
  1  2  2  0
  2  3  1  1
  2 16  1  0
  3  4  1  0
  4  5  1  0
  5  6  1  6
  5  7  1  0
  5 16  1  0
  7  8  1  1
  7  9  1  0
  9 10  2  0
  9 15  1  0
 10 11  1  0
 11 12  2  0
 12 13  1  0
 13 14  1  0
 13 15  2  0
M  END
