
     RDKit          3D

 25 26  0  0  0  0  0  0  0  0999 V2000
   -3.4020   -3.4240   -2.5370 C   0  0  0  0  0  0  0  0  0  0  0  0
   -2.9240   -2.6870   -1.4310 O   0  0  0  0  0  0  0  0  0  0  0  0
   -1.8070   -1.8890   -1.5100 C   0  0  0  0  0  0  0  0  0  0  0  0
   -1.1950   -1.8120   -2.5880 O   0  0  0  0  0  0  0  0  0  0  0  0
   -1.3650   -1.1530   -0.3340 C   0  0  1  0  0  0  0  0  0  0  0  0
   -0.1970   -0.3570   -0.5230 N   0  0  0  0  0  0  0  0  0  0  0  0
    1.0400   -0.5700    0.2150 C   0  0  0  0  0  0  0  0  0  0  0  0
    1.0170   -1.5090    1.0380 O   0  0  0  0  0  0  0  0  0  0  0  0
    2.1620    0.2510   -0.0160 N   0  0  0  0  0  0  0  0  0  0  0  0
    3.4140    0.1320    0.6450 C   0  0  0  0  0  0  0  0  0  0  0  0
    3.5970   -0.7970    1.5520 C   0  0  0  0  0  0  0  0  0  0  0  0
    4.9080   -0.9220    2.2440 C   0  0  0  0  0  0  0  0  0  0  0  0
    5.8650   -0.0200    1.8670 O   0  0  0  0  0  0  0  0  0  0  0  0
    5.6540    0.9360    0.9240 C   0  0  0  0  0  0  0  0  0  0  0  0
    4.4890    1.0560    0.3010 C   0  0  0  0  0  0  0  0  0  0  0  0
    4.3580    2.1250   -0.7070 C   0  0  0  0  0  0  0  0  0  0  0  0
    3.3690    2.3990   -1.3890 O   0  0  0  0  0  0  0  0  0  0  0  0
    5.4760    2.9600   -0.9530 O   0  0  0  0  0  0  0  0  0  0  0  0
   -2.5420   -0.3500    0.1910 C   0  0  2  0  0  0  0  0  0  0  0  0
   -3.0130    0.6040   -0.8650 C   0  0  0  0  0  0  0  0  0  0  0  0
   -3.7700    1.7790   -0.3460 C   0  0  0  0  0  0  0  0  0  0  0  0
   -4.2130    1.6640    1.0760 C   0  0  0  0  0  0  0  0  0  0  0  0
   -2.9850    1.3670    1.8950 C   0  0  0  0  0  0  0  0  0  0  0  0
   -2.7110    2.0040    2.9330 O   0  0  0  0  0  0  0  0  0  0  0  0
   -2.1600    0.3210    1.4140 N   0  0  0  0  0  0  0  0  0  0  0  0
  1  2  1  0
  2  3  1  0
  3  4  2  0
  3  5  1  0
  5  6  1  6
  5 19  1  0
  6  7  1  0
  7  8  2  0
  7  9  1  0
  9 10  1  0
 10 11  2  0
 10 15  1  0
 11 12  1  0
 12 13  1  0
 13 14  1  0
 14 15  2  0
 15 16  1  0
 16 17  2  0
 16 18  1  0
 19 20  1  6
 19 25  1  0
 20 21  1  0
 21 22  1  0
 22 23  1  0
 23 24  2  0
 23 25  1  0
M  END
