
     RDKit          3D

 25 26  0  0  0  0  0  0  0  0999 V2000
   -3.3160    4.3460   -0.6470 C   0  0  0  0  0  0  0  0  0  0  0  0
   -2.7600    3.1160   -1.2630 C   0  0  0  0  0  0  0  0  0  0  0  0
   -2.2180    3.1330   -2.4110 O   0  0  0  0  0  0  0  0  0  0  0  0
   -2.8080    1.8490   -0.5900 N   0  0  0  0  0  0  0  0  0  0  0  0
   -2.2450    0.6620   -1.2390 C   0  0  1  0  0  0  0  0  0  0  0  0
   -1.1750    0.1450   -0.3670 C   0  0  0  0  0  0  0  0  0  0  0  0
    0.0300    0.5200   -0.5540 N   0  0  0  0  0  0  0  0  0  0  0  0
    1.0160    0.0320    0.2660 O   0  0  0  0  0  0  0  0  0  0  0  0
    2.3540   -0.0180   -0.1300 C   0  0  0  0  0  0  0  0  0  0  0  0
    2.6160    0.4040   -1.2690 O   0  0  0  0  0  0  0  0  0  0  0  0
    3.3770   -0.5130    0.6910 N   0  0  0  0  0  0  0  0  0  0  0  0
    4.7480   -0.6160    0.4110 C   0  0  0  0  0  0  0  0  0  0  0  0
    5.3150   -0.2580   -0.7690 C   0  0  0  0  0  0  0  0  0  0  0  0
    6.6970   -0.3910   -0.9660 C   0  0  0  0  0  0  0  0  0  0  0  0
    7.5220   -0.8850    0.0190 C   0  0  0  0  0  0  0  0  0  0  0  0
    6.9240   -1.2420    1.2090 C   0  0  0  0  0  0  0  0  0  0  0  0
    5.5690   -1.1150    1.4120 C   0  0  0  0  0  0  0  0  0  0  0  0
   -1.5060   -0.7330    0.6320 O   0  0  0  0  0  0  0  0  0  0  0  0
   -2.8340   -0.8590    1.0440 C   0  0  2  0  0  0  0  0  0  0  0  0
   -2.9230   -2.1690    1.8190 C   0  0  0  0  0  0  0  0  0  0  0  0
   -2.0340   -2.0380    2.8990 O   0  0  0  0  0  0  0  0  0  0  0  0
   -3.8280   -0.7930   -0.0640 C   0  0  1  0  0  0  0  0  0  0  0  0
   -4.8200    0.1480    0.2600 O   0  0  0  0  0  0  0  0  0  0  0  0
   -3.2710   -0.4350   -1.4000 C   0  0  2  0  0  0  0  0  0  0  0  0
   -2.5980   -1.5400   -1.9180 O   0  0  0  0  0  0  0  0  0  0  0  0
  1  2  1  0
  2  3  2  0
  2  4  1  0
  5  4  1  1
  5  6  1  0
  5 24  1  0
  6  7  2  3
  6 18  1  0
  7  8  1  0
  8  9  1  0
  9 10  2  0
  9 11  1  0
 11 12  1  0
 12 13  2  0
 12 17  1  0
 13 14  1  0
 14 15  2  0
 15 16  1  0
 16 17  2  0
 18 19  1  0
 19 20  1  6
 19 22  1  0
 20 21  1  0
 22 23  1  1
 22 24  1  0
 24 25  1  1
M  END
