
     RDKit          3D

 25 26  0  0  0  0  0  0  0  0999 V2000
   -0.6160    3.0630   -3.0110 C   0  0  0  0  0  0  0  0  0  0  0  0
    0.1550    2.8760   -1.9580 C   0  0  0  0  0  0  0  0  0  0  0  0
   -0.4010    2.9100   -0.6020 C   0  0  0  0  0  0  0  0  0  0  0  0
   -0.2200    1.6300    0.1760 C   0  0  0  0  0  0  0  0  0  0  0  0
    0.5220    1.7020    1.2660 C   0  0  0  0  0  0  0  0  0  0  0  0
    1.0820    2.9920    1.6010 O   0  0  0  0  0  0  0  0  0  0  0  0
    0.8720    0.6740    2.2050 C   0  0  0  0  0  0  0  0  0  0  0  0
    0.3850    0.8420    3.4090 O   0  0  0  0  0  0  0  0  0  0  0  0
    1.6190   -0.4550    2.0910 O   0  0  0  0  0  0  0  0  0  0  0  0
    2.9440   -0.6450    1.7260 C   0  0  0  0  0  0  0  0  0  0  0  0
    3.2070   -1.7840    0.7920 C   0  0  0  0  0  0  0  0  0  0  0  0
    3.9520   -1.2650   -0.2820 O   0  0  0  0  0  0  0  0  0  0  0  0
    3.1410   -1.2380   -1.3850 C   0  0  0  0  0  0  0  0  0  0  0  0
    1.9590   -0.2810   -1.2540 C   0  0  0  0  0  0  0  0  0  0  0  0
    0.8880   -1.0000   -0.7560 O   0  0  0  0  0  0  0  0  0  0  0  0
   -0.4660   -0.6770   -0.7500 C   0  0  0  0  0  0  0  0  0  0  0  0
   -0.9550    0.4660   -0.3490 C   0  0  0  0  0  0  0  0  0  0  0  0
   -2.4400    0.3910   -0.5680 C   0  0  0  0  0  0  0  0  0  0  0  0
   -3.2400    1.3350   -0.7610 O   0  0  0  0  0  0  0  0  0  0  0  0
   -2.7650   -1.0530   -0.5080 C   0  0  2  0  0  0  0  0  0  0  0  0
   -2.8820   -1.5620    0.8230 N   0  0  0  0  0  0  0  0  0  0  0  0
   -3.9780   -2.3200    1.3020 C   0  0  0  0  0  0  0  0  0  0  0  0
   -4.0370   -2.8030    2.6500 N   0  0  0  0  0  0  0  0  0  0  0  0
   -4.9090   -2.5500    0.4740 O   0  0  0  0  0  0  0  0  0  0  0  0
   -1.5370   -1.5310   -1.1710 N   0  0  0  0  0  0  0  0  0  0  0  0
  1  2  2  0
  2  3  1  0
  3  4  1  0
  4  5  2  0
  4 17  1  0
  5  6  1  0
  5  7  1  0
  7  8  2  0
  7  9  1  0
  9 10  1  0
 10 11  1  0
 11 12  1  0
 12 13  1  0
 13 14  1  0
 14 15  1  0
 15 16  1  0
 16 17  2  0
 16 25  1  0
 17 18  1  0
 18 19  2  0
 18 20  1  0
 20 21  1  1
 20 25  1  0
 21 22  1  0
 22 23  1  0
 22 24  2  0
M  END
