
     RDKit          3D

 10  9  0  0  0  0  0  0  0  0999 V2000
   -2.2410   -0.6130   -1.1340 N   0  0  0  0  0  0  0  0  0  0  0  0
   -0.9430    0.0220   -0.7830 C   0  0  2  0  0  0  0  0  0  0  0  0
    0.0450   -1.0560   -0.5490 C   0  0  0  0  0  0  0  0  0  0  0  0
    1.4140   -0.7010   -0.1440 C   0  0  0  0  0  0  0  0  0  0  0  0
    1.6030   -0.0920    1.1740 C   0  0  0  0  0  0  0  0  0  0  0  0
    0.6990   -0.0820    2.0360 O   0  0  0  0  0  0  0  0  0  0  0  0
    2.8110    0.5000    1.5040 O   0  0  0  0  0  0  0  0  0  0  0  0
   -1.2080    1.0070    0.2400 C   0  0  0  0  0  0  0  0  0  0  0  0
   -2.2290    0.8920    0.9800 O   0  0  0  0  0  0  0  0  0  0  0  0
   -0.4140    2.1250    0.4980 O   0  0  0  0  0  0  0  0  0  0  0  0
  2  1  1  1
  2  3  1  0
  2  8  1  0
  3  4  1  0
  4  5  1  0
  5  6  2  0
  5  7  1  0
  8  9  2  0
  8 10  1  0
M  END
