
     RDKit          3D

 21 21  0  0  0  0  0  0  0  0999 V2000
    5.0590    0.2170    2.2730 C   0  0  0  0  0  0  0  0  0  0  0  0
    3.8730   -0.6990    2.1860 C   0  0  0  0  0  0  0  0  0  0  0  0
    3.8170   -1.4610    0.8750 C   0  0  2  0  0  0  0  0  0  0  0  0
    5.0270   -2.3140    0.6670 C   0  0  0  0  0  0  0  0  0  0  0  0
    3.6030   -0.4880   -0.1800 N   0  0  0  0  0  0  0  0  0  0  0  0
    2.4090   -0.4820   -0.9570 C   0  0  0  0  0  0  0  0  0  0  0  0
    1.5600   -1.3550   -0.6850 O   0  0  0  0  0  0  0  0  0  0  0  0
    2.1500    0.4330   -1.9840 N   0  0  0  0  0  0  0  0  0  0  0  0
    0.9750    0.4290   -2.7370 N   0  0  0  0  0  0  0  0  0  0  0  0
   -0.3350    0.3910   -2.1590 C   0  0  0  0  0  0  0  0  0  0  0  0
   -0.4210    0.3600   -0.9210 O   0  0  0  0  0  0  0  0  0  0  0  0
   -1.4810    0.3920   -3.0530 C   0  0  0  0  0  0  0  0  0  0  0  0
   -1.2680    0.4320   -4.5410 C   0  0  0  0  0  0  0  0  0  0  0  0
   -2.6990    0.3590   -2.5950 C   0  0  0  0  0  0  0  0  0  0  0  0
   -2.9640    0.3220   -1.2500 O   0  0  0  0  0  0  0  0  0  0  0  0
   -3.2250    1.4850   -0.5220 C   0  0  0  0  0  0  0  0  0  0  0  0
   -3.5080    1.1520    0.9040 C   0  0  1  0  0  0  0  0  0  0  0  0
   -4.7370    0.2320    0.9750 C   0  0  0  0  0  0  0  0  0  0  0  0
   -4.7020   -0.1780    2.4300 C   0  0  0  0  0  0  0  0  0  0  0  0
   -3.2260   -0.3320    2.7510 C   0  0  0  0  0  0  0  0  0  0  0  0
   -2.4790    0.2590    1.5570 C   0  0  0  0  0  0  0  0  0  0  0  0
  1  2  1  0
  2  3  1  0
  3  4  1  6
  3  5  1  0
  5  6  1  0
  6  7  2  0
  6  8  1  0
  8  9  1  0
  9 10  1  0
 10 11  2  0
 10 12  1  0
 12 13  1  0
 12 14  2  3
 14 15  1  0
 15 16  1  0
 17 16  1  6
 17 18  1  0
 17 21  1  0
 18 19  1  0
 19 20  1  0
 20 21  1  0
M  END
