
     RDKit          3D

 21 21  0  0  0  0  0  0  0  0999 V2000
   -6.1930    1.3850   -1.0790 C   0  0  0  0  0  0  0  0  0  0  0  0
   -5.2170    1.0370   -0.2550 C   0  0  0  0  0  0  0  0  0  0  0  0
   -4.8320    1.5610    1.0690 C   0  0  0  0  0  0  0  0  0  0  0  0
   -3.9160    0.5070    1.6350 C   0  0  0  0  0  0  0  0  0  0  0  0
   -3.1860    0.1380    0.3870 N   0  0  0  0  0  0  0  0  0  0  0  0
   -1.7960    0.0550    0.2600 C   0  0  0  0  0  0  0  0  0  0  0  0
   -1.0790    0.2840    1.3100 O   0  0  0  0  0  0  0  0  0  0  0  0
   -1.0570   -0.2680   -0.9600 C   0  0  0  0  0  0  0  0  0  0  0  0
    0.3760    0.2790   -0.8280 C   0  0  0  0  0  0  0  0  0  0  0  0
    1.0670   -0.3500    0.2690 N   0  0  0  0  0  0  0  0  0  0  0  0
    2.4190    0.0540    0.5570 C   0  0  0  0  0  0  0  0  0  0  0  0
    2.9440    0.9400   -0.1630 O   0  0  0  0  0  0  0  0  0  0  0  0
    3.1660   -0.5760    1.6870 C   0  0  0  0  0  0  0  0  0  0  0  0
    4.4870    0.0100    1.7490 N   0  0  0  0  0  0  0  0  0  0  0  0
    5.3270   -0.1150    0.6350 C   0  0  0  0  0  0  0  0  0  0  0  0
    4.9760   -0.7200   -0.4270 O   0  0  0  0  0  0  0  0  0  0  0  0
    6.6740    0.4670    0.6610 C   0  0  0  0  0  0  0  0  0  0  0  0
    7.4330    0.2310   -0.6320 C   0  0  0  0  0  0  0  0  0  0  0  0
   -4.2410   -0.0500   -0.5350 C   0  0  0  0  0  0  0  0  0  0  0  0
   -4.3980   -0.9550   -1.4730 C   0  0  0  0  0  0  0  0  0  0  0  0
   -3.5060   -2.0660   -1.8260 C   0  0  0  0  0  0  0  0  0  0  0  0
  1  2  2  0
  2  3  1  0
  2 19  1  0
  3  4  1  0
  4  5  1  0
  5  6  1  0
  5 19  1  0
  6  7  2  0
  6  8  1  0
  8  9  1  0
  9 10  1  0
 10 11  1  0
 11 12  2  0
 11 13  1  0
 13 14  1  0
 14 15  1  0
 15 16  2  0
 15 17  1  0
 17 18  1  0
 19 20  2  3
 20 21  1  0
M  END
