
     RDKit          3D

 21 21  0  0  0  0  0  0  0  0999 V2000
   -4.5540   -0.9570   -1.7910 C   0  0  0  0  0  0  0  0  0  0  0  0
   -4.5630   -0.2440   -0.7020 C   0  0  0  0  0  0  0  0  0  0  0  0
   -5.8100   -0.5120    0.1400 C   0  0  0  0  0  0  0  0  0  0  0  0
   -3.6110    0.6840   -0.2620 C   0  0  0  0  0  0  0  0  0  0  0  0
   -3.7580    1.3450    0.9060 C   0  0  0  0  0  0  0  0  0  0  0  0
   -4.7640    1.3250    1.9210 C   0  0  0  0  0  0  0  0  0  0  0  0
   -2.3750    1.0800   -0.9360 C   0  0  0  0  0  0  0  0  0  0  0  0
   -1.6260    1.9840   -0.3240 O   0  0  0  0  0  0  0  0  0  0  0  0
   -1.8060    0.6820   -2.1360 N   0  0  0  0  0  0  0  0  0  0  0  0
   -0.5360    1.2120   -2.6390 C   0  0  0  0  0  0  0  0  0  0  0  0
    0.5660    0.9250   -1.6850 C   0  0  0  0  0  0  0  0  0  0  0  0
    1.3330   -0.2180   -1.7270 C   0  0  0  0  0  0  0  0  0  0  0  0
    2.2540   -0.1390   -0.6900 C   0  0  0  0  0  0  0  0  0  0  0  0
    3.2430   -1.0760   -0.3440 N   0  0  0  0  0  0  0  0  0  0  0  0
    4.1300   -0.9040    0.7270 C   0  0  0  0  0  0  0  0  0  0  0  0
    4.1110    0.1080    1.4650 O   0  0  0  0  0  0  0  0  0  0  0  0
    5.1350   -1.8900    1.0540 N   0  0  0  0  0  0  0  0  0  0  0  0
    6.0220   -1.6610    2.1670 C   0  0  0  0  0  0  0  0  0  0  0  0
    6.8500   -0.4270    2.0200 C   0  0  0  0  0  0  0  0  0  0  0  0
    2.0040    1.0460   -0.0680 C   0  0  0  0  0  0  0  0  0  0  0  0
    1.0030    1.6440   -0.6820 O   0  0  0  0  0  0  0  0  0  0  0  0
  1  2  2  0
  2  3  1  0
  2  4  1  0
  4  5  2  3
  4  7  1  0
  5  6  1  0
  7  8  2  0
  7  9  1  0
  9 10  1  0
 10 11  1  0
 11 12  2  0
 11 21  1  0
 12 13  1  0
 13 14  1  0
 13 20  2  0
 14 15  1  0
 15 16  2  0
 15 17  1  0
 17 18  1  0
 18 19  1  0
 20 21  1  0
M  END
