
     RDKit          3D

 45 48  0  0  0  0  0  0  0  0999 V2000
   -7.1850   -1.9540    1.6580 C   0  0  0  0  0  0  0  0  0  0  0  0
   -6.7200   -1.3880    0.5930 C   0  0  0  0  0  0  0  0  0  0  0  0
   -5.6200   -2.0410   -0.2040 C   0  0  0  0  0  0  0  0  0  0  0  0
   -5.1070   -0.9900   -1.1420 C   0  0  0  0  0  0  0  0  0  0  0  0
   -4.8670    0.2210   -0.4480 N   0  0  0  0  0  0  0  0  0  0  0  0
   -3.6910    0.7760    0.0830 C   0  0  0  0  0  0  0  0  0  0  0  0
   -3.7450    2.1020    0.0990 O   0  0  0  0  0  0  0  0  0  0  0  0
   -2.5170    0.2060    0.5900 C   0  0  0  0  0  0  0  0  0  0  0  0
   -1.7290   -0.9420   -0.0630 C   0  0  2  0  0  0  0  0  0  0  0  0
   -0.6020   -1.0160    0.8120 O   0  0  0  0  0  0  0  0  0  0  0  0
    0.6350   -0.4730    0.7140 C   0  0  0  0  0  0  0  0  0  0  0  0
    1.3210   -0.0910   -0.3880 C   0  0  0  0  0  0  0  0  0  0  0  0
    2.5840    0.5440   -0.3230 C   0  0  0  0  0  0  0  0  0  0  0  0
    3.1490    0.7760    0.9350 C   0  0  0  0  0  0  0  0  0  0  0  0
    4.6010    1.7860    1.1460 S   0  0  0  0  0  0  0  0  0  0  0  0
    5.3260    1.4430    2.8350 C   0  0  0  0  0  0  0  0  0  0  0  0
    5.9040    0.0420    2.5980 C   0  0  0  0  0  0  0  0  0  0  0  0
    5.6140   -0.9270    3.2410 O   0  0  0  0  0  0  0  0  0  0  0  0
    6.7890    0.0350    1.5130 N   0  0  0  0  0  0  0  0  0  0  0  0
    7.4670   -1.0200    0.8610 C   0  0  0  0  0  0  0  0  0  0  0  0
    8.7390   -0.4300    0.3190 C   0  0  0  0  0  0  0  0  0  0  0  0
    9.6230    0.1380    1.2230 C   0  0  0  0  0  0  0  0  0  0  0  0
   10.8560    0.5550    0.8020 C   0  0  0  0  0  0  0  0  0  0  0  0
   11.1960    0.3950   -0.5500 C   0  0  0  0  0  0  0  0  0  0  0  0
   10.3160   -0.1690   -1.4350 C   0  0  0  0  0  0  0  0  0  0  0  0
    9.0700   -0.5930   -1.0040 C   0  0  0  0  0  0  0  0  0  0  0  0
    8.1790   -1.1340   -1.8660 F   0  0  0  0  0  0  0  0  0  0  0  0
    2.4510    0.3750    2.0450 C   0  0  0  0  0  0  0  0  0  0  0  0
    1.2450   -0.2260    1.9960 C   0  0  0  0  0  0  0  0  0  0  0  0
   -1.5110   -0.6220   -1.4660 C   0  0  0  0  0  0  0  0  0  0  0  0
   -1.6840   -1.4960   -2.3680 O   0  0  0  0  0  0  0  0  0  0  0  0
   -1.0990    0.6860   -1.8950 N   0  0  0  0  0  0  0  0  0  0  0  0
   -0.9290    0.8270   -3.3670 C   0  0  0  0  0  0  0  0  0  0  0  0
   -2.3180    0.5750   -3.9210 C   0  0  0  0  0  0  0  0  0  0  0  0
   -2.7430   -0.3530   -4.8240 C   0  0  0  0  0  0  0  0  0  0  0  0
   -4.1140   -0.1970   -5.0050 C   0  0  0  0  0  0  0  0  0  0  0  0
   -4.4430    0.8620   -4.1660 C   0  0  0  0  0  0  0  0  0  0  0  0
   -5.7330    1.3250   -4.0720 F   0  0  0  0  0  0  0  0  0  0  0  0
   -3.3840    1.2870   -3.5520 O   0  0  0  0  0  0  0  0  0  0  0  0
   -6.1210    0.9340    0.0750 C   0  0  2  0  0  0  0  0  0  0  0  0
   -5.8610    1.1440    1.5310 C   0  0  0  0  0  0  0  0  0  0  0  0
   -4.7580    1.5470    1.9480 O   0  0  0  0  0  0  0  0  0  0  0  0
   -6.8100    0.8900    2.5400 O   0  0  0  0  0  0  0  0  0  0  0  0
   -6.2990    1.1350    3.8800 C   0  0  0  0  0  0  0  0  0  0  0  0
   -7.2610   -0.0920    0.0810 C   0  0  0  0  0  0  0  0  0  0  0  0
  1  2  2  0
  2  3  1  0
  2 45  1  0
  3  4  1  0
  4  5  1  0
  5  6  1  0
  5 40  1  0
  6  7  2  0
  6  8  1  0
  9  8  1  1
  9 10  1  0
  9 30  1  0
 10 11  1  0
 11 12  2  0
 11 29  1  0
 12 13  1  0
 13 14  2  0
 14 15  1  0
 14 28  1  0
 15 16  1  0
 16 17  1  0
 17 18  2  0
 17 19  1  0
 19 20  1  0
 20 21  1  0
 21 22  2  0
 21 26  1  0
 22 23  1  0
 23 24  2  0
 24 25  1  0
 25 26  2  0
 26 27  1  0
 28 29  2  0
 30 31  2  0
 30 32  1  0
 32 33  1  0
 33 34  1  0
 34 35  2  0
 34 39  1  0
 35 36  1  0
 36 37  2  0
 37 38  1  0
 37 39  1  0
 40 41  1  1
 40 45  1  0
 41 42  2  0
 41 43  1  0
 43 44  1  0
M  END
