
     RDKit          3D

 45 48  0  0  0  0  0  0  0  0999 V2000
   -8.0760   -3.2070    3.9500 C   0  0  0  0  0  0  0  0  0  0  0  0
   -8.1320   -1.6620    3.0480 S   0  0  1  0  0  0  0  0  0  0  0  0
   -9.1950   -0.7650    3.5650 O   0  0  0  0  0  0  0  0  0  0  0  0
   -6.8010   -1.0110    3.2910 O   0  0  0  0  0  0  0  0  0  0  0  0
   -8.4500   -2.0430    1.3680 C   0  0  0  0  0  0  0  0  0  0  0  0
   -8.5610   -0.8760    0.4430 C   0  0  0  0  0  0  0  0  0  0  0  0
   -7.3280   -0.0580    0.3940 C   0  0  1  0  0  0  0  0  0  0  0  0
   -6.1460   -0.8460   -0.0610 C   0  0  0  0  0  0  0  0  0  0  0  0
   -4.9090   -0.0260   -0.1160 C   0  0  0  0  0  0  0  0  0  0  0  0
   -5.0070    1.1790    0.1420 O   0  0  0  0  0  0  0  0  0  0  0  0
   -3.6940   -0.6280   -0.4510 N   0  0  0  0  0  0  0  0  0  0  0  0
   -2.4600    0.0280   -0.5470 C   0  0  0  0  0  0  0  0  0  0  0  0
   -2.3060    1.3690   -0.6490 C   0  0  0  0  0  0  0  0  0  0  0  0
   -1.0760    1.9820   -0.7170 C   0  0  0  0  0  0  0  0  0  0  0  0
    0.1000    1.2210   -0.6830 C   0  0  0  0  0  0  0  0  0  0  0  0
    1.3810    1.8780   -0.7540 C   0  0  0  0  0  0  0  0  0  0  0  0
    1.4290    3.2520   -0.8730 F   0  0  0  0  0  0  0  0  0  0  0  0
    2.5160    1.2490   -0.7120 C   0  0  0  0  0  0  0  0  0  0  0  0
    3.8080    1.9720   -0.7880 C   0  0  0  0  0  0  0  0  0  0  0  0
    4.9770    1.3290   -0.7410 C   0  0  0  0  0  0  0  0  0  0  0  0
    4.9460   -0.0420   -0.6180 O   0  0  0  0  0  0  0  0  0  0  0  0
    5.3190   -0.7540    0.5110 C   0  0  0  0  0  0  0  0  0  0  0  0
    6.7090   -0.7100    0.9520 C   0  0  0  0  0  0  0  0  0  0  0  0
    6.8870   -1.0380    2.1910 O   0  0  0  0  0  0  0  0  0  0  0  0
    7.8260   -0.3630    0.1850 N   0  0  0  0  0  0  0  0  0  0  0  0
    7.7940   -0.1750   -1.2500 C   0  0  0  0  0  0  0  0  0  0  0  0
    9.0450   -0.6670   -1.9470 C   0  0  0  0  0  0  0  0  0  0  0  0
    9.9940   -1.4180   -1.0850 C   0  0  1  0  0  0  0  0  0  0  0  0
   11.2480   -1.6780   -1.8820 C   0  0  1  0  0  0  0  0  0  0  0  0
   11.8160   -0.5010   -2.2550 F   0  0  0  0  0  0  0  0  0  0  0  0
   12.0380   -2.5510   -1.2100 F   0  0  0  0  0  0  0  0  0  0  0  0
   10.2180   -0.7200    0.1820 C   0  0  0  0  0  0  0  0  0  0  0  0
   11.4400   -0.5520    0.8020 C   0  0  0  0  0  0  0  0  0  0  0  0
   11.5130    0.0920    2.0270 C   0  0  0  0  0  0  0  0  0  0  0  0
   10.3860    0.5870    2.6730 C   0  0  0  0  0  0  0  0  0  0  0  0
    9.1600    0.4280    2.0660 C   0  0  0  0  0  0  0  0  0  0  0  0
    9.1120   -0.2200    0.8360 C   0  0  0  0  0  0  0  0  0  0  0  0
   -0.0410   -0.1400   -0.5800 C   0  0  0  0  0  0  0  0  0  0  0  0
   -1.2920   -0.7500   -0.5120 C   0  0  0  0  0  0  0  0  0  0  0  0
   -7.4660    1.1670   -0.3510 N   0  0  0  0  0  0  0  0  0  0  0  0
   -8.4300    2.0710    0.2270 C   0  0  0  0  0  0  0  0  0  0  0  0
   -8.5420    3.2750   -0.7200 C   0  0  0  0  0  0  0  0  0  0  0  0
   -9.2420    2.8340   -1.8320 O   0  0  0  0  0  0  0  0  0  0  0  0
   -8.8590    1.6210   -2.3220 C   0  0  0  0  0  0  0  0  0  0  0  0
   -7.6210    1.0180   -1.7660 C   0  0  0  0  0  0  0  0  0  0  0  0
  2  1  1  1
  2  3  2  0
  2  4  2  0
  2  5  1  0
  5  6  1  0
  7  6  1  6
  7  8  1  0
  7 40  1  0
  8  9  1  0
  9 10  2  0
  9 11  1  0
 11 12  1  0
 12 13  2  0
 12 39  1  0
 13 14  1  0
 14 15  2  0
 15 16  1  0
 15 38  1  0
 16 17  1  0
 16 18  2  3
 18 19  1  0
 19 20  2  3
 20 21  1  0
 21 22  1  0
 22 23  1  0
 23 24  2  0
 23 25  1  0
 25 26  1  0
 25 37  1  0
 26 27  1  0
 28 27  1  6
 28 29  1  0
 28 32  1  0
 29 30  1  1
 29 31  1  0
 32 33  2  0
 32 37  1  0
 33 34  1  0
 34 35  2  0
 35 36  1  0
 36 37  2  0
 38 39  2  0
 40 41  1  0
 40 45  1  0
 41 42  1  0
 42 43  1  0
 43 44  1  0
 44 45  1  0
M  END
