
     RDKit          3D

 32 35  0  0  0  0  0  0  0  0999 V2000
    0.5070   -1.8070    0.0630 O   0  0  0  0  0  0  0  0  0  0  0  0
    0.3540   -0.9180   -0.7950 C   0  0  0  0  0  0  0  0  0  0  0  0
   -0.9330   -0.7690   -1.5470 C   0  0  0  0  0  0  0  0  0  0  0  0
   -1.9040   -1.7400   -1.1610 N   0  0  2  0  0  0  0  0  0  0  0  0
   -2.7700   -1.9800   -2.3210 C   0  0  0  0  0  0  0  0  0  0  0  0
   -3.5920   -0.7080   -2.3650 C   0  0  0  0  0  0  0  0  0  0  0  0
   -3.7030   -0.3220   -0.9120 C   0  0  1  0  0  0  0  0  0  0  0  0
   -5.0300   -0.2440   -0.4270 N   0  0  0  0  0  0  0  0  0  0  0  0
   -5.5560    0.9800    0.0890 C   0  0  0  0  0  0  0  0  0  0  0  0
   -4.7630    1.9630    0.0780 O   0  0  0  0  0  0  0  0  0  0  0  0
   -6.9050    1.0770    0.5880 C   0  0  0  0  0  0  0  0  0  0  0  0
   -7.9630    0.2390    0.7310 C   0  0  0  0  0  0  0  0  0  0  0  0
   -9.1090    0.6500    1.2440 C   0  0  0  0  0  0  0  0  0  0  0  0
   -9.3080    1.9290    1.6610 C   0  0  0  0  0  0  0  0  0  0  0  0
  -10.6120    2.8080    2.3550 Cl  0  0  0  0  0  0  0  0  0  0  0  0
   -7.6380    2.6380    1.2680 S   0  0  0  0  0  0  0  0  0  0  0  0
   -2.8340   -1.3060   -0.1650 C   0  0  0  0  0  0  0  0  0  0  0  0
    1.3850   -0.0020   -1.1050 N   0  0  0  0  0  0  0  0  0  0  0  0
    2.6640    0.0320   -0.5180 C   0  0  0  0  0  0  0  0  0  0  0  0
    3.0890   -0.8250    0.4420 C   0  0  0  0  0  0  0  0  0  0  0  0
    4.3790   -0.7500    0.9970 C   0  0  0  0  0  0  0  0  0  0  0  0
    5.2580    0.2150    0.5700 C   0  0  0  0  0  0  0  0  0  0  0  0
    6.5780    0.2950    1.1350 N   0  0  0  0  0  0  0  0  0  0  0  0
    7.3580   -0.7920    1.2300 C   0  0  0  0  0  0  0  0  0  0  0  0
    8.6270   -0.7890    1.7570 C   0  0  0  0  0  0  0  0  0  0  0  0
    9.1490    0.4120    2.2250 C   0  0  0  0  0  0  0  0  0  0  0  0
    8.3220    1.5090    2.1120 C   0  0  0  0  0  0  0  0  0  0  0  0
    7.0610    1.4680    1.5800 C   0  0  0  0  0  0  0  0  0  0  0  0
    6.3220    2.4900    1.4880 O   0  0  0  0  0  0  0  0  0  0  0  0
    4.8510    1.0890   -0.3970 C   0  0  0  0  0  0  0  0  0  0  0  0
    3.5810    1.0070   -0.9360 C   0  0  0  0  0  0  0  0  0  0  0  0
    3.2470    1.9080   -1.8900 F   0  0  0  0  0  0  0  0  0  0  0  0
  1  2  2  0
  2  3  1  0
  2 18  1  0
  4  3  1  6
  4  5  1  0
  4 17  1  0
  5  6  1  0
  6  7  1  0
  7  8  1  1
  7 17  1  0
  8  9  1  0
  9 10  2  0
  9 11  1  0
 11 12  2  0
 11 16  1  0
 12 13  1  0
 13 14  2  0
 14 15  1  0
 14 16  1  0
 18 19  1  0
 19 20  2  0
 19 31  1  0
 20 21  1  0
 21 22  2  0
 22 23  1  0
 22 30  1  0
 23 24  1  0
 23 28  1  0
 24 25  2  0
 25 26  1  0
 26 27  2  0
 27 28  1  0
 28 29  2  0
 30 31  2  0
 31 32  1  0
M  CHG  1   4   1
M  END
