
     RDKit          3D

 45 48  0  0  0  0  0  0  0  0999 V2000
    6.6250    1.8950    2.1650 C   0  0  0  0  0  0  0  0  0  0  0  0
    5.2110    1.3310    2.1320 C   0  0  0  0  0  0  0  0  0  0  0  0
    4.8930    0.7420    0.8390 N   0  0  0  0  0  0  0  0  0  0  0  0
    5.1960   -0.6540    0.6690 C   0  0  0  0  0  0  0  0  0  0  0  0
    6.6210   -0.7570    0.1760 C   0  0  0  0  0  0  0  0  0  0  0  0
    7.3150    0.1700   -0.5840 C   0  0  0  0  0  0  0  0  0  0  0  0
    8.5670   -0.3150   -0.8040 C   0  0  0  0  0  0  0  0  0  0  0  0
    8.6010   -1.5430   -0.1640 C   0  0  0  0  0  0  0  0  0  0  0  0
    9.7780   -2.4720   -0.1210 C   0  0  0  0  0  0  0  0  0  0  0  0
    7.4370   -1.7550    0.3950 O   0  0  0  0  0  0  0  0  0  0  0  0
    4.3280    1.5190   -0.2080 C   0  0  0  0  0  0  0  0  0  0  0  0
    4.1310    2.7670   -0.0450 O   0  0  0  0  0  0  0  0  0  0  0  0
    3.9640    0.8930   -1.4810 C   0  0  0  0  0  0  0  0  0  0  0  0
    3.4080    1.8370   -2.5100 C   0  0  0  0  0  0  0  0  0  0  0  0
    2.1400    2.4970   -2.0500 C   0  0  0  0  0  0  0  0  0  0  0  0
    1.0960    1.4470   -1.7730 C   0  0  0  0  0  0  0  0  0  0  0  0
    0.5270    0.8560   -2.7250 O   0  0  0  0  0  0  0  0  0  0  0  0
    0.7260    1.0960   -0.4920 O   0  0  0  0  0  0  0  0  0  0  0  0
   -0.2310    0.1370   -0.1710 C   0  0  0  0  0  0  0  0  0  0  0  0
    0.1620   -1.2020   -0.2830 C   0  0  0  0  0  0  0  0  0  0  0  0
   -0.7090   -2.2200    0.0140 C   0  0  0  0  0  0  0  0  0  0  0  0
   -0.3070   -3.6620   -0.1040 C   0  0  0  0  0  0  0  0  0  0  0  0
   -1.9840   -1.8980    0.4270 C   0  0  0  0  0  0  0  0  0  0  0  0
   -2.8230   -2.9640    0.7120 O   0  0  0  0  0  0  0  0  0  0  0  0
   -2.8220   -3.4740    2.0290 C   0  0  0  0  0  0  0  0  0  0  0  0
   -2.4200   -0.5750    0.5540 C   0  0  0  0  0  0  0  0  0  0  0  0
   -3.8000   -0.3480    1.0220 C   0  0  1  0  0  0  0  0  0  0  0  0
   -3.7500   -0.1290    2.4340 N   0  0  0  0  0  0  0  0  0  0  0  0
   -4.4340    0.9290    3.0590 C   0  0  0  0  0  0  0  0  0  0  0  0
   -4.3570    1.0330    4.3220 O   0  0  0  0  0  0  0  0  0  0  0  0
   -5.1840    1.8420    2.2870 N   0  0  0  0  0  0  0  0  0  0  0  0
   -5.2040    1.6250    0.8810 C   0  0  0  0  0  0  0  0  0  0  0  0
   -4.5810    0.6380    0.2850 C   0  0  0  0  0  0  0  0  0  0  0  0
   -4.6590    0.4920   -1.5200 S   0  0  0  0  0  0  0  0  0  0  0  0
   -5.9800    1.5570   -2.1520 C   0  0  0  0  0  0  0  0  0  0  0  0
   -7.3280    1.0210   -1.7740 C   0  0  0  0  0  0  0  0  0  0  0  0
   -8.0590    0.1550   -2.5880 C   0  0  0  0  0  0  0  0  0  0  0  0
   -9.2190   -0.1240   -1.9330 C   0  0  0  0  0  0  0  0  0  0  0  0
   -9.1610    0.5750   -0.7520 C   0  0  0  0  0  0  0  0  0  0  0  0
  -10.2130    0.5810    0.3030 C   0  0  1  0  0  0  0  0  0  0  0  0
  -10.7590    1.8210    0.4760 F   0  0  0  0  0  0  0  0  0  0  0  0
  -11.2220   -0.3250   -0.0070 F   0  0  0  0  0  0  0  0  0  0  0  0
   -9.6240    0.2030    1.5120 F   0  0  0  0  0  0  0  0  0  0  0  0
   -8.0360    1.2260   -0.7130 O   0  0  0  0  0  0  0  0  0  0  0  0
   -1.5040    0.4010    0.2410 C   0  0  0  0  0  0  0  0  0  0  0  0
  1  2  1  0
  2  3  1  0
  3  4  1  0
  3 11  1  0
  4  5  1  0
  5  6  2  0
  5 10  1  0
  6  7  1  0
  7  8  2  0
  8  9  1  0
  8 10  1  0
 11 12  2  0
 11 13  1  0
 13 14  1  0
 14 15  1  0
 15 16  1  0
 16 17  2  0
 16 18  1  0
 18 19  1  0
 19 20  2  0
 19 45  1  0
 20 21  1  0
 21 22  1  0
 21 23  2  0
 23 24  1  0
 23 26  1  0
 24 25  1  0
 27 26  1  6
 26 45  2  0
 27 28  1  0
 27 33  1  0
 28 29  1  0
 29 30  2  0
 29 31  1  0
 31 32  1  0
 32 33  2  0
 33 34  1  0
 34 35  1  0
 35 36  1  0
 36 37  2  0
 36 44  1  0
 37 38  1  0
 38 39  2  0
 39 40  1  0
 39 44  1  0
 40 41  1  1
 40 42  1  0
 40 43  1  0
M  END
