
     RDKit          3D

 45 48  0  0  0  0  0  0  0  0999 V2000
    7.4170   -1.1380    0.8330 C   0  0  0  0  0  0  0  0  0  0  0  0
    6.7800   -0.0870    1.7440 C   0  0  1  0  0  0  0  0  0  0  0  0
    5.2960   -0.3250    1.7350 C   0  0  0  0  0  0  0  0  0  0  0  0
    4.7840   -0.2230    0.4740 O   0  0  0  0  0  0  0  0  0  0  0  0
    4.9700    1.0220   -0.0890 C   0  0  0  0  0  0  0  0  0  0  0  0
    4.3480    1.0780   -1.4970 C   0  0  0  0  0  0  0  0  0  0  0  0
    2.8860    0.7940   -1.3460 C   0  0  0  0  0  0  0  0  0  0  0  0
    2.1720    0.8230   -2.6840 C   0  0  2  0  0  0  0  0  0  0  0  0
    2.3080    2.1910   -3.3560 C   0  0  0  0  0  0  0  0  0  0  0  0
    1.4600    3.0230   -2.3910 C   0  0  0  0  0  0  0  0  0  0  0  0
    0.4220    2.0510   -1.8440 C   0  0  0  0  0  0  0  0  0  0  0  0
    0.7370    0.7900   -2.4710 N   0  0  0  0  0  0  0  0  0  0  0  0
   -0.1190   -0.2720   -2.8190 C   0  0  0  0  0  0  0  0  0  0  0  0
    0.4070   -1.2920   -3.3840 O   0  0  0  0  0  0  0  0  0  0  0  0
   -1.5690   -0.3490   -2.6070 C   0  0  1  0  0  0  0  0  0  0  0  0
   -1.8790   -1.6670   -1.9390 C   0  0  0  0  0  0  0  0  0  0  0  0
   -2.6220   -1.7640   -0.8700 C   0  0  0  0  0  0  0  0  0  0  0  0
   -2.9140   -3.0680   -0.2300 C   0  0  0  0  0  0  0  0  0  0  0  0
   -3.6510   -3.0750    0.8150 O   0  0  0  0  0  0  0  0  0  0  0  0
   -2.4400   -4.3010   -0.6890 N   0  0  0  0  0  0  0  0  0  0  0  0
   -2.6800   -5.5750   -0.1240 C   0  0  0  0  0  0  0  0  0  0  0  0
   -3.4150   -5.8510    0.9880 C   0  0  0  0  0  0  0  0  0  0  0  0
   -3.5870   -7.1490    1.4680 C   0  0  0  0  0  0  0  0  0  0  0  0
   -4.3280   -7.3740    2.5830 F   0  0  0  0  0  0  0  0  0  0  0  0
   -3.0090   -8.2190    0.8230 C   0  0  0  0  0  0  0  0  0  0  0  0
   -2.2590   -7.9750   -0.3040 C   0  0  0  0  0  0  0  0  0  0  0  0
   -2.1090   -6.6890   -0.7510 C   0  0  0  0  0  0  0  0  0  0  0  0
   -1.3610   -6.5120   -1.8640 F   0  0  0  0  0  0  0  0  0  0  0  0
   -3.1710   -0.5350   -0.2920 C   0  0  0  0  0  0  0  0  0  0  0  0
   -2.9300    0.6340   -0.8220 C   0  0  0  0  0  0  0  0  0  0  0  0
   -3.6380    2.0680   -0.0520 S   0  0  0  0  0  0  0  0  0  0  0  0
   -4.6320    1.6840    1.3530 C   0  0  0  0  0  0  0  0  0  0  0  0
   -5.2470    2.7980    2.0540 C   0  0  0  0  0  0  0  0  0  0  0  0
   -6.0340    2.3900    3.0420 O   0  0  0  0  0  0  0  0  0  0  0  0
   -5.1370    4.1980    1.8500 C   0  0  0  0  0  0  0  0  0  0  0  0
   -5.9050    5.0490    2.6720 C   0  0  0  0  0  0  0  0  0  0  0  0
   -5.8620    6.4140    2.5630 C   0  0  0  0  0  0  0  0  0  0  0  0
   -5.0490    7.0150    1.6260 C   0  0  0  0  0  0  0  0  0  0  0  0
   -5.0290    8.3590    1.5440 F   0  0  0  0  0  0  0  0  0  0  0  0
   -4.2810    6.2230    0.8010 C   0  0  0  0  0  0  0  0  0  0  0  0
   -4.3490    4.8200    0.9410 C   0  0  0  0  0  0  0  0  0  0  0  0
   -2.1470    0.7320   -1.9460 O   0  0  0  0  0  0  0  0  0  0  0  0
    7.2970   -0.3590    3.1280 C   0  0  0  0  0  0  0  0  0  0  0  0
    7.9510    0.4980    3.7600 O   0  0  0  0  0  0  0  0  0  0  0  0
    7.0460   -1.5870    3.7230 O   0  0  0  0  0  0  0  0  0  0  0  0
  2  1  1  6
  2  3  1  0
  2 43  1  0
  3  4  1  0
  4  5  1  0
  5  6  1  0
  6  7  1  0
  8  7  1  1
  8  9  1  0
  8 12  1  0
  9 10  1  0
 10 11  1  0
 11 12  1  0
 12 13  1  0
 13 14  2  0
 15 13  1  1
 15 16  1  0
 15 42  1  0
 16 17  2  0
 17 18  1  0
 17 29  1  0
 18 19  2  0
 18 20  1  0
 20 21  1  0
 21 22  2  0
 21 27  1  0
 22 23  1  0
 23 24  1  0
 23 25  2  0
 25 26  1  0
 26 27  2  0
 27 28  1  0
 29 30  2  0
 30 31  1  0
 30 42  1  0
 31 32  1  0
 32 33  1  0
 33 34  2  0
 33 35  1  0
 35 36  2  0
 35 41  1  0
 36 37  1  0
 37 38  2  0
 38 39  1  0
 38 40  1  0
 40 41  2  0
 43 44  2  0
 43 45  1  0
M  END
