
     RDKit          3D

 45 47  0  0  0  0  0  0  0  0999 V2000
   -6.9710   -1.2870   -3.5310 C   0  0  0  0  0  0  0  0  0  0  0  0
   -6.8240   -2.0030   -2.5880 C   0  0  0  0  0  0  0  0  0  0  0  0
   -5.7150   -3.0520   -2.4460 C   0  0  0  0  0  0  0  0  0  0  0  0
   -5.0480   -2.7210   -1.0730 C   0  0  0  0  0  0  0  0  0  0  0  0
   -4.6730   -1.3020   -1.0800 C   0  0  0  0  0  0  0  0  0  0  0  0
   -4.7290   -0.6540   -2.1680 O   0  0  0  0  0  0  0  0  0  0  0  0
   -4.2470   -0.6090    0.1330 N   0  0  0  0  0  0  0  0  0  0  0  0
   -3.9930   -1.3270    1.3090 C   0  0  0  0  0  0  0  0  0  0  0  0
   -5.2110   -1.4360    2.2040 C   0  0  0  0  0  0  0  0  0  0  0  0
   -5.1840   -2.1840    3.2340 O   0  0  0  0  0  0  0  0  0  0  0  0
   -6.3770   -0.7440    1.9580 O   0  0  0  0  0  0  0  0  0  0  0  0
   -7.5160   -0.8070    2.7680 C   0  0  0  0  0  0  0  0  0  0  0  0
   -4.2170    0.8030   -0.0250 C   0  0  0  0  0  0  0  0  0  0  0  0
   -5.5080    1.3770   -0.2760 C   0  0  0  0  0  0  0  0  0  0  0  0
   -5.7440    2.6810   -0.5060 C   0  0  0  0  0  0  0  0  0  0  0  0
   -7.1240    3.1660   -0.7560 C   0  0  0  0  0  0  0  0  0  0  0  0
   -4.6720    3.5570   -0.5060 C   0  0  0  0  0  0  0  0  0  0  0  0
   -4.8870    4.8730   -0.7450 F   0  0  0  0  0  0  0  0  0  0  0  0
   -3.4240    3.0410   -0.2690 C   0  0  0  0  0  0  0  0  0  0  0  0
   -3.2040    1.6580   -0.0280 C   0  0  0  0  0  0  0  0  0  0  0  0
   -1.8060    1.3850    0.2480 C   0  0  0  0  0  0  0  0  0  0  0  0
   -0.9310    1.4300   -0.6540 O   0  0  0  0  0  0  0  0  0  0  0  0
   -1.3940    1.0770    1.5690 N   0  0  0  0  0  0  0  0  0  0  0  0
   -0.0850    0.8340    1.9950 C   0  0  0  0  0  0  0  0  0  0  0  0
    0.1880    1.0760    3.3750 C   0  0  0  0  0  0  0  0  0  0  0  0
    1.4800    0.8720    3.7720 C   0  0  0  0  0  0  0  0  0  0  0  0
    2.5030    0.4690    2.9790 C   0  0  0  0  0  0  0  0  0  0  0  0
    3.7880    0.2650    3.3920 F   0  0  0  0  0  0  0  0  0  0  0  0
    2.2590    0.2220    1.6170 C   0  0  0  0  0  0  0  0  0  0  0  0
    3.2970   -0.1740    0.7670 N   0  0  0  0  0  0  0  0  0  0  0  0
    3.2330   -0.6920   -0.5340 C   0  0  0  0  0  0  0  0  0  0  0  0
    2.1240   -0.8560   -1.0780 O   0  0  0  0  0  0  0  0  0  0  0  0
    4.4320   -1.0790   -1.3290 C   0  0  2  0  0  0  0  0  0  0  0  0
    4.3760   -2.6500   -1.2470 C   0  0  0  0  0  0  0  0  0  0  0  0
    5.6560   -0.7530   -0.7950 O   0  0  0  0  0  0  0  0  0  0  0  0
    6.7590   -0.3000   -1.5200 C   0  0  0  0  0  0  0  0  0  0  0  0
    6.6410   -0.1720   -2.7390 O   0  0  0  0  0  0  0  0  0  0  0  0
    7.9820   -0.0100   -0.8100 C   0  0  0  0  0  0  0  0  0  0  0  0
    9.1070    0.4080   -1.3780 C   0  0  0  0  0  0  0  0  0  0  0  0
   10.2940    0.6700   -0.5200 C   0  0  0  0  0  0  0  0  0  0  0  0
   11.4250    1.0740   -1.0760 C   0  0  0  0  0  0  0  0  0  0  0  0
   12.6000    1.2750    0.2710 S   0  0  0  0  0  0  0  0  0  0  0  0
   11.3040    1.4220    1.5840 C   0  0  0  0  0  0  0  0  0  0  0  0
   10.2830    0.5200    0.9240 C   0  0  0  0  0  0  0  0  0  0  0  0
    0.9590    0.4260    1.2130 C   0  0  0  0  0  0  0  0  0  0  0  0
  1  2  2  0
  2  3  1  0
  3  4  1  0
  4  5  1  0
  5  6  2  0
  5  7  1  0
  7  8  1  0
  7 13  1  0
  8  9  1  0
  9 10  2  0
  9 11  1  0
 11 12  1  0
 13 14  2  0
 13 20  1  0
 14 15  1  0
 15 16  1  0
 15 17  2  0
 17 18  1  0
 17 19  1  0
 19 20  2  0
 20 21  1  0
 21 22  2  0
 21 23  1  0
 23 24  1  0
 24 25  2  0
 24 45  1  0
 25 26  1  0
 26 27  2  0
 27 28  1  0
 27 29  1  0
 29 30  1  0
 29 45  2  0
 30 31  1  0
 31 32  2  0
 31 33  1  0
 33 34  1  1
 33 35  1  0
 35 36  1  0
 36 37  2  0
 36 38  1  0
 38 39  2  3
 39 40  1  0
 40 41  2  0
 40 44  1  0
 41 42  1  0
 42 43  1  0
 43 44  1  0
M  END
