
     RDKit          3D

 45 48  0  0  0  0  0  0  0  0999 V2000
    5.6170    3.0390    1.5790 C   0  0  0  0  0  0  0  0  0  0  0  0
    6.0700    1.6170    1.4320 C   0  0  0  0  0  0  0  0  0  0  0  0
    5.2120    0.6940    0.8880 C   0  0  0  0  0  0  0  0  0  0  0  0
    3.9790    1.1650    0.5160 N   0  0  0  0  0  0  0  0  0  0  0  0
    2.8120    0.6770   -0.0460 C   0  0  0  0  0  0  0  0  0  0  0  0
    2.6080   -0.4470   -0.3780 O   0  0  0  0  0  0  0  0  0  0  0  0
    1.6540    1.6570   -0.2770 C   0  0  0  0  0  0  0  0  0  0  0  0
    0.5310    0.8700   -0.8710 C   0  0  0  0  0  0  0  0  0  0  0  0
   -0.6590    1.7050   -1.1470 C   0  0  0  0  0  0  0  0  0  0  0  0
   -0.5670    2.9450   -0.8680 O   0  0  0  0  0  0  0  0  0  0  0  0
   -1.8280    1.1460   -1.6920 N   0  0  0  0  0  0  0  0  0  0  0  0
   -3.0340    1.8720   -2.0060 C   0  0  2  0  0  0  0  0  0  0  0  0
   -3.4090    2.9310   -1.0280 C   0  0  0  0  0  0  0  0  0  0  0  0
   -3.6430    2.4260    0.3570 C   0  0  0  0  0  0  0  0  0  0  0  0
   -4.0160    3.5310    1.2930 C   0  0  0  0  0  0  0  0  0  0  0  0
   -4.2290    3.2490    2.4940 O   0  0  0  0  0  0  0  0  0  0  0  0
   -4.1340    4.8390    0.8880 O   0  0  0  0  0  0  0  0  0  0  0  0
   -4.4710    5.9490    1.6720 C   0  0  0  0  0  0  0  0  0  0  0  0
   -3.5350    6.2810    2.7780 C   0  0  0  0  0  0  0  0  0  0  0  0
   -3.3820    5.3010    3.7020 F   0  0  0  0  0  0  0  0  0  0  0  0
   -4.0770    0.8010   -2.1640 C   0  0  0  0  0  0  0  0  0  0  0  0
   -3.2660   -0.2670   -2.9200 C   0  0  0  0  0  0  0  0  0  0  0  0
   -2.0080   -0.2480   -2.0260 C   0  0  2  0  0  0  0  0  0  0  0  0
   -2.2380   -1.1050   -0.8430 C   0  0  0  0  0  0  0  0  0  0  0  0
   -2.2930   -0.6510    0.3190 O   0  0  0  0  0  0  0  0  0  0  0  0
   -2.4030   -2.4960   -1.0400 N   0  0  0  0  0  0  0  0  0  0  0  0
   -2.6320   -3.4140    0.0570 C   0  0  0  0  0  0  0  0  0  0  0  0
   -2.7600   -4.7740   -0.4850 C   0  0  0  0  0  0  0  0  0  0  0  0
   -2.6530   -5.1960   -2.1840 S   0  0  0  0  0  0  0  0  0  0  0  0
   -2.9120   -6.9750   -1.9560 C   0  0  0  0  0  0  0  0  0  0  0  0
   -3.0600   -7.0780   -0.5720 C   0  0  0  0  0  0  0  0  0  0  0  0
   -2.9820   -5.9670    0.1570 C   0  0  0  0  0  0  0  0  0  0  0  0
   -3.1250   -5.9530    1.6710 C   0  0  0  0  0  0  0  0  0  0  0  0
    5.7160   -0.6580    0.7740 C   0  0  0  0  0  0  0  0  0  0  0  0
    4.9560   -1.6800    0.2460 C   0  0  0  0  0  0  0  0  0  0  0  0
    5.4390   -2.9740    0.1360 C   0  0  0  0  0  0  0  0  0  0  0  0
    4.5920   -3.9120   -0.4070 F   0  0  0  0  0  0  0  0  0  0  0  0
    6.6990   -3.3110    0.5480 C   0  0  0  0  0  0  0  0  0  0  0  0
    7.1560   -4.5780    0.4350 F   0  0  0  0  0  0  0  0  0  0  0  0
    7.4920   -2.3310    1.0790 C   0  0  0  0  0  0  0  0  0  0  0  0
    6.9890   -1.0610    1.1750 C   0  0  0  0  0  0  0  0  0  0  0  0
    7.8980   -0.0710    1.7540 C   0  0  0  0  0  0  0  0  0  0  0  0
    9.0540   -0.3650    2.1350 O   0  0  0  0  0  0  0  0  0  0  0  0
    7.3940    1.2760    1.8660 C   0  0  0  0  0  0  0  0  0  0  0  0
    8.1130    2.1850    2.3530 O   0  0  0  0  0  0  0  0  0  0  0  0
  1  2  1  0
  2  3  2  0
  2 44  1  0
  3  4  1  0
  3 34  1  0
  4  5  1  0
  5  6  2  0
  5  7  1  0
  7  8  1  0
  8  9  1  0
  9 10  2  0
  9 11  1  0
 11 12  1  0
 11 23  1  0
 12 13  1  1
 12 21  1  0
 13 14  1  0
 14 15  1  0
 15 16  2  0
 15 17  1  0
 17 18  1  0
 18 19  1  0
 19 20  1  0
 21 22  1  0
 22 23  1  0
 23 24  1  1
 24 25  2  0
 24 26  1  0
 26 27  1  0
 27 28  1  0
 28 29  1  0
 28 32  2  0
 29 30  1  0
 30 31  2  0
 31 32  1  0
 32 33  1  0
 34 35  2  0
 34 41  1  0
 35 36  1  0
 36 37  1  0
 36 38  2  0
 38 39  1  0
 38 40  1  0
 40 41  2  0
 41 42  1  0
 42 43  2  0
 42 44  1  0
 44 45  2  0
M  END
