
     RDKit          3D

 32 34  0  0  0  0  0  0  0  0999 V2000
   -5.2600   -4.2180    1.9860 C   0  0  0  0  0  0  0  0  0  0  0  0
   -5.7450   -2.7730    1.8910 C   0  0  0  0  0  0  0  0  0  0  0  0
   -6.8490   -2.5150    2.4330 N   0  0  0  0  0  0  0  0  0  0  0  0
   -5.0220   -1.8190    1.2070 N   0  0  0  0  0  0  0  0  0  0  0  0
   -5.4040   -0.5890    0.6440 C   0  0  0  0  0  0  0  0  0  0  0  0
   -6.4250    0.2420    0.9710 C   0  0  0  0  0  0  0  0  0  0  0  0
   -6.6290    1.4950    0.3480 C   0  0  0  0  0  0  0  0  0  0  0  0
   -5.8060    1.9500   -0.6240 C   0  0  0  0  0  0  0  0  0  0  0  0
   -4.7470    1.1110   -0.9730 C   0  0  0  0  0  0  0  0  0  0  0  0
   -4.5350   -0.1090   -0.3820 C   0  0  0  0  0  0  0  0  0  0  0  0
   -3.5630   -0.9910   -0.8390 N   0  0  0  0  0  0  0  0  0  0  0  0
   -2.3540   -0.6460   -1.4560 C   0  0  0  0  0  0  0  0  0  0  0  0
   -2.0310    0.5460   -1.6250 O   0  0  0  0  0  0  0  0  0  0  0  0
   -1.4560   -1.7240   -1.9090 C   0  0  0  0  0  0  0  0  0  0  0  0
   -0.0840   -1.3110   -2.1950 C   0  0  0  0  0  0  0  0  0  0  0  0
    0.5760   -0.8120   -0.8920 C   0  0  0  0  0  0  0  0  0  0  0  0
    1.9170   -0.5390   -1.2130 N   0  0  0  0  0  0  0  0  0  0  0  0
    2.9220   -0.0690   -0.1780 C   0  0  0  0  0  0  0  0  0  0  0  0
    2.4690    0.0710    0.9000 O   0  0  0  0  0  0  0  0  0  0  0  0
    4.1280    0.0670   -0.8150 N   0  0  0  0  0  0  0  0  0  0  0  0
    5.1130    0.1870    0.6320 C   0  0  0  0  0  0  0  0  0  0  0  0
    4.4780    0.1910    1.6140 O   0  0  0  0  0  0  0  0  0  0  0  0
    6.5170    0.2380    0.2850 C   0  0  2  0  0  0  0  0  0  0  0  0
    6.8500   -1.1560   -0.3060 C   0  0  0  0  0  0  0  0  0  0  0  0
    7.2990    0.3030    1.5660 C   0  0  0  0  0  0  0  0  0  0  0  0
    8.1500    1.5280    1.7200 C   0  0  0  0  0  0  0  0  0  0  0  0
    8.9950    1.6990    0.4880 C   0  0  0  0  0  0  0  0  0  0  0  0
    8.2840    1.4460   -0.7910 C   0  0  0  0  0  0  0  0  0  0  0  0
    6.8380    1.2500   -0.6570 N   0  0  0  0  0  0  0  0  0  0  0  0
   -6.2490    3.2700   -1.1680 C   0  0  0  0  0  0  0  0  0  0  0  0
   -7.6570    3.3840   -0.6340 C   0  0  0  0  0  0  0  0  0  0  0  0
   -7.6850    2.5160    0.6100 C   0  0  0  0  0  0  0  0  0  0  0  0
  1  2  1  0
  2  3  2  0
  2  4  1  0
  4  5  1  0
  5  6  2  0
  5 10  1  0
  6  7  1  0
  7  8  2  0
  7 32  1  0
  8  9  1  0
  8 30  1  0
  9 10  2  0
 10 11  1  0
 11 12  1  0
 12 13  2  0
 12 14  1  0
 14 15  1  0
 15 16  1  0
 16 17  1  0
 17 18  1  0
 18 19  2  0
 18 20  1  0
 20 21  1  0
 21 22  2  0
 21 23  1  0
 23 24  1  6
 23 25  1  0
 23 29  1  0
 25 26  1  0
 26 27  1  0
 27 28  1  0
 28 29  1  0
 30 31  1  0
 31 32  1  0
M  CHG  2   3   1  29   1
M  END
