
     RDKit          3D

 32 34  0  0  0  0  0  0  0  0999 V2000
    0.7040    3.8310   -0.6760 C   0  0  0  0  0  0  0  0  0  0  0  0
   -0.3600    3.3200   -1.2690 O   0  0  0  0  0  0  0  0  0  0  0  0
   -0.7710    2.0550   -1.3350 C   0  0  0  0  0  0  0  0  0  0  0  0
   -0.9360    1.3180    0.0210 C   0  0  2  0  0  0  0  0  0  0  0  0
    0.4130    1.1430    0.5900 C   0  0  0  0  0  0  0  0  0  0  0  0
    0.9180   -0.1350    0.9430 N   0  0  0  0  0  0  0  0  0  0  0  0
    2.3210   -0.2330    0.6560 C   0  0  0  0  0  0  0  0  0  0  0  0
    2.8120   -0.5420   -0.6820 C   0  0  0  0  0  0  0  0  0  0  0  0
    4.2670   -0.4220   -0.7790 C   0  0  0  0  0  0  0  0  0  0  0  0
    4.8520    0.4050   -1.7290 C   0  0  0  0  0  0  0  0  0  0  0  0
    6.1850    0.6640   -1.8340 C   0  0  0  0  0  0  0  0  0  0  0  0
    6.8260    1.5270   -2.8330 C   0  0  0  0  0  0  0  0  0  0  0  0
    7.0230    0.0460   -0.9030 C   0  0  0  0  0  0  0  0  0  0  0  0
    6.5200   -0.7720    0.0510 C   0  0  0  0  0  0  0  0  0  0  0  0
    7.4700   -1.3060    1.0670 C   0  0  0  0  0  0  0  0  0  0  0  0
    7.9400   -0.1690    1.8810 N   0  0  0  0  0  0  0  0  0  0  0  0
    5.1510   -1.0190    0.1230 C   0  0  0  0  0  0  0  0  0  0  0  0
    0.1760   -1.2860    0.5370 C   0  0  0  0  0  0  0  0  0  0  0  0
   -0.7440   -1.0610   -0.6940 C   0  0  0  0  0  0  0  0  0  0  0  0
   -1.5920    0.0390   -0.2540 N   0  0  0  0  0  0  0  0  0  0  0  0
   -2.9380   -0.0630   -0.0010 C   0  0  0  0  0  0  0  0  0  0  0  0
   -3.5570    1.0390    0.4730 O   0  0  0  0  0  0  0  0  0  0  0  0
   -3.9060   -1.0870   -0.1090 N   0  0  0  0  0  0  0  0  0  0  0  0
   -5.2690   -1.0190    0.2600 C   0  0  0  0  0  0  0  0  0  0  0  0
   -6.0440   -0.0540    0.8910 C   0  0  0  0  0  0  0  0  0  0  0  0
   -7.3020   -0.5420    1.1910 C   0  0  0  0  0  0  0  0  0  0  0  0
   -8.4170    0.2050    1.8510 C   0  0  0  0  0  0  0  0  0  0  0  0
   -8.1790    1.6470    1.6250 N   0  0  0  0  0  0  0  0  0  0  0  0
   -7.3180   -1.8040    0.7510 N   0  0  0  0  0  0  0  0  0  0  0  0
   -6.1190   -2.1390    0.1740 C   0  0  0  0  0  0  0  0  0  0  0  0
   -5.9710   -3.3630   -0.6130 C   0  0  0  0  0  0  0  0  0  0  0  0
   -5.8410   -4.5410    0.1850 O   0  0  0  0  0  0  0  0  0  0  0  0
  1  2  1  0
  2  3  1  0
  4  3  1  6
  4  5  1  0
  4 20  1  0
  5  6  1  0
  6  7  1  0
  6 18  1  0
  7  8  1  0
  8  9  1  0
  9 10  2  0
  9 17  1  0
 10 11  1  0
 11 12  1  0
 11 13  2  0
 13 14  1  0
 14 15  1  0
 14 17  2  0
 15 16  1  0
 18 19  1  0
 19 20  1  0
 20 21  1  0
 21 22  2  0
 21 23  1  0
 23 24  1  0
 24 25  1  0
 24 30  2  0
 25 26  2  0
 26 27  1  0
 26 29  1  0
 27 28  1  0
 29 30  1  0
 30 31  1  0
 31 32  1  0
M  CHG  2  16   1  28   1
M  END
