
     RDKit          3D

 32 34  0  0  0  0  0  0  0  0999 V2000
   -3.5060   -0.3570    0.9910 C   0  0  0  0  0  0  0  0  0  0  0  0
   -2.6660   -0.0770   -0.1960 C   0  0  2  0  0  0  0  0  0  0  0  0
   -1.5270   -1.0100   -0.4690 C   0  0  0  0  0  0  0  0  0  0  0  0
   -0.5310   -1.2280    0.4820 N   0  0  0  0  0  0  0  0  0  0  0  0
    0.3860   -0.2530    0.8610 C   0  0  0  0  0  0  0  0  0  0  0  0
    1.4150    0.2280   -0.0230 C   0  0  0  0  0  0  0  0  0  0  0  0
    2.1690    1.1600    0.4370 O   0  0  0  0  0  0  0  0  0  0  0  0
    1.7200   -0.1820   -1.3320 N   0  0  0  0  0  0  0  0  0  0  0  0
    2.8150    0.4280   -2.1020 C   0  0  0  0  0  0  0  0  0  0  0  0
    4.1220    0.2720   -1.4520 C   0  0  0  0  0  0  0  0  0  0  0  0
    4.9780   -0.7970   -1.5590 C   0  0  0  0  0  0  0  0  0  0  0  0
    6.0970   -0.5050   -0.7690 C   0  0  0  0  0  0  0  0  0  0  0  0
    5.8430    0.7310   -0.2300 C   0  0  0  0  0  0  0  0  0  0  0  0
    6.7630    1.4550    0.6860 C   0  0  0  0  0  0  0  0  0  0  0  0
    7.6900    2.2970   -0.0490 N   0  0  0  0  0  0  0  0  0  0  0  0
    4.6880    1.1360   -0.6570 O   0  0  0  0  0  0  0  0  0  0  0  0
   -0.0160   -2.5830    0.5020 C   0  0  2  0  0  0  0  0  0  0  0  0
   -1.0610   -3.6080    0.8400 C   0  0  0  0  0  0  0  0  0  0  0  0
   -0.8530   -4.1290    2.2660 C   0  0  0  0  0  0  0  0  0  0  0  0
    0.4150   -4.9250    2.3460 C   0  0  0  0  0  0  0  0  0  0  0  0
    1.4440   -4.3030    1.4530 C   0  0  0  0  0  0  0  0  0  0  0  0
    1.1330   -2.7940    1.4360 C   0  0  0  0  0  0  0  0  0  0  0  0
   -2.5220    1.3420   -0.5950 C   0  0  2  0  0  0  0  0  0  0  0  0
   -2.0030    2.2120    0.3920 N   0  0  0  0  0  0  0  0  0  0  0  0
   -3.7160    1.8910   -1.3420 C   0  0  2  0  0  0  0  0  0  0  0  0
   -3.4870    3.3270   -1.7120 C   0  0  0  0  0  0  0  0  0  0  0  0
   -4.3840    4.2860   -1.0180 C   0  0  0  0  0  0  0  0  0  0  0  0
   -3.9820    5.3410   -0.4360 N   0  0  0  0  0  0  0  0  0  0  0  0
   -5.7750    3.9580   -1.0390 N   0  0  0  0  0  0  0  0  0  0  0  0
   -6.0930    2.5770   -1.2010 C   0  0  0  0  0  0  0  0  0  0  0  0
   -7.1660    2.2280   -1.7150 O   0  0  0  0  0  0  0  0  0  0  0  0
   -5.0370    1.6210   -0.7060 C   0  0  0  0  0  0  0  0  0  0  0  0
  2  1  1  1
  2  3  1  0
  2 23  1  0
  3  4  1  0
  4  5  1  0
 17  4  1  1
  5  6  1  0
  6  7  2  0
  6  8  1  0
  8  9  1  0
  9 10  1  0
 10 11  2  0
 10 16  1  0
 11 12  1  0
 12 13  2  0
 13 14  1  0
 13 16  1  0
 14 15  1  0
 17 18  1  0
 17 22  1  0
 18 19  1  0
 19 20  1  0
 20 21  1  0
 21 22  1  0
 23 24  1  1
 23 25  1  0
 25 26  1  1
 25 32  1  0
 26 27  1  0
 27 28  2  0
 27 29  1  0
 29 30  1  0
 30 31  2  0
 30 32  1  0
M  CHG  2  15   1  24   1
M  END
