
     RDKit          3D

 33 36  0  0  0  0  0  0  0  0999 V2000
   -5.0200    1.5580    0.6460 C   0  0  0  0  0  0  0  0  0  0  0  0
   -5.0530    0.2750   -0.0550 C   0  0  0  0  0  0  0  0  0  0  0  0
   -3.9860   -0.1550   -0.7990 C   0  0  0  0  0  0  0  0  0  0  0  0
   -3.9630   -1.3510   -1.4720 C   0  0  0  0  0  0  0  0  0  0  0  0
   -2.8520   -1.7780   -2.2480 N   0  0  0  0  0  0  0  0  0  0  0  0
   -1.7430   -0.9610   -2.3710 N   0  0  0  0  0  0  0  0  0  0  0  0
   -0.7090   -0.8110   -1.4120 C   0  0  0  0  0  0  0  0  0  0  0  0
   -0.7760   -1.4500   -0.3510 O   0  0  0  0  0  0  0  0  0  0  0  0
    0.4030    0.0940   -1.7120 C   0  0  0  0  0  0  0  0  0  0  0  0
    1.3860    0.1980   -0.6030 C   0  0  1  0  0  0  0  0  0  0  0  0
    2.4950    1.1050   -0.9950 N   0  0  0  0  0  0  0  0  0  0  0  0
    3.8400    0.6980   -0.7890 C   0  0  0  0  0  0  0  0  0  0  0  0
    4.0080   -0.4500   -0.2600 O   0  0  0  0  0  0  0  0  0  0  0  0
    4.9950    1.5470   -1.1630 C   0  0  0  0  0  0  0  0  0  0  0  0
    6.2830    0.9140   -0.8110 C   0  0  0  0  0  0  0  0  0  0  0  0
    6.9220    1.2860    0.3740 C   0  0  0  0  0  0  0  0  0  0  0  0
    8.1160    0.7060    0.7330 C   0  0  0  0  0  0  0  0  0  0  0  0
    8.7400   -0.2610   -0.0450 C   0  0  0  0  0  0  0  0  0  0  0  0
    9.9730   -0.8660    0.3170 N   0  0  0  0  0  0  0  0  0  0  0  0
    8.1020   -0.6240   -1.2170 C   0  0  0  0  0  0  0  0  0  0  0  0
    6.8910   -0.0380   -1.5840 C   0  0  0  0  0  0  0  0  0  0  0  0
    0.7940    0.7030    0.6650 C   0  0  0  0  0  0  0  0  0  0  0  0
    0.6780   -0.1730    1.7190 C   0  0  0  0  0  0  0  0  0  0  0  0
    0.1410    0.2110    2.9170 C   0  0  0  0  0  0  0  0  0  0  0  0
   -0.2920    1.5110    3.0670 C   0  0  0  0  0  0  0  0  0  0  0  0
   -0.1670    2.3770    1.9990 C   0  0  0  0  0  0  0  0  0  0  0  0
    0.3710    2.0020    0.7910 C   0  0  0  0  0  0  0  0  0  0  0  0
   -5.1030   -2.1580   -1.3790 C   0  0  0  0  0  0  0  0  0  0  0  0
   -6.1930   -1.7730   -0.6490 C   0  0  0  0  0  0  0  0  0  0  0  0
   -6.1590   -0.5620    0.0050 C   0  0  0  0  0  0  0  0  0  0  0  0
   -7.3830   -0.3490    0.6990 N   0  0  0  0  0  0  0  0  0  0  0  0
   -8.0580   -1.6120    0.7860 C   0  0  0  0  0  0  0  0  0  0  0  0
   -7.5300   -2.4200   -0.3790 C   0  0  0  0  0  0  0  0  0  0  0  0
  1  2  1  0
  2  3  2  0
  2 30  1  0
  3  4  1  0
  4  5  1  0
  4 28  2  0
  5  6  1  0
  6  7  1  0
  7  8  2  0
  7  9  1  0
 10  9  1  6
 10 11  1  0
 10 22  1  0
 11 12  1  0
 12 13  2  0
 12 14  1  0
 14 15  1  0
 15 16  2  0
 15 21  1  0
 16 17  1  0
 17 18  2  0
 18 19  1  0
 18 20  1  0
 20 21  2  0
 22 23  2  0
 22 27  1  0
 23 24  1  0
 24 25  2  0
 25 26  1  0
 26 27  2  0
 28 29  1  0
 29 30  2  0
 29 33  1  0
 30 31  1  0
 31 32  1  0
 32 33  1  0
M  CHG  1  31   1
M  END
