
     RDKit          3D

 32 35  0  0  0  0  0  0  0  0999 V2000
   -1.2860   -2.9200    3.0730 O   0  0  0  0  0  0  0  0  0  0  0  0
   -0.3000   -2.5900    2.4000 C   0  0  0  0  0  0  0  0  0  0  0  0
    1.0710   -3.1660    2.7050 C   0  0  0  0  0  0  0  0  0  0  0  0
    2.0590   -2.6470    1.8050 N   0  0  0  0  0  0  0  0  0  0  0  0
    2.4060   -3.1940    0.6180 C   0  0  0  0  0  0  0  0  0  0  0  0
    3.3680   -2.3970    0.0920 N   0  0  0  0  0  0  0  0  0  0  0  0
    3.6110   -1.3820    0.9310 C   0  0  0  0  0  0  0  0  0  0  0  0
    4.5370   -0.3270    0.7680 N   0  0  0  0  0  0  0  0  0  0  0  0
    5.3610   -0.2300   -0.3830 C   0  0  0  0  0  0  0  0  0  0  0  0
    5.2510   -1.1020   -1.2540 O   0  0  0  0  0  0  0  0  0  0  0  0
    6.2770    0.8740   -0.4710 C   0  0  0  0  0  0  0  0  0  0  0  0
    6.6340    1.9290    0.2400 C   0  0  0  0  0  0  0  0  0  0  0  0
    7.5710    2.8070   -0.1510 C   0  0  0  0  0  0  0  0  0  0  0  0
    8.1860    2.5640   -1.3870 C   0  0  0  0  0  0  0  0  0  0  0  0
    9.4400    3.4610   -2.2440 Cl  0  0  0  0  0  0  0  0  0  0  0  0
    7.3640    1.0460   -1.9370 S   0  0  0  0  0  0  0  0  0  0  0  0
    2.8010   -1.5440    1.9820 N   0  0  0  0  0  0  0  0  0  0  0  0
   -0.4410   -1.6730    1.3410 N   0  0  0  0  0  0  0  0  0  0  0  0
   -1.6390   -1.0410    0.9190 C   0  0  0  0  0  0  0  0  0  0  0  0
   -2.8760   -1.2110    1.4720 C   0  0  0  0  0  0  0  0  0  0  0  0
   -4.0020   -0.5320    0.9740 C   0  0  0  0  0  0  0  0  0  0  0  0
   -3.9210    0.3360   -0.0890 C   0  0  0  0  0  0  0  0  0  0  0  0
   -5.0730    1.0140   -0.5780 N   0  0  0  0  0  0  0  0  0  0  0  0
   -5.3390    2.2420   -0.0610 C   0  0  0  0  0  0  0  0  0  0  0  0
   -6.4240    2.9930   -0.4540 C   0  0  0  0  0  0  0  0  0  0  0  0
   -7.2650    2.4750   -1.4050 C   0  0  0  0  0  0  0  0  0  0  0  0
   -6.9770    1.2290   -1.9150 C   0  0  0  0  0  0  0  0  0  0  0  0
   -5.8910    0.5110   -1.5010 C   0  0  0  0  0  0  0  0  0  0  0  0
   -5.6320   -0.6270   -1.9700 O   0  0  0  0  0  0  0  0  0  0  0  0
   -2.6770    0.5130   -0.6510 C   0  0  0  0  0  0  0  0  0  0  0  0
   -1.5780   -0.1530   -0.1630 C   0  0  0  0  0  0  0  0  0  0  0  0
   -0.3590    0.0470   -0.7450 F   0  0  0  0  0  0  0  0  0  0  0  0
  1  2  2  0
  2  3  1  0
  2 18  1  0
  3  4  1  0
  4  5  1  0
  4 17  1  0
  5  6  2  0
  6  7  1  0
  7  8  1  0
  7 17  2  0
  8  9  1  0
  9 10  2  0
  9 11  1  0
 11 12  2  0
 11 16  1  0
 12 13  1  0
 13 14  2  0
 14 15  1  0
 14 16  1  0
 18 19  1  0
 19 20  2  0
 19 31  1  0
 20 21  1  0
 21 22  2  0
 22 23  1  0
 22 30  1  0
 23 24  1  0
 23 28  1  0
 24 25  2  0
 25 26  1  0
 26 27  2  0
 27 28  1  0
 28 29  2  0
 30 31  2  0
 31 32  1  0
M  END
