
     RDKit          3D

 33 36  0  0  0  0  0  0  0  0999 V2000
   -7.5000   -2.3500    0.2960 C   0  0  0  0  0  0  0  0  0  0  0  0
   -6.7000   -1.0820    0.5010 C   0  0  1  0  0  0  0  0  0  0  0  0
   -5.6080   -1.1000   -0.4570 N   0  0  0  0  0  0  0  0  0  0  0  0
   -4.2500   -1.1680    0.0190 C   0  0  0  0  0  0  0  0  0  0  0  0
   -4.0240   -1.2090    1.2300 O   0  0  0  0  0  0  0  0  0  0  0  0
   -3.1810   -1.1860   -0.8890 N   0  0  0  0  0  0  0  0  0  0  0  0
   -1.8030   -1.2460   -0.6010 C   0  0  0  0  0  0  0  0  0  0  0  0
   -1.2440   -1.2320    0.6520 C   0  0  0  0  0  0  0  0  0  0  0  0
    0.1510   -1.3030    0.8310 C   0  0  0  0  0  0  0  0  0  0  0  0
    1.0030   -1.3890   -0.2300 C   0  0  0  0  0  0  0  0  0  0  0  0
    2.4900   -1.4660   -0.0740 C   0  0  0  0  0  0  0  0  0  0  0  0
    3.0340   -0.1390   -0.0720 N   0  0  0  0  0  0  0  0  0  0  0  0
    3.5640    0.2720   -1.3380 C   0  0  0  0  0  0  0  0  0  0  0  0
    4.7640   -0.5090   -1.7780 C   0  0  0  0  0  0  0  0  0  0  0  0
    5.8390   -0.3500   -0.7780 C   0  0  0  0  0  0  0  0  0  0  0  0
    5.9860   -1.1940    0.2920 C   0  0  0  0  0  0  0  0  0  0  0  0
    7.0070   -1.0070    1.2020 C   0  0  0  0  0  0  0  0  0  0  0  0
    7.9130    0.0280    1.0740 C   0  0  0  0  0  0  0  0  0  0  0  0
    7.7650    0.8740    0.0010 C   0  0  0  0  0  0  0  0  0  0  0  0
    6.7360    0.6880   -0.9190 C   0  0  0  0  0  0  0  0  0  0  0  0
    8.6970    1.9480   -0.1430 N   0  0  0  0  0  0  0  0  0  0  0  0
    9.7260    2.2020    0.8380 C   0  0  0  0  0  0  0  0  0  0  0  0
    9.4410    1.5590    2.1630 C   0  0  0  0  0  0  0  0  0  0  0  0
    8.9390    0.2390    1.9640 O   0  0  0  0  0  0  0  0  0  0  0  0
    0.4620   -1.4050   -1.4980 C   0  0  0  0  0  0  0  0  0  0  0  0
   -0.8900   -1.3350   -1.6530 C   0  0  0  0  0  0  0  0  0  0  0  0
   -7.5370    0.1280    0.3840 C   0  0  0  0  0  0  0  0  0  0  0  0
   -7.9260    0.5590   -0.8540 C   0  0  0  0  0  0  0  0  0  0  0  0
   -8.7170    1.6930   -1.0440 C   0  0  0  0  0  0  0  0  0  0  0  0
   -9.1150    2.3970    0.0700 C   0  0  0  0  0  0  0  0  0  0  0  0
   -9.9150    3.5470   -0.0900 N   0  0  0  0  0  0  0  0  0  0  0  0
   -8.7380    1.9840    1.3320 C   0  0  0  0  0  0  0  0  0  0  0  0
   -7.9510    0.8530    1.4910 C   0  0  0  0  0  0  0  0  0  0  0  0
  2  1  1  6
  2  3  1  0
  2 27  1  0
  3  4  1  0
  4  5  2  0
  4  6  1  0
  6  7  1  0
  7  8  2  0
  7 26  1  0
  8  9  1  0
  9 10  2  0
 10 11  1  0
 10 25  1  0
 11 12  1  0
 12 13  1  0
 13 14  1  0
 14 15  1  0
 15 16  2  0
 15 20  1  0
 16 17  1  0
 17 18  2  0
 18 19  1  0
 18 24  1  0
 19 20  2  0
 19 21  1  0
 21 22  1  0
 22 23  1  0
 23 24  1  0
 25 26  2  0
 27 28  2  0
 27 33  1  0
 28 29  1  0
 29 30  2  0
 30 31  1  0
 30 32  1  0
 32 33  2  0
M  CHG  1  12   1
M  END
