
     RDKit          3D

 33 35  0  0  0  0  0  0  0  0999 V2000
   -9.6640    1.1330   -0.7570 C   0  0  0  0  0  0  0  0  0  0  0  0
   -9.8540   -0.3460   -1.0100 C   0  0  0  0  0  0  0  0  0  0  0  0
   -9.1400   -1.1850    0.0270 C   0  0  0  0  0  0  0  0  0  0  0  0
   -7.6840   -0.8870   -0.0100 C   0  0  0  0  0  0  0  0  0  0  0  0
   -7.0900   -0.4140    1.0710 C   0  0  0  0  0  0  0  0  0  0  0  0
   -5.6640   -0.1250    1.0270 C   0  0  0  0  0  0  0  0  0  0  0  0
   -5.0530    0.3650    2.1500 C   0  0  0  0  0  0  0  0  0  0  0  0
   -5.8920    0.5800    3.3790 C   0  0  0  0  0  0  0  0  0  0  0  0
   -3.7300    0.6370    2.1210 C   0  0  0  0  0  0  0  0  0  0  0  0
   -2.9210    0.4490    0.9930 C   0  0  0  0  0  0  0  0  0  0  0  0
   -1.5410    0.7640    1.0890 N   0  0  0  0  0  0  0  0  0  0  0  0
   -0.6100    0.8100    0.0330 C   0  0  0  0  0  0  0  0  0  0  0  0
   -0.9720    0.5660   -1.1220 O   0  0  0  0  0  0  0  0  0  0  0  0
    0.7670    1.1330    0.2440 N   0  0  0  0  0  0  0  0  0  0  0  0
    1.7420    1.1810   -0.8460 C   0  0  0  0  0  0  0  0  0  0  0  0
    1.8420   -0.1260   -1.4930 C   0  0  0  0  0  0  0  0  0  0  0  0
    2.9440   -0.8330   -1.5570 C   0  0  0  0  0  0  0  0  0  0  0  0
    4.1910   -0.3930   -0.9880 C   0  0  0  0  0  0  0  0  0  0  0  0
    5.2630   -1.2070   -1.1150 C   0  0  0  0  0  0  0  0  0  0  0  0
    5.2740   -2.4980   -1.7800 C   0  0  0  0  0  0  0  0  0  0  0  0
    6.5230   -2.9670   -1.6800 C   0  0  0  0  0  0  0  0  0  0  0  0
    7.3390   -2.0040   -0.9590 C   0  0  0  0  0  0  0  0  0  0  0  0
    6.5990   -0.9420   -0.6120 C   0  0  0  0  0  0  0  0  0  0  0  0
    7.0910    0.2060    0.1160 C   0  0  0  0  0  0  0  0  0  0  0  0
    6.3190    1.1530    0.3950 O   0  0  0  0  0  0  0  0  0  0  0  0
    8.4460    0.2920    0.5320 N   0  0  0  0  0  0  0  0  0  0  0  0
    8.9570    1.4370    1.2640 C   0  0  0  0  0  0  0  0  0  0  0  0
   10.4230    1.2590    1.5740 C   0  0  0  0  0  0  0  0  0  0  0  0
   11.2380    1.1170    0.3980 N   0  0  0  0  0  0  0  0  0  0  0  0
   -3.5380   -0.0420   -0.1290 C   0  0  0  0  0  0  0  0  0  0  0  0
   -4.9100   -0.3280   -0.1090 C   0  0  0  0  0  0  0  0  0  0  0  0
   -5.5270   -0.8560   -1.3470 C   0  0  0  0  0  0  0  0  0  0  0  0
   -6.9220   -1.1020   -1.1900 N   0  0  0  0  0  0  0  0  0  0  0  0
  1  2  1  0
  2  3  1  0
  3  4  1  0
  4  5  2  0
  4 33  1  0
  5  6  1  0
  6  7  2  0
  6 31  1  0
  7  8  1  0
  7  9  1  0
  9 10  2  0
 10 11  1  0
 10 30  1  0
 11 12  1  0
 12 13  2  0
 12 14  1  0
 14 15  1  0
 15 16  1  0
 16 17  2  3
 17 18  1  0
 18 19  2  3
 19 20  1  0
 19 23  1  0
 20 21  2  0
 21 22  1  0
 22 23  2  0
 23 24  1  0
 24 25  2  0
 24 26  1  0
 26 27  1  0
 27 28  1  0
 28 29  1  0
 30 31  2  0
 31 32  1  0
 32 33  1  0
M  CHG  1  29   1
M  END
