
     RDKit          3D

 20 20  0  0  0  0  0  0  0  0999 V2000
    0.6230    3.6580    1.6320 C   0  0  0  0  0  0  0  0  0  0  0  0
    0.6860    2.4870    0.8110 O   0  0  0  0  0  0  0  0  0  0  0  0
    0.0030    1.3420    1.1930 C   0  0  0  0  0  0  0  0  0  0  0  0
   -0.6530    1.3690    2.2540 O   0  0  0  0  0  0  0  0  0  0  0  0
    0.0520    0.0960    0.3490 C   0  0  2  0  0  0  0  0  0  0  0  0
    1.4430   -0.3830    0.1990 C   0  0  0  0  0  0  0  0  0  0  0  0
    1.7530   -1.5350    0.5750 O   0  0  0  0  0  0  0  0  0  0  0  0
    2.4840    0.4120   -0.3660 N   0  0  0  0  0  0  0  0  0  0  0  0
    3.8400   -0.0650   -0.5080 C   0  0  0  0  0  0  0  0  0  0  0  0
    3.9430   -1.2900   -1.3730 C   0  0  0  0  0  0  0  0  0  0  0  0
    5.2980   -1.6420   -1.4260 O   0  0  0  0  0  0  0  0  0  0  0  0
   -0.5670    0.4710   -0.9800 C   0  0  0  0  0  0  0  0  0  0  0  0
   -2.0500    0.6800   -0.7480 C   0  0  0  0  0  0  0  0  0  0  0  0
   -2.6720   -0.6170   -0.2910 C   0  0  1  0  0  0  0  0  0  0  0  0
   -3.4370   -0.4570    0.8590 O   0  0  0  0  0  0  0  0  0  0  0  0
   -3.5390   -1.1590   -1.4040 C   0  0  0  0  0  0  0  0  0  0  0  0
   -4.5620   -0.2350   -1.6210 O   0  0  0  0  0  0  0  0  0  0  0  0
   -1.5390   -1.5610    0.0490 C   0  0  2  0  0  0  0  0  0  0  0  0
   -2.0150   -2.7210    0.6760 O   0  0  0  0  0  0  0  0  0  0  0  0
   -0.7010   -0.9120    0.9270 O   0  0  0  0  0  0  0  0  0  0  0  0
  1  2  1  0
  2  3  1  0
  3  4  2  0
  5  3  1  1
  5  6  1  0
  5 12  1  0
  5 20  1  0
  6  7  2  0
  6  8  1  0
  8  9  1  0
  9 10  1  0
 10 11  1  0
 12 13  1  0
 13 14  1  0
 14 15  1  1
 14 16  1  0
 14 18  1  0
 16 17  1  0
 18 19  1  1
 18 20  1  0
M  END
