
     RDKit          3D

 23 24  0  0  0  0  0  0  0  0999 V2000
   -6.0440    2.9610    0.7260 C   0  0  0  0  0  0  0  0  0  0  0  0
   -5.2520    2.0250    1.2110 C   0  0  0  0  0  0  0  0  0  0  0  0
   -5.6110    0.5720    1.1100 C   0  0  0  0  0  0  0  0  0  0  0  0
   -4.5950   -0.0840    0.3730 O   0  0  0  0  0  0  0  0  0  0  0  0
   -3.2700   -0.1290    0.7510 C   0  0  0  0  0  0  0  0  0  0  0  0
   -2.9540    0.4510    1.8170 O   0  0  0  0  0  0  0  0  0  0  0  0
   -2.2420   -0.8100   -0.0220 C   0  0  0  0  0  0  0  0  0  0  0  0
   -0.9020   -0.8980    0.2890 C   0  0  0  0  0  0  0  0  0  0  0  0
   -0.2280   -1.6260   -0.6830 C   0  0  0  0  0  0  0  0  0  0  0  0
    1.1870   -1.9340   -0.7090 C   0  0  0  0  0  0  0  0  0  0  0  0
    1.6780   -2.6020   -1.6450 O   0  0  0  0  0  0  0  0  0  0  0  0
    1.9890   -1.4820    0.3120 O   0  0  0  0  0  0  0  0  0  0  0  0
    3.3780   -1.7250    0.3840 C   0  0  0  0  0  0  0  0  0  0  0  0
    3.9030   -1.0640    1.6540 C   0  0  0  0  0  0  0  0  0  0  0  0
    3.6600    0.3320    1.6190 O   0  0  0  0  0  0  0  0  0  0  0  0
    4.2570    1.0550    0.5410 C   0  0  0  0  0  0  0  0  0  0  0  0
    5.5250    1.2020    0.4710 C   0  0  0  0  0  0  0  0  0  0  0  0
    6.0880    1.9590   -0.6670 C   0  0  0  0  0  0  0  0  0  0  0  0
    4.6780    1.9420   -1.8150 S   0  0  0  0  0  0  0  0  0  0  0  0
    3.4130    1.6460   -0.5110 C   0  0  0  0  0  0  0  0  0  0  0  0
   -1.1760   -1.9750   -1.5830 N   0  0  0  0  0  0  0  0  0  0  0  0
   -2.3760   -1.5000   -1.2080 C   0  0  0  0  0  0  0  0  0  0  0  0
   -3.6300   -1.7060   -1.9770 C   0  0  0  0  0  0  0  0  0  0  0  0
  1  2  2  0
  2  3  1  0
  3  4  1  0
  4  5  1  0
  5  6  2  0
  5  7  1  0
  7  8  1  0
  7 22  2  0
  8  9  2  0
  9 10  1  0
  9 21  1  0
 10 11  2  0
 10 12  1  0
 12 13  1  0
 13 14  1  0
 14 15  1  0
 15 16  1  0
 16 17  2  0
 16 20  1  0
 17 18  1  0
 18 19  1  0
 19 20  1  0
 21 22  1  0
 22 23  1  0
M  END
