
     RDKit          3D

 20 20  0  0  0  0  0  0  0  0999 V2000
   -0.7750    1.4430    1.3130 C   0  0  0  0  0  0  0  0  0  0  0  0
   -1.0200    0.0830    0.7260 C   0  0  2  0  0  0  0  0  0  0  0  0
   -1.2390   -0.7670    1.8490 O   0  0  0  0  0  0  0  0  0  0  0  0
    0.0490   -0.4370   -0.1450 C   0  0  0  0  0  0  0  0  0  0  0  0
    1.4030   -0.6540    0.4090 C   0  0  2  0  0  0  0  0  0  0  0  0
    1.4370   -1.5510    1.4740 O   0  0  0  0  0  0  0  0  0  0  0  0
    2.1890    0.5570    0.7810 C   0  0  0  0  0  0  0  0  0  0  0  0
    3.5020    0.3050    1.0800 O   0  0  0  0  0  0  0  0  0  0  0  0
    4.3220   -0.2310    0.1550 C   0  0  2  0  0  0  0  0  0  0  0  0
    4.3550    0.6370   -0.9640 O   0  0  0  0  0  0  0  0  0  0  0  0
    4.1420   -1.5340   -0.2130 O   0  0  0  0  0  0  0  0  0  0  0  0
    5.7430   -0.1660    0.6350 N   0  0  0  0  0  0  0  0  0  0  0  0
    6.5150   -0.7180   -0.3340 O   0  0  0  0  0  0  0  0  0  0  0  0
   -2.3740    0.0920    0.0260 C   0  0  1  0  0  0  0  0  0  0  0  0
   -3.3750    0.5650    1.0820 C   0  0  0  0  0  0  0  0  0  0  0  0
   -2.4470    1.0420   -1.1130 C   0  0  0  0  0  0  0  0  0  0  0  0
   -3.3500    0.6590   -2.0980 O   0  0  0  0  0  0  0  0  0  0  0  0
   -4.4000   -0.0930   -1.6180 C   0  0  0  0  0  0  0  0  0  0  0  0
   -3.9300   -1.3350   -0.9010 C   0  0  0  0  0  0  0  0  0  0  0  0
   -2.6810   -1.1960   -0.3460 O   0  0  0  0  0  0  0  0  0  0  0  0
  2  1  1  1
  2  3  1  0
  2  4  1  0
  2 14  1  0
  4  5  1  0
  5  6  1  1
  5  7  1  0
  7  8  1  0
  8  9  1  0
  9 10  1  6
  9 11  1  0
  9 12  1  0
 12 13  1  0
 14 15  1  1
 14 16  1  0
 14 20  1  0
 16 17  1  0
 17 18  1  0
 18 19  1  0
 19 20  1  0
M  END
