
     RDKit          3D

 19 19  0  0  0  0  0  0  0  0999 V2000
   -3.9750    2.1350   -0.1590 N   0  0  0  0  0  0  0  0  0  0  0  0
   -3.5360    0.8670   -0.7320 C   0  0  0  0  0  0  0  0  0  0  0  0
   -2.3660    0.3020    0.0150 C   0  0  2  0  0  0  0  0  0  0  0  0
   -1.2730    1.1970   -0.0040 O   0  0  0  0  0  0  0  0  0  0  0  0
   -1.9570   -1.0380   -0.5280 C   0  0  2  0  0  0  0  0  0  0  0  0
   -1.5010   -0.9330   -1.8190 O   0  0  0  0  0  0  0  0  0  0  0  0
   -3.1880   -1.9570   -0.5860 C   0  0  0  0  0  0  0  0  0  0  0  0
   -3.7650   -2.1310    0.6550 O   0  0  0  0  0  0  0  0  0  0  0  0
   -0.9990   -1.6910    0.4340 C   0  0  0  0  0  0  0  0  0  0  0  0
    0.1570   -1.0210    0.5600 O   0  0  0  0  0  0  0  0  0  0  0  0
    0.9800   -0.8370   -0.5130 C   0  0  0  0  0  0  0  0  0  0  0  0
    2.2150   -0.1320    0.0280 C   0  0  2  0  0  0  0  0  0  0  0  0
    2.7720   -0.9820    0.9890 O   0  0  0  0  0  0  0  0  0  0  0  0
    1.8640    1.1720    0.7020 C   0  0  0  0  0  0  0  0  0  0  0  0
    3.1830    1.7900    1.1550 C   0  0  0  0  0  0  0  0  0  0  0  0
    4.2500    0.9080    0.9950 O   0  0  0  0  0  0  0  0  0  0  0  0
    4.4930    0.5950   -0.3380 C   0  0  0  0  0  0  0  0  0  0  0  0
    3.2210    0.1610   -1.0370 C   0  0  1  0  0  0  0  0  0  0  0  0
    3.4460   -0.9240   -1.8800 O   0  0  0  0  0  0  0  0  0  0  0  0
  1  2  1  0
  2  3  1  0
  3  4  1  6
  3  5  1  0
  5  6  1  6
  5  7  1  0
  5  9  1  0
  7  8  1  0
  9 10  1  0
 10 11  1  0
 11 12  1  0
 12 13  1  1
 12 14  1  0
 12 18  1  0
 14 15  1  0
 15 16  1  0
 16 17  1  0
 17 18  1  0
 18 19  1  1
M  END
