
     RDKit          3D

 19 19  0  0  0  0  0  0  0  0999 V2000
   -2.3350    0.8470   -0.8470 C   0  0  0  0  0  0  0  0  0  0  0  0
   -1.2790    0.5870    0.1730 C   0  0  2  0  0  0  0  0  0  0  0  0
   -1.5550   -0.5040    1.1360 C   0  0  1  0  0  0  0  0  0  0  0  0
   -2.5940   -0.0790    2.0600 O   0  0  0  0  0  0  0  0  0  0  0  0
   -2.2480   -1.7280    0.5320 C   0  0  0  0  0  0  0  0  0  0  0  0
   -2.4230   -2.6180    1.6230 O   0  0  0  0  0  0  0  0  0  0  0  0
   -1.1410    1.7630    0.9840 O   0  0  0  0  0  0  0  0  0  0  0  0
   -0.9800    2.8810    0.1910 C   0  0  0  0  0  0  0  0  0  0  0  0
   -0.6630    2.6770   -1.1140 O   0  0  0  0  0  0  0  0  0  0  0  0
    0.1990    1.6560   -1.4110 C   0  0  0  0  0  0  0  0  0  0  0  0
    0.1040    0.5060   -0.4450 C   0  0  1  0  0  0  0  0  0  0  0  0
    1.0910    0.8790    0.7000 C   0  0  0  0  0  0  0  0  0  0  0  0
    0.5680   -0.8020   -0.9540 C   0  0  2  0  0  0  0  0  0  0  0  0
    0.6850   -1.7700    0.0290 O   0  0  0  0  0  0  0  0  0  0  0  0
    1.8190   -0.7450   -1.7600 C   0  0  0  0  0  0  0  0  0  0  0  0
    3.0320   -0.4270   -1.1100 N   0  0  0  0  0  0  0  0  0  0  0  0
    3.6330   -1.1960   -0.0920 C   0  0  0  0  0  0  0  0  0  0  0  0
    3.1650   -2.2560    0.3520 O   0  0  0  0  0  0  0  0  0  0  0  0
    4.8310   -0.7600    0.4680 O   0  0  0  0  0  0  0  0  0  0  0  0
  2  1  1  6
  2  3  1  0
  2  7  1  0
  2 11  1  0
  3  4  1  1
  3  5  1  0
  5  6  1  0
  7  8  1  0
  8  9  1  0
  9 10  1  0
 10 11  1  0
 11 12  1  1
 11 13  1  0
 13 14  1  1
 13 15  1  0
 15 16  1  0
 16 17  1  0
 17 18  2  0
 17 19  1  0
M  END
