
     RDKit          3D

 19 19  0  0  0  0  0  0  0  0999 V2000
    4.8690    0.0740   -1.7590 N   0  0  0  0  0  0  0  0  0  0  0  0
    4.6610   -1.0130   -0.8060 C   0  0  0  0  0  0  0  0  0  0  0  0
    4.4990   -0.3970    0.5940 C   0  0  2  0  0  0  0  0  0  0  0  0
    4.2870   -1.3530    1.5650 O   0  0  0  0  0  0  0  0  0  0  0  0
    3.4970    0.7080    0.5850 C   0  0  0  0  0  0  0  0  0  0  0  0
    2.1740    0.3490    0.3850 O   0  0  0  0  0  0  0  0  0  0  0  0
    1.3710   -0.4310    1.1850 C   0  0  0  0  0  0  0  0  0  0  0  0
    1.8360   -0.8910    2.2310 O   0  0  0  0  0  0  0  0  0  0  0  0
   -0.0430   -0.7250    0.8090 C   0  0  0  0  0  0  0  0  0  0  0  0
   -0.8830    0.5130    0.9080 C   0  0  2  0  0  0  0  0  0  0  0  0
   -0.8360    0.9930    2.2090 O   0  0  0  0  0  0  0  0  0  0  0  0
   -2.3400    0.2540    0.6040 C   0  0  1  0  0  0  0  0  0  0  0  0
   -2.8880   -0.6460    1.4960 O   0  0  0  0  0  0  0  0  0  0  0  0
   -3.0490    1.5850    0.5430 C   0  0  0  0  0  0  0  0  0  0  0  0
   -4.0520    1.3500   -0.5960 C   0  0  0  0  0  0  0  0  0  0  0  0
   -3.9380   -0.1590   -0.7480 C   0  0  1  0  0  0  0  0  0  0  0  0
   -4.4970   -0.6760   -2.0390 C   0  0  0  0  0  0  0  0  0  0  0  0
   -4.0030   -0.0220   -3.1440 O   0  0  0  0  0  0  0  0  0  0  0  0
   -2.5280   -0.2950   -0.6900 O   0  0  0  0  0  0  0  0  0  0  0  0
  1  2  1  0
  2  3  1  0
  3  4  1  1
  3  5  1  0
  5  6  1  0
  6  7  1  0
  7  8  2  0
  7  9  1  0
  9 10  1  0
 10 11  1  1
 10 12  1  0
 12 13  1  1
 12 14  1  0
 12 19  1  0
 14 15  1  0
 15 16  1  0
 16 17  1  6
 16 19  1  0
 17 18  1  0
M  END
