
     RDKit          3D

 20 21  0  0  0  0  0  0  0  0999 V2000
   -2.9110   -1.7310    1.2770 C   0  0  0  0  0  0  0  0  0  0  0  0
   -3.5410   -0.5620    0.6650 C   0  0  0  0  0  0  0  0  0  0  0  0
   -4.7630   -0.7030    0.1020 C   0  0  0  0  0  0  0  0  0  0  0  0
   -5.4050    0.3510   -0.4870 O   0  0  0  0  0  0  0  0  0  0  0  0
   -4.9210    1.6520   -0.4000 C   0  0  0  0  0  0  0  0  0  0  0  0
   -3.5870    1.7460    0.2160 C   0  0  0  0  0  0  0  0  0  0  0  0
   -2.9030    0.7310    0.7280 C   0  0  0  0  0  0  0  0  0  0  0  0
   -1.3210    1.0010    1.3330 S   0  0  0  0  0  0  0  0  0  0  0  0
   -0.0610   -0.2030    1.2660 C   0  0  0  0  0  0  0  0  0  0  0  0
    0.5520   -0.4700   -0.0750 C   0  0  1  0  0  0  0  0  0  0  0  0
   -0.3680   -0.9470   -1.1470 C   0  0  0  0  0  0  0  0  0  0  0  0
    0.3660   -0.9610   -2.3640 O   0  0  0  0  0  0  0  0  0  0  0  0
    1.1460    0.8510   -0.6340 C   0  0  0  0  0  0  0  0  0  0  0  0
    2.5100    0.5890   -1.2270 C   0  0  0  0  0  0  0  0  0  0  0  0
    3.4080    0.2500   -0.0350 C   0  0  2  0  0  0  0  0  0  0  0  0
    3.5110    1.3840    0.7420 O   0  0  0  0  0  0  0  0  0  0  0  0
    4.8050   -0.1060   -0.5250 C   0  0  0  0  0  0  0  0  0  0  0  0
    5.5830   -0.3300    0.6120 O   0  0  0  0  0  0  0  0  0  0  0  0
    2.7260   -0.9040    0.6630 C   0  0  0  0  0  0  0  0  0  0  0  0
    1.5910   -1.3540    0.0500 O   0  0  0  0  0  0  0  0  0  0  0  0
  1  2  1  0
  2  3  2  0
  2  7  1  0
  3  4  1  0
  4  5  1  0
  5  6  1  0
  6  7  2  0
  7  8  1  0
  8  9  1  0
 10  9  1  1
 10 11  1  0
 10 13  1  0
 10 20  1  0
 11 12  1  0
 13 14  1  0
 14 15  1  0
 15 16  1  1
 15 17  1  0
 15 19  1  0
 17 18  1  0
 19 20  1  0
M  END
