
     RDKit          3D

 20 21  0  0  0  0  0  0  0  0999 V2000
    5.6500    0.7280   -1.1580 O   0  0  0  0  0  0  0  0  0  0  0  0
    4.9470    0.1170    0.0200 S   0  0  1  0  0  0  0  0  0  0  0  0
    4.0650    1.1710    0.7930 C   0  0  0  0  0  0  0  0  0  0  0  0
    4.6860    2.2820    1.3020 O   0  0  0  0  0  0  0  0  0  0  0  0
    2.6600    0.9800    0.9600 C   0  0  0  0  0  0  0  0  0  0  0  0
    1.9510   -0.0830    0.5440 C   0  0  0  0  0  0  0  0  0  0  0  0
    0.5110   -0.1100    0.8040 C   0  0  1  0  0  0  0  0  0  0  0  0
    0.1320    0.8740    1.7450 O   0  0  0  0  0  0  0  0  0  0  0  0
   -0.3810    0.0100   -0.3700 C   0  0  1  0  0  0  0  0  0  0  0  0
   -0.3050   -1.0400   -1.4220 C   0  0  0  0  0  0  0  0  0  0  0  0
   -0.7540   -2.3810   -0.9310 C   0  0  0  0  0  0  0  0  0  0  0  0
   -2.0930   -2.2530   -0.2790 C   0  0  0  0  0  0  0  0  0  0  0  0
   -2.7300   -0.9210   -0.3740 C   0  0  0  0  0  0  0  0  0  0  0  0
   -1.8360    0.2240    0.0460 C   0  0  1  0  0  0  0  0  0  0  0  0
   -1.9190    0.3100    1.4320 O   0  0  0  0  0  0  0  0  0  0  0  0
   -2.2810    1.5250   -0.5520 C   0  0  0  0  0  0  0  0  0  0  0  0
   -3.6970    1.8940   -0.2410 C   0  0  0  0  0  0  0  0  0  0  0  0
   -3.8920    2.0130    1.1310 O   0  0  0  0  0  0  0  0  0  0  0  0
    2.6110   -1.1600   -0.1640 C   0  0  0  0  0  0  0  0  0  0  0  0
    3.9070   -1.1950   -0.4550 C   0  0  0  0  0  0  0  0  0  0  0  0
  1  2  2  0
  2  3  2  0
  2 20  1  6
  3  4  1  0
  3  5  1  0
  5  6  2  0
  6  7  1  0
  6 19  1  0
  7  8  1  1
  7  9  1  0
  9 10  1  1
  9 14  1  0
 10 11  1  0
 11 12  1  0
 12 13  1  0
 13 14  1  0
 14 15  1  1
 14 16  1  0
 16 17  1  0
 17 18  1  0
 19 20  2  0
M  END
