
     RDKit          3D

 20 21  0  0  0  0  0  0  0  0999 V2000
   -4.7730    1.0280    1.3860 C   0  0  0  0  0  0  0  0  0  0  0  0
   -3.8840    1.1830    0.1490 C   0  0  0  0  0  0  0  0  0  0  0  0
   -3.3480   -0.1410   -0.2660 C   0  0  0  0  0  0  0  0  0  0  0  0
   -2.0810   -0.4900   -0.3420 C   0  0  0  0  0  0  0  0  0  0  0  0
   -0.8750    0.2730   -0.0580 C   0  0  0  0  0  0  0  0  0  0  0  0
   -0.9710    1.4590    0.3260 O   0  0  0  0  0  0  0  0  0  0  0  0
    0.4030   -0.3010   -0.2070 O   0  0  0  0  0  0  0  0  0  0  0  0
    1.5050    0.4910    0.0830 C   0  0  2  0  0  0  0  0  0  0  0  0
    2.4120    0.5530   -1.1370 C   0  0  0  0  0  0  0  0  0  0  0  0
    3.5770   -0.3990   -1.0170 C   0  0  0  0  0  0  0  0  0  0  0  0
    4.5220    0.0190    0.1050 C   0  0  2  0  0  0  0  0  0  0  0  0
    5.1580   -1.1110    0.6210 O   0  0  0  0  0  0  0  0  0  0  0  0
    3.6680    0.7080    1.1500 C   0  0  2  0  0  0  0  0  0  0  0  0
    4.2940    0.7460    2.3920 O   0  0  0  0  0  0  0  0  0  0  0  0
    2.3560   -0.0520    1.2120 C   0  0  0  0  0  0  0  0  0  0  0  0
   -2.0330   -1.8930   -0.7980 C   0  0  0  0  0  0  0  0  0  0  0  0
   -0.6880   -2.7700   -1.0430 S   0  0  0  0  0  0  0  0  0  0  0  0
   -3.4180   -2.2900   -0.9680 C   0  0  0  0  0  0  0  0  0  0  0  0
   -4.2060   -1.2930   -0.6660 C   0  0  0  0  0  0  0  0  0  0  0  0
   -5.5960   -1.2650   -0.6990 O   0  0  0  0  0  0  0  0  0  0  0  0
  1  2  1  0
  2  3  1  0
  3  4  2  0
  3 19  1  0
  4  5  1  0
  4 16  1  0
  5  6  2  0
  5  7  1  0
  8  7  1  6
  8  9  1  0
  8 15  1  0
  9 10  1  0
 10 11  1  0
 11 12  1  1
 11 13  1  0
 13 14  1  1
 13 15  1  0
 16 17  2  0
 16 18  1  0
 18 19  2  0
 19 20  1  0
M  END
