
     RDKit          3D

 13 13  0  0  0  0  0  0  0  0999 V2000
    5.0440    1.2860   -0.1410 O   0  0  0  0  0  0  0  0  0  0  0  0
    3.9630    0.1420   -0.2060 S   0  0  2  0  0  0  0  0  0  0  0  0
    3.9800   -0.7840    1.1890 O   0  0  0  0  0  0  0  0  0  0  0  0
    4.0680   -0.7470   -1.4820 O   0  0  0  0  0  0  0  0  0  0  0  0
    2.3500    0.9530   -0.1780 C   0  0  0  0  0  0  0  0  0  0  0  0
    1.3460   -0.1660   -0.2410 C   0  0  0  0  0  0  0  0  0  0  0  0
   -0.0210    0.3000   -0.2290 N   0  0  0  0  0  0  0  0  0  0  0  0
   -0.9040   -0.7000    0.2940 C   0  0  2  0  0  0  0  0  0  0  0  0
   -1.8870   -1.2160   -0.7320 C   0  0  0  0  0  0  0  0  0  0  0  0
   -3.2950   -0.7630   -0.4740 C   0  0  0  0  0  0  0  0  0  0  0  0
   -3.3770    0.6970   -0.0750 C   0  0  0  0  0  0  0  0  0  0  0  0
   -2.5370    0.9970    1.1310 C   0  0  0  0  0  0  0  0  0  0  0  0
   -1.6990   -0.2120    1.4860 C   0  0  0  0  0  0  0  0  0  0  0  0
  2  1  1  1
  2  3  1  0
  2  4  1  0
  2  5  1  0
  5  6  1  0
  6  7  1  0
  8  7  1  6
  8  9  1  0
  8 13  1  0
  9 10  1  0
 10 11  1  0
 11 12  1  0
 12 13  1  0
M  CHG  1   7   1
M  END
