
     RDKit          3D

 20 21  0  0  0  0  0  0  0  0999 V2000
   -1.7060    3.2230    2.1530 C   0  0  0  0  0  0  0  0  0  0  0  0
   -1.9450    1.8230    2.6360 C   0  0  2  0  0  0  0  0  0  0  0  0
   -1.0260    1.5140    3.6560 O   0  0  0  0  0  0  0  0  0  0  0  0
   -1.7040    0.9020    1.4600 C   0  0  0  0  0  0  0  0  0  0  0  0
   -2.5700    0.0820    0.9780 C   0  0  0  0  0  0  0  0  0  0  0  0
   -4.1970   -0.6540    0.9940 S   0  0  0  0  0  0  0  0  0  0  0  0
   -3.7400   -2.1860    0.1080 C   0  0  0  0  0  0  0  0  0  0  0  0
   -2.2480   -2.0370    0.0050 C   0  0  1  0  0  0  0  0  0  0  0  0
   -1.5110   -2.6750    1.1430 C   0  0  0  0  0  0  0  0  0  0  0  0
   -1.8610   -2.7240   -1.1640 O   0  0  0  0  0  0  0  0  0  0  0  0
   -1.9010   -0.6240   -0.1570 C   0  0  2  0  0  0  0  0  0  0  0  0
   -0.5760   -0.1140   -0.2020 C   0  0  0  0  0  0  0  0  0  0  0  0
    0.5490   -0.4660   -1.1070 C   0  0  0  0  0  0  0  0  0  0  0  0
    0.3670   -1.3300   -1.9770 O   0  0  0  0  0  0  0  0  0  0  0  0
    1.7560    0.1470   -0.9850 O   0  0  0  0  0  0  0  0  0  0  0  0
    2.8790   -0.1530   -1.8310 C   0  0  0  0  0  0  0  0  0  0  0  0
    4.0720    0.6780   -1.4620 C   0  0  1  0  0  0  0  0  0  0  0  0
    5.2110    0.3080   -2.3550 C   0  0  0  0  0  0  0  0  0  0  0  0
    3.8350    2.0400   -1.5760 O   0  0  0  0  0  0  0  0  0  0  0  0
   -0.4300    0.8060    0.7480 C   0  0  0  0  0  0  0  0  0  0  0  0
  2  1  1  6
  2  3  1  0
  2  4  1  0
  4  5  2  0
  4 20  1  0
  5  6  1  0
  5 11  1  0
  6  7  1  0
  7  8  1  0
  8  9  1  1
  8 10  1  0
  8 11  1  0
 11 12  1  1
 12 13  1  0
 12 20  2  0
 13 14  2  0
 13 15  1  0
 15 16  1  0
 16 17  1  0
 17 18  1  6
 17 19  1  0
M  END
