
     RDKit          3D

 36 39  0  0  0  0  0  0  0  0999 V2000
    9.2880   -0.5190    2.3140 C   0  0  0  0  0  0  0  0  0  0  0  0
    8.5240   -0.5660    1.4220 C   0  0  0  0  0  0  0  0  0  0  0  0
    7.6240   -0.6090    0.3370 C   0  0  0  0  0  0  0  0  0  0  0  0
    6.2740   -0.5810    0.7280 C   0  0  0  0  0  0  0  0  0  0  0  0
    5.1470   -0.4780    0.1030 C   0  0  0  0  0  0  0  0  0  0  0  0
    5.3410   -0.3660   -1.4100 C   0  0  0  0  0  0  0  0  0  0  0  0
    4.0420   -0.1940   -2.0510 C   0  0  0  0  0  0  0  0  0  0  0  0
    3.9120    0.5170   -3.0540 O   0  0  0  0  0  0  0  0  0  0  0  0
    2.9180   -0.8560   -1.4790 N   0  0  0  0  0  0  0  0  0  0  0  0
    1.5760   -0.7810   -1.8220 C   0  0  0  0  0  0  0  0  0  0  0  0
    0.9620   -1.5560   -2.7510 C   0  0  0  0  0  0  0  0  0  0  0  0
   -0.4390   -1.4940   -2.8750 C   0  0  0  0  0  0  0  0  0  0  0  0
   -1.1690   -0.7000   -2.1130 C   0  0  0  0  0  0  0  0  0  0  0  0
   -2.5700   -0.7770   -2.1800 C   0  0  0  0  0  0  0  0  0  0  0  0
   -3.0260   -1.5160   -3.1200 O   0  0  0  0  0  0  0  0  0  0  0  0
   -3.3290   -0.1100   -1.3330 N   0  0  0  0  0  0  0  0  0  0  0  0
   -4.7660   -0.3180   -1.3340 C   0  0  0  0  0  0  0  0  0  0  0  0
   -5.1330   -1.3160   -0.2430 C   0  0  0  0  0  0  0  0  0  0  0  0
   -4.2340   -2.5290   -0.3590 C   0  0  0  0  0  0  0  0  0  0  0  0
   -4.5110   -3.4940    0.7810 C   0  0  0  0  0  0  0  0  0  0  0  0
   -3.5000   -4.6240    0.7530 C   0  0  0  0  0  0  0  0  0  0  0  0
   -2.6290   -4.5820   -0.1080 O   0  0  0  0  0  0  0  0  0  0  0  0
   -2.7620    0.6790   -0.3760 C   0  0  0  0  0  0  0  0  0  0  0  0
   -3.5510    1.3330    0.4850 N   0  0  0  0  0  0  0  0  0  0  0  0
   -2.9900    2.1340    1.4450 C   0  0  0  0  0  0  0  0  0  0  0  0
   -3.9000    2.7630    2.3270 N   0  0  0  0  0  0  0  0  0  0  0  0
   -1.6290    2.2710    1.5310 C   0  0  0  0  0  0  0  0  0  0  0  0
   -1.0760    3.0960    2.6040 C   0  0  2  0  0  0  0  0  0  0  0  0
   -0.7970    4.5210    2.0530 C   0  0  0  0  0  0  0  0  0  0  0  0
    0.3330    2.6360    3.0120 C   0  0  0  0  0  0  0  0  0  0  0  0
   -0.7860    1.6130    0.6770 C   0  0  0  0  0  0  0  0  0  0  0  0
   -1.3540    0.7980   -0.2940 C   0  0  0  0  0  0  0  0  0  0  0  0
   -0.5650    0.1030   -1.1590 C   0  0  0  0  0  0  0  0  0  0  0  0
    0.7920    0.0870   -0.9900 C   0  0  0  0  0  0  0  0  0  0  0  0
    6.5890   -0.3960   -1.8080 C   0  0  0  0  0  0  0  0  0  0  0  0
    7.7590   -0.5100   -1.0180 C   0  0  0  0  0  0  0  0  0  0  0  0
  1  2  3  0
  2  3  1  0
  3  4  2  0
  3 36  1  0
  4  5  1  0
  5  6  2  0
  6  7  1  0
  6 35  1  0
  7  8  2  0
  7  9  1  0
  9 10  1  0
 10 11  2  0
 10 34  1  0
 11 12  1  0
 12 13  2  0
 13 14  1  0
 13 33  1  0
 14 15  2  0
 14 16  1  0
 16 17  1  0
 16 23  1  0
 17 18  1  0
 18 19  1  0
 19 20  1  0
 20 21  1  0
 21 22  2  0
 23 24  2  0
 23 32  1  0
 24 25  1  0
 25 26  1  0
 25 27  2  0
 27 28  1  0
 27 31  1  0
 28 29  1  6
 28 30  1  0
 31 32  2  0
 32 33  1  0
 33 34  2  0
 35 36  2  0
M  CHG  1  24   1
M  END
