
     RDKit          3D

 36 39  0  0  0  0  0  0  0  0999 V2000
   -3.4450   -2.5390   -3.4380 C   0  0  0  0  0  0  0  0  0  0  0  0
   -3.6860   -1.4030   -2.5710 N   0  0  0  0  0  0  0  0  0  0  0  0
   -4.6650   -0.5670   -2.7970 C   0  0  0  0  0  0  0  0  0  0  0  0
   -5.6570   -0.6120   -3.9130 C   0  0  0  0  0  0  0  0  0  0  0  0
   -6.5340    0.5870   -3.5980 C   0  0  0  0  0  0  0  0  0  0  0  0
   -5.6150    1.5120   -2.7900 C   0  0  0  0  0  0  0  0  0  0  0  0
   -4.9230    0.5570   -1.9600 N   0  0  0  0  0  0  0  0  0  0  0  0
   -4.5740    0.7130   -0.5870 C   0  0  0  0  0  0  0  0  0  0  0  0
   -4.8750    1.8550    0.1210 C   0  0  0  0  0  0  0  0  0  0  0  0
   -4.5410    2.0140    1.4500 C   0  0  0  0  0  0  0  0  0  0  0  0
   -3.8750    0.9950    2.1250 C   0  0  0  0  0  0  0  0  0  0  0  0
   -3.5250    1.1570    3.5410 C   0  0  0  0  0  0  0  0  0  0  0  0
   -3.7310    0.1760    4.4870 C   0  0  0  0  0  0  0  0  0  0  0  0
   -3.3720    0.4040    5.8160 C   0  0  0  0  0  0  0  0  0  0  0  0
   -2.8100    1.5990    6.2130 C   0  0  0  0  0  0  0  0  0  0  0  0
   -2.6170    2.5420    5.2760 N   0  0  0  0  0  0  0  0  0  0  0  0
   -2.9600    2.3380    3.9760 C   0  0  0  0  0  0  0  0  0  0  0  0
   -3.5860   -0.1370    1.3950 C   0  0  0  0  0  0  0  0  0  0  0  0
   -2.7280   -1.4700    2.2060 S   0  0  0  0  0  0  0  0  0  0  0  0
   -0.9430   -1.3570    2.0790 C   0  0  0  0  0  0  0  0  0  0  0  0
   -0.4240   -0.1710    2.8260 C   0  0  0  0  0  0  0  0  0  0  0  0
    1.0360   -0.0800    2.7270 N   0  0  0  0  0  0  0  0  0  0  0  0
    1.7010    0.0640    1.4850 C   0  0  0  0  0  0  0  0  0  0  0  0
    1.0420    0.1210    0.4080 O   0  0  0  0  0  0  0  0  0  0  0  0
    3.1470    0.1470    1.4590 C   0  0  0  0  0  0  0  0  0  0  0  0
    3.7820    0.0800    2.5410 O   0  0  0  0  0  0  0  0  0  0  0  0
    3.8900    0.3020    0.2590 N   0  0  0  0  0  0  0  0  0  0  0  0
    3.2910    0.4020   -1.0610 C   0  0  0  0  0  0  0  0  0  0  0  0
    4.3720    0.9020   -2.0140 C   0  0  0  0  0  0  0  0  0  0  0  0
    5.4840   -0.1350   -2.0930 C   0  0  0  0  0  0  0  0  0  0  0  0
    5.9590   -0.5490   -0.7360 C   0  0  1  0  0  0  0  0  0  0  0  0
    5.5900   -1.9770   -0.4820 C   0  0  0  0  0  0  0  0  0  0  0  0
    7.4640   -0.3890   -0.5890 C   0  0  0  0  0  0  0  0  0  0  0  0
    8.1710   -1.2100   -1.5750 N   0  0  0  0  0  0  0  0  0  0  0  0
    5.3340    0.3650    0.3100 C   0  0  0  0  0  0  0  0  0  0  0  0
   -3.9320   -0.2580    0.0830 N   0  0  0  0  0  0  0  0  0  0  0  0
  1  2  1  0
  2  3  2  3
  3  4  1  0
  3  7  1  0
  4  5  1  0
  5  6  1  0
  6  7  1  0
  7  8  1  0
  8  9  2  0
  8 36  1  0
  9 10  1  0
 10 11  2  0
 11 12  1  0
 11 18  1  0
 12 13  2  0
 12 17  1  0
 13 14  1  0
 14 15  2  0
 15 16  1  0
 16 17  2  0
 18 19  1  0
 18 36  2  0
 19 20  1  0
 20 21  1  0
 21 22  1  0
 22 23  1  0
 23 24  2  0
 23 25  1  0
 25 26  2  0
 25 27  1  0
 27 28  1  0
 27 35  1  0
 28 29  1  0
 29 30  1  0
 30 31  1  0
 31 32  1  1
 31 33  1  0
 31 35  1  0
 33 34  1  0
M  CHG  1  34   1
M  END
