
     RDKit          3D

 36 39  0  0  0  0  0  0  0  0999 V2000
    8.2110   -0.4180   -3.6410 C   0  0  0  0  0  0  0  0  0  0  0  0
    7.9130   -0.2600   -2.1910 C   0  0  0  0  0  0  0  0  0  0  0  0
    8.1410    0.9360   -1.5310 C   0  0  0  0  0  0  0  0  0  0  0  0
    7.8620    1.0780   -0.1910 C   0  0  0  0  0  0  0  0  0  0  0  0
    7.3360    0.0230    0.5670 C   0  0  0  0  0  0  0  0  0  0  0  0
    7.0940    0.1530    1.9540 N   0  0  0  0  0  0  0  0  0  0  0  0
    8.0370   -0.2390    2.8670 N   0  0  0  0  0  0  0  0  0  0  0  0
    7.5970   -0.0050    4.0700 N   0  0  0  0  0  0  0  0  0  0  0  0
    6.4160    0.5190    3.9880 N   0  0  0  0  0  0  0  0  0  0  0  0
    6.0840    0.6240    2.6380 C   0  0  0  0  0  0  0  0  0  0  0  0
    4.8340    1.1440    2.2470 N   0  0  0  0  0  0  0  0  0  0  0  0
    4.2420    1.2720    1.0050 C   0  0  0  0  0  0  0  0  0  0  0  0
    4.8030    0.8760   -0.0160 O   0  0  0  0  0  0  0  0  0  0  0  0
    2.6120    2.0220    0.7580 S   0  0  0  0  0  0  0  0  0  0  0  0
    2.0250    2.5430    2.3570 C   0  0  0  0  0  0  0  0  0  0  0  0
    0.9990    1.9390    2.9090 C   0  0  0  0  0  0  0  0  0  0  0  0
    0.3250    0.8250    2.2110 C   0  0  0  0  0  0  0  0  0  0  0  0
   -1.1030    1.2390    1.9890 C   0  0  0  0  0  0  0  0  0  0  0  0
   -1.5270    2.3690    2.3620 O   0  0  0  0  0  0  0  0  0  0  0  0
   -2.0080    0.3550    1.3500 N   0  0  0  0  0  0  0  0  0  0  0  0
   -3.4030    0.6840    1.0990 C   0  0  1  0  0  0  0  0  0  0  0  0
   -3.7100    0.7540   -0.3810 C   0  0  0  0  0  0  0  0  0  0  0  0
   -5.2290    0.7270   -0.4980 C   0  0  0  0  0  0  0  0  0  0  0  0
   -5.6650   -0.6800   -0.2510 C   0  0  2  0  0  0  0  0  0  0  0  0
   -7.1630   -0.8580   -0.3420 C   0  0  0  0  0  0  0  0  0  0  0  0
   -7.6450   -0.4770   -1.6890 C   0  0  0  0  0  0  0  0  0  0  0  0
   -8.0260    0.8540   -1.8860 C   0  0  0  0  0  0  0  0  0  0  0  0
   -8.4760    1.2280   -3.1310 C   0  0  0  0  0  0  0  0  0  0  0  0
   -8.5760    0.3950   -4.1800 N   0  0  0  0  0  0  0  0  0  0  0  0
   -8.2020   -0.8950   -3.9730 C   0  0  0  0  0  0  0  0  0  0  0  0
   -7.7440   -1.3250   -2.7470 C   0  0  0  0  0  0  0  0  0  0  0  0
   -5.1340   -1.1600    1.0510 C   0  0  0  0  0  0  0  0  0  0  0  0
   -4.3560   -0.1790    1.8520 C   0  0  0  0  0  0  0  0  0  0  0  0
    7.1160   -1.1610   -0.1120 C   0  0  0  0  0  0  0  0  0  0  0  0
    6.5490   -2.3160    0.6690 C   0  0  0  0  0  0  0  0  0  0  0  0
    7.3960   -1.2980   -1.4530 C   0  0  0  0  0  0  0  0  0  0  0  0
  1  2  1  0
  2  3  2  0
  2 36  1  0
  3  4  1  0
  4  5  2  0
  5  6  1  0
  5 34  1  0
  6  7  1  0
  6 10  1  0
  7  8  2  0
  8  9  1  0
  9 10  2  0
 10 11  1  0
 11 12  1  0
 12 13  2  0
 12 14  1  0
 14 15  1  0
 15 16  2  3
 16 17  1  0
 17 18  1  0
 18 19  2  0
 18 20  1  0
 21 20  1  6
 21 22  1  0
 21 33  1  0
 22 23  1  0
 23 24  1  0
 24 25  1  1
 24 32  1  0
 25 26  1  0
 26 27  2  0
 26 31  1  0
 27 28  1  0
 28 29  2  0
 29 30  1  0
 30 31  2  0
 32 33  1  0
 34 35  1  0
 34 36  2  0
M  CHG  1  29   1
M  END
