
     RDKit          3D

 36 39  0  0  0  0  0  0  0  0999 V2000
    8.7130    1.3210   -3.0040 C   0  0  0  0  0  0  0  0  0  0  0  0
    7.5830    1.9260   -3.2330 C   0  0  0  0  0  0  0  0  0  0  0  0
    6.3870    1.7770   -2.4040 C   0  0  0  0  0  0  0  0  0  0  0  0
    5.3530    2.4130   -2.7300 O   0  0  0  0  0  0  0  0  0  0  0  0
    6.3700    0.9420   -1.2590 N   0  0  0  0  0  0  0  0  0  0  0  0
    5.2690    0.7280   -0.3940 C   0  0  0  0  0  0  0  0  0  0  0  0
    4.0390    1.3040   -0.5370 C   0  0  0  0  0  0  0  0  0  0  0  0
    2.9680    1.0680    0.3470 C   0  0  0  0  0  0  0  0  0  0  0  0
    3.1130    0.2300    1.4180 C   0  0  0  0  0  0  0  0  0  0  0  0
    2.0970   -0.0610    2.3600 N   0  0  0  0  0  0  0  0  0  0  0  0
    0.7810    0.4230    2.3770 C   0  0  0  0  0  0  0  0  0  0  0  0
    0.3920    1.2000    1.4900 O   0  0  0  0  0  0  0  0  0  0  0  0
   -0.2010    0.0340    3.4440 C   0  0  0  0  0  0  0  0  0  0  0  0
   -1.7610    0.8560    3.1160 S   0  0  0  0  0  0  0  0  0  0  0  0
   -2.4590    0.1860    1.5940 C   0  0  0  0  0  0  0  0  0  0  0  0
   -1.8260   -0.7760    0.9000 N   0  0  0  0  0  0  0  0  0  0  0  0
   -2.3610   -1.2520   -0.2120 N   0  0  0  0  0  0  0  0  0  0  0  0
   -3.5340   -0.8200   -0.7050 C   0  0  0  0  0  0  0  0  0  0  0  0
   -4.2030    0.1620   -0.0180 C   0  0  0  0  0  0  0  0  0  0  0  0
   -3.6320    0.6250    1.1080 N   0  0  0  0  0  0  0  0  0  0  0  0
   -5.3870    0.8950   -0.1290 N   0  0  2  0  0  0  0  0  0  0  0  0
   -6.0870    1.0580    1.1390 C   0  0  0  0  0  0  0  0  0  0  0  0
   -6.9320    2.2900    1.0900 C   0  0  0  0  0  0  0  0  0  0  0  0
   -6.3040    0.4250   -1.1360 C   0  0  0  0  0  0  0  0  0  0  0  0
   -5.7340    0.4400   -2.5140 C   0  0  0  0  0  0  0  0  0  0  0  0
   -5.8530   -0.9620   -3.0700 C   0  0  0  0  0  0  0  0  0  0  0  0
   -5.1190   -1.9820   -2.2530 C   0  0  0  0  0  0  0  0  0  0  0  0
   -3.7080   -1.6270   -1.9220 C   0  0  1  0  0  0  0  0  0  0  0  0
   -2.9660   -0.9630   -3.0630 C   0  0  0  0  0  0  0  0  0  0  0  0
    4.3600   -0.3580    1.5680 C   0  0  0  0  0  0  0  0  0  0  0  0
    4.5000   -1.1870    2.6270 N   0  0  0  0  0  0  0  0  0  0  0  0
    5.6480   -1.8140    2.8830 C   0  0  0  0  0  0  0  0  0  0  0  0
    5.7950   -2.7380    4.0680 C   0  0  0  0  0  0  0  0  0  0  0  0
    6.7100   -1.6060    2.0410 C   0  0  0  0  0  0  0  0  0  0  0  0
    6.6300   -0.7680    0.9380 C   0  0  0  0  0  0  0  0  0  0  0  0
    5.4350   -0.1320    0.6950 C   0  0  0  0  0  0  0  0  0  0  0  0
  1  2  2  0
  2  3  1  0
  3  4  2  0
  3  5  1  0
  5  6  1  0
  6  7  2  0
  6 36  1  0
  7  8  1  0
  8  9  2  0
  9 10  1  0
  9 30  1  0
 10 11  1  0
 11 12  2  0
 11 13  1  0
 13 14  1  0
 14 15  1  0
 15 16  2  0
 15 20  1  0
 16 17  1  0
 17 18  2  0
 18 19  1  0
 18 28  1  0
 19 20  2  0
 19 21  1  0
 21 22  1  1
 21 24  1  0
 22 23  1  0
 24 25  1  0
 25 26  1  0
 26 27  1  0
 27 28  1  0
 28 29  1  6
 30 31  2  0
 30 36  1  0
 31 32  1  0
 32 33  1  0
 32 34  2  0
 34 35  1  0
 35 36  2  0
M  CHG  1  21   1
M  END
