
     RDKit          3D

 36 37  0  0  0  0  0  0  0  0999 V2000
    0.7100   -2.1320    2.9790 C   0  0  0  0  0  0  0  0  0  0  0  0
    1.3000   -3.0740    2.1810 O   0  0  0  0  0  0  0  0  0  0  0  0
    1.2200   -2.8010    0.8050 C   0  0  1  0  0  0  0  0  0  0  0  0
    2.5620   -2.7820    0.1800 C   0  0  0  0  0  0  0  0  0  0  0  0
    3.2160   -1.4440    0.0250 C   0  0  2  0  0  0  0  0  0  0  0  0
    3.5080   -0.8410    1.3550 C   0  0  0  0  0  0  0  0  0  0  0  0
    2.4430   -0.5410   -0.9210 C   0  0  0  0  0  0  0  0  0  0  0  0
    2.8630    0.8750   -0.7820 C   0  0  0  0  0  0  0  0  0  0  0  0
    3.9210    1.1290   -1.6850 C   0  0  0  0  0  0  0  0  0  0  0  0
    4.5340    2.3460   -1.8240 C   0  0  0  0  0  0  0  0  0  0  0  0
    5.5720    2.5640   -2.7210 O   0  0  0  0  0  0  0  0  0  0  0  0
    4.0420    3.3250   -1.0130 C   0  0  0  0  0  0  0  0  0  0  0  0
    2.9800    3.1420   -0.0810 C   0  0  0  0  0  0  0  0  0  0  0  0
    2.4010    1.8980    0.0200 C   0  0  0  0  0  0  0  0  0  0  0  0
    2.7180    4.3830    0.5960 N   0  0  0  0  0  0  0  0  0  0  0  0
    1.4560    4.9620    0.9920 C   0  0  0  0  0  0  0  0  0  0  0  0
    1.5090    6.1640    1.4830 O   0  0  0  0  0  0  0  0  0  0  0  0
    0.0710    4.3280    0.9030 C   0  0  0  0  0  0  0  0  0  0  0  0
   -0.5160    4.6000    2.3060 C   0  0  0  0  0  0  0  0  0  0  0  0
   -0.4660    3.7200   -0.0970 C   0  0  0  0  0  0  0  0  0  0  0  0
   -1.7060    3.0040   -0.5630 C   0  0  0  0  0  0  0  0  0  0  0  0
   -1.3850    1.5240   -0.7880 C   0  0  0  0  0  0  0  0  0  0  0  0
   -2.6100    0.7220   -1.0300 C   0  0  2  0  0  0  0  0  0  0  0  0
   -3.8540    1.5870   -1.2140 C   0  0  0  0  0  0  0  0  0  0  0  0
   -2.9150   -0.3490   -0.1190 C   0  0  1  0  0  0  0  0  0  0  0  0
   -4.3010   -0.6780   -0.4150 O   0  0  0  0  0  0  0  0  0  0  0  0
   -5.3360   -0.4190    0.4360 C   0  0  0  0  0  0  0  0  0  0  0  0
   -6.6540   -0.7720    0.0750 N   0  0  0  0  0  0  0  0  0  0  0  0
   -5.1330    0.1320    1.5440 O   0  0  0  0  0  0  0  0  0  0  0  0
   -2.2060   -1.7120   -0.0930 C   0  0  0  0  0  0  0  0  0  0  0  0
   -3.0200   -2.3520    1.0500 C   0  0  0  0  0  0  0  0  0  0  0  0
   -1.2370   -2.1720   -0.8100 C   0  0  0  0  0  0  0  0  0  0  0  0
   -0.4010   -3.4130   -0.9760 C   0  0  2  0  0  0  0  0  0  0  0  0
   -1.1110   -4.5760   -1.6120 C   0  0  0  0  0  0  0  0  0  0  0  0
    0.3240   -3.8930    0.2360 C   0  0  1  0  0  0  0  0  0  0  0  0
    1.0360   -5.0210   -0.0820 O   0  0  0  0  0  0  0  0  0  0  0  0
  1  2  1  0
  3  2  1  1
  3  4  1  0
  3 35  1  0
  4  5  1  0
  5  6  1  1
  5  7  1  0
  7  8  1  0
  8  9  2  0
  8 14  1  0
  9 10  1  0
 10 11  1  0
 10 12  2  0
 12 13  1  0
 13 14  2  0
 13 15  1  0
 15 16  1  0
 16 17  2  0
 16 18  1  0
 18 19  1  0
 18 20  2  0
 20 21  1  0
 21 22  1  0
 22 23  1  0
 23 24  1  1
 23 25  1  0
 25 26  1  6
 25 30  1  0
 26 27  1  0
 27 28  1  0
 27 29  2  0
 30 31  1  0
 30 32  2  0
 32 33  1  0
 33 34  1  1
 33 35  1  0
 35 36  1  6
M  END
