
     RDKit          3D

 36 40  0  0  0  0  0  0  0  0999 V2000
   -4.9230    0.1100    1.6460 O   0  0  0  0  0  0  0  0  0  0  0  0
   -5.2680    1.0150    0.8660 C   0  0  0  0  0  0  0  0  0  0  0  0
   -4.3620    2.1350    0.5730 C   0  0  0  0  0  0  0  0  0  0  0  0
   -3.1120    1.9440    1.3300 C   0  0  0  0  0  0  0  0  0  0  0  0
   -2.7640    2.3450    2.5920 C   0  0  0  0  0  0  0  0  0  0  0  0
   -1.5310    2.0270    3.0360 C   0  0  0  0  0  0  0  0  0  0  0  0
   -0.7080    1.3490    2.2520 C   0  0  0  0  0  0  0  0  0  0  0  0
    0.6410    0.8780    2.4580 N   0  0  0  0  0  0  0  0  0  0  0  0
    1.3030    0.1670    1.4210 C   0  0  0  0  0  0  0  0  0  0  0  0
    0.6640   -0.0130    0.3610 O   0  0  0  0  0  0  0  0  0  0  0  0
    2.6190   -0.3290    1.5420 N   0  0  0  0  0  0  0  0  0  0  0  0
    3.2870   -1.0450    0.4850 C   0  0  0  0  0  0  0  0  0  0  0  0
    3.4180   -0.1690   -0.7140 C   0  0  2  0  0  0  0  0  0  0  0  0
    4.1210   -0.8910   -1.8530 C   0  0  0  0  0  0  0  0  0  0  0  0
    5.6160   -0.8740   -1.7320 C   0  0  0  0  0  0  0  0  0  0  0  0
    6.1520    0.4360   -1.5170 N   0  0  0  0  0  0  0  0  0  0  0  0
    7.0490    0.4020   -0.3860 C   0  0  0  0  0  0  0  0  0  0  0  0
    8.1560   -0.5490   -0.7070 C   0  0  0  0  0  0  0  0  0  0  0  0
    8.7900   -1.2660    0.2730 C   0  0  0  0  0  0  0  0  0  0  0  0
    9.8050   -2.1200   -0.1110 C   0  0  0  0  0  0  0  0  0  0  0  0
   10.1830   -2.2630   -1.4240 C   0  0  0  0  0  0  0  0  0  0  0  0
    9.5440   -1.5470   -2.3680 N   0  0  0  0  0  0  0  0  0  0  0  0
    8.5570   -0.7130   -2.0120 C   0  0  0  0  0  0  0  0  0  0  0  0
    5.1680    1.4580   -1.3560 C   0  0  0  0  0  0  0  0  0  0  0  0
    4.0830    1.1520   -0.3770 C   0  0  0  0  0  0  0  0  0  0  0  0
   -1.6450    1.0960    0.7670 S   0  0  0  0  0  0  0  0  0  0  0  0
   -6.5410    0.9660    0.2590 N   0  0  0  0  0  0  0  0  0  0  0  0
   -7.4660   -0.1330    0.5300 C   0  0  1  0  0  0  0  0  0  0  0  0
   -8.6800    0.4440    1.2270 C   0  0  0  0  0  0  0  0  0  0  0  0
   -9.6590   -0.6460    1.5090 C   0  0  0  0  0  0  0  0  0  0  0  0
   -9.9950   -1.5160    0.3490 C   0  0  0  0  0  0  0  0  0  0  0  0
   -9.0680   -1.4240   -0.7590 N   0  0  0  0  0  0  0  0  0  0  0  0
   -9.2130   -1.9340   -1.9900 C   0  0  0  0  0  0  0  0  0  0  0  0
   -8.0890   -1.6000   -2.7050 C   0  0  0  0  0  0  0  0  0  0  0  0
   -7.2930   -0.9050   -1.9150 N   0  0  0  0  0  0  0  0  0  0  0  0
   -7.8900   -0.7950   -0.7200 C   0  0  0  0  0  0  0  0  0  0  0  0
  1  2  2  0
  2  3  1  0
  2 27  1  0
  3  4  1  0
  4  5  2  0
  4 26  1  0
  5  6  1  0
  6  7  2  0
  7  8  1  0
  7 26  1  0
  8  9  1  0
  9 10  2  0
  9 11  1  0
 11 12  1  0
 13 12  1  1
 13 14  1  0
 13 25  1  0
 14 15  1  0
 15 16  1  0
 16 17  1  0
 16 24  1  0
 17 18  1  0
 18 19  2  0
 18 23  1  0
 19 20  1  0
 20 21  2  0
 21 22  1  0
 22 23  2  0
 24 25  1  0
 28 27  1  6
 28 29  1  0
 28 36  1  0
 29 30  1  0
 30 31  1  0
 31 32  1  0
 32 33  1  0
 32 36  1  0
 33 34  2  0
 34 35  1  0
 35 36  2  0
M  CHG  1  22   1
M  END
