
     RDKit          3D

 40 41  0  0  0  0  0  0  0  0999 V2000
   -3.2670   -3.5140   -0.8440 C   0  0  0  0  0  0  0  0  0  0  0  0
   -2.5140   -2.4770   -0.3200 O   0  0  0  0  0  0  0  0  0  0  0  0
   -2.0900   -1.5400   -1.2220 C   0  0  1  0  0  0  0  0  0  0  0  0
   -2.4930   -0.1130   -0.9450 C   0  0  0  0  0  0  0  0  0  0  0  0
   -3.6140    0.0340    0.0170 C   0  0  2  0  0  0  0  0  0  0  0  0
   -4.8710   -0.4970   -0.7160 C   0  0  0  0  0  0  0  0  0  0  0  0
   -3.9350    1.3540    0.5400 C   0  0  1  0  0  0  0  0  0  0  0  0
   -4.4570    1.1210    1.8600 O   0  0  0  0  0  0  0  0  0  0  0  0
   -5.8050    1.3270    1.8650 C   0  0  0  0  0  0  0  0  0  0  0  0
   -3.0860    2.5590    0.5110 C   0  0  0  0  0  0  0  0  0  0  0  0
   -3.8040    3.6040    0.0210 C   0  0  0  0  0  0  0  0  0  0  0  0
   -3.2830    4.9550   -0.1250 C   0  0  0  0  0  0  0  0  0  0  0  0
   -3.9880    5.8980   -0.5820 O   0  0  0  0  0  0  0  0  0  0  0  0
   -1.9220    5.1380    0.2840 C   0  0  0  0  0  0  0  0  0  0  0  0
   -1.1140    4.1420    0.7810 C   0  0  0  0  0  0  0  0  0  0  0  0
    0.1900    4.6760    1.0120 N   0  0  0  0  0  0  0  0  0  0  0  0
    1.4930    4.3090    0.4360 C   0  0  0  0  0  0  0  0  0  0  0  0
    2.4730    5.1130    0.5400 O   0  0  0  0  0  0  0  0  0  0  0  0
    1.7520    3.0650   -0.2660 C   0  0  0  0  0  0  0  0  0  0  0  0
    1.9290    3.1200   -1.7990 C   0  0  0  0  0  0  0  0  0  0  0  0
    1.9920    1.8360    0.1950 C   0  0  0  0  0  0  0  0  0  0  0  0
    2.1110    1.2550    1.4960 C   0  0  0  0  0  0  0  0  0  0  0  0
    3.0310    0.4550    2.0460 C   0  0  0  0  0  0  0  0  0  0  0  0
    4.2520   -0.1140    1.4760 C   0  0  2  0  0  0  0  0  0  0  0  0
    4.9340    1.0080    0.7050 C   0  0  0  0  0  0  0  0  0  0  0  0
    3.9720   -1.2840    0.5820 C   0  0  1  0  0  0  0  0  0  0  0  0
    4.8500   -2.3480    0.9730 O   0  0  0  0  0  0  0  0  0  0  0  0
    5.8400   -2.8370    0.1440 C   0  0  0  0  0  0  0  0  0  0  0  0
    6.7250   -3.8870    0.4970 N   0  0  0  0  0  0  0  0  0  0  0  0
    5.9210   -2.2810   -0.9880 O   0  0  0  0  0  0  0  0  0  0  0  0
    2.5540   -1.8780    0.7670 C   0  0  0  0  0  0  0  0  0  0  0  0
    2.7950   -2.6340    2.0870 C   0  0  0  0  0  0  0  0  0  0  0  0
    1.5050   -1.7460    0.0320 C   0  0  0  0  0  0  0  0  0  0  0  0
    0.0520   -2.1790   -0.0480 C   0  0  2  0  0  0  0  0  0  0  0  0
   -0.2580   -3.6020    0.1430 C   0  0  0  0  0  0  0  0  0  0  0  0
   -0.5990   -1.6920   -1.3670 C   0  0  1  0  0  0  0  0  0  0  0  0
   -0.4110   -2.8160   -2.2260 O   0  0  0  0  0  0  0  0  0  0  0  0
    0.3590   -2.5090   -3.3190 C   0  0  0  0  0  0  0  0  0  0  0  0
   -1.6850    2.8070    0.9160 C   0  0  0  0  0  0  0  0  0  0  0  0
   -0.9890    1.7910    1.4020 O   0  0  0  0  0  0  0  0  0  0  0  0
  1  2  1  0
  3  2  1  1
  3  4  1  0
  3 36  1  0
  4  5  1  0
  5  6  1  6
  5  7  1  0
  7  8  1  1
  7 10  1  0
  8  9  1  0
 10 11  2  0
 10 39  1  0
 11 12  1  0
 12 13  2  0
 12 14  1  0
 14 15  2  0
 15 16  1  0
 15 39  1  0
 16 17  1  0
 17 18  2  0
 17 19  1  0
 19 20  1  0
 19 21  2  0
 21 22  1  0
 22 23  2  0
 23 24  1  0
 24 25  1  6
 24 26  1  0
 26 27  1  1
 26 31  1  0
 27 28  1  0
 28 29  1  0
 28 30  2  0
 31 32  1  0
 31 33  2  0
 33 34  1  0
 34 35  1  6
 34 36  1  0
 36 37  1  6
 37 38  1  0
 39 40  2  0
M  END
