
     RDKit          3D

 40 43  0  0  0  0  0  0  0  0999 V2000
   12.0930    1.8230    1.4350 C   0  0  0  0  0  0  0  0  0  0  0  0
   12.0980    0.4480    0.7590 C   0  0  0  0  0  0  0  0  0  0  0  0
   10.8490    0.2470    0.1660 O   0  0  0  0  0  0  0  0  0  0  0  0
   10.5010   -0.9100   -0.5100 C   0  0  0  0  0  0  0  0  0  0  0  0
   11.3870   -1.8210   -0.5740 O   0  0  0  0  0  0  0  0  0  0  0  0
    9.1890   -1.0960   -1.1330 C   0  0  1  0  0  0  0  0  0  0  0  0
    9.1770   -2.3260   -1.8100 O   0  0  0  0  0  0  0  0  0  0  0  0
    8.0860   -1.0340   -0.1630 C   0  0  0  0  0  0  0  0  0  0  0  0
    8.2340   -0.6870    1.1510 C   0  0  0  0  0  0  0  0  0  0  0  0
    7.1420   -0.6250    2.0180 C   0  0  0  0  0  0  0  0  0  0  0  0
    5.8830   -0.9220    1.5430 C   0  0  0  0  0  0  0  0  0  0  0  0
    5.7120   -1.2720    0.2340 C   0  0  0  0  0  0  0  0  0  0  0  0
    4.4340   -1.5570   -0.3180 N   0  0  0  0  0  0  0  0  0  0  0  0
    3.2490   -0.9730    0.1450 C   0  0  0  0  0  0  0  0  0  0  0  0
    3.2630   -0.1440    1.0790 O   0  0  0  0  0  0  0  0  0  0  0  0
    1.9190   -1.2870   -0.4320 C   0  0  0  0  0  0  0  0  0  0  0  0
    1.3910   -0.1050   -1.2220 C   0  0  0  0  0  0  0  0  0  0  0  0
    1.5690   -0.1000   -2.5930 C   0  0  0  0  0  0  0  0  0  0  0  0
    0.7920    1.4860   -3.0700 S   0  0  0  0  0  0  0  0  0  0  0  0
    0.3510    1.8740   -1.2760 C   0  0  0  0  0  0  0  0  0  0  0  0
   -0.3730    3.1980   -1.0730 C   0  0  0  0  0  0  0  0  0  0  0  0
   -1.8990    2.9580   -1.1530 C   0  0  0  0  0  0  0  0  0  0  0  0
   -2.2590    2.1010   -0.1600 O   0  0  0  0  0  0  0  0  0  0  0  0
   -3.5850    1.7940   -0.0130 C   0  0  0  0  0  0  0  0  0  0  0  0
   -4.2310    1.1020   -1.1940 C   0  0  2  0  0  0  0  0  0  0  0  0
   -4.1560    1.9460   -2.3330 O   0  0  0  0  0  0  0  0  0  0  0  0
   -5.6700    0.8300   -0.9720 C   0  0  0  0  0  0  0  0  0  0  0  0
   -6.4980    1.4850   -1.6980 O   0  0  0  0  0  0  0  0  0  0  0  0
   -6.1050   -0.0960   -0.0190 N   0  0  0  0  0  0  0  0  0  0  0  0
   -5.1860   -0.8580    0.8110 C   0  0  0  0  0  0  0  0  0  0  0  0
   -5.8910   -2.2070    1.1030 C   0  0  0  0  0  0  0  0  0  0  0  0
   -7.0640   -1.9620    2.0320 C   0  0  0  0  0  0  0  0  0  0  0  0
   -7.6440   -0.5690    1.7260 C   0  0  2  0  0  0  0  0  0  0  0  0
   -9.0350   -0.4420    2.2630 C   0  0  0  0  0  0  0  0  0  0  0  0
   -9.9760   -0.8010    1.1280 C   0  0  0  0  0  0  0  0  0  0  0  0
   -9.8740    0.2600    0.0700 C   0  0  0  0  0  0  0  0  0  0  0  0
   -8.4670    0.5610   -0.3700 C   0  0  0  0  0  0  0  0  0  0  0  0
   -7.5210   -0.4020    0.2380 C   0  0  1  0  0  0  0  0  0  0  0  0
    0.7740    0.9420   -0.7450 N   0  0  0  0  0  0  0  0  0  0  0  0
    6.8130   -1.3280   -0.6160 C   0  0  0  0  0  0  0  0  0  0  0  0
  1  2  1  0
  2  3  1  0
  3  4  1  0
  4  5  2  0
  4  6  1  0
  6  7  1  1
  6  8  1  0
  8  9  2  0
  8 40  1  0
  9 10  1  0
 10 11  2  0
 11 12  1  0
 12 13  1  0
 12 40  2  0
 13 14  1  0
 14 15  2  0
 14 16  1  0
 16 17  1  0
 17 18  2  0
 17 39  1  0
 18 19  1  0
 19 20  1  0
 20 21  1  0
 20 39  2  0
 21 22  1  0
 22 23  1  0
 23 24  1  0
 24 25  1  0
 25 26  1  6
 25 27  1  0
 27 28  2  0
 27 29  1  0
 29 30  1  0
 29 38  1  0
 30 31  1  0
 31 32  1  0
 33 32  1  6
 33 34  1  0
 33 38  1  0
 34 35  1  0
 35 36  1  0
 36 37  1  0
 38 37  1  1
M  END
