
     RDKit          3D

 40 42  0  0  0  0  0  0  0  0999 V2000
   -4.7020   -0.7980    2.9360 C   0  0  0  0  0  0  0  0  0  0  0  0
   -4.4300   -0.7000    1.4200 C   0  0  2  0  0  0  0  0  0  0  0  0
   -4.6630    0.4820    0.9360 O   0  0  0  0  0  0  0  0  0  0  0  0
   -4.8930    1.6510    0.4580 C   0  0  0  0  0  0  0  0  0  0  0  0
   -6.2260    2.0720    0.2700 C   0  0  0  0  0  0  0  0  0  0  0  0
   -6.5130    3.2920   -0.2300 C   0  0  0  0  0  0  0  0  0  0  0  0
   -5.5050    4.1350   -0.5610 C   0  0  0  0  0  0  0  0  0  0  0  0
   -4.1670    3.7370   -0.3820 C   0  0  0  0  0  0  0  0  0  0  0  0
   -3.8290    2.5150    0.1200 C   0  0  0  0  0  0  0  0  0  0  0  0
   -2.5120    2.0410    0.3410 N   0  0  0  0  0  0  0  0  0  0  0  0
   -1.3200    2.7460    0.0940 C   0  0  0  0  0  0  0  0  0  0  0  0
   -1.3460    3.8930   -0.3640 O   0  0  0  0  0  0  0  0  0  0  0  0
    0.0020    2.1360    0.3750 C   0  0  0  0  0  0  0  0  0  0  0  0
    0.0260    0.9800    0.8250 O   0  0  0  0  0  0  0  0  0  0  0  0
    1.2010    2.8290    0.1490 N   0  0  0  0  0  0  0  0  0  0  0  0
    2.5160    2.3560    0.3800 C   0  0  0  0  0  0  0  0  0  0  0  0
    3.5300    3.3130    0.2030 C   0  0  0  0  0  0  0  0  0  0  0  0
    4.8500    2.9890    0.3950 C   0  0  0  0  0  0  0  0  0  0  0  0
    5.2000    1.7220    0.7640 C   0  0  0  0  0  0  0  0  0  0  0  0
    6.6460    1.3870    0.9750 C   0  0  0  0  0  0  0  0  0  0  0  0
    7.2970    0.8180   -0.6170 S   0  0  0  0  0  0  0  0  0  0  0  0
    9.0400    0.4020   -0.3980 C   0  0  0  0  0  0  0  0  0  0  0  0
    9.2520   -0.7660    0.4980 C   0  0  1  0  0  0  0  0  0  0  0  0
    8.7510   -0.5410    1.7910 O   0  0  0  0  0  0  0  0  0  0  0  0
    8.7150   -2.0620    0.0080 C   0  0  2  0  0  0  0  0  0  0  0  0
    8.9850   -3.1890    1.0210 C   0  0  0  0  0  0  0  0  0  0  0  0
    9.2330   -2.5170   -1.3250 C   0  0  0  0  0  0  0  0  0  0  0  0
    8.9610   -1.6570   -2.3760 O   0  0  0  0  0  0  0  0  0  0  0  0
    4.2070    0.7950    0.9340 C   0  0  0  0  0  0  0  0  0  0  0  0
    2.8770    1.1000    0.7470 C   0  0  0  0  0  0  0  0  0  0  0  0
   -5.1760   -1.8040    0.7280 C   0  0  0  0  0  0  0  0  0  0  0  0
   -4.9910   -2.9760    1.1250 O   0  0  0  0  0  0  0  0  0  0  0  0
   -6.0420   -1.5740   -0.3090 O   0  0  0  0  0  0  0  0  0  0  0  0
   -6.7760   -2.6030   -0.9930 C   0  0  2  0  0  0  0  0  0  0  0  0
   -6.2840   -2.6040   -2.4220 C   0  0  0  0  0  0  0  0  0  0  0  0
   -8.2150   -2.3380   -0.8980 C   0  0  0  0  0  0  0  0  0  0  0  0
   -9.0210   -2.1180   -1.9150 C   0  0  0  0  0  0  0  0  0  0  0  0
  -10.3900   -1.8980   -1.3490 C   0  0  0  0  0  0  0  0  0  0  0  0
  -10.2080   -2.0270    0.0760 N   0  0  0  0  0  0  0  0  0  0  0  0
   -8.9670   -2.2800    0.3490 C   0  0  0  0  0  0  0  0  0  0  0  0
  2  1  1  1
  2  3  1  0
  2 31  1  0
  3  4  1  0
  4  5  2  0
  4  9  1  0
  5  6  1  0
  6  7  2  0
  7  8  1  0
  8  9  2  0
  9 10  1  0
 10 11  1  0
 11 12  2  0
 11 13  1  0
 13 14  2  0
 13 15  1  0
 15 16  1  0
 16 17  2  0
 16 30  1  0
 17 18  1  0
 18 19  2  0
 19 20  1  0
 19 29  1  0
 20 21  1  0
 21 22  1  0
 22 23  1  0
 23 24  1  1
 23 25  1  0
 25 26  1  1
 25 27  1  0
 27 28  1  0
 29 30  2  0
 31 32  2  0
 31 33  1  0
 33 34  1  0
 34 35  1  6
 34 36  1  0
 36 37  2  0
 36 40  1  0
 37 38  1  0
 38 39  1  0
 39 40  2  0
M  END
