
     RDKit          3D

 40 43  0  0  0  0  0  0  0  0999 V2000
   -4.5930    4.7330   -0.2110 C   0  0  0  0  0  0  0  0  0  0  0  0
   -4.4800    3.3700   -0.8490 C   0  0  0  0  0  0  0  0  0  0  0  0
   -4.9340    2.2610    0.1710 C   0  0  2  0  0  0  0  0  0  0  0  0
   -4.8630    1.0760   -0.2910 O   0  0  0  0  0  0  0  0  0  0  0  0
   -4.7840   -0.1240   -0.7540 C   0  0  0  0  0  0  0  0  0  0  0  0
   -5.7630   -0.5920   -1.6750 C   0  0  0  0  0  0  0  0  0  0  0  0
   -5.7890   -1.8210   -2.2280 C   0  0  0  0  0  0  0  0  0  0  0  0
   -6.7980   -2.1870   -3.1270 O   0  0  0  0  0  0  0  0  0  0  0  0
   -6.7410   -3.4970   -3.6520 C   0  0  0  0  0  0  0  0  0  0  0  0
   -4.7970   -2.6930   -1.8770 C   0  0  0  0  0  0  0  0  0  0  0  0
   -3.7830   -2.3470   -0.9830 C   0  0  0  0  0  0  0  0  0  0  0  0
   -2.8080   -3.2810   -0.6690 O   0  0  0  0  0  0  0  0  0  0  0  0
   -2.8730   -4.5530   -1.2730 C   0  0  0  0  0  0  0  0  0  0  0  0
   -3.7840   -1.0790   -0.4330 C   0  0  0  0  0  0  0  0  0  0  0  0
   -2.7710   -0.6500    0.4920 C   0  0  0  0  0  0  0  0  0  0  0  0
   -2.8960    0.4820    1.0710 O   0  0  0  0  0  0  0  0  0  0  0  0
   -1.6240   -1.3630    0.8330 N   0  0  0  0  0  0  0  0  0  0  0  0
   -0.6350   -0.8190    1.8030 C   0  0  1  0  0  0  0  0  0  0  0  0
   -0.4150   -1.7720    2.9310 C   0  0  0  0  0  0  0  0  0  0  0  0
    0.6190   -2.6110    2.4160 O   0  0  0  0  0  0  0  0  0  0  0  0
    1.3970   -1.8480    1.5270 C   0  0  0  0  0  0  0  0  0  0  0  0
    2.6560   -2.0610    1.0580 C   0  0  0  0  0  0  0  0  0  0  0  0
    3.3040   -1.1970    0.1650 C   0  0  0  0  0  0  0  0  0  0  0  0
    2.5760   -0.1030   -0.2120 C   0  0  0  0  0  0  0  0  0  0  0  0
    1.3000    0.1360    0.2480 C   0  0  0  0  0  0  0  0  0  0  0  0
    0.6850   -0.7420    1.1320 C   0  0  0  0  0  0  0  0  0  0  0  0
    3.6320    0.8290   -1.3160 S   0  0  0  0  0  0  0  0  0  0  0  0
    5.2140    0.0510   -0.7020 C   0  0  1  0  0  0  0  0  0  0  0  0
    5.6020    0.8450    0.4730 C   0  0  0  0  0  0  0  0  0  0  0  0
    6.8440    0.5190    1.1980 C   0  0  1  0  0  0  0  0  0  0  0  0
    6.9410   -0.8450    1.8060 C   0  0  0  0  0  0  0  0  0  0  0  0
    8.1050    0.7880    0.3930 C   0  0  0  0  0  0  0  0  0  0  0  0
    8.1940    2.2290    0.0140 C   0  0  0  0  0  0  0  0  0  0  0  0
    9.4270    2.4450   -0.7610 N   0  0  0  0  0  0  0  0  0  0  0  0
    4.6360   -1.3160   -0.4430 C   0  0  2  0  0  0  0  0  0  0  0  0
    4.5460   -2.0040   -1.7440 N   0  0  0  0  0  0  0  0  0  0  0  0
   -6.3500    2.6700    0.5970 C   0  0  0  0  0  0  0  0  0  0  0  0
   -7.2330    1.8040    0.4180 O   0  0  0  0  0  0  0  0  0  0  0  0
   -6.6530    3.8790    1.1320 O   0  0  0  0  0  0  0  0  0  0  0  0
   -8.0280    4.1180    1.4780 C   0  0  0  0  0  0  0  0  0  0  0  0
  1  2  1  0
  3  2  1  6
  3  4  1  0
  3 37  1  0
  4  5  1  0
  5  6  2  0
  5 14  1  0
  6  7  1  0
  7  8  1  0
  7 10  2  0
  8  9  1  0
 10 11  1  0
 11 12  1  0
 11 14  2  0
 12 13  1  0
 14 15  1  0
 15 16  2  0
 15 17  1  0
 18 17  1  6
 18 19  1  0
 18 26  1  0
 19 20  1  0
 20 21  1  0
 21 22  2  0
 21 26  1  0
 22 23  1  0
 23 24  2  0
 23 35  1  0
 24 25  1  0
 24 27  1  0
 25 26  2  0
 27 28  1  0
 28 29  1  1
 28 35  1  0
 29 30  1  0
 30 31  1  6
 30 32  1  0
 32 33  1  0
 33 34  1  0
 35 36  1  6
 37 38  2  0
 37 39  1  0
 39 40  1  0
M  CHG  1  34   1
M  END
