
     RDKit          3D

 40 42  0  0  0  0  0  0  0  0999 V2000
    5.3320    5.5570    2.9290 C   0  0  0  0  0  0  0  0  0  0  0  0
    5.5380    4.8060    1.8590 C   0  0  0  0  0  0  0  0  0  0  0  0
    6.3760    3.6030    1.9540 C   0  0  1  0  0  0  0  0  0  0  0  0
    6.7060    3.2490    3.3960 C   0  0  0  0  0  0  0  0  0  0  0  0
    5.7040    2.4250    1.3960 N   0  0  0  0  0  0  0  0  0  0  0  0
    6.3090    1.6290    0.3890 C   0  0  0  0  0  0  0  0  0  0  0  0
    7.4470    1.9520   -0.0240 O   0  0  0  0  0  0  0  0  0  0  0  0
    5.6230    0.4700   -0.1490 C   0  0  0  0  0  0  0  0  0  0  0  0
    6.1400   -0.3520   -1.1430 C   0  0  0  0  0  0  0  0  0  0  0  0
    5.2340   -1.3490   -1.4180 C   0  0  0  0  0  0  0  0  0  0  0  0
    4.1580   -1.1330   -0.5850 C   0  0  0  0  0  0  0  0  0  0  0  0
    2.9270   -1.9600   -0.5230 C   0  0  0  0  0  0  0  0  0  0  0  0
    2.0140   -1.6680    0.2810 O   0  0  0  0  0  0  0  0  0  0  0  0
    2.7510   -3.0390   -1.3180 O   0  0  0  0  0  0  0  0  0  0  0  0
    1.7080   -3.9370   -1.4410 C   0  0  1  0  0  0  0  0  0  0  0  0
    2.1190   -4.9260   -2.5490 C   0  0  0  0  0  0  0  0  0  0  0  0
    1.6070   -4.8330   -0.1870 C   0  0  0  0  0  0  0  0  0  0  0  0
    2.8810   -5.5890   -0.0210 C   0  0  0  0  0  0  0  0  0  0  0  0
    0.3670   -3.4190   -1.7960 C   0  0  0  0  0  0  0  0  0  0  0  0
   -0.1530   -2.5900   -0.7810 O   0  0  0  0  0  0  0  0  0  0  0  0
   -1.4060   -1.9980   -0.9170 C   0  0  0  0  0  0  0  0  0  0  0  0
   -2.1310   -2.2030   -2.0690 C   0  0  0  0  0  0  0  0  0  0  0  0
   -3.3730   -1.6580   -2.2770 C   0  0  0  0  0  0  0  0  0  0  0  0
   -4.0860   -1.8770   -3.4460 O   0  0  0  0  0  0  0  0  0  0  0  0
   -3.5040   -2.6870   -4.4410 C   0  0  0  0  0  0  0  0  0  0  0  0
   -3.9590   -0.8510   -1.2950 C   0  0  0  0  0  0  0  0  0  0  0  0
   -5.3270   -0.2930   -1.5350 C   0  0  0  0  0  0  0  0  0  0  0  0
   -5.7390    0.5310   -0.4270 N   0  0  0  0  0  0  0  0  0  0  0  0
   -5.1220    1.7520   -0.0650 C   0  0  0  0  0  0  0  0  0  0  0  0
   -4.1530    2.1750   -0.7450 O   0  0  0  0  0  0  0  0  0  0  0  0
   -5.6420    2.4890    1.1050 C   0  0  1  0  0  0  0  0  0  0  0  0
   -4.8750    3.7490    1.2900 C   0  0  0  0  0  0  0  0  0  0  0  0
   -5.4820    4.6890    2.2980 C   0  0  0  0  0  0  0  0  0  0  0  0
   -6.1490    3.9630    3.4500 C   0  0  0  0  0  0  0  0  0  0  0  0
   -7.6470    3.1760    2.7330 S   0  0  0  0  0  0  0  0  0  0  0  0
   -7.1470    2.7290    1.0200 C   0  0  0  0  0  0  0  0  0  0  0  0
   -3.2430   -0.6430   -0.1460 C   0  0  0  0  0  0  0  0  0  0  0  0
   -1.9680   -1.2140    0.0460 C   0  0  0  0  0  0  0  0  0  0  0  0
   -1.2950   -0.9720    1.2230 O   0  0  0  0  0  0  0  0  0  0  0  0
    4.4330   -0.0570    0.1380 N   0  0  0  0  0  0  0  0  0  0  0  0
  1  2  2  0
  2  3  1  0
  3  4  1  1
  3  5  1  0
  5  6  1  0
  6  7  2  0
  6  8  1  0
  8  9  2  0
  8 40  1  0
  9 10  1  0
 10 11  2  0
 11 12  1  0
 11 40  1  0
 12 13  2  0
 12 14  1  0
 14 15  1  0
 15 16  1  6
 15 17  1  0
 15 19  1  0
 17 18  1  0
 19 20  1  0
 20 21  1  0
 21 22  2  0
 21 38  1  0
 22 23  1  0
 23 24  1  0
 23 26  2  0
 24 25  1  0
 26 27  1  0
 26 37  1  0
 27 28  1  0
 28 29  1  0
 29 30  2  0
 31 29  1  6
 31 32  1  0
 31 36  1  0
 32 33  1  0
 33 34  1  0
 34 35  1  0
 35 36  1  0
 37 38  2  0
 38 39  1  0
M  END
