
     RDKit          3D

 39 42  0  0  0  0  0  0  0  0999 V2000
   -7.2780   -1.6020    1.0030 C   0  0  0  0  0  0  0  0  0  0  0  0
   -8.2340   -0.8770    0.3070 O   0  0  0  0  0  0  0  0  0  0  0  0
   -7.8870    0.4380    0.0960 C   0  0  0  0  0  0  0  0  0  0  0  0
   -6.6270    0.5730   -0.6990 C   0  0  2  0  0  0  0  0  0  0  0  0
   -6.3690    2.0270   -1.0780 C   0  0  0  0  0  0  0  0  0  0  0  0
   -5.3890    1.8560   -2.2340 C   0  0  0  0  0  0  0  0  0  0  0  0
   -5.7220    0.4860   -2.7300 C   0  0  1  0  0  0  0  0  0  0  0  0
   -4.5800   -0.4340   -2.8300 C   0  0  0  0  0  0  0  0  0  0  0  0
   -3.5670   -0.0640   -3.4720 O   0  0  0  0  0  0  0  0  0  0  0  0
   -4.5830   -1.7140   -2.2300 N   0  0  0  0  0  0  0  0  0  0  0  0
   -3.4260   -2.5670   -2.3460 C   0  0  0  0  0  0  0  0  0  0  0  0
   -2.2350   -1.9890   -1.6750 C   0  0  0  0  0  0  0  0  0  0  0  0
   -1.1100   -2.5890   -1.7240 O   0  0  0  0  0  0  0  0  0  0  0  0
   -2.2420   -0.7700   -0.9470 N   0  0  0  0  0  0  0  0  0  0  0  0
   -1.0870   -0.2100   -0.2870 C   0  0  0  0  0  0  0  0  0  0  0  0
   -0.6500   -1.0440    0.8590 C   0  0  0  0  0  0  0  0  0  0  0  0
   -1.3330   -2.1800    1.2300 C   0  0  0  0  0  0  0  0  0  0  0  0
   -0.9310   -2.9490    2.3210 C   0  0  0  0  0  0  0  0  0  0  0  0
    0.1710   -2.5450    3.0240 C   0  0  0  0  0  0  0  0  0  0  0  0
    0.8600   -1.3860    2.6390 C   0  0  0  0  0  0  0  0  0  0  0  0
    0.4790   -0.6180    1.5690 C   0  0  0  0  0  0  0  0  0  0  0  0
    1.1310    0.5510    1.1360 N   0  0  0  0  0  0  0  0  0  0  0  0
    2.2440    1.1740    1.7420 C   0  0  0  0  0  0  0  0  0  0  0  0
    2.7490    0.7010    2.7650 O   0  0  0  0  0  0  0  0  0  0  0  0
    2.8620    2.4130    1.1950 C   0  0  0  0  0  0  0  0  0  0  0  0
    4.0050    2.9350    1.9800 C   0  0  0  0  0  0  0  0  0  0  0  0
    5.1640    2.0580    2.1260 C   0  0  0  0  0  0  0  0  0  0  0  0
    5.2380    1.2510    3.0750 O   0  0  0  0  0  0  0  0  0  0  0  0
    6.2300    2.0850    1.2160 O   0  0  0  0  0  0  0  0  0  0  0  0
    7.3460    1.2180    1.3800 C   0  0  2  0  0  0  0  0  0  0  0  0
    8.5840    2.0240    1.6250 C   0  0  0  0  0  0  0  0  0  0  0  0
    9.2900    2.0870   -0.0530 S   0  0  0  0  0  0  0  0  0  0  0  0
    8.4380    0.6470   -0.6850 C   0  0  0  0  0  0  0  0  0  0  0  0
    8.6700   -0.0800   -1.8420 C   0  0  0  0  0  0  0  0  0  0  0  0
    7.8590   -1.1860   -2.1060 C   0  0  0  0  0  0  0  0  0  0  0  0
    6.8660   -1.5090   -1.2120 C   0  0  0  0  0  0  0  0  0  0  0  0
    6.6790   -0.7620   -0.0870 C   0  0  0  0  0  0  0  0  0  0  0  0
    7.4660    0.3580    0.2230 C   0  0  0  0  0  0  0  0  0  0  0  0
   -6.7630   -0.0210   -1.9540 O   0  0  0  0  0  0  0  0  0  0  0  0
  1  2  1  0
  2  3  1  0
  4  3  1  1
  4  5  1  0
  4 39  1  0
  5  6  1  0
  6  7  1  0
  7  8  1  1
  7 39  1  0
  8  9  2  0
  8 10  1  0
 10 11  1  0
 11 12  1  0
 12 13  2  0
 12 14  1  0
 14 15  1  0
 15 16  1  0
 16 17  2  0
 16 21  1  0
 17 18  1  0
 18 19  2  0
 19 20  1  0
 20 21  2  0
 21 22  1  0
 22 23  1  0
 23 24  2  0
 23 25  1  0
 25 26  1  0
 26 27  1  0
 27 28  2  0
 27 29  1  0
 30 29  1  6
 30 31  1  0
 30 38  1  0
 31 32  1  0
 32 33  1  0
 33 34  2  0
 33 38  1  0
 34 35  1  0
 35 36  2  0
 36 37  1  0
 37 38  2  0
M  END
