
     RDKit          3D

 40 43  0  0  0  0  0  0  0  0999 V2000
   -5.7700    4.0150   -0.8700 C   0  0  0  0  0  0  0  0  0  0  0  0
   -5.6380    2.6200   -0.1810 C   0  0  0  0  0  0  0  0  0  0  0  0
   -4.4430    2.0300   -0.7800 C   0  0  0  0  0  0  0  0  0  0  0  0
   -3.8930    0.7150   -0.4190 C   0  0  2  0  0  0  0  0  0  0  0  0
   -4.7180   -0.4870   -0.4940 C   0  0  2  0  0  0  0  0  0  0  0  0
   -5.3000   -0.6340   -1.8920 C   0  0  0  0  0  0  0  0  0  0  0  0
   -4.2670   -0.7300   -2.9820 C   0  0  0  0  0  0  0  0  0  0  0  0
   -5.6290   -0.9850    0.5020 C   0  0  2  0  0  0  0  0  0  0  0  0
   -6.3090   -2.3160    0.0710 C   0  0  0  0  0  0  0  0  0  0  0  0
   -6.7860   -2.7310    1.4570 C   0  0  0  0  0  0  0  0  0  0  0  0
   -7.5630   -1.4490    1.7910 C   0  0  0  0  0  0  0  0  0  0  0  0
   -6.8330   -0.3360    0.9920 C   0  0  0  0  0  0  0  0  0  0  0  0
   -2.7770    0.7210    0.5360 N   0  0  0  0  0  0  0  0  0  0  0  0
   -3.0470    0.9730    1.8230 C   0  0  0  0  0  0  0  0  0  0  0  0
   -4.1660    1.1920    2.2150 O   0  0  0  0  0  0  0  0  0  0  0  0
   -2.0480    1.0010    2.7760 N   0  0  0  0  0  0  0  0  0  0  0  0
   -0.7830    0.7660    2.3730 C   0  0  0  0  0  0  0  0  0  0  0  0
    0.8060    0.6990    3.2300 S   0  0  0  0  0  0  0  0  0  0  0  0
    1.7310    0.3150    1.6720 C   0  0  0  0  0  0  0  0  0  0  0  0
    3.2320    0.1280    1.7410 C   0  0  0  0  0  0  0  0  0  0  0  0
    3.7200   -0.0920    0.3340 C   0  0  2  0  0  0  0  0  0  0  0  0
    2.9450   -1.2430   -0.0830 O   0  0  0  0  0  0  0  0  0  0  0  0
    5.1330   -0.5170    0.2490 C   0  0  0  0  0  0  0  0  0  0  0  0
    5.4630   -1.5450    1.1230 C   0  0  0  0  0  0  0  0  0  0  0  0
    6.6680   -2.2010    1.0720 C   0  0  0  0  0  0  0  0  0  0  0  0
    6.9340   -3.2270    1.9600 O   0  0  0  0  0  0  0  0  0  0  0  0
    8.1250   -3.9370    1.9460 C   0  0  0  0  0  0  0  0  0  0  0  0
    7.5830   -1.7950    0.1050 C   0  0  0  0  0  0  0  0  0  0  0  0
    7.2600   -0.7970   -0.7350 C   0  0  0  0  0  0  0  0  0  0  0  0
    8.1730   -0.3640   -1.7080 O   0  0  0  0  0  0  0  0  0  0  0  0
    9.4440   -0.9110   -1.8120 C   0  0  0  0  0  0  0  0  0  0  0  0
    6.0180   -0.0980   -0.7210 C   0  0  0  0  0  0  0  0  0  0  0  0
    5.7600    0.8520   -1.5580 O   0  0  0  0  0  0  0  0  0  0  0  0
    5.5020    1.7940   -2.3940 C   0  0  0  0  0  0  0  0  0  0  0  0
    5.9490    3.1620   -1.8090 C   0  0  0  0  0  0  0  0  0  0  0  0
    5.2920    3.4670   -0.6440 O   0  0  0  0  0  0  0  0  0  0  0  0
    0.8490    0.3010    0.8830 N   0  0  0  0  0  0  0  0  0  0  0  0
   -0.4320    0.5070    1.1090 C   0  0  0  0  0  0  0  0  0  0  0  0
   -1.4860    0.4890    0.1750 C   0  0  0  0  0  0  0  0  0  0  0  0
   -1.2230    0.2540   -1.0290 O   0  0  0  0  0  0  0  0  0  0  0  0
  1  2  1  0
  2  3  1  0
  4  3  1  1
  4  5  1  0
  4 13  1  0
  5  6  1  6
  5  8  1  0
  6  7  1  0
  8  9  1  6
  8 12  1  0
  9 10  1  0
 10 11  1  0
 11 12  1  0
 13 14  1  0
 13 39  1  0
 14 15  2  0
 14 16  1  0
 16 17  1  0
 17 18  1  0
 17 38  2  0
 18 19  1  0
 19 20  1  0
 19 37  2  0
 20 21  1  0
 21 22  1  1
 21 23  1  0
 23 24  2  0
 23 32  1  0
 24 25  1  0
 25 26  1  0
 25 28  2  0
 26 27  1  0
 28 29  1  0
 29 30  1  0
 29 32  2  0
 30 31  1  0
 32 33  1  0
 33 34  1  0
 34 35  1  0
 35 36  1  0
 37 38  1  0
 38 39  1  0
 39 40  2  0
M  END
