
     RDKit          3D

 40 42  0  0  0  0  0  0  0  0999 V2000
   -7.7840   -2.4240    1.4610 C   0  0  0  0  0  0  0  0  0  0  0  0
   -7.1460   -1.4750    2.3840 C   0  0  0  0  0  0  0  0  0  0  0  0
   -5.6910   -1.2790    2.3790 C   0  0  0  0  0  0  0  0  0  0  0  0
   -5.0170   -0.8050    1.1360 C   0  0  2  0  0  0  0  0  0  0  0  0
   -5.1300   -1.7410   -0.0570 C   0  0  0  0  0  0  0  0  0  0  0  0
   -4.9620   -0.8870   -1.3080 C   0  0  1  0  0  0  0  0  0  0  0  0
   -6.1460   -0.2700   -1.6430 O   0  0  0  0  0  0  0  0  0  0  0  0
   -3.9460    0.1590   -1.0190 C   0  0  0  0  0  0  0  0  0  0  0  0
   -2.8890   -0.3320   -0.0340 C   0  0  0  0  0  0  0  0  0  0  0  0
   -3.5870   -0.5620    1.3130 C   0  0  0  0  0  0  0  0  0  0  0  0
   -2.8900   -0.4300    2.3720 C   0  0  0  0  0  0  0  0  0  0  0  0
   -1.5000   -0.2030    2.4530 C   0  0  0  0  0  0  0  0  0  0  0  0
   -0.3310   -0.0120    2.6440 C   0  0  0  0  0  0  0  0  0  0  0  0
    0.1420    0.0520    4.1180 C   0  0  0  0  0  0  0  0  0  0  0  0
   -0.6730   -0.0290    5.0310 O   0  0  0  0  0  0  0  0  0  0  0  0
    0.6090    0.4890    1.6910 C   0  0  0  0  0  0  0  0  0  0  0  0
    0.2030    0.8130    0.5730 O   0  0  0  0  0  0  0  0  0  0  0  0
    2.0290    0.6760    1.9380 N   0  0  0  0  0  0  0  0  0  0  0  0
    2.6590    1.2580    0.8360 C   0  0  0  0  0  0  0  0  0  0  0  0
    2.8470    2.6070    0.6420 C   0  0  0  0  0  0  0  0  0  0  0  0
    3.2970    3.1730   -0.4430 C   0  0  0  0  0  0  0  0  0  0  0  0
    3.7160    4.5540   -0.3360 N   0  0  0  0  0  0  0  0  0  0  0  0
    5.4080    4.9080   -0.5780 S   0  0  2  0  0  0  0  0  0  0  0  0
    6.1880    3.7360    0.0830 O   0  0  0  0  0  0  0  0  0  0  0  0
    5.7550    6.1050    0.2490 O   0  0  0  0  0  0  0  0  0  0  0  0
    5.8400    5.1030   -2.2610 C   0  0  0  0  0  0  0  0  0  0  0  0
    5.0710    6.3440   -2.8060 C   0  0  0  0  0  0  0  0  0  0  0  0
    3.6470    2.4300   -1.6640 C   0  0  0  0  0  0  0  0  0  0  0  0
    3.4390    1.0720   -1.3540 C   0  0  0  0  0  0  0  0  0  0  0  0
    3.8070    0.1920   -2.5650 C   0  0  0  0  0  0  0  0  0  0  0  0
    3.6350   -1.1010   -2.2550 C   0  0  0  0  0  0  0  0  0  0  0  0
    3.2400   -1.7720   -1.2330 C   0  0  0  0  0  0  0  0  0  0  0  0
    3.0480   -3.0700   -0.8790 O   0  0  0  0  0  0  0  0  0  0  0  0
    3.0220   -4.2760   -1.4800 C   0  0  1  0  0  0  0  0  0  0  0  0
    3.4000   -4.2120   -2.9170 C   0  0  0  0  0  0  0  0  0  0  0  0
    3.6980   -4.1520   -4.0830 N   0  0  0  0  0  0  0  0  0  0  0  0
    3.6200   -5.4070   -0.7300 C   0  0  0  0  0  0  0  0  0  0  0  0
    3.5530   -6.5610   -1.4740 O   0  0  0  0  0  0  0  0  0  0  0  0
    2.8790   -0.8760   -0.1130 C   0  0  0  0  0  0  0  0  0  0  0  0
    3.0230    0.4620   -0.3180 C   0  0  0  0  0  0  0  0  0  0  0  0
  1  2  1  0
  2  3  1  0
  4  3  1  1
  4  5  1  0
  4 10  1  0
  5  6  1  0
  6  7  1  1
  6  8  1  0
  8  9  1  0
  9 10  1  0
 10 11  2  3
 11 12  1  0
 12 13  2  3
 13 14  1  0
 13 16  1  0
 14 15  2  0
 16 17  2  0
 16 18  1  0
 18 19  1  0
 19 20  2  0
 19 40  1  0
 20 21  1  0
 21 22  1  0
 21 28  2  0
 22 23  1  0
 23 24  2  0
 23 25  2  0
 23 26  1  6
 26 27  1  0
 28 29  1  0
 29 30  2  0
 29 40  1  0
 30 31  1  0
 31 32  2  0
 32 33  1  0
 32 39  1  0
 33 34  1  0
 34 35  1  6
 34 37  1  0
 35 36  3  0
 37 38  1  0
 39 40  2  0
M  END
