
     RDKit          3D

 34 37  0  0  0  0  0  0  0  0999 V2000
   10.5740    1.1440    2.7130 C   0  0  0  0  0  0  0  0  0  0  0  0
    9.7880    0.3460    1.7250 C   0  0  0  0  0  0  0  0  0  0  0  0
   10.3330   -0.5680    0.8340 C   0  0  0  0  0  0  0  0  0  0  0  0
    9.2630   -1.0670    0.1200 C   0  0  0  0  0  0  0  0  0  0  0  0
    8.1260   -0.4500    0.5940 C   0  0  0  0  0  0  0  0  0  0  0  0
    6.7490   -0.7100    0.0850 C   0  0  0  0  0  0  0  0  0  0  0  0
    6.5560   -1.5250   -0.8230 O   0  0  0  0  0  0  0  0  0  0  0  0
    5.6980   -0.0120    0.6600 N   0  0  0  0  0  0  0  0  0  0  0  0
    4.3150   -0.0890    0.3520 C   0  0  0  0  0  0  0  0  0  0  0  0
    3.8090   -1.0400   -0.4890 C   0  0  0  0  0  0  0  0  0  0  0  0
    2.4330   -1.0830   -0.7850 C   0  0  0  0  0  0  0  0  0  0  0  0
    1.5360   -0.1720   -0.2410 C   0  0  0  0  0  0  0  0  0  0  0  0
    2.0460    0.7740    0.5970 C   0  0  0  0  0  0  0  0  0  0  0  0
    3.4170    0.8000    0.8780 C   0  0  0  0  0  0  0  0  0  0  0  0
    1.3110    1.8570    1.3060 C   0  0  0  0  0  0  0  0  0  0  0  0
   -0.4250    1.8670    0.9800 S   0  0  0  0  0  0  0  0  0  0  0  0
   -0.8330    0.5450   -0.1330 C   0  0  0  0  0  0  0  0  0  0  0  0
   -2.1220    0.4300   -0.4690 N   0  0  0  0  0  0  0  0  0  0  0  0
   -2.5920   -0.5120   -1.2950 C   0  0  0  0  0  0  0  0  0  0  0  0
   -3.9790   -0.6010   -1.6300 N   0  0  0  0  0  0  0  0  0  0  0  0
   -4.9250    0.3140   -1.0940 C   0  0  0  0  0  0  0  0  0  0  0  0
   -4.5630    1.2170   -0.3190 O   0  0  0  0  0  0  0  0  0  0  0  0
   -6.2870    0.2450   -1.4080 O   0  0  0  0  0  0  0  0  0  0  0  0
   -7.1820    1.1800   -0.8470 C   0  0  0  0  0  0  0  0  0  0  0  0
   -8.5750    0.8300   -1.3870 C   0  0  2  0  0  0  0  0  0  0  0  0
   -9.4670    1.7370   -0.8470 O   0  0  0  0  0  0  0  0  0  0  0  0
   -8.8510   -0.6000   -1.0040 C   0  0  0  0  0  0  0  0  0  0  0  0
   -8.7910   -0.8720    0.3330 O   0  0  0  0  0  0  0  0  0  0  0  0
   -9.6730   -0.1800    1.1360 C   0  0  0  0  0  0  0  0  0  0  0  0
  -11.0010   -0.3940    0.7840 F   0  0  0  0  0  0  0  0  0  0  0  0
   -1.6630   -1.3840   -1.8010 C   0  0  0  0  0  0  0  0  0  0  0  0
   -0.3140   -1.3220   -1.4950 C   0  0  0  0  0  0  0  0  0  0  0  0
    0.1190   -0.3130   -0.6230 C   0  0  0  0  0  0  0  0  0  0  0  0
    8.4960    0.3630    1.5290 O   0  0  0  0  0  0  0  0  0  0  0  0
  1  2  1  0
  2  3  2  0
  2 34  1  0
  3  4  1  0
  4  5  2  0
  5  6  1  0
  5 34  1  0
  6  7  2  0
  6  8  1  0
  8  9  1  0
  9 10  2  0
  9 14  1  0
 10 11  1  0
 11 12  2  0
 12 13  1  0
 12 33  1  0
 13 14  2  0
 13 15  1  0
 15 16  1  0
 16 17  1  0
 17 18  2  0
 17 33  1  0
 18 19  1  0
 19 20  1  0
 19 31  2  0
 20 21  1  0
 21 22  2  0
 21 23  1  0
 23 24  1  0
 24 25  1  0
 25 26  1  1
 25 27  1  0
 27 28  1  0
 28 29  1  0
 29 30  1  0
 31 32  1  0
 32 33  2  0
M  END
