
     RDKit          3D

 34 36  0  0  0  0  0  0  0  0999 V2000
   -1.6150    3.7990    2.8370 C   0  0  0  0  0  0  0  0  0  0  0  0
   -1.1880    3.3760    1.5830 O   0  0  0  0  0  0  0  0  0  0  0  0
   -1.3940    2.0260    1.4850 C   0  0  0  0  0  0  0  0  0  0  0  0
   -0.9530    1.4710    0.1310 C   0  0  0  0  0  0  0  0  0  0  0  0
   -1.2140    0.0700    0.1370 N   0  0  0  0  0  0  0  0  0  0  0  0
   -0.0410   -0.7480    0.5390 C   0  0  0  0  0  0  0  0  0  0  0  0
    1.0300   -0.8140   -0.5190 C   0  0  0  0  0  0  0  0  0  0  0  0
    2.2080   -0.4510   -0.1460 C   0  0  0  0  0  0  0  0  0  0  0  0
    2.5620   -0.0040    1.2170 C   0  0  0  0  0  0  0  0  0  0  0  0
    2.9740    1.3010    1.3860 C   0  0  0  0  0  0  0  0  0  0  0  0
    3.3740    1.8350    2.5720 C   0  0  0  0  0  0  0  0  0  0  0  0
    3.3650    1.0000    3.6830 C   0  0  0  0  0  0  0  0  0  0  0  0
    3.7940    1.5160    5.0130 C   0  0  0  0  0  0  0  0  0  0  0  0
    4.2230    2.8350    4.8720 O   0  0  0  0  0  0  0  0  0  0  0  0
    2.9590   -0.3080    3.5430 C   0  0  0  0  0  0  0  0  0  0  0  0
    2.5540   -0.8240    2.3050 C   0  0  0  0  0  0  0  0  0  0  0  0
    2.0960   -2.5070    2.1520 Cl  0  0  0  0  0  0  0  0  0  0  0  0
    0.6910   -1.3460   -1.8120 C   0  0  0  0  0  0  0  0  0  0  0  0
   -0.5910   -1.2950   -2.2240 N   0  0  0  0  0  0  0  0  0  0  0  0
   -1.1370   -1.7910   -3.3090 C   0  0  0  0  0  0  0  0  0  0  0  0
   -0.2910   -2.4680   -4.1670 C   0  0  0  0  0  0  0  0  0  0  0  0
    1.0410   -2.5750   -3.8340 C   0  0  0  0  0  0  0  0  0  0  0  0
    1.5460   -2.0290   -2.6770 C   0  0  0  0  0  0  0  0  0  0  0  0
    2.9660   -2.1780   -2.4170 C   0  0  0  0  0  0  0  0  0  0  0  0
    3.5630   -3.0380   -3.4690 N   0  0  0  0  0  0  0  0  0  0  0  0
   -2.3610   -0.5390   -0.2580 C   0  0  0  0  0  0  0  0  0  0  0  0
   -2.3540   -1.8450   -0.1030 O   0  0  0  0  0  0  0  0  0  0  0  0
   -3.5790   -0.0480   -0.8160 C   0  0  0  0  0  0  0  0  0  0  0  0
   -4.0290    1.2610   -0.8280 C   0  0  0  0  0  0  0  0  0  0  0  0
   -5.2490    1.6690   -1.3570 C   0  0  0  0  0  0  0  0  0  0  0  0
   -6.0830    0.7460   -1.9060 C   0  0  0  0  0  0  0  0  0  0  0  0
   -5.6780   -0.5590   -1.9130 C   0  0  0  0  0  0  0  0  0  0  0  0
   -4.4820   -0.9790   -1.3990 C   0  0  0  0  0  0  0  0  0  0  0  0
   -4.1010   -2.3100   -1.4240 O   0  0  0  0  0  0  0  0  0  0  0  0
  1  2  1  0
  2  3  1  0
  3  4  1  0
  4  5  1  0
  5  6  1  0
  5 26  1  0
  6  7  1  0
  7  8  2  3
  7 18  1  0
  8  9  1  0
  9 10  2  0
  9 16  1  0
 10 11  1  0
 11 12  2  0
 12 13  1  0
 12 15  1  0
 13 14  1  0
 15 16  2  0
 16 17  1  0
 18 19  2  0
 18 23  1  0
 19 20  1  0
 20 21  2  0
 21 22  1  0
 22 23  2  0
 23 24  1  0
 24 25  1  0
 26 27  2  0
 26 28  1  0
 28 29  2  0
 28 33  1  0
 29 30  1  0
 30 31  2  0
 31 32  1  0
 32 33  2  0
 33 34  1  0
M  CHG  1  25   1
M  END
