
     RDKit          3D

 33 36  0  0  0  0  0  0  0  0999 V2000
   -3.1540    3.7630   -1.6990 C   0  0  0  0  0  0  0  0  0  0  0  0
   -2.0010    3.2500   -2.2590 O   0  0  0  0  0  0  0  0  0  0  0  0
   -1.4150    2.2330   -1.5260 C   0  0  0  0  0  0  0  0  0  0  0  0
   -2.2920    1.0430   -1.3320 C   0  0  0  0  0  0  0  0  0  0  0  0
   -1.6290    0.0250   -0.5700 O   0  0  0  0  0  0  0  0  0  0  0  0
   -2.3620   -1.1370   -0.3300 C   0  0  0  0  0  0  0  0  0  0  0  0
   -3.6420   -1.3000   -0.7920 C   0  0  0  0  0  0  0  0  0  0  0  0
   -4.3660   -2.4400   -0.5570 C   0  0  0  0  0  0  0  0  0  0  0  0
   -5.7460   -2.6260   -1.0520 C   0  0  0  0  0  0  0  0  0  0  0  0
   -3.7480   -3.4250    0.1690 C   0  0  0  0  0  0  0  0  0  0  0  0
   -4.4160   -4.5750    0.4320 F   0  0  0  0  0  0  0  0  0  0  0  0
   -2.4330   -3.2630    0.6470 C   0  0  0  0  0  0  0  0  0  0  0  0
   -1.7060   -2.1260    0.4150 C   0  0  0  0  0  0  0  0  0  0  0  0
   -0.3850   -1.9140    0.8720 N   0  0  0  0  0  0  0  0  0  0  0  0
    0.4560   -2.7310    1.6110 C   0  0  0  0  0  0  0  0  0  0  0  0
   -0.0820   -3.8510    1.9550 O   0  0  0  0  0  0  0  0  0  0  0  0
    1.8140   -2.5450    2.0710 C   0  0  0  0  0  0  0  0  0  0  0  0
    2.4310   -3.7900    3.3550 S   0  0  0  0  0  0  0  0  0  0  0  0
    4.0510   -2.9780    3.4840 C   0  0  0  0  0  0  0  0  0  0  0  0
    4.9740   -3.3700    4.2420 O   0  0  0  0  0  0  0  0  0  0  0  0
    3.9640   -1.9770    2.6410 N   0  0  0  0  0  0  0  0  0  0  0  0
    2.8550   -1.7610    1.9340 C   0  0  0  0  0  0  0  0  0  0  0  0
    2.9160   -0.6030    0.9890 C   0  0  0  0  0  0  0  0  0  0  0  0
    2.3290   -0.6790   -0.2170 C   0  0  0  0  0  0  0  0  0  0  0  0
    2.3410    0.4210   -1.0870 C   0  0  0  0  0  0  0  0  0  0  0  0
    2.9620    1.5870   -0.6980 C   0  0  0  0  0  0  0  0  0  0  0  0
    3.5730    1.6890    0.5360 C   0  0  0  0  0  0  0  0  0  0  0  0
    3.5260    0.5850    1.3370 C   0  0  0  0  0  0  0  0  0  0  0  0
    4.2030    2.8790    0.9250 O   0  0  0  0  0  0  0  0  0  0  0  0
    4.4880    3.9270    0.0360 C   0  0  0  0  0  0  0  0  0  0  0  0
    3.6170    3.8990   -1.1670 C   0  0  0  0  0  0  0  0  0  0  0  0
    3.4540    4.9530   -1.8160 O   0  0  0  0  0  0  0  0  0  0  0  0
    2.9710    2.7090   -1.5900 N   0  0  0  0  0  0  0  0  0  0  0  0
  1  2  1  0
  2  3  1  0
  3  4  1  0
  4  5  1  0
  5  6  1  0
  6  7  2  0
  6 13  1  0
  7  8  1  0
  8  9  1  0
  8 10  2  0
 10 11  1  0
 10 12  1  0
 12 13  2  0
 13 14  1  0
 14 15  1  0
 15 16  2  0
 15 17  1  0
 17 18  1  0
 17 22  2  0
 18 19  1  0
 19 20  2  0
 19 21  1  0
 21 22  1  0
 22 23  1  0
 23 24  2  0
 23 28  1  0
 24 25  1  0
 25 26  2  0
 26 27  1  0
 26 33  1  0
 27 28  2  0
 27 29  1  0
 29 30  1  0
 30 31  1  0
 31 32  2  0
 31 33  1  0
M  END
