
     RDKit          3D

 33 36  0  0  0  0  0  0  0  0999 V2000
    0.9700   -3.6090   -0.1740 C   0  0  0  0  0  0  0  0  0  0  0  0
    1.3880   -2.3400    0.5270 C   0  0  1  0  0  0  0  0  0  0  0  0
    2.4960   -1.7310   -0.0550 O   0  0  0  0  0  0  0  0  0  0  0  0
    3.6640   -1.5510    0.6350 C   0  0  0  0  0  0  0  0  0  0  0  0
    3.7390   -1.9440    1.8220 O   0  0  0  0  0  0  0  0  0  0  0  0
    4.8310   -0.9160    0.0400 C   0  0  0  0  0  0  0  0  0  0  0  0
    4.7360   -0.4850   -1.2760 C   0  0  0  0  0  0  0  0  0  0  0  0
    5.8180    0.1230   -1.8820 C   0  0  0  0  0  0  0  0  0  0  0  0
    6.9920    0.3000   -1.1750 C   0  0  0  0  0  0  0  0  0  0  0  0
    7.0710   -0.1330    0.1300 C   0  0  0  0  0  0  0  0  0  0  0  0
    5.9870   -0.7490    0.7570 C   0  0  0  0  0  0  0  0  0  0  0  0
    8.3200    0.0690    0.8460 C   0  0  0  0  0  0  0  0  0  0  0  0
    8.6340   -0.7660    1.7410 O   0  0  0  0  0  0  0  0  0  0  0  0
    9.1680    1.2210    0.5140 C   0  0  0  0  0  0  0  0  0  0  0  0
    8.9050    1.8360   -0.8170 C   0  0  0  0  0  0  0  0  0  0  0  0
    8.1850    0.9430   -1.7720 C   0  0  0  0  0  0  0  0  0  0  0  0
    0.2610   -1.3580    0.6380 C   0  0  0  0  0  0  0  0  0  0  0  0
    0.5320   -0.0620    1.1100 C   0  0  0  0  0  0  0  0  0  0  0  0
   -1.0880    0.7060    1.0600 S   0  0  0  0  0  0  0  0  0  0  0  0
   -1.9180   -0.8460    0.4020 C   0  0  0  0  0  0  0  0  0  0  0  0
   -3.3140   -0.8570    0.1400 N   0  0  0  0  0  0  0  0  0  0  0  0
   -4.1480    0.2640    0.3500 C   0  0  0  0  0  0  0  0  0  0  0  0
   -3.6250    1.3180    0.7890 O   0  0  0  0  0  0  0  0  0  0  0  0
   -5.5410    0.2630    0.0920 N   0  0  0  0  0  0  0  0  0  0  0  0
   -6.3180    1.4480    0.3330 C   0  0  0  0  0  0  0  0  0  0  0  0
   -7.7330    1.1570   -0.0240 C   0  0  0  0  0  0  0  0  0  0  0  0
   -8.2640    1.3590   -1.2950 C   0  0  0  0  0  0  0  0  0  0  0  0
   -9.5770    0.9690   -1.1910 C   0  0  0  0  0  0  0  0  0  0  0  0
   -9.7920    0.5570    0.1000 C   0  0  0  0  0  0  0  0  0  0  0  0
  -11.0800    0.0510    0.6530 C   0  0  0  0  0  0  0  0  0  0  0  0
  -10.9140   -0.2720    1.9870 O   0  0  0  0  0  0  0  0  0  0  0  0
   -8.6780    0.6850    0.7490 O   0  0  0  0  0  0  0  0  0  0  0  0
   -0.9720   -1.5840    0.3370 N   0  0  0  0  0  0  0  0  0  0  0  0
  2  1  1  6
  2  3  1  0
  2 17  1  0
  3  4  1  0
  4  5  2  0
  4  6  1  0
  6  7  2  0
  6 11  1  0
  7  8  1  0
  8  9  2  0
  9 10  1  0
  9 16  1  0
 10 11  2  0
 10 12  1  0
 12 13  2  0
 12 14  1  0
 14 15  1  0
 15 16  1  0
 17 18  2  0
 17 33  1  0
 18 19  1  0
 19 20  1  0
 20 21  1  0
 20 33  2  0
 21 22  1  0
 22 23  2  0
 22 24  1  0
 24 25  1  0
 25 26  1  0
 26 27  2  0
 26 32  1  0
 27 28  1  0
 28 29  2  0
 29 30  1  0
 29 32  1  0
 30 31  1  0
M  END
