
     RDKit          3D

 34 37  0  0  0  0  0  0  0  0999 V2000
    1.1870   -1.0480   -2.5710 O   0  0  0  0  0  0  0  0  0  0  0  0
    0.5760   -1.2500   -1.4780 C   0  0  0  0  0  0  0  0  0  0  0  0
   -0.7700   -1.9300   -1.5380 C   0  0  0  0  0  0  0  0  0  0  0  0
   -1.3970   -2.1160   -0.2840 N   0  0  1  0  0  0  0  0  0  0  0  0
   -2.0350   -0.9020    0.1540 C   0  0  0  0  0  0  0  0  0  0  0  0
   -3.2930   -0.8370   -0.6360 C   0  0  2  0  0  0  0  0  0  0  0  0
   -4.3210   -0.0370   -0.0060 N   0  0  0  0  0  0  0  0  0  0  0  0
   -4.8950    1.0430   -0.6810 C   0  0  0  0  0  0  0  0  0  0  0  0
   -4.4720    1.2790   -1.8550 O   0  0  0  0  0  0  0  0  0  0  0  0
   -5.9400    1.8860   -0.0900 C   0  0  0  0  0  0  0  0  0  0  0  0
   -6.5340    1.7860    1.1820 C   0  0  0  0  0  0  0  0  0  0  0  0
   -7.4540    2.6510    1.5020 C   0  0  0  0  0  0  0  0  0  0  0  0
   -7.8570    3.6560    0.6320 C   0  0  0  0  0  0  0  0  0  0  0  0
   -8.9680    4.9150    0.6710 Cl  0  0  0  0  0  0  0  0  0  0  0  0
   -6.7190    3.2180   -0.7870 S   0  0  0  0  0  0  0  0  0  0  0  0
   -3.7200   -2.2740   -0.7840 C   0  0  0  0  0  0  0  0  0  0  0  0
   -2.5260   -3.0430   -0.3420 C   0  0  1  0  0  0  0  0  0  0  0  0
   -2.3130   -4.1890   -1.2780 C   0  0  0  0  0  0  0  0  0  0  0  0
   -3.4910   -4.9730   -1.1950 O   0  0  0  0  0  0  0  0  0  0  0  0
    1.1950   -0.8260   -0.2890 N   0  0  0  0  0  0  0  0  0  0  0  0
    2.4480   -0.1870   -0.1800 C   0  0  0  0  0  0  0  0  0  0  0  0
    3.2940    0.1480   -1.1980 C   0  0  0  0  0  0  0  0  0  0  0  0
    4.5190    0.7870   -0.9520 C   0  0  0  0  0  0  0  0  0  0  0  0
    4.8920    1.0900    0.3400 C   0  0  0  0  0  0  0  0  0  0  0  0
    6.1330    1.7430    0.6350 N   0  0  0  0  0  0  0  0  0  0  0  0
    6.4290    2.9390    0.0880 C   0  0  0  0  0  0  0  0  0  0  0  0
    7.6110    3.6090    0.3400 C   0  0  0  0  0  0  0  0  0  0  0  0
    8.5470    3.0460    1.1890 C   0  0  0  0  0  0  0  0  0  0  0  0
    8.2440    1.8160    1.7530 C   0  0  0  0  0  0  0  0  0  0  0  0
    7.0540    1.2020    1.4630 C   0  0  0  0  0  0  0  0  0  0  0  0
    6.8390    0.0870    2.0060 O   0  0  0  0  0  0  0  0  0  0  0  0
    4.0620    0.7660    1.3880 C   0  0  0  0  0  0  0  0  0  0  0  0
    2.8700    0.1420    1.1140 C   0  0  0  0  0  0  0  0  0  0  0  0
    2.0910   -0.1530    2.2090 F   0  0  0  0  0  0  0  0  0  0  0  0
  1  2  2  0
  2  3  1  0
  2 20  1  0
  4  3  1  6
  4  5  1  0
  4 17  1  0
  5  6  1  0
  6  7  1  1
  6 16  1  0
  7  8  1  0
  8  9  2  0
  8 10  1  0
 10 11  2  0
 10 15  1  0
 11 12  1  0
 12 13  2  0
 13 14  1  0
 13 15  1  0
 16 17  1  0
 17 18  1  6
 18 19  1  0
 20 21  1  0
 21 22  2  0
 21 33  1  0
 22 23  1  0
 23 24  2  0
 24 25  1  0
 24 32  1  0
 25 26  1  0
 25 30  1  0
 26 27  2  0
 27 28  1  0
 28 29  2  0
 29 30  1  0
 30 31  2  0
 32 33  2  0
 33 34  1  0
M  CHG  1   4   1
M  END
