
     RDKit          3D

 34 37  0  0  0  0  0  0  0  0999 V2000
   -3.6790   -1.3370    0.3220 C   0  0  0  0  0  0  0  0  0  0  0  0
   -2.6490   -1.2030   -0.7080 C   0  0  0  0  0  0  0  0  0  0  0  0
   -1.5820   -0.4550   -0.6310 C   0  0  0  0  0  0  0  0  0  0  0  0
   -0.6410   -0.4640   -1.8200 C   0  0  0  0  0  0  0  0  0  0  0  0
   -1.1320   -1.3040   -2.7900 F   0  0  0  0  0  0  0  0  0  0  0  0
   -1.1950    0.3510    0.4010 O   0  0  0  0  0  0  0  0  0  0  0  0
   -1.7810    0.6740    1.5590 C   0  0  0  0  0  0  0  0  0  0  0  0
   -2.7900    1.5560    1.4660 C   0  0  0  0  0  0  0  0  0  0  0  0
   -3.1960    2.1070    0.1650 C   0  0  0  0  0  0  0  0  0  0  0  0
   -2.4100    2.4770   -0.9060 C   0  0  0  0  0  0  0  0  0  0  0  0
   -3.2650    2.9390   -1.9060 C   0  0  0  0  0  0  0  0  0  0  0  0
   -4.5270    2.8150   -1.3620 C   0  0  0  0  0  0  0  0  0  0  0  0
   -5.8000    3.1840   -2.0530 C   0  0  0  0  0  0  0  0  0  0  0  0
   -4.4270    2.3270   -0.1580 O   0  0  0  0  0  0  0  0  0  0  0  0
   -1.3990    0.1170    2.9150 C   0  0  0  0  0  0  0  0  0  0  0  0
   -2.2510    0.2240    3.9130 N   0  0  0  0  0  0  0  0  0  0  0  0
   -1.9640   -0.2820    5.1050 C   0  0  0  0  0  0  0  0  0  0  0  0
   -2.6360   -0.2940    6.2060 O   0  0  0  0  0  0  0  0  0  0  0  0
   -0.3310   -1.0090    4.8870 S   0  0  0  0  0  0  0  0  0  0  0  0
   -0.2420   -0.4900    3.0780 C   0  0  0  0  0  0  0  0  0  0  0  0
    0.9710   -0.8590    2.3870 C   0  0  0  0  0  0  0  0  0  0  0  0
    1.7540   -1.6640    3.0480 O   0  0  0  0  0  0  0  0  0  0  0  0
    1.4900   -0.5200    1.1460 N   0  0  0  0  0  0  0  0  0  0  0  0
    2.7010   -0.9710    0.5430 C   0  0  0  0  0  0  0  0  0  0  0  0
    3.3930   -2.0790    0.9190 C   0  0  0  0  0  0  0  0  0  0  0  0
    4.5960   -2.4930    0.3280 C   0  0  0  0  0  0  0  0  0  0  0  0
    5.1190   -1.7480   -0.6900 C   0  0  0  0  0  0  0  0  0  0  0  0
    4.4580   -0.6210   -1.1060 C   0  0  0  0  0  0  0  0  0  0  0  0
    3.2780   -0.2370   -0.5080 C   0  0  0  0  0  0  0  0  0  0  0  0
    4.9880    0.1240   -2.1300 O   0  0  0  0  0  0  0  0  0  0  0  0
    6.2400   -0.0810   -2.7220 C   0  0  0  0  0  0  0  0  0  0  0  0
    6.8570   -1.3710   -2.3480 C   0  0  0  0  0  0  0  0  0  0  0  0
    7.8720   -1.7390   -3.0090 O   0  0  0  0  0  0  0  0  0  0  0  0
    6.3310   -2.1510   -1.2980 N   0  0  0  0  0  0  0  0  0  0  0  0
  1  2  1  0
  2  3  2  3
  3  4  1  0
  3  6  1  0
  4  5  1  0
  6  7  1  0
  7  8  2  3
  7 15  1  0
  8  9  1  0
  9 10  2  0
  9 14  1  0
 10 11  1  0
 11 12  2  0
 12 13  1  0
 12 14  1  0
 15 16  1  0
 15 20  2  0
 16 17  1  0
 17 18  2  0
 17 19  1  0
 19 20  1  0
 20 21  1  0
 21 22  2  0
 21 23  1  0
 23 24  1  0
 24 25  2  0
 24 29  1  0
 25 26  1  0
 26 27  2  0
 27 28  1  0
 27 34  1  0
 28 29  2  0
 28 30  1  0
 30 31  1  0
 31 32  1  0
 32 33  2  0
 32 34  1  0
M  END
