
     RDKit          3D

 34 37  0  0  0  0  0  0  0  0999 V2000
   -3.7470    5.5110    1.7950 C   0  0  0  0  0  0  0  0  0  0  0  0
   -2.5460    4.8680    1.4100 O   0  0  0  0  0  0  0  0  0  0  0  0
   -2.4390    3.4980    1.2590 C   0  0  0  0  0  0  0  0  0  0  0  0
   -3.5000    2.6450    1.4720 C   0  0  0  0  0  0  0  0  0  0  0  0
   -3.2980    1.2970    1.2970 C   0  0  0  0  0  0  0  0  0  0  0  0
   -2.0820    0.7590    0.9170 C   0  0  0  0  0  0  0  0  0  0  0  0
   -1.9260   -0.6280    0.7510 N   0  0  0  0  0  0  0  0  0  0  0  0
   -3.0510   -1.5040    0.9800 C   0  0  0  0  0  0  0  0  0  0  0  0
   -2.6310   -2.8830    0.7420 C   0  0  0  0  0  0  0  0  0  0  0  0
   -2.6180   -3.6780   -0.3460 C   0  0  0  0  0  0  0  0  0  0  0  0
   -2.1600   -4.9360   -0.2540 C   0  0  0  0  0  0  0  0  0  0  0  0
   -1.7140   -5.4000    0.9240 C   0  0  0  0  0  0  0  0  0  0  0  0
   -1.9690   -3.9170    1.9950 S   0  0  0  0  0  0  0  0  0  0  0  0
   -1.0270    1.6130    0.7050 C   0  0  0  0  0  0  0  0  0  0  0  0
    0.2950    1.1600    0.3040 C   0  0  0  0  0  0  0  0  0  0  0  0
    0.5620    1.0630   -1.0690 C   0  0  0  0  0  0  0  0  0  0  0  0
   -0.4130    1.3920   -1.9780 O   0  0  0  0  0  0  0  0  0  0  0  0
   -1.3100    0.3950   -2.4370 C   0  0  0  0  0  0  0  0  0  0  0  0
    1.7930    0.6400   -1.5080 C   0  0  0  0  0  0  0  0  0  0  0  0
    2.7400    0.3190   -0.5580 C   0  0  0  0  0  0  0  0  0  0  0  0
    2.5110    0.4040    0.7710 N   0  0  0  0  0  0  0  0  0  0  0  0
    1.3060    0.8180    1.1780 C   0  0  0  0  0  0  0  0  0  0  0  0
    1.0540    0.9090    2.4100 O   0  0  0  0  0  0  0  0  0  0  0  0
    4.0330   -0.1100   -1.0580 C   0  0  0  0  0  0  0  0  0  0  0  0
    4.7170   -1.0950   -0.5550 C   0  0  0  0  0  0  0  0  0  0  0  0
    5.9560   -1.2730   -1.2300 F   0  0  0  0  0  0  0  0  0  0  0  0
    4.4670   -2.1430    0.3740 C   0  0  0  0  0  0  0  0  0  0  0  0
    5.5070   -2.8820    0.6750 O   0  0  0  0  0  0  0  0  0  0  0  0
    3.2960   -2.5410    1.0260 N   0  0  0  0  0  0  0  0  0  0  0  0
    3.3340   -3.6060    1.9030 O   0  0  0  0  0  0  0  0  0  0  0  0
    4.4900    0.6390   -2.3050 C   0  0  0  0  0  0  0  0  0  0  0  0
    3.4260    0.7540   -3.3320 C   0  0  0  0  0  0  0  0  0  0  0  0
    2.1230    0.5270   -2.8540 O   0  0  0  0  0  0  0  0  0  0  0  0
   -1.2410    2.9700    0.8850 C   0  0  0  0  0  0  0  0  0  0  0  0
  1  2  1  0
  2  3  1  0
  3  4  2  0
  3 34  1  0
  4  5  1  0
  5  6  2  0
  6  7  1  0
  6 14  1  0
  7  8  1  0
  8  9  1  0
  9 10  2  0
  9 13  1  0
 10 11  1  0
 11 12  2  0
 12 13  1  0
 14 15  1  0
 14 34  2  0
 15 16  2  0
 15 22  1  0
 16 17  1  0
 16 19  1  0
 17 18  1  0
 19 20  2  0
 19 33  1  0
 20 21  1  0
 20 24  1  0
 21 22  1  0
 22 23  2  0
 24 25  2  3
 24 31  1  0
 25 26  1  0
 25 27  1  0
 27 28  2  0
 27 29  1  0
 29 30  1  0
 31 32  1  0
 32 33  1  0
M  END
