
     RDKit          3D

 33 36  0  0  0  0  0  0  0  0999 V2000
    3.8010    0.5850   -0.9920 O   0  0  0  0  0  0  0  0  0  0  0  0
    2.8070   -0.0830   -0.6200 C   0  0  0  0  0  0  0  0  0  0  0  0
    2.9750   -1.3770   -0.2150 O   0  0  0  0  0  0  0  0  0  0  0  0
    4.2200   -2.0290   -0.1860 C   0  0  0  0  0  0  0  0  0  0  0  0
    5.2370   -1.3790    0.7100 C   0  0  2  0  0  0  0  0  0  0  0  0
    6.5030   -2.1890    0.6220 C   0  0  0  0  0  0  0  0  0  0  0  0
    6.4270   -3.0050    1.9170 C   0  0  0  0  0  0  0  0  0  0  0  0
    5.6940   -2.0290    2.8100 C   0  0  0  0  0  0  0  0  0  0  0  0
    4.8090   -1.3380    2.0040 O   0  0  0  0  0  0  0  0  0  0  0  0
    1.5220    0.5500   -0.6370 N   0  0  0  0  0  0  0  0  0  0  0  0
    0.2570   -0.0410   -0.2520 C   0  0  0  0  0  0  0  0  0  0  0  0
   -0.5110    1.1180    0.2980 C   0  0  0  0  0  0  0  0  0  0  0  0
   -1.6630    1.0120    0.9180 C   0  0  0  0  0  0  0  0  0  0  0  0
   -2.4370   -0.5680    1.1660 S   0  0  0  0  0  0  0  0  0  0  0  0
   -3.6850   -0.8190   -0.1260 C   0  0  1  0  0  0  0  0  0  0  0  0
   -3.0680   -0.9440   -1.5000 C   0  0  0  0  0  0  0  0  0  0  0  0
   -4.0830   -1.5890   -2.4160 C   0  0  0  0  0  0  0  0  0  0  0  0
   -5.5020   -1.3800   -1.9340 C   0  0  0  0  0  0  0  0  0  0  0  0
   -5.7430   -1.9200   -0.6280 N   0  0  0  0  0  0  0  0  0  0  0  0
   -4.4940   -2.0760    0.1100 C   0  0  2  0  0  0  0  0  0  0  0  0
   -4.7370   -2.2150    1.5880 C   0  0  0  0  0  0  0  0  0  0  0  0
   -5.5450   -3.4530    1.9160 C   0  0  0  0  0  0  0  0  0  0  0  0
   -5.7210   -3.4980    3.3040 O   0  0  0  0  0  0  0  0  0  0  0  0
    0.2640    2.3240    0.0050 C   0  0  0  0  0  0  0  0  0  0  0  0
    0.1420    3.4690    0.5280 N   0  0  0  0  0  0  0  0  0  0  0  0
    0.9120    4.6040    0.2120 C   0  0  0  0  0  0  0  0  0  0  0  0
    0.3390    5.6600   -0.4650 C   0  0  0  0  0  0  0  0  0  0  0  0
    1.1010    6.7750   -0.7760 C   0  0  0  0  0  0  0  0  0  0  0  0
    2.4340    6.8800   -0.4320 C   0  0  0  0  0  0  0  0  0  0  0  0
    3.1770    7.9780   -0.7410 F   0  0  0  0  0  0  0  0  0  0  0  0
    3.0060    5.8270    0.2430 C   0  0  0  0  0  0  0  0  0  0  0  0
    2.2460    4.7240    0.5490 C   0  0  0  0  0  0  0  0  0  0  0  0
    1.2260    1.9100   -1.0440 C   0  0  0  0  0  0  0  0  0  0  0  0
  1  2  2  0
  2  3  1  0
  2 10  1  0
  3  4  1  0
  5  4  1  6
  5  6  1  0
  5  9  1  0
  6  7  1  0
  7  8  1  0
  8  9  1  0
 10 11  1  0
 10 33  1  0
 11 12  1  0
 12 13  2  3
 12 24  1  0
 13 14  1  0
 15 14  1  1
 15 16  1  0
 15 20  1  0
 16 17  1  0
 17 18  1  0
 18 19  1  0
 19 20  1  0
 20 21  1  1
 21 22  1  0
 22 23  1  0
 24 25  2  3
 24 33  1  0
 25 26  1  0
 26 27  2  0
 26 32  1  0
 27 28  1  0
 28 29  2  0
 29 30  1  0
 29 31  1  0
 31 32  2  0
M  CHG  1  19   1
M  END
