
     RDKit          3D

 33 35  0  0  0  0  0  0  0  0999 V2000
    6.4500   -1.6550    3.4210 C   0  0  0  0  0  0  0  0  0  0  0  0
    5.5340   -2.4090    2.9340 C   0  0  0  0  0  0  0  0  0  0  0  0
    4.6480   -2.2660    1.8330 C   0  0  0  0  0  0  0  0  0  0  0  0
    3.8270   -3.2880    1.5910 C   0  0  0  0  0  0  0  0  0  0  0  0
    4.4550   -1.0160    0.9980 C   0  0  2  0  0  0  0  0  0  0  0  0
    4.7050    0.2290    1.7190 C   0  0  0  0  0  0  0  0  0  0  0  0
    3.8400    1.3650    1.4130 C   0  0  0  0  0  0  0  0  0  0  0  0
    2.8550    1.3110    0.5640 C   0  0  0  0  0  0  0  0  0  0  0  0
    2.0560    2.5020    0.3360 C   0  0  0  0  0  0  0  0  0  0  0  0
    1.0100    2.4250   -0.4820 C   0  0  0  0  0  0  0  0  0  0  0  0
    0.2080    3.6380   -0.7080 C   0  0  0  0  0  0  0  0  0  0  0  0
    0.6670    1.1740   -1.1400 C   0  0  0  0  0  0  0  0  0  0  0  0
   -0.5820    1.1120   -1.8760 N   0  0  0  0  0  0  0  0  0  0  0  0
   -1.4430    0.5220   -0.9470 C   0  0  0  0  0  0  0  0  0  0  0  0
   -2.6120    0.4880   -1.6500 N   0  0  0  0  0  0  0  0  0  0  0  0
   -3.8840    0.3520   -1.0770 C   0  0  0  0  0  0  0  0  0  0  0  0
   -3.7710    0.3150    0.1530 O   0  0  0  0  0  0  0  0  0  0  0  0
   -5.0390    0.2830   -1.9460 C   0  0  1  0  0  0  0  0  0  0  0  0
   -6.0290    1.3730   -1.6460 C   0  0  0  0  0  0  0  0  0  0  0  0
   -5.3710    2.5420   -2.3880 C   0  0  0  0  0  0  0  0  0  0  0  0
   -4.7520    1.8200   -3.5680 C   0  0  2  0  0  0  0  0  0  0  0  0
   -5.6900    1.9560   -4.7710 C   0  0  0  0  0  0  0  0  0  0  0  0
   -6.9090    1.3990   -4.4620 F   0  0  0  0  0  0  0  0  0  0  0  0
   -4.6850    0.4870   -3.2720 O   0  0  0  0  0  0  0  0  0  0  0  0
   -0.5480   -0.0640    0.4410 S   0  0  0  0  0  0  0  0  0  0  0  0
   -1.1160   -1.6180    1.0560 C   0  0  0  0  0  0  0  0  0  0  0  0
   -0.3810   -2.1370    2.1820 C   0  0  0  0  0  0  0  0  0  0  0  0
    0.5880   -1.5050    2.6720 O   0  0  0  0  0  0  0  0  0  0  0  0
   -0.7260   -3.3430    2.7540 O   0  0  0  0  0  0  0  0  0  0  0  0
   -0.0560   -3.8970    3.8450 C   0  0  0  0  0  0  0  0  0  0  0  0
    1.3780    0.0990   -0.9520 C   0  0  0  0  0  0  0  0  0  0  0  0
    2.5310    0.0840   -0.0830 N   0  0  0  0  0  0  0  0  0  0  0  0
    3.2700   -1.1180    0.1340 C   0  0  0  0  0  0  0  0  0  0  0  0
  1  2  2  0
  2  3  1  0
  3  4  2  0
  5  3  1  1
  5  6  1  0
  5 33  1  0
  6  7  1  0
  7  8  2  0
  8  9  1  0
  8 32  1  0
  9 10  2  0
 10 11  1  0
 10 12  1  0
 12 13  1  0
 12 31  2  0
 13 14  2  3
 14 15  1  0
 14 25  1  0
 15 16  1  0
 16 17  2  0
 18 16  1  1
 18 19  1  0
 18 24  1  0
 19 20  1  0
 20 21  1  0
 21 22  1  6
 21 24  1  0
 22 23  1  0
 25 26  1  0
 26 27  1  0
 27 28  2  0
 27 29  1  0
 29 30  1  0
 31 32  1  0
 32 33  1  0
M  END
