
     RDKit          3D

 33 36  0  0  0  0  0  0  0  0999 V2000
   -1.1350    2.5840    0.3370 C   0  0  0  0  0  0  0  0  0  0  0  0
   -0.7920    1.1750    0.2510 N   0  0  0  0  0  0  0  0  0  0  0  0
   -0.8170    0.3900    1.4130 C   0  0  0  0  0  0  0  0  0  0  0  0
    0.1930   -0.2040    1.9300 N   0  0  0  0  0  0  0  0  0  0  0  0
    1.4970   -0.1440    1.3840 C   0  0  0  0  0  0  0  0  0  0  0  0
    2.0970   -1.2960    0.9000 C   0  0  0  0  0  0  0  0  0  0  0  0
    3.3580   -1.1990    0.3850 C   0  0  0  0  0  0  0  0  0  0  0  0
    4.0670   -0.0300    0.3190 C   0  0  0  0  0  0  0  0  0  0  0  0
    5.3670    0.0060   -0.2160 N   0  0  0  0  0  0  0  0  0  0  0  0
    6.0260    1.2990   -0.3350 C   0  0  0  0  0  0  0  0  0  0  0  0
    7.3760    1.1580    0.2850 C   0  0  0  0  0  0  0  0  0  0  0  0
    8.0330    0.0220    0.0740 C   0  0  0  0  0  0  0  0  0  0  0  0
    7.4990   -1.0900   -0.7330 C   0  0  0  0  0  0  0  0  0  0  0  0
    6.0000   -1.2230   -0.6220 C   0  0  0  0  0  0  0  0  0  0  0  0
    3.4450    1.0780    0.8040 N   0  0  0  0  0  0  0  0  0  0  0  0
    2.2060    1.0340    1.3200 C   0  0  0  0  0  0  0  0  0  0  0  0
   -0.4420    0.6020   -1.0200 C   0  0  0  0  0  0  0  0  0  0  0  0
   -1.6710    0.5660   -1.9090 C   0  0  0  0  0  0  0  0  0  0  0  0
   -2.7480   -0.2600   -1.2950 C   0  0  0  0  0  0  0  0  0  0  0  0
   -2.7690   -1.6030   -1.5870 C   0  0  0  0  0  0  0  0  0  0  0  0
   -3.7270   -2.4460   -1.0570 C   0  0  0  0  0  0  0  0  0  0  0  0
   -4.6770   -1.9180   -0.2190 C   0  0  0  0  0  0  0  0  0  0  0  0
   -5.6600   -2.7160    0.3420 C   0  0  0  0  0  0  0  0  0  0  0  0
   -5.6710   -3.9590    0.0680 O   0  0  0  0  0  0  0  0  0  0  0  0
   -6.6100   -2.1690    1.1860 C   0  0  0  0  0  0  0  0  0  0  0  0
   -6.5910   -0.8370    1.4750 C   0  0  0  0  0  0  0  0  0  0  0  0
   -5.6410   -0.0650    0.9330 N   0  0  0  0  0  0  0  0  0  0  0  0
   -5.6110    1.3160    1.2220 C   0  0  0  0  0  0  0  0  0  0  0  0
   -6.1960    2.1890    0.4330 C   0  0  0  0  0  0  0  0  0  0  0  0
   -6.1650    3.5140    0.7140 F   0  0  0  0  0  0  0  0  0  0  0  0
   -6.8580    1.8270   -0.6970 F   0  0  0  0  0  0  0  0  0  0  0  0
   -4.7000   -0.5640    0.1070 C   0  0  0  0  0  0  0  0  0  0  0  0
   -3.7160    0.2350   -0.4510 C   0  0  0  0  0  0  0  0  0  0  0  0
  1  2  1  0
  2  3  1  0
  2 17  1  0
  3  4  2  3
  4  5  1  0
  5  6  2  0
  5 16  1  0
  6  7  1  0
  7  8  2  0
  8  9  1  0
  8 15  1  0
  9 10  1  0
  9 14  1  0
 10 11  1  0
 11 12  2  0
 12 13  1  0
 13 14  1  0
 15 16  2  0
 17 18  1  0
 18 19  1  0
 19 20  2  0
 19 33  1  0
 20 21  1  0
 21 22  2  0
 22 23  1  0
 22 32  1  0
 23 24  2  0
 23 25  1  0
 25 26  2  0
 26 27  1  0
 27 28  1  0
 27 32  1  0
 28 29  2  3
 29 30  1  0
 29 31  1  0
 32 33  2  0
M  END
