
     RDKit          3D

 32 35  0  0  0  0  0  0  0  0999 V2000
    7.3200    0.1920    1.6590 C   0  0  0  0  0  0  0  0  0  0  0  0
    6.2090    0.5030    0.6910 C   0  0  1  0  0  0  0  0  0  0  0  0
    6.4520    1.7400   -0.0800 C   0  0  0  0  0  0  0  0  0  0  0  0
    5.8730   -0.7260   -0.0880 C   0  0  0  0  0  0  0  0  0  0  0  0
    6.5030   -1.8540   -0.0880 O   0  0  0  0  0  0  0  0  0  0  0  0
    5.9160   -2.7200   -0.8670 C   0  0  0  0  0  0  0  0  0  0  0  0
    4.8470   -2.1080   -1.3990 N   0  0  0  0  0  0  0  0  0  0  0  0
    4.7970   -0.8400   -0.9280 C   0  0  0  0  0  0  0  0  0  0  0  0
    3.9500    0.2460   -1.4540 C   0  0  0  0  0  0  0  0  0  0  0  0
    2.6890    0.2960   -0.8760 N   0  0  0  0  0  0  0  0  0  0  0  0
    1.9490   -0.8150   -0.6330 C   0  0  0  0  0  0  0  0  0  0  0  0
    1.1270   -0.6460    0.6210 C   0  0  0  0  0  0  0  0  0  0  0  0
    0.4620    0.5650    0.8550 N   0  0  0  0  0  0  0  0  0  0  0  0
   -0.9850    0.5090    0.8760 C   0  0  0  0  0  0  0  0  0  0  0  0
   -1.6080    0.3260   -0.4380 C   0  0  0  0  0  0  0  0  0  0  0  0
   -0.9430   -0.0140   -1.5400 N   0  0  0  0  0  0  0  0  0  0  0  0
   -1.7730   -0.0340   -2.5600 C   0  0  0  0  0  0  0  0  0  0  0  0
   -3.0030    0.3090   -2.0760 C   0  0  0  0  0  0  0  0  0  0  0  0
   -2.8700    0.5270   -0.7490 N   0  0  0  0  0  0  0  0  0  0  0  0
   -3.9810    0.9390    0.0210 C   0  0  0  0  0  0  0  0  0  0  0  0
   -4.0130    2.3140    0.2970 C   0  0  0  0  0  0  0  0  0  0  0  0
   -5.0630    2.8500    0.9830 C   0  0  0  0  0  0  0  0  0  0  0  0
   -6.1070    2.0340    1.4120 C   0  0  0  0  0  0  0  0  0  0  0  0
   -7.1740    2.5430    2.0860 F   0  0  0  0  0  0  0  0  0  0  0  0
   -6.0940    0.6910    1.1550 C   0  0  0  0  0  0  0  0  0  0  0  0
   -5.0160    0.1490    0.4540 C   0  0  0  0  0  0  0  0  0  0  0  0
   -5.0170   -1.2900    0.2380 C   0  0  1  0  0  0  0  0  0  0  0  0
   -5.0010   -1.8010   -1.1720 C   0  0  0  0  0  0  0  0  0  0  0  0
   -3.7490   -1.9250    0.8830 C   0  0  0  0  0  0  0  0  0  0  0  0
   -6.1490   -2.0230    0.9610 C   0  0  0  0  0  0  0  0  0  0  0  0
    0.9180    1.6940    0.0660 C   0  0  0  0  0  0  0  0  0  0  0  0
    2.3240    1.5790   -0.3470 C   0  0  0  0  0  0  0  0  0  0  0  0
  2  1  1  6
  2  3  1  0
  2  4  1  0
  4  5  1  0
  4  8  2  0
  5  6  1  0
  6  7  2  0
  7  8  1  0
  8  9  1  0
  9 10  1  0
 10 11  1  0
 10 32  1  0
 11 12  1  0
 12 13  1  0
 13 14  1  0
 13 31  1  0
 14 15  1  0
 15 16  2  0
 15 19  1  0
 16 17  1  0
 17 18  2  0
 18 19  1  0
 19 20  1  0
 20 21  2  0
 20 26  1  0
 21 22  1  0
 22 23  2  0
 23 24  1  0
 23 25  1  0
 25 26  2  0
 26 27  1  0
 27 28  1  6
 27 29  1  0
 27 30  1  0
 31 32  1  0
M  END
