
     RDKit          3D

 33 36  0  0  0  0  0  0  0  0999 V2000
   -6.3440    1.9970   -0.1610 C   0  0  0  0  0  0  0  0  0  0  0  0
   -5.9470    1.4460   -1.5000 C   0  0  0  0  0  0  0  0  0  0  0  0
   -5.6020    0.1760   -1.6040 C   0  0  0  0  0  0  0  0  0  0  0  0
   -5.6020   -0.7080   -0.4200 C   0  0  0  0  0  0  0  0  0  0  0  0
   -4.2650   -1.2800   -0.0820 C   0  0  0  0  0  0  0  0  0  0  0  0
   -3.2500   -0.3520    0.2760 N   0  0  0  0  0  0  0  0  0  0  0  0
   -2.6060    0.6220   -0.5700 C   0  0  0  0  0  0  0  0  0  0  0  0
   -1.1000    0.4850   -0.5180 C   0  0  0  0  0  0  0  0  0  0  0  0
   -0.5840    0.4770    0.8580 N   0  0  0  0  0  0  0  0  0  0  0  0
    0.7760    0.8980    1.0430 C   0  0  0  0  0  0  0  0  0  0  0  0
    1.6890    0.0040    0.2360 C   0  0  0  0  0  0  0  0  0  0  0  0
    1.3960   -1.0190   -0.5630 N   0  0  0  0  0  0  0  0  0  0  0  0
    2.4900   -1.5380   -1.0950 N   0  0  0  0  0  0  0  0  0  0  0  0
    2.5940   -2.6590   -2.0170 C   0  0  0  0  0  0  0  0  0  0  0  0
    3.5670   -0.8640   -0.6590 C   0  0  0  0  0  0  0  0  0  0  0  0
    4.9160   -0.9440   -0.8580 C   0  0  0  0  0  0  0  0  0  0  0  0
    5.3310   -1.8440   -1.6310 O   0  0  0  0  0  0  0  0  0  0  0  0
    5.7850   -0.0870   -0.2510 N   0  0  0  0  0  0  0  0  0  0  0  0
    7.1940   -0.2700   -0.5410 C   0  0  0  0  0  0  0  0  0  0  0  0
    7.5900    0.5710   -1.7570 C   0  0  0  0  0  0  0  0  0  0  0  0
    5.3300    0.8600    0.5630 C   0  0  0  0  0  0  0  0  0  0  0  0
    6.2540    1.7980    1.2340 C   0  0  0  0  0  0  0  0  0  0  0  0
    3.9790    0.9750    0.7930 C   0  0  0  0  0  0  0  0  0  0  0  0
    3.0750    0.1170    0.1870 C   0  0  0  0  0  0  0  0  0  0  0  0
   -1.4750    0.0560    1.8790 C   0  0  0  0  0  0  0  0  0  0  0  0
   -1.0270    0.0520    3.1890 C   0  0  0  0  0  0  0  0  0  0  0  0
   -1.8360   -0.3460    4.2540 C   0  0  0  0  0  0  0  0  0  0  0  0
   -3.1220   -0.7470    3.9790 C   0  0  0  0  0  0  0  0  0  0  0  0
   -3.5750   -0.7460    2.6740 C   0  0  0  0  0  0  0  0  0  0  0  0
   -2.7830   -0.3570    1.6430 C   0  0  0  0  0  0  0  0  0  0  0  0
   -5.2500   -0.3620   -2.9540 C   0  0  1  0  0  0  0  0  0  0  0  0
   -6.2250   -1.2910   -3.3440 F   0  0  0  0  0  0  0  0  0  0  0  0
   -5.1660    0.5900   -3.9150 F   0  0  0  0  0  0  0  0  0  0  0  0
  1  2  1  0
  2  3  2  3
  3  4  1  0
  3 31  1  0
  4  5  1  0
  5  6  1  0
  6  7  1  0
  6 30  1  0
  7  8  1  0
  8  9  1  0
  9 10  1  0
  9 25  1  0
 10 11  1  0
 11 12  2  0
 11 24  1  0
 12 13  1  0
 13 14  1  0
 13 15  1  0
 15 16  1  0
 15 24  2  0
 16 17  2  0
 16 18  1  0
 18 19  1  0
 18 21  1  0
 19 20  1  0
 21 22  1  0
 21 23  2  0
 23 24  1  0
 25 26  2  0
 25 30  1  0
 26 27  1  0
 27 28  2  0
 28 29  1  0
 29 30  2  0
 31 32  1  6
 31 33  1  0
M  END
