
     RDKit          3D

 33 36  0  0  0  0  0  0  0  0999 V2000
   -5.6640   -0.4650   -3.8850 C   0  0  0  0  0  0  0  0  0  0  0  0
   -4.4540   -0.5360   -3.8740 C   0  0  0  0  0  0  0  0  0  0  0  0
   -3.0030   -0.6410   -3.8450 C   0  0  0  0  0  0  0  0  0  0  0  0
   -2.4340   -0.2060   -2.6560 O   0  0  0  0  0  0  0  0  0  0  0  0
   -2.9160   -0.9130   -1.5950 C   0  0  0  0  0  0  0  0  0  0  0  0
   -2.3000   -0.5140   -0.2460 C   0  0  2  0  0  0  0  0  0  0  0  0
   -0.8550   -0.8000   -0.4070 C   0  0  0  0  0  0  0  0  0  0  0  0
   -0.4210   -1.7200    0.3020 O   0  0  0  0  0  0  0  0  0  0  0  0
    0.0760   -0.1220   -1.3020 C   0  0  0  0  0  0  0  0  0  0  0  0
    1.4040   -0.6010   -1.1410 N   0  0  0  0  0  0  0  0  0  0  0  0
    2.3260   -0.0980   -2.1220 C   0  0  0  0  0  0  0  0  0  0  0  0
    3.7220   -0.5950   -1.8980 C   0  0  0  0  0  0  0  0  0  0  0  0
    4.1930   -0.2770   -0.5530 N   0  0  0  0  0  0  0  0  0  0  0  0
    5.5820   -0.1170   -0.4010 C   0  0  0  0  0  0  0  0  0  0  0  0
    6.2920   -0.3070   -1.4710 O   0  0  0  0  0  0  0  0  0  0  0  0
    6.3380    0.2290    0.7720 C   0  0  0  0  0  0  0  0  0  0  0  0
    5.9150    0.5360    2.0300 C   0  0  0  0  0  0  0  0  0  0  0  0
    7.0540    0.7920    2.7910 C   0  0  0  0  0  0  0  0  0  0  0  0
    8.1120    0.6300    1.9690 C   0  0  0  0  0  0  0  0  0  0  0  0
    7.6750    0.3050    0.8070 O   0  0  0  0  0  0  0  0  0  0  0  0
    3.2490   -0.1700    0.4950 C   0  0  0  0  0  0  0  0  0  0  0  0
    1.9250   -0.7520    0.1480 C   0  0  0  0  0  0  0  0  0  0  0  0
   -2.9380   -1.3590    0.7990 C   0  0  0  0  0  0  0  0  0  0  0  0
   -4.1060   -0.7070    1.4710 C   0  0  0  0  0  0  0  0  0  0  0  0
   -4.7920    0.3630    0.7020 C   0  0  0  0  0  0  0  0  0  0  0  0
   -3.9680    1.2440   -0.0540 N   0  0  0  0  0  0  0  0  0  0  0  0
   -2.5240    0.9150    0.0410 C   0  0  1  0  0  0  0  0  0  0  0  0
   -2.1090    1.3650    1.3730 C   0  0  0  0  0  0  0  0  0  0  0  0
   -1.3440    0.9760    2.3520 C   0  0  0  0  0  0  0  0  0  0  0  0
   -1.1910    1.6680    3.4980 C   0  0  0  0  0  0  0  0  0  0  0  0
   -1.9080    2.8660    3.6030 C   0  0  0  0  0  0  0  0  0  0  0  0
   -1.9550    3.7720    4.6260 F   0  0  0  0  0  0  0  0  0  0  0  0
   -2.7720    2.9380    2.0400 S   0  0  0  0  0  0  0  0  0  0  0  0
  1  2  3  0
  2  3  1  0
  3  4  1  0
  4  5  1  0
  6  5  1  6
  6  7  1  0
  6 23  1  0
  6 27  1  0
  7  8  2  0
  7  9  1  0
  9 10  1  0
 10 11  1  0
 10 22  1  0
 11 12  1  0
 12 13  1  0
 13 14  1  0
 13 21  1  0
 14 15  2  0
 14 16  1  0
 16 17  2  0
 16 20  1  0
 17 18  1  0
 18 19  2  0
 19 20  1  0
 21 22  1  0
 23 24  1  0
 24 25  1  0
 25 26  1  0
 26 27  1  0
 27 28  1  1
 28 29  2  0
 28 33  1  0
 29 30  1  0
 30 31  2  0
 31 32  1  0
 31 33  1  0
M  CHG  1  26   1
M  END
