
     RDKit          3D

 33 36  0  0  0  0  0  0  0  0999 V2000
   -1.4680   -3.3750    0.4480 C   0  0  0  0  0  0  0  0  0  0  0  0
   -2.3550   -2.2490    0.6330 N   0  0  0  0  0  0  0  0  0  0  0  0
   -3.1000   -1.8580   -0.3120 C   0  0  0  0  0  0  0  0  0  0  0  0
   -4.0390   -0.7390   -0.2630 C   0  0  0  0  0  0  0  0  0  0  0  0
   -4.7480   -0.4810   -1.3630 C   0  0  0  0  0  0  0  0  0  0  0  0
   -4.5810   -1.2550   -2.4890 F   0  0  0  0  0  0  0  0  0  0  0  0
   -5.6550    0.5060   -1.4750 F   0  0  0  0  0  0  0  0  0  0  0  0
   -4.2410    0.0730    0.8850 N   0  0  0  0  0  0  0  0  0  0  0  0
   -5.6190    0.3750    1.2390 C   0  0  0  0  0  0  0  0  0  0  0  0
   -3.1250    0.5200    1.6360 C   0  0  0  0  0  0  0  0  0  0  0  0
   -2.8070    1.9630    1.6740 C   0  0  0  0  0  0  0  0  0  0  0  0
   -2.4830    2.4940    0.3920 N   0  0  0  0  0  0  0  0  0  0  0  0
   -3.4500    2.6480   -0.6590 C   0  0  0  0  0  0  0  0  0  0  0  0
   -1.1490    2.9050    0.1230 C   0  0  0  0  0  0  0  0  0  0  0  0
   -0.8540    4.2620   -0.0280 C   0  0  0  0  0  0  0  0  0  0  0  0
    0.4240    4.6990   -0.2780 C   0  0  0  0  0  0  0  0  0  0  0  0
    1.4560    3.7970   -0.3870 C   0  0  0  0  0  0  0  0  0  0  0  0
    2.7520    3.8910   -0.6150 O   0  0  0  0  0  0  0  0  0  0  0  0
    3.3130    2.7000   -0.6210 C   0  0  0  0  0  0  0  0  0  0  0  0
    4.5940    2.2430   -0.8020 C   0  0  0  0  0  0  0  0  0  0  0  0
    4.9090    0.9060   -0.7520 C   0  0  0  0  0  0  0  0  0  0  0  0
    3.9230   -0.0320   -0.5120 C   0  0  0  0  0  0  0  0  0  0  0  0
    4.3070   -1.4400   -0.4530 C   0  0  0  0  0  0  0  0  0  0  0  0
    3.4280   -2.4700   -0.2030 C   0  0  0  0  0  0  0  0  0  0  0  0
    3.8700   -3.7980   -0.1500 C   0  0  0  0  0  0  0  0  0  0  0  0
    5.2000   -4.0890   -0.3510 C   0  0  0  0  0  0  0  0  0  0  0  0
    5.7360   -5.4830   -0.3060 C   0  0  0  0  0  0  0  0  0  0  0  0
    6.0220   -3.0460   -0.5940 N   0  0  0  0  0  0  0  0  0  0  0  0
    5.5890   -1.7870   -0.6410 N   0  0  0  0  0  0  0  0  0  0  0  0
    2.6260    0.3970   -0.3270 C   0  0  0  0  0  0  0  0  0  0  0  0
    2.3430    1.7510   -0.3840 C   0  0  0  0  0  0  0  0  0  0  0  0
    1.1450    2.4660   -0.2350 C   0  0  0  0  0  0  0  0  0  0  0  0
   -0.1130    2.0120    0.0130 C   0  0  0  0  0  0  0  0  0  0  0  0
  1  2  1  0
  2  3  2  3
  3  4  1  0
  4  5  2  3
  4  8  1  0
  5  6  1  0
  5  7  1  0
  8  9  1  0
  8 10  1  0
 10 11  1  0
 11 12  1  0
 12 13  1  0
 12 14  1  0
 14 15  2  0
 14 33  1  0
 15 16  1  0
 16 17  2  0
 17 18  1  0
 17 32  1  0
 18 19  1  0
 19 20  2  0
 19 31  1  0
 20 21  1  0
 21 22  2  0
 22 23  1  0
 22 30  1  0
 23 24  2  0
 23 29  1  0
 24 25  1  0
 25 26  2  0
 26 27  1  0
 26 28  1  0
 28 29  2  0
 30 31  2  0
 31 32  1  0
 32 33  2  0
M  END
