
     RDKit          3D

 33 36  0  0  0  0  0  0  0  0999 V2000
   -0.4730    2.0850    0.9580 C   0  0  0  0  0  0  0  0  0  0  0  0
   -1.0400    1.8940   -0.3950 C   0  0  2  0  0  0  0  0  0  0  0  0
   -2.1140    2.7510   -0.7840 C   0  0  0  0  0  0  0  0  0  0  0  0
   -2.7550    2.4620   -2.0050 C   0  0  0  0  0  0  0  0  0  0  0  0
   -3.7530    3.2870   -2.4440 C   0  0  0  0  0  0  0  0  0  0  0  0
   -4.3630    3.0660   -3.6330 F   0  0  0  0  0  0  0  0  0  0  0  0
   -4.1520    4.3860   -1.7220 C   0  0  0  0  0  0  0  0  0  0  0  0
   -3.5620    4.7090   -0.5180 C   0  0  0  0  0  0  0  0  0  0  0  0
   -4.0000    5.7620    0.1980 F   0  0  0  0  0  0  0  0  0  0  0  0
   -2.5420    3.8440   -0.1020 C   0  0  0  0  0  0  0  0  0  0  0  0
   -1.2540    0.4500   -0.6510 N   0  0  0  0  0  0  0  0  0  0  0  0
   -0.2510   -0.2830   -1.1230 C   0  0  0  0  0  0  0  0  0  0  0  0
    1.0820   -0.6030   -0.6400 C   0  0  0  0  0  0  0  0  0  0  0  0
    1.5590   -1.8870   -0.9650 N   0  0  0  0  0  0  0  0  0  0  0  0
    2.8230   -2.2100   -0.7740 C   0  0  0  0  0  0  0  0  0  0  0  0
    3.7300   -1.3470   -0.2690 C   0  0  0  0  0  0  0  0  0  0  0  0
    3.3010   -0.0760    0.0760 C   0  0  0  0  0  0  0  0  0  0  0  0
    1.9950    0.2210   -0.1260 N   0  0  0  0  0  0  0  0  0  0  0  0
    4.0830    0.9890    0.6570 C   0  0  0  0  0  0  0  0  0  0  0  0
    5.4070    1.0410    0.8540 C   0  0  0  0  0  0  0  0  0  0  0  0
    6.3760    0.0360    0.5390 N   0  0  0  0  0  0  0  0  0  0  0  0
    7.7830    0.3370    0.7660 C   0  0  0  0  0  0  0  0  0  0  0  0
    6.2090   -1.2900    0.0300 C   0  0  0  0  0  0  0  0  0  0  0  0
    5.1010   -1.9080   -0.3210 C   0  0  0  0  0  0  0  0  0  0  0  0
   -2.3250    0.0170    0.1670 C   0  0  0  0  0  0  0  0  0  0  0  0
   -2.6480   -1.3370    0.5700 C   0  0  0  0  0  0  0  0  0  0  0  0
   -3.2130   -2.3780   -0.0810 C   0  0  0  0  0  0  0  0  0  0  0  0
   -3.6370   -3.5280    0.5260 N   0  0  0  0  0  0  0  0  0  0  0  0
   -4.3750   -4.5300   -0.2010 C   0  0  0  0  0  0  0  0  0  0  0  0
   -3.4800   -3.6520    1.8700 C   0  0  0  0  0  0  0  0  0  0  0  0
   -2.9220   -2.6580    2.6080 C   0  0  0  0  0  0  0  0  0  0  0  0
   -2.5200   -1.5310    1.9850 C   0  0  0  0  0  0  0  0  0  0  0  0
   -2.0070   -0.5710    2.6240 O   0  0  0  0  0  0  0  0  0  0  0  0
  2  1  1  1
  2  3  1  0
  2 11  1  0
  3  4  2  0
  3 10  1  0
  4  5  1  0
  5  6  1  0
  5  7  2  0
  7  8  1  0
  8  9  1  0
  8 10  2  0
 11 12  1  0
 11 25  1  0
 12 13  1  0
 13 14  2  0
 13 18  1  0
 14 15  1  0
 15 16  2  0
 16 17  1  0
 16 24  1  0
 17 18  2  0
 17 19  1  0
 19 20  2  0
 20 21  1  0
 21 22  1  0
 21 23  1  0
 23 24  2  0
 25 26  1  0
 26 27  2  0
 26 32  1  0
 27 28  1  0
 28 29  1  0
 28 30  1  0
 30 31  2  0
 31 32  1  0
 32 33  2  0
M  END
