
     RDKit          3D

 33 36  0  0  0  0  0  0  0  0999 V2000
   -3.4890    2.0080   -2.1720 C   0  0  0  0  0  0  0  0  0  0  0  0
   -2.3970    1.5080   -1.2420 C   0  0  0  0  0  0  0  0  0  0  0  0
   -2.6960    1.5690    0.1950 C   0  0  0  0  0  0  0  0  0  0  0  0
   -3.8360    0.8770    0.7070 N   0  0  0  0  0  0  0  0  0  0  0  0
   -4.2900    1.2920    2.0350 C   0  0  0  0  0  0  0  0  0  0  0  0
   -5.4880    2.1870    1.9170 C   0  0  0  0  0  0  0  0  0  0  0  0
   -6.5770    1.8240    1.0390 C   0  0  0  0  0  0  0  0  0  0  0  0
   -6.7190    0.9150    0.0870 C   0  0  0  0  0  0  0  0  0  0  0  0
   -7.9410    0.8730   -0.5550 F   0  0  0  0  0  0  0  0  0  0  0  0
   -5.7700   -0.0850   -0.4060 C   0  0  0  0  0  0  0  0  0  0  0  0
   -6.1740   -1.0690   -1.2100 F   0  0  0  0  0  0  0  0  0  0  0  0
   -4.4440   -0.0960   -0.1110 C   0  0  0  0  0  0  0  0  0  0  0  0
   -3.7150   -1.1940   -0.6700 C   0  0  0  0  0  0  0  0  0  0  0  0
   -2.4610   -1.5300   -0.5010 C   0  0  0  0  0  0  0  0  0  0  0  0
   -1.8190   -2.6420   -1.0910 N   0  0  0  0  0  0  0  0  0  0  0  0
   -2.4410   -3.5540   -1.8320 C   0  0  0  0  0  0  0  0  0  0  0  0
   -1.7400   -4.6470   -2.3490 C   0  0  0  0  0  0  0  0  0  0  0  0
   -0.3970   -4.8150   -2.1090 C   0  0  0  0  0  0  0  0  0  0  0  0
    0.1830   -3.8680   -1.3560 N   0  0  0  0  0  0  0  0  0  0  0  0
   -0.4750   -2.8060   -0.8510 C   0  0  0  0  0  0  0  0  0  0  0  0
    0.0640   -1.8500   -0.1940 N   0  0  0  0  0  0  0  0  0  0  0  0
    1.3500   -1.7480    0.1930 C   0  0  0  0  0  0  0  0  0  0  0  0
    1.4910   -0.1020    0.0180 C   0  0  0  0  0  0  0  0  0  0  0  0
    2.6260    0.4740    0.1750 C   0  0  0  0  0  0  0  0  0  0  0  0
    3.8810   -0.2000    0.5140 C   0  0  0  0  0  0  0  0  0  0  0  0
    4.9120    0.6770    0.6120 O   0  0  0  0  0  0  0  0  0  0  0  0
    6.2120    0.3360    1.0180 C   0  0  1  0  0  0  0  0  0  0  0  0
    7.3340    0.7180    0.1440 C   0  0  0  0  0  0  0  0  0  0  0  0
    8.2270    1.7100    0.9150 C   0  0  0  0  0  0  0  0  0  0  0  0
    7.9020    1.4830    2.3440 C   0  0  0  0  0  0  0  0  0  0  0  0
    6.5070    0.9020    2.3910 C   0  0  0  0  0  0  0  0  0  0  0  0
    3.7390   -1.4550    0.6420 N   0  0  0  0  0  0  0  0  0  0  0  0
    2.5520   -1.9950    0.4690 C   0  0  0  0  0  0  0  0  0  0  0  0
  1  2  1  0
  2  3  1  0
  3  4  1  0
  4  5  1  0
  4 12  1  0
  5  6  1  0
  6  7  1  0
  7  8  2  0
  8  9  1  0
  8 10  1  0
 10 11  1  0
 10 12  2  0
 12 13  1  0
 13 14  2  3
 14 15  1  0
 15 16  1  0
 15 20  1  0
 16 17  2  0
 17 18  1  0
 18 19  2  0
 19 20  1  0
 20 21  2  3
 21 22  1  0
 22 23  2  0
 22 33  1  0
 23 24  1  0
 24 25  2  0
 25 26  1  0
 25 32  1  0
 27 26  1  6
 27 28  1  0
 27 31  1  0
 28 29  1  0
 29 30  1  0
 30 31  1  0
 32 33  2  0
M  END
