
     RDKit          3D

 33 35  0  0  0  0  0  0  0  0999 V2000
    0.6500    5.6660    0.8060 C   0  0  0  0  0  0  0  0  0  0  0  0
    0.6190    5.5110   -0.6910 C   0  0  0  0  0  0  0  0  0  0  0  0
    1.2530    4.2430   -1.1620 C   0  0  0  0  0  0  0  0  0  0  0  0
    0.6670    3.0740   -0.6750 O   0  0  0  0  0  0  0  0  0  0  0  0
   -0.6530    2.8060   -0.9420 C   0  0  0  0  0  0  0  0  0  0  0  0
   -1.4170    3.6410   -1.6670 N   0  0  0  0  0  0  0  0  0  0  0  0
   -2.7020    3.3170   -1.8900 C   0  0  0  0  0  0  0  0  0  0  0  0
   -3.5650    4.1780   -2.6610 N   0  0  0  0  0  0  0  0  0  0  0  0
   -3.2560    2.1980   -1.4220 N   0  0  0  0  0  0  0  0  0  0  0  0
   -2.4790    1.3320   -0.6760 C   0  0  0  0  0  0  0  0  0  0  0  0
   -3.0720    0.1090   -0.1790 C   0  0  0  0  0  0  0  0  0  0  0  0
   -4.3050   -0.0770   -0.4450 O   0  0  0  0  0  0  0  0  0  0  0  0
   -2.4830   -0.8850    0.5420 O   0  0  0  0  0  0  0  0  0  0  0  0
   -3.1710   -2.0440    0.9840 C   0  0  2  0  0  0  0  0  0  0  0  0
   -3.0380   -2.3670    2.4160 C   0  0  0  0  0  0  0  0  0  0  0  0
   -3.4770   -3.8270    2.4670 C   0  0  0  0  0  0  0  0  0  0  0  0
   -3.1060   -4.4060    1.1330 C   0  0  0  0  0  0  0  0  0  0  0  0
   -2.6760   -3.2610    0.2910 C   0  0  0  0  0  0  0  0  0  0  0  0
   -2.0460   -3.3440   -0.7530 O   0  0  0  0  0  0  0  0  0  0  0  0
   -1.1760    1.6140   -0.4220 C   0  0  0  0  0  0  0  0  0  0  0  0
   -0.3670    0.7770    0.3560 N   0  0  0  0  0  0  0  0  0  0  0  0
    0.5010   -0.2370   -0.1000 C   0  0  0  0  0  0  0  0  0  0  0  0
    0.5830   -0.4600   -1.3130 O   0  0  0  0  0  0  0  0  0  0  0  0
    1.2690   -0.9810    0.8260 N   0  0  0  0  0  0  0  0  0  0  0  0
    2.1640   -2.0000    0.4060 C   0  0  0  0  0  0  0  0  0  0  0  0
    2.0010   -3.3570    0.2770 C   0  0  0  0  0  0  0  0  0  0  0  0
    0.7750   -4.1200    0.5890 C   0  0  0  0  0  0  0  0  0  0  0  0
    3.1550   -3.8930   -0.1750 N   0  0  0  0  0  0  0  0  0  0  0  0
    4.0710   -2.9380   -0.3480 N   0  0  0  0  0  0  0  0  0  0  0  0
    5.3800   -3.1100   -0.8010 N   0  0  0  0  0  0  0  0  0  0  0  0
    3.4860   -1.7700    0.0030 C   0  0  0  0  0  0  0  0  0  0  0  0
    4.1360   -0.4450   -0.0320 C   0  0  0  0  0  0  0  0  0  0  0  0
    3.7120    0.4060   -1.1870 C   0  0  0  0  0  0  0  0  0  0  0  0
  1  2  1  0
  2  3  1  0
  3  4  1  0
  4  5  1  0
  5  6  2  0
  5 20  1  0
  6  7  1  0
  7  8  1  0
  7  9  2  0
  9 10  1  0
 10 11  1  0
 10 20  2  0
 11 12  2  0
 11 13  1  0
 14 13  1  6
 14 15  1  0
 14 18  1  0
 15 16  1  0
 16 17  1  0
 17 18  1  0
 18 19  2  0
 20 21  1  0
 21 22  1  0
 22 23  2  0
 22 24  1  0
 24 25  1  0
 25 26  1  0
 25 31  2  0
 26 27  1  0
 26 28  2  0
 28 29  1  0
 29 30  1  0
 29 31  1  0
 31 32  1  0
 32 33  1  0
M  END
