
     RDKit          3D

 33 36  0  0  0  0  0  0  0  0999 V2000
    0.5750    1.4190   -0.3920 O   0  0  0  0  0  0  0  0  0  0  0  0
    0.3680    0.2200   -0.5960 C   0  0  0  0  0  0  0  0  0  0  0  0
   -1.0570   -0.1910   -0.8020 C   0  0  0  0  0  0  0  0  0  0  0  0
   -1.9550    0.9360   -0.7200 N   0  0  2  0  0  0  0  0  0  0  0  0
   -2.0060    1.4560    0.6180 C   0  0  0  0  0  0  0  0  0  0  0  0
   -3.3630    1.1560    1.1860 C   0  0  2  0  0  0  0  0  0  0  0  0
   -3.2950    0.5530    2.4270 F   0  0  0  0  0  0  0  0  0  0  0  0
   -3.9130    0.1570    0.1960 C   0  0  1  0  0  0  0  0  0  0  0  0
   -5.3610    0.1420    0.1600 N   0  0  0  0  0  0  0  0  0  0  0  0
   -6.1090   -1.0110    0.4800 C   0  0  0  0  0  0  0  0  0  0  0  0
   -5.5800   -2.0740    0.8080 O   0  0  0  0  0  0  0  0  0  0  0  0
   -7.6020   -0.9970    0.4340 C   0  0  0  0  0  0  0  0  0  0  0  0
   -8.4120    0.0370    0.1070 C   0  0  0  0  0  0  0  0  0  0  0  0
   -9.7370   -0.1420    0.1230 C   0  0  0  0  0  0  0  0  0  0  0  0
  -10.2100   -1.4070    0.4830 C   0  0  0  0  0  0  0  0  0  0  0  0
  -11.8540   -2.0400    0.6250 Cl  0  0  0  0  0  0  0  0  0  0  0  0
   -8.6640   -2.3020    0.7900 S   0  0  0  0  0  0  0  0  0  0  0  0
   -3.2800    0.5290   -1.1000 C   0  0  0  0  0  0  0  0  0  0  0  0
    1.4000   -0.7260   -0.6380 N   0  0  0  0  0  0  0  0  0  0  0  0
    2.7770   -0.4930   -0.4640 C   0  0  0  0  0  0  0  0  0  0  0  0
    3.3050    0.7420   -0.2200 C   0  0  0  0  0  0  0  0  0  0  0  0
    4.6830    0.9410   -0.0510 C   0  0  0  0  0  0  0  0  0  0  0  0
    5.4970   -0.1550   -0.1390 C   0  0  0  0  0  0  0  0  0  0  0  0
    6.9200   -0.0370    0.0220 N   0  0  0  0  0  0  0  0  0  0  0  0
    7.6060    0.9330   -0.6020 C   0  0  0  0  0  0  0  0  0  0  0  0
    8.9730    1.0790   -0.4730 C   0  0  0  0  0  0  0  0  0  0  0  0
    9.6800    0.2050    0.3230 C   0  0  0  0  0  0  0  0  0  0  0  0
    8.9730   -0.7930    0.9640 C   0  0  0  0  0  0  0  0  0  0  0  0
    7.5910   -0.8910    0.7950 C   0  0  0  0  0  0  0  0  0  0  0  0
    6.9840   -1.8030    1.3890 O   0  0  0  0  0  0  0  0  0  0  0  0
    5.0040   -1.4160   -0.3840 C   0  0  0  0  0  0  0  0  0  0  0  0
    3.6510   -1.5830   -0.5460 C   0  0  0  0  0  0  0  0  0  0  0  0
    3.1170   -2.7940   -0.7870 F   0  0  0  0  0  0  0  0  0  0  0  0
  1  2  2  0
  2  3  1  0
  2 19  1  0
  4  3  1  1
  4  5  1  0
  4 18  1  0
  5  6  1  0
  6  7  1  1
  6  8  1  0
  8  9  1  6
  8 18  1  0
  9 10  1  0
 10 11  2  0
 10 12  1  0
 12 13  2  0
 12 17  1  0
 13 14  1  0
 14 15  2  0
 15 16  1  0
 15 17  1  0
 19 20  1  0
 20 21  2  0
 20 32  1  0
 21 22  1  0
 22 23  2  0
 23 24  1  0
 23 31  1  0
 24 25  1  0
 24 29  1  0
 25 26  2  0
 26 27  1  0
 27 28  2  0
 28 29  1  0
 29 30  2  0
 31 32  2  0
 32 33  1  0
M  CHG  1   4   1
M  END
