
     RDKit          3D

 33 35  0  0  0  0  0  0  0  0999 V2000
   -4.2910    2.7130    1.2100 C   0  0  0  0  0  0  0  0  0  0  0  0
   -4.2340    1.5770    1.8200 C   0  0  0  0  0  0  0  0  0  0  0  0
   -3.8500    0.2670    1.2140 C   0  0  0  0  0  0  0  0  0  0  0  0
   -3.8880   -0.7280    2.0060 C   0  0  0  0  0  0  0  0  0  0  0  0
   -3.6090   -2.1580    1.8900 C   0  0  0  0  0  0  0  0  0  0  0  0
   -3.4190    0.3630   -0.2340 C   0  0  1  0  0  0  0  0  0  0  0  0
   -2.1310    1.1430   -0.2410 C   0  0  2  0  0  0  0  0  0  0  0  0
   -2.1480    1.9730   -1.4460 O   0  0  0  0  0  0  0  0  0  0  0  0
   -0.8720    0.3870   -0.3790 C   0  0  0  0  0  0  0  0  0  0  0  0
   -0.5570   -0.2890   -1.5160 C   0  0  0  0  0  0  0  0  0  0  0  0
    0.6870   -0.8830   -1.7220 C   0  0  0  0  0  0  0  0  0  0  0  0
    1.6200   -0.7640   -0.7090 C   0  0  0  0  0  0  0  0  0  0  0  0
    1.3430   -0.0930    0.4520 C   0  0  0  0  0  0  0  0  0  0  0  0
    2.2650    0.0250    1.4880 O   0  0  0  0  0  0  0  0  0  0  0  0
    3.5310   -0.4380    1.5650 C   0  0  0  0  0  0  0  0  0  0  0  0
    4.5150    0.2570    0.6780 C   0  0  0  0  0  0  0  0  0  0  0  0
    5.8540   -0.4600    0.7540 C   0  0  0  0  0  0  0  0  0  0  0  0
    6.8400    0.2670    0.0330 N   0  0  0  0  0  0  0  0  0  0  0  0
    7.8100    1.1530    0.7180 C   0  0  0  0  0  0  0  0  0  0  0  0
    9.0790    0.6530   -0.0010 C   0  0  0  0  0  0  0  0  0  0  0  0
    8.6590    0.6870   -1.4680 C   0  0  0  0  0  0  0  0  0  0  0  0
    7.2110    0.2880   -1.3450 C   0  0  0  0  0  0  0  0  0  0  0  0
    6.4190    0.0070   -2.2690 O   0  0  0  0  0  0  0  0  0  0  0  0
    0.0810    0.4820    0.5930 C   0  0  0  0  0  0  0  0  0  0  0  0
   -0.1520    1.1610    1.7950 O   0  0  0  0  0  0  0  0  0  0  0  0
   -0.6880    0.4770    2.9200 C   0  0  0  0  0  0  0  0  0  0  0  0
   -3.7760   -0.6430   -1.1030 N   0  0  0  0  0  0  0  0  0  0  0  0
   -3.1350   -1.9500   -1.3340 C   0  0  0  0  0  0  0  0  0  0  0  0
   -5.0200   -0.5330   -1.8910 C   0  0  0  0  0  0  0  0  0  0  0  0
   -5.5110   -1.4050   -2.7550 C   0  0  0  0  0  0  0  0  0  0  0  0
   -6.8020   -0.9220   -3.3410 C   0  0  0  0  0  0  0  0  0  0  0  0
   -6.9810    0.3670   -2.6830 C   0  0  0  0  0  0  0  0  0  0  0  0
   -5.9650    0.5780   -1.8670 C   0  0  0  0  0  0  0  0  0  0  0  0
  1  2  2  0
  2  3  1  0
  3  4  2  3
  3  6  1  0
  4  5  1  0
  6  7  1  0
  6 27  1  1
  7  8  1  6
  7  9  1  0
  9 10  2  0
  9 24  1  0
 10 11  1  0
 11 12  2  0
 12 13  1  0
 13 14  1  0
 13 24  2  0
 14 15  1  0
 15 16  1  0
 16 17  1  0
 17 18  1  0
 18 19  1  0
 18 22  1  0
 19 20  1  0
 20 21  1  0
 21 22  1  0
 22 23  2  0
 24 25  1  0
 25 26  1  0
 27 28  1  0
 27 29  1  0
 29 30  2  0
 29 33  1  0
 30 31  1  0
 31 32  1  0
 32 33  2  0
M  END
