
     RDKit          3D

 33 35  0  0  0  0  0  0  0  0999 V2000
   -8.9590    0.6470    0.8180 C   0  0  0  0  0  0  0  0  0  0  0  0
   -8.9770   -0.7400    0.8420 O   0  0  0  0  0  0  0  0  0  0  0  0
   -7.7970   -1.2250    1.3730 C   0  0  0  0  0  0  0  0  0  0  0  0
   -6.6180   -0.8250    0.5630 C   0  0  0  0  0  0  0  0  0  0  0  0
   -5.3590   -0.6240    1.1220 C   0  0  0  0  0  0  0  0  0  0  0  0
   -4.2590   -0.2540    0.3520 C   0  0  0  0  0  0  0  0  0  0  0  0
   -4.4170   -0.0800   -1.0060 C   0  0  0  0  0  0  0  0  0  0  0  0
   -3.3240    0.3000   -1.8230 N   0  0  0  0  0  0  0  0  0  0  0  0
   -1.9890    0.5070   -1.3220 C   0  0  0  0  0  0  0  0  0  0  0  0
   -1.0530    0.9140   -2.4380 C   0  0  0  0  0  0  0  0  0  0  0  0
    0.3370    1.1200   -1.9070 C   0  0  0  0  0  0  0  0  0  0  0  0
    0.8110   -0.1290   -1.3310 N   0  0  0  0  0  0  0  0  0  0  0  0
    2.1400   -0.1500   -0.7640 C   0  0  0  0  0  0  0  0  0  0  0  0
    2.7520    0.9370   -0.8380 O   0  0  0  0  0  0  0  0  0  0  0  0
    2.6370   -1.3740   -0.1780 C   0  0  0  0  0  0  0  0  0  0  0  0
    3.8390   -1.4470    0.3370 C   0  0  0  0  0  0  0  0  0  0  0  0
    4.7550   -0.3190    0.3500 C   0  0  0  0  0  0  0  0  0  0  0  0
    5.1140    0.4340   -0.6740 N   0  0  0  0  0  0  0  0  0  0  0  0
    5.9740    1.4600   -0.5390 C   0  0  0  0  0  0  0  0  0  0  0  0
    6.3170    2.2480   -1.7450 C   0  0  0  0  0  0  0  0  0  0  0  0
    6.5360    1.7910    0.6740 C   0  0  0  0  0  0  0  0  0  0  0  0
    7.4740    2.9140    0.8140 C   0  0  0  0  0  0  0  0  0  0  0  0
    6.1580    0.9990    1.7440 C   0  0  0  0  0  0  0  0  0  0  0  0
    6.6500    1.2630    2.8910 O   0  0  0  0  0  0  0  0  0  0  0  0
    5.3050   -0.0040    1.5670 N   0  0  0  0  0  0  0  0  0  0  0  0
    4.3490   -2.6760    0.9360 N   0  0  0  0  0  0  0  0  0  0  0  0
    3.5780   -3.8330    0.9880 N   0  0  0  0  0  0  0  0  0  0  0  0
    2.2750   -3.7860    0.4400 C   0  0  0  0  0  0  0  0  0  0  0  0
    1.5580   -4.8060    0.4710 O   0  0  0  0  0  0  0  0  0  0  0  0
    1.8140   -2.5680   -0.1360 N   0  0  0  0  0  0  0  0  0  0  0  0
   -5.6860   -0.2900   -1.5220 C   0  0  0  0  0  0  0  0  0  0  0  0
   -5.8130   -0.1250   -2.7730 O   0  0  0  0  0  0  0  0  0  0  0  0
   -6.7280   -0.6450   -0.7640 N   0  0  0  0  0  0  0  0  0  0  0  0
  1  2  1  0
  2  3  1  0
  3  4  1  0
  4  5  2  0
  4 33  1  0
  5  6  1  0
  6  7  2  0
  7  8  1  0
  7 31  1  0
  8  9  1  0
  9 10  1  0
 10 11  1  0
 11 12  1  0
 12 13  1  0
 13 14  2  0
 13 15  1  0
 15 16  2  0
 15 30  1  0
 16 17  1  0
 16 26  1  0
 17 18  2  0
 17 25  1  0
 18 19  1  0
 19 20  1  0
 19 21  2  0
 21 22  1  0
 21 23  1  0
 23 24  2  0
 23 25  1  0
 26 27  1  0
 27 28  1  0
 28 29  2  0
 28 30  1  0
 31 32  2  0
 31 33  1  0
M  END
