
     RDKit          3D

 33 35  0  0  0  0  0  0  0  0999 V2000
    7.2340   -0.9790    2.3030 C   0  0  0  0  0  0  0  0  0  0  0  0
    6.6830   -0.5230    1.0220 N   0  0  0  0  0  0  0  0  0  0  0  0
    7.3930   -0.7820   -0.1780 C   0  0  0  0  0  0  0  0  0  0  0  0
    8.4960   -1.4030   -0.1030 O   0  0  0  0  0  0  0  0  0  0  0  0
    6.8430   -0.3310   -1.4720 C   0  0  0  0  0  0  0  0  0  0  0  0
    5.5700    0.3220   -1.3400 N   0  0  0  0  0  0  0  0  0  0  0  0
    4.3940   -0.3700   -0.9370 C   0  0  0  0  0  0  0  0  0  0  0  0
    3.1580    0.1460   -0.7800 N   0  0  0  0  0  0  0  0  0  0  0  0
    2.2990   -0.7980   -0.3970 C   0  0  0  0  0  0  0  0  0  0  0  0
    0.8480   -0.6710   -0.1100 C   0  0  0  0  0  0  0  0  0  0  0  0
    0.2570   -1.6820    0.2340 O   0  0  0  0  0  0  0  0  0  0  0  0
    0.2220    0.5880   -0.2420 N   0  0  0  0  0  0  0  0  0  0  0  0
   -1.1340    0.9330   -0.0160 C   0  0  0  0  0  0  0  0  0  0  0  0
   -1.5000    2.1820   -0.2070 C   0  0  0  0  0  0  0  0  0  0  0  0
   -0.6020    3.2470   -0.6290 C   0  0  0  0  0  0  0  0  0  0  0  0
    0.7390    3.2910   -0.9250 N   0  0  0  0  0  0  0  0  0  0  0  0
   -1.1650    4.4410   -0.7660 O   0  0  0  0  0  0  0  0  0  0  0  0
   -2.9530    2.6150   -0.0850 C   0  0  2  0  0  0  0  0  0  0  0  0
   -2.9260    3.9820    0.4440 N   0  0  0  0  0  0  0  0  0  0  0  0
   -2.3300    4.0200    1.7610 C   0  0  0  0  0  0  0  0  0  0  0  0
   -3.8320    1.7240    0.6100 C   0  0  0  0  0  0  0  0  0  0  0  0
   -3.3290    0.3680    0.7690 C   0  0  0  0  0  0  0  0  0  0  0  0
   -2.1040   -0.0260    0.4950 C   0  0  0  0  0  0  0  0  0  0  0  0
   -1.8080   -1.3510    0.7130 O   0  0  0  0  0  0  0  0  0  0  0  0
   -2.7810   -2.3330    0.9740 C   0  0  0  0  0  0  0  0  0  0  0  0
   -3.7660   -2.4780   -0.1300 C   0  0  0  0  0  0  0  0  0  0  0  0
   -3.8280   -1.8410   -1.3540 C   0  0  0  0  0  0  0  0  0  0  0  0
   -4.9450   -2.3600   -1.9720 C   0  0  0  0  0  0  0  0  0  0  0  0
   -5.5030   -3.2710   -1.1170 C   0  0  0  0  0  0  0  0  0  0  0  0
   -6.7370   -4.0430   -1.4450 C   0  0  0  0  0  0  0  0  0  0  0  0
   -4.7810   -3.3180   -0.0330 O   0  0  0  0  0  0  0  0  0  0  0  0
    3.0000   -1.9360   -0.3090 N   0  0  0  0  0  0  0  0  0  0  0  0
    4.2780   -1.6860   -0.6360 N   0  0  0  0  0  0  0  0  0  0  0  0
  1  2  1  0
  2  3  1  0
  3  4  2  0
  3  5  1  0
  5  6  1  0
  6  7  1  0
  7  8  2  0
  7 33  1  0
  8  9  1  0
  9 10  1  0
  9 32  2  0
 10 11  2  0
 10 12  1  0
 12 13  1  0
 13 14  2  0
 13 23  1  0
 14 15  1  0
 14 18  1  0
 15 16  1  0
 15 17  2  0
 18 19  1  1
 18 21  1  0
 19 20  1  0
 21 22  1  0
 22 23  2  0
 23 24  1  0
 24 25  1  0
 25 26  1  0
 26 27  2  0
 26 31  1  0
 27 28  1  0
 28 29  2  0
 29 30  1  0
 29 31  1  0
 32 33  1  0
M  END
