
     RDKit          3D

 33 35  0  0  0  0  0  0  0  0999 V2000
    0.9210   -2.7830   -2.6700 C   0  0  0  0  0  0  0  0  0  0  0  0
    1.8700   -1.9330   -1.9060 C   0  0  0  0  0  0  0  0  0  0  0  0
    3.1940   -1.9780   -2.1310 N   0  0  0  0  0  0  0  0  0  0  0  0
    4.0690   -1.2080   -1.4390 C   0  0  0  0  0  0  0  0  0  0  0  0
    5.4660   -1.2620   -1.6840 N   0  0  0  0  0  0  0  0  0  0  0  0
    3.6230   -0.3650   -0.4950 N   0  0  0  0  0  0  0  0  0  0  0  0
    4.5590    0.4460    0.2300 C   0  0  0  0  0  0  0  0  0  0  0  0
    5.0660   -0.2160    1.4710 C   0  0  0  0  0  0  0  0  0  0  0  0
    6.0150    0.6510    2.1730 C   0  0  0  0  0  0  0  0  0  0  0  0
    6.6420    0.2550    3.3830 N   0  0  0  0  0  0  0  0  0  0  0  0
    6.2760    1.7900    1.6740 O   0  0  0  0  0  0  0  0  0  0  0  0
    2.3060   -0.2980   -0.2480 C   0  0  0  0  0  0  0  0  0  0  0  0
    1.8230    0.4780    0.6320 O   0  0  0  0  0  0  0  0  0  0  0  0
    1.3980   -1.0710   -0.9370 C   0  0  0  0  0  0  0  0  0  0  0  0
   -0.0180   -1.0000   -0.6730 N   0  0  0  0  0  0  0  0  0  0  0  0
   -0.8680   -0.1130   -1.3450 C   0  0  0  0  0  0  0  0  0  0  0  0
   -0.3500    0.6420   -2.2060 O   0  0  0  0  0  0  0  0  0  0  0  0
   -2.2840    0.0070   -1.1300 N   0  0  0  0  0  0  0  0  0  0  0  0
   -2.8390   -0.8690   -0.1630 C   0  0  0  0  0  0  0  0  0  0  0  0
   -2.8480   -0.4250    1.2390 C   0  0  0  0  0  0  0  0  0  0  0  0
   -2.1960   -1.0130    2.2640 C   0  0  0  0  0  0  0  0  0  0  0  0
   -2.4630   -0.2690    3.5010 C   0  0  2  0  0  0  0  0  0  0  0  0
   -3.1660   -1.1750    4.4190 N   0  0  0  0  0  0  0  0  0  0  0  0
   -3.3400    0.7880    3.1030 N   0  0  0  0  0  0  0  0  0  0  0  0
   -3.5430    0.6880    1.8390 C   0  0  0  0  0  0  0  0  0  0  0  0
   -2.9970    0.9400   -1.9680 C   0  0  1  0  0  0  0  0  0  0  0  0
   -4.1140    0.3830   -2.7600 C   0  0  0  0  0  0  0  0  0  0  0  0
   -3.6900   -0.6090   -3.6280 O   0  0  0  0  0  0  0  0  0  0  0  0
   -3.3700    2.1750   -1.2110 C   0  0  0  0  0  0  0  0  0  0  0  0
   -2.5790    2.9820   -0.4250 C   0  0  0  0  0  0  0  0  0  0  0  0
   -3.3770    3.9970    0.0580 C   0  0  0  0  0  0  0  0  0  0  0  0
   -4.6470    3.7480   -0.4750 C   0  0  0  0  0  0  0  0  0  0  0  0
   -4.5840    2.6660   -1.2120 O   0  0  0  0  0  0  0  0  0  0  0  0
  1  2  1  0
  2  3  1  0
  2 14  2  0
  3  4  2  0
  4  5  1  0
  4  6  1  0
  6  7  1  0
  6 12  1  0
  7  8  1  0
  8  9  1  0
  9 10  1  0
  9 11  2  0
 12 13  2  0
 12 14  1  0
 14 15  1  0
 15 16  1  0
 16 17  2  0
 16 18  1  0
 18 19  1  0
 18 26  1  0
 19 20  1  0
 20 21  2  0
 20 25  1  0
 21 22  1  0
 22 23  1  1
 22 24  1  0
 24 25  2  0
 26 27  1  1
 26 29  1  0
 27 28  1  0
 29 30  2  0
 29 33  1  0
 30 31  1  0
 31 32  2  0
 32 33  1  0
M  END
