
     RDKit          3D

 33 34  0  0  0  0  0  0  0  0999 V2000
   -6.5800    2.2630   -2.0400 C   0  0  0  0  0  0  0  0  0  0  0  0
   -7.0540    1.2150   -1.4420 C   0  0  0  0  0  0  0  0  0  0  0  0
   -6.2640   -0.0100   -1.1040 C   0  0  0  0  0  0  0  0  0  0  0  0
   -6.9450   -0.9510   -0.5110 C   0  0  0  0  0  0  0  0  0  0  0  0
   -6.5540   -2.2710   -0.0310 C   0  0  0  0  0  0  0  0  0  0  0  0
   -4.8760   -0.0090   -1.4540 C   0  0  2  0  0  0  0  0  0  0  0  0
   -4.6210    0.1370   -2.9500 C   0  0  0  0  0  0  0  0  0  0  0  0
   -4.1460   -1.1400   -0.9260 N   0  0  0  0  0  0  0  0  0  0  0  0
   -3.9390   -0.8070    0.4650 C   0  0  0  0  0  0  0  0  0  0  0  0
   -3.9310    0.5280    0.5550 C   0  0  0  0  0  0  0  0  0  0  0  0
   -3.7440    1.2780    1.8240 C   0  0  0  0  0  0  0  0  0  0  0  0
   -2.5660    2.1050    1.6980 N   0  0  0  0  0  0  0  0  0  0  0  0
   -1.3210    1.4730    1.4460 C   0  0  0  0  0  0  0  0  0  0  0  0
   -1.2590    0.2270    1.3370 O   0  0  0  0  0  0  0  0  0  0  0  0
   -0.1070    2.2040    1.3070 N   0  0  0  0  0  0  0  0  0  0  0  0
    1.1280    1.5600    1.0560 C   0  0  0  0  0  0  0  0  0  0  0  0
    2.2400    2.2950    0.9340 N   0  0  0  0  0  0  0  0  0  0  0  0
    3.4720    1.7320    0.6910 C   0  0  0  0  0  0  0  0  0  0  0  0
    3.5760    0.3790    0.5670 C   0  0  0  0  0  0  0  0  0  0  0  0
    4.7950   -0.2900    0.3170 N   0  0  0  0  0  0  0  0  0  0  0  0
    6.0650    0.2940    0.1600 C   0  0  0  0  0  0  0  0  0  0  0  0
    6.2310    1.5300    0.2330 O   0  0  0  0  0  0  0  0  0  0  0  0
    7.2680   -0.5200   -0.0990 C   0  0  0  0  0  0  0  0  0  0  0  0
    7.1210   -1.7590   -0.1760 O   0  0  0  0  0  0  0  0  0  0  0  0
    8.5440    0.0480   -0.2570 N   0  0  0  0  0  0  0  0  0  0  0  0
    9.7020   -0.7910   -0.5110 C   0  0  0  0  0  0  0  0  0  0  0  0
    9.8870   -1.7450    0.6100 C   0  0  0  0  0  0  0  0  0  0  0  0
    9.0890   -1.7290    1.5810 O   0  0  0  0  0  0  0  0  0  0  0  0
   10.9170   -2.6700    0.6360 O   0  0  0  0  0  0  0  0  0  0  0  0
    2.4040   -0.3840    0.6950 C   0  0  0  0  0  0  0  0  0  0  0  0
    2.4940   -1.8680    0.5630 C   0  0  0  0  0  0  0  0  0  0  0  0
    1.2360    0.2280    0.9330 N   0  0  0  0  0  0  0  0  0  0  0  0
   -4.1220    1.0630   -0.7610 N   0  0  0  0  0  0  0  0  0  0  0  0
  1  2  2  0
  2  3  1  0
  3  4  2  3
  3  6  1  0
  4  5  1  0
  6  7  1  6
  6  8  1  0
  6 33  1  0
  8  9  1  0
  9 10  2  0
 10 11  1  0
 10 33  1  0
 11 12  1  0
 12 13  1  0
 13 14  2  0
 13 15  1  0
 15 16  1  0
 16 17  2  0
 16 32  1  0
 17 18  1  0
 18 19  2  0
 19 20  1  0
 19 30  1  0
 20 21  1  0
 21 22  2  0
 21 23  1  0
 23 24  2  0
 23 25  1  0
 25 26  1  0
 26 27  1  0
 27 28  2  0
 27 29  1  0
 30 31  1  0
 30 32  2  0
M  END
