
     RDKit          3D

 33 35  0  0  0  0  0  0  0  0999 V2000
   -4.6840   -6.0880   -0.1890 C   0  0  0  0  0  0  0  0  0  0  0  0
   -3.4400   -5.2350   -0.0600 C   0  0  0  0  0  0  0  0  0  0  0  0
   -3.7850   -3.8300   -0.3010 C   0  0  0  0  0  0  0  0  0  0  0  0
   -5.0180   -3.4490   -0.5790 C   0  0  0  0  0  0  0  0  0  0  0  0
   -5.2870   -2.1230   -0.7950 O   0  0  0  0  0  0  0  0  0  0  0  0
   -4.3150   -1.0880   -0.7430 C   0  0  0  0  0  0  0  0  0  0  0  0
   -4.8120    0.2690   -1.0270 C   0  0  0  0  0  0  0  0  0  0  0  0
   -5.4930    0.9370    0.1070 C   0  0  0  0  0  0  0  0  0  0  0  0
   -5.9270    2.3200   -0.3850 C   0  0  0  0  0  0  0  0  0  0  0  0
   -6.6010    3.0010    0.7240 C   0  0  0  0  0  0  0  0  0  0  0  0
   -7.1110    4.3310    0.5660 N   0  0  0  0  0  0  0  0  0  0  0  0
   -6.7640    2.4700    1.8390 O   0  0  0  0  0  0  0  0  0  0  0  0
   -3.0820   -1.4040   -0.4730 C   0  0  0  0  0  0  0  0  0  0  0  0
   -1.9690   -0.5060   -0.3610 C   0  0  0  0  0  0  0  0  0  0  0  0
   -0.8250   -1.0720   -0.1380 O   0  0  0  0  0  0  0  0  0  0  0  0
   -1.9920    0.8810   -0.4530 N   0  0  0  0  0  0  0  0  0  0  0  0
   -0.7210    1.5680   -0.3100 C   0  0  0  0  0  0  0  0  0  0  0  0
    0.4950    1.0440   -0.0980 N   0  0  0  0  0  0  0  0  0  0  0  0
    1.4120    2.0140   -0.0270 C   0  0  0  0  0  0  0  0  0  0  0  0
    2.8440    1.8760    0.1900 C   0  0  0  0  0  0  0  0  0  0  0  0
    3.6000    2.9050    0.2290 O   0  0  0  0  0  0  0  0  0  0  0  0
    3.4840    0.6280    0.3680 N   0  0  0  0  0  0  0  0  0  0  0  0
    4.8610    0.5610    0.5700 N   0  0  0  0  0  0  0  0  0  0  0  0
    5.7910    1.0290   -0.4130 C   0  0  0  0  0  0  0  0  0  0  0  0
    5.2550    1.5010   -1.4670 O   0  0  0  0  0  0  0  0  0  0  0  0
    7.2440    0.9900   -0.2640 C   0  0  2  0  0  0  0  0  0  0  0  0
    7.8160   -0.3970   -0.0660 C   0  0  0  0  0  0  0  0  0  0  0  0
    9.1930   -0.1420    0.5350 C   0  0  0  0  0  0  0  0  0  0  0  0
    9.2370    1.3100    0.9280 C   0  0  0  0  0  0  0  0  0  0  0  0
    7.7710    1.6970    0.9620 C   0  0  0  0  0  0  0  0  0  0  0  0
    0.7440    3.1630   -0.1990 N   0  0  0  0  0  0  0  0  0  0  0  0
   -0.5600    2.8940   -0.3720 N   0  0  0  0  0  0  0  0  0  0  0  0
   -2.7980   -2.8290   -0.2420 N   0  0  0  0  0  0  0  0  0  0  0  0
  1  2  1  0
  2  3  1  0
  3  4  2  0
  3 33  1  0
  4  5  1  0
  5  6  1  0
  6  7  1  0
  6 13  2  0
  7  8  1  0
  8  9  1  0
  9 10  1  0
 10 11  1  0
 10 12  2  0
 13 14  1  0
 13 33  1  0
 14 15  2  0
 14 16  1  0
 16 17  1  0
 17 18  2  0
 17 32  1  0
 18 19  1  0
 19 20  1  0
 19 31  2  0
 20 21  2  0
 20 22  1  0
 22 23  1  0
 23 24  1  0
 24 25  2  0
 26 24  1  1
 26 27  1  0
 26 30  1  0
 27 28  1  0
 28 29  1  0
 29 30  1  0
 31 32  1  0
M  END
