
     RDKit          3D

 33 35  0  0  0  0  0  0  0  0999 V2000
   -5.8930    3.4700   -3.3430 C   0  0  0  0  0  0  0  0  0  0  0  0
   -4.8460    4.1280   -2.4720 C   0  0  0  0  0  0  0  0  0  0  0  0
   -4.2180    3.1330   -1.4960 C   0  0  0  0  0  0  0  0  0  0  0  0
   -3.6050    2.0920   -2.2440 N   0  0  0  0  0  0  0  0  0  0  0  0
   -2.2000    1.8970   -1.9330 C   0  0  0  0  0  0  0  0  0  0  0  0
   -1.9800    1.3120   -0.5810 C   0  0  2  0  0  0  0  0  0  0  0  0
   -0.4850    1.3960   -0.2470 C   0  0  0  0  0  0  0  0  0  0  0  0
   -0.2500    1.1370    1.0760 O   0  0  0  0  0  0  0  0  0  0  0  0
    1.0470    1.1850    1.4840 C   0  0  0  0  0  0  0  0  0  0  0  0
    1.9780    0.2220    0.8170 C   0  0  0  0  0  0  0  0  0  0  0  0
    3.3030    0.3770    1.3390 O   0  0  0  0  0  0  0  0  0  0  0  0
    4.3050   -0.4410    0.8360 C   0  0  0  0  0  0  0  0  0  0  0  0
    4.0520   -1.3790   -0.1360 C   0  0  0  0  0  0  0  0  0  0  0  0
    5.0790   -2.1660   -0.6000 C   0  0  0  0  0  0  0  0  0  0  0  0
    6.3600   -2.0420   -0.1200 C   0  0  0  0  0  0  0  0  0  0  0  0
    7.4180   -2.8160   -0.5620 C   0  0  0  0  0  0  0  0  0  0  0  0
    8.6850   -2.6440   -0.0370 C   0  0  0  0  0  0  0  0  0  0  0  0
    8.9080   -1.6970    0.9330 C   0  0  0  0  0  0  0  0  0  0  0  0
    7.8610   -0.9290    1.3730 C   0  0  0  0  0  0  0  0  0  0  0  0
    6.5740   -1.0880    0.8560 C   0  0  0  0  0  0  0  0  0  0  0  0
    5.5750   -0.2860    1.3430 C   0  0  0  0  0  0  0  0  0  0  0  0
    5.8170    0.6780    2.3360 O   0  0  0  0  0  0  0  0  0  0  0  0
    5.7010    0.3540    3.6920 C   0  0  0  0  0  0  0  0  0  0  0  0
   -2.5300    0.0820   -0.3340 O   0  0  0  0  0  0  0  0  0  0  0  0
   -3.4370   -0.3540    0.5630 C   0  0  0  0  0  0  0  0  0  0  0  0
   -4.0290    0.4720    1.4900 C   0  0  0  0  0  0  0  0  0  0  0  0
   -4.9680   -0.0280    2.4050 C   0  0  0  0  0  0  0  0  0  0  0  0
   -5.3110   -1.3480    2.3900 C   0  0  0  0  0  0  0  0  0  0  0  0
   -4.7320   -2.1840    1.4750 C   0  0  0  0  0  0  0  0  0  0  0  0
   -3.8050   -1.6820    0.5750 C   0  0  0  0  0  0  0  0  0  0  0  0
   -3.2200   -2.5530   -0.3610 N   0  0  0  0  0  0  0  0  0  0  0  0
   -1.7990   -2.7400   -0.3870 C   0  0  0  0  0  0  0  0  0  0  0  0
   -4.0530   -3.2570   -1.2940 C   0  0  0  0  0  0  0  0  0  0  0  0
  1  2  1  0
  2  3  1  0
  3  4  1  0
  4  5  1  0
  6  5  1  6
  6  7  1  0
  6 24  1  0
  7  8  1  0
  8  9  1  0
  9 10  1  0
 10 11  1  0
 11 12  1  0
 12 13  2  0
 12 21  1  0
 13 14  1  0
 14 15  2  0
 15 16  1  0
 15 20  1  0
 16 17  2  0
 17 18  1  0
 18 19  2  0
 19 20  1  0
 20 21  2  0
 21 22  1  0
 22 23  1  0
 24 25  1  0
 25 26  2  0
 25 30  1  0
 26 27  1  0
 27 28  2  0
 28 29  1  0
 29 30  2  0
 30 31  1  0
 31 32  1  0
 31 33  1  0
M  CHG  1   4   1
M  END
