
     RDKit          3D

 13 13  0  0  0  0  0  0  0  0999 V2000
    4.2030   -1.6710    0.9910 O   0  0  0  0  0  0  0  0  0  0  0  0
    3.6380   -0.0390    0.6190 P   0  0  0  0  0  0  0  0  0  0  0  0
    5.0610    0.8480    0.1730 O   0  0  0  0  0  0  0  0  0  0  0  0
    2.5320   -0.2010   -0.8340 C   0  0  0  0  0  0  0  0  0  0  0  0
    1.2910    0.6540   -0.6820 C   0  0  0  0  0  0  0  0  0  0  0  0
    0.6190    0.2650    0.5160 N   0  0  0  0  0  0  0  0  0  0  0  0
   -0.7160    0.8120    0.6700 C   0  0  0  0  0  0  0  0  0  0  0  0
   -1.6010    0.0480   -0.3380 C   0  0  2  0  0  0  0  0  0  0  0  0
   -3.0190    0.5040   -0.1690 C   0  0  0  0  0  0  0  0  0  0  0  0
   -3.9290   -0.6910   -0.1680 C   0  0  0  0  0  0  0  0  0  0  0  0
   -3.3900   -1.6930   -0.9370 O   0  0  0  0  0  0  0  0  0  0  0  0
   -2.2420   -2.1250   -0.5320 O   0  0  0  0  0  0  0  0  0  0  0  0
   -1.4930   -1.2840    0.0870 O   0  0  0  0  0  0  0  0  0  0  0  0
  1  2  1  0
  2  3  1  0
  2  4  1  0
  4  5  1  0
  5  6  1  0
  6  7  1  0
  8  7  1  1
  8  9  1  0
  8 13  1  0
  9 10  1  0
 10 11  1  0
 11 12  1  0
 12 13  1  0
M  END
