
     RDKit          3D

 12 11  0  0  0  0  0  0  0  0999 V2000
   -2.0010    1.4540   -0.9140 C   0  0  0  0  0  0  0  0  0  0  0  0
   -1.3620    0.6450    0.1560 C   0  0  1  0  0  0  0  0  0  0  0  0
   -2.3240    0.3070    1.2670 C   0  0  0  0  0  0  0  0  0  0  0  0
   -0.5610   -0.4420   -0.1960 N   0  0  0  0  0  0  0  0  0  0  0  0
   -1.0560   -1.5380   -0.9170 C   0  0  0  0  0  0  0  0  0  0  0  0
   -2.1340   -2.2210   -0.3900 O   0  0  0  0  0  0  0  0  0  0  0  0
    0.7150   -0.5550    0.4020 C   0  0  0  0  0  0  0  0  0  0  0  0
    1.6540    0.4990   -0.1410 C   0  0  2  0  0  0  0  0  0  0  0  0
    1.8090    0.2990   -1.5160 O   0  0  0  0  0  0  0  0  0  0  0  0
    3.3060    0.1900    0.6480 P   0  0  0  0  0  0  0  0  0  0  0  0
    3.2730    0.3160    2.3560 O   0  0  0  0  0  0  0  0  0  0  0  0
    4.5930    1.0180   -0.1120 O   0  0  0  0  0  0  0  0  0  0  0  0
  2  1  1  6
  2  3  1  0
  2  4  1  0
  4  5  1  0
  4  7  1  0
  5  6  1  0
  7  8  1  0
  8  9  1  6
  8 10  1  0
 10 11  1  0
 10 12  1  0
M  END
