
     RDKit          3D

 13 12  0  0  0  0  0  0  0  0999 V2000
    3.6610   -0.2080   -0.8740 C   0  0  0  0  0  0  0  0  0  0  0  0
    2.2830    0.0300   -0.5900 O   0  0  0  0  0  0  0  0  0  0  0  0
    1.9040    0.6600    0.5820 C   0  0  0  0  0  0  0  0  0  0  0  0
    2.8670    0.9930    1.3470 O   0  0  0  0  0  0  0  0  0  0  0  0
    0.5030    0.9460    0.9560 C   0  0  0  0  0  0  0  0  0  0  0  0
   -0.3640    0.3280    0.0010 N   0  0  0  0  0  0  0  0  0  0  0  0
   -1.7620    0.6370    0.1980 C   0  0  0  0  0  0  0  0  0  0  0  0
   -2.1170    2.0620   -0.0770 C   0  0  0  0  0  0  0  0  0  0  0  0
   -1.8220    2.3990   -1.4030 O   0  0  0  0  0  0  0  0  0  0  0  0
   -0.2900   -1.1300    0.2590 C   0  0  0  0  0  0  0  0  0  0  0  0
   -1.4190   -1.9050   -1.0020 P   0  0  0  0  0  0  0  0  0  0  0  0
   -2.7490   -2.6450   -0.1880 O   0  0  0  0  0  0  0  0  0  0  0  0
   -0.5290   -3.0780   -1.8830 O   0  0  0  0  0  0  0  0  0  0  0  0
  1  2  1  0
  2  3  1  0
  3  4  2  0
  3  5  1  0
  5  6  1  0
  6  7  1  0
  6 10  1  0
  7  8  1  0
  8  9  1  0
 10 11  1  0
 11 12  1  0
 11 13  1  0
M  END
