
     RDKit          3D

 13 12  0  0  0  0  0  0  0  0999 V2000
    4.6380    0.2300   -0.1230 C   0  0  0  0  0  0  0  0  0  0  0  0
    3.1720   -0.0530   -0.1990 C   0  0  0  0  0  0  0  0  0  0  0  0
    2.8870   -0.7300   -1.3940 O   0  0  0  0  0  0  0  0  0  0  0  0
    1.5750   -0.9750   -1.4460 O   0  0  0  0  0  0  0  0  0  0  0  0
    1.2470   -1.3180   -0.1730 O   0  0  0  0  0  0  0  0  0  0  0  0
    0.0310   -0.8340    0.2870 C   0  0  0  0  0  0  0  0  0  0  0  0
   -0.1940   -0.4330    1.7090 C   0  0  0  0  0  0  0  0  0  0  0  0
   -0.9170   -0.7410   -0.5700 N   0  0  0  0  0  0  0  0  0  0  0  0
   -2.2300   -0.2410   -0.1680 C   0  0  2  0  0  0  0  0  0  0  0  0
   -3.3090   -1.2740   -0.3390 C   0  0  0  0  0  0  0  0  0  0  0  0
   -2.6320    1.3490   -1.0480 P   0  0  0  0  0  0  0  0  0  0  0  0
   -4.0440    2.0160   -0.2630 O   0  0  0  0  0  0  0  0  0  0  0  0
   -1.2960    2.4340   -0.7670 O   0  0  0  0  0  0  0  0  0  0  0  0
  1  2  1  0
  2  3  1  0
  3  4  1  0
  4  5  1  0
  5  6  1  0
  6  7  1  0
  6  8  2  3
  8  9  1  0
  9 10  1  6
  9 11  1  0
 11 12  1  0
 11 13  1  0
M  END
