
     RDKit          3D

 10  9  0  0  0  0  0  0  0  0999 V2000
    2.1830    1.5040    1.6420 O   0  0  0  0  0  0  0  0  0  0  0  0
    1.6760    0.6510    0.8830 C   0  0  0  0  0  0  0  0  0  0  0  0
    0.1900    0.6880    0.6230 C   0  0  0  0  0  0  0  0  0  0  0  0
   -0.0940   -0.3280   -0.2180 O   0  0  0  0  0  0  0  0  0  0  0  0
   -1.6590   -0.5050   -0.6600 P   0  0  0  0  0  0  0  0  0  0  0  0
   -1.3600    0.0870   -2.0360 O   0  0  0  0  0  0  0  0  0  0  0  0
   -2.7590    0.7170   -0.4030 O   0  0  0  0  0  0  0  0  0  0  0  0
   -1.9750   -1.0950    0.7190 O   0  0  0  0  0  0  0  0  0  0  0  0
    2.5140   -0.3310    0.2840 N   0  0  0  0  0  0  0  0  0  0  0  0
    3.8290   -0.4130    0.4750 O   0  0  0  0  0  0  0  0  0  0  0  0
  1  2  2  0
  2  3  1  0
  2  9  1  0
  3  4  1  0
  4  5  1  0
  5  6  1  0
  5  7  1  0
  5  8  1  0
  9 10  1  0
M  END
