
     RDKit          3D

 23 25  0  0  0  0  0  0  0  0999 V2000
   -3.9830   -1.4460    4.1140 C   0  0  0  0  0  0  0  0  0  0  0  0
   -3.9150   -0.9870    2.6910 C   0  0  0  0  0  0  0  0  0  0  0  0
   -4.9980   -0.8600    2.0900 O   0  0  0  0  0  0  0  0  0  0  0  0
   -2.6940   -0.7080    2.0480 N   0  0  0  0  0  0  0  0  0  0  0  0
   -2.5370   -0.2700    0.7090 C   0  0  0  0  0  0  0  0  0  0  0  0
   -3.5460   -0.0450   -0.1840 C   0  0  0  0  0  0  0  0  0  0  0  0
   -3.3120    0.3910   -1.5020 C   0  0  0  0  0  0  0  0  0  0  0  0
   -4.4500    0.6200   -2.4310 C   0  0  0  0  0  0  0  0  0  0  0  0
   -2.0380    0.6130   -1.9580 C   0  0  0  0  0  0  0  0  0  0  0  0
   -1.8330    1.0690   -3.3450 C   0  0  0  0  0  0  0  0  0  0  0  0
   -1.0140    0.3900   -1.0690 C   0  0  0  0  0  0  0  0  0  0  0  0
   -1.2420   -0.0360    0.2180 C   0  0  0  0  0  0  0  0  0  0  0  0
   -0.1900   -0.2600    1.1170 O   0  0  0  0  0  0  0  0  0  0  0  0
    1.1250   -0.0760    0.7860 C   0  0  0  0  0  0  0  0  0  0  0  0
    1.7750    1.1280    0.9590 C   0  0  0  0  0  0  0  0  0  0  0  0
    3.1020    1.2720    0.6120 C   0  0  0  0  0  0  0  0  0  0  0  0
    3.7710    2.5850    0.8130 C   0  0  0  0  0  0  0  0  0  0  0  0
    3.8310    0.2070    0.0760 C   0  0  0  0  0  0  0  0  0  0  0  0
    3.1880   -0.9990   -0.1000 C   0  0  0  0  0  0  0  0  0  0  0  0
    1.8640   -1.1240    0.2510 C   0  0  0  0  0  0  0  0  0  0  0  0
    4.1410   -1.9780   -0.6770 C   0  0  0  0  0  0  0  0  0  0  0  0
    5.4610   -1.2810   -0.7400 C   0  0  0  0  0  0  0  0  0  0  0  0
    5.1750    0.0690   -0.3620 N   0  0  0  0  0  0  0  0  0  0  0  0
  1  2  1  0
  2  3  2  0
  2  4  1  0
  4  5  1  0
  5  6  2  0
  5 12  1  0
  6  7  1  0
  7  8  1  0
  7  9  2  0
  9 10  1  0
  9 11  1  0
 11 12  2  0
 12 13  1  0
 13 14  1  0
 14 15  2  0
 14 20  1  0
 15 16  1  0
 16 17  1  0
 16 18  2  0
 18 19  1  0
 18 23  1  0
 19 20  2  0
 19 21  1  0
 21 22  1  0
 22 23  1  0
M  END
