
     RDKit          3D

 23 26  0  0  0  0  0  0  0  0999 V2000
   -6.5350   -0.2560    0.1890 C   0  0  0  0  0  0  0  0  0  0  0  0
   -5.6650   -0.5570   -1.0170 C   0  0  0  0  0  0  0  0  0  0  0  0
   -4.3070   -0.9650   -0.4830 C   0  0  0  0  0  0  0  0  0  0  0  0
   -3.7200    0.2140    0.3550 C   0  0  0  0  0  0  0  0  0  0  0  0
   -2.4040   -0.3070    0.8160 C   0  0  0  0  0  0  0  0  0  0  0  0
   -1.2760    0.3080    0.5890 C   0  0  0  0  0  0  0  0  0  0  0  0
   -1.2230    1.5700   -0.1620 C   0  0  0  0  0  0  0  0  0  0  0  0
   -2.2350    2.2170   -0.3830 O   0  0  0  0  0  0  0  0  0  0  0  0
    0.0420    2.0650   -0.6480 N   0  0  0  0  0  0  0  0  0  0  0  0
    1.2180    1.3350   -0.3760 C   0  0  0  0  0  0  0  0  0  0  0  0
    2.4190    1.7280   -0.9840 C   0  0  0  0  0  0  0  0  0  0  0  0
    3.5720    0.9880   -0.8690 C   0  0  0  0  0  0  0  0  0  0  0  0
    3.5190   -0.1720   -0.1290 C   0  0  0  0  0  0  0  0  0  0  0  0
    2.3330   -0.5630    0.4770 C   0  0  0  0  0  0  0  0  0  0  0  0
    1.1780    0.1790    0.3650 C   0  0  0  0  0  0  0  0  0  0  0  0
   -0.0170   -0.2070    1.1570 C   0  0  2  0  0  0  0  0  0  0  0  0
   -0.0400   -1.6470    1.4430 C   0  0  0  0  0  0  0  0  0  0  0  0
   -1.3530   -2.2410    1.6890 C   0  0  0  0  0  0  0  0  0  0  0  0
   -2.4160   -1.6400    1.4020 N   0  0  0  0  0  0  0  0  0  0  0  0
    4.7760   -0.7540   -0.1480 O   0  0  0  0  0  0  0  0  0  0  0  0
    5.6270   -0.0940   -1.0510 C   0  0  2  0  0  0  0  0  0  0  0  0
    6.9300    0.1830   -0.3250 C   0  0  0  0  0  0  0  0  0  0  0  0
    4.9450    1.2010   -1.4170 C   0  0  0  0  0  0  0  0  0  0  0  0
  1  2  1  0
  2  3  1  0
  3  4  1  0
  4  5  1  0
  5  6  2  0
  5 19  1  0
  6  7  1  0
  6 16  1  0
  7  8  2  0
  7  9  1  0
  9 10  1  0
 10 11  2  0
 10 15  1  0
 11 12  1  0
 12 13  2  0
 12 23  1  0
 13 14  1  0
 13 20  1  0
 14 15  2  0
 15 16  1  0
 16 17  1  6
 17 18  1  0
 18 19  2  0
 20 21  1  0
 21 22  1  1
 21 23  1  0
M  END
