
     RDKit          3D

 22 25  0  0  0  0  0  0  0  0999 V2000
   -3.8320   -1.9440   -0.9900 O   0  0  0  0  0  0  0  0  0  0  0  0
   -2.9920   -1.2410   -0.3770 C   0  0  0  0  0  0  0  0  0  0  0  0
   -1.7570   -0.8480   -1.0770 C   0  0  0  0  0  0  0  0  0  0  0  0
   -0.6740   -0.4290   -0.1260 C   0  0  0  0  0  0  0  0  0  0  0  0
    0.5410   -0.3970   -0.6090 C   0  0  0  0  0  0  0  0  0  0  0  0
    0.8520   -0.7500   -2.0350 C   0  0  0  0  0  0  0  0  0  0  0  0
    1.6460    0.3940   -2.5170 N   0  0  0  0  0  0  0  0  0  0  0  0
    2.8170    0.7820   -1.8160 C   0  0  0  0  0  0  0  0  0  0  0  0
    3.8970    1.3630   -2.4910 C   0  0  0  0  0  0  0  0  0  0  0  0
    4.9840    1.7010   -1.7150 C   0  0  0  0  0  0  0  0  0  0  0  0
    5.0490    1.5010   -0.3570 C   0  0  0  0  0  0  0  0  0  0  0  0
    3.9750    0.9280    0.2890 C   0  0  0  0  0  0  0  0  0  0  0  0
    2.8720    0.5770   -0.4590 C   0  0  0  0  0  0  0  0  0  0  0  0
    1.6980   -0.0390    0.1950 C   0  0  0  0  0  0  0  0  0  0  0  0
    1.7310   -0.2400    1.4430 O   0  0  0  0  0  0  0  0  0  0  0  0
   -1.0310   -0.0790    1.1880 N   0  0  0  0  0  0  0  0  0  0  0  0
   -2.3150   -0.2760    1.7760 C   0  0  0  0  0  0  0  0  0  0  0  0
   -2.5840    0.0950    3.0770 C   0  0  0  0  0  0  0  0  0  0  0  0
   -3.8410   -0.1120    3.6150 C   0  0  0  0  0  0  0  0  0  0  0  0
   -4.8370   -0.6900    2.8570 C   0  0  0  0  0  0  0  0  0  0  0  0
   -4.5450   -1.0510    1.5630 C   0  0  0  0  0  0  0  0  0  0  0  0
   -3.2930   -0.8570    0.9920 C   0  0  0  0  0  0  0  0  0  0  0  0
  1  2  2  0
  2  3  1  0
  2 22  1  0
  3  4  1  0
  4  5  2  3
  4 16  1  0
  5  6  1  0
  5 14  1  0
  6  7  1  0
  7  8  1  0
  8  9  2  0
  8 13  1  0
  9 10  1  0
 10 11  2  0
 11 12  1  0
 12 13  2  0
 13 14  1  0
 14 15  2  0
 16 17  1  0
 17 18  2  0
 17 22  1  0
 18 19  1  0
 19 20  2  0
 20 21  1  0
 21 22  2  0
M  END
