
     RDKit          3D

 23 25  0  0  0  0  0  0  0  0999 V2000
   -6.2750    1.1730    1.1980 C   0  0  0  0  0  0  0  0  0  0  0  0
   -4.8260    1.3920    0.9630 C   0  0  0  0  0  0  0  0  0  0  0  0
   -4.2790    2.4100    1.4420 O   0  0  0  0  0  0  0  0  0  0  0  0
   -4.0320    0.4320    0.1790 C   0  0  0  0  0  0  0  0  0  0  0  0
   -2.7620    0.7560    0.0540 C   0  0  0  0  0  0  0  0  0  0  0  0
   -1.6090    0.0760   -0.6510 C   0  0  0  0  0  0  0  0  0  0  0  0
   -0.4970    0.3020   -0.0940 C   0  0  0  0  0  0  0  0  0  0  0  0
    0.9080   -0.0970   -0.3610 C   0  0  0  0  0  0  0  0  0  0  0  0
    1.2840   -0.8500   -1.5690 C   0  0  0  0  0  0  0  0  0  0  0  0
    1.7730    0.3390    0.5290 C   0  0  0  0  0  0  0  0  0  0  0  0
    3.1980    0.2070    0.6930 C   0  0  0  0  0  0  0  0  0  0  0  0
    3.7600    0.8220    1.7660 C   0  0  0  0  0  0  0  0  0  0  0  0
    5.1580    0.7820    2.0840 C   0  0  0  0  0  0  0  0  0  0  0  0
    5.9680    1.3560    3.0530 C   0  0  0  0  0  0  0  0  0  0  0  0
    7.2000    0.9920    2.8000 O   0  0  0  0  0  0  0  0  0  0  0  0
    7.2450    0.2290    1.7460 N   0  0  0  0  0  0  0  0  0  0  0  0
    6.0140    0.0760    1.2790 C   0  0  0  0  0  0  0  0  0  0  0  0
    5.5060   -0.7110    0.1680 C   0  0  0  0  0  0  0  0  0  0  0  0
    4.0930   -0.5000   -0.2210 C   0  0  0  0  0  0  0  0  0  0  0  0
   -1.7810   -0.8180   -1.8380 C   0  0  0  0  0  0  0  0  0  0  0  0
   -3.1410   -1.2850   -1.8370 C   0  0  0  0  0  0  0  0  0  0  0  0
   -4.4950   -1.5070   -1.5050 C   0  0  0  0  0  0  0  0  0  0  0  0
   -4.7850   -0.6720   -0.3010 N   0  0  0  0  0  0  0  0  0  0  0  0
  1  2  1  0
  2  3  2  0
  2  4  1  0
  4  5  2  0
  4 23  1  0
  5  6  1  0
  6  7  2  3
  6 20  1  0
  7  8  1  0
  8  9  1  0
  8 10  2  3
 10 11  1  0
 11 12  2  0
 11 19  1  0
 12 13  1  0
 13 14  2  0
 13 17  1  0
 14 15  1  0
 15 16  1  0
 16 17  2  0
 17 18  1  0
 18 19  1  0
 20 21  1  0
 21 22  1  0
 22 23  1  0
M  END
