
     RDKit          3D

 11 10  0  0  0  0  0  0  0  0999 V2000
   -3.9780    1.2380    0.0220 C   0  0  0  0  0  0  0  0  0  0  0  0
   -2.5670    0.8850    0.1610 N   0  0  0  0  0  0  0  0  0  0  0  0
   -2.4220   -0.5420   -0.0180 C   0  0  0  0  0  0  0  0  0  0  0  0
   -1.0850   -1.0400    0.4830 C   0  0  0  0  0  0  0  0  0  0  0  0
    0.0590   -0.3480   -0.2800 C   0  0  0  0  0  0  0  0  0  0  0  0
    1.3230   -0.9190    0.3000 C   0  0  0  0  0  0  0  0  0  0  0  0
    2.5900   -0.4100   -0.2930 C   0  0  2  0  0  0  0  0  0  0  0  0
    3.7350   -1.0670    0.3750 N   0  0  0  0  0  0  0  0  0  0  0  0
    2.7350    1.0340    0.0100 C   0  0  0  0  0  0  0  0  0  0  0  0
    3.6260    1.4860    0.7860 O   0  0  0  0  0  0  0  0  0  0  0  0
    1.8700    1.9740   -0.5660 O   0  0  0  0  0  0  0  0  0  0  0  0
  1  2  1  0
  2  3  1  0
  3  4  1  0
  4  5  1  0
  5  6  1  0
  6  7  1  0
  7  8  1  1
  7  9  1  0
  9 10  2  0
  9 11  1  0
M  CHG  2   2   1   8   1
M  END
