
     RDKit          3D

 23 26  0  0  0  0  0  0  0  0999 V2000
   -6.6050    1.3960    0.0300 C   0  0  0  0  0  0  0  0  0  0  0  0
   -5.5220    0.3850    0.0150 C   0  0  0  0  0  0  0  0  0  0  0  0
   -4.2750    0.7680   -0.0600 C   0  0  0  0  0  0  0  0  0  0  0  0
   -3.9040    2.1810   -0.1290 C   0  0  0  0  0  0  0  0  0  0  0  0
   -4.8100    3.0400   -0.1170 O   0  0  0  0  0  0  0  0  0  0  0  0
   -2.5130    2.5830   -0.2120 C   0  0  0  0  0  0  0  0  0  0  0  0
   -1.5770    1.6670   -0.2240 C   0  0  0  0  0  0  0  0  0  0  0  0
   -1.9020    0.2520   -0.1560 C   0  0  0  0  0  0  0  0  0  0  0  0
   -3.2020   -0.2380   -0.0750 C   0  0  0  0  0  0  0  0  0  0  0  0
   -3.4360   -1.5860   -0.0150 C   0  0  0  0  0  0  0  0  0  0  0  0
   -2.3670   -2.4910   -0.0340 C   0  0  0  0  0  0  0  0  0  0  0  0
   -1.0870   -2.0420   -0.1120 C   0  0  0  0  0  0  0  0  0  0  0  0
    0.1690   -2.6630   -0.1500 C   0  0  0  0  0  0  0  0  0  0  0  0
    1.1180   -1.6720   -0.2330 C   0  0  0  0  0  0  0  0  0  0  0  0
    2.5830   -1.8690   -0.2970 C   0  0  0  0  0  0  0  0  0  0  0  0
    3.0810   -3.0210   -0.2790 O   0  0  0  0  0  0  0  0  0  0  0  0
    3.4690   -0.7630   -0.3800 N   0  0  0  0  0  0  0  0  0  0  0  0
    4.9110   -0.9270   -0.4440 C   0  0  0  0  0  0  0  0  0  0  0  0
    5.6000    0.4060   -0.5260 C   0  0  1  0  0  0  0  0  0  0  0  0
    5.3760    1.3880    0.6330 C   0  0  0  0  0  0  0  0  0  0  0  0
    6.6790    0.7020    0.4680 C   0  0  0  0  0  0  0  0  0  0  0  0
    0.4550   -0.5080   -0.2430 N   0  0  0  0  0  0  0  0  0  0  0  0
   -0.8670   -0.6960   -0.1720 C   0  0  0  0  0  0  0  0  0  0  0  0
  1  2  1  0
  2  3  2  3
  3  4  1  0
  3  9  1  0
  4  5  2  0
  4  6  1  0
  6  7  2  0
  7  8  1  0
  8  9  2  0
  8 23  1  0
  9 10  1  0
 10 11  2  0
 11 12  1  0
 12 13  1  0
 12 23  2  0
 13 14  2  0
 14 15  1  0
 14 22  1  0
 15 16  2  0
 15 17  1  0
 17 18  1  0
 19 18  1  1
 19 20  1  0
 19 21  1  0
 20 21  1  0
 22 23  1  0
M  END
