
     RDKit          3D

 23 26  0  0  0  0  0  0  0  0999 V2000
    0.9130   -2.0930    0.8110 C   0  0  0  0  0  0  0  0  0  0  0  0
    0.9590   -0.8830   -0.0390 C   0  0  0  0  0  0  0  0  0  0  0  0
   -0.1220   -0.2260   -0.5540 C   0  0  0  0  0  0  0  0  0  0  0  0
   -1.4760   -0.5390   -0.2130 C   0  0  1  0  0  0  0  0  0  0  0  0
   -1.8210   -1.3430    0.9250 N   0  0  0  0  0  0  0  0  0  0  0  0
   -3.1730   -1.8870    0.8280 C   0  0  0  0  0  0  0  0  0  0  0  0
   -3.5140   -2.8410    1.5340 O   0  0  0  0  0  0  0  0  0  0  0  0
   -4.1060   -1.2440   -0.1470 C   0  0  0  0  0  0  0  0  0  0  0  0
   -3.7510    0.2350   -0.0440 C   0  0  0  0  0  0  0  0  0  0  0  0
   -2.4180    0.6170   -0.0430 C   0  0  0  0  0  0  0  0  0  0  0  0
   -2.0780    1.9080    0.1040 C   0  0  0  0  0  0  0  0  0  0  0  0
   -3.1050    2.8560    0.2510 C   0  0  0  0  0  0  0  0  0  0  0  0
   -4.3840    2.4460    0.2430 N   0  0  0  0  0  0  0  0  0  0  0  0
   -4.7620    1.1590    0.1000 C   0  0  0  0  0  0  0  0  0  0  0  0
   -6.0940    0.7700    0.0970 O   0  0  0  0  0  0  0  0  0  0  0  0
    0.0770    0.8490   -1.4430 C   0  0  0  0  0  0  0  0  0  0  0  0
    1.3540    1.2060   -1.7580 C   0  0  0  0  0  0  0  0  0  0  0  0
    2.4510    0.5660   -1.2510 C   0  0  0  0  0  0  0  0  0  0  0  0
    2.2560   -0.4800   -0.3900 C   0  0  0  0  0  0  0  0  0  0  0  0
    3.4790   -1.1190    0.1560 C   0  0  0  0  0  0  0  0  0  0  0  0
    4.3970   -0.0030    0.6180 C   0  0  0  0  0  0  0  0  0  0  0  0
    4.7790    0.9430   -0.4570 C   0  0  0  0  0  0  0  0  0  0  0  0
    3.8340    0.9690   -1.6210 C   0  0  0  0  0  0  0  0  0  0  0  0
  1  2  1  0
  2  3  2  0
  2 19  1  0
  4  3  1  1
  3 16  1  0
  4  5  1  0
  4 10  1  0
  5  6  1  0
  6  7  2  0
  6  8  1  0
  8  9  1  0
  9 10  2  0
  9 14  1  0
 10 11  1  0
 11 12  2  0
 12 13  1  0
 13 14  2  0
 14 15  1  0
 16 17  2  0
 17 18  1  0
 18 19  2  0
 18 23  1  0
 19 20  1  0
 20 21  1  0
 21 22  1  0
 22 23  1  0
M  END
