
     RDKit          3D

 26 29  0  0  0  0  0  0  0  0999 V2000
    5.6310    0.0330   -2.3170 N   0  0  0  0  0  0  0  0  0  0  0  0
    4.4580   -0.1370   -1.8660 C   0  0  0  0  0  0  0  0  0  0  0  0
    4.0980   -0.0280   -0.4610 C   0  0  0  0  0  0  0  0  0  0  0  0
    5.1110    0.2990    0.4070 C   0  0  0  0  0  0  0  0  0  0  0  0
    4.8960    0.4120    1.7450 C   0  0  0  0  0  0  0  0  0  0  0  0
    6.1930    0.8470    2.8640 Cl  0  0  0  0  0  0  0  0  0  0  0  0
    3.6520    0.1940    2.2390 C   0  0  0  0  0  0  0  0  0  0  0  0
    2.6210   -0.1400    1.3590 C   0  0  0  0  0  0  0  0  0  0  0  0
    2.7900   -0.2600    0.0000 C   0  0  0  0  0  0  0  0  0  0  0  0
    1.9120   -0.5410   -1.1230 C   0  0  0  0  0  0  0  0  0  0  0  0
    0.5000   -0.8340   -0.9210 C   0  0  0  0  0  0  0  0  0  0  0  0
   -0.2670   -0.1910    0.1470 C   0  0  1  0  0  0  0  0  0  0  0  0
   -1.7110    0.0470   -0.1060 C   0  0  0  0  0  0  0  0  0  0  0  0
   -2.7080   -0.8630    0.0790 C   0  0  0  0  0  0  0  0  0  0  0  0
   -2.4920   -2.3130    0.3190 C   0  0  0  0  0  0  0  0  0  0  0  0
   -3.7490   -3.0340    0.4710 N   0  0  0  0  0  0  0  0  0  0  0  0
   -3.8930   -0.2610   -0.0590 N   0  0  0  0  0  0  0  0  0  0  0  0
   -3.7020    1.0570   -0.3380 C   0  0  0  0  0  0  0  0  0  0  0  0
   -4.6200    2.0700   -0.5260 C   0  0  0  0  0  0  0  0  0  0  0  0
   -4.1510    3.3350   -0.7580 C   0  0  0  0  0  0  0  0  0  0  0  0
   -2.7840    3.5600   -0.7980 C   0  0  0  0  0  0  0  0  0  0  0  0
   -1.8940    2.5270   -0.6070 C   0  0  0  0  0  0  0  0  0  0  0  0
   -2.3370    1.2390   -0.3690 C   0  0  0  0  0  0  0  0  0  0  0  0
    0.0660   -0.5530    1.4780 N   0  0  0  0  0  0  0  0  0  0  0  0
    1.3760   -0.3890    2.0700 C   0  0  0  0  0  0  0  0  0  0  0  0
    1.4960   -0.4640    3.3130 O   0  0  0  0  0  0  0  0  0  0  0  0
  1  2  2  0
  2  3  1  0
  3  4  2  0
  3  9  1  0
  4  5  1  0
  5  6  1  0
  5  7  2  0
  7  8  1  0
  8  9  2  0
  8 25  1  0
  9 10  1  0
 10 11  1  0
 11 12  1  0
 12 13  1  6
 12 24  1  0
 13 14  2  0
 13 23  1  0
 14 15  1  0
 14 17  1  0
 15 16  1  0
 17 18  1  0
 18 19  2  0
 18 23  1  0
 19 20  1  0
 20 21  2  0
 21 22  1  0
 22 23  2  0
 24 25  1  0
 25 26  2  0
M  CHG  1  16   1
M  END
