
     RDKit          3D

 26 29  0  0  0  0  0  0  0  0999 V2000
    0.2300    4.5670   -0.8350 C   0  0  0  0  0  0  0  0  0  0  0  0
    0.1900    3.1880   -0.5850 O   0  0  0  0  0  0  0  0  0  0  0  0
   -1.0290    2.5310   -0.5380 C   0  0  0  0  0  0  0  0  0  0  0  0
   -2.1580    3.2640   -0.7400 C   0  0  0  0  0  0  0  0  0  0  0  0
   -3.3850    2.6900   -0.7100 C   0  0  0  0  0  0  0  0  0  0  0  0
   -3.4510    1.3460   -0.4670 C   0  0  0  0  0  0  0  0  0  0  0  0
   -2.2800    0.5980   -0.2600 C   0  0  0  0  0  0  0  0  0  0  0  0
   -2.4810   -0.7890    0.0070 C   0  0  0  0  0  0  0  0  0  0  0  0
   -2.5540   -1.2280    1.3160 C   0  0  0  0  0  0  0  0  0  0  0  0
   -2.7750   -2.5630    1.5370 C   0  0  0  0  0  0  0  0  0  0  0  0
   -2.9200   -3.4470    0.4800 C   0  0  0  0  0  0  0  0  0  0  0  0
   -2.8520   -3.0350   -0.8220 C   0  0  0  0  0  0  0  0  0  0  0  0
   -3.0340   -4.1440   -2.1650 Cl  0  0  0  0  0  0  0  0  0  0  0  0
   -2.6270   -1.6750   -1.0350 C   0  0  0  0  0  0  0  0  0  0  0  0
   -1.0400    1.1430   -0.2850 C   0  0  0  0  0  0  0  0  0  0  0  0
    0.2080    0.4600   -0.0840 C   0  0  0  0  0  0  0  0  0  0  0  0
    1.4050    1.1300   -0.0420 N   0  0  0  0  0  0  0  0  0  0  0  0
    2.4170    0.3120    0.1650 C   0  0  0  0  0  0  0  0  0  0  0  0
    3.7820    0.5450    0.2790 C   0  0  0  0  0  0  0  0  0  0  0  0
    4.3390    1.8330    0.1780 N   0  0  0  0  0  0  0  0  0  0  0  0
    4.5880   -0.5540    0.5010 C   0  0  0  0  0  0  0  0  0  0  0  0
    4.0430   -1.8330    0.6020 C   0  0  0  0  0  0  0  0  0  0  0  0
    2.6860   -2.0610    0.4890 C   0  0  0  0  0  0  0  0  0  0  0  0
    2.1020   -3.3550    0.5880 N   0  0  0  0  0  0  0  0  0  0  0  0
    1.8880   -0.9470    0.2660 C   0  0  0  0  0  0  0  0  0  0  0  0
    0.5520   -0.7990    0.1080 N   0  0  0  0  0  0  0  0  0  0  0  0
  1  2  1  0
  2  3  1  0
  3  4  2  0
  3 15  1  0
  4  5  1  0
  5  6  2  0
  6  7  1  0
  7  8  1  0
  7 15  2  0
  8  9  2  0
  8 14  1  0
  9 10  1  0
 10 11  2  0
 11 12  1  0
 12 13  1  0
 12 14  2  0
 15 16  1  0
 16 17  2  0
 16 26  1  0
 17 18  1  0
 18 19  2  0
 18 25  1  0
 19 20  1  0
 19 21  1  0
 21 22  2  0
 22 23  1  0
 23 24  1  0
 23 25  2  0
 25 26  1  0
M  CHG  1  24   1
M  END
