
     RDKit          3D

 26 29  0  0  0  0  0  0  0  0999 V2000
   -0.7130   -0.4590    0.1760 N   0  0  0  0  0  0  0  0  0  0  0  0
   -1.1210    0.5780   -0.7180 C   0  0  0  0  0  0  0  0  0  0  0  0
   -2.4700    0.6450   -0.9920 C   0  0  0  0  0  0  0  0  0  0  0  0
   -3.4520   -0.2680   -0.4200 C   0  0  0  0  0  0  0  0  0  0  0  0
   -4.6410    0.1600    0.1340 C   0  0  0  0  0  0  0  0  0  0  0  0
   -5.5620   -0.7190    0.6680 C   0  0  0  0  0  0  0  0  0  0  0  0
   -5.3040   -2.0900    0.6590 C   0  0  0  0  0  0  0  0  0  0  0  0
   -6.2130   -2.9830    1.1880 O   0  0  0  0  0  0  0  0  0  0  0  0
   -4.1300   -2.5260    0.1140 C   0  0  0  0  0  0  0  0  0  0  0  0
   -3.2090   -1.6200   -0.4230 C   0  0  0  0  0  0  0  0  0  0  0  0
   -2.8750    1.6550   -1.8720 C   0  0  0  0  0  0  0  0  0  0  0  0
   -1.9650    2.5280   -2.4270 C   0  0  0  0  0  0  0  0  0  0  0  0
   -0.6290    2.4560   -2.1510 C   0  0  0  0  0  0  0  0  0  0  0  0
   -0.2070    1.4550   -1.2750 C   0  0  0  0  0  0  0  0  0  0  0  0
    1.2090    1.3680   -0.9560 C   0  0  0  0  0  0  0  0  0  0  0  0
    1.7440    0.4890   -0.0950 N   0  0  0  0  0  0  0  0  0  0  0  0
    3.0630    0.6520   -0.0000 C   0  0  0  0  0  0  0  0  0  0  0  0
    4.0410   -0.0500    0.7970 C   0  0  0  0  0  0  0  0  0  0  0  0
    5.3940    0.2970    0.6950 C   0  0  0  0  0  0  0  0  0  0  0  0
    6.3020   -0.3860    1.4670 C   0  0  0  0  0  0  0  0  0  0  0  0
    5.9450   -1.3620    2.3050 N   0  0  0  0  0  0  0  0  0  0  0  0
    4.6670   -1.7290    2.4370 C   0  0  0  0  0  0  0  0  0  0  0  0
    3.7220   -1.0610    1.6730 C   0  0  0  0  0  0  0  0  0  0  0  0
    2.0480   -1.5240    1.8380 Cl  0  0  0  0  0  0  0  0  0  0  0  0
    3.3830    1.7050   -0.8580 C   0  0  0  0  0  0  0  0  0  0  0  0
    2.2240    2.1080   -1.4170 N   0  0  0  0  0  0  0  0  0  0  0  0
  1  2  1  0
  2  3  2  0
  2 14  1  0
  3  4  1  0
  3 11  1  0
  4  5  2  0
  4 10  1  0
  5  6  1  0
  6  7  2  0
  7  8  1  0
  7  9  1  0
  9 10  2  0
 11 12  2  0
 12 13  1  0
 13 14  2  0
 14 15  1  0
 15 16  2  0
 15 26  1  0
 16 17  1  0
 17 18  1  0
 17 25  2  0
 18 19  2  0
 18 23  1  0
 19 20  1  0
 20 21  2  0
 21 22  1  0
 22 23  2  0
 23 24  1  0
 25 26  1  0
M  CHG  1  21   1
M  END
