
     RDKit          3D

 26 29  0  0  0  0  0  0  0  0999 V2000
    7.8410    0.0340    1.3250 N   0  0  0  0  0  0  0  0  0  0  0  0
    7.5120    0.4150   -0.0320 C   0  0  0  0  0  0  0  0  0  0  0  0
    6.1560   -0.1730   -0.3280 C   0  0  0  0  0  0  0  0  0  0  0  0
    6.0150   -1.3940   -0.9190 C   0  0  0  0  0  0  0  0  0  0  0  0
    4.7190   -1.8290   -1.1380 C   0  0  0  0  0  0  0  0  0  0  0  0
    3.6840   -1.0580   -0.7730 N   0  0  0  0  0  0  0  0  0  0  0  0
    3.7950    0.1410   -0.1940 C   0  0  0  0  0  0  0  0  0  0  0  0
    2.7270    0.9770    0.2020 N   0  0  0  0  0  0  0  0  0  0  0  0
    1.3710    0.7040    0.0680 C   0  0  0  0  0  0  0  0  0  0  0  0
    0.4590    1.7300    0.3100 C   0  0  0  0  0  0  0  0  0  0  0  0
   -0.8970    1.5360    0.2110 C   0  0  0  0  0  0  0  0  0  0  0  0
   -1.3750    0.2750   -0.1420 C   0  0  0  0  0  0  0  0  0  0  0  0
   -2.8080    0.1440   -0.2580 C   0  0  0  0  0  0  0  0  0  0  0  0
   -3.3650   -0.3560   -1.4040 C   0  0  0  0  0  0  0  0  0  0  0  0
   -4.7250   -0.5000   -1.5240 C   0  0  0  0  0  0  0  0  0  0  0  0
   -5.4860   -1.1380   -2.9790 Cl  0  0  0  0  0  0  0  0  0  0  0  0
   -5.5330   -0.1300   -0.4640 C   0  0  0  0  0  0  0  0  0  0  0  0
   -5.0100    0.3750    0.6980 C   0  0  0  0  0  0  0  0  0  0  0  0
   -3.6300    0.5050    0.7820 C   0  0  0  0  0  0  0  0  0  0  0  0
   -6.1120    0.7000    1.6740 C   0  0  0  0  0  0  0  0  0  0  0  0
   -7.2900    0.8940    0.7030 C   0  0  0  0  0  0  0  0  0  0  0  0
   -7.0210   -0.1780   -0.3020 C   0  0  0  0  0  0  0  0  0  0  0  0
   -0.4730   -0.7270   -0.3770 C   0  0  0  0  0  0  0  0  0  0  0  0
   -0.9370   -1.9980   -0.7270 O   0  0  0  0  0  0  0  0  0  0  0  0
    0.8940   -0.5170   -0.2730 C   0  0  0  0  0  0  0  0  0  0  0  0
    5.0920    0.5510    0.0130 N   0  0  0  0  0  0  0  0  0  0  0  0
  1  2  1  0
  2  3  1  0
  3  4  2  0
  3 26  1  0
  4  5  1  0
  5  6  2  0
  6  7  1  0
  7  8  1  0
  7 26  2  0
  8  9  1  0
  9 10  2  0
  9 25  1  0
 10 11  1  0
 11 12  2  0
 12 13  1  0
 12 23  1  0
 13 14  2  0
 13 19  1  0
 14 15  1  0
 15 16  1  0
 15 17  2  0
 17 18  1  0
 17 22  1  0
 18 19  2  0
 18 20  1  0
 20 21  1  0
 21 22  1  0
 23 24  1  0
 23 25  2  0
M  CHG  1   1   1
M  END
