
     RDKit          3D

 26 29  0  0  0  0  0  0  0  0999 V2000
   -3.8110    0.2730   -2.8880 C   0  0  0  0  0  0  0  0  0  0  0  0
   -3.4550    0.1800   -1.4350 C   0  0  0  0  0  0  0  0  0  0  0  0
   -2.2730    0.6590   -0.9420 C   0  0  0  0  0  0  0  0  0  0  0  0
   -2.0090    0.5420    0.3980 C   0  0  0  0  0  0  0  0  0  0  0  0
   -0.7520    1.0380    0.9950 C   0  0  0  0  0  0  0  0  0  0  0  0
    0.1450    1.6470    0.0380 N   0  0  0  0  0  0  0  0  0  0  0  0
    0.8320    0.6550   -0.7540 C   0  0  1  0  0  0  0  0  0  0  0  0
    1.2770    1.1820   -2.1000 C   0  0  0  0  0  0  0  0  0  0  0  0
    2.2350    0.0440   -2.4890 C   0  0  0  0  0  0  0  0  0  0  0  0
    2.9550   -0.1210   -1.1780 C   0  0  0  0  0  0  0  0  0  0  0  0
    4.2250   -0.5460   -0.8510 C   0  0  0  0  0  0  0  0  0  0  0  0
    4.6400   -0.6000    0.4590 C   0  0  0  0  0  0  0  0  0  0  0  0
    5.9210   -1.0290    0.7900 C   0  0  0  0  0  0  0  0  0  0  0  0
    6.3430   -1.0850    2.1030 C   0  0  0  0  0  0  0  0  0  0  0  0
    5.4550   -0.7010    3.0870 C   0  0  0  0  0  0  0  0  0  0  0  0
    5.9750   -0.7650    4.7730 Cl  0  0  0  0  0  0  0  0  0  0  0  0
    4.2050   -0.2830    2.7560 N   0  0  0  0  0  0  0  0  0  0  0  0
    3.7820   -0.2240    1.4790 C   0  0  0  0  0  0  0  0  0  0  0  0
    2.5500    0.1860    1.1300 N   0  0  0  0  0  0  0  0  0  0  0  0
    2.1230    0.2460   -0.1470 C   0  0  0  0  0  0  0  0  0  0  0  0
   -2.9440   -0.0570    1.2070 C   0  0  0  0  0  0  0  0  0  0  0  0
   -2.7260   -0.2090    2.6210 N   0  0  0  0  0  0  0  0  0  0  0  0
   -4.1410   -0.5460    0.7300 C   0  0  0  0  0  0  0  0  0  0  0  0
   -5.1520   -1.1940    1.6070 C   0  0  0  0  0  0  0  0  0  0  0  0
   -4.3950   -0.4220   -0.6250 C   0  0  0  0  0  0  0  0  0  0  0  0
   -5.6010   -0.9050   -1.1630 O   0  0  0  0  0  0  0  0  0  0  0  0
  1  2  1  0
  2  3  2  0
  2 25  1  0
  3  4  1  0
  4  5  1  0
  4 21  2  0
  5  6  1  0
  7  6  1  1
  7  8  1  0
  7 20  1  0
  8  9  1  0
  9 10  1  0
 10 11  2  0
 10 20  1  0
 11 12  1  0
 12 13  2  0
 12 18  1  0
 13 14  1  0
 14 15  2  0
 15 16  1  0
 15 17  1  0
 17 18  2  0
 18 19  1  0
 19 20  2  0
 21 22  1  0
 21 23  1  0
 23 24  1  0
 23 25  2  0
 25 26  1  0
M  CHG  1   6   1
M  END
