
     RDKit          3D

 22 23  0  0  0  0  0  0  0  0999 V2000
   -3.9640    0.4080   -1.3160 C   0  0  0  0  0  0  0  0  0  0  0  0
   -2.9240    0.2010   -0.2290 C   0  0  1  0  0  0  0  0  0  0  0  0
   -3.5440    0.6490    1.0900 C   0  0  0  0  0  0  0  0  0  0  0  0
   -2.7010   -1.2820   -0.0980 C   0  0  0  0  0  0  0  0  0  0  0  0
   -1.8340   -1.7980   -1.0880 O   0  0  0  0  0  0  0  0  0  0  0  0
   -0.5980   -1.1720   -1.1750 C   0  0  0  0  0  0  0  0  0  0  0  0
    0.3900   -1.6820   -1.8100 O   0  0  0  0  0  0  0  0  0  0  0  0
   -0.4650    0.1200   -0.5020 C   0  0  0  0  0  0  0  0  0  0  0  0
    0.6630    0.4540    0.1070 C   0  0  0  0  0  0  0  0  0  0  0  0
    0.7970    1.6960    0.7500 N   0  0  0  0  0  0  0  0  0  0  0  0
    1.7670   -0.4650    0.1890 C   0  0  0  0  0  0  0  0  0  0  0  0
    1.6150   -1.8140    0.5700 C   0  0  0  0  0  0  0  0  0  0  0  0
    2.8830   -2.3330    0.5140 C   0  0  0  0  0  0  0  0  0  0  0  0
    3.2130   -3.6520    0.8150 O   0  0  0  0  0  0  0  0  0  0  0  0
    3.7440   -1.3880    0.1320 N   0  0  0  0  0  0  0  0  0  0  0  0
    3.0870   -0.2110   -0.0800 C   0  0  0  0  0  0  0  0  0  0  0  0
    3.7190    1.0180   -0.5110 C   0  0  0  0  0  0  0  0  0  0  0  0
    3.0810    2.0860   -0.7020 O   0  0  0  0  0  0  0  0  0  0  0  0
    5.1120    1.0120   -0.7260 O   0  0  0  0  0  0  0  0  0  0  0  0
    5.6770    2.1430   -1.1200 O   0  0  0  0  0  0  0  0  0  0  0  0
   -1.6740    0.9890   -0.5410 C   0  0  2  0  0  0  0  0  0  0  0  0
   -1.5700    2.1270    0.2490 O   0  0  0  0  0  0  0  0  0  0  0  0
  2  1  1  6
  2  3  1  0
  2  4  1  0
  2 21  1  0
  4  5  1  0
  5  6  1  0
  6  7  2  0
  6  8  1  0
  8  9  2  3
  8 21  1  0
  9 10  1  0
  9 11  1  0
 11 12  1  0
 11 16  2  0
 12 13  2  0
 13 14  1  0
 13 15  1  0
 15 16  1  0
 16 17  1  0
 17 18  2  0
 17 19  1  0
 19 20  1  0
 21 22  1  1
M  END
