
     RDKit          3D

 26 28  0  0  0  0  0  0  0  0999 V2000
    8.3350    0.2900    0.9070 N   0  0  0  0  0  0  0  0  0  0  0  0
    7.1460    0.3940    0.1310 C   0  0  0  0  0  0  0  0  0  0  0  0
    6.6110   -0.7190   -0.2350 O   0  0  0  0  0  0  0  0  0  0  0  0
    6.4920    1.6550   -0.2780 C   0  0  0  0  0  0  0  0  0  0  0  0
    5.2790    1.3130   -1.0360 N   0  0  0  0  0  0  0  0  0  0  0  0
    4.2660    0.5660   -0.3830 C   0  0  0  0  0  0  0  0  0  0  0  0
    4.4220    0.2260    0.8120 O   0  0  0  0  0  0  0  0  0  0  0  0
    3.0440    0.1590   -1.0060 N   0  0  0  0  0  0  0  0  0  0  0  0
    2.1190   -0.5850   -0.2820 N   0  0  0  0  0  0  0  0  0  0  0  0
    2.4190   -1.7920    0.4220 C   0  0  0  0  0  0  0  0  0  0  0  0
    1.6470   -1.7980    1.6990 C   0  0  1  0  0  0  0  0  0  0  0  0
    1.7610   -0.5450    2.2860 O   0  0  0  0  0  0  0  0  0  0  0  0
    0.1690   -2.0020    1.2900 C   0  0  0  0  0  0  0  0  0  0  0  0
   -0.3140   -0.8750    0.4710 C   0  0  2  0  0  0  0  0  0  0  0  0
   -1.4310   -1.1020   -0.4300 N   0  0  0  0  0  0  0  0  0  0  0  0
   -2.5880   -1.5780    0.3060 C   0  0  0  0  0  0  0  0  0  0  0  0
   -3.7490   -0.6520    0.3270 C   0  0  0  0  0  0  0  0  0  0  0  0
   -4.5200   -0.5840    1.4490 N   0  0  0  0  0  0  0  0  0  0  0  0
   -5.4650    0.3290    1.2510 C   0  0  0  0  0  0  0  0  0  0  0  0
   -5.3020    0.8650   -0.0260 C   0  0  0  0  0  0  0  0  0  0  0  0
   -6.1560    1.9390   -0.5710 C   0  0  1  0  0  0  0  0  0  0  0  0
   -6.0200    2.5370   -1.8980 C   0  0  0  0  0  0  0  0  0  0  0  0
   -7.1280    1.5460   -1.6630 C   0  0  0  0  0  0  0  0  0  0  0  0
   -4.2240    0.2120   -0.5420 N   0  0  0  0  0  0  0  0  0  0  0  0
    0.7750   -0.1160   -0.2180 C   0  0  0  0  0  0  0  0  0  0  0  0
    0.3940    0.9740   -0.7340 O   0  0  0  0  0  0  0  0  0  0  0  0
  1  2  1  0
  2  3  2  0
  2  4  1  0
  4  5  1  0
  5  6  1  0
  6  7  2  0
  6  8  1  0
  8  9  1  0
  9 10  1  0
  9 25  1  0
 10 11  1  0
 11 12  1  6
 11 13  1  0
 13 14  1  0
 14 15  1  6
 14 25  1  0
 15 16  1  0
 16 17  1  0
 17 18  1  0
 17 24  2  0
 18 19  1  0
 19 20  2  0
 21 20  1  6
 20 24  1  0
 21 22  1  0
 21 23  1  0
 22 23  1  0
 25 26  2  0
M  CHG  1  24   1
M  END
