
     RDKit          3D

 26 27  0  0  0  0  0  0  0  0999 V2000
    4.8990   -1.1160    1.6920 C   0  0  0  0  0  0  0  0  0  0  0  0
    3.8590   -0.0320    1.6150 C   0  0  2  0  0  0  0  0  0  0  0  0
    2.5910   -0.6950    1.1660 C   0  0  0  0  0  0  0  0  0  0  0  0
    1.5850   -0.9830    1.9650 C   0  0  0  0  0  0  0  0  0  0  0  0
    0.4170   -1.6070    1.4920 N   0  0  0  0  0  0  0  0  0  0  0  0
   -0.3290   -1.1230    0.5670 C   0  0  0  0  0  0  0  0  0  0  0  0
   -0.2470    0.0620   -0.2050 N   0  0  0  0  0  0  0  0  0  0  0  0
   -1.3250    0.1040   -1.0880 N   0  0  0  0  0  0  0  0  0  0  0  0
   -2.0880   -0.9520   -0.9460 C   0  0  0  0  0  0  0  0  0  0  0  0
   -3.2660   -1.1700   -1.7250 N   0  0  0  0  0  0  0  0  0  0  0  0
   -4.2080   -0.1450   -2.0680 C   0  0  0  0  0  0  0  0  0  0  0  0
   -4.9980    0.3280   -0.8890 C   0  0  1  0  0  0  0  0  0  0  0  0
   -5.9260    1.3040   -1.3300 O   0  0  0  0  0  0  0  0  0  0  0  0
   -5.8060   -0.7980   -0.2870 C   0  0  0  0  0  0  0  0  0  0  0  0
   -6.6020   -0.3320    0.8270 N   0  0  0  0  0  0  0  0  0  0  0  0
   -4.1750    0.9440    0.2140 C   0  0  0  0  0  0  0  0  0  0  0  0
   -3.5050    2.1070   -0.2300 O   0  0  0  0  0  0  0  0  0  0  0  0
   -1.5290   -1.8030    0.0970 C   0  0  0  0  0  0  0  0  0  0  0  0
   -2.0290   -2.9160    0.4810 N   0  0  0  0  0  0  0  0  0  0  0  0
    2.7550   -0.9040   -0.2260 N   0  0  0  0  0  0  0  0  0  0  0  0
    3.9770   -0.2370   -0.6540 C   0  0  0  0  0  0  0  0  0  0  0  0
    4.6530   -0.5750   -1.6240 O   0  0  0  0  0  0  0  0  0  0  0  0
    4.1070    0.8530    0.3610 C   0  0  2  0  0  0  0  0  0  0  0  0
    5.4330    1.5030    0.4320 C   0  0  0  0  0  0  0  0  0  0  0  0
    5.6870    2.3950   -0.7470 C   0  0  0  0  0  0  0  0  0  0  0  0
    5.6620    1.7140   -1.9350 O   0  0  0  0  0  0  0  0  0  0  0  0
  2  1  1  6
  2  3  1  0
  2 23  1  0
  3  4  2  3
  3 20  1  0
  4  5  1  0
  5  6  2  3
  6  7  1  0
  6 18  1  0
  7  8  1  0
  8  9  2  0
  9 10  1  0
  9 18  1  0
 10 11  1  0
 11 12  1  0
 12 13  1  6
 12 14  1  0
 12 16  1  0
 14 15  1  0
 16 17  1  0
 18 19  2  0
 20 21  1  0
 21 22  2  0
 21 23  1  0
 23 24  1  1
 24 25  1  0
 25 26  1  0
M  END
