
     RDKit          3D

 26 27  0  0  0  0  0  0  0  0999 V2000
    7.6970   -0.4470   -1.3190 C   0  0  0  0  0  0  0  0  0  0  0  0
    7.3830   -1.6310   -0.6940 O   0  0  0  0  0  0  0  0  0  0  0  0
    6.3950   -1.5570    0.2530 C   0  0  0  0  0  0  0  0  0  0  0  0
    5.1190   -1.0710   -0.3600 C   0  0  0  0  0  0  0  0  0  0  0  0
    4.0190   -0.9860    0.6650 C   0  0  0  0  0  0  0  0  0  0  0  0
    4.2540   -1.3030    1.8420 O   0  0  0  0  0  0  0  0  0  0  0  0
    2.7300   -0.5480    0.2950 N   0  0  0  0  0  0  0  0  0  0  0  0
    1.6320   -0.4300    1.1640 C   0  0  0  0  0  0  0  0  0  0  0  0
    1.7150   -0.7170    2.3940 N   0  0  0  0  0  0  0  0  0  0  0  0
    0.3430    0.0390    0.6470 N   0  0  0  0  0  0  0  0  0  0  0  0
   -0.8120   -0.5800    1.1480 C   0  0  0  0  0  0  0  0  0  0  0  0
   -2.0500   -0.3090    0.6810 C   0  0  0  0  0  0  0  0  0  0  0  0
   -3.1980   -0.9480    1.2080 C   0  0  0  0  0  0  0  0  0  0  0  0
   -4.4310   -0.7800    0.8830 C   0  0  0  0  0  0  0  0  0  0  0  0
   -5.5320   -1.5060    1.5000 N   0  0  0  0  0  0  0  0  0  0  0  0
   -6.7450   -0.8130    1.3210 C   0  0  0  0  0  0  0  0  0  0  0  0
   -7.8670   -1.1310    1.7940 O   0  0  0  0  0  0  0  0  0  0  0  0
   -6.4920    0.3630    0.4780 C   0  0  0  0  0  0  0  0  0  0  0  0
   -5.0780    0.1150   -0.0780 C   0  0  2  0  0  0  0  0  0  0  0  0
   -5.1830   -0.4490   -1.4160 N   0  0  0  0  0  0  0  0  0  0  0  0
   -2.0560    0.6220   -0.3810 N   0  0  0  0  0  0  0  0  0  0  0  0
   -1.0650    1.7240   -0.3390 C   0  0  2  0  0  0  0  0  0  0  0  0
   -1.2940    2.5730   -1.5070 C   0  0  0  0  0  0  0  0  0  0  0  0
   -0.4910    3.7240   -1.7440 N   0  0  0  0  0  0  0  0  0  0  0  0
   -2.2010    2.3340   -2.3530 O   0  0  0  0  0  0  0  0  0  0  0  0
    0.3030    1.0870   -0.3280 C   0  0  0  0  0  0  0  0  0  0  0  0
  1  2  1  0
  2  3  1  0
  3  4  1  0
  4  5  1  0
  5  6  2  0
  5  7  1  0
  7  8  1  0
  8  9  2  0
  8 10  1  0
 10 11  1  0
 10 26  1  0
 11 12  2  0
 12 13  1  0
 12 21  1  0
 13 14  2  3
 14 15  1  0
 14 19  1  0
 15 16  1  0
 16 17  2  0
 16 18  1  0
 18 19  1  0
 19 20  1  6
 21 22  1  0
 22 23  1  6
 22 26  1  0
 23 24  1  0
 23 25  2  0
M  CHG  1   9   1
M  END
