
     RDKit          3D

 26 28  0  0  0  0  0  0  0  0999 V2000
   -8.6590    0.2500    1.4480 C   0  0  0  0  0  0  0  0  0  0  0  0
   -7.6600    0.7140    0.5300 N   0  0  0  0  0  0  0  0  0  0  0  0
   -6.4200    0.0560    0.3030 C   0  0  0  0  0  0  0  0  0  0  0  0
   -6.2100   -1.0000    0.9620 O   0  0  0  0  0  0  0  0  0  0  0  0
   -5.4680    0.6270   -0.6670 C   0  0  2  0  0  0  0  0  0  0  0  0
   -6.1760    0.8900   -1.9540 C   0  0  0  0  0  0  0  0  0  0  0  0
   -4.2600   -0.1290   -0.8020 N   0  0  0  0  0  0  0  0  0  0  0  0
   -2.9640    0.3490   -0.4570 C   0  0  0  0  0  0  0  0  0  0  0  0
   -2.8690    1.5090   -0.0050 O   0  0  0  0  0  0  0  0  0  0  0  0
   -1.7630   -0.4550   -0.6100 C   0  0  0  0  0  0  0  0  0  0  0  0
   -0.6100    0.0900   -0.2580 C   0  0  0  0  0  0  0  0  0  0  0  0
    0.6830   -0.5880   -0.3520 C   0  0  0  0  0  0  0  0  0  0  0  0
    1.7880    0.0320    0.0230 C   0  0  0  0  0  0  0  0  0  0  0  0
    3.0950   -0.5520   -0.0330 C   0  0  0  0  0  0  0  0  0  0  0  0
    4.1840    0.1180    0.3580 C   0  0  0  0  0  0  0  0  0  0  0  0
    4.1490    1.4700    0.8670 N   0  0  0  0  0  0  0  0  0  0  0  0
    5.4730    1.8510    1.1180 N   0  0  0  0  0  0  0  0  0  0  0  0
    6.2740    0.6450    1.1060 C   0  0  2  0  0  0  0  0  0  0  0  0
    7.5040    0.7500    0.2290 C   0  0  0  0  0  0  0  0  0  0  0  0
    7.5960   -0.5080   -0.4680 N   0  0  0  0  0  0  0  0  0  0  0  0
    6.4530   -1.3230   -0.0590 C   0  0  0  0  0  0  0  0  0  0  0  0
    5.5150   -0.3320    0.3560 N   0  0  0  0  0  0  0  0  0  0  0  0
    0.6740   -1.9020   -0.8520 N   0  0  0  0  0  0  0  0  0  0  0  0
   -0.6010   -2.4600   -1.2240 C   0  0  0  0  0  0  0  0  0  0  0  0
   -0.5630   -3.6450   -1.6690 O   0  0  0  0  0  0  0  0  0  0  0  0
   -1.7850   -1.7510   -1.1050 O   0  0  0  0  0  0  0  0  0  0  0  0
  1  2  1  0
  2  3  1  0
  3  4  2  0
  3  5  1  0
  5  6  1  6
  5  7  1  0
  7  8  1  0
  8  9  2  0
  8 10  1  0
 10 11  2  0
 10 26  1  0
 11 12  1  0
 12 13  2  3
 12 23  1  0
 13 14  1  0
 14 15  2  3
 15 16  1  0
 15 22  1  0
 16 17  1  0
 17 18  1  0
 18 19  1  6
 18 22  1  0
 19 20  1  0
 20 21  1  0
 21 22  1  0
 23 24  1  0
 24 25  2  0
 24 26  1  0
M  CHG  1  20   1
M  END
