
     RDKit          3D

 13 13  0  0  0  0  0  0  0  0999 V2000
    2.1590    2.2320   -1.2440 O   0  0  0  0  0  0  0  0  0  0  0  0
    2.0840    1.2090   -0.5250 C   0  0  0  0  0  0  0  0  0  0  0  0
    3.2490    0.5950   -0.1290 O   0  0  0  0  0  0  0  0  0  0  0  0
    0.7710    0.7040   -0.1340 C   0  0  1  0  0  0  0  0  0  0  0  0
   -0.2850    1.4290   -0.6120 O   0  0  0  0  0  0  0  0  0  0  0  0
   -1.4740    1.0920   -0.0310 C   0  0  2  0  0  0  0  0  0  0  0  0
   -1.5610    1.7440    1.2120 O   0  0  0  0  0  0  0  0  0  0  0  0
   -1.7690   -0.3540    0.0730 C   0  0  2  0  0  0  0  0  0  0  0  0
   -2.7080   -0.5470    1.1130 O   0  0  0  0  0  0  0  0  0  0  0  0
   -0.5890   -1.2330    0.3210 C   0  0  1  0  0  0  0  0  0  0  0  0
   -0.8510   -2.5460   -0.0050 O   0  0  0  0  0  0  0  0  0  0  0  0
    0.5360   -0.7390   -0.5950 C   0  0  2  0  0  0  0  0  0  0  0  0
    1.6580   -1.5090   -0.5230 O   0  0  0  0  0  0  0  0  0  0  0  0
  1  2  2  0
  2  3  1  0
  4  2  1  6
  4  5  1  0
  4 12  1  0
  5  6  1  0
  6  7  1  1
  6  8  1  0
  8  9  1  1
  8 10  1  0
 10 11  1  6
 10 12  1  0
 12 13  1  1
M  END
