
     RDKit          3D

 18 17  0  0  0  0  0  0  0  0999 V2000
   -3.8430    1.4180    1.7090 C   0  0  0  0  0  0  0  0  0  0  0  0
   -3.9090    0.1860    1.0530 O   0  0  0  0  0  0  0  0  0  0  0  0
   -3.2300   -0.1680   -0.0800 C   0  0  0  0  0  0  0  0  0  0  0  0
   -3.7400   -1.0860   -0.9010 C   0  0  0  0  0  0  0  0  0  0  0  0
   -5.0410   -1.7480   -0.6240 C   0  0  0  0  0  0  0  0  0  0  0  0
   -5.9680   -1.5190   -1.6420 O   0  0  0  0  0  0  0  0  0  0  0  0
   -1.9860    0.4130   -0.4170 N   0  0  0  0  0  0  0  0  0  0  0  0
   -0.8270    0.3390    0.3960 C   0  0  0  0  0  0  0  0  0  0  0  0
   -0.9130   -0.2850    1.4850 O   0  0  0  0  0  0  0  0  0  0  0  0
    0.3910    0.9780   -0.0620 C   0  0  0  0  0  0  0  0  0  0  0  0
    0.3730    1.5750   -1.1640 O   0  0  0  0  0  0  0  0  0  0  0  0
    1.5750    0.9720    0.6400 O   0  0  0  0  0  0  0  0  0  0  0  0
    2.7620    1.5760    0.2290 C   0  0  0  0  0  0  0  0  0  0  0  0
    3.3400    1.1030   -1.0500 C   0  0  0  0  0  0  0  0  0  0  0  0
    3.6860   -0.1340   -1.2930 O   0  0  0  0  0  0  0  0  0  0  0  0
    4.5710   -0.8620   -0.6240 C   0  0  0  0  0  0  0  0  0  0  0  0
    4.1940   -1.2420    0.7590 C   0  0  0  0  0  0  0  0  0  0  0  0
    5.1870   -2.0170    1.3870 O   0  0  0  0  0  0  0  0  0  0  0  0
  1  2  1  0
  2  3  1  0
  3  4  2  3
  3  7  1  0
  4  5  1  0
  5  6  1  0
  7  8  1  0
  8  9  2  0
  8 10  1  0
 10 11  2  0
 10 12  1  0
 12 13  1  0
 13 14  1  0
 14 15  1  0
 15 16  1  0
 16 17  1  0
 17 18  1  0
M  END
