
     RDKit          3D

 18 19  0  0  0  0  0  0  0  0999 V2000
   -3.8620   -2.0070    0.5570 O   0  0  0  0  0  0  0  0  0  0  0  0
   -3.9780   -0.8750    0.0690 C   0  0  0  0  0  0  0  0  0  0  0  0
   -5.1740   -0.4530   -0.4320 O   0  0  0  0  0  0  0  0  0  0  0  0
   -5.4450    0.7890   -0.8350 O   0  0  0  0  0  0  0  0  0  0  0  0
   -4.2680    1.4240   -1.2260 C   0  0  0  0  0  0  0  0  0  0  0  0
   -3.3390    1.4370   -0.0280 C   0  0  0  0  0  0  0  0  0  0  0  0
   -2.7670    0.0120    0.0480 C   0  0  1  0  0  0  0  0  0  0  0  0
   -1.9630   -0.1620    1.1650 O   0  0  0  0  0  0  0  0  0  0  0  0
   -0.6070   -0.4760    1.0500 C   0  0  0  0  0  0  0  0  0  0  0  0
    0.0630   -0.6420   -0.1280 C   0  0  0  0  0  0  0  0  0  0  0  0
    1.3940   -0.9460    0.1720 C   0  0  0  0  0  0  0  0  0  0  0  0
    2.4170   -1.2130   -0.7680 N   0  0  0  0  0  0  0  0  0  0  0  0
    3.8050   -1.2590   -0.4660 C   0  0  0  0  0  0  0  0  0  0  0  0
    4.4280    0.0740   -0.1250 C   0  0  0  0  0  0  0  0  0  0  0  0
    3.8800    0.7000    0.9630 O   0  0  0  0  0  0  0  0  0  0  0  0
    4.4990    1.8280    1.1510 O   0  0  0  0  0  0  0  0  0  0  0  0
    1.4490   -0.9450    1.5480 C   0  0  0  0  0  0  0  0  0  0  0  0
    0.2540   -0.6640    2.0260 O   0  0  0  0  0  0  0  0  0  0  0  0
  1  2  2  0
  2  3  1  0
  2  7  1  0
  3  4  1  0
  4  5  1  0
  5  6  1  0
  6  7  1  0
  7  8  1  1
  8  9  1  0
  9 10  2  0
  9 18  1  0
 10 11  1  0
 11 12  1  0
 11 17  2  0
 12 13  1  0
 13 14  1  0
 14 15  1  0
 15 16  1  0
 17 18  1  0
M  END
