
     RDKit          3D

 12 11  0  0  0  0  0  0  0  0999 V2000
    0.0630   -2.1540    0.1320 C   0  0  0  0  0  0  0  0  0  0  0  0
   -0.0270   -0.6330    0.2930 C   0  0  1  0  0  0  0  0  0  0  0  0
    0.6180   -0.0040   -0.7290 O   0  0  0  0  0  0  0  0  0  0  0  0
    1.9060    0.8600   -0.1020 P   0  0  0  0  0  0  0  0  0  0  0  0
    2.2770    0.7740    1.4720 O   0  0  0  0  0  0  0  0  0  0  0  0
    2.8520   -0.2250   -0.6060 O   0  0  0  0  0  0  0  0  0  0  0  0
    2.6260    1.9870   -1.0940 O   0  0  0  0  0  0  0  0  0  0  0  0
   -1.4920   -0.2810    0.4050 C   0  0  2  0  0  0  0  0  0  0  0  0
   -2.2410   -0.6110   -0.7770 N   0  0  0  0  0  0  0  0  0  0  0  0
   -1.7460    1.1180    0.7760 C   0  0  0  0  0  0  0  0  0  0  0  0
   -1.1800    1.5740    1.8020 O   0  0  0  0  0  0  0  0  0  0  0  0
   -2.5740    1.9500    0.0520 O   0  0  0  0  0  0  0  0  0  0  0  0
  2  1  1  6
  2  3  1  0
  2  8  1  0
  3  4  1  0
  4  5  1  0
  4  6  1  0
  4  7  1  0
  8  9  1  6
  8 10  1  0
 10 11  2  0
 10 12  1  0
M  CHG  1   9   1
M  END
