
     RDKit          3D

 18 19  0  0  0  0  0  0  0  0999 V2000
    0.4720   -1.3300    0.5070 C   0  0  0  0  0  0  0  0  0  0  0  0
    0.0060    0.0840    0.3320 C   0  0  0  0  0  0  0  0  0  0  0  0
   -1.3060    0.2550    0.6630 O   0  0  0  0  0  0  0  0  0  0  0  0
   -2.2360   -0.4490   -0.0420 C   0  0  0  0  0  0  0  0  0  0  0  0
   -3.6490   -0.1030    0.4660 C   0  0  1  0  0  0  0  0  0  0  0  0
   -3.8460    1.2610    0.2860 O   0  0  0  0  0  0  0  0  0  0  0  0
   -5.2430    1.3680    0.0930 C   0  0  0  0  0  0  0  0  0  0  0  0
   -5.4860    0.1540   -0.7860 C   0  0  0  0  0  0  0  0  0  0  0  0
   -4.6130   -0.7710   -0.2450 O   0  0  0  0  0  0  0  0  0  0  0  0
    1.7880   -1.5500    0.1950 O   0  0  0  0  0  0  0  0  0  0  0  0
    2.1600   -1.2790   -1.1030 C   0  0  0  0  0  0  0  0  0  0  0  0
    3.6360   -1.5890   -1.2790 C   0  0  0  0  0  0  0  0  0  0  0  0
    4.4370   -0.8110   -0.4120 O   0  0  0  0  0  0  0  0  0  0  0  0
    4.4200    0.5760   -0.4770 C   0  0  0  0  0  0  0  0  0  0  0  0
    3.8260    1.2150   -1.4450 N   0  0  0  0  0  0  0  0  0  0  0  0
    4.0240    2.5610   -1.1650 O   0  0  0  0  0  0  0  0  0  0  0  0
    5.1090    2.7000   -0.3940 O   0  0  0  0  0  0  0  0  0  0  0  0
    5.0060    1.5810    0.4350 C   0  0  0  0  0  0  0  0  0  0  0  0
  1  2  1  0
  1 10  1  0
  2  3  1  0
  3  4  1  0
  5  4  1  6
  5  6  1  0
  5  9  1  0
  6  7  1  0
  7  8  1  0
  8  9  1  0
 10 11  1  0
 11 12  1  0
 12 13  1  0
 13 14  1  0
 14 15  2  0
 14 18  1  0
 15 16  1  0
 16 17  1  0
 17 18  1  0
M  END
