
     RDKit          3D

 18 17  0  0  0  0  0  0  0  0999 V2000
   -3.4780    1.0770    1.6340 C   0  0  0  0  0  0  0  0  0  0  0  0
   -3.8550    0.7800    0.4080 C   0  0  0  0  0  0  0  0  0  0  0  0
   -5.1710    1.2390   -0.0360 C   0  0  0  0  0  0  0  0  0  0  0  0
   -5.5870    0.9920   -1.1810 O   0  0  0  0  0  0  0  0  0  0  0  0
   -6.0100    1.9680    0.7990 O   0  0  0  0  0  0  0  0  0  0  0  0
   -3.0450    0.0240   -0.5310 C   0  0  0  0  0  0  0  0  0  0  0  0
   -3.4880   -0.2210   -1.7050 O   0  0  0  0  0  0  0  0  0  0  0  0
   -1.7640   -0.4560   -0.1830 N   0  0  0  0  0  0  0  0  0  0  0  0
   -0.9820   -1.2050   -1.1400 C   0  0  2  0  0  0  0  0  0  0  0  0
   -0.6950   -2.5710   -0.5560 C   0  0  0  0  0  0  0  0  0  0  0  0
    0.0590   -3.3260   -1.4530 O   0  0  0  0  0  0  0  0  0  0  0  0
    0.3070   -0.4740   -1.4840 C   0  0  0  0  0  0  0  0  0  0  0  0
    1.1720   -0.2580   -0.2580 C   0  0  0  0  0  0  0  0  0  0  0  0
    2.3120    0.4050   -0.6510 O   0  0  0  0  0  0  0  0  0  0  0  0
    3.1390    0.6510    0.3120 O   0  0  0  0  0  0  0  0  0  0  0  0
    4.4390    0.8720   -0.1780 C   0  0  0  0  0  0  0  0  0  0  0  0
    5.4020    1.1580    0.9310 C   0  0  0  0  0  0  0  0  0  0  0  0
    6.6550    1.3650    0.3770 O   0  0  0  0  0  0  0  0  0  0  0  0
  1  2  2  0
  2  3  1  0
  2  6  1  0
  3  4  2  0
  3  5  1  0
  6  7  2  0
  6  8  1  0
  8  9  1  0
  9 10  1  1
  9 12  1  0
 10 11  1  0
 12 13  1  0
 13 14  1  0
 14 15  1  0
 15 16  1  0
 16 17  1  0
 17 18  1  0
M  END
