
     RDKit          3D

 18 19  0  0  0  0  0  0  0  0999 V2000
    4.5320   -0.9180    0.3920 O   0  0  0  0  0  0  0  0  0  0  0  0
    4.8070    0.2750    0.3070 C   0  0  0  0  0  0  0  0  0  0  0  0
    3.8520    1.3250    0.1340 C   0  0  0  0  0  0  0  0  0  0  0  0
    2.5700    1.2010    0.0400 C   0  0  0  0  0  0  0  0  0  0  0  0
    1.7330    0.0290    0.0770 C   0  0  0  0  0  0  0  0  0  0  0  0
    2.0950   -1.2070    0.2190 O   0  0  0  0  0  0  0  0  0  0  0  0
    1.0980   -2.0320    0.2110 C   0  0  0  0  0  0  0  0  0  0  0  0
    1.1450   -3.2970    0.3290 O   0  0  0  0  0  0  0  0  0  0  0  0
   -0.0190   -1.2870    0.0510 N   0  0  0  0  0  0  0  0  0  0  0  0
    0.3300    0.0060   -0.0370 C   0  0  0  0  0  0  0  0  0  0  0  0
   -0.8810    0.7990   -0.2080 C   0  0  0  0  0  0  0  0  0  0  0  0
   -0.9110    1.9730   -0.6460 O   0  0  0  0  0  0  0  0  0  0  0  0
   -1.9810   -0.0800    0.2380 C   0  0  1  0  0  0  0  0  0  0  0  0
   -3.2100    0.2010   -0.3790 O   0  0  0  0  0  0  0  0  0  0  0  0
   -4.3170    0.5410    0.3850 C   0  0  0  0  0  0  0  0  0  0  0  0
   -4.1580    0.5810    1.6310 O   0  0  0  0  0  0  0  0  0  0  0  0
   -5.5260    0.8160   -0.2430 O   0  0  0  0  0  0  0  0  0  0  0  0
   -1.4550   -1.4530   -0.0560 C   0  0  0  0  0  0  0  0  0  0  0  0
  1  2  2  0
  2  3  1  0
  3  4  2  3
  4  5  1  0
  5  6  1  0
  5 10  2  0
  6  7  1  0
  7  8  2  0
  7  9  1  0
  9 10  1  0
  9 18  1  0
 10 11  1  0
 11 12  2  0
 11 13  1  0
 13 14  1  6
 13 18  1  0
 14 15  1  0
 15 16  2  0
 15 17  1  0
M  END
