
     RDKit          3D

 16 18  0  0  0  0  0  0  0  0999 V2000
   -3.0140    1.2430   -2.9430 C   0  0  0  0  0  0  0  0  0  0  0  0
   -1.8050    1.1220   -2.0820 C   0  0  0  0  0  0  0  0  0  0  0  0
   -0.7220    1.9170   -2.0690 N   0  0  0  0  0  0  0  0  0  0  0  0
    0.0970    1.4420   -1.1550 N   0  0  0  0  0  0  0  0  0  0  0  0
   -0.4040    0.3460   -0.5490 C   0  0  0  0  0  0  0  0  0  0  0  0
   -1.6480    0.1120   -1.1350 C   0  0  0  0  0  0  0  0  0  0  0  0
   -2.4730   -1.0090   -0.7120 C   0  0  0  0  0  0  0  0  0  0  0  0
   -2.0680   -1.8080    0.2130 N   0  0  0  0  0  0  0  0  0  0  0  0
   -0.8600   -1.6850    0.8690 N   0  0  0  0  0  0  0  0  0  0  0  0
   -0.3940   -2.5720    1.9070 C   0  0  0  0  0  0  0  0  0  0  0  0
    0.0070   -0.5840    0.4900 C   0  0  0  0  0  0  0  0  0  0  0  0
    1.1550   -0.4370    1.0870 C   0  0  0  0  0  0  0  0  0  0  0  0
    2.0850    0.6130    0.7900 C   0  0  0  0  0  0  0  0  0  0  0  0
    3.2520    0.7230    1.4310 C   0  0  0  0  0  0  0  0  0  0  0  0
    4.1940    0.2460    2.4240 C   0  0  0  0  0  0  0  0  0  0  0  0
    4.5230    1.3710    1.6860 C   0  0  0  0  0  0  0  0  0  0  0  0
  1  2  1  0
  2  3  1  0
  2  6  2  0
  3  4  1  0
  4  5  2  0
  5  6  1  0
  5 11  1  0
  6  7  1  0
  7  8  2  0
  8  9  1  0
  9 10  1  0
  9 11  1  0
 11 12  2  3
 12 13  1  0
 13 14  2  3
 14 15  1  0
 14 16  1  0
 15 16  2  0
M  END
