
     RDKit          3D

 24 25  0  0  0  0  0  0  0  0999 V2000
   -5.1140   -2.1760   -0.4240 O   0  0  0  0  0  0  0  0  0  0  0  0
   -3.8740   -2.2050   -0.5900 C   0  0  0  0  0  0  0  0  0  0  0  0
   -3.3440   -3.2670   -1.3000 O   0  0  0  0  0  0  0  0  0  0  0  0
   -3.0760   -1.1290   -0.0280 C   0  0  0  0  0  0  0  0  0  0  0  0
   -3.6620   -0.1450    0.6420 C   0  0  0  0  0  0  0  0  0  0  0  0
   -2.7510    0.9040    1.1730 C   0  0  2  0  0  0  0  0  0  0  0  0
   -3.5020    2.0390    1.4750 O   0  0  0  0  0  0  0  0  0  0  0  0
   -1.8400    1.2790    0.0030 C   0  0  1  0  0  0  0  0  0  0  0  0
   -1.1910    2.4250    0.3650 O   0  0  0  0  0  0  0  0  0  0  0  0
   -1.0130    0.1620   -0.4910 C   0  0  1  0  0  0  0  0  0  0  0  0
    0.2500    0.0300    0.0070 O   0  0  0  0  0  0  0  0  0  0  0  0
    1.2660   -0.1300   -0.8650 C   0  0  1  0  0  0  0  0  0  0  0  0
    2.2270    1.0420   -0.7350 C   0  0  1  0  0  0  0  0  0  0  0  0
    1.6590    2.3230   -1.1680 C   0  0  0  0  0  0  0  0  0  0  0  0
    1.0890    2.4320   -2.2780 O   0  0  0  0  0  0  0  0  0  0  0  0
    1.7530    3.4250   -0.3410 O   0  0  0  0  0  0  0  0  0  0  0  0
    2.7920    1.1620    0.4960 O   0  0  0  0  0  0  0  0  0  0  0  0
    2.7000    0.0630    1.3170 C   0  0  2  0  0  0  0  0  0  0  0  0
    3.7580    0.1570    2.2330 O   0  0  0  0  0  0  0  0  0  0  0  0
    2.8500   -1.2630    0.6180 C   0  0  2  0  0  0  0  0  0  0  0  0
    4.1980   -1.5540    0.4150 O   0  0  0  0  0  0  0  0  0  0  0  0
    2.1180   -1.3560   -0.6760 C   0  0  1  0  0  0  0  0  0  0  0  0
    1.4050   -2.5400   -0.8220 O   0  0  0  0  0  0  0  0  0  0  0  0
   -1.6970   -1.0600   -0.1510 O   0  0  0  0  0  0  0  0  0  0  0  0
  1  2  2  0
  2  3  1  0
  2  4  1  0
  4  5  2  0
  4 24  1  0
  5  6  1  0
  6  7  1  6
  6  8  1  0
  8  9  1  1
  8 10  1  0
 10 11  1  1
 10 24  1  0
 12 11  1  1
 12 13  1  0
 12 22  1  0
 13 14  1  1
 13 17  1  0
 14 15  2  0
 14 16  1  0
 17 18  1  0
 18 19  1  1
 18 20  1  0
 20 21  1  6
 20 22  1  0
 22 23  1  1
M  END
