
     RDKit          3D

 16 18  0  0  0  0  0  0  0  0999 V2000
   -4.0400   -0.5770    1.2550 C   0  0  0  0  0  0  0  0  0  0  0  0
   -2.8550    0.2670    1.4230 C   0  0  0  0  0  0  0  0  0  0  0  0
   -1.6650    0.1310    0.9260 C   0  0  0  0  0  0  0  0  0  0  0  0
   -1.2030   -0.8890    0.0790 N   0  0  0  0  0  0  0  0  0  0  0  0
   -1.8470   -1.9440   -0.4490 C   0  0  0  0  0  0  0  0  0  0  0  0
   -0.9570   -2.6780   -1.2430 C   0  0  0  0  0  0  0  0  0  0  0  0
    0.1850   -2.0300   -1.1580 N   0  0  0  0  0  0  0  0  0  0  0  0
    0.0700   -0.9520   -0.3700 C   0  0  0  0  0  0  0  0  0  0  0  0
    1.1910   -0.0360   -0.0640 C   0  0  0  0  0  0  0  0  0  0  0  0
    2.0390    0.3820   -1.0100 C   0  0  0  0  0  0  0  0  0  0  0  0
    2.3470    0.2770   -2.4420 C   0  0  0  0  0  0  0  0  0  0  0  0
    3.3750    1.0350   -2.6210 N   0  0  0  0  0  0  0  0  0  0  0  0
    3.8110    1.6600   -1.4470 C   0  0  0  0  0  0  0  0  0  0  0  0
    3.0190    1.2840   -0.4420 C   0  0  0  0  0  0  0  0  0  0  0  0
    2.6980    1.3960    0.9950 C   0  0  0  0  0  0  0  0  0  0  0  0
    1.5860    0.4940    1.1620 N   0  0  0  0  0  0  0  0  0  0  0  0
  1  2  1  0
  2  3  2  3
  3  4  1  0
  4  5  1  0
  4  8  1  0
  5  6  2  0
  6  7  1  0
  7  8  2  0
  8  9  1  0
  9 10  2  0
  9 16  1  0
 10 11  1  0
 10 14  1  0
 11 12  2  0
 12 13  1  0
 13 14  2  0
 14 15  1  0
 15 16  1  0
M  END
