
     RDKit          3D

 16 18  0  0  0  0  0  0  0  0999 V2000
   -3.3520    1.1910   -0.1230 C   0  0  0  0  0  0  0  0  0  0  0  0
   -1.8750    1.0400   -0.4300 C   0  0  0  0  0  0  0  0  0  0  0  0
   -1.2160    0.1190    0.1970 C   0  0  0  0  0  0  0  0  0  0  0  0
   -1.8730   -0.7740    1.1800 C   0  0  0  0  0  0  0  0  0  0  0  0
   -1.3120   -2.0970    1.1800 N   0  0  0  0  0  0  0  0  0  0  0  0
   -0.3760   -2.3810    0.1240 C   0  0  0  0  0  0  0  0  0  0  0  0
    0.6580   -1.3710   -0.0910 C   0  0  0  0  0  0  0  0  0  0  0  0
    1.9830   -1.5660   -0.3210 C   0  0  0  0  0  0  0  0  0  0  0  0
    2.8050   -0.5140   -0.4840 N   0  0  0  0  0  0  0  0  0  0  0  0
    4.1310   -0.4420   -0.7180 C   0  0  0  0  0  0  0  0  0  0  0  0
    4.4710    0.8410   -0.8000 N   0  0  0  0  0  0  0  0  0  0  0  0
    3.3980    1.5990   -0.6240 N   0  0  0  0  0  0  0  0  0  0  0  0
    2.3790    0.7780   -0.4300 C   0  0  0  0  0  0  0  0  0  0  0  0
    1.0300    1.0390   -0.1970 C   0  0  0  0  0  0  0  0  0  0  0  0
    0.4660    2.4040   -0.0780 C   0  0  0  0  0  0  0  0  0  0  0  0
    0.2090   -0.0390   -0.0360 C   0  0  0  0  0  0  0  0  0  0  0  0
  1  2  1  0
  2  3  2  3
  3  4  1  0
  3 16  1  0
  4  5  1  0
  5  6  1  0
  6  7  1  0
  7  8  2  0
  7 16  1  0
  8  9  1  0
  9 10  1  0
  9 13  1  0
 10 11  2  0
 11 12  1  0
 12 13  2  0
 13 14  1  0
 14 15  1  0
 14 16  2  0
M  END
