
     RDKit          3D

 16 18  0  0  0  0  0  0  0  0999 V2000
    3.3670   -0.7420   -0.2620 C   0  0  0  0  0  0  0  0  0  0  0  0
    1.9190   -1.0410   -0.1920 C   0  0  0  0  0  0  0  0  0  0  0  0
    0.9230   -0.1850   -0.0730 C   0  0  0  0  0  0  0  0  0  0  0  0
    1.1810    1.2690    0.0090 C   0  0  0  0  0  0  0  0  0  0  0  0
    2.3190    2.0350   -0.0090 C   0  0  0  0  0  0  0  0  0  0  0  0
    1.9210    3.3360    0.1020 N   0  0  0  0  0  0  0  0  0  0  0  0
    0.6210    3.3720    0.1840 N   0  0  0  0  0  0  0  0  0  0  0  0
    0.1160    2.1010    0.1290 C   0  0  0  0  0  0  0  0  0  0  0  0
   -1.2820    1.7160    0.1880 C   0  0  0  0  0  0  0  0  0  0  0  0
   -1.4850    0.2850    0.1050 C   0  0  0  0  0  0  0  0  0  0  0  0
   -2.6690   -0.4530    0.1290 C   0  0  0  0  0  0  0  0  0  0  0  0
   -4.0560    0.1000    0.2500 C   0  0  0  0  0  0  0  0  0  0  0  0
   -2.3360   -1.7250    0.0240 N   0  0  0  0  0  0  0  0  0  0  0  0
   -0.9930   -1.8780   -0.0680 N   0  0  0  0  0  0  0  0  0  0  0  0
   -0.3530   -3.1650   -0.1930 C   0  0  0  0  0  0  0  0  0  0  0  0
   -0.4670   -0.6660   -0.0200 C   0  0  0  0  0  0  0  0  0  0  0  0
  1  2  1  0
  2  3  2  3
  3  4  1  0
  3 16  1  0
  4  5  2  0
  4  8  1  0
  5  6  1  0
  6  7  1  0
  7  8  2  0
  8  9  1  0
  9 10  1  0
 10 11  1  0
 10 16  2  0
 11 12  1  0
 11 13  2  0
 13 14  1  0
 14 15  1  0
 14 16  1  0
M  END
