
     RDKit          3D

 16 18  0  0  0  0  0  0  0  0999 V2000
   -1.4440    0.4640    2.8960 C   0  0  0  0  0  0  0  0  0  0  0  0
   -1.7250    0.1850    1.6390 C   0  0  0  0  0  0  0  0  0  0  0  0
   -3.0430    0.3200    0.9500 C   0  0  0  0  0  0  0  0  0  0  0  0
   -2.6910    0.1610   -0.4420 N   0  0  0  0  0  0  0  0  0  0  0  0
   -3.5680    0.4620   -1.5440 C   0  0  0  0  0  0  0  0  0  0  0  0
   -1.3560   -0.3340   -0.5570 C   0  0  0  0  0  0  0  0  0  0  0  0
   -0.8070   -0.3180    0.6440 C   0  0  0  0  0  0  0  0  0  0  0  0
    0.5970   -0.7910    0.7920 C   0  0  0  0  0  0  0  0  0  0  0  0
    1.3980   -0.3010   -0.3050 N   0  0  0  0  0  0  0  0  0  0  0  0
    2.7620    0.0200   -0.1280 C   0  0  0  0  0  0  0  0  0  0  0  0
    3.6640    0.5020   -1.0750 C   0  0  0  0  0  0  0  0  0  0  0  0
    4.8640    0.6670   -0.4580 N   0  0  0  0  0  0  0  0  0  0  0  0
    4.7130    0.3020    0.8250 C   0  0  0  0  0  0  0  0  0  0  0  0
    3.4430   -0.0890    1.0240 N   0  0  0  0  0  0  0  0  0  0  0  0
    0.8050   -0.1350   -1.6060 C   0  0  0  0  0  0  0  0  0  0  0  0
   -0.5410   -0.8290   -1.7120 C   0  0  0  0  0  0  0  0  0  0  0  0
  1  2  2  0
  2  3  1  0
  2  7  1  0
  3  4  1  0
  4  5  1  0
  4  6  1  0
  6  7  2  0
  6 16  1  0
  7  8  1  0
  8  9  1  0
  9 10  1  0
  9 15  1  0
 10 11  2  0
 10 14  1  0
 11 12  1  0
 12 13  2  0
 13 14  1  0
 15 16  1  0
M  END
