
     RDKit          3D

 16 18  0  0  0  0  0  0  0  0999 V2000
   -4.1230   -0.2660    0.3370 C   0  0  0  0  0  0  0  0  0  0  0  0
   -2.6760   -0.4380    0.2580 C   0  0  0  0  0  0  0  0  0  0  0  0
   -2.0660   -1.6610    0.3890 C   0  0  0  0  0  0  0  0  0  0  0  0
   -0.6830   -1.7690    0.3050 C   0  0  0  0  0  0  0  0  0  0  0  0
    0.1280   -2.8350    0.3990 N   0  0  0  0  0  0  0  0  0  0  0  0
    1.3370   -2.4100    0.2520 N   0  0  0  0  0  0  0  0  0  0  0  0
    1.3780   -1.0480    0.0540 C   0  0  0  0  0  0  0  0  0  0  0  0
    2.6080   -0.2940   -0.1430 C   0  0  0  0  0  0  0  0  0  0  0  0
    2.8850    1.0200   -0.3510 C   0  0  0  0  0  0  0  0  0  0  0  0
    4.2630    1.2200   -0.4780 C   0  0  0  0  0  0  0  0  0  0  0  0
    4.8340    0.0150   -0.3470 N   0  0  0  0  0  0  0  0  0  0  0  0
    3.8790   -0.8990   -0.1470 C   0  0  0  0  0  0  0  0  0  0  0  0
    0.1060   -0.6830    0.0930 N   0  0  0  0  0  0  0  0  0  0  0  0
   -0.4780    0.5310   -0.0390 C   0  0  0  0  0  0  0  0  0  0  0  0
   -1.8640    0.6440    0.0440 C   0  0  0  0  0  0  0  0  0  0  0  0
   -2.4660    1.9730   -0.1030 C   0  0  0  0  0  0  0  0  0  0  0  0
  1  2  1  0
  2  3  2  0
  2 15  1  0
  3  4  1  0
  4  5  2  0
  4 13  1  0
  5  6  1  0
  6  7  2  0
  7  8  1  0
  7 13  1  0
  8  9  1  0
  8 12  2  0
  9 10  2  0
 10 11  1  0
 11 12  1  0
 13 14  1  0
 14 15  2  0
 15 16  1  0
M  END
