
     RDKit          3D

 20 22  0  0  0  0  0  0  0  0999 V2000
    5.6740   -0.6390   -0.0700 C   0  0  0  0  0  0  0  0  0  0  0  0
    4.3410   -0.2900    0.2310 O   0  0  0  0  0  0  0  0  0  0  0  0
    3.4960    0.1730   -0.7700 C   0  0  0  0  0  0  0  0  0  0  0  0
    3.9550    0.2650   -1.9190 O   0  0  0  0  0  0  0  0  0  0  0  0
    2.1310    0.5170   -0.3920 C   0  0  0  0  0  0  0  0  0  0  0  0
    1.1440   -0.4200   -0.4350 C   0  0  0  0  0  0  0  0  0  0  0  0
    1.3680   -1.8160   -0.8550 C   0  0  0  0  0  0  0  0  0  0  0  0
   -0.1300   -0.0430   -0.0670 C   0  0  0  0  0  0  0  0  0  0  0  0
   -1.1410   -0.9820   -0.1060 C   0  0  0  0  0  0  0  0  0  0  0  0
   -2.4420   -0.6720    0.2500 C   0  0  0  0  0  0  0  0  0  0  0  0
   -2.6890    0.6260    0.6490 C   0  0  0  0  0  0  0  0  0  0  0  0
   -1.6900    1.5750    0.6930 C   0  0  0  0  0  0  0  0  0  0  0  0
   -0.3930    1.2640    0.3380 C   0  0  0  0  0  0  0  0  0  0  0  0
    0.5930    2.1770    0.3750 N   0  0  0  0  0  0  0  0  0  0  0  0
    1.8330    1.7980    0.0130 C   0  0  0  0  0  0  0  0  0  0  0  0
    2.7520    2.6450    0.0470 O   0  0  0  0  0  0  0  0  0  0  0  0
   -3.9860    0.9470    1.0080 O   0  0  0  0  0  0  0  0  0  0  0  0
   -5.0590    0.0330    0.9970 C   0  0  0  0  0  0  0  0  0  0  0  0
   -4.8010   -1.0980    0.0360 C   0  0  0  0  0  0  0  0  0  0  0  0
   -3.4720   -1.5940    0.2200 O   0  0  0  0  0  0  0  0  0  0  0  0
  1  2  1  0
  2  3  1  0
  3  4  2  0
  3  5  1  0
  5  6  2  0
  5 15  1  0
  6  7  1  0
  6  8  1  0
  8  9  2  0
  8 13  1  0
  9 10  1  0
 10 11  2  0
 10 20  1  0
 11 12  1  0
 11 17  1  0
 12 13  2  0
 13 14  1  0
 14 15  1  0
 15 16  2  0
 17 18  1  0
 18 19  1  0
 19 20  1  0
M  END
