
     RDKit          3D

 20 22  0  0  0  0  0  0  0  0999 V2000
   -0.4890   -1.4630    1.6510 O   0  0  0  0  0  0  0  0  0  0  0  0
    0.4120   -0.8890    0.7610 C   0  0  2  0  0  0  0  0  0  0  0  0
    1.7200   -0.5360    1.4350 C   0  0  0  0  0  0  0  0  0  0  0  0
    2.3270    0.3280    0.4560 N   0  0  0  0  0  0  0  0  0  0  0  0
    3.7260    0.5000    0.1420 C   0  0  0  0  0  0  0  0  0  0  0  0
    4.4660   -0.5580   -0.0610 C   0  0  0  0  0  0  0  0  0  0  0  0
    5.9070   -0.6210   -0.3920 C   0  0  0  0  0  0  0  0  0  0  0  0
    6.6520    1.0040   -0.5110 S   0  0  0  0  0  0  0  0  0  0  0  0
    5.3670    2.1950   -0.1800 C   0  0  0  0  0  0  0  0  0  0  0  0
    4.1840    1.8380    0.0790 N   0  0  0  0  0  0  0  0  0  0  0  0
    1.2790    1.0540   -0.2220 C   0  0  0  0  0  0  0  0  0  0  0  0
   -0.0250    0.4550    0.2570 C   0  0  1  0  0  0  0  0  0  0  0  0
   -0.9840    0.3850   -0.8940 C   0  0  0  0  0  0  0  0  0  0  0  0
   -2.1990   -0.3050   -0.5960 N   0  0  0  0  0  0  0  0  0  0  0  0
   -3.1300    0.4850    0.1810 C   0  0  0  0  0  0  0  0  0  0  0  0
   -4.4800   -0.0980   -0.0320 C   0  0  0  0  0  0  0  0  0  0  0  0
   -5.1350   -1.0810    0.6670 C   0  0  0  0  0  0  0  0  0  0  0  0
   -6.3580   -1.2900    0.1100 N   0  0  0  0  0  0  0  0  0  0  0  0
   -6.4940   -0.4770   -0.9090 N   0  0  0  0  0  0  0  0  0  0  0  0
   -5.3710    0.2790   -1.0420 C   0  0  0  0  0  0  0  0  0  0  0  0
  2  1  1  1
  2  3  1  0
  2 12  1  0
  3  4  1  0
  4  5  1  0
  4 11  1  0
  5  6  2  0
  5 10  1  0
  6  7  1  0
  7  8  1  0
  8  9  1  0
  9 10  2  0
 11 12  1  0
 12 13  1  6
 13 14  1  0
 14 15  1  0
 15 16  1  0
 16 17  1  0
 16 20  2  0
 17 18  2  0
 18 19  1  0
 19 20  1  0
M  CHG  1  14   1
M  END
