
     RDKit          3D

 20 22  0  0  0  0  0  0  0  0999 V2000
   -1.8330    2.0770   -1.5750 C   0  0  0  0  0  0  0  0  0  0  0  0
   -2.6870    1.4100   -0.5570 C   0  0  0  0  0  0  0  0  0  0  0  0
   -3.7960    1.9430   -0.0190 N   0  0  0  0  0  0  0  0  0  0  0  0
   -4.3060    1.0900    0.8450 N   0  0  0  0  0  0  0  0  0  0  0  0
   -3.5400   -0.0450    0.9040 C   0  0  0  0  0  0  0  0  0  0  0  0
   -3.7690   -1.2000    1.7590 C   0  0  0  0  0  0  0  0  0  0  0  0
   -2.5230    0.1410    0.0310 C   0  0  0  0  0  0  0  0  0  0  0  0
   -1.3700   -0.6900   -0.3400 C   0  0  2  0  0  0  0  0  0  0  0  0
   -1.4150   -2.1190   -0.0140 C   0  0  0  0  0  0  0  0  0  0  0  0
   -2.5590   -2.6800   -0.6420 O   0  0  0  0  0  0  0  0  0  0  0  0
   -0.1460   -0.1490    0.3070 N   0  0  0  0  0  0  0  0  0  0  0  0
    1.0580   -0.5210   -0.4080 C   0  0  2  0  0  0  0  0  0  0  0  0
    1.9730   -1.2080    0.5610 C   0  0  0  0  0  0  0  0  0  0  0  0
    3.7200   -1.0880    0.2400 S   0  0  0  0  0  0  0  0  0  0  0  0
    4.3530    0.4890    0.8600 C   0  0  1  0  0  0  0  0  0  0  0  0
    5.2350    1.0570   -0.2660 C   0  0  0  0  0  0  0  0  0  0  0  0
    4.1680    1.3350   -1.2340 N   0  0  0  0  0  0  0  0  0  0  0  0
    2.9200    1.1220   -0.5580 C   0  0  0  0  0  0  0  0  0  0  0  0
    3.2150    1.4260    0.6930 N   0  0  0  0  0  0  0  0  0  0  0  0
    1.6490    0.6650   -1.1100 C   0  0  0  0  0  0  0  0  0  0  0  0
  1  2  1  0
  2  3  2  0
  2  7  1  0
  3  4  1  0
  4  5  1  0
  5  6  1  0
  5  7  2  0
  7  8  1  0
  8  9  1  1
  8 11  1  0
  9 10  1  0
 12 11  1  1
 12 13  1  0
 12 20  1  0
 13 14  1  0
 14 15  1  0
 15 16  1  6
 15 19  1  0
 16 17  1  0
 17 18  1  0
 18 19  2  0
 18 20  1  0
M  CHG  1  11   1
M  END
