
     RDKit          3D

 21 23  0  0  0  0  0  0  0  0999 V2000
   -5.7030   -2.0330    0.5020 O   0  0  0  0  0  0  0  0  0  0  0  0
   -4.4890   -1.7080    0.3590 C   0  0  0  0  0  0  0  0  0  0  0  0
   -3.6090   -2.6750    0.2080 O   0  0  0  0  0  0  0  0  0  0  0  0
   -2.3300   -2.3610    0.0570 C   0  0  0  0  0  0  0  0  0  0  0  0
   -1.4650   -3.2570   -0.0900 O   0  0  0  0  0  0  0  0  0  0  0  0
   -1.9200   -1.0430    0.0570 C   0  0  0  0  0  0  0  0  0  0  0  0
   -0.6010   -0.6850   -0.0970 C   0  0  0  0  0  0  0  0  0  0  0  0
   -0.1890    0.6410   -0.0970 C   0  0  0  0  0  0  0  0  0  0  0  0
    1.1090    1.0450   -0.2470 O   0  0  0  0  0  0  0  0  0  0  0  0
    2.1940    0.2340   -0.4180 C   0  0  0  0  0  0  0  0  0  0  0  0
    2.5830   -0.1230   -1.7020 C   0  0  0  0  0  0  0  0  0  0  0  0
    3.6650   -0.9360   -1.9570 C   0  0  0  0  0  0  0  0  0  0  0  0
    4.3880   -1.4140   -0.9260 N   0  0  0  0  0  0  0  0  0  0  0  0
    4.0300   -1.0810    0.3340 C   0  0  0  0  0  0  0  0  0  0  0  0
    2.9560   -0.2720    0.6190 C   0  0  0  0  0  0  0  0  0  0  0  0
   -1.1810    1.5850    0.0680 C   0  0  0  0  0  0  0  0  0  0  0  0
   -0.7840    3.0220    0.0750 C   0  0  0  0  0  0  0  0  0  0  0  0
   -1.8890    3.8510    0.2500 O   0  0  0  0  0  0  0  0  0  0  0  0
   -2.5090    1.2560    0.2250 C   0  0  0  0  0  0  0  0  0  0  0  0
   -2.8710   -0.0750    0.2180 C   0  0  0  0  0  0  0  0  0  0  0  0
   -4.1290   -0.4380    0.3640 O   0  0  0  0  0  0  0  0  0  0  0  0
  1  2  2  0
  2  3  1  0
  2 21  1  0
  3  4  1  0
  4  5  2  0
  4  6  1  0
  6  7  2  0
  6 20  1  0
  7  8  1  0
  8  9  1  0
  8 16  2  0
  9 10  1  0
 10 11  2  0
 10 15  1  0
 11 12  1  0
 12 13  2  0
 13 14  1  0
 14 15  2  0
 16 17  1  0
 16 19  1  0
 17 18  1  0
 19 20  2  0
 20 21  1  0
M  CHG  1  13   1
M  END
