
     RDKit          3D

 16 16  0  0  0  0  0  0  0  0999 V2000
    3.4460   -1.7990   -0.4590 N   0  0  0  0  0  0  0  0  0  0  0  0
    2.7690   -0.4800   -0.3620 C   0  0  2  0  0  0  0  0  0  0  0  0
    3.5900    0.4560    0.4680 C   0  0  0  0  0  0  0  0  0  0  0  0
    4.8660    0.5830   -0.1440 O   0  0  0  0  0  0  0  0  0  0  0  0
    1.4090   -0.8010    0.1920 C   0  0  0  0  0  0  0  0  0  0  0  0
    0.5690    0.3760    0.3650 C   0  0  0  0  0  0  0  0  0  0  0  0
    1.0110    1.2750    1.0970 O   0  0  0  0  0  0  0  0  0  0  0  0
   -0.7520    0.6270   -0.2300 C   0  0  1  0  0  0  0  0  0  0  0  0
   -1.7600   -0.3740    0.2180 C   0  0  2  0  0  0  0  0  0  0  0  0
   -1.3710   -1.6390   -0.1440 O   0  0  0  0  0  0  0  0  0  0  0  0
   -3.1400   -0.0470   -0.3220 C   0  0  0  0  0  0  0  0  0  0  0  0
   -4.1230   -0.9790    0.1840 N   0  0  0  0  0  0  0  0  0  0  0  0
   -1.2030    2.0240    0.0520 C   0  0  0  0  0  0  0  0  0  0  0  0
   -1.6190    2.5280   -1.1400 O   0  0  0  0  0  0  0  0  0  0  0  0
   -1.5830    1.6430   -2.0650 O   0  0  0  0  0  0  0  0  0  0  0  0
   -0.7290    0.6290   -1.7390 C   0  0  0  0  0  0  0  0  0  0  0  0
  2  1  1  1
  2  3  1  0
  2  5  1  0
  3  4  1  0
  5  6  1  0
  6  7  2  0
  8  6  1  1
  8  9  1  0
  8 13  1  0
  8 16  1  0
  9 10  1  6
  9 11  1  0
 11 12  1  0
 13 14  1  0
 14 15  1  0
 15 16  1  0
M  CHG  1  12   1
M  END
