
     RDKit          3D

 16 16  0  0  0  0  0  0  0  0999 V2000
    4.1970    1.1280   -0.3580 N   0  0  0  0  0  0  0  0  0  0  0  0
    3.8230    0.0580    0.4900 C   0  0  0  0  0  0  0  0  0  0  0  0
    4.4880   -0.2290    1.5170 O   0  0  0  0  0  0  0  0  0  0  0  0
    2.6100   -0.7440    0.1500 C   0  0  1  0  0  0  0  0  0  0  0  0
    2.3910   -1.7490    1.0830 O   0  0  0  0  0  0  0  0  0  0  0  0
    1.3920    0.2150    0.1980 C   0  0  1  0  0  0  0  0  0  0  0  0
    1.7300    1.1690   -0.7730 O   0  0  0  0  0  0  0  0  0  0  0  0
    0.2340   -0.6390   -0.1590 C   0  0  0  0  0  0  0  0  0  0  0  0
   -1.1150   -0.0690   -0.2020 C   0  0  1  0  0  0  0  0  0  0  0  0
   -1.4260    1.0430   -1.1180 C   0  0  0  0  0  0  0  0  0  0  0  0
   -0.9370    2.3400   -0.7950 N   0  0  0  0  0  0  0  0  0  0  0  0
   -2.0220   -1.2280   -0.7170 C   0  0  0  0  0  0  0  0  0  0  0  0
   -2.1160   -2.2280    0.2440 O   0  0  0  0  0  0  0  0  0  0  0  0
   -3.0470   -1.7460    1.1940 C   0  0  0  0  0  0  0  0  0  0  0  0
   -2.8950   -0.2440    1.2800 C   0  0  0  0  0  0  0  0  0  0  0  0
   -1.5890    0.1700    1.0840 O   0  0  0  0  0  0  0  0  0  0  0  0
  1  2  1  0
  2  3  2  0
  2  4  1  0
  4  5  1  1
  4  6  1  0
  6  7  1  6
  6  8  1  0
  9  8  1  1
  9 10  1  0
  9 12  1  0
  9 16  1  0
 10 11  1  0
 12 13  1  0
 13 14  1  0
 14 15  1  0
 15 16  1  0
M  CHG  1  11   1
M  END
