
     RDKit          3D

 24 27  0  0  0  0  0  0  0  0999 V2000
    5.7340    1.5110   -0.0570 C   0  0  0  0  0  0  0  0  0  0  0  0
    4.4100    1.0560   -0.1050 O   0  0  0  0  0  0  0  0  0  0  0  0
    4.1040   -0.2540   -0.2860 C   0  0  0  0  0  0  0  0  0  0  0  0
    5.1590   -1.0120   -0.4050 O   0  0  0  0  0  0  0  0  0  0  0  0
    2.8210   -0.8990   -0.3610 C   0  0  0  0  0  0  0  0  0  0  0  0
    2.7930   -2.2550   -0.5510 N   0  0  0  0  0  0  0  0  0  0  0  0
    1.6350   -2.9140   -0.6300 C   0  0  0  0  0  0  0  0  0  0  0  0
    1.6220   -4.1490   -0.8030 O   0  0  0  0  0  0  0  0  0  0  0  0
    0.4140   -2.2570   -0.5230 C   0  0  0  0  0  0  0  0  0  0  0  0
    0.4090   -0.9160   -0.3350 C   0  0  0  0  0  0  0  0  0  0  0  0
    1.6290   -0.2260   -0.2520 C   0  0  0  0  0  0  0  0  0  0  0  0
    1.6020    1.1330   -0.0610 C   0  0  0  0  0  0  0  0  0  0  0  0
    0.4240    1.8100    0.0480 C   0  0  0  0  0  0  0  0  0  0  0  0
   -0.7630    1.1320   -0.0330 C   0  0  0  0  0  0  0  0  0  0  0  0
   -1.9740    1.7770    0.0720 C   0  0  0  0  0  0  0  0  0  0  0  0
   -3.2160    1.1240   -0.0050 C   0  0  0  0  0  0  0  0  0  0  0  0
   -3.1960   -0.2110   -0.1930 C   0  0  0  0  0  0  0  0  0  0  0  0
   -1.9800   -0.9200   -0.3070 C   0  0  0  0  0  0  0  0  0  0  0  0
   -0.7890   -0.2390   -0.2260 C   0  0  0  0  0  0  0  0  0  0  0  0
   -4.5660   -0.8470   -0.2810 C   0  0  0  0  0  0  0  0  0  0  0  0
   -5.5220    0.3880    0.5590 S   0  0  2  0  0  0  0  0  0  0  0  0
   -5.5330    0.1960    2.0410 O   0  0  0  0  0  0  0  0  0  0  0  0
   -6.8850    0.5400   -0.0270 O   0  0  0  0  0  0  0  0  0  0  0  0
   -4.4980    1.7350    0.1060 N   0  0  0  0  0  0  0  0  0  0  0  0
  1  2  1  0
  2  3  1  0
  3  4  2  0
  3  5  1  0
  5  6  1  0
  5 11  2  0
  6  7  1  0
  7  8  2  0
  7  9  1  0
  9 10  2  0
 10 11  1  0
 10 19  1  0
 11 12  1  0
 12 13  2  0
 13 14  1  0
 14 15  2  0
 14 19  1  0
 15 16  1  0
 16 17  2  0
 16 24  1  0
 17 18  1  0
 17 20  1  0
 18 19  2  0
 21 20  1  6
 21 22  2  0
 21 23  2  0
 21 24  1  0
M  END
