
     RDKit          3D

 15 15  0  0  0  0  0  0  0  0999 V2000
    0.7070   -2.0070    1.0160 C   0  0  0  0  0  0  0  0  0  0  0  0
    0.6300   -0.7290    0.1460 C   0  0  1  0  0  0  0  0  0  0  0  0
    1.8900   -0.0060    0.4510 C   0  0  0  0  0  0  0  0  0  0  0  0
    2.1260    1.2550   -0.2220 C   0  0  0  0  0  0  0  0  0  0  0  0
    3.3600    1.9320    0.1150 N   0  0  0  0  0  0  0  0  0  0  0  0
    1.4230    1.8460   -1.0510 O   0  0  0  0  0  0  0  0  0  0  0  0
    0.6030   -1.2830   -1.2700 C   0  0  0  0  0  0  0  0  0  0  0  0
   -0.7420   -1.9450   -1.4360 C   0  0  0  0  0  0  0  0  0  0  0  0
   -0.8840   -3.1590   -1.6400 O   0  0  0  0  0  0  0  0  0  0  0  0
   -1.8180   -1.0410   -1.3340 O   0  0  0  0  0  0  0  0  0  0  0  0
   -1.5710    0.1700   -0.6500 C   0  0  1  0  0  0  0  0  0  0  0  0
   -2.8970    0.6550   -0.0970 C   0  0  0  0  0  0  0  0  0  0  0  0
   -3.8240    0.8730   -1.1130 O   0  0  0  0  0  0  0  0  0  0  0  0
   -0.6400   -0.0500    0.5430 C   0  0  2  0  0  0  0  0  0  0  0  0
   -0.5000    1.2230    1.1780 N   0  0  0  0  0  0  0  0  0  0  0  0
  2  1  1  1
  2  3  1  0
  2  7  1  0
  2 14  1  0
  3  4  1  0
  4  5  1  0
  4  6  2  0
  7  8  1  0
  8  9  2  0
  8 10  1  0
 10 11  1  0
 11 12  1  1
 11 14  1  0
 12 13  1  0
 14 15  1  6
M  CHG  1  15   1
M  END
