
     RDKit          3D

 15 15  0  0  0  0  0  0  0  0999 V2000
   -4.1160   -0.5410    0.2700 N   0  0  0  0  0  0  0  0  0  0  0  0
   -2.7740   -0.5420    0.8280 C   0  0  2  0  0  0  0  0  0  0  0  0
   -2.6990    0.6170    1.7850 C   0  0  0  0  0  0  0  0  0  0  0  0
   -2.9470    1.7940    1.0990 O   0  0  0  0  0  0  0  0  0  0  0  0
   -1.8110   -0.4230   -0.3220 C   0  0  2  0  0  0  0  0  0  0  0  0
   -2.0310   -1.5700   -1.1880 N   0  0  0  0  0  0  0  0  0  0  0  0
   -0.3680   -0.4680    0.1110 C   0  0  1  0  0  0  0  0  0  0  0  0
   -0.1230   -1.6680    0.8030 O   0  0  0  0  0  0  0  0  0  0  0  0
    0.4810   -0.4250   -1.1410 C   0  0  0  0  0  0  0  0  0  0  0  0
    1.8300   -0.4870   -0.9210 O   0  0  0  0  0  0  0  0  0  0  0  0
    2.3680    0.5200   -0.1650 C   0  0  1  0  0  0  0  0  0  0  0  0
    3.0790    0.0040    1.0690 C   0  0  0  0  0  0  0  0  0  0  0  0
    4.1910    0.9790    1.2440 C   0  0  0  0  0  0  0  0  0  0  0  0
    4.3530    1.7020    0.0990 O   0  0  0  0  0  0  0  0  0  0  0  0
    3.4920    1.2530   -0.8630 C   0  0  0  0  0  0  0  0  0  0  0  0
  2  1  1  6
  2  3  1  0
  2  5  1  0
  3  4  1  0
  5  6  1  6
  5  7  1  0
  7  8  1  6
  7  9  1  0
  9 10  1  0
 11 10  1  6
 11 12  1  0
 11 15  1  0
 12 13  1  0
 13 14  1  0
 14 15  1  0
M  CHG  1   6   1
M  END
