
     RDKit          3D

 15 15  0  0  0  0  0  0  0  0999 V2000
   -1.1280    1.2160   -1.2570 N   0  0  0  0  0  0  0  0  0  0  0  0
   -1.0710    0.1040   -0.3510 C   0  0  1  0  0  0  0  0  0  0  0  0
   -2.1800    0.1400    0.6340 C   0  0  0  0  0  0  0  0  0  0  0  0
   -2.2810   -0.7710    1.4950 O   0  0  0  0  0  0  0  0  0  0  0  0
   -3.1560    1.1740    0.6550 N   0  0  0  0  0  0  0  0  0  0  0  0
   -4.1700    1.2190    1.5440 O   0  0  0  0  0  0  0  0  0  0  0  0
   -1.2410   -1.1560   -1.1790 C   0  0  0  0  0  0  0  0  0  0  0  0
    0.0930   -1.8740   -1.1390 C   0  0  0  0  0  0  0  0  0  0  0  0
    1.0610   -0.9330   -1.4850 O   0  0  0  0  0  0  0  0  0  0  0  0
    1.4300   -0.2390   -0.3350 C   0  0  2  0  0  0  0  0  0  0  0  0
    2.1470    1.0650   -0.6660 C   0  0  0  0  0  0  0  0  0  0  0  0
    2.4580    1.6540    0.5810 O   0  0  0  0  0  0  0  0  0  0  0  0
    2.4320   -1.0930    0.3970 C   0  0  0  0  0  0  0  0  0  0  0  0
    2.8820   -0.5120    1.5690 O   0  0  0  0  0  0  0  0  0  0  0  0
    0.2130    0.0880    0.4560 C   0  0  0  0  0  0  0  0  0  0  0  0
  2  1  1  6
  2  3  1  0
  2  7  1  0
  2 15  1  0
  3  4  2  0
  3  5  1  0
  5  6  1  0
  7  8  1  0
  8  9  1  0
  9 10  1  0
 10 11  1  6
 10 13  1  0
 10 15  1  0
 11 12  1  0
 13 14  1  0
M  CHG  1   1   1
M  END
