
     RDKit          3D

 16 16  0  0  0  0  0  0  0  0999 V2000
    2.5320   -0.5950   -1.3580 C   0  0  0  0  0  0  0  0  0  0  0  0
    1.5860   -0.0510   -0.3210 C   0  0  1  0  0  0  0  0  0  0  0  0
    2.3300    0.5210    0.8250 C   0  0  0  0  0  0  0  0  0  0  0  0
    3.2120   -0.3220    1.5460 N   0  0  0  0  0  0  0  0  0  0  0  0
    2.2230    1.7170    1.1940 O   0  0  0  0  0  0  0  0  0  0  0  0
    0.7670    0.9200   -0.9110 O   0  0  0  0  0  0  0  0  0  0  0  0
   -0.3280    1.0690   -0.0600 C   0  0  1  0  0  0  0  0  0  0  0  0
   -0.9010    2.4370   -0.2120 C   0  0  0  0  0  0  0  0  0  0  0  0
   -1.8990    2.7760    0.4710 O   0  0  0  0  0  0  0  0  0  0  0  0
   -0.3720    3.3650   -1.0860 O   0  0  0  0  0  0  0  0  0  0  0  0
   -1.3360   -0.0100   -0.3780 C   0  0  2  0  0  0  0  0  0  0  0  0
   -2.2810   -0.2050    0.8060 C   0  0  0  0  0  0  0  0  0  0  0  0
   -3.2240   -1.2570    0.4310 N   0  0  0  0  0  0  0  0  0  0  0  0
   -0.6030   -1.2960   -0.5920 C   0  0  0  0  0  0  0  0  0  0  0  0
    0.7120   -1.2000    0.1240 C   0  0  0  0  0  0  0  0  0  0  0  0
    1.0580   -1.9730    0.9890 O   0  0  0  0  0  0  0  0  0  0  0  0
  2  1  1  6
  2  3  1  0
  2  6  1  0
  2 15  1  0
  3  4  1  0
  3  5  2  0
  6  7  1  0
  7  8  1  6
  7 11  1  0
  8  9  2  0
  8 10  1  0
 11 12  1  1
 11 14  1  0
 12 13  1  0
 14 15  1  0
 15 16  2  0
M  CHG  1  13   1
M  END
