
     RDKit          3D

 16 16  0  0  0  0  0  0  0  0999 V2000
   -1.2510   -0.9880   -1.7020 C   0  0  0  0  0  0  0  0  0  0  0  0
   -1.3800    0.0880   -0.7140 C   0  0  2  0  0  0  0  0  0  0  0  0
   -2.7170   -0.1200    0.0270 C   0  0  0  0  0  0  0  0  0  0  0  0
   -1.4440    1.3950   -1.2310 O   0  0  0  0  0  0  0  0  0  0  0  0
   -1.3350    2.2110   -0.0870 C   0  0  0  0  0  0  0  0  0  0  0  0
   -1.5920    3.4510   -0.0140 O   0  0  0  0  0  0  0  0  0  0  0  0
   -0.8850    1.4250    0.9960 N   0  0  0  0  0  0  0  0  0  0  0  0
   -0.3530    0.1980    0.3450 C   0  0  1  0  0  0  0  0  0  0  0  0
   -0.4470   -0.8340    1.3920 C   0  0  0  0  0  0  0  0  0  0  0  0
   -0.8300   -0.5620    2.5930 O   0  0  0  0  0  0  0  0  0  0  0  0
   -0.1530   -2.1830    1.2360 O   0  0  0  0  0  0  0  0  0  0  0  0
    1.0100    0.6210   -0.0610 C   0  0  2  0  0  0  0  0  0  0  0  0
    1.7180    1.1910    1.1480 C   0  0  0  0  0  0  0  0  0  0  0  0
    0.8810    1.7610   -0.9420 O   0  0  0  0  0  0  0  0  0  0  0  0
    1.9060   -0.2650   -0.7990 C   0  0  0  0  0  0  0  0  0  0  0  0
    2.3240   -1.4990   -0.2440 N   0  0  0  0  0  0  0  0  0  0  0  0
  2  1  1  6
  2  3  1  0
  2  4  1  0
  2  8  1  0
  4  5  1  0
  5  6  2  0
  5  7  1  0
  7  8  1  0
  8  9  1  1
  8 12  1  0
  9 10  2  0
  9 11  1  0
 12 13  1  1
 12 14  1  0
 12 15  1  0
 15 16  1  0
M  CHG  1  16   1
M  END
