
     RDKit          3D

 28 31  0  0  0  0  0  0  0  0999 V2000
    0.2990    0.4520    1.7380 O   0  0  0  0  0  0  0  0  0  0  0  0
   -0.2170    1.5400    1.3770 C   0  0  0  0  0  0  0  0  0  0  0  0
    0.5570    2.4780    0.4830 C   0  0  0  0  0  0  0  0  0  0  0  0
    1.8110    1.9220    0.2190 O   0  0  0  0  0  0  0  0  0  0  0  0
    1.9880    0.7060   -0.3980 C   0  0  0  0  0  0  0  0  0  0  0  0
    0.9980    0.0340   -0.7590 O   0  0  0  0  0  0  0  0  0  0  0  0
    3.3680    0.2270   -0.6160 C   0  0  0  0  0  0  0  0  0  0  0  0
    3.6160   -0.9870   -1.2250 C   0  0  0  0  0  0  0  0  0  0  0  0
    4.9260   -1.4130   -1.4130 C   0  0  0  0  0  0  0  0  0  0  0  0
    6.0070   -0.6630   -1.0120 C   0  0  0  0  0  0  0  0  0  0  0  0
    5.7560    0.5540   -0.4020 C   0  0  0  0  0  0  0  0  0  0  0  0
    4.4540    0.9720   -0.2170 C   0  0  0  0  0  0  0  0  0  0  0  0
    7.0880    1.1300   -0.0820 C   0  0  0  0  0  0  0  0  0  0  0  0
    7.9940    0.4800   -0.9010 O   0  0  0  0  0  0  0  0  0  0  0  0
    7.4840   -0.8290   -1.0670 C   0  0  0  0  0  0  0  0  0  0  0  0
   -1.5230    1.8340    1.8380 N   0  0  0  0  0  0  0  0  0  0  0  0
   -2.3200    0.9970    2.6820 C   0  0  0  0  0  0  0  0  0  0  0  0
   -2.9050   -0.1280    1.8370 C   0  0  0  0  0  0  0  0  0  0  0  0
   -2.2330   -1.3120    1.7290 C   0  0  0  0  0  0  0  0  0  0  0  0
   -3.3650   -2.2600    0.6290 S   0  0  0  0  0  0  0  0  0  0  0  0
   -4.5560   -0.8670    0.5130 C   0  0  0  0  0  0  0  0  0  0  0  0
   -5.7840   -1.0780   -0.3210 C   0  0  0  0  0  0  0  0  0  0  0  0
   -6.6860   -0.1560   -0.4600 C   0  0  0  0  0  0  0  0  0  0  0  0
   -7.7990   -0.6520   -1.3490 C   0  0  0  0  0  0  0  0  0  0  0  0
   -7.3460   -2.0210   -1.6780 C   0  0  0  0  0  0  0  0  0  0  0  0
   -6.1800   -2.2390   -1.0700 C   0  0  0  0  0  0  0  0  0  0  0  0
   -5.2290   -3.8700   -1.2130 Br  0  0  0  0  0  0  0  0  0  0  0  0
   -4.0410   -0.0560    1.1790 N   0  0  0  0  0  0  0  0  0  0  0  0
  1  2  2  0
  2  3  1  0
  2 16  1  0
  3  4  1  0
  4  5  1  0
  5  6  2  0
  5  7  1  0
  7  8  2  0
  7 12  1  0
  8  9  1  0
  9 10  2  0
 10 11  1  0
 10 15  1  0
 11 12  2  0
 11 13  1  0
 13 14  1  0
 14 15  1  0
 16 17  1  0
 17 18  1  0
 18 19  2  0
 18 28  1  0
 19 20  1  0
 20 21  1  0
 21 22  1  0
 21 28  2  0
 22 23  2  0
 22 26  1  0
 23 24  1  0
 24 25  1  0
 25 26  2  0
 26 27  1  0
M  END
