
     RDKit          3D

 27 30  0  0  0  0  0  0  0  0999 V2000
    5.8440    0.6390    2.5850 C   0  0  0  0  0  0  0  0  0  0  0  0
    6.2180    0.4090    1.2410 O   0  0  0  0  0  0  0  0  0  0  0  0
    5.2280    0.2350    0.2910 C   0  0  0  0  0  0  0  0  0  0  0  0
    3.8980    0.2830    0.6480 C   0  0  0  0  0  0  0  0  0  0  0  0
    2.8880    0.1130   -0.2750 C   0  0  0  0  0  0  0  0  0  0  0  0
    1.5060    0.1710    0.1370 C   0  0  0  0  0  0  0  0  0  0  0  0
    1.2220    0.3780    1.3480 O   0  0  0  0  0  0  0  0  0  0  0  0
    0.4090    0.0080   -0.7410 N   0  0  0  0  0  0  0  0  0  0  0  0
   -0.9580    0.0900   -0.1910 C   0  0  0  0  0  0  0  0  0  0  0  0
   -1.5900    0.2430    0.7310 N   0  0  0  0  0  0  0  0  0  0  0  0
   -2.8890    0.2620    0.9110 C   0  0  0  0  0  0  0  0  0  0  0  0
   -3.6150    0.0500   -0.2760 C   0  0  0  0  0  0  0  0  0  0  0  0
   -2.3360   -0.1460   -1.4750 S   0  0  0  0  0  0  0  0  0  0  0  0
   -5.0780    0.0390   -0.2970 C   0  0  0  0  0  0  0  0  0  0  0  0
   -5.5950   -0.8010    0.8310 C   0  0  2  0  0  0  0  0  0  0  0  0
   -7.0250   -0.5270    1.2140 C   0  0  0  0  0  0  0  0  0  0  0  0
   -8.0360   -0.7410    0.1550 C   0  0  0  0  0  0  0  0  0  0  0  0
   -7.7830    0.3890   -1.3650 Br  0  0  0  0  0  0  0  0  0  0  0  0
   -4.7550   -0.7290    2.0890 C   0  0  0  0  0  0  0  0  0  0  0  0
   -3.8100    0.4510    2.0960 C   0  0  0  0  0  0  0  0  0  0  0  0
    3.2790   -0.1090   -1.5780 C   0  0  0  0  0  0  0  0  0  0  0  0
    4.5990   -0.1640   -1.9740 C   0  0  0  0  0  0  0  0  0  0  0  0
    5.5840    0.0100   -1.0240 C   0  0  0  0  0  0  0  0  0  0  0  0
    6.9000   -0.0500   -1.4450 O   0  0  0  0  0  0  0  0  0  0  0  0
    7.3420   -0.5060   -2.6850 C   0  0  0  0  0  0  0  0  0  0  0  0
    6.2470   -1.0120   -3.5830 C   0  0  0  0  0  0  0  0  0  0  0  0
    4.9940   -0.3860   -3.2750 O   0  0  0  0  0  0  0  0  0  0  0  0
  1  2  1  0
  2  3  1  0
  3  4  2  0
  3 23  1  0
  4  5  1  0
  5  6  1  0
  5 21  2  0
  6  7  2  0
  6  8  1  0
  8  9  1  0
  9 10  2  0
  9 13  1  0
 10 11  1  0
 11 12  2  0
 11 20  1  0
 12 13  1  0
 12 14  1  0
 14 15  1  0
 15 16  1  1
 15 19  1  0
 16 17  1  0
 17 18  1  0
 19 20  1  0
 21 22  1  0
 22 23  2  0
 22 27  1  0
 23 24  1  0
 24 25  1  0
 25 26  1  0
 26 27  1  0
M  END
