
     RDKit          3D

 28 31  0  0  0  0  0  0  0  0999 V2000
   -0.1150   -0.8290   -2.0840 C   0  0  0  0  0  0  0  0  0  0  0  0
    0.4580   -0.0540   -0.9150 C   0  0  0  0  0  0  0  0  0  0  0  0
   -0.0600   -0.6630    0.3380 C   0  0  0  0  0  0  0  0  0  0  0  0
    0.6340   -1.3000    1.2300 C   0  0  0  0  0  0  0  0  0  0  0  0
    2.3440   -1.5980    1.1800 S   0  0  0  0  0  0  0  0  0  0  0  0
    3.3670   -0.9480   -0.0570 C   0  0  0  0  0  0  0  0  0  0  0  0
    3.6110   -1.5760   -1.2490 N   0  0  0  0  0  0  0  0  0  0  0  0
    4.4290   -1.0790   -2.1720 C   0  0  0  0  0  0  0  0  0  0  0  0
    4.7140   -2.0310   -3.8200 Br  0  0  0  0  0  0  0  0  0  0  0  0
    5.1120    0.1070   -2.0350 C   0  0  0  0  0  0  0  0  0  0  0  0
    4.9020    0.7890   -0.8420 C   0  0  0  0  0  0  0  0  0  0  0  0
    4.0580    0.2680    0.1000 C   0  0  0  0  0  0  0  0  0  0  0  0
    4.0340    1.1770    1.2180 C   0  0  0  0  0  0  0  0  0  0  0  0
    3.3510    1.0080    2.2790 O   0  0  0  0  0  0  0  0  0  0  0  0
    4.8970    2.2610    0.9050 N   0  0  0  0  0  0  0  0  0  0  0  0
    5.4820    2.0790   -0.3900 C   0  0  0  0  0  0  0  0  0  0  0  0
   -0.0700   -1.8880    2.4310 C   0  0  0  0  0  0  0  0  0  0  0  0
   -1.3970   -1.6090    2.5690 O   0  0  0  0  0  0  0  0  0  0  0  0
   -2.1580   -0.9460    1.6510 C   0  0  0  0  0  0  0  0  0  0  0  0
   -3.5370   -0.7610    1.8410 C   0  0  0  0  0  0  0  0  0  0  0  0
   -4.2930   -0.0900    0.9110 C   0  0  0  0  0  0  0  0  0  0  0  0
   -5.6430    0.0840    1.1100 O   0  0  0  0  0  0  0  0  0  0  0  0
   -6.3300   -0.3940    2.2390 C   0  0  0  0  0  0  0  0  0  0  0  0
   -3.6820    0.3990   -0.2110 C   0  0  0  0  0  0  0  0  0  0  0  0
   -4.4280    1.0820   -1.1670 O   0  0  0  0  0  0  0  0  0  0  0  0
   -3.7670    1.5760   -2.3160 C   0  0  0  0  0  0  0  0  0  0  0  0
   -2.3080    0.2040   -0.3800 C   0  0  0  0  0  0  0  0  0  0  0  0
   -1.5260   -0.4610    0.5290 C   0  0  0  0  0  0  0  0  0  0  0  0
  1  2  1  0
  2  3  1  0
  3  4  2  0
  3 28  1  0
  4  5  1  0
  4 17  1  0
  5  6  1  0
  6  7  2  0
  6 12  1  0
  7  8  1  0
  8  9  1  0
  8 10  2  0
 10 11  1  0
 11 12  2  0
 11 16  1  0
 12 13  1  0
 13 14  2  0
 13 15  1  0
 15 16  1  0
 17 18  1  0
 18 19  1  0
 19 20  2  0
 19 28  1  0
 20 21  1  0
 21 22  1  0
 21 24  2  0
 22 23  1  0
 24 25  1  0
 24 27  1  0
 25 26  1  0
 27 28  2  0
M  END
