
     RDKit          3D

 28 31  0  0  0  0  0  0  0  0999 V2000
   -8.9340   -0.1320    1.1620 C   0  0  0  0  0  0  0  0  0  0  0  0
   -7.8250   -0.8920    0.7920 O   0  0  0  0  0  0  0  0  0  0  0  0
   -6.5720   -0.2890    0.6780 C   0  0  0  0  0  0  0  0  0  0  0  0
   -5.5160   -1.0710    0.3100 C   0  0  0  0  0  0  0  0  0  0  0  0
   -4.2320   -0.4960    0.1860 C   0  0  0  0  0  0  0  0  0  0  0  0
   -3.1150   -1.2960   -0.2200 C   0  0  0  0  0  0  0  0  0  0  0  0
   -3.5390   -2.6630   -0.5910 O   0  0  0  0  0  0  0  0  0  0  0  0
   -1.8590   -1.1650   -0.3530 C   0  0  0  0  0  0  0  0  0  0  0  0
   -0.8720   -0.1140   -0.1570 C   0  0  0  0  0  0  0  0  0  0  0  0
   -0.8970    1.0640    0.2250 N   0  0  0  0  0  0  0  0  0  0  0  0
    0.2030    1.8570    0.3240 C   0  0  0  0  0  0  0  0  0  0  0  0
    0.1960    3.0840    0.7180 O   0  0  0  0  0  0  0  0  0  0  0  0
    1.4540    1.2320   -0.0530 C   0  0  0  0  0  0  0  0  0  0  0  0
    2.6810    1.7240   -0.0300 C   0  0  0  0  0  0  0  0  0  0  0  0
    3.8230    0.9330   -0.4530 C   0  0  0  0  0  0  0  0  0  0  0  0
    3.6870    0.1640   -1.5860 C   0  0  0  0  0  0  0  0  0  0  0  0
    4.7180   -0.6460   -2.0650 C   0  0  0  0  0  0  0  0  0  0  0  0
    4.4870   -1.6900   -3.6520 Br  0  0  0  0  0  0  0  0  0  0  0  0
    5.9260   -0.6880   -1.3880 C   0  0  0  0  0  0  0  0  0  0  0  0
    6.0770    0.0790   -0.2490 C   0  0  0  0  0  0  0  0  0  0  0  0
    5.0300    0.8790    0.2060 C   0  0  0  0  0  0  0  0  0  0  0  0
    7.4470   -0.1770    0.2470 C   0  0  0  0  0  0  0  0  0  0  0  0
    8.1730   -0.7540   -0.9440 C   0  0  0  0  0  0  0  0  0  0  0  0
    7.0950   -1.3900   -1.6350 O   0  0  0  0  0  0  0  0  0  0  0  0
    0.9120   -0.3980   -0.5380 S   0  0  0  0  0  0  0  0  0  0  0  0
   -4.1640    0.8380    0.4540 C   0  0  0  0  0  0  0  0  0  0  0  0
   -5.2920    1.5860    0.8280 C   0  0  0  0  0  0  0  0  0  0  0  0
   -6.4750    1.0120    0.9330 N   0  0  0  0  0  0  0  0  0  0  0  0
  1  2  1  0
  2  3  1  0
  3  4  2  0
  3 28  1  0
  4  5  1  0
  5  6  1  0
  5 26  2  0
  6  7  1  0
  6  8  2  3
  8  9  1  0
  9 10  2  0
  9 25  1  0
 10 11  1  0
 11 12  2  0
 11 13  1  0
 13 14  2  3
 13 25  1  0
 14 15  1  0
 15 16  2  0
 15 21  1  0
 16 17  1  0
 17 18  1  0
 17 19  2  0
 19 20  1  0
 19 24  1  0
 20 21  2  0
 20 22  1  0
 22 23  1  0
 23 24  1  0
 26 27  1  0
 27 28  2  0
M  END
