
     RDKit          3D

 14 14  0  0  0  0  0  0  0  0999 V2000
    5.1930   -0.6800   -0.5570 C   0  0  0  0  0  0  0  0  0  0  0  0
    4.2600    0.3110   -0.1420 O   0  0  0  0  0  0  0  0  0  0  0  0
    2.9770   -0.1200    0.2450 C   0  0  0  0  0  0  0  0  0  0  0  0
    2.6600   -1.3280    0.2280 O   0  0  0  0  0  0  0  0  0  0  0  0
    2.0850    0.9060    0.6500 N   0  0  0  0  0  0  0  0  0  0  0  0
    0.7440    0.6350    1.0700 C   0  0  0  0  0  0  0  0  0  0  0  0
   -0.0550   -0.0150   -0.0310 C   0  0  2  0  0  0  0  0  0  0  0  0
   -0.1420    0.7650   -1.1650 O   0  0  0  0  0  0  0  0  0  0  0  0
   -1.3890   -0.4000    0.5390 C   0  0  1  0  0  0  0  0  0  0  0  0
   -2.2130    0.6990    1.0760 C   0  0  0  0  0  0  0  0  0  0  0  0
   -3.4560    0.7390    0.3110 N   0  0  0  0  0  0  0  0  0  0  0  0
   -3.0680    0.1880   -0.9930 C   0  0  0  0  0  0  0  0  0  0  0  0
   -2.2360   -0.9990   -0.5600 C   0  0  1  0  0  0  0  0  0  0  0  0
   -1.4270   -1.4550   -1.6020 O   0  0  0  0  0  0  0  0  0  0  0  0
  1  2  1  0
  2  3  1  0
  3  4  2  0
  3  5  1  0
  5  6  1  0
  6  7  1  0
  7  8  1  6
  7  9  1  0
  9 10  1  6
  9 13  1  0
 10 11  1  0
 11 12  1  0
 12 13  1  0
 13 14  1  6
M  CHG  1  11   1
M  END
