
     RDKit          3D

 28 31  0  0  0  0  0  0  0  0999 V2000
   -4.7860    2.7250   -1.4840 C   0  0  0  0  0  0  0  0  0  0  0  0
   -3.9440    1.8010   -0.8290 O   0  0  0  0  0  0  0  0  0  0  0  0
   -4.3430    0.5010   -0.5920 C   0  0  0  0  0  0  0  0  0  0  0  0
   -5.5770    0.0650   -0.9880 C   0  0  0  0  0  0  0  0  0  0  0  0
   -5.9940   -1.2400   -0.7580 C   0  0  0  0  0  0  0  0  0  0  0  0
   -5.1710   -2.1340   -0.1200 C   0  0  0  0  0  0  0  0  0  0  0  0
   -5.7100   -3.9240    0.2100 Br  0  0  0  0  0  0  0  0  0  0  0  0
   -3.9110   -1.6780    0.2810 C   0  0  0  0  0  0  0  0  0  0  0  0
   -3.4890   -0.3910    0.0590 C   0  0  0  0  0  0  0  0  0  0  0  0
   -2.1840    0.0830    0.4750 C   0  0  0  0  0  0  0  0  0  0  0  0
   -1.2970   -0.7290    1.1150 C   0  0  0  0  0  0  0  0  0  0  0  0
   -0.0350   -0.2730    1.5190 C   0  0  0  0  0  0  0  0  0  0  0  0
    1.0960   -1.3320    2.3440 S   0  0  2  0  0  0  0  0  0  0  0  0
    0.2600   -2.3140    3.1350 O   0  0  0  0  0  0  0  0  0  0  0  0
    1.9030   -0.5350    3.3520 O   0  0  0  0  0  0  0  0  0  0  0  0
    2.1060   -2.1510    1.2220 N   0  0  0  0  0  0  0  0  0  0  0  0
    2.9710   -1.4260    0.3650 C   0  0  0  0  0  0  0  0  0  0  0  0
    3.0900   -1.7150   -0.9820 C   0  0  0  0  0  0  0  0  0  0  0  0
    3.9440   -0.9830   -1.7750 C   0  0  0  0  0  0  0  0  0  0  0  0
    4.7170    0.0540   -1.3000 C   0  0  0  0  0  0  0  0  0  0  0  0
    4.6090    0.3530    0.0420 C   0  0  0  0  0  0  0  0  0  0  0  0
    3.7560   -0.3740    0.8420 C   0  0  0  0  0  0  0  0  0  0  0  0
    5.5280    1.4910    0.3020 C   0  0  0  0  0  0  0  0  0  0  0  0
    5.7120    2.0770   -1.0820 C   0  0  0  0  0  0  0  0  0  0  0  0
    5.6350    0.9200   -1.9000 O   0  0  0  0  0  0  0  0  0  0  0  0
    0.3100    1.0350    1.2550 C   0  0  0  0  0  0  0  0  0  0  0  0
   -0.6020    1.8450    0.6030 C   0  0  0  0  0  0  0  0  0  0  0  0
   -1.8000    1.3620    0.2370 N   0  0  0  0  0  0  0  0  0  0  0  0
  1  2  1  0
  2  3  1  0
  3  4  2  0
  3  9  1  0
  4  5  1  0
  5  6  2  0
  6  7  1  0
  6  8  1  0
  8  9  2  0
  9 10  1  0
 10 11  2  0
 10 28  1  0
 11 12  1  0
 12 13  1  0
 12 26  2  0
 13 14  2  0
 13 15  2  0
 13 16  1  6
 16 17  1  0
 17 18  2  0
 17 22  1  0
 18 19  1  0
 19 20  2  0
 20 21  1  0
 20 25  1  0
 21 22  2  0
 21 23  1  0
 23 24  1  0
 24 25  1  0
 26 27  1  0
 27 28  2  0
M  END
