
     RDKit          3D

 28 31  0  0  0  0  0  0  0  0999 V2000
   -8.2050   -1.2750    0.1760 C   0  0  0  0  0  0  0  0  0  0  0  0
   -7.1530   -0.6790   -0.5470 O   0  0  0  0  0  0  0  0  0  0  0  0
   -5.9400   -0.4840    0.0840 C   0  0  0  0  0  0  0  0  0  0  0  0
   -5.7690   -0.8710    1.4090 C   0  0  0  0  0  0  0  0  0  0  0  0
   -4.5320   -0.6510    1.9910 C   0  0  0  0  0  0  0  0  0  0  0  0
   -3.4920   -0.0720    1.3020 C   0  0  0  0  0  0  0  0  0  0  0  0
   -2.2710    0.1410    1.8900 C   0  0  0  0  0  0  0  0  0  0  0  0
   -1.2660    0.7340    1.1270 C   0  0  0  0  0  0  0  0  0  0  0  0
   -1.3990    1.1250   -0.1700 C   0  0  0  0  0  0  0  0  0  0  0  0
   -0.4210    1.7250   -0.9890 N   0  0  0  0  0  0  0  0  0  0  0  0
    0.9300    1.9290   -0.6640 C   0  0  0  0  0  0  0  0  0  0  0  0
    1.3680    1.5570    0.4470 O   0  0  0  0  0  0  0  0  0  0  0  0
    1.8650    2.6030   -1.6570 C   0  0  0  0  0  0  0  0  0  0  0  0
    2.7640    1.4040   -2.6500 S   0  0  0  0  0  0  0  0  0  0  0  0
    3.9570    0.4870   -1.6990 C   0  0  0  0  0  0  0  0  0  0  0  0
    3.8560   -0.6550   -1.0110 N   0  0  0  0  0  0  0  0  0  0  0  0
    5.0420   -0.9660   -0.4450 C   0  0  0  0  0  0  0  0  0  0  0  0
    5.5760   -1.9450    0.3390 C   0  0  0  0  0  0  0  0  0  0  0  0
    6.9120   -1.9250    0.7430 C   0  0  0  0  0  0  0  0  0  0  0  0
    7.3890   -2.9570    1.5420 O   0  0  0  0  0  0  0  0  0  0  0  0
    7.7250   -0.9000    0.3510 C   0  0  0  0  0  0  0  0  0  0  0  0
    7.2090    0.1020   -0.4410 C   0  0  0  0  0  0  0  0  0  0  0  0
    8.4060    1.5060   -0.9490 Br  0  0  0  0  0  0  0  0  0  0  0  0
    5.8940    0.0690   -0.8310 C   0  0  0  0  0  0  0  0  0  0  0  0
    5.2080    0.8980   -1.5670 O   0  0  0  0  0  0  0  0  0  0  0  0
   -2.6670    0.8880   -0.7330 C   0  0  0  0  0  0  0  0  0  0  0  0
   -3.6860    0.3080   -0.0240 C   0  0  0  0  0  0  0  0  0  0  0  0
   -4.9110    0.0970   -0.6180 C   0  0  0  0  0  0  0  0  0  0  0  0
  1  2  1  0
  2  3  1  0
  3  4  2  0
  3 28  1  0
  4  5  1  0
  5  6  2  0
  6  7  1  0
  6 27  1  0
  7  8  2  0
  8  9  1  0
  9 10  1  0
  9 26  2  0
 10 11  1  0
 11 12  2  0
 11 13  1  0
 13 14  1  0
 14 15  1  0
 15 16  2  0
 15 25  1  0
 16 17  1  0
 17 18  2  0
 17 24  1  0
 18 19  1  0
 19 20  1  0
 19 21  2  0
 21 22  1  0
 22 23  1  0
 22 24  2  0
 24 25  1  0
 26 27  1  0
 27 28  2  0
M  END
