
     RDKit          3D

 14 14  0  0  0  0  0  0  0  0999 V2000
    4.2120   -0.0700   -0.2320 C   0  0  0  0  0  0  0  0  0  0  0  0
    2.7560   -0.3130   -0.0500 C   0  0  0  0  0  0  0  0  0  0  0  0
    2.2910   -1.3090    0.5600 O   0  0  0  0  0  0  0  0  0  0  0  0
    1.8500    0.6520   -0.6070 N   0  0  0  0  0  0  0  0  0  0  0  0
    0.4420    0.4470   -0.4470 C   0  0  1  0  0  0  0  0  0  0  0  0
   -0.0210   -0.7510   -1.2180 C   0  0  0  0  0  0  0  0  0  0  0  0
   -1.2880   -0.5630   -1.8790 N   0  0  0  0  0  0  0  0  0  0  0  0
   -2.4050   -0.5660   -0.9680 C   0  0  0  0  0  0  0  0  0  0  0  0
   -2.2700    0.4250    0.1400 C   0  0  1  0  0  0  0  0  0  0  0  0
   -3.5450    0.5590    0.7340 O   0  0  0  0  0  0  0  0  0  0  0  0
   -1.3430   -0.1580    1.1960 C   0  0  1  0  0  0  0  0  0  0  0  0
   -1.3780   -1.5300    1.2420 O   0  0  0  0  0  0  0  0  0  0  0  0
    0.0120    0.4310    1.0030 C   0  0  2  0  0  0  0  0  0  0  0  0
   -0.0670    1.7850    1.4100 O   0  0  0  0  0  0  0  0  0  0  0  0
  1  2  1  0
  2  3  2  0
  2  4  1  0
  5  4  1  1
  5  6  1  0
  5 13  1  0
  6  7  1  0
  7  8  1  0
  8  9  1  0
  9 10  1  1
  9 11  1  0
 11 12  1  6
 11 13  1  0
 13 14  1  6
M  CHG  1   7   1
M  END
