
     RDKit          3D

 19 20  0  0  0  0  0  0  0  0999 V2000
   -0.3490    0.4870    0.9310 O   0  0  0  0  0  0  0  0  0  0  0  0
    0.0940   -0.0780   -0.1020 C   0  0  0  0  0  0  0  0  0  0  0  0
    1.4800   -0.0350   -0.3730 N   0  0  0  0  0  0  0  0  0  0  0  0
    2.3870    0.6500    0.5270 C   0  0  0  0  0  0  0  0  0  0  0  0
    3.8000    0.5800    0.0650 C   0  0  0  0  0  0  0  0  0  0  0  0
    4.2730   -0.7220   -0.0400 O   0  0  0  0  0  0  0  0  0  0  0  0
    5.9040   -0.6590   -0.5790 P   0  0  0  0  0  0  0  0  0  0  0  0
    7.0190   -1.2060    0.6270 O   0  0  0  0  0  0  0  0  0  0  0  0
    6.3330    0.9240   -1.1640 O   0  0  0  0  0  0  0  0  0  0  0  0
   -0.8220   -0.7190   -0.9260 O   0  0  0  0  0  0  0  0  0  0  0  0
   -2.1710   -0.7380   -0.6270 C   0  0  0  0  0  0  0  0  0  0  0  0
   -2.6530   -1.7740    0.1420 C   0  0  0  0  0  0  0  0  0  0  0  0
   -3.9700   -1.8450    0.4690 N   0  0  0  0  0  0  0  0  0  0  0  0
   -4.8480   -0.9310    0.0680 C   0  0  0  0  0  0  0  0  0  0  0  0
   -4.4230    0.1470   -0.7160 C   0  0  0  0  0  0  0  0  0  0  0  0
   -3.0840    0.2040   -1.0380 C   0  0  0  0  0  0  0  0  0  0  0  0
   -5.5440    0.9250   -0.9770 O   0  0  0  0  0  0  0  0  0  0  0  0
   -6.5000    0.5830    0.0160 C   0  0  0  0  0  0  0  0  0  0  0  0
   -6.2260   -0.8000    0.2780 O   0  0  0  0  0  0  0  0  0  0  0  0
  1  2  2  0
  2  3  1  0
  2 10  1  0
  3  4  1  0
  4  5  1  0
  5  6  1  0
  6  7  1  0
  7  8  1  0
  7  9  1  0
 10 11  1  0
 11 12  2  0
 11 16  1  0
 12 13  1  0
 13 14  2  0
 14 15  1  0
 14 19  1  0
 15 16  2  0
 15 17  1  0
 17 18  1  0
 18 19  1  0
M  END
