
     RDKit          3D

 20 21  0  0  0  0  0  0  0  0999 V2000
    2.2120   -1.3930   -0.5470 O   0  0  0  0  0  0  0  0  0  0  0  0
    2.0900   -0.1710   -0.3720 C   0  0  0  0  0  0  0  0  0  0  0  0
    0.7590    0.2400   -0.0050 N   0  0  0  0  0  0  0  0  0  0  0  0
   -0.3080   -0.6840    0.1380 C   0  0  0  0  0  0  0  0  0  0  0  0
   -0.0180   -1.9000   -0.0830 O   0  0  0  0  0  0  0  0  0  0  0  0
   -1.6340   -0.3220    0.5030 N   0  0  0  0  0  0  0  0  0  0  0  0
   -2.6670   -1.3660    0.6050 C   0  0  0  0  0  0  0  0  0  0  0  0
   -4.0070   -0.7020    0.5940 C   0  0  2  0  0  0  0  0  0  0  0  0
   -5.0280   -1.5790    0.2320 O   0  0  0  0  0  0  0  0  0  0  0  0
   -4.0940    0.5260   -0.2560 C   0  0  0  0  0  0  0  0  0  0  0  0
   -3.2410    1.5320    0.3090 O   0  0  0  0  0  0  0  0  0  0  0  0
   -2.0150    1.0150    0.7820 C   0  0  0  0  0  0  0  0  0  0  0  0
   -1.2210    1.7180    1.4660 O   0  0  0  0  0  0  0  0  0  0  0  0
    3.1560    0.8100   -0.5080 C   0  0  0  0  0  0  0  0  0  0  0  0
    2.9620    2.1140   -0.3050 C   0  0  0  0  0  0  0  0  0  0  0  0
    4.1180    2.8310   -0.4950 O   0  0  0  0  0  0  0  0  0  0  0  0
    5.0870    1.9520   -0.8310 O   0  0  0  0  0  0  0  0  0  0  0  0
    4.5340    0.6450   -0.8560 C   0  0  0  0  0  0  0  0  0  0  0  0
    5.1800   -0.4540   -1.1410 C   0  0  0  0  0  0  0  0  0  0  0  0
    4.5870   -1.6820   -1.1470 O   0  0  0  0  0  0  0  0  0  0  0  0
  1  2  2  0
  2  3  1  0
  2 14  1  0
  3  4  1  0
  4  5  2  0
  4  6  1  0
  6  7  1  0
  6 12  1  0
  7  8  1  0
  8  9  1  6
  8 10  1  0
 10 11  1  0
 11 12  1  0
 12 13  2  0
 14 15  2  0
 14 18  1  0
 15 16  1  0
 16 17  1  0
 17 18  1  0
 18 19  2  3
 19 20  1  0
M  END
