
     RDKit          3D

 20 21  0  0  0  0  0  0  0  0999 V2000
    3.0470   -1.9600   -0.7860 C   0  0  0  0  0  0  0  0  0  0  0  0
    3.2110   -0.6670   -0.1360 N   0  0  0  0  0  0  0  0  0  0  0  0
    4.4820   -0.0950    0.0950 C   0  0  0  0  0  0  0  0  0  0  0  0
    5.5080   -0.7150   -0.2690 O   0  0  0  0  0  0  0  0  0  0  0  0
    4.6000    1.1200    0.7070 O   0  0  0  0  0  0  0  0  0  0  0  0
    2.0610    0.0600    0.2880 C   0  0  0  0  0  0  0  0  0  0  0  0
    2.1590    1.1800    0.8530 O   0  0  0  0  0  0  0  0  0  0  0  0
    0.8150   -0.4630    0.0810 O   0  0  0  0  0  0  0  0  0  0  0  0
   -0.3950    0.1860    0.4680 C   0  0  2  0  0  0  0  0  0  0  0  0
   -1.0780   -0.6800    1.4620 C   0  0  0  0  0  0  0  0  0  0  0  0
   -2.4810   -0.2150    1.7720 C   0  0  0  0  0  0  0  0  0  0  0  0
   -3.2700   -0.2340    0.5060 C   0  0  0  0  0  0  0  0  0  0  0  0
   -2.5980    0.3110   -0.6350 N   0  0  0  0  0  0  0  0  0  0  0  0
   -3.3620    0.7100   -1.7720 C   0  0  0  0  0  0  0  0  0  0  0  0
   -4.4840    0.1300   -2.0010 O   0  0  0  0  0  0  0  0  0  0  0  0
   -2.9230    1.7170   -2.6450 O   0  0  0  0  0  0  0  0  0  0  0  0
   -1.7270    2.2850   -2.3370 O   0  0  0  0  0  0  0  0  0  0  0  0
   -0.9760    1.9040   -1.2320 C   0  0  0  0  0  0  0  0  0  0  0  0
   -0.1750    2.6950   -0.6600 O   0  0  0  0  0  0  0  0  0  0  0  0
   -1.1710    0.5060   -0.7600 C   0  0  1  0  0  0  0  0  0  0  0  0
  1  2  1  0
  2  3  1  0
  2  6  1  0
  3  4  2  0
  3  5  1  0
  6  7  2  0
  6  8  1  0
  9  8  1  6
  9 10  1  0
  9 20  1  0
 10 11  1  0
 11 12  1  0
 12 13  1  0
 13 14  1  0
 13 20  1  0
 14 15  2  0
 14 16  1  0
 16 17  1  0
 17 18  1  0
 18 19  2  0
 20 18  1  1
M  END
