
     RDKit          3D

 20 20  0  0  0  0  0  0  0  0999 V2000
   -4.2100    3.3210   -0.6780 C   0  0  0  0  0  0  0  0  0  0  0  0
   -2.9560    2.6760   -0.5620 O   0  0  0  0  0  0  0  0  0  0  0  0
   -2.8440    1.3080   -0.2150 C   0  0  0  0  0  0  0  0  0  0  0  0
   -3.9350    0.7520   -0.0290 O   0  0  0  0  0  0  0  0  0  0  0  0
   -1.5260    0.7050   -0.1120 C   0  0  0  0  0  0  0  0  0  0  0  0
   -0.3170    1.3880   -0.3350 C   0  0  0  0  0  0  0  0  0  0  0  0
    0.7430    0.5270   -0.1560 C   0  0  0  0  0  0  0  0  0  0  0  0
    2.1350    0.8890   -0.3040 N   0  0  0  0  0  0  0  0  0  0  0  0
    3.1700   -0.0040   -0.1160 C   0  0  0  0  0  0  0  0  0  0  0  0
    3.0010   -1.1810    0.1930 O   0  0  0  0  0  0  0  0  0  0  0  0
    4.4950    0.4200   -0.2770 O   0  0  0  0  0  0  0  0  0  0  0  0
    5.5590   -0.4390   -0.0980 C   0  0  0  0  0  0  0  0  0  0  0  0
    5.3480   -1.6300    0.2160 O   0  0  0  0  0  0  0  0  0  0  0  0
    6.8390    0.0410   -0.2720 O   0  0  0  0  0  0  0  0  0  0  0  0
    0.2090   -0.6600    0.1700 N   0  0  0  0  0  0  0  0  0  0  0  0
   -1.1550   -0.5690    0.2010 C   0  0  0  0  0  0  0  0  0  0  0  0
   -2.0410   -1.6790    0.5210 C   0  0  0  0  0  0  0  0  0  0  0  0
   -3.3170   -1.5140    0.5290 O   0  0  0  0  0  0  0  0  0  0  0  0
   -1.6410   -3.0550    0.8590 C   0  0  0  0  0  0  0  0  0  0  0  0
   -0.2930   -3.3020    0.8690 O   0  0  0  0  0  0  0  0  0  0  0  0
  1  2  1  0
  2  3  1  0
  3  4  2  0
  3  5  1  0
  5  6  1  0
  5 16  2  0
  6  7  2  0
  7  8  1  0
  7 15  1  0
  8  9  1  0
  9 10  2  0
  9 11  1  0
 11 12  1  0
 12 13  2  0
 12 14  1  0
 15 16  1  0
 16 17  1  0
 17 18  2  0
 17 19  1  0
 19 20  1  0
M  END
