
     RDKit          3D

 20 20  0  0  0  0  0  0  0  0999 V2000
   -3.1020    2.7860    0.2970 N   0  0  0  0  0  0  0  0  0  0  0  0
   -2.7790    1.3750    0.3610 C   0  0  0  0  0  0  0  0  0  0  0  0
   -3.7240    0.5770    0.3330 O   0  0  0  0  0  0  0  0  0  0  0  0
   -1.3860    0.9460    0.4540 C   0  0  0  0  0  0  0  0  0  0  0  0
   -0.5650    1.8890    0.4070 O   0  0  0  0  0  0  0  0  0  0  0  0
   -1.0080   -0.3760    0.5770 N   0  0  0  0  0  0  0  0  0  0  0  0
   -2.1740   -1.3130    0.7570 C   0  0  0  0  0  0  0  0  0  0  0  0
   -2.7030   -1.7700   -0.5180 C   0  0  0  0  0  0  0  0  0  0  0  0
   -3.6780   -2.5580   -0.5800 O   0  0  0  0  0  0  0  0  0  0  0  0
   -2.1380   -1.3430   -1.7080 O   0  0  0  0  0  0  0  0  0  0  0  0
    0.2540   -0.9890    0.5880 C   0  0  0  0  0  0  0  0  0  0  0  0
    0.1190   -2.3030    0.8740 O   0  0  0  0  0  0  0  0  0  0  0  0
    1.6090   -0.5650    0.3730 C   0  0  0  0  0  0  0  0  0  0  0  0
    2.5570   -1.4820    0.5470 C   0  0  0  0  0  0  0  0  0  0  0  0
    3.9830   -1.3570    0.4080 C   0  0  0  0  0  0  0  0  0  0  0  0
    4.7760   -2.3400    0.6110 O   0  0  0  0  0  0  0  0  0  0  0  0
    4.5640   -0.1840    0.0530 O   0  0  0  0  0  0  0  0  0  0  0  0
    3.6180    1.0220   -0.8010 P   0  0  0  0  0  0  0  0  0  0  0  0
    4.2210    2.6130   -0.4480 O   0  0  0  0  0  0  0  0  0  0  0  0
    1.8900    0.8050   -0.0770 C   0  0  0  0  0  0  0  0  0  0  0  0
  1  2  1  0
  2  3  2  0
  2  4  1  0
  4  5  2  0
  4  6  1  0
  6  7  1  0
  6 11  1  0
  7  8  1  0
  8  9  2  0
  8 10  1  0
 11 12  2  0
 11 13  1  0
 13 14  2  0
 13 20  1  0
 14 15  1  0
 15 16  2  0
 15 17  1  0
 17 18  1  0
 18 19  1  0
 18 20  1  0
M  END
