
     RDKit          3D

 22 22  0  0  0  0  0  0  0  0999 V2000
   -0.9300    4.7010    1.6000 C   0  0  0  0  0  0  0  0  0  0  0  0
   -0.9830    3.2740    1.2250 C   0  0  0  0  0  0  0  0  0  0  0  0
   -2.1210    2.5780    1.3430 N   0  0  0  0  0  0  0  0  0  0  0  0
   -2.1960    1.2800    1.0100 C   0  0  0  0  0  0  0  0  0  0  0  0
   -1.0850    0.5740    0.5180 C   0  0  0  0  0  0  0  0  0  0  0  0
   -1.2270   -0.8640    0.1690 C   0  0  0  0  0  0  0  0  0  0  0  0
   -2.5510   -1.2180    0.4240 O   0  0  0  0  0  0  0  0  0  0  0  0
   -2.9750   -2.7520    0.1230 P   0  0  0  0  0  0  0  0  0  0  0  0
   -2.2210   -4.0120    0.8600 O   0  0  0  0  0  0  0  0  0  0  0  0
   -2.1620   -2.8810   -1.1560 O   0  0  0  0  0  0  0  0  0  0  0  0
   -4.3760   -3.0980   -0.7710 O   0  0  0  0  0  0  0  0  0  0  0  0
    0.0980    1.2910    0.3940 C   0  0  0  0  0  0  0  0  0  0  0  0
    1.2770    0.6140   -0.1130 C   0  0  0  0  0  0  0  0  0  0  0  0
    1.2210   -0.6220   -0.4390 N   0  0  0  0  0  0  0  0  0  0  0  0
    2.3150   -1.3870   -0.9470 C   0  0  1  0  0  0  0  0  0  0  0  0
    2.7350   -0.8910   -2.3170 C   0  0  0  0  0  0  0  0  0  0  0  0
    3.1290    0.4300   -2.2670 O   0  0  0  0  0  0  0  0  0  0  0  0
    3.4800   -1.2200   -0.0460 C   0  0  0  0  0  0  0  0  0  0  0  0
    4.5850   -1.7970   -0.2730 O   0  0  0  0  0  0  0  0  0  0  0  0
    3.3920   -0.4260    1.0750 O   0  0  0  0  0  0  0  0  0  0  0  0
    0.1610    2.6300    0.7410 C   0  0  0  0  0  0  0  0  0  0  0  0
    1.3360    3.3200    0.6120 O   0  0  0  0  0  0  0  0  0  0  0  0
  1  2  1  0
  2  3  2  0
  2 21  1  0
  3  4  1  0
  4  5  2  0
  5  6  1  0
  5 12  1  0
  6  7  1  0
  7  8  1  0
  8  9  1  0
  8 10  1  0
  8 11  1  0
 12 13  1  0
 12 21  2  0
 13 14  2  3
 14 15  1  0
 15 16  1  6
 15 18  1  0
 16 17  1  0
 18 19  2  0
 18 20  1  0
 21 22  1  0
M  END
