
     RDKit          3D

 20 20  0  0  0  0  0  0  0  0999 V2000
   -3.3840    1.3120    1.4350 O   0  0  0  0  0  0  0  0  0  0  0  0
   -2.8970    0.6000    0.5090 C   0  0  0  0  0  0  0  0  0  0  0  0
   -2.7180    1.2130   -0.8070 C   0  0  0  0  0  0  0  0  0  0  0  0
   -1.4470    1.6550   -1.1050 O   0  0  0  0  0  0  0  0  0  0  0  0
   -0.8730    2.5090   -0.2170 C   0  0  0  0  0  0  0  0  0  0  0  0
    0.5980    2.4260   -0.0200 C   0  0  0  0  0  0  0  0  0  0  0  0
    1.3640    1.5090   -0.8900 C   0  0  0  0  0  0  0  0  0  0  0  0
    1.5880    0.2170   -0.2740 N   0  0  0  0  0  0  0  0  0  0  0  0
    2.8720   -0.3540   -0.3750 C   0  0  0  0  0  0  0  0  0  0  0  0
    3.8220    0.2710   -0.9840 O   0  0  0  0  0  0  0  0  0  0  0  0
    3.2630   -1.5830    0.1300 O   0  0  0  0  0  0  0  0  0  0  0  0
    4.4930   -2.0770    0.0040 O   0  0  0  0  0  0  0  0  0  0  0  0
    5.3560   -1.3000    0.6210 O   0  0  0  0  0  0  0  0  0  0  0  0
    0.4520   -0.3620    0.3680 C   0  0  0  0  0  0  0  0  0  0  0  0
    0.6190   -1.5060    1.2410 C   0  0  0  0  0  0  0  0  0  0  0  0
    1.5880   -1.7040    2.0190 O   0  0  0  0  0  0  0  0  0  0  0  0
   -0.3760   -2.4680    1.2230 O   0  0  0  0  0  0  0  0  0  0  0  0
   -1.1810   -2.6640    0.1170 C   0  0  0  0  0  0  0  0  0  0  0  0
   -2.3610   -1.7960   -0.0670 C   0  0  0  0  0  0  0  0  0  0  0  0
   -2.5730   -0.7390    0.8570 N   0  0  0  0  0  0  0  0  0  0  0  0
  1  2  2  0
  2  3  1  0
  2 20  1  0
  3  4  1  0
  4  5  1  0
  5  6  1  0
  6  7  1  0
  7  8  1  0
  8  9  1  0
  8 14  1  0
  9 10  2  0
  9 11  1  0
 11 12  1  0
 12 13  1  0
 14 15  1  0
 15 16  2  0
 15 17  1  0
 17 18  1  0
 18 19  1  0
 19 20  1  0
M  END
