
     RDKit          3D

 20 20  0  0  0  0  0  0  0  0999 V2000
    2.2420   -1.0920   -2.2350 C   0  0  0  0  0  0  0  0  0  0  0  0
    2.3380   -0.1560   -1.0480 C   0  0  2  0  0  0  0  0  0  0  0  0
    3.3180   -0.5860   -0.0920 N   0  0  0  0  0  0  0  0  0  0  0  0
    4.4720    0.1760    0.1890 C   0  0  0  0  0  0  0  0  0  0  0  0
    4.6750    1.2760   -0.4070 O   0  0  0  0  0  0  0  0  0  0  0  0
    5.4400   -0.2070    1.1060 O   0  0  0  0  0  0  0  0  0  0  0  0
    6.5920    0.6190    1.3420 C   0  0  0  0  0  0  0  0  0  0  0  0
    7.4130    0.0480    2.2840 O   0  0  0  0  0  0  0  0  0  0  0  0
    1.0350    0.0130   -0.3910 C   0  0  0  0  0  0  0  0  0  0  0  0
    0.9240   -0.2190    0.8400 O   0  0  0  0  0  0  0  0  0  0  0  0
   -0.1110    0.4280   -1.0930 O   0  0  0  0  0  0  0  0  0  0  0  0
   -1.2900    0.5590   -0.3930 O   0  0  0  0  0  0  0  0  0  0  0  0
   -2.3270   -0.3400   -0.5970 C   0  0  0  0  0  0  0  0  0  0  0  0
   -2.1270   -1.2490   -1.4340 O   0  0  0  0  0  0  0  0  0  0  0  0
   -3.5200   -0.1840    0.1310 N   0  0  0  0  0  0  0  0  0  0  0  0
   -4.6640   -1.0730   -0.0110 C   0  0  0  0  0  0  0  0  0  0  0  0
   -5.7790   -0.4830    0.8320 C   0  0  0  0  0  0  0  0  0  0  0  0
   -6.0130    0.8410    0.5620 O   0  0  0  0  0  0  0  0  0  0  0  0
   -4.9200    1.6590    0.6630 C   0  0  0  0  0  0  0  0  0  0  0  0
   -3.6730    0.8990    1.0840 C   0  0  0  0  0  0  0  0  0  0  0  0
  2  1  1  6
  2  3  1  0
  2  9  1  0
  3  4  1  0
  4  5  2  0
  4  6  1  0
  6  7  1  0
  7  8  1  0
  9 10  2  0
  9 11  1  0
 11 12  1  0
 12 13  1  0
 13 14  2  0
 13 15  1  0
 15 16  1  0
 15 20  1  0
 16 17  1  0
 17 18  1  0
 18 19  1  0
 19 20  1  0
M  END
