
     RDKit          3D

 19 20  0  0  0  0  0  0  0  0999 V2000
   -0.3710    1.2820   -0.4840 O   0  0  0  0  0  0  0  0  0  0  0  0
    0.0570    0.1420   -0.2080 C   0  0  0  0  0  0  0  0  0  0  0  0
    1.4740   -0.1160   -0.1400 N   0  0  0  0  0  0  0  0  0  0  0  0
    2.4160    0.9500   -0.3920 C   0  0  0  0  0  0  0  0  0  0  0  0
    3.8220    0.4110   -0.2560 C   0  0  0  0  0  0  0  0  0  0  0  0
    4.7340    1.4360   -0.4980 O   0  0  0  0  0  0  0  0  0  0  0  0
    6.3620    0.9200   -0.3670 P   0  0  0  0  0  0  0  0  0  0  0  0
    6.7980    0.5540    1.2830 O   0  0  0  0  0  0  0  0  0  0  0  0
    6.6880   -0.4710   -1.3690 O   0  0  0  0  0  0  0  0  0  0  0  0
   -0.8290   -0.8730    0.0320 O   0  0  0  0  0  0  0  0  0  0  0  0
   -2.2130   -0.7260   -0.0100 C   0  0  0  0  0  0  0  0  0  0  0  0
   -2.8150   -0.9530   -1.2380 C   0  0  0  0  0  0  0  0  0  0  0  0
   -4.1390   -0.8410   -1.3920 N   0  0  0  0  0  0  0  0  0  0  0  0
   -4.8960   -0.4980   -0.3210 C   0  0  0  0  0  0  0  0  0  0  0  0
   -4.3500   -0.2620    0.9190 C   0  0  0  0  0  0  0  0  0  0  0  0
   -2.9800   -0.3820    1.0650 C   0  0  0  0  0  0  0  0  0  0  0  0
   -5.3710    0.0710    1.8260 O   0  0  0  0  0  0  0  0  0  0  0  0
   -6.5190    0.3500    1.0590 C   0  0  0  0  0  0  0  0  0  0  0  0
   -6.2740   -0.3070   -0.1710 O   0  0  0  0  0  0  0  0  0  0  0  0
  1  2  2  0
  2  3  1  0
  2 10  1  0
  3  4  1  0
  4  5  1  0
  5  6  1  0
  6  7  1  0
  7  8  1  0
  7  9  1  0
 10 11  1  0
 11 12  2  0
 11 16  1  0
 12 13  1  0
 13 14  2  0
 14 15  1  0
 14 19  1  0
 15 16  2  0
 15 17  1  0
 17 18  1  0
 18 19  1  0
M  END
