
     RDKit          3D

 20 20  0  0  0  0  0  0  0  0999 V2000
   -2.9930    1.4910   -1.5510 O   0  0  0  0  0  0  0  0  0  0  0  0
   -3.0730    0.6600   -0.5970 C   0  0  0  0  0  0  0  0  0  0  0  0
   -2.8320    1.1820    0.7570 C   0  0  0  0  0  0  0  0  0  0  0  0
   -1.5440    1.3880    1.1240 O   0  0  0  0  0  0  0  0  0  0  0  0
   -0.8170    2.3360    0.4650 C   0  0  0  0  0  0  0  0  0  0  0  0
    0.6680    2.0480    0.4450 C   0  0  0  0  0  0  0  0  0  0  0  0
    1.0980    1.2640   -0.7680 C   0  0  0  0  0  0  0  0  0  0  0  0
    1.7900    0.0340   -0.4670 N   0  0  0  0  0  0  0  0  0  0  0  0
    2.9770   -0.2370   -1.1940 C   0  0  0  0  0  0  0  0  0  0  0  0
    3.4010    0.5760   -2.0720 O   0  0  0  0  0  0  0  0  0  0  0  0
    3.6970   -1.4100   -0.9500 O   0  0  0  0  0  0  0  0  0  0  0  0
    4.8170   -1.6070   -1.6750 O   0  0  0  0  0  0  0  0  0  0  0  0
    5.8790   -1.1320   -1.0230 O   0  0  0  0  0  0  0  0  0  0  0  0
    1.3410   -0.9230    0.5240 C   0  0  0  0  0  0  0  0  0  0  0  0
    0.9010   -2.2130   -0.0070 C   0  0  0  0  0  0  0  0  0  0  0  0
    1.7490   -3.0740   -0.3640 O   0  0  0  0  0  0  0  0  0  0  0  0
   -0.4530   -2.5890   -0.1600 O   0  0  0  0  0  0  0  0  0  0  0  0
   -1.3760   -1.5570    0.1270 C   0  0  0  0  0  0  0  0  0  0  0  0
   -2.7900   -1.8100   -0.2240 C   0  0  0  0  0  0  0  0  0  0  0  0
   -3.3850   -0.6840   -0.9300 N   0  0  0  0  0  0  0  0  0  0  0  0
  1  2  2  0
  2  3  1  0
  2 20  1  0
  3  4  1  0
  4  5  1  0
  5  6  1  0
  6  7  1  0
  7  8  1  0
  8  9  1  0
  8 14  1  0
  9 10  2  0
  9 11  1  0
 11 12  1  0
 12 13  1  0
 14 15  1  0
 15 16  2  0
 15 17  1  0
 17 18  1  0
 18 19  1  0
 19 20  1  0
M  END
