
     RDKit          3D

 20 22  0  0  0  0  0  0  0  0999 V2000
   -3.0070   -3.0220   -0.6210 O   0  0  0  0  0  0  0  0  0  0  0  0
   -2.9880   -1.7520   -0.4830 C   0  0  0  0  0  0  0  0  0  0  0  0
   -4.0790   -1.1460    0.0800 O   0  0  0  0  0  0  0  0  0  0  0  0
   -4.3870    0.1560    0.5050 C   0  0  0  0  0  0  0  0  0  0  0  0
   -3.2320    1.1230    0.2480 C   0  0  0  0  0  0  0  0  0  0  0  0
   -2.0250    0.6060    0.6250 O   0  0  0  0  0  0  0  0  0  0  0  0
   -1.2750    0.0540   -0.3830 C   0  0  1  0  0  0  0  0  0  0  0  0
   -1.8340   -1.1230   -0.9310 O   0  0  0  0  0  0  0  0  0  0  0  0
   -0.8300    0.9970   -1.4090 C   0  0  0  0  0  0  0  0  0  0  0  0
   -1.5100    1.6220   -2.2790 O   0  0  0  0  0  0  0  0  0  0  0  0
    0.5470    1.1470   -1.3210 O   0  0  0  0  0  0  0  0  0  0  0  0
    1.0850    0.3520   -0.3560 N   0  0  0  0  0  0  0  0  0  0  0  0
    2.4840    0.2520    0.0090 C   0  0  0  0  0  0  0  0  0  0  0  0
    3.0880   -0.9190   -0.1010 C   0  0  0  0  0  0  0  0  0  0  0  0
    4.5130   -1.0420    0.2660 C   0  0  0  0  0  0  0  0  0  0  0  0
    5.1000    0.1460    0.7110 O   0  0  0  0  0  0  0  0  0  0  0  0
    4.4110    1.3430    0.8030 C   0  0  0  0  0  0  0  0  0  0  0  0
    3.1870    1.3880    0.4740 N   0  0  0  0  0  0  0  0  0  0  0  0
    0.0360   -0.3690    0.2360 C   0  0  0  0  0  0  0  0  0  0  0  0
    0.1480   -1.2340    1.1400 O   0  0  0  0  0  0  0  0  0  0  0  0
  1  2  2  0
  2  3  1  0
  2  8  1  0
  3  4  1  0
  4  5  1  0
  5  6  1  0
  7  6  1  1
  7  8  1  0
  7  9  1  0
  7 19  1  0
  9 10  2  0
  9 11  1  0
 11 12  1  0
 12 13  1  0
 12 19  1  0
 13 14  2  0
 13 18  1  0
 14 15  1  0
 15 16  1  0
 16 17  1  0
 17 18  2  0
 19 20  2  0
M  END
