
     RDKit          3D

 20 20  0  0  0  0  0  0  0  0999 V2000
    2.7040   -2.2560   -1.5210 C   0  0  0  0  0  0  0  0  0  0  0  0
    2.4720   -0.9640   -0.7730 C   0  0  2  0  0  0  0  0  0  0  0  0
    3.3550   -0.8320    0.3700 N   0  0  0  0  0  0  0  0  0  0  0  0
    4.3370    0.1860    0.4800 C   0  0  0  0  0  0  0  0  0  0  0  0
    4.4390    1.0020   -0.4560 O   0  0  0  0  0  0  0  0  0  0  0  0
    5.1810    0.3100    1.5730 O   0  0  0  0  0  0  0  0  0  0  0  0
    6.1610    1.3560    1.6430 C   0  0  0  0  0  0  0  0  0  0  0  0
    6.8540    1.2450    2.8250 O   0  0  0  0  0  0  0  0  0  0  0  0
    1.0500   -0.8930   -0.3500 C   0  0  0  0  0  0  0  0  0  0  0  0
    0.7130   -0.7380    0.8590 O   0  0  0  0  0  0  0  0  0  0  0  0
    0.0490   -0.9980   -1.2850 O   0  0  0  0  0  0  0  0  0  0  0  0
   -1.2810   -0.9440   -0.9860 O   0  0  0  0  0  0  0  0  0  0  0  0
   -1.9680    0.2510   -0.8830 C   0  0  0  0  0  0  0  0  0  0  0  0
   -1.3450    1.3190   -1.0700 O   0  0  0  0  0  0  0  0  0  0  0  0
   -3.3450    0.3000   -0.5730 N   0  0  0  0  0  0  0  0  0  0  0  0
   -4.1370   -0.9050   -0.3410 C   0  0  0  0  0  0  0  0  0  0  0  0
   -5.5560   -0.4430   -0.0860 C   0  0  0  0  0  0  0  0  0  0  0  0
   -5.5820    0.4240    1.0000 O   0  0  0  0  0  0  0  0  0  0  0  0
   -4.9510    1.6300    0.7340 C   0  0  0  0  0  0  0  0  0  0  0  0
   -4.0450    1.5600   -0.4700 C   0  0  0  0  0  0  0  0  0  0  0  0
  2  1  1  1
  2  3  1  0
  2  9  1  0
  3  4  1  0
  4  5  2  0
  4  6  1  0
  6  7  1  0
  7  8  1  0
  9 10  2  0
  9 11  1  0
 11 12  1  0
 12 13  1  0
 13 14  2  0
 13 15  1  0
 15 16  1  0
 15 20  1  0
 16 17  1  0
 17 18  1  0
 18 19  1  0
 19 20  1  0
M  END
