
     RDKit          3D

 19 20  0  0  0  0  0  0  0  0999 V2000
    0.9410    1.0170    1.2230 O   0  0  0  0  0  0  0  0  0  0  0  0
    0.7540    0.6600    0.0310 C   0  0  0  0  0  0  0  0  0  0  0  0
    1.6710    1.2190   -0.9870 C   0  0  0  0  0  0  0  0  0  0  0  0
    2.7650    2.0800   -0.4780 C   0  0  0  0  0  0  0  0  0  0  0  0
    3.6930    1.4780    0.4300 N   0  0  0  0  0  0  0  0  0  0  0  0
    4.8330    0.7930    0.0530 O   0  0  0  0  0  0  0  0  0  0  0  0
    4.6850   -0.3630    0.8160 C   0  0  0  0  0  0  0  0  0  0  0  0
    4.3540    0.1450    2.0930 O   0  0  0  0  0  0  0  0  0  0  0  0
    3.7340    1.3800    1.8490 C   0  0  0  0  0  0  0  0  0  0  0  0
    3.2990    2.2400    2.6350 O   0  0  0  0  0  0  0  0  0  0  0  0
   -0.2880   -0.2380   -0.3270 N   0  0  0  0  0  0  0  0  0  0  0  0
   -0.6250   -0.7350   -1.6330 C   0  0  0  0  0  0  0  0  0  0  0  0
   -2.1310   -0.5440   -1.6500 C   0  0  0  0  0  0  0  0  0  0  0  0
   -2.4780   -1.0390   -0.2380 C   0  0  2  0  0  0  0  0  0  0  0  0
   -3.5330   -0.2590    0.1930 O   0  0  0  0  0  0  0  0  0  0  0  0
   -4.9010   -1.3100    0.3850 P   0  0  0  0  0  0  0  0  0  0  0  0
   -6.3890   -0.4690    0.1220 O   0  0  0  0  0  0  0  0  0  0  0  0
   -4.8770   -2.1280    1.9140 O   0  0  0  0  0  0  0  0  0  0  0  0
   -1.2280   -0.8300    0.5880 C   0  0  0  0  0  0  0  0  0  0  0  0
  1  2  2  0
  2  3  1  0
  2 11  1  0
  3  4  1  0
  4  5  1  0
  5  6  1  0
  5  9  1  0
  6  7  1  0
  7  8  1  0
  8  9  1  0
  9 10  2  0
 11 12  1  0
 11 19  1  0
 12 13  1  0
 13 14  1  0
 14 15  1  1
 14 19  1  0
 15 16  1  0
 16 17  1  0
 16 18  1  0
M  END
