
     RDKit          3D

 20 21  0  0  0  0  0  0  0  0999 V2000
    3.3590   -0.8210    1.1470 C   0  0  0  0  0  0  0  0  0  0  0  0
    3.2570   -0.0580   -0.0790 N   0  0  0  0  0  0  0  0  0  0  0  0
    4.4310    0.2250   -0.8160 C   0  0  0  0  0  0  0  0  0  0  0  0
    5.5380   -0.1880   -0.3960 O   0  0  0  0  0  0  0  0  0  0  0  0
    4.4340    0.9460   -1.9960 O   0  0  0  0  0  0  0  0  0  0  0  0
    1.9710    0.3740   -0.4870 C   0  0  0  0  0  0  0  0  0  0  0  0
    1.8900    1.0350   -1.5510 O   0  0  0  0  0  0  0  0  0  0  0  0
    0.8680    0.0800    0.2490 O   0  0  0  0  0  0  0  0  0  0  0  0
   -0.4590    0.4890   -0.1150 C   0  0  2  0  0  0  0  0  0  0  0  0
   -0.9300    1.3810    1.0080 C   0  0  0  0  0  0  0  0  0  0  0  0
   -2.3860    1.6320    1.0400 C   0  0  0  0  0  0  0  0  0  0  0  0
   -3.2590    0.4510    0.7950 C   0  0  0  0  0  0  0  0  0  0  0  0
   -2.6540   -0.6280    0.1010 N   0  0  0  0  0  0  0  0  0  0  0  0
   -3.4910   -1.7250   -0.2910 C   0  0  0  0  0  0  0  0  0  0  0  0
   -4.5690   -1.9880    0.3120 O   0  0  0  0  0  0  0  0  0  0  0  0
   -3.1330   -2.5490   -1.3690 O   0  0  0  0  0  0  0  0  0  0  0  0
   -1.9870   -2.3270   -2.0640 O   0  0  0  0  0  0  0  0  0  0  0  0
   -1.1850   -1.2500   -1.6640 C   0  0  0  0  0  0  0  0  0  0  0  0
   -0.4290   -0.7530   -2.5310 O   0  0  0  0  0  0  0  0  0  0  0  0
   -1.2640   -0.7550   -0.2650 C   0  0  1  0  0  0  0  0  0  0  0  0
  1  2  1  0
  2  3  1  0
  2  6  1  0
  3  4  2  0
  3  5  1  0
  6  7  2  0
  6  8  1  0
  9  8  1  1
  9 10  1  0
  9 20  1  0
 10 11  1  0
 11 12  1  0
 12 13  1  0
 13 14  1  0
 13 20  1  0
 14 15  2  0
 14 16  1  0
 16 17  1  0
 17 18  1  0
 18 19  2  0
 20 18  1  6
M  END
