
     RDKit          3D

 32 35  0  0  0  0  0  0  0  0999 V2000
    2.8020   -2.9800    2.9120 C   0  0  0  0  0  0  0  0  0  0  0  0
    2.3190   -2.8730    1.5780 O   0  0  0  0  0  0  0  0  0  0  0  0
    3.0190   -3.3940    0.5010 C   0  0  0  0  0  0  0  0  0  0  0  0
    3.7690   -4.4140    0.7000 N   0  0  0  0  0  0  0  0  0  0  0  0
    2.9100   -2.8030   -0.8260 C   0  0  0  0  0  0  0  0  0  0  0  0
    3.8120   -3.5030   -2.1240 Cl  0  0  0  0  0  0  0  0  0  0  0  0
    2.1140   -1.7290   -1.0100 C   0  0  0  0  0  0  0  0  0  0  0  0
    1.9570   -1.0920   -2.2920 C   0  0  0  0  0  0  0  0  0  0  0  0
    2.7270   -1.7560   -3.3620 N   0  0  0  0  0  0  0  0  0  0  0  0
    1.2570   -0.0570   -2.6150 C   0  0  0  0  0  0  0  0  0  0  0  0
    1.3360    0.3100   -4.1070 C   0  0  0  0  0  0  0  0  0  0  0  0
    0.5160    0.8900   -1.8100 C   0  0  0  0  0  0  0  0  0  0  0  0
   -0.1710    1.8350   -2.4630 C   0  0  0  0  0  0  0  0  0  0  0  0
   -0.9590    2.8690   -1.8300 C   0  0  0  0  0  0  0  0  0  0  0  0
   -1.1320    3.0980   -0.5770 N   0  0  0  0  0  0  0  0  0  0  0  0
   -1.9860    4.2180   -0.3320 C   0  0  0  0  0  0  0  0  0  0  0  0
   -2.5300    4.5440   -1.7090 C   0  0  0  0  0  0  0  0  0  0  0  0
   -1.6820    3.8170   -2.5420 O   0  0  0  0  0  0  0  0  0  0  0  0
    0.4630    0.7950   -0.3670 C   0  0  0  0  0  0  0  0  0  0  0  0
    1.5840    1.0230    0.3840 N   0  0  0  0  0  0  0  0  0  0  0  0
    1.2910    0.8130    1.6760 C   0  0  0  0  0  0  0  0  0  0  0  0
    2.0590    0.9010    2.8360 C   0  0  0  0  0  0  0  0  0  0  0  0
    1.4900    0.6180    4.0580 C   0  0  0  0  0  0  0  0  0  0  0  0
    0.1610    0.2560    4.0550 C   0  0  0  0  0  0  0  0  0  0  0  0
   -0.6080    0.1660    2.9100 C   0  0  0  0  0  0  0  0  0  0  0  0
   -0.0390    0.4490    1.6870 C   0  0  0  0  0  0  0  0  0  0  0  0
   -0.5610    0.4330    0.4430 N   0  0  0  0  0  0  0  0  0  0  0  0
   -1.9040    0.0630    0.0480 C   0  0  2  0  0  0  0  0  0  0  0  0
   -2.9990    0.8030    0.7180 C   0  0  0  0  0  0  0  0  0  0  0  0
   -4.0250   -0.2570    1.1440 C   0  0  0  0  0  0  0  0  0  0  0  0
   -3.6570   -1.4820    0.3140 C   0  0  0  0  0  0  0  0  0  0  0  0
   -2.1500   -1.4190    0.2050 C   0  0  0  0  0  0  0  0  0  0  0  0
  1  2  1  0
  2  3  1  0
  3  4  2  0
  3  5  1  0
  5  6  1  0
  5  7  2  3
  7  8  1  0
  8  9  1  0
  8 10  2  3
 10 11  1  0
 10 12  1  0
 12 13  2  3
 12 19  1  0
 13 14  1  0
 14 15  2  0
 14 18  1  0
 15 16  1  0
 16 17  1  0
 17 18  1  0
 19 20  2  0
 19 27  1  0
 20 21  1  0
 21 22  2  0
 21 26  1  0
 22 23  1  0
 23 24  2  0
 24 25  1  0
 25 26  2  0
 26 27  1  0
 28 27  1  1
 28 29  1  0
 28 32  1  0
 29 30  1  0
 30 31  1  0
 31 32  1  0
M  END
