
     RDKit          3D

 32 33  0  0  0  0  0  0  0  0999 V2000
   -3.6240   -4.1910    3.5040 C   0  0  0  0  0  0  0  0  0  0  0  0
   -4.0390   -4.1990    2.1080 N   0  0  0  0  0  0  0  0  0  0  0  0
   -3.4190   -3.0920    1.4440 C   0  0  0  0  0  0  0  0  0  0  0  0
   -4.0470   -2.4450    0.5980 O   0  0  0  0  0  0  0  0  0  0  0  0
   -2.0510   -2.7390    1.7720 N   0  0  0  0  0  0  0  0  0  0  0  0
   -1.4180   -1.6890    1.1450 C   0  0  0  0  0  0  0  0  0  0  0  0
   -2.1360   -1.0210    0.0760 N   0  0  0  0  0  0  0  0  0  0  0  0
   -1.9550   -1.5340   -1.2420 C   0  0  0  0  0  0  0  0  0  0  0  0
   -2.7910   -0.8460   -2.3050 C   0  0  1  0  0  0  0  0  0  0  0  0
   -4.1600   -0.9290   -2.0350 O   0  0  0  0  0  0  0  0  0  0  0  0
   -4.6800    0.3430   -2.0140 C   0  0  0  0  0  0  0  0  0  0  0  0
   -5.8660    0.7210   -1.8010 O   0  0  0  0  0  0  0  0  0  0  0  0
   -3.6050    1.2250   -2.2860 N   0  0  0  0  0  0  0  0  0  0  0  0
   -2.5140    0.5850   -2.4600 C   0  0  0  0  0  0  0  0  0  0  0  0
   -0.8870    1.2170   -2.8540 S   0  0  0  0  0  0  0  0  0  0  0  0
   -0.8450    3.0050   -2.9780 C   0  0  0  0  0  0  0  0  0  0  0  0
   -0.1540   -1.2810    1.4040 C   0  0  0  0  0  0  0  0  0  0  0  0
    0.2830   -0.1670    0.6340 N   0  0  0  0  0  0  0  0  0  0  0  0
    1.5060    0.4770    0.6540 C   0  0  0  0  0  0  0  0  0  0  0  0
    2.4130    0.1030    1.3980 O   0  0  0  0  0  0  0  0  0  0  0  0
    1.8120    1.6140   -0.1740 N   0  0  0  0  0  0  0  0  0  0  0  0
    3.1270    2.2160   -0.0820 C   0  0  2  0  0  0  0  0  0  0  0  0
    3.0550    3.6990    0.1560 C   0  0  0  0  0  0  0  0  0  0  0  0
    3.3930    4.3240   -1.1680 C   0  0  0  0  0  0  0  0  0  0  0  0
    3.5910    3.3220   -2.0860 O   0  0  0  0  0  0  0  0  0  0  0  0
    3.8500    2.1490   -1.4100 C   0  0  1  0  0  0  0  0  0  0  0  0
    5.3170    2.0140   -1.2170 C   0  0  0  0  0  0  0  0  0  0  0  0
    5.8350    0.8710   -0.5560 N   0  0  0  0  0  0  0  0  0  0  0  0
    6.0980    2.8990   -1.6330 O   0  0  0  0  0  0  0  0  0  0  0  0
    0.6120   -1.9750    2.3990 C   0  0  0  0  0  0  0  0  0  0  0  0
    1.9400   -1.7560    2.8530 N   0  0  0  0  0  0  0  0  0  0  0  0
    0.0560   -2.9660    3.0140 O   0  0  0  0  0  0  0  0  0  0  0  0
  1  2  1  0
  2  3  1  0
  3  4  2  0
  3  5  1  0
  5  6  1  0
  6  7  1  0
  6 17  2  3
  7  8  1  0
  9  8  1  1
  9 10  1  0
  9 14  1  0
 10 11  1  0
 11 12  2  0
 11 13  1  0
 13 14  2  0
 14 15  1  0
 15 16  1  0
 17 18  1  0
 17 30  1  0
 18 19  1  0
 19 20  2  0
 19 21  1  0
 22 21  1  6
 22 23  1  0
 22 26  1  0
 23 24  1  0
 24 25  1  0
 25 26  1  0
 26 27  1  1
 27 28  1  0
 27 29  2  0
 30 31  1  0
 30 32  2  0
M  CHG  1   2   1
M  END
