
     RDKit          3D

 32 33  0  0  0  0  0  0  0  0999 V2000
    1.4110   -2.8320   -0.4350 N   0  0  0  0  0  0  0  0  0  0  0  0
    0.0750   -3.3530   -0.3740 C   0  0  0  0  0  0  0  0  0  0  0  0
   -0.2910   -4.9810   -0.0600 S   0  0  0  0  0  0  0  0  0  0  0  0
   -1.9540   -5.3150   -0.0520 C   0  0  0  0  0  0  0  0  0  0  0  0
   -2.4640   -6.4690    0.1620 O   0  0  0  0  0  0  0  0  0  0  0  0
   -2.7270   -4.2480   -0.2940 N   0  0  0  0  0  0  0  0  0  0  0  0
   -4.1810   -4.5140   -0.2900 C   0  0  0  0  0  0  0  0  0  0  0  0
   -4.7630   -4.3460    1.0040 N   0  0  0  0  0  0  0  0  0  0  0  0
   -2.3140   -2.9980   -0.5300 C   0  0  0  0  0  0  0  0  0  0  0  0
   -3.2610   -2.1520   -0.7340 O   0  0  0  0  0  0  0  0  0  0  0  0
   -1.0450   -2.5210   -0.5810 C   0  0  0  0  0  0  0  0  0  0  0  0
   -0.6950   -1.1050   -0.8520 C   0  0  1  0  0  0  0  0  0  0  0  0
   -1.8600   -0.1840   -1.0890 C   0  0  0  0  0  0  0  0  0  0  0  0
   -1.3910    1.1800   -1.3490 N   0  0  0  0  0  0  0  0  0  0  0  0
   -2.4600    2.1240   -1.3870 C   0  0  0  0  0  0  0  0  0  0  0  0
   -3.5080    1.9520   -0.3410 C   0  0  1  0  0  0  0  0  0  0  0  0
   -2.9310    2.0660    0.9450 O   0  0  0  0  0  0  0  0  0  0  0  0
   -4.4460    3.1640   -0.4490 C   0  0  0  0  0  0  0  0  0  0  0  0
   -5.0640    3.1330   -1.6970 O   0  0  0  0  0  0  0  0  0  0  0  0
    0.2040   -0.5690    0.1470 N   0  0  0  0  0  0  0  0  0  0  0  0
    1.4160    0.0360   -0.2630 C   0  0  0  0  0  0  0  0  0  0  0  0
    1.7190    0.1160   -1.4960 O   0  0  0  0  0  0  0  0  0  0  0  0
    2.3880    0.6060    0.7230 C   0  0  0  0  0  0  0  0  0  0  0  0
    3.4940    1.1400    0.0610 O   0  0  0  0  0  0  0  0  0  0  0  0
    4.5140    1.7200    0.8010 C   0  0  0  0  0  0  0  0  0  0  0  0
    4.4640    1.7750    2.0730 O   0  0  0  0  0  0  0  0  0  0  0  0
    5.6710    2.2840    0.2050 N   0  0  0  0  0  0  0  0  0  0  0  0
    6.7120    2.8760    0.9600 C   0  0  0  0  0  0  0  0  0  0  0  0
    7.8700    3.4500    0.4910 C   0  0  0  0  0  0  0  0  0  0  0  0
    8.6090    3.9050    1.5820 C   0  0  0  0  0  0  0  0  0  0  0  0
    7.8720    3.5900    2.6620 N   0  0  0  0  0  0  0  0  0  0  0  0
    6.7440    2.9780    2.2900 N   0  0  0  0  0  0  0  0  0  0  0  0
  1  2  1  0
  2  3  1  0
  2 11  2  0
  3  4  1  0
  4  5  2  0
  4  6  1  0
  6  7  1  0
  6  9  1  0
  7  8  1  0
  9 10  2  0
  9 11  1  0
 11 12  1  0
 12 13  1  1
 12 20  1  0
 13 14  1  0
 14 15  1  0
 15 16  1  0
 16 17  1  1
 16 18  1  0
 18 19  1  0
 20 21  1  0
 21 22  2  0
 21 23  1  0
 23 24  1  0
 24 25  1  0
 25 26  2  0
 25 27  1  0
 27 28  1  0
 28 29  1  0
 28 32  2  0
 29 30  2  0
 30 31  1  0
 31 32  1  0
M  CHG  2   8   1  14   1
M  END
