
     RDKit          3D

 32 33  0  0  0  0  0  0  0  0999 V2000
    8.0790    1.1320    2.4310 N   0  0  0  0  0  0  0  0  0  0  0  0
    8.5650   -0.1020    1.6210 S   0  0  2  0  0  0  0  0  0  0  0  0
   10.0680    0.1500    1.5830 O   0  0  0  0  0  0  0  0  0  0  0  0
    7.9940   -0.0470   -0.0080 N   0  0  0  0  0  0  0  0  0  0  0  0
    6.6170    0.1560   -0.2780 C   0  0  0  0  0  0  0  0  0  0  0  0
    5.8330    0.2980    0.7190 O   0  0  0  0  0  0  0  0  0  0  0  0
    6.1000    0.2030   -1.6080 N   0  0  0  0  0  0  0  0  0  0  0  0
    4.8140    0.3810   -1.8860 O   0  0  0  0  0  0  0  0  0  0  0  0
    4.3050    1.6500   -1.7360 C   0  0  0  0  0  0  0  0  0  0  0  0
    2.8090    1.5550   -2.1230 C   0  0  0  0  0  0  0  0  0  0  0  0
    2.2510    0.6100   -1.1810 N   0  0  0  0  0  0  0  0  0  0  0  0
    0.8730    0.1760   -1.2150 C   0  0  0  0  0  0  0  0  0  0  0  0
    0.1330    0.5910   -2.0750 O   0  0  0  0  0  0  0  0  0  0  0  0
    0.4150   -0.7950   -0.1500 C   0  0  2  0  0  0  0  0  0  0  0  0
    1.3320   -1.9310    0.0260 C   0  0  0  0  0  0  0  0  0  0  0  0
    1.4860   -2.7110   -1.2050 N   0  0  0  0  0  0  0  0  0  0  0  0
   -0.9250   -1.2040   -0.3860 N   0  0  0  0  0  0  0  0  0  0  0  0
   -2.0320   -0.3820   -0.0230 C   0  0  0  0  0  0  0  0  0  0  0  0
   -1.7690    0.7450    0.5060 O   0  0  0  0  0  0  0  0  0  0  0  0
   -3.4480   -0.7320   -0.2140 C   0  0  0  0  0  0  0  0  0  0  0  0
   -4.2330    0.3950   -0.0090 O   0  0  0  0  0  0  0  0  0  0  0  0
   -5.5810    0.5280   -0.0390 C   0  0  0  0  0  0  0  0  0  0  0  0
   -6.2250    0.6330   -1.2110 N   0  0  0  0  0  0  0  0  0  0  0  0
   -7.5790    0.7630   -1.2660 C   0  0  0  0  0  0  0  0  0  0  0  0
   -8.1480    0.8600   -2.3730 O   0  0  0  0  0  0  0  0  0  0  0  0
   -8.3270    0.7910   -0.1340 C   0  0  0  0  0  0  0  0  0  0  0  0
   -7.7180    0.6870    1.1000 C   0  0  0  0  0  0  0  0  0  0  0  0
   -8.4420    0.7280    2.2750 C   0  0  0  0  0  0  0  0  0  0  0  0
   -7.7710    0.6420    3.4670 C   0  0  0  0  0  0  0  0  0  0  0  0
   -6.4380    0.5180    3.4940 N   0  0  0  0  0  0  0  0  0  0  0  0
   -5.7370    0.4770    2.3480 C   0  0  0  0  0  0  0  0  0  0  0  0
   -6.3380    0.5570    1.1060 C   0  0  0  0  0  0  0  0  0  0  0  0
  1  2  2  0
  2  3  2  0
  2  4  1  6
  4  5  1  0
  5  6  2  0
  5  7  1  0
  7  8  1  0
  8  9  1  0
  9 10  1  0
 10 11  1  0
 11 12  1  0
 12 13  2  0
 12 14  1  0
 14 15  1  6
 14 17  1  0
 15 16  1  0
 17 18  1  0
 18 19  2  0
 18 20  1  0
 20 21  1  0
 21 22  1  0
 22 23  1  0
 22 32  2  0
 23 24  1  0
 24 25  2  0
 24 26  1  0
 26 27  2  0
 27 28  1  0
 27 32  1  0
 28 29  2  0
 29 30  1  0
 30 31  2  0
 31 32  1  0
M  CHG  2   1   1  16   1
M  END
