
     RDKit          3D

 32 35  0  0  0  0  0  0  0  0999 V2000
   -6.9590   -4.6250   -0.5230 C   0  0  0  0  0  0  0  0  0  0  0  0
   -6.5760   -3.3210   -1.2330 C   0  0  0  0  0  0  0  0  0  0  0  0
   -5.1620   -3.2350   -1.5000 C   0  0  0  0  0  0  0  0  0  0  0  0
   -4.2360   -2.4150   -1.1380 C   0  0  0  0  0  0  0  0  0  0  0  0
   -4.3710   -1.2650   -0.2940 C   0  0  0  0  0  0  0  0  0  0  0  0
   -3.3640   -0.4140    0.0590 C   0  0  0  0  0  0  0  0  0  0  0  0
   -2.0070   -0.6070   -0.4150 C   0  0  0  0  0  0  0  0  0  0  0  0
   -1.7860   -1.4270   -1.3780 O   0  0  0  0  0  0  0  0  0  0  0  0
   -0.8270   -0.0120    0.0610 N   0  0  0  0  0  0  0  0  0  0  0  0
    0.4880   -0.1710   -0.4350 C   0  0  0  0  0  0  0  0  0  0  0  0
    0.9420   -1.0700   -1.3490 C   0  0  0  0  0  0  0  0  0  0  0  0
    2.2790   -1.1120   -1.7720 C   0  0  0  0  0  0  0  0  0  0  0  0
    3.1950   -0.2240   -1.2600 C   0  0  0  0  0  0  0  0  0  0  0  0
    4.5160   -0.0050   -1.4510 N   0  0  0  0  0  0  0  0  0  0  0  0
    4.9190    1.0160   -0.6760 C   0  0  0  0  0  0  0  0  0  0  0  0
    6.2840    1.5380   -0.6140 C   0  0  0  0  0  0  0  0  0  0  0  0
    6.5470    2.4980    0.1490 O   0  0  0  0  0  0  0  0  0  0  0  0
    7.3320    0.9920   -1.3920 N   0  0  0  0  0  0  0  0  0  0  0  0
    8.6900    1.4370   -1.3930 C   0  0  0  0  0  0  0  0  0  0  0  0
    9.2540    1.2790    0.0010 C   0  0  0  0  0  0  0  0  0  0  0  0
    9.1540   -0.2100    0.3410 C   0  0  0  0  0  0  0  0  0  0  0  0
    3.8510    1.4230   -0.0110 N   0  0  0  0  0  0  0  0  0  0  0  0
    2.7660    0.6970   -0.3330 C   0  0  0  0  0  0  0  0  0  0  0  0
    1.4530    0.7160    0.0630 C   0  0  0  0  0  0  0  0  0  0  0  0
   -3.8710    0.6460    0.9000 C   0  0  0  0  0  0  0  0  0  0  0  0
   -3.3960    1.8220    1.2450 C   0  0  0  0  0  0  0  0  0  0  0  0
   -1.9230    2.5910    0.7820 Cl  0  0  0  0  0  0  0  0  0  0  0  0
   -4.2220    2.6470    2.2330 C   0  0  1  0  0  0  0  0  0  0  0  0
   -3.6700    3.9210    2.7500 C   0  0  0  0  0  0  0  0  0  0  0  0
   -4.6650    3.9800    1.6600 C   0  0  0  0  0  0  0  0  0  0  0  0
   -5.2980    0.3680    1.0870 N   0  0  0  0  0  0  0  0  0  0  0  0
   -5.6270   -0.8110    0.3410 C   0  0  0  0  0  0  0  0  0  0  0  0
  1  2  1  0
  2  3  1  0
  3  4  2  3
  4  5  1  0
  5  6  2  0
  5 32  1  0
  6  7  1  0
  6 25  1  0
  7  8  2  0
  7  9  1  0
  9 10  1  0
 10 11  2  0
 10 24  1  0
 11 12  1  0
 12 13  2  0
 13 14  1  0
 13 23  1  0
 14 15  1  0
 15 16  1  0
 15 22  2  0
 16 17  2  0
 16 18  1  0
 18 19  1  0
 19 20  1  0
 20 21  1  0
 22 23  1  0
 23 24  2  0
 25 26  2  3
 25 31  1  0
 26 27  1  0
 28 26  1  6
 28 29  1  0
 28 30  1  0
 29 30  1  0
 31 32  1  0
M  END
