
     RDKit          3D

 25 27  0  0  0  0  0  0  0  0999 V2000
   -6.6020    0.6520   -0.0210 C   0  0  0  0  0  0  0  0  0  0  0  0
   -5.7210   -0.5440   -0.1920 C   0  0  0  0  0  0  0  0  0  0  0  0
   -6.2560   -1.5740   -0.6610 O   0  0  0  0  0  0  0  0  0  0  0  0
   -4.3160   -0.5490    0.1550 C   0  0  0  0  0  0  0  0  0  0  0  0
   -3.3960   -0.1880   -0.8010 C   0  0  0  0  0  0  0  0  0  0  0  0
   -3.8350    0.1970   -2.1530 C   0  0  0  0  0  0  0  0  0  0  0  0
   -2.0900   -0.1930   -0.4800 N   0  0  0  0  0  0  0  0  0  0  0  0
   -1.6400   -0.5310    0.7240 C   0  0  0  0  0  0  0  0  0  0  0  0
   -0.1960   -0.5170    1.0160 C   0  0  0  0  0  0  0  0  0  0  0  0
    0.2260   -0.8690    2.2560 C   0  0  0  0  0  0  0  0  0  0  0  0
    1.9750   -0.7140    2.1620 S   0  0  0  0  0  0  0  0  0  0  0  0
    2.0240   -0.2000    0.5070 C   0  0  0  0  0  0  0  0  0  0  0  0
    3.2570    0.1330   -0.2850 C   0  0  0  0  0  0  0  0  0  0  0  0
    3.1180    0.4870   -1.4650 O   0  0  0  0  0  0  0  0  0  0  0  0
    4.4650    0.0540    0.2530 O   0  0  0  0  0  0  0  0  0  0  0  0
    5.7290    0.2860   -0.2030 C   0  0  0  0  0  0  0  0  0  0  0  0
    6.2740    0.6720   -1.3280 C   0  0  0  0  0  0  0  0  0  0  0  0
    5.3040    1.0930   -2.9180 Br  0  0  0  0  0  0  0  0  0  0  0  0
    7.7610    0.7330   -1.1780 C   0  0  0  0  0  0  0  0  0  0  0  0
    7.9760    0.3330    0.1720 N   0  0  0  0  0  0  0  0  0  0  0  0
    6.8690    0.0790    0.7350 C   0  0  0  0  0  0  0  0  0  0  0  0
    0.7520   -0.1740    0.1260 C   0  0  0  0  0  0  0  0  0  0  0  0
   -2.5570   -0.8830    1.6510 N   0  0  0  0  0  0  0  0  0  0  0  0
   -3.8690   -0.9000    1.3990 C   0  0  0  0  0  0  0  0  0  0  0  0
   -4.6890   -1.2290    2.2740 O   0  0  0  0  0  0  0  0  0  0  0  0
  1  2  1  0
  2  3  2  0
  2  4  1  0
  4  5  2  0
  4 24  1  0
  5  6  1  0
  5  7  1  0
  7  8  1  0
  8  9  1  0
  8 23  2  0
  9 10  2  0
  9 22  1  0
 10 11  1  0
 11 12  1  0
 12 13  1  0
 12 22  2  0
 13 14  2  0
 13 15  1  0
 15 16  1  0
 16 17  2  0
 16 21  1  0
 17 18  1  0
 17 19  1  0
 19 20  1  0
 20 21  2  0
 23 24  1  0
 24 25  2  0
M  END
