
     RDKit          3D

 21 22  0  0  0  0  0  0  0  0999 V2000
   -2.1520   -1.9930    2.2990 N   0  0  0  0  0  0  0  0  0  0  0  0
   -1.6690   -2.0980    0.9810 C   0  0  0  0  0  0  0  0  0  0  0  0
   -1.3830   -3.2140    0.5010 O   0  0  0  0  0  0  0  0  0  0  0  0
   -1.4980   -0.8830    0.1570 C   0  0  1  0  0  0  0  0  0  0  0  0
   -0.0340   -0.8030   -0.1800 C   0  0  0  0  0  0  0  0  0  0  0  0
    0.5010   -1.7550   -0.8040 O   0  0  0  0  0  0  0  0  0  0  0  0
    0.7690    0.3040    0.1780 N   0  0  0  0  0  0  0  0  0  0  0  0
    2.1780    0.3760   -0.1490 C   0  0  1  0  0  0  0  0  0  0  0  0
    2.4740    1.5730   -1.0430 C   0  0  0  0  0  0  0  0  0  0  0  0
    4.2310    1.4820   -1.4900 S   0  0  0  0  0  0  0  0  0  0  0  0
    4.9960    0.4360   -0.3640 O   0  0  0  0  0  0  0  0  0  0  0  0
    4.4310    0.5520    0.8810 N   0  0  0  0  0  0  0  0  0  0  0  0
    3.0260    0.5220    1.0550 C   0  0  0  0  0  0  0  0  0  0  0  0
    2.5630    0.6180    2.2130 O   0  0  0  0  0  0  0  0  0  0  0  0
   -2.2260   -1.0950   -1.1380 C   0  0  0  0  0  0  0  0  0  0  0  0
   -2.8050    0.1280   -1.6990 C   0  0  0  0  0  0  0  0  0  0  0  0
   -3.2540    0.0850   -2.8730 O   0  0  0  0  0  0  0  0  0  0  0  0
   -2.8990    1.3720   -1.0150 N   0  0  0  0  0  0  0  0  0  0  0  0
   -2.3950    1.4110    0.3160 C   0  0  0  0  0  0  0  0  0  0  0  0
   -2.4790    2.5110    0.9190 O   0  0  0  0  0  0  0  0  0  0  0  0
   -1.8620    0.2730    0.8410 O   0  0  0  0  0  0  0  0  0  0  0  0
  1  2  1  0
  2  3  2  0
  4  2  1  1
  4  5  1  0
  4 15  1  0
  4 21  1  0
  5  6  2  0
  5  7  1  0
  8  7  1  1
  8  9  1  0
  8 13  1  0
  9 10  1  0
 10 11  1  0
 11 12  1  0
 12 13  1  0
 13 14  2  0
 15 16  1  0
 16 17  2  0
 16 18  1  0
 18 19  1  0
 19 20  2  0
 19 21  1  0
M  END
