
     RDKit          3D

 25 27  0  0  0  0  0  0  0  0999 V2000
   -5.2870    1.2070    2.3320 C   0  0  0  0  0  0  0  0  0  0  0  0
   -5.3240   -0.2820    2.0640 C   0  0  0  0  0  0  0  0  0  0  0  0
   -4.2230   -0.5660    1.2080 O   0  0  0  0  0  0  0  0  0  0  0  0
   -2.9210   -0.3240    1.5500 C   0  0  0  0  0  0  0  0  0  0  0  0
   -2.7270    0.1770    2.6910 O   0  0  0  0  0  0  0  0  0  0  0  0
   -1.7970   -0.6230    0.6550 C   0  0  0  0  0  0  0  0  0  0  0  0
   -1.9410   -1.1370   -0.5250 O   0  0  0  0  0  0  0  0  0  0  0  0
   -0.7890   -1.3100   -1.1290 C   0  0  0  0  0  0  0  0  0  0  0  0
   -0.6850   -1.8720   -2.4630 C   0  0  0  0  0  0  0  0  0  0  0  0
    0.4690   -2.0840   -3.1670 C   0  0  0  0  0  0  0  0  0  0  0  0
    0.1090   -2.6180   -4.3490 N   0  0  0  0  0  0  0  0  0  0  0  0
   -1.2010   -2.7440   -4.4070 N   0  0  0  0  0  0  0  0  0  0  0  0
   -1.7240   -2.2940   -3.2630 C   0  0  0  0  0  0  0  0  0  0  0  0
    0.1910   -0.8730   -0.2770 C   0  0  0  0  0  0  0  0  0  0  0  0
    1.9490   -0.9150   -0.6810 S   0  0  0  0  0  0  0  0  0  0  0  0
    2.3980    0.6320   -1.4870 C   0  0  0  0  0  0  0  0  0  0  0  0
    2.4630    1.7700   -0.5170 C   0  0  0  0  0  0  0  0  0  0  0  0
    3.5560    1.4920    0.4030 N   0  0  0  0  0  0  0  0  0  0  0  0
    3.5810    0.8440    1.5490 C   0  0  0  0  0  0  0  0  0  0  0  0
    4.8840    0.8500    2.0630 C   0  0  0  0  0  0  0  0  0  0  0  0
    5.6530    1.5400    1.1610 C   0  0  0  0  0  0  0  0  0  0  0  0
    7.5210    1.9010    1.2780 Br  0  0  0  0  0  0  0  0  0  0  0  0
    4.8150    1.9270    0.1460 C   0  0  0  0  0  0  0  0  0  0  0  0
   -0.4500   -0.4420    0.8460 C   0  0  0  0  0  0  0  0  0  0  0  0
    0.1420    0.0850    1.9770 O   0  0  0  0  0  0  0  0  0  0  0  0
  1  2  1  0
  2  3  1  0
  3  4  1  0
  4  5  2  0
  4  6  1  0
  6  7  1  0
  6 24  2  0
  7  8  1  0
  8  9  1  0
  8 14  2  0
  9 10  1  0
  9 13  2  0
 10 11  2  0
 11 12  1  0
 12 13  1  0
 14 15  1  0
 14 24  1  0
 15 16  1  0
 16 17  1  0
 17 18  1  0
 18 19  1  0
 18 23  1  0
 19 20  2  0
 20 21  1  0
 21 22  1  0
 21 23  2  0
 24 25  1  0
M  END
