
     RDKit          3D

 21 22  0  0  0  0  0  0  0  0999 V2000
    6.9560   -0.4550    0.5410 N   0  0  0  0  0  0  0  0  0  0  0  0
    5.9300    0.5020    0.2000 C   0  0  0  0  0  0  0  0  0  0  0  0
    5.9760    1.6510    0.6600 O   0  0  0  0  0  0  0  0  0  0  0  0
    4.9230    0.0630   -0.6180 N   0  0  0  0  0  0  0  0  0  0  0  0
    3.8660    0.8570   -1.0360 O   0  0  0  0  0  0  0  0  0  0  0  0
    2.7940    0.3440   -0.3550 C   0  0  0  0  0  0  0  0  0  0  0  0
    1.4620    0.8910   -0.6530 C   0  0  0  0  0  0  0  0  0  0  0  0
    1.2220    2.0440   -1.0570 O   0  0  0  0  0  0  0  0  0  0  0  0
    0.3260    0.0260   -0.4540 N   0  0  0  0  0  0  0  0  0  0  0  0
   -0.9890    0.5080   -0.2780 C   0  0  0  0  0  0  0  0  0  0  0  0
   -1.2330    1.7030   -0.3540 O   0  0  0  0  0  0  0  0  0  0  0  0
   -2.0530   -0.4760    0.0310 C   0  0  1  0  0  0  0  0  0  0  0  0
   -1.6770   -1.4460    1.0300 N   0  0  0  0  0  0  0  0  0  0  0  0
   -2.8850   -1.7970    1.6440 C   0  0  0  0  0  0  0  0  0  0  0  0
   -3.1280   -2.9060    2.2370 O   0  0  0  0  0  0  0  0  0  0  0  0
   -3.7810   -0.7220    1.4930 O   0  0  0  0  0  0  0  0  0  0  0  0
   -2.9630    0.3400    1.0850 C   0  0  2  0  0  0  0  0  0  0  0  0
   -3.5560    1.3860    0.4990 O   0  0  0  0  0  0  0  0  0  0  0  0
   -4.7610    1.1140   -0.1280 C   0  0  0  0  0  0  0  0  0  0  0  0
   -4.8070   -0.1770   -0.8520 C   0  0  0  0  0  0  0  0  0  0  0  0
   -3.1830   -0.9010   -1.2330 S   0  0  0  0  0  0  0  0  0  0  0  0
  1  2  1  0
  2  3  2  0
  2  4  1  0
  4  5  1  0
  5  6  1  0
  6  7  1  0
  7  8  2  0
  7  9  1  0
  9 10  1  0
 10 11  2  0
 12 10  1  6
 12 13  1  0
 12 17  1  0
 12 21  1  0
 13 14  1  0
 14 15  2  0
 14 16  1  0
 17 16  1  6
 17 18  1  0
 18 19  1  0
 19 20  1  0
 20 21  1  0
M  END
