
     RDKit          3D

 21 22  0  0  0  0  0  0  0  0999 V2000
   -2.8420   -1.8730   -2.4240 C   0  0  0  0  0  0  0  0  0  0  0  0
   -3.1640   -1.3790   -1.1400 O   0  0  0  0  0  0  0  0  0  0  0  0
   -2.2730   -0.4430   -0.5830 C   0  0  0  0  0  0  0  0  0  0  0  0
   -1.1460   -0.0160   -1.2310 C   0  0  0  0  0  0  0  0  0  0  0  0
   -0.3140    0.9120   -0.6200 C   0  0  0  0  0  0  0  0  0  0  0  0
    0.9060    1.4030   -1.3280 C   0  0  0  0  0  0  0  0  0  0  0  0
    2.0760    0.5120   -1.1920 C   0  0  0  0  0  0  0  0  0  0  0  0
    2.4230   -0.3410   -2.2300 C   0  0  0  0  0  0  0  0  0  0  0  0
    3.4850   -1.1480   -2.0970 N   0  0  0  0  0  0  0  0  0  0  0  0
    4.2600   -1.1900   -0.9970 C   0  0  0  0  0  0  0  0  0  0  0  0
    5.3570   -2.0800   -0.9780 N   0  0  0  0  0  0  0  0  0  0  0  0
    3.9220   -0.3620    0.0120 N   0  0  0  0  0  0  0  0  0  0  0  0
    2.8690    0.4680   -0.0680 C   0  0  0  0  0  0  0  0  0  0  0  0
    2.6230    1.3100    1.0610 N   0  0  0  0  0  0  0  0  0  0  0  0
   -0.6440    1.3820    0.6300 C   0  0  0  0  0  0  0  0  0  0  0  0
   -1.7770    0.9620    1.2970 C   0  0  0  0  0  0  0  0  0  0  0  0
   -2.1220    1.4260    2.5560 O   0  0  0  0  0  0  0  0  0  0  0  0
   -1.2310    2.3780    3.1490 C   0  0  0  0  0  0  0  0  0  0  0  0
   -2.5980    0.0440    0.6880 C   0  0  0  0  0  0  0  0  0  0  0  0
   -3.7400   -0.3830    1.3510 O   0  0  0  0  0  0  0  0  0  0  0  0
   -3.6100   -1.5290    2.1840 C   0  0  0  0  0  0  0  0  0  0  0  0
  1  2  1  0
  2  3  1  0
  3  4  2  0
  3 19  1  0
  4  5  1  0
  5  6  1  0
  5 15  2  0
  6  7  1  0
  7  8  2  0
  7 13  1  0
  8  9  1  0
  9 10  2  0
 10 11  1  0
 10 12  1  0
 12 13  2  0
 13 14  1  0
 15 16  1  0
 16 17  1  0
 16 19  2  0
 17 18  1  0
 19 20  1  0
 20 21  1  0
M  END
