
     RDKit          3D

 21 22  0  0  0  0  0  0  0  0999 V2000
    6.5720   -1.0020    0.6710 C   0  0  0  0  0  0  0  0  0  0  0  0
    5.4090   -0.3710    0.0280 C   0  0  0  0  0  0  0  0  0  0  0  0
    5.2580    0.8790    0.0200 O   0  0  0  0  0  0  0  0  0  0  0  0
    4.4130   -1.1630   -0.6090 N   0  0  0  0  0  0  0  0  0  0  0  0
    3.3420   -0.5590   -1.2010 O   0  0  0  0  0  0  0  0  0  0  0  0
    2.2700   -0.0540   -0.4680 C   0  0  0  0  0  0  0  0  0  0  0  0
    2.3600   -0.1970    0.7920 O   0  0  0  0  0  0  0  0  0  0  0  0
    1.1510    0.5760   -1.0480 N   0  0  0  0  0  0  0  0  0  0  0  0
    0.1280    1.0500   -0.2600 N   0  0  0  0  0  0  0  0  0  0  0  0
   -1.1010    1.5520   -0.7860 C   0  0  0  0  0  0  0  0  0  0  0  0
   -1.2030    1.5360   -2.0420 O   0  0  0  0  0  0  0  0  0  0  0  0
   -2.1170    2.0300    0.1330 C   0  0  2  0  0  0  0  0  0  0  0  0
   -1.6470    1.9110    1.4470 O   0  0  0  0  0  0  0  0  0  0  0  0
   -3.4640    1.4170    0.0450 C   0  0  1  0  0  0  0  0  0  0  0  0
   -4.0950    1.4540   -1.2480 N   0  0  0  0  0  0  0  0  0  0  0  0
   -5.1700    0.5900   -1.0100 O   0  0  0  0  0  0  0  0  0  0  0  0
   -4.5920   -0.4820   -0.2580 C   0  0  0  0  0  0  0  0  0  0  0  0
   -3.5550   -0.0090    0.3920 C   0  0  0  0  0  0  0  0  0  0  0  0
   -2.9020   -1.4180    1.2890 S   0  0  0  0  0  0  0  0  0  0  0  0
   -3.8370   -2.6420    0.2660 C   0  0  0  0  0  0  0  0  0  0  0  0
   -4.8950   -1.7930   -0.1030 O   0  0  0  0  0  0  0  0  0  0  0  0
  1  2  1  0
  2  3  2  0
  2  4  1  0
  4  5  1  0
  5  6  1  0
  6  7  2  0
  6  8  1  0
  8  9  1  0
  9 10  1  0
 10 11  2  0
 10 12  1  0
 12 13  1  1
 12 14  1  0
 14 15  1  6
 14 18  1  0
 15 16  1  0
 16 17  1  0
 17 18  2  0
 17 21  1  0
 18 19  1  0
 19 20  1  0
 20 21  1  0
M  END
