
     RDKit          3D

 26 27  0  0  0  0  0  0  0  0999 V2000
    9.3740    1.9070    0.2850 C   0  0  0  0  0  0  0  0  0  0  0  0
    8.0670    1.4720    0.6170 O   0  0  0  0  0  0  0  0  0  0  0  0
    6.9510    2.0310    0.0170 C   0  0  0  0  0  0  0  0  0  0  0  0
    7.0870    2.9290   -0.8280 O   0  0  0  0  0  0  0  0  0  0  0  0
    5.6440    1.5320    0.4100 C   0  0  0  0  0  0  0  0  0  0  0  0
    5.4910    0.5750    1.3090 C   0  0  0  0  0  0  0  0  0  0  0  0
    4.1740    0.0920    1.6860 C   0  0  0  0  0  0  0  0  0  0  0  0
    3.9380   -0.9000    2.6130 C   0  0  0  0  0  0  0  0  0  0  0  0
    2.5720   -1.0510    2.6720 C   0  0  0  0  0  0  0  0  0  0  0  0
    2.0230   -0.1720    1.8040 C   0  0  0  0  0  0  0  0  0  0  0  0
    0.6110    0.0780    1.4800 C   0  0  0  0  0  0  0  0  0  0  0  0
   -0.2830   -0.5890    2.0590 O   0  0  0  0  0  0  0  0  0  0  0  0
    0.2100    1.0490    0.5330 N   0  0  0  0  0  0  0  0  0  0  0  0
   -1.1510    1.3490    0.1600 C   0  0  0  0  0  0  0  0  0  0  0  0
   -1.7890    0.1400   -0.4150 C   0  0  2  0  0  0  0  0  0  0  0  0
   -1.0130   -0.3150   -1.6500 C   0  0  0  0  0  0  0  0  0  0  0  0
   -1.3750   -1.8020   -1.7800 C   0  0  2  0  0  0  0  0  0  0  0  0
   -0.6080   -2.4800   -2.8610 C   0  0  0  0  0  0  0  0  0  0  0  0
   -2.8710   -1.9200   -1.9120 C   0  0  0  0  0  0  0  0  0  0  0  0
   -3.5700   -0.5930   -1.9450 C   0  0  0  0  0  0  0  0  0  0  0  0
   -3.2150    0.3390   -0.8530 C   0  0  1  0  0  0  0  0  0  0  0  0
   -4.0340    0.3150    0.3130 N   0  0  0  0  0  0  0  0  0  0  0  0
   -5.4190    0.6000    0.1280 C   0  0  0  0  0  0  0  0  0  0  0  0
   -6.0670    0.5340    1.5150 C   0  0  0  0  0  0  0  0  0  0  0  0
   -7.4780    0.8070    1.4540 N   0  0  0  0  0  0  0  0  0  0  0  0
    3.0010    0.4890    1.2380 O   0  0  0  0  0  0  0  0  0  0  0  0
  1  2  1  0
  2  3  1  0
  3  4  2  0
  3  5  1  0
  5  6  2  3
  6  7  1  0
  7  8  2  0
  7 26  1  0
  8  9  1  0
  9 10  2  0
 10 11  1  0
 10 26  1  0
 11 12  2  0
 11 13  1  0
 13 14  1  0
 15 14  1  6
 15 16  1  0
 15 21  1  0
 16 17  1  0
 17 18  1  6
 17 19  1  0
 19 20  1  0
 20 21  1  0
 21 22  1  1
 22 23  1  0
 23 24  1  0
 24 25  1  0
M  END
