
     RDKit          3D

 26 28  0  0  0  0  0  0  0  0999 V2000
   -5.2310    3.9580    0.0280 C   0  0  0  0  0  0  0  0  0  0  0  0
   -4.6090    2.7290    0.6140 C   0  0  0  0  0  0  0  0  0  0  0  0
   -3.9070    1.9330   -0.4350 C   0  0  0  0  0  0  0  0  0  0  0  0
   -3.9000    2.3380   -1.6400 O   0  0  0  0  0  0  0  0  0  0  0  0
   -3.2510    0.7260   -0.0790 N   0  0  0  0  0  0  0  0  0  0  0  0
   -2.5790   -0.0340   -1.0860 C   0  0  1  0  0  0  0  0  0  0  0  0
   -1.1250   -0.1030   -0.6960 C   0  0  0  0  0  0  0  0  0  0  0  0
   -0.0830    0.6890   -0.9330 N   0  0  0  0  0  0  0  0  0  0  0  0
    1.0370    0.2010   -0.3690 C   0  0  0  0  0  0  0  0  0  0  0  0
    2.4040    0.7860   -0.4010 C   0  0  0  0  0  0  0  0  0  0  0  0
    3.3450   -0.0990    0.3640 C   0  0  0  0  0  0  0  0  0  0  0  0
    4.7100    0.4580    0.3490 C   0  0  0  0  0  0  0  0  0  0  0  0
    5.5730    0.1060   -0.6520 C   0  0  0  0  0  0  0  0  0  0  0  0
    6.8590    0.6010   -0.7090 C   0  0  0  0  0  0  0  0  0  0  0  0
    7.2630    1.4650    0.2710 C   0  0  0  0  0  0  0  0  0  0  0  0
    6.3880    1.8260    1.2910 C   0  0  0  0  0  0  0  0  0  0  0  0
    5.1150    1.3210    1.3250 C   0  0  0  0  0  0  0  0  0  0  0  0
    0.6630   -0.9590    0.2510 C   0  0  0  0  0  0  0  0  0  0  0  0
   -0.6720   -1.1260    0.0360 N   0  0  0  0  0  0  0  0  0  0  0  0
   -1.4880   -2.2070    0.5040 C   0  0  2  0  0  0  0  0  0  0  0  0
   -0.6840   -3.5000    0.4440 C   0  0  0  0  0  0  0  0  0  0  0  0
   -1.4220   -4.5850    0.8860 O   0  0  0  0  0  0  0  0  0  0  0  0
   -2.8160   -2.3460   -0.1390 C   0  0  1  0  0  0  0  0  0  0  0  0
   -3.8670   -2.3170    0.8090 O   0  0  0  0  0  0  0  0  0  0  0  0
   -3.1280   -1.4240   -1.2550 C   0  0  2  0  0  0  0  0  0  0  0  0
   -2.5960   -1.9520   -2.4370 O   0  0  0  0  0  0  0  0  0  0  0  0
  1  2  1  0
  2  3  1  0
  3  4  2  0
  3  5  1  0
  6  5  1  1
  6  7  1  0
  6 25  1  0
  7  8  2  0
  7 19  1  0
  8  9  1  0
  9 10  1  0
  9 18  2  0
 10 11  1  0
 11 12  1  0
 12 13  2  0
 12 17  1  0
 13 14  1  0
 14 15  2  0
 15 16  1  0
 16 17  2  0
 18 19  1  0
 19 20  1  0
 20 21  1  6
 20 23  1  0
 21 22  1  0
 23 24  1  1
 23 25  1  0
 25 26  1  6
M  END
