
     RDKit          3D

 26 28  0  0  0  0  0  0  0  0999 V2000
   -3.9130    1.3110   -1.3950 C   0  0  0  0  0  0  0  0  0  0  0  0
   -3.1420    0.1690   -0.8510 C   0  0  0  0  0  0  0  0  0  0  0  0
   -3.6690   -1.0370   -0.7560 C   0  0  0  0  0  0  0  0  0  0  0  0
   -5.0690   -1.3820   -1.1750 C   0  0  0  0  0  0  0  0  0  0  0  0
   -5.2270   -2.8460   -0.8850 C   0  0  0  0  0  0  0  0  0  0  0  0
   -3.7860   -3.3440   -1.0390 C   0  0  0  0  0  0  0  0  0  0  0  0
   -3.0550   -2.2830   -0.2420 C   0  0  0  0  0  0  0  0  0  0  0  0
   -1.7430    0.3300   -0.4760 C   0  0  0  0  0  0  0  0  0  0  0  0
   -0.7270   -0.4230   -1.0370 N   0  0  0  0  0  0  0  0  0  0  0  0
    0.4400   -0.0430   -0.5100 C   0  0  0  0  0  0  0  0  0  0  0  0
    1.7860   -0.5700   -0.8130 C   0  0  0  0  0  0  0  0  0  0  0  0
    1.9400   -1.4770   -1.6580 O   0  0  0  0  0  0  0  0  0  0  0  0
    2.9270   -0.0520   -0.1490 N   0  0  0  0  0  0  0  0  0  0  0  0
    4.2770   -0.4940   -0.3690 C   0  0  2  0  0  0  0  0  0  0  0  0
    4.8470   -0.9630    0.9750 C   0  0  0  0  0  0  0  0  0  0  0  0
    6.3580   -0.8130    0.8050 C   0  0  2  0  0  0  0  0  0  0  0  0
    6.9130   -0.2210    1.9200 O   0  0  0  0  0  0  0  0  0  0  0  0
    6.5790    0.0630   -0.3920 C   0  0  2  0  0  0  0  0  0  0  0  0
    7.4940    1.0820   -0.0650 O   0  0  0  0  0  0  0  0  0  0  0  0
    5.2250    0.6280   -0.6880 C   0  0  0  0  0  0  0  0  0  0  0  0
    0.1160    0.9520    0.3800 C   0  0  0  0  0  0  0  0  0  0  0  0
   -1.2370    1.1730    0.3940 N   0  0  0  0  0  0  0  0  0  0  0  0
   -1.8200    2.0970    1.3110 C   0  0  0  0  0  0  0  0  0  0  0  0
   -3.0650    2.2090    1.6350 C   0  0  0  0  0  0  0  0  0  0  0  0
   -3.4530    3.2720    2.6350 C   0  0  0  0  0  0  0  0  0  0  0  0
   -2.3440    3.9830    3.0550 O   0  0  0  0  0  0  0  0  0  0  0  0
  1  2  1  0
  2  3  2  3
  2  8  1  0
  3  4  1  0
  3  7  1  0
  4  5  1  0
  5  6  1  0
  6  7  1  0
  8  9  2  0
  8 22  1  0
  9 10  1  0
 10 11  1  0
 10 21  2  0
 11 12  2  0
 11 13  1  0
 14 13  1  1
 14 15  1  0
 14 20  1  0
 15 16  1  0
 16 17  1  1
 16 18  1  0
 18 19  1  1
 18 20  1  0
 21 22  1  0
 22 23  1  0
 23 24  2  3
 24 25  1  0
 25 26  1  0
M  END
