
     RDKit          3D

 26 28  0  0  0  0  0  0  0  0999 V2000
   -6.3000    1.3930    1.5580 C   0  0  0  0  0  0  0  0  0  0  0  0
   -5.4300    0.4990    1.1620 C   0  0  0  0  0  0  0  0  0  0  0  0
   -5.8070   -0.7430    0.5830 N   0  0  0  0  0  0  0  0  0  0  0  0
   -4.9910   -1.2860   -0.4760 C   0  0  1  0  0  0  0  0  0  0  0  0
   -5.3670   -0.6230   -1.6410 O   0  0  0  0  0  0  0  0  0  0  0  0
   -3.5020   -1.1490   -0.2120 C   0  0  1  0  0  0  0  0  0  0  0  0
   -2.8000   -0.4890   -1.3620 C   0  0  0  0  0  0  0  0  0  0  0  0
   -1.5750    0.1370   -0.8790 N   0  0  0  0  0  0  0  0  0  0  0  0
   -0.7530    0.5980   -1.9040 C   0  0  0  0  0  0  0  0  0  0  0  0
    0.4620    1.3910   -1.6800 C   0  0  0  0  0  0  0  0  0  0  0  0
    1.5140    1.0430   -1.0120 O   0  0  0  0  0  0  0  0  0  0  0  0
    2.5540    0.6990   -0.3520 C   0  0  0  0  0  0  0  0  0  0  0  0
    2.5890    0.4330    1.0050 C   0  0  0  0  0  0  0  0  0  0  0  0
    3.7290    0.0630    1.6810 C   0  0  0  0  0  0  0  0  0  0  0  0
    4.9270   -0.0570    0.9710 C   0  0  0  0  0  0  0  0  0  0  0  0
    6.1540   -0.4440    1.6220 C   0  0  0  0  0  0  0  0  0  0  0  0
    6.1900   -0.7330    3.0730 C   0  0  0  0  0  0  0  0  0  0  0  0
    7.2090   -0.5420    0.9590 O   0  0  0  0  0  0  0  0  0  0  0  0
    4.9430    0.1970   -0.3780 C   0  0  0  0  0  0  0  0  0  0  0  0
    3.7890    0.5650   -1.0240 C   0  0  0  0  0  0  0  0  0  0  0  0
    3.7570    0.8300   -2.3820 O   0  0  0  0  0  0  0  0  0  0  0  0
    4.9780    0.7070   -3.1000 C   0  0  0  0  0  0  0  0  0  0  0  0
   -1.0000   -0.6350    0.1820 C   0  0  0  0  0  0  0  0  0  0  0  0
   -1.7940   -0.3760    1.4570 C   0  0  0  0  0  0  0  0  0  0  0  0
   -3.2340   -0.5250    1.1230 C   0  0  1  0  0  0  0  0  0  0  0  0
   -4.0060    0.7100    1.2940 N   0  0  0  0  0  0  0  0  0  0  0  0
  1  2  2  0
  2  3  1  0
  2 26  1  0
  3  4  1  0
  4  5  1  6
  4  6  1  0
  6  7  1  6
  6 25  1  0
  7  8  1  0
  8  9  1  0
  8 23  1  0
  9 10  1  0
 10 11  1  0
 11 12  1  0
 12 13  2  0
 12 20  1  0
 13 14  1  0
 14 15  2  0
 15 16  1  0
 15 19  1  0
 16 17  1  0
 16 18  2  0
 19 20  2  0
 20 21  1  0
 21 22  1  0
 23 24  1  0
 25 24  1  6
 25 26  1  0
M  END
