
     RDKit          3D

 26 27  0  0  0  0  0  0  0  0999 V2000
   -4.9530    0.6300    3.4150 C   0  0  0  0  0  0  0  0  0  0  0  0
   -4.3200    0.6900    2.2630 C   0  0  0  0  0  0  0  0  0  0  0  0
   -4.1980    1.9130    1.6430 O   0  0  0  0  0  0  0  0  0  0  0  0
   -3.7740   -0.5120    1.6830 C   0  0  0  0  0  0  0  0  0  0  0  0
   -3.1200   -0.6420    0.5410 C   0  0  0  0  0  0  0  0  0  0  0  0
   -2.6710   -2.0060    0.1980 C   0  0  0  0  0  0  0  0  0  0  0  0
   -2.8300   -2.6800   -0.9120 C   0  0  0  0  0  0  0  0  0  0  0  0
   -3.4900   -2.3050   -2.1440 C   0  0  0  0  0  0  0  0  0  0  0  0
   -3.0570   -1.5370   -3.1150 C   0  0  0  0  0  0  0  0  0  0  0  0
   -1.7570   -0.8380   -3.2150 C   0  0  0  0  0  0  0  0  0  0  0  0
   -1.1530   -0.8420   -1.9850 O   0  0  0  0  0  0  0  0  0  0  0  0
    0.1570   -0.3720   -2.0140 C   0  0  0  0  0  0  0  0  0  0  0  0
    0.5530   -0.0610   -0.5830 C   0  0  1  0  0  0  0  0  0  0  0  0
    1.9380    0.4050   -0.6540 N   0  0  0  0  0  0  0  0  0  0  0  0
    2.9990   -0.3280   -0.0330 C   0  0  0  0  0  0  0  0  0  0  0  0
    2.6630   -1.3820    0.5660 O   0  0  0  0  0  0  0  0  0  0  0  0
    4.3760    0.1720   -0.1260 C   0  0  1  0  0  0  0  0  0  0  0  0
    4.5800    1.4980    0.5600 C   0  0  0  0  0  0  0  0  0  0  0  0
    5.9270    1.3400    1.2420 C   0  0  0  0  0  0  0  0  0  0  0  0
    6.4540    0.0020    0.7290 C   0  0  0  0  0  0  0  0  0  0  0  0
    5.2290   -0.7790    0.5960 N   0  0  0  0  0  0  0  0  0  0  0  0
   -0.3720    0.9730   -0.0170 C   0  0  2  0  0  0  0  0  0  0  0  0
   -0.5860    0.8240    1.4740 C   0  0  0  0  0  0  0  0  0  0  0  0
   -1.6410    1.0600   -0.7300 N   0  0  0  0  0  0  0  0  0  0  0  0
   -2.8690    0.5220   -0.3060 C   0  0  0  0  0  0  0  0  0  0  0  0
   -3.9130    1.1290   -0.7140 O   0  0  0  0  0  0  0  0  0  0  0  0
  1  2  2  0
  2  3  1  0
  2  4  1  0
  4  5  2  3
  5  6  1  0
  5 25  1  0
  6  7  2  0
  7  8  1  0
  8  9  2  0
  9 10  1  0
 10 11  1  0
 11 12  1  0
 12 13  1  0
 13 14  1  6
 13 22  1  0
 14 15  1  0
 15 16  2  0
 17 15  1  1
 17 18  1  0
 17 21  1  0
 18 19  1  0
 19 20  1  0
 20 21  1  0
 22 23  1  1
 22 24  1  0
 24 25  1  0
 25 26  2  0
M  END
