
     RDKit          3D

 22 23  0  0  0  0  0  0  0  0999 V2000
    7.4060   -1.1310   -0.0880 C   0  0  0  0  0  0  0  0  0  0  0  0
    6.7660    0.1960    0.1540 C   0  0  0  0  0  0  0  0  0  0  0  0
    5.2630    0.0670   -0.0250 C   0  0  0  0  0  0  0  0  0  0  0  0
    4.6010    1.4080    0.2180 C   0  0  0  0  0  0  0  0  0  0  0  0
    3.1080    1.3590    0.0630 C   0  0  0  0  0  0  0  0  0  0  0  0
    2.7110    0.9330   -1.3190 C   0  0  0  0  0  0  0  0  0  0  0  0
    1.2200    0.8830   -1.5000 C   0  0  0  0  0  0  0  0  0  0  0  0
    0.5550   -0.0800   -0.5580 C   0  0  0  0  0  0  0  0  0  0  0  0
   -0.8920   -0.1130   -0.7550 N   0  0  0  0  0  0  0  0  0  0  0  0
   -1.6930    0.1390    0.2250 C   0  0  0  0  0  0  0  0  0  0  0  0
   -1.3490    0.4650    1.5520 O   0  0  0  0  0  0  0  0  0  0  0  0
   -2.5310    0.2860    2.3210 C   0  0  0  0  0  0  0  0  0  0  0  0
   -3.5990    0.7090    1.3540 C   0  0  2  0  0  0  0  0  0  0  0  0
   -4.9600    0.2010    1.6590 C   0  0  1  0  0  0  0  0  0  0  0  0
   -5.8830    1.0800    1.0450 O   0  0  0  0  0  0  0  0  0  0  0  0
   -5.2590   -1.1680    1.1270 C   0  0  2  0  0  0  0  0  0  0  0  0
   -4.5690   -2.1790    1.7600 O   0  0  0  0  0  0  0  0  0  0  0  0
   -5.0780   -1.2530   -0.3660 C   0  0  1  0  0  0  0  0  0  0  0  0
   -6.2760   -0.9530   -1.0130 O   0  0  0  0  0  0  0  0  0  0  0  0
   -4.0290   -0.3070   -0.8830 C   0  0  2  0  0  0  0  0  0  0  0  0
   -3.3740   -0.9290   -1.9430 O   0  0  0  0  0  0  0  0  0  0  0  0
   -3.1090    0.1280    0.1170 N   0  0  0  0  0  0  0  0  0  0  0  0
  1  2  1  0
  2  3  1  0
  3  4  1  0
  4  5  1  0
  5  6  1  0
  6  7  1  0
  7  8  1  0
  8  9  1  0
  9 10  2  3
 10 11  1  0
 10 22  1  0
 11 12  1  0
 13 12  1  1
 13 14  1  0
 13 22  1  0
 14 15  1  6
 14 16  1  0
 16 17  1  1
 16 18  1  0
 18 19  1  6
 18 20  1  0
 20 21  1  6
 20 22  1  0
M  END
