
     RDKit          3D

 16 16  0  0  0  0  0  0  0  0999 V2000
    3.5780    1.3090   -0.6570 C   0  0  0  0  0  0  0  0  0  0  0  0
    2.6710    1.1650    0.3930 O   0  0  0  0  0  0  0  0  0  0  0  0
    2.2390   -0.1540    0.5350 C   0  0  1  0  0  0  0  0  0  0  0  0
    2.6740   -0.5690    1.8050 O   0  0  0  0  0  0  0  0  0  0  0  0
    0.7480   -0.2430    0.5240 C   0  0  2  0  0  0  0  0  0  0  0  0
    0.2760    0.5320    1.6080 O   0  0  0  0  0  0  0  0  0  0  0  0
    0.2820   -1.6420    0.6930 C   0  0  0  0  0  0  0  0  0  0  0  0
   -1.1530   -1.8860    0.3710 C   0  0  1  0  0  0  0  0  0  0  0  0
   -2.0620   -1.7640    1.5750 C   0  0  0  0  0  0  0  0  0  0  0  0
   -1.6710   -1.1160   -0.6350 O   0  0  0  0  0  0  0  0  0  0  0  0
   -1.3730    0.2170   -0.4730 C   0  0  2  0  0  0  0  0  0  0  0  0
   -2.1690    1.1360   -1.3480 C   0  0  1  0  0  0  0  0  0  0  0  0
   -2.0060    0.9090   -2.6910 O   0  0  0  0  0  0  0  0  0  0  0  0
   -3.5030    1.0580   -0.9990 O   0  0  0  0  0  0  0  0  0  0  0  0
    0.1190    0.3330   -0.7150 C   0  0  1  0  0  0  0  0  0  0  0  0
    0.5290    1.6010   -1.0210 O   0  0  0  0  0  0  0  0  0  0  0  0
  1  2  1  0
  2  3  1  0
  3  4  1  1
  3  5  1  0
  5  6  1  1
  5  7  1  0
  5 15  1  0
  7  8  1  0
  8  9  1  1
  8 10  1  0
 11 10  1  6
 11 12  1  0
 11 15  1  0
 12 13  1  6
 12 14  1  0
 15 16  1  1
M  END
