
     RDKit          3D

 12 12  0  0  0  0  0  0  0  0999 V2000
   -1.3260    2.1320    0.6700 O   0  0  0  0  0  0  0  0  0  0  0  0
   -1.5350    0.9500    0.2900 C   0  0  0  0  0  0  0  0  0  0  0  0
   -2.8140    0.5400   -0.3980 C   0  0  0  0  0  0  0  0  0  0  0  0
   -2.5430   -0.8810   -0.7710 C   0  0  0  0  0  0  0  0  0  0  0  0
   -1.6150   -1.3740    0.3260 C   0  0  2  0  0  0  0  0  0  0  0  0
   -2.3300   -1.5480    1.4900 O   0  0  0  0  0  0  0  0  0  0  0  0
   -0.6740   -0.2080    0.4100 C   0  0  0  0  0  0  0  0  0  0  0  0
    0.6300   -0.2270    0.5550 C   0  0  0  0  0  0  0  0  0  0  0  0
    1.5010    0.9630    0.6250 C   0  0  0  0  0  0  0  0  0  0  0  0
    2.5040    0.9360   -0.5110 C   0  0  0  0  0  0  0  0  0  0  0  0
    3.3690   -0.2990   -0.4230 C   0  0  0  0  0  0  0  0  0  0  0  0
    4.5260   -0.2660   -1.7780 Cl  0  0  0  0  0  0  0  0  0  0  0  0
  1  2  2  0
  2  3  1  0
  2  7  1  0
  3  4  1  0
  4  5  1  0
  5  6  1  1
  5  7  1  0
  7  8  2  3
  8  9  1  0
  9 10  1  0
 10 11  1  0
 11 12  1  0
M  END
