
     RDKit          3D

 16 16  0  0  0  0  0  0  0  0999 V2000
    5.0800   -0.0370   -0.5090 O   0  0  0  0  0  0  0  0  0  0  0  0
    4.4600    1.0090    0.2090 C   0  0  0  0  0  0  0  0  0  0  0  0
    3.5330    1.6600   -0.5610 O   0  0  0  0  0  0  0  0  0  0  0  0
    2.4990    0.9010   -1.0390 C   0  0  0  0  0  0  0  0  0  0  0  0
    1.6840    0.2750    0.0620 C   0  0  0  0  0  0  0  0  0  0  0  0
    0.6350   -0.4930   -0.4400 O   0  0  0  0  0  0  0  0  0  0  0  0
   -0.0710   -1.0370    0.5860 C   0  0  2  0  0  0  0  0  0  0  0  0
    0.1820   -2.4360    0.5590 O   0  0  0  0  0  0  0  0  0  0  0  0
   -1.5260   -0.8670    0.6250 C   0  0  2  0  0  0  0  0  0  0  0  0
   -1.9800   -1.5340    1.7990 O   0  0  0  0  0  0  0  0  0  0  0  0
   -2.3050   -1.4730   -0.4900 C   0  0  0  0  0  0  0  0  0  0  0  0
   -3.5280   -0.8470   -0.5210 O   0  0  0  0  0  0  0  0  0  0  0  0
   -3.5750    0.1030    0.4940 C   0  0  0  0  0  0  0  0  0  0  0  0
   -2.0930    0.5010    0.6960 C   0  0  2  0  0  0  0  0  0  0  0  0
   -1.7890    1.4150   -0.4440 C   0  0  0  0  0  0  0  0  0  0  0  0
   -2.2540    0.9310   -1.6670 O   0  0  0  0  0  0  0  0  0  0  0  0
  1  2  1  0
  2  3  1  0
  3  4  1  0
  4  5  1  0
  5  6  1  0
  6  7  1  0
  7  8  1  6
  7  9  1  0
  9 10  1  1
  9 11  1  0
  9 14  1  0
 11 12  1  0
 12 13  1  0
 13 14  1  0
 14 15  1  6
 15 16  1  0
M  END
