
     RDKit          3D

 12 12  0  0  0  0  0  0  0  0999 V2000
   -1.8530    1.9540   -0.3680 C   0  0  0  0  0  0  0  0  0  0  0  0
   -1.1460    1.3310    0.8030 C   0  0  1  0  0  0  0  0  0  0  0  0
   -2.2550    1.1790    2.2120 Cl  0  0  0  0  0  0  0  0  0  0  0  0
   -0.6830   -0.0410    0.4400 C   0  0  0  0  0  0  0  0  0  0  0  0
    0.5510   -0.5220    0.4230 C   0  0  0  0  0  0  0  0  0  0  0  0
    1.7770    0.2160    0.7690 C   0  0  0  0  0  0  0  0  0  0  0  0
    2.7660    0.2880   -0.3730 C   0  0  0  0  0  0  0  0  0  0  0  0
    2.2430    0.9170   -1.4880 O   0  0  0  0  0  0  0  0  0  0  0  0
    0.5420   -1.9200    0.0040 C   0  0  0  0  0  0  0  0  0  0  0  0
    1.4780   -2.7700    0.0610 O   0  0  0  0  0  0  0  0  0  0  0  0
   -0.8020   -2.2190   -0.5300 C   0  0  0  0  0  0  0  0  0  0  0  0
   -1.6400   -1.1090    0.0240 C   0  0  0  0  0  0  0  0  0  0  0  0
  2  1  1  6
  2  3  1  0
  2  4  1  0
  4  5  2  0
  4 12  1  0
  5  6  1  0
  5  9  1  0
  6  7  1  0
  7  8  1  0
  9 10  2  0
  9 11  1  0
 11 12  1  0
M  END
