
     RDKit          3D

 17 17  0  0  0  0  0  0  0  0999 V2000
   -4.4730    1.8560    1.4930 O   0  0  0  0  0  0  0  0  0  0  0  0
   -4.0210    1.0340    0.6680 C   0  0  0  0  0  0  0  0  0  0  0  0
   -4.8360    0.0930    0.0470 O   0  0  0  0  0  0  0  0  0  0  0  0
   -4.0970   -0.7860   -0.7480 C   0  0  0  0  0  0  0  0  0  0  0  0
   -2.7110   -0.6790   -0.1780 C   0  0  2  0  0  0  0  0  0  0  0  0
   -2.5900   -1.4440    0.9810 O   0  0  0  0  0  0  0  0  0  0  0  0
   -2.6500    0.8250    0.1540 C   0  0  2  0  0  0  0  0  0  0  0  0
   -1.6610    0.9900    1.0570 O   0  0  0  0  0  0  0  0  0  0  0  0
   -0.5580    1.7010    0.7490 C   0  0  0  0  0  0  0  0  0  0  0  0
    0.2890    1.2250   -0.3880 C   0  0  2  0  0  0  0  0  0  0  0  0
   -0.3210    1.1560   -1.6100 O   0  0  0  0  0  0  0  0  0  0  0  0
    0.8380   -0.0430   -0.1300 O   0  0  0  0  0  0  0  0  0  0  0  0
    2.2030    0.0780   -0.0940 C   0  0  0  0  0  0  0  0  0  0  0  0
    2.9310   -1.1960    0.1730 C   0  0  2  0  0  0  0  0  0  0  0  0
    2.5770   -1.7480    1.3910 O   0  0  0  0  0  0  0  0  0  0  0  0
    4.4300   -0.8690    0.1590 C   0  0  0  0  0  0  0  0  0  0  0  0
    4.7310   -0.3170   -1.0890 O   0  0  0  0  0  0  0  0  0  0  0  0
  1  2  2  0
  2  3  1  0
  2  7  1  0
  3  4  1  0
  4  5  1  0
  5  6  1  1
  5  7  1  0
  7  8  1  1
  8  9  1  0
  9 10  1  0
 10 11  1  6
 10 12  1  0
 12 13  1  0
 13 14  1  0
 14 15  1  1
 14 16  1  0
 16 17  1  0
M  END
