
     RDKit          3D

 16 16  0  0  0  0  0  0  0  0999 V2000
    1.6880    1.1890   -1.3800 O   0  0  0  0  0  0  0  0  0  0  0  0
    1.0980    0.4550   -0.5670 C   0  0  0  0  0  0  0  0  0  0  0  0
    1.6970   -0.6480    0.0040 O   0  0  0  0  0  0  0  0  0  0  0  0
    3.0200   -1.0130   -0.2980 C   0  0  0  0  0  0  0  0  0  0  0  0
    3.9960    0.0760    0.0800 C   0  0  0  0  0  0  0  0  0  0  0  0
    3.9220    0.3380    1.4520 O   0  0  0  0  0  0  0  0  0  0  0  0
   -0.3000    0.7550   -0.1810 C   0  0  2  0  0  0  0  0  0  0  0  0
   -0.4360    1.0020    1.3090 C   0  0  2  0  0  0  0  0  0  0  0  0
    0.7700    0.6150    1.9110 O   0  0  0  0  0  0  0  0  0  0  0  0
   -1.4480    0.2050    1.7750 O   0  0  0  0  0  0  0  0  0  0  0  0
   -2.2060   -0.2100    0.6730 C   0  0  1  0  0  0  0  0  0  0  0  0
   -3.1080    0.9270    0.3080 C   0  0  0  0  0  0  0  0  0  0  0  0
   -3.9310    0.6980   -0.7590 O   0  0  0  0  0  0  0  0  0  0  0  0
   -1.1200   -0.4840   -0.3100 C   0  0  1  0  0  0  0  0  0  0  0  0
   -1.5460   -0.8510   -1.6730 C   0  0  0  0  0  0  0  0  0  0  0  0
   -2.2960   -2.0250   -1.6040 O   0  0  0  0  0  0  0  0  0  0  0  0
  1  2  2  0
  2  3  1  0
  7  2  1  1
  3  4  1  0
  4  5  1  0
  5  6  1  0
  7  8  1  0
  7 14  1  0
  8  9  1  1
  8 10  1  0
 10 11  1  0
 11 12  1  6
 11 14  1  0
 12 13  1  0
 14 15  1  6
 15 16  1  0
M  END
