
     RDKit          3D

 20 21  0  0  0  0  0  0  0  0999 V2000
   -5.8220    0.6320    0.2360 C   0  0  0  0  0  0  0  0  0  0  0  0
   -4.5120    0.0950    0.0480 O   0  0  0  0  0  0  0  0  0  0  0  0
   -3.3690    0.8340    0.1890 C   0  0  0  0  0  0  0  0  0  0  0  0
   -3.4520    2.0460    0.4980 O   0  0  0  0  0  0  0  0  0  0  0  0
   -2.0620    0.2020   -0.0230 C   0  0  0  0  0  0  0  0  0  0  0  0
   -1.9650   -1.1350   -0.3640 C   0  0  0  0  0  0  0  0  0  0  0  0
   -3.1860   -1.8180   -0.4880 O   0  0  0  0  0  0  0  0  0  0  0  0
   -0.7620   -1.7580   -0.5700 C   0  0  0  0  0  0  0  0  0  0  0  0
    0.3470   -1.0140   -0.4270 N   0  0  0  0  0  0  0  0  0  0  0  0
    0.3110    0.2820   -0.0980 C   0  0  0  0  0  0  0  0  0  0  0  0
    1.5170    1.0410    0.0450 N   0  0  0  0  0  0  0  0  0  0  0  0
    2.7870    0.4180   -0.1630 C   0  0  0  0  0  0  0  0  0  0  0  0
    3.7260    1.0800   -0.7920 C   0  0  0  0  0  0  0  0  0  0  0  0
    5.0710    0.5560   -1.0690 C   0  0  0  0  0  0  0  0  0  0  0  0
    5.2340   -0.7300   -0.5860 O   0  0  0  0  0  0  0  0  0  0  0  0
    4.2690   -1.4470    0.0760 C   0  0  0  0  0  0  0  0  0  0  0  0
    4.5820   -3.0710    0.6470 Cl  0  0  0  0  0  0  0  0  0  0  0  0
    3.0710   -0.9300    0.3020 C   0  0  0  0  0  0  0  0  0  0  0  0
   -0.8950    0.9020    0.1070 C   0  0  0  0  0  0  0  0  0  0  0  0
   -0.9540    2.6130    0.5410 Cl  0  0  0  0  0  0  0  0  0  0  0  0
  1  2  1  0
  2  3  1  0
  3  4  2  0
  3  5  1  0
  5  6  2  0
  5 19  1  0
  6  7  1  0
  6  8  1  0
  8  9  2  0
  9 10  1  0
 10 11  1  0
 10 19  2  0
 11 12  1  0
 12 13  2  0
 12 18  1  0
 13 14  1  0
 14 15  1  0
 15 16  1  0
 16 17  1  0
 16 18  2  0
 19 20  1  0
M  END
