
     RDKit          3D

 20 21  0  0  0  0  0  0  0  0999 V2000
    5.0300    0.0690   -0.2010 C   0  0  0  0  0  0  0  0  0  0  0  0
    3.9530   -0.7980    0.2920 C   0  0  0  0  0  0  0  0  0  0  0  0
    4.2600   -1.9440    0.7110 O   0  0  0  0  0  0  0  0  0  0  0  0
    2.5520   -0.4140    0.3270 C   0  0  0  0  0  0  0  0  0  0  0  0
    2.1500    0.8240   -0.1160 C   0  0  0  0  0  0  0  0  0  0  0  0
    0.7960    1.1740   -0.0740 C   0  0  0  0  0  0  0  0  0  0  0  0
    0.3830    2.3410   -0.4870 O   0  0  0  0  0  0  0  0  0  0  0  0
   -0.8620    2.7200   -0.4700 C   0  0  0  0  0  0  0  0  0  0  0  0
   -1.2320    3.8670   -0.8800 O   0  0  0  0  0  0  0  0  0  0  0  0
   -1.8790    1.8770    0.0060 C   0  0  0  0  0  0  0  0  0  0  0  0
   -3.5360    2.4730    0.0200 Cl  0  0  0  0  0  0  0  0  0  0  0  0
   -1.5060    0.6450    0.4480 C   0  0  0  0  0  0  0  0  0  0  0  0
   -2.4460   -0.3060    0.9340 N   0  0  0  0  0  0  0  0  0  0  0  0
   -3.0580   -1.3510    0.1710 C   0  0  0  0  0  0  0  0  0  0  0  0
   -4.1470   -0.9800   -0.7640 C   0  0  0  0  0  0  0  0  0  0  0  0
   -5.5870   -0.3100    0.0320 Cl  0  0  0  0  0  0  0  0  0  0  0  0
   -0.1430    0.2930    0.4060 C   0  0  0  0  0  0  0  0  0  0  0  0
    0.2570   -0.9160    0.8380 N   0  0  0  0  0  0  0  0  0  0  0  0
    1.5740   -1.2610    0.7990 C   0  0  0  0  0  0  0  0  0  0  0  0
    1.8980   -2.4050    1.2150 O   0  0  0  0  0  0  0  0  0  0  0  0
  1  2  1  0
  2  3  2  0
  2  4  1  0
  4  5  2  0
  4 19  1  0
  5  6  1  0
  6  7  1  0
  6 17  2  0
  7  8  1  0
  8  9  2  0
  8 10  1  0
 10 11  1  0
 10 12  2  0
 12 13  1  0
 12 17  1  0
 13 14  1  0
 14 15  1  0
 15 16  1  0
 17 18  1  0
 18 19  1  0
 19 20  2  0
M  END
