
     RDKit          3D

 20 21  0  0  0  0  0  0  0  0999 V2000
    0.1060    0.9730    0.5710 O   0  0  0  0  0  0  0  0  0  0  0  0
    0.2460   -0.1300    0.0220 C   0  0  0  0  0  0  0  0  0  0  0  0
    1.4910   -0.6360   -0.1650 O   0  0  0  0  0  0  0  0  0  0  0  0
    2.7250   -0.1220    0.1600 C   0  0  0  0  0  0  0  0  0  0  0  0
    2.9860    1.0000    0.7390 C   0  0  0  0  0  0  0  0  0  0  0  0
    4.2790    1.5910    1.1070 C   0  0  0  0  0  0  0  0  0  0  0  0
    4.3310    1.8570    2.8820 Cl  0  0  0  0  0  0  0  0  0  0  0  0
    3.8580   -1.0260   -0.2350 C   0  0  0  0  0  0  0  0  0  0  0  0
    3.6850   -2.5780    0.6180 Cl  0  0  0  0  0  0  0  0  0  0  0  0
   -0.9440   -0.8540   -0.4060 C   0  0  0  0  0  0  0  0  0  0  0  0
   -0.8480   -2.0970   -1.0280 C   0  0  0  0  0  0  0  0  0  0  0  0
    0.4500   -2.5830   -1.1980 O   0  0  0  0  0  0  0  0  0  0  0  0
   -1.9160   -2.7710   -1.4290 N   0  0  0  0  0  0  0  0  0  0  0  0
   -3.1320   -2.2620   -1.2420 C   0  0  0  0  0  0  0  0  0  0  0  0
   -4.1350   -2.8940   -1.6180 O   0  0  0  0  0  0  0  0  0  0  0  0
   -3.2600   -1.0680   -0.6460 N   0  0  0  0  0  0  0  0  0  0  0  0
   -2.2160   -0.3430   -0.2210 C   0  0  0  0  0  0  0  0  0  0  0  0
   -2.4040    0.9470    0.4370 C   0  0  2  0  0  0  0  0  0  0  0  0
   -3.8030    1.5200    0.3690 C   0  0  0  0  0  0  0  0  0  0  0  0
   -2.5800    2.2310   -0.2170 C   0  0  0  0  0  0  0  0  0  0  0  0
  1  2  2  0
  2  3  1  0
  2 10  1  0
  3  4  1  0
  4  5  2  3
  4  8  1  0
  5  6  1  0
  6  7  1  0
  8  9  1  0
 10 11  1  0
 10 17  2  0
 11 12  1  0
 11 13  2  0
 13 14  1  0
 14 15  2  0
 14 16  1  0
 16 17  1  0
 18 17  1  6
 18 19  1  0
 18 20  1  0
 19 20  1  0
M  END
