
     RDKit          3D

 22 23  0  0  0  0  0  0  0  0999 V2000
    6.1790    0.1680    1.6320 C   0  0  0  0  0  0  0  0  0  0  0  0
    5.5940    0.5060    0.2700 C   0  0  0  0  0  0  0  0  0  0  0  0
    4.7330   -0.6610   -0.1560 C   0  0  0  0  0  0  0  0  0  0  0  0
    4.1110   -0.4170   -1.4940 C   0  0  0  0  0  0  0  0  0  0  0  0
    3.2310    0.7900   -1.5370 C   0  0  0  0  0  0  0  0  0  0  0  0
    2.0830    0.7360   -0.5890 C   0  0  0  0  0  0  0  0  0  0  0  0
    1.2380   -0.4700   -0.9420 C   0  0  0  0  0  0  0  0  0  0  0  0
    0.0270   -0.5490    0.0390 C   0  0  0  0  0  0  0  0  0  0  0  0
   -0.6530   -1.7150   -0.4200 N   0  0  0  0  0  0  0  0  0  0  0  0
   -1.8990   -1.9010   -0.2330 C   0  0  0  0  0  0  0  0  0  0  0  0
   -2.7040   -2.9690   -0.6130 O   0  0  0  0  0  0  0  0  0  0  0  0
   -3.9670   -2.3880   -0.9400 C   0  0  0  0  0  0  0  0  0  0  0  0
   -4.0810   -1.2550    0.0080 C   0  0  2  0  0  0  0  0  0  0  0  0
   -4.7220   -0.0220   -0.5670 C   0  0  2  0  0  0  0  0  0  0  0  0
   -4.2840    0.1590   -1.8520 O   0  0  0  0  0  0  0  0  0  0  0  0
   -4.4760    1.2140    0.2530 C   0  0  2  0  0  0  0  0  0  0  0  0
   -4.7980    2.3110   -0.5640 O   0  0  0  0  0  0  0  0  0  0  0  0
   -3.0210    1.3960    0.6480 C   0  0  1  0  0  0  0  0  0  0  0  0
   -2.9230    2.5110    1.4720 O   0  0  0  0  0  0  0  0  0  0  0  0
   -2.5920    0.1300    1.3570 C   0  0  2  0  0  0  0  0  0  0  0  0
   -1.6090    0.2180    2.2640 O   0  0  0  0  0  0  0  0  0  0  0  0
   -2.6980   -0.9430    0.4550 N   0  0  0  0  0  0  0  0  0  0  0  0
  1  2  1  0
  2  3  1  0
  3  4  1  0
  4  5  1  0
  5  6  1  0
  6  7  1  0
  7  8  1  0
  8  9  1  0
  9 10  2  3
 10 11  1  0
 10 22  1  0
 11 12  1  0
 13 12  1  6
 13 14  1  0
 13 22  1  0
 14 15  1  6
 14 16  1  0
 16 17  1  6
 16 18  1  0
 18 19  1  1
 18 20  1  0
 20 21  1  6
 20 22  1  0
M  END
