
     RDKit          3D

 20 21  0  0  0  0  0  0  0  0999 V2000
    4.9750    0.6610   -0.1950 C   0  0  0  0  0  0  0  0  0  0  0  0
    3.7570   -0.1580   -0.0480 C   0  0  0  0  0  0  0  0  0  0  0  0
    3.5890   -1.5240   -0.1360 C   0  0  0  0  0  0  0  0  0  0  0  0
    2.3240   -1.8280    0.0630 O   0  0  0  0  0  0  0  0  0  0  0  0
    1.6240   -0.7450    0.2790 C   0  0  0  0  0  0  0  0  0  0  0  0
    0.1940   -0.7260    0.5390 C   0  0  0  0  0  0  0  0  0  0  0  0
   -0.6840   -0.0670   -0.2500 C   0  0  0  0  0  0  0  0  0  0  0  0
   -0.1860    0.6380   -1.4140 C   0  0  0  0  0  0  0  0  0  0  0  0
   -0.8370    1.3210   -2.1990 O   0  0  0  0  0  0  0  0  0  0  0  0
   -2.0830    0.0420    0.1170 C   0  0  0  0  0  0  0  0  0  0  0  0
   -2.5370    0.0180    1.4280 C   0  0  0  0  0  0  0  0  0  0  0  0
   -1.4090    0.0970    2.7580 Cl  0  0  0  0  0  0  0  0  0  0  0  0
   -3.8740   -0.0010    1.7320 N   0  0  0  0  0  0  0  0  0  0  0  0
   -4.7890    0.0040    0.7630 C   0  0  0  0  0  0  0  0  0  0  0  0
   -6.0180   -0.0130    1.0250 O   0  0  0  0  0  0  0  0  0  0  0  0
   -4.3890    0.0280   -0.4960 N   0  0  0  0  0  0  0  0  0  0  0  0
   -3.0670    0.0470   -0.8390 C   0  0  0  0  0  0  0  0  0  0  0  0
   -2.7930    0.0620   -2.0900 O   0  0  0  0  0  0  0  0  0  0  0  0
    2.4710    0.3310    0.2220 C   0  0  0  0  0  0  0  0  0  0  0  0
    2.1230    2.0230    0.4770 Cl  0  0  0  0  0  0  0  0  0  0  0  0
  1  2  1  0
  2  3  2  0
  2 19  1  0
  3  4  1  0
  4  5  1  0
  5  6  1  0
  5 19  2  0
  6  7  2  3
  7  8  1  0
  7 10  1  0
  8  9  2  0
 10 11  2  0
 10 17  1  0
 11 12  1  0
 11 13  1  0
 13 14  1  0
 14 15  2  0
 14 16  1  0
 16 17  1  0
 17 18  2  0
 19 20  1  0
M  END
