
     RDKit          3D

 20 21  0  0  0  0  0  0  0  0999 V2000
   -0.4560    1.7810    2.8430 C   0  0  0  0  0  0  0  0  0  0  0  0
    0.2940    0.8470    2.0880 O   0  0  0  0  0  0  0  0  0  0  0  0
   -0.2340    0.3440    0.9250 C   0  0  0  0  0  0  0  0  0  0  0  0
   -1.4800    0.7280    0.4770 C   0  0  0  0  0  0  0  0  0  0  0  0
   -1.9930    0.2170   -0.6850 C   0  0  0  0  0  0  0  0  0  0  0  0
   -1.2360   -0.6900   -1.3970 C   0  0  0  0  0  0  0  0  0  0  0  0
    0.0120   -1.0780   -0.9540 C   0  0  0  0  0  0  0  0  0  0  0  0
    0.5450   -0.5720    0.2170 C   0  0  0  0  0  0  0  0  0  0  0  0
    1.8310   -0.9810    0.6640 N   0  0  0  0  0  0  0  0  0  0  0  0
    2.8780   -0.2740    0.5660 C   0  0  0  0  0  0  0  0  0  0  0  0
    2.7770    1.3300   -0.1640 Cl  0  0  0  0  0  0  0  0  0  0  0  0
    4.1490   -0.7790    1.0510 C   0  0  0  0  0  0  0  0  0  0  0  0
    4.1560   -2.0580    1.6190 O   0  0  0  0  0  0  0  0  0  0  0  0
    5.2480   -0.0640    0.9620 C   0  0  0  0  0  0  0  0  0  0  0  0
    5.2440    1.5210    0.2600 Cl  0  0  0  0  0  0  0  0  0  0  0  0
   -1.7740   -1.2030   -2.5830 O   0  0  0  0  0  0  0  0  0  0  0  0
   -3.1760   -1.1810   -2.7940 C   0  0  0  0  0  0  0  0  0  0  0  0
   -3.7940    0.0890   -2.3310 C   0  0  0  0  0  0  0  0  0  0  0  0
   -4.7270    0.6630   -2.9810 O   0  0  0  0  0  0  0  0  0  0  0  0
   -3.2950    0.6420   -1.1190 N   0  0  0  0  0  0  0  0  0  0  0  0
  1  2  1  0
  2  3  1  0
  3  4  2  0
  3  8  1  0
  4  5  1  0
  5  6  2  0
  5 20  1  0
  6  7  1  0
  6 16  1  0
  7  8  2  0
  8  9  1  0
  9 10  2  3
 10 11  1  0
 10 12  1  0
 12 13  1  0
 12 14  2  3
 14 15  1  0
 16 17  1  0
 17 18  1  0
 18 19  2  0
 18 20  1  0
M  END
