
     RDKit          3D

 22 23  0  0  0  0  0  0  0  0999 V2000
    6.9110   -1.3960   -0.3380 C   0  0  0  0  0  0  0  0  0  0  0  0
    6.0400   -0.2340   -0.7300 C   0  0  0  0  0  0  0  0  0  0  0  0
    5.7600    0.7010    0.4130 C   0  0  0  0  0  0  0  0  0  0  0  0
    5.0560    0.0300    1.5600 C   0  0  0  0  0  0  0  0  0  0  0  0
    3.7290   -0.5470    1.1640 C   0  0  0  0  0  0  0  0  0  0  0  0
    2.7880    0.5090    0.6420 C   0  0  0  0  0  0  0  0  0  0  0  0
    1.4860   -0.2180    0.2800 C   0  0  0  0  0  0  0  0  0  0  0  0
    0.5510    0.8790   -0.2450 C   0  0  0  0  0  0  0  0  0  0  0  0
   -0.7350    0.2930   -0.6250 N   0  0  0  0  0  0  0  0  0  0  0  0
   -1.8490    0.8770   -0.3770 C   0  0  0  0  0  0  0  0  0  0  0  0
   -1.9410    2.4620    0.4540 S   0  0  0  0  0  0  0  0  0  0  0  0
   -3.7390    2.4550    0.7040 C   0  0  0  0  0  0  0  0  0  0  0  0
   -4.1850    1.2030    0.0810 C   0  0  2  0  0  0  0  0  0  0  0  0
   -4.9470    0.2710    1.0100 C   0  0  1  0  0  0  0  0  0  0  0  0
   -6.0540    0.9770    1.4760 O   0  0  0  0  0  0  0  0  0  0  0  0
   -5.4520   -0.8640    0.1450 C   0  0  2  0  0  0  0  0  0  0  0  0
   -5.9780   -1.8240    0.9990 O   0  0  0  0  0  0  0  0  0  0  0  0
   -4.3900   -1.5140   -0.6810 C   0  0  1  0  0  0  0  0  0  0  0  0
   -4.9210   -2.5530   -1.3970 O   0  0  0  0  0  0  0  0  0  0  0  0
   -3.6620   -0.4990   -1.5720 C   0  0  2  0  0  0  0  0  0  0  0  0
   -2.6460   -1.1520   -2.2220 O   0  0  0  0  0  0  0  0  0  0  0  0
   -3.1850    0.5180   -0.6380 N   0  0  0  0  0  0  0  0  0  0  0  0
  1  2  1  0
  2  3  1  0
  3  4  1  0
  4  5  1  0
  5  6  1  0
  6  7  1  0
  7  8  1  0
  8  9  1  0
  9 10  2  3
 10 11  1  0
 10 22  1  0
 11 12  1  0
 13 12  1  1
 13 14  1  0
 13 22  1  0
 14 15  1  6
 14 16  1  0
 16 17  1  1
 16 18  1  0
 18 19  1  6
 18 20  1  0
 20 21  1  1
 20 22  1  0
M  END
