
     RDKit          3D

 22 23  0  0  0  0  0  0  0  0999 V2000
    7.2620    0.6590   -0.4260 C   0  0  0  0  0  0  0  0  0  0  0  0
    6.0040    0.6640   -0.0160 C   0  0  0  0  0  0  0  0  0  0  0  0
    5.2890   -0.3490    0.7360 C   0  0  0  0  0  0  0  0  0  0  0  0
    3.9920   -0.0660    0.7700 C   0  0  0  0  0  0  0  0  0  0  0  0
    3.0000   -0.9320    1.4750 C   0  0  0  0  0  0  0  0  0  0  0  0
    1.9860   -1.4560    0.5990 N   0  0  0  0  0  0  0  0  0  0  0  0
    1.1030   -0.5920   -0.1080 C   0  0  0  0  0  0  0  0  0  0  0  0
    1.2490    0.6320    0.0770 O   0  0  0  0  0  0  0  0  0  0  0  0
    0.1040   -1.0830   -0.9820 N   0  0  0  0  0  0  0  0  0  0  0  0
   -0.8090   -0.2290   -1.6870 C   0  0  0  0  0  0  0  0  0  0  0  0
   -1.7450    0.5910   -0.9260 C   0  0  2  0  0  0  0  0  0  0  0  0
   -2.4410    1.5080   -1.9570 C   0  0  0  0  0  0  0  0  0  0  0  0
   -1.0690    1.4720   -0.1040 O   0  0  0  0  0  0  0  0  0  0  0  0
   -2.8210   -0.1700   -0.1440 C   0  0  2  0  0  0  0  0  0  0  0  0
   -2.0610   -0.7130    1.0880 C   0  0  0  0  0  0  0  0  0  0  0  0
   -3.3590   -1.3440   -0.8440 C   0  0  0  0  0  0  0  0  0  0  0  0
   -5.2000   -1.3890   -0.8310 S   0  0  0  0  0  0  0  0  0  0  0  0
   -5.5250   -0.6590    0.8190 C   0  0  0  0  0  0  0  0  0  0  0  0
   -4.8460    0.6750    0.7600 C   0  0  0  0  0  0  0  0  0  0  0  0
   -3.6300    0.7760    0.3150 O   0  0  0  0  0  0  0  0  0  0  0  0
    3.7860    1.1010    0.0710 O   0  0  0  0  0  0  0  0  0  0  0  0
    4.9940    1.7450   -0.2390 C   0  0  0  0  0  0  0  0  0  0  0  0
  1  2  2  0
  2  3  1  0
  2 22  1  0
  3  4  2  0
  4  5  1  0
  4 21  1  0
  5  6  1  0
  6  7  1  0
  7  8  2  0
  7  9  1  0
  9 10  1  0
 10 11  1  0
 11 12  1  6
 11 13  1  0
 11 14  1  0
 14 15  1  1
 14 16  1  0
 14 20  1  0
 16 17  1  0
 17 18  1  0
 18 19  1  0
 19 20  1  0
 21 22  1  0
M  END
