
     RDKit          3D

 22 23  0  0  0  0  0  0  0  0999 V2000
   -4.6510   -2.4820   -0.0750 C   0  0  0  0  0  0  0  0  0  0  0  0
   -3.4800   -2.4690    0.8730 C   0  0  0  0  0  0  0  0  0  0  0  0
   -2.1230   -1.4790    0.2550 S   0  0  0  0  0  0  0  0  0  0  0  0
   -2.4590    0.2810    0.2210 C   0  0  2  0  0  0  0  0  0  0  0  0
   -3.4950    0.6310   -0.8090 C   0  0  0  0  0  0  0  0  0  0  0  0
   -3.8550    2.1080   -0.6170 C   0  0  0  0  0  0  0  0  0  0  0  0
   -2.9790    2.7800    0.3860 C   0  0  0  0  0  0  0  0  0  0  0  0
   -1.5200    2.5240    0.2130 C   0  0  0  0  0  0  0  0  0  0  0  0
   -1.2100    1.0790   -0.1070 C   0  0  1  0  0  0  0  0  0  0  0  0
   -0.0540    0.5990    0.5730 N   0  0  0  0  0  0  0  0  0  0  0  0
    1.0860    0.1990   -0.1880 C   0  0  0  0  0  0  0  0  0  0  0  0
    1.0520    0.2840   -1.4530 O   0  0  0  0  0  0  0  0  0  0  0  0
    2.2130   -0.2800    0.5260 N   0  0  0  0  0  0  0  0  0  0  0  0
    3.4020   -0.6960   -0.1770 C   0  0  2  0  0  0  0  0  0  0  0  0
    3.9560    0.4680   -0.9350 C   0  0  0  0  0  0  0  0  0  0  0  0
    4.3310    1.6360   -0.0800 C   0  0  0  0  0  0  0  0  0  0  0  0
    3.2560    2.1540    0.6340 O   0  0  0  0  0  0  0  0  0  0  0  0
    2.9970   -1.7680   -1.1870 C   0  0  0  0  0  0  0  0  0  0  0  0
    3.7310   -3.0130   -0.8150 C   0  0  0  0  0  0  0  0  0  0  0  0
    4.7900   -2.5260   -0.0120 O   0  0  0  0  0  0  0  0  0  0  0  0
    4.3720   -1.3800    0.6740 C   0  0  0  0  0  0  0  0  0  0  0  0
    4.8200   -1.0900    1.8170 O   0  0  0  0  0  0  0  0  0  0  0  0
  1  2  1  0
  2  3  1  0
  4  3  1  6
  4  5  1  0
  4  9  1  0
  5  6  1  0
  6  7  1  0
  7  8  1  0
  8  9  1  0
  9 10  1  1
 10 11  1  0
 11 12  2  0
 11 13  1  0
 13 14  1  0
 14 15  1  6
 14 18  1  0
 14 21  1  0
 15 16  1  0
 16 17  1  0
 18 19  1  0
 19 20  1  0
 20 21  1  0
 21 22  2  0
M  END
