
     RDKit          3D

 22 22  0  0  0  0  0  0  0  0999 V2000
   -3.6520    3.6110   -1.7130 C   0  0  0  0  0  0  0  0  0  0  0  0
   -4.2180    2.2370   -1.5380 C   0  0  0  0  0  0  0  0  0  0  0  0
   -3.5080    1.5350   -0.5580 O   0  0  0  0  0  0  0  0  0  0  0  0
   -2.1680    1.2900   -0.6850 C   0  0  0  0  0  0  0  0  0  0  0  0
   -1.5800    1.7160   -1.7170 O   0  0  0  0  0  0  0  0  0  0  0  0
   -1.3680    0.5580    0.3110 C   0  0  2  0  0  0  0  0  0  0  0  0
   -0.0310    0.4490   -0.0640 O   0  0  0  0  0  0  0  0  0  0  0  0
    1.0320    1.0050    0.6310 C   0  0  0  0  0  0  0  0  0  0  0  0
    0.7690    1.6550    1.6750 O   0  0  0  0  0  0  0  0  0  0  0  0
    2.4390    0.8530    0.1770 C   0  0  2  0  0  0  0  0  0  0  0  0
    2.4240    0.0630   -1.0400 N   0  0  0  0  0  0  0  0  0  0  0  0
    3.2700    0.1570    1.2310 C   0  0  0  0  0  0  0  0  0  0  0  0
    4.6930   -0.0230    0.8290 C   0  0  2  0  0  0  0  0  0  0  0  0
    5.4180    1.2550    0.5460 C   0  0  0  0  0  0  0  0  0  0  0  0
    4.7810   -0.9320   -0.3790 C   0  0  0  0  0  0  0  0  0  0  0  0
   -1.9800   -0.7670    0.6480 C   0  0  0  0  0  0  0  0  0  0  0  0
   -2.4010   -1.2090    1.8230 C   0  0  0  0  0  0  0  0  0  0  0  0
   -2.9180   -2.5330    1.7000 N   0  0  0  0  0  0  0  0  0  0  0  0
   -2.4750   -3.0520    0.4450 C   0  0  1  0  0  0  0  0  0  0  0  0
   -3.4880   -3.9390   -0.2320 C   0  0  0  0  0  0  0  0  0  0  0  0
   -2.2090   -1.8170   -0.3380 C   0  0  0  0  0  0  0  0  0  0  0  0
   -2.1660   -1.6070   -1.9540 S   0  0  0  0  0  0  0  0  0  0  0  0
  1  2  1  0
  2  3  1  0
  3  4  1  0
  4  5  2  0
  4  6  1  0
  6  7  1  6
  6 16  1  0
  7  8  1  0
  8  9  2  0
  8 10  1  0
 10 11  1  6
 10 12  1  0
 12 13  1  0
 13 14  1  6
 13 15  1  0
 16 17  2  0
 16 21  1  0
 17 18  1  0
 18 19  1  0
 19 20  1  6
 19 21  1  0
 21 22  2  0
M  END
