
     RDKit          3D

 22 23  0  0  0  0  0  0  0  0999 V2000
    5.5100   -0.1910   -2.2460 C   0  0  0  0  0  0  0  0  0  0  0  0
    5.7010   -0.6430   -0.8430 C   0  0  0  0  0  0  0  0  0  0  0  0
    4.7820   -0.3440    0.0530 C   0  0  0  0  0  0  0  0  0  0  0  0
    3.5930    0.4180   -0.3180 C   0  0  0  0  0  0  0  0  0  0  0  0
    2.3570   -0.3300   -0.0620 N   0  0  0  0  0  0  0  0  0  0  0  0
    1.1140    0.2700   -0.3680 C   0  0  0  0  0  0  0  0  0  0  0  0
    1.1070    1.4270   -0.8500 O   0  0  0  0  0  0  0  0  0  0  0  0
   -0.1840   -0.4650   -0.1200 C   0  0  0  0  0  0  0  0  0  0  0  0
   -1.2850    0.4670   -0.5580 C   0  0  0  0  0  0  0  0  0  0  0  0
   -2.6760   -0.0760   -0.3830 C   0  0  1  0  0  0  0  0  0  0  0  0
   -2.7520   -1.3340   -1.2040 C   0  0  0  0  0  0  0  0  0  0  0  0
   -3.9630   -1.9850   -1.1760 O   0  0  0  0  0  0  0  0  0  0  0  0
   -2.9300   -0.2960    1.0700 C   0  0  0  0  0  0  0  0  0  0  0  0
   -3.9190    0.7940    1.4350 C   0  0  2  0  0  0  0  0  0  0  0  0
   -5.2650    0.3240    0.9290 C   0  0  0  0  0  0  0  0  0  0  0  0
   -5.1240    0.5030   -0.5680 C   0  0  0  0  0  0  0  0  0  0  0  0
   -3.6940    0.9490   -0.7930 C   0  0  1  0  0  0  0  0  0  0  0  0
   -3.6330    1.8970    0.4030 C   0  0  0  0  0  0  0  0  0  0  0  0
    4.9890   -0.8670    1.7070 S   0  0  1  0  0  0  0  0  0  0  0  0
    5.8280    0.2880    2.6530 N   0  0  0  0  0  0  0  0  0  0  0  0
    3.6300   -1.0730    2.3260 O   0  0  0  0  0  0  0  0  0  0  0  0
    5.7700   -2.1510    1.7540 O   0  0  0  0  0  0  0  0  0  0  0  0
  1  2  1  0
  2  3  2  3
  3  4  1  0
  3 19  1  0
  4  5  1  0
  5  6  1  0
  6  7  2  0
  6  8  1  0
  8  9  1  0
 10  9  1  1
 10 11  1  0
 10 13  1  0
 10 17  1  0
 11 12  1  0
 14 13  1  6
 14 15  1  0
 14 18  1  0
 15 16  1  0
 17 16  1  1
 17 18  1  0
 19 20  1  1
 19 21  2  0
 19 22  2  0
M  END
