
     RDKit          3D

 22 23  0  0  0  0  0  0  0  0999 V2000
   -4.1050    0.6470   -2.5390 C   0  0  0  0  0  0  0  0  0  0  0  0
   -3.5770    0.7270   -1.1250 C   0  0  1  0  0  0  0  0  0  0  0  0
   -4.5460    1.4410   -0.2070 C   0  0  0  0  0  0  0  0  0  0  0  0
   -3.7380    1.9990    0.9440 C   0  0  0  0  0  0  0  0  0  0  0  0
   -2.2070    1.0810    1.2270 S   0  0  0  0  0  0  0  0  0  0  0  0
   -2.1710   -0.5140    0.4250 C   0  0  2  0  0  0  0  0  0  0  0  0
   -0.9680   -0.8350   -0.3630 C   0  0  2  0  0  0  0  0  0  0  0  0
   -1.1560   -2.1660   -0.9810 N   0  0  0  0  0  0  0  0  0  0  0  0
   -1.2000   -2.3230   -2.3740 C   0  0  0  0  0  0  0  0  0  0  0  0
   -1.0880   -1.3610   -3.1730 O   0  0  0  0  0  0  0  0  0  0  0  0
   -1.3760   -3.5850   -2.9240 O   0  0  0  0  0  0  0  0  0  0  0  0
    0.3450   -0.8210    0.2770 C   0  0  0  0  0  0  0  0  0  0  0  0
    1.2270   -1.5490   -0.3170 O   0  0  0  0  0  0  0  0  0  0  0  0
    0.7840   -0.1470    1.4240 N   0  0  0  0  0  0  0  0  0  0  0  0
    2.0630   -0.1110    2.0350 C   0  0  0  0  0  0  0  0  0  0  0  0
    3.2150    0.5150    1.3740 C   0  0  2  0  0  0  0  0  0  0  0  0
    3.8330   -0.0670    0.1970 C   0  0  0  0  0  0  0  0  0  0  0  0
    5.1760    0.2120    0.2730 C   0  0  0  0  0  0  0  0  0  0  0  0
    5.3350    0.9720    1.5240 C   0  0  2  0  0  0  0  0  0  0  0  0
    6.6900    0.7350    2.1860 C   0  0  0  0  0  0  0  0  0  0  0  0
    4.3170    0.4010    2.3070 O   0  0  0  0  0  0  0  0  0  0  0  0
   -3.3710   -0.6580   -0.5310 C   0  0  0  0  0  0  0  0  0  0  0  0
  2  1  1  6
  2  3  1  0
  2 22  1  0
  3  4  1  0
  4  5  1  0
  5  6  1  0
  6  7  1  0
  6 22  1  6
  7  8  1  1
  7 12  1  0
  8  9  1  0
  9 10  2  0
  9 11  1  0
 12 13  2  0
 12 14  1  0
 14 15  1  0
 16 15  1  1
 16 17  1  0
 16 21  1  0
 17 18  2  0
 18 19  1  0
 19 20  1  1
 19 21  1  0
M  END
