
     RDKit          3D

 22 23  0  0  0  0  0  0  0  0999 V2000
    2.8490   -2.2210    1.0730 C   0  0  0  0  0  0  0  0  0  0  0  0
    2.3920   -0.8240    0.6780 C   0  0  1  0  0  0  0  0  0  0  0  0
    3.1650   -0.3150   -0.4840 C   0  0  0  0  0  0  0  0  0  0  0  0
    2.5170    0.8620   -1.1350 C   0  0  0  0  0  0  0  0  0  0  0  0
    1.0230    0.6820   -1.3510 C   0  0  0  0  0  0  0  0  0  0  0  0
    0.3340    0.4060   -0.0390 C   0  0  2  0  0  0  0  0  0  0  0  0
    0.6710    1.5310    0.8820 C   0  0  0  0  0  0  0  0  0  0  0  0
    0.2410    2.8660    0.4360 C   0  0  0  0  0  0  0  0  0  0  0  0
    0.5370    4.0360    1.2270 N   0  0  0  0  0  0  0  0  0  0  0  0
   -0.3910    3.1310   -0.6160 O   0  0  0  0  0  0  0  0  0  0  0  0
    0.9110   -0.9040    0.4410 C   0  0  1  0  0  0  0  0  0  0  0  0
    0.7000   -1.8570   -0.7100 C   0  0  0  0  0  0  0  0  0  0  0  0
    1.5350   -2.7010   -1.0780 O   0  0  0  0  0  0  0  0  0  0  0  0
   -0.5350   -1.7700   -1.4050 N   0  0  0  0  0  0  0  0  0  0  0  0
   -1.6400   -0.9600   -0.8640 C   0  0  2  0  0  0  0  0  0  0  0  0
   -2.3620   -1.9290    0.0480 C   0  0  0  0  0  0  0  0  0  0  0  0
   -2.6080   -0.6670   -2.0190 C   0  0  0  0  0  0  0  0  0  0  0  0
   -1.1650    0.2930   -0.1850 C   0  0  1  0  0  0  0  0  0  0  0  0
   -1.7910    0.6030    1.1200 C   0  0  0  0  0  0  0  0  0  0  0  0
   -3.5430    0.5950    1.2480 S   0  0  1  0  0  0  0  0  0  0  0  0
   -4.2940    0.6300   -0.0140 O   0  0  0  0  0  0  0  0  0  0  0  0
   -3.9750   -0.5250    2.1900 O   0  0  0  0  0  0  0  0  0  0  0  0
  2  1  1  6
  2  3  1  0
  2 11  1  0
  3  4  1  0
  4  5  1  0
  5  6  1  0
  6  7  1  1
  6 11  1  0
  6 18  1  0
  7  8  1  0
  8  9  1  0
  8 10  2  0
 11 12  1  6
 12 13  2  0
 12 14  1  0
 14 15  1  0
 15 16  1  1
 15 17  1  0
 15 18  1  0
 18 19  1  1
 20 19  1  6
 20 21  2  0
 20 22  2  0
M  END
