
     RDKit          3D

 24 26  0  0  0  0  0  0  0  0999 V2000
   -3.2090   -2.3600    1.8500 C   0  0  0  0  0  0  0  0  0  0  0  0
   -3.1700   -1.7570    0.4490 C   0  0  1  0  0  0  0  0  0  0  0  0
   -3.7820   -0.5070    0.4670 N   0  0  0  0  0  0  0  0  0  0  0  0
   -3.4200    0.4470   -0.5080 C   0  0  1  0  0  0  0  0  0  0  0  0
   -4.2900    0.2160   -2.0560 Cl  0  0  0  0  0  0  0  0  0  0  0  0
   -3.7240    1.8490   -0.0390 C   0  0  0  0  0  0  0  0  0  0  0  0
   -2.7790    2.6790   -0.9160 C   0  0  0  0  0  0  0  0  0  0  0  0
   -1.6000    1.7460   -1.0260 C   0  0  0  0  0  0  0  0  0  0  0  0
   -1.9740    0.5020   -0.7950 C   0  0  0  0  0  0  0  0  0  0  0  0
   -1.1790   -0.7100   -0.7890 N   0  0  0  0  0  0  0  0  0  0  0  0
    0.1000   -0.7600   -1.4380 C   0  0  0  0  0  0  0  0  0  0  0  0
    1.2080   -0.3690   -0.5070 C   0  0  0  0  0  0  0  0  0  0  0  0
    0.9110   -0.0630    0.6590 O   0  0  0  0  0  0  0  0  0  0  0  0
    2.5600   -0.3390   -0.9120 N   0  0  0  0  0  0  0  0  0  0  0  0
    3.6750    0.0130   -0.1170 C   0  0  0  0  0  0  0  0  0  0  0  0
    3.6780    0.3900    1.1820 C   0  0  0  0  0  0  0  0  0  0  0  0
    4.8520    0.7120    1.8500 C   0  0  0  0  0  0  0  0  0  0  0  0
    6.0710    0.6610    1.2180 C   0  0  0  0  0  0  0  0  0  0  0  0
    6.1000    0.2800   -0.1060 C   0  0  0  0  0  0  0  0  0  0  0  0
    7.2760    0.2170   -0.7620 F   0  0  0  0  0  0  0  0  0  0  0  0
    4.9240   -0.0340   -0.7460 C   0  0  0  0  0  0  0  0  0  0  0  0
    5.0400   -0.5130   -2.4380 Cl  0  0  0  0  0  0  0  0  0  0  0  0
   -1.7800   -1.8020   -0.0980 C   0  0  0  0  0  0  0  0  0  0  0  0
   -1.0710   -2.8350    0.0370 O   0  0  0  0  0  0  0  0  0  0  0  0
  2  1  1  1
  2  3  1  0
  2 23  1  0
  3  4  1  0
  4  5  1  6
  4  6  1  0
  4  9  1  0
  6  7  1  0
  7  8  1  0
  8  9  2  0
  9 10  1  0
 10 11  1  0
 10 23  1  0
 11 12  1  0
 12 13  2  0
 12 14  1  0
 14 15  1  0
 15 16  2  0
 15 21  1  0
 16 17  1  0
 17 18  2  0
 18 19  1  0
 19 20  1  0
 19 21  2  0
 21 22  1  0
 23 24  2  0
M  END
