
     RDKit          3D

 24 26  0  0  0  0  0  0  0  0999 V2000
    6.0140   -0.9410   -0.5880 C   0  0  0  0  0  0  0  0  0  0  0  0
    5.9180   -1.2010    0.8950 C   0  0  0  0  0  0  0  0  0  0  0  0
    4.6310   -0.7740    1.4860 C   0  0  0  0  0  0  0  0  0  0  0  0
    4.4770   -0.9560    2.7100 O   0  0  0  0  0  0  0  0  0  0  0  0
    3.6120   -0.1710    0.6350 C   0  0  0  0  0  0  0  0  0  0  0  0
    2.3550    0.2800    1.0430 C   0  0  0  0  0  0  0  0  0  0  0  0
    1.6720    0.7900   -0.0480 C   0  0  0  0  0  0  0  0  0  0  0  0
    0.3030    1.3670   -0.0310 C   0  0  0  0  0  0  0  0  0  0  0  0
   -0.7150    0.3460   -0.2730 C   0  0  0  0  0  0  0  0  0  0  0  0
   -0.3710   -0.8470   -0.4610 O   0  0  0  0  0  0  0  0  0  0  0  0
   -2.1010    0.6500   -0.3050 N   0  0  0  0  0  0  0  0  0  0  0  0
   -2.6770    1.9830   -0.1060 C   0  0  0  0  0  0  0  0  0  0  0  0
   -3.9820    1.6530    0.5770 C   0  0  1  0  0  0  0  0  0  0  0  0
   -5.2460    2.8390    0.1260 Cl  0  0  0  0  0  0  0  0  0  0  0  0
   -4.3600    0.3500   -0.0130 C   0  0  0  0  0  0  0  0  0  0  0  0
   -5.5840   -0.2780   -0.0920 C   0  0  0  0  0  0  0  0  0  0  0  0
   -7.0580    0.3970    0.5430 Cl  0  0  0  0  0  0  0  0  0  0  0  0
   -5.6460   -1.5150   -0.7100 C   0  0  0  0  0  0  0  0  0  0  0  0
   -4.4800   -2.0700   -1.2230 C   0  0  0  0  0  0  0  0  0  0  0  0
   -4.5620   -3.2930   -1.8300 F   0  0  0  0  0  0  0  0  0  0  0  0
   -3.2590   -1.4460   -1.1450 C   0  0  0  0  0  0  0  0  0  0  0  0
   -3.2060   -0.2040   -0.5230 C   0  0  0  0  0  0  0  0  0  0  0  0
    2.5160    0.6400   -1.0850 N   0  0  0  0  0  0  0  0  0  0  0  0
    3.6440    0.0800   -0.6810 N   0  0  0  0  0  0  0  0  0  0  0  0
  1  2  1  0
  2  3  1  0
  3  4  2  0
  3  5  1  0
  5  6  1  0
  5 24  2  0
  6  7  2  0
  7  8  1  0
  7 23  1  0
  8  9  1  0
  9 10  2  0
  9 11  1  0
 11 12  1  0
 11 22  1  0
 12 13  1  0
 13 14  1  6
 13 15  1  0
 15 16  2  0
 15 22  1  0
 16 17  1  0
 16 18  1  0
 18 19  2  0
 19 20  1  0
 19 21  1  0
 21 22  2  0
 23 24  1  0
M  END
