
     RDKit          3D

 27 28  0  0  0  0  0  0  0  0999 V2000
   -5.9480   -3.3050   -1.6660 C   0  0  0  0  0  0  0  0  0  0  0  0
   -5.2870   -2.5400   -0.5370 C   0  0  0  0  0  0  0  0  0  0  0  0
   -4.1620   -1.6870   -1.0340 C   0  0  0  0  0  0  0  0  0  0  0  0
   -3.5590   -0.9670    0.1110 C   0  0  0  0  0  0  0  0  0  0  0  0
   -4.0220   -1.1470    1.2500 O   0  0  0  0  0  0  0  0  0  0  0  0
   -2.4590   -0.0770   -0.0970 N   0  0  0  0  0  0  0  0  0  0  0  0
   -1.8960    0.6040    1.0190 C   0  0  1  0  0  0  0  0  0  0  0  0
   -0.4520    0.2110    1.1820 C   0  0  0  0  0  0  0  0  0  0  0  0
   -0.1390   -1.0380    1.3920 N   0  0  0  0  0  0  0  0  0  0  0  0
    1.1750   -1.3640    1.5360 O   0  0  0  0  0  0  0  0  0  0  0  0
    2.1560   -1.1070    0.5890 C   0  0  0  0  0  0  0  0  0  0  0  0
    1.8160   -0.5480   -0.4480 O   0  0  0  0  0  0  0  0  0  0  0  0
    3.4810   -1.4990    0.8690 N   0  0  0  0  0  0  0  0  0  0  0  0
    4.5840   -1.3150    0.0310 C   0  0  0  0  0  0  0  0  0  0  0  0
    5.7920   -1.8700    0.3990 C   0  0  0  0  0  0  0  0  0  0  0  0
    6.9360   -1.7480   -0.3380 C   0  0  0  0  0  0  0  0  0  0  0  0
    6.8860   -1.0360   -1.5110 C   0  0  0  0  0  0  0  0  0  0  0  0
    5.6990   -0.4710   -1.9040 C   0  0  0  0  0  0  0  0  0  0  0  0
    4.5390   -0.6090   -1.1320 C   0  0  0  0  0  0  0  0  0  0  0  0
    0.5540    1.1600    1.1120 O   0  0  0  0  0  0  0  0  0  0  0  0
    0.4430    2.4040    0.4470 C   0  0  2  0  0  0  0  0  0  0  0  0
    0.9560    3.5470    1.2960 C   0  0  0  0  0  0  0  0  0  0  0  0
    0.7980    4.7090    0.5480 O   0  0  0  0  0  0  0  0  0  0  0  0
   -0.9530    2.6750   -0.0240 C   0  0  1  0  0  0  0  0  0  0  0  0
   -1.1780    2.1460   -1.2970 O   0  0  0  0  0  0  0  0  0  0  0  0
   -1.9880    2.1040    0.9200 C   0  0  2  0  0  0  0  0  0  0  0  0
   -1.7330    2.6290    2.1860 O   0  0  0  0  0  0  0  0  0  0  0  0
  1  2  1  0
  2  3  1  0
  3  4  1  0
  4  5  2  0
  4  6  1  0
  7  6  1  6
  7  8  1  0
  7 26  1  0
  8  9  2  3
  8 20  1  0
  9 10  1  0
 10 11  1  0
 11 12  2  0
 11 13  1  0
 13 14  1  0
 14 15  2  0
 14 19  1  0
 15 16  1  0
 16 17  2  0
 17 18  1  0
 18 19  2  0
 20 21  1  0
 21 22  1  1
 21 24  1  0
 22 23  1  0
 24 25  1  6
 24 26  1  0
 26 27  1  1
M  END
