
     RDKit          3D

 24 26  0  0  0  0  0  0  0  0999 V2000
   -1.5720   -2.4980   -0.1390 O   0  0  0  0  0  0  0  0  0  0  0  0
   -0.7570   -1.6490   -0.5300 C   0  0  0  0  0  0  0  0  0  0  0  0
   -1.1510   -0.7510   -1.6640 C   0  0  0  0  0  0  0  0  0  0  0  0
   -1.0410    0.6890   -1.2450 C   0  0  1  0  0  0  0  0  0  0  0  0
   -1.5520    0.9660    0.1430 C   0  0  0  0  0  0  0  0  0  0  0  0
   -2.9700    0.6110    0.2270 C   0  0  0  0  0  0  0  0  0  0  0  0
   -3.5990    0.7900    1.4630 C   0  0  0  0  0  0  0  0  0  0  0  0
   -4.9190    0.4830    1.6070 C   0  0  0  0  0  0  0  0  0  0  0  0
   -5.6320   -0.0070    0.5160 C   0  0  0  0  0  0  0  0  0  0  0  0
   -4.9940   -0.1770   -0.6940 C   0  0  0  0  0  0  0  0  0  0  0  0
   -5.9350   -0.7960   -2.0330 Cl  0  0  0  0  0  0  0  0  0  0  0  0
   -3.6850    0.1360   -0.8060 N   0  0  0  0  0  0  0  0  0  0  0  0
    0.3280    1.1200   -1.2860 N   0  0  0  0  0  0  0  0  0  0  0  0
    1.4550    0.5600   -0.6450 C   0  0  0  0  0  0  0  0  0  0  0  0
    2.5580    1.3710   -0.7060 C   0  0  0  0  0  0  0  0  0  0  0  0
    3.7680    0.9790   -0.1230 C   0  0  0  0  0  0  0  0  0  0  0  0
    3.8660   -0.2270    0.5190 C   0  0  0  0  0  0  0  0  0  0  0  0
    5.0170   -0.6580    1.1030 O   0  0  0  0  0  0  0  0  0  0  0  0
    6.2360    0.0180    1.1470 C   0  0  1  0  0  0  0  0  0  0  0  0
    6.5710    0.2310    2.4870 F   0  0  0  0  0  0  0  0  0  0  0  0
    7.5000   -1.0380    0.4240 Cl  0  0  0  0  0  0  0  0  0  0  0  0
    2.7340   -1.0430    0.5740 C   0  0  0  0  0  0  0  0  0  0  0  0
    1.5430   -0.6680    0.0060 C   0  0  0  0  0  0  0  0  0  0  0  0
    0.4920   -1.6180    0.1540 N   0  0  0  0  0  0  0  0  0  0  0  0
  1  2  2  0
  2  3  1  0
  2 24  1  0
  3  4  1  0
  4  5  1  1
  4 13  1  0
  5  6  1  0
  6  7  2  0
  6 12  1  0
  7  8  1  0
  8  9  2  0
  9 10  1  0
 10 11  1  0
 10 12  2  0
 13 14  1  0
 14 15  2  0
 14 23  1  0
 15 16  1  0
 16 17  2  0
 17 18  1  0
 17 22  1  0
 18 19  1  0
 19 20  1  1
 19 21  1  0
 22 23  2  0
 23 24  1  0
M  END
