
     RDKit          3D

 24 26  0  0  0  0  0  0  0  0999 V2000
    6.1930   -0.0350   -0.6040 C   0  0  0  0  0  0  0  0  0  0  0  0
    5.0610   -0.8330   -0.1860 N   0  0  0  0  0  0  0  0  0  0  0  0
    3.8080   -0.2080   -0.0330 C   0  0  0  0  0  0  0  0  0  0  0  0
    3.6200    1.1490   -0.2660 C   0  0  0  0  0  0  0  0  0  0  0  0
    2.4060    1.7670   -0.1190 C   0  0  0  0  0  0  0  0  0  0  0  0
    1.9560    3.0230   -0.2730 N   0  0  0  0  0  0  0  0  0  0  0  0
    0.6240    3.0340    0.0250 C   0  0  0  0  0  0  0  0  0  0  0  0
   -0.0880    4.0620   -0.0240 O   0  0  0  0  0  0  0  0  0  0  0  0
    0.2250    1.7950    0.3660 N   0  0  0  0  0  0  0  0  0  0  0  0
   -1.1010    1.3640    0.7520 C   0  0  0  0  0  0  0  0  0  0  0  0
   -1.8480    0.9450   -0.4720 C   0  0  0  0  0  0  0  0  0  0  0  0
   -3.2480    0.4750   -0.1770 C   0  0  2  0  0  0  0  0  0  0  0  0
   -3.2960   -0.7100    0.7480 C   0  0  0  0  0  0  0  0  0  0  0  0
   -3.8830   -1.9130    0.0120 C   0  0  0  0  0  0  0  0  0  0  0  0
   -5.2000   -1.5900   -0.6150 C   0  0  0  0  0  0  0  0  0  0  0  0
   -5.1560   -0.2090   -1.2180 C   0  0  0  0  0  0  0  0  0  0  0  0
   -3.8420    0.1470   -1.4170 O   0  0  0  0  0  0  0  0  0  0  0  0
    1.3380    1.0170    0.2740 C   0  0  0  0  0  0  0  0  0  0  0  0
    1.4950   -0.3210    0.5100 C   0  0  0  0  0  0  0  0  0  0  0  0
    2.7160   -0.9560    0.3650 C   0  0  0  0  0  0  0  0  0  0  0  0
    2.8000   -2.3930    0.6360 C   0  0  1  0  0  0  0  0  0  0  0  0
    1.5590   -2.8590    1.0130 F   0  0  0  0  0  0  0  0  0  0  0  0
    3.2950   -3.3280   -0.7930 Cl  0  0  0  0  0  0  0  0  0  0  0  0
    3.9020   -2.7300    1.9910 Cl  0  0  0  0  0  0  0  0  0  0  0  0
  1  2  1  0
  2  3  1  0
  3  4  2  0
  3 20  1  0
  4  5  1  0
  5  6  1  0
  5 18  2  0
  6  7  1  0
  7  8  2  0
  7  9  1  0
  9 10  1  0
  9 18  1  0
 10 11  1  0
 12 11  1  6
 12 13  1  0
 12 17  1  0
 13 14  1  0
 14 15  1  0
 15 16  1  0
 16 17  1  0
 18 19  1  0
 19 20  2  0
 20 21  1  0
 21 22  1  1
 21 23  1  0
 21 24  1  0
M  END
