
     RDKit          3D

 24 26  0  0  0  0  0  0  0  0999 V2000
   -1.2370   -0.6520   -1.6190 C   0  0  0  0  0  0  0  0  0  0  0  0
   -1.4800    0.0660   -0.2910 C   0  0  2  0  0  0  0  0  0  0  0  0
   -0.6410   -0.5080    0.7520 N   0  0  0  0  0  0  0  0  0  0  0  0
    0.7690   -0.4850    0.7190 C   0  0  0  0  0  0  0  0  0  0  0  0
    1.4400    0.1310   -0.3290 C   0  0  0  0  0  0  0  0  0  0  0  0
    2.8260    0.1760   -0.3910 C   0  0  0  0  0  0  0  0  0  0  0  0
    3.5020   -0.4270    0.6470 C   0  0  0  0  0  0  0  0  0  0  0  0
    2.8460   -1.0400    1.6910 C   0  0  0  0  0  0  0  0  0  0  0  0
    1.4720   -1.0830    1.7490 C   0  0  0  0  0  0  0  0  0  0  0  0
    0.6330   -1.8670    3.0830 Cl  0  0  0  0  0  0  0  0  0  0  0  0
    4.9330   -0.2320    0.3290 C   0  0  0  0  0  0  0  0  0  0  0  0
    5.8660   -0.6620    1.0750 O   0  0  0  0  0  0  0  0  0  0  0  0
    5.0790    0.4810   -0.8900 N   0  0  0  0  0  0  0  0  0  0  0  0
    6.3560    0.8470   -1.5030 C   0  0  0  0  0  0  0  0  0  0  0  0
    3.7660    0.7480   -1.3620 C   0  0  0  0  0  0  0  0  0  0  0  0
    3.4650    1.3660   -2.4220 O   0  0  0  0  0  0  0  0  0  0  0  0
   -2.9170   -0.1460    0.0420 C   0  0  0  0  0  0  0  0  0  0  0  0
   -3.8340    0.7810    0.2090 C   0  0  0  0  0  0  0  0  0  0  0  0
   -3.7650    2.2640    0.1300 C   0  0  2  0  0  0  0  0  0  0  0  0
   -2.5660    2.7960   -0.1600 F   0  0  0  0  0  0  0  0  0  0  0  0
   -4.4190    3.0170    1.6190 Cl  0  0  0  0  0  0  0  0  0  0  0  0
   -5.1200    0.0500    0.5290 C   0  0  0  0  0  0  0  0  0  0  0  0
   -4.8830   -1.3160    0.1050 N   0  0  0  0  0  0  0  0  0  0  0  0
   -3.4710   -1.5230    0.2260 C   0  0  0  0  0  0  0  0  0  0  0  0
  2  1  1  6
  2  3  1  0
  2 17  1  0
  3  4  1  0
  4  5  2  0
  4  9  1  0
  5  6  1  0
  6  7  2  0
  6 15  1  0
  7  8  1  0
  7 11  1  0
  8  9  2  0
  9 10  1  0
 11 12  2  0
 11 13  1  0
 13 14  1  0
 13 15  1  0
 15 16  2  0
 17 18  2  0
 17 24  1  0
 18 19  1  0
 18 22  1  0
 19 20  1  1
 19 21  1  0
 22 23  1  0
 23 24  1  0
M  END
