
     RDKit          3D

 24 26  0  0  0  0  0  0  0  0999 V2000
    2.3210    1.1450    1.8670 O   0  0  0  0  0  0  0  0  0  0  0  0
    1.8560    0.3690    1.0070 C   0  0  0  0  0  0  0  0  0  0  0  0
    2.6430   -0.0840   -0.0590 N   0  0  0  0  0  0  0  0  0  0  0  0
    3.9840    0.2530   -0.3020 C   0  0  0  0  0  0  0  0  0  0  0  0
    4.6740   -0.4470   -1.3100 C   0  0  0  0  0  0  0  0  0  0  0  0
    5.9770   -0.1340   -1.5760 C   0  0  0  0  0  0  0  0  0  0  0  0
    6.6520    0.8570   -0.8840 C   0  0  0  0  0  0  0  0  0  0  0  0
    5.9930    1.5170    0.0710 N   0  0  0  0  0  0  0  0  0  0  0  0
    4.6830    1.2170    0.3530 C   0  0  0  0  0  0  0  0  0  0  0  0
    0.4280   -0.0780    1.1330 C   0  0  1  0  0  0  0  0  0  0  0  0
   -0.5350    1.0830    1.1810 C   0  0  0  0  0  0  0  0  0  0  0  0
   -1.8570    0.5080    1.3090 N   0  0  0  0  0  0  0  0  0  0  0  0
   -2.2370   -0.4700    0.3190 C   0  0  0  0  0  0  0  0  0  0  0  0
   -1.2280   -1.1870   -0.2850 C   0  0  0  0  0  0  0  0  0  0  0  0
   -1.5680   -2.1350   -1.2400 C   0  0  0  0  0  0  0  0  0  0  0  0
   -2.9030   -2.3550   -1.5770 C   0  0  0  0  0  0  0  0  0  0  0  0
   -3.8960   -1.6260   -0.9600 C   0  0  0  0  0  0  0  0  0  0  0  0
   -5.5550   -1.9410   -1.4190 Cl  0  0  0  0  0  0  0  0  0  0  0  0
   -3.5600   -0.6780   -0.0070 C   0  0  0  0  0  0  0  0  0  0  0  0
   -4.6070    0.1190    0.6450 C   0  0  0  0  0  0  0  0  0  0  0  0
   -4.7540    1.5110    0.0830 C   0  0  1  0  0  0  0  0  0  0  0  0
   -3.6300    2.2830    0.1770 F   0  0  0  0  0  0  0  0  0  0  0  0
   -5.2430    1.4660   -1.6300 Cl  0  0  0  0  0  0  0  0  0  0  0  0
    0.1040   -0.9390    0.0820 O   0  0  0  0  0  0  0  0  0  0  0  0
  1  2  2  0
  2  3  1  0
 10  2  1  6
  3  4  1  0
  4  5  2  0
  4  9  1  0
  5  6  1  0
  6  7  2  0
  7  8  1  0
  8  9  2  0
 10 11  1  0
 10 24  1  0
 11 12  1  0
 12 13  1  0
 13 14  2  0
 13 19  1  0
 14 15  1  0
 14 24  1  0
 15 16  2  0
 16 17  1  0
 17 18  1  0
 17 19  2  0
 19 20  1  0
 20 21  1  0
 21 22  1  6
 21 23  1  0
M  END
