
     RDKit          3D

 24 25  0  0  0  0  0  0  0  0999 V2000
   -4.9090   -1.2320   -0.4710 C   0  0  0  0  0  0  0  0  0  0  0  0
   -3.4550   -1.2440   -0.0720 C   0  0  2  0  0  0  0  0  0  0  0  0
   -3.2960   -1.2550    1.4180 C   0  0  0  0  0  0  0  0  0  0  0  0
   -2.1000   -1.9780    1.9170 C   0  0  0  0  0  0  0  0  0  0  0  0
   -0.7870   -1.4450    1.5360 C   0  0  0  0  0  0  0  0  0  0  0  0
   -0.4570   -0.4490    0.7050 C   0  0  0  0  0  0  0  0  0  0  0  0
    0.9300   -0.2560    0.6030 C   0  0  0  0  0  0  0  0  0  0  0  0
    1.7590   -0.9260    1.3430 O   0  0  0  0  0  0  0  0  0  0  0  0
    1.6530    0.5930   -0.2130 N   0  0  0  0  0  0  0  0  0  0  0  0
    3.0860    0.4880   -0.1610 C   0  0  0  0  0  0  0  0  0  0  0  0
    3.4770    1.6890   -0.1160 N   0  0  0  0  0  0  0  0  0  0  0  0
    4.8280    1.9790   -0.0210 N   0  0  0  0  0  0  0  0  0  0  0  0
    5.7960    0.9540    0.0270 C   0  0  0  0  0  0  0  0  0  0  0  0
    6.9810    1.0740   -0.2200 O   0  0  0  0  0  0  0  0  0  0  0  0
    5.2310   -0.3870    0.4290 C   0  0  0  0  0  0  0  0  0  0  0  0
    4.0660   -0.5430   -0.5630 C   0  0  0  0  0  0  0  0  0  0  0  0
   -1.4270    0.3780    0.0230 C   0  0  0  0  0  0  0  0  0  0  0  0
   -1.3020    1.6550    0.1080 C   0  0  0  0  0  0  0  0  0  0  0  0
   -0.3140    2.4920    0.8220 C   0  0  0  0  0  0  0  0  0  0  0  0
   -1.2510    3.6150    1.9150 Cl  0  0  0  0  0  0  0  0  0  0  0  0
   -2.6490   -0.1450   -0.6660 C   0  0  0  0  0  0  0  0  0  0  0  0
   -2.9200    0.4210   -1.8060 C   0  0  0  0  0  0  0  0  0  0  0  0
   -2.1660    1.4340   -2.3460 F   0  0  0  0  0  0  0  0  0  0  0  0
   -4.2910   -0.0680   -2.7940 Cl  0  0  0  0  0  0  0  0  0  0  0  0
  2  1  1  1
  2  3  1  0
  2 21  1  0
  3  4  1  0
  4  5  1  0
  5  6  2  0
  6  7  1  0
  6 17  1  0
  7  8  2  0
  7  9  1  0
  9 10  1  0
 10 11  2  0
 10 16  1  0
 11 12  1  0
 12 13  1  0
 13 14  2  0
 13 15  1  0
 15 16  1  0
 17 18  2  3
 17 21  1  0
 18 19  1  0
 19 20  1  0
 21 22  2  3
 22 23  1  0
 22 24  1  0
M  END
