
     RDKit          3D

 24 26  0  0  0  0  0  0  0  0999 V2000
   -4.3640    0.5570   -0.6970 O   0  0  0  0  0  0  0  0  0  0  0  0
   -4.0550   -0.6000   -0.3890 C   0  0  0  0  0  0  0  0  0  0  0  0
   -2.7730   -0.9980    0.0590 N   0  0  0  0  0  0  0  0  0  0  0  0
   -1.6870   -0.1230    0.2100 C   0  0  0  0  0  0  0  0  0  0  0  0
   -1.7560    1.1980   -0.0630 C   0  0  0  0  0  0  0  0  0  0  0  0
   -0.6070    1.9730    0.1270 C   0  0  0  0  0  0  0  0  0  0  0  0
   -0.6590    3.3250   -0.1340 C   0  0  0  0  0  0  0  0  0  0  0  0
    0.4650    4.1350    0.0580 C   0  0  0  0  0  0  0  0  0  0  0  0
    1.6340    3.5790    0.5120 C   0  0  0  0  0  0  0  0  0  0  0  0
    1.6910    2.1980    0.7790 C   0  0  0  0  0  0  0  0  0  0  0  0
    3.1860    1.5870    1.3960 Cl  0  0  0  0  0  0  0  0  0  0  0  0
    0.5860    1.4040    0.5870 C   0  0  0  0  0  0  0  0  0  0  0  0
    0.6480    0.0890    0.8550 N   0  0  0  0  0  0  0  0  0  0  0  0
    1.8230   -0.6220    1.2390 C   0  0  0  0  0  0  0  0  0  0  0  0
    2.5010   -1.3220    0.1350 C   0  0  0  0  0  0  0  0  0  0  0  0
    2.6060   -2.7100   -0.0830 C   0  0  0  0  0  0  0  0  0  0  0  0
    3.2900   -2.9680   -1.2490 C   0  0  0  0  0  0  0  0  0  0  0  0
    3.6050   -1.7280   -1.7490 C   0  0  0  0  0  0  0  0  0  0  0  0
    3.1200   -0.7860   -0.9000 N   0  0  0  0  0  0  0  0  0  0  0  0
   -0.5050   -0.6260    0.6540 C   0  0  0  0  0  0  0  0  0  0  0  0
   -0.4430   -1.8780    0.9120 O   0  0  0  0  0  0  0  0  0  0  0  0
   -5.1040   -1.6810   -0.4900 C   0  0  1  0  0  0  0  0  0  0  0  0
   -6.2960   -1.1680   -0.9340 F   0  0  0  0  0  0  0  0  0  0  0  0
   -4.5120   -2.9890   -1.5210 Cl  0  0  0  0  0  0  0  0  0  0  0  0
  1  2  2  0
  2  3  1  0
  2 22  1  0
  3  4  1  0
  4  5  2  0
  4 20  1  0
  5  6  1  0
  6  7  2  0
  6 12  1  0
  7  8  1  0
  8  9  2  0
  9 10  1  0
 10 11  1  0
 10 12  2  0
 12 13  1  0
 13 14  1  0
 13 20  1  0
 14 15  1  0
 15 16  2  0
 15 19  1  0
 16 17  1  0
 17 18  2  0
 18 19  1  0
 20 21  2  0
 22 23  1  6
 22 24  1  0
M  END
