
     RDKit          3D

 10 10  0  0  0  0  0  0  0  0999 V2000
   -1.1770    1.9610   -0.7480 O   0  0  0  0  0  0  0  0  0  0  0  0
   -1.4950    1.2290    0.3610 C   0  0  0  0  0  0  0  0  0  0  0  0
   -0.8780   -0.1090    0.4680 C   0  0  1  0  0  0  0  0  0  0  0  0
   -1.1860   -1.0680   -0.6230 C   0  0  0  0  0  0  0  0  0  0  0  0
   -0.1040   -1.9250   -0.7720 O   0  0  0  0  0  0  0  0  0  0  0  0
    0.8280   -1.6170    0.1830 C   0  0  0  0  0  0  0  0  0  0  0  0
    0.6200   -0.1210    0.4690 C   0  0  2  0  0  0  0  0  0  0  0  0
    1.1980    0.2640    1.6430 O   0  0  0  0  0  0  0  0  0  0  0  0
    1.2140    0.6050   -0.7120 C   0  0  0  0  0  0  0  0  0  0  0  0
    2.5890    0.2920   -0.7340 O   0  0  0  0  0  0  0  0  0  0  0  0
  1  2  1  0
  3  2  1  6
  3  4  1  0
  3  7  1  0
  4  5  1  0
  5  6  1  0
  6  7  1  0
  7  8  1  1
  7  9  1  0
  9 10  1  0
M  END
