
     RDKit          3D

 11 11  0  0  0  0  0  0  0  0999 V2000
   -2.4930    0.0350   -1.3830 O   0  0  0  0  0  0  0  0  0  0  0  0
   -2.2270   -1.0380   -0.5460 C   0  0  0  0  0  0  0  0  0  0  0  0
   -1.5790   -0.5930    0.7180 C   0  0  2  0  0  0  0  0  0  0  0  0
   -2.4660    0.3070    1.3500 O   0  0  0  0  0  0  0  0  0  0  0  0
   -0.2640    0.0630    0.6030 C   0  0  2  0  0  0  0  0  0  0  0  0
   -0.2130    1.2930   -0.2730 C   0  0  0  0  0  0  0  0  0  0  0  0
    1.1890    1.5060   -0.2140 O   0  0  0  0  0  0  0  0  0  0  0  0
    1.6510    0.2260   -0.5230 C   0  0  1  0  0  0  0  0  0  0  0  0
    3.0130    0.0420    0.1450 C   0  0  0  0  0  0  0  0  0  0  0  0
    3.5170   -1.2080   -0.1280 O   0  0  0  0  0  0  0  0  0  0  0  0
    0.7310   -0.6950   -0.0030 O   0  0  0  0  0  0  0  0  0  0  0  0
  1  2  1  0
  2  3  1  0
  3  4  1  6
  3  5  1  0
  5  6  1  6
  5 11  1  0
  6  7  1  0
  7  8  1  0
  8  9  1  1
  8 11  1  0
  9 10  1  0
M  END
