
     RDKit          3D

 11 11  0  0  0  0  0  0  0  0999 V2000
   -3.3530    0.7110   -0.3160 O   0  0  0  0  0  0  0  0  0  0  0  0
   -2.3150    0.2640    0.5010 C   0  0  0  0  0  0  0  0  0  0  0  0
   -1.1160    0.0430   -0.3390 C   0  0  2  0  0  0  0  0  0  0  0  0
   -1.4130   -0.9150   -1.3080 O   0  0  0  0  0  0  0  0  0  0  0  0
    0.1020   -0.4100    0.3960 C   0  0  2  0  0  0  0  0  0  0  0  0
    0.5810    0.5410    1.4490 C   0  0  0  0  0  0  0  0  0  0  0  0
    1.9220    0.1180    1.6130 O   0  0  0  0  0  0  0  0  0  0  0  0
    2.3920    0.1080    0.3060 C   0  0  0  0  0  0  0  0  0  0  0  0
    1.2810   -0.4660   -0.5500 C   0  0  2  0  0  0  0  0  0  0  0  0
    1.0480    0.3330   -1.6580 O   0  0  0  0  0  0  0  0  0  0  0  0
    1.5170   -1.7810   -0.9160 O   0  0  0  0  0  0  0  0  0  0  0  0
  1  2  1  0
  2  3  1  0
  3  4  1  6
  3  5  1  0
  5  6  1  1
  5  9  1  0
  6  7  1  0
  7  8  1  0
  8  9  1  0
  9 10  1  6
  9 11  1  0
M  END
