
     RDKit          3D

 27 29  0  0  0  0  0  0  0  0999 V2000
   -1.8920    0.4190    1.0560 O   0  0  0  0  0  0  0  0  0  0  0  0
   -2.3800   -0.0980    0.0190 C   0  0  0  0  0  0  0  0  0  0  0  0
   -3.7750   -0.1530   -0.1540 N   0  0  0  0  0  0  0  0  0  0  0  0
   -4.7660    0.3250    0.7430 C   0  0  0  0  0  0  0  0  0  0  0  0
   -6.1120    0.2950    0.3460 C   0  0  0  0  0  0  0  0  0  0  0  0
   -7.1230    0.7360    1.1680 C   0  0  0  0  0  0  0  0  0  0  0  0
   -6.8710    1.2330    2.4280 C   0  0  0  0  0  0  0  0  0  0  0  0
   -7.8860    1.6790    3.2580 O   0  0  0  0  0  0  0  0  0  0  0  0
   -5.5590    1.2720    2.8360 C   0  0  0  0  0  0  0  0  0  0  0  0
   -4.5250    0.8200    1.9930 C   0  0  0  0  0  0  0  0  0  0  0  0
   -1.4410   -0.6230   -0.9670 C   0  0  0  0  0  0  0  0  0  0  0  0
   -1.8480   -1.2110   -2.1390 C   0  0  0  0  0  0  0  0  0  0  0  0
   -0.8710   -1.6850   -3.0220 C   0  0  0  0  0  0  0  0  0  0  0  0
   -1.2370   -2.2250   -4.0980 O   0  0  0  0  0  0  0  0  0  0  0  0
    0.4340   -1.5630   -2.7220 N   0  0  0  0  0  0  0  0  0  0  0  0
    0.8310   -0.9880   -1.5770 C   0  0  0  0  0  0  0  0  0  0  0  0
    2.2700   -0.8710   -1.2790 C   0  0  0  0  0  0  0  0  0  0  0  0
    3.0900   -1.3150   -2.1120 O   0  0  0  0  0  0  0  0  0  0  0  0
    2.6560   -0.2590   -0.0620 N   0  0  0  0  0  0  0  0  0  0  0  0
    4.0250   -0.1160    0.2810 C   0  0  0  0  0  0  0  0  0  0  0  0
    4.8100    0.7070   -0.7150 C   0  0  0  0  0  0  0  0  0  0  0  0
    6.2230    0.8220   -0.3090 C   0  0  0  0  0  0  0  0  0  0  0  0
    7.2560    1.3110   -0.6640 N   0  0  0  0  0  0  0  0  0  0  0  0
    8.4210    1.2740   -0.1170 C   0  0  0  0  0  0  0  0  0  0  0  0
    8.5750    0.5750    1.0710 C   0  0  0  0  0  0  0  0  0  0  0  0
    6.8290   -0.0070    1.2780 S   0  0  0  0  0  0  0  0  0  0  0  0
   -0.1070   -0.5440   -0.7490 N   0  0  0  0  0  0  0  0  0  0  0  0
  1  2  2  0
  2  3  1  0
  2 11  1  0
  3  4  1  0
  4  5  2  0
  4 10  1  0
  5  6  1  0
  6  7  2  0
  7  8  1  0
  7  9  1  0
  9 10  2  0
 11 12  2  0
 11 27  1  0
 12 13  1  0
 13 14  2  0
 13 15  1  0
 15 16  1  0
 16 17  1  0
 16 27  2  0
 17 18  2  0
 17 19  1  0
 19 20  1  0
 20 21  1  0
 21 22  1  0
 22 23  2  0
 22 26  1  0
 23 24  1  0
 24 25  2  0
 25 26  1  0
M  END
