
     RDKit          3D

 10 10  0  0  0  0  0  0  0  0999 V2000
   -2.6760   -0.4610    0.8390 O   0  0  0  0  0  0  0  0  0  0  0  0
   -1.5600   -1.1340    0.3600 C   0  0  0  0  0  0  0  0  0  0  0  0
   -0.8040   -0.2100   -0.5660 C   0  0  1  0  0  0  0  0  0  0  0  0
   -1.6470    0.1350   -1.6000 O   0  0  0  0  0  0  0  0  0  0  0  0
   -0.3950    1.0640    0.1400 C   0  0  0  0  0  0  0  0  0  0  0  0
    1.1020    1.0170    0.3040 C   0  0  1  0  0  0  0  0  0  0  0  0
    1.5160    1.5350    1.5110 O   0  0  0  0  0  0  0  0  0  0  0  0
    1.3900   -0.4770    0.1790 C   0  0  2  0  0  0  0  0  0  0  0  0
    2.7080   -0.7510   -0.0580 O   0  0  0  0  0  0  0  0  0  0  0  0
    0.5000   -0.7850   -1.0280 C   0  0  0  0  0  0  0  0  0  0  0  0
  1  2  1  0
  2  3  1  0
  3  4  1  6
  3  5  1  0
  3 10  1  0
  5  6  1  0
  6  7  1  1
  6  8  1  0
  8  9  1  6
  8 10  1  0
M  END
