
     RDKit          3D

 11 11  0  0  0  0  0  0  0  0999 V2000
    1.7820    0.8980    1.4220 O   0  0  0  0  0  0  0  0  0  0  0  0
    1.8870   -0.1290    0.4760 C   0  0  0  0  0  0  0  0  0  0  0  0
    0.8570   -0.0030   -0.6090 C   0  0  2  0  0  0  0  0  0  0  0  0
    1.0460    1.2210   -1.2520 O   0  0  0  0  0  0  0  0  0  0  0  0
   -0.5530   -0.1500   -0.1240 C   0  0  2  0  0  0  0  0  0  0  0  0
   -1.4960   -0.0070   -1.2850 C   0  0  0  0  0  0  0  0  0  0  0  0
   -1.3920    1.2110   -1.9140 O   0  0  0  0  0  0  0  0  0  0  0  0
   -0.8930    0.6910    1.0520 C   0  0  0  0  0  0  0  0  0  0  0  0
   -0.6080   -0.1460    2.1220 O   0  0  0  0  0  0  0  0  0  0  0  0
   -1.0840   -1.2990    1.7750 O   0  0  0  0  0  0  0  0  0  0  0  0
   -0.6990   -1.5470    0.4590 C   0  0  0  0  0  0  0  0  0  0  0  0
  1  2  1  0
  2  3  1  0
  3  4  1  1
  3  5  1  0
  5  6  1  6
  5  8  1  0
  5 11  1  0
  6  7  1  0
  8  9  1  0
  9 10  1  0
 10 11  1  0
M  END
