
     RDKit          3D

 16 15  0  0  0  0  0  0  0  0999 V2000
    5.4830    2.7650   -0.9550 C   0  0  0  0  0  0  0  0  0  0  0  0
    5.1180    1.9430   -1.9050 C   0  0  0  0  0  0  0  0  0  0  0  0
    4.5470    0.7380   -1.5730 O   0  0  0  0  0  0  0  0  0  0  0  0
    3.1890    0.5510   -1.4030 C   0  0  0  0  0  0  0  0  0  0  0  0
    2.4670    1.5770   -1.5730 O   0  0  0  0  0  0  0  0  0  0  0  0
    2.5910   -0.6530   -1.0690 O   0  0  0  0  0  0  0  0  0  0  0  0
    1.2110   -0.7030   -0.9280 N   0  0  0  0  0  0  0  0  0  0  0  0
    0.5620   -1.2000    0.2060 C   0  0  0  0  0  0  0  0  0  0  0  0
    1.2180   -1.6350    1.1750 O   0  0  0  0  0  0  0  0  0  0  0  0
   -0.8060   -1.2170    0.2730 O   0  0  0  0  0  0  0  0  0  0  0  0
   -1.5660   -1.6930    1.3640 C   0  0  0  0  0  0  0  0  0  0  0  0
   -2.9590   -1.5080    0.9810 N   0  0  0  0  0  0  0  0  0  0  0  0
   -3.9470   -1.9630    1.6520 C   0  0  0  0  0  0  0  0  0  0  0  0
   -5.2310   -1.7400    1.2150 O   0  0  0  0  0  0  0  0  0  0  0  0
   -5.6040   -0.7530   -0.1710 S   0  0  0  0  0  0  0  0  0  0  0  0
   -5.4360    0.9600    0.2320 N   0  0  0  0  0  0  0  0  0  0  0  0
  1  2  2  0
  2  3  1  0
  3  4  1  0
  4  5  2  0
  4  6  1  0
  6  7  1  0
  7  8  1  0
  8  9  2  0
  8 10  1  0
 10 11  1  0
 11 12  1  0
 12 13  2  3
 13 14  1  0
 14 15  1  0
 15 16  1  0
M  END
