
     RDKit          3D

 16 15  0  0  0  0  0  0  0  0999 V2000
    5.0610    1.6380    0.3210 C   0  0  0  0  0  0  0  0  0  0  0  0
    4.0650    1.2370   -0.8690 S   0  0  0  0  0  0  0  0  0  0  0  0
    4.4760   -0.2380   -1.5650 O   0  0  0  0  0  0  0  0  0  0  0  0
    5.4080   -0.8520   -0.8430 O   0  0  0  0  0  0  0  0  0  0  0  0
    2.4660    1.1410   -0.2480 O   0  0  0  0  0  0  0  0  0  0  0  0
    1.6120    0.1270   -0.6380 C   0  0  0  0  0  0  0  0  0  0  0  0
    2.0280   -0.7220   -1.4550 O   0  0  0  0  0  0  0  0  0  0  0  0
    0.2520    0.0100   -0.1360 C   0  0  0  0  0  0  0  0  0  0  0  0
   -0.2380    0.8250    0.6880 O   0  0  0  0  0  0  0  0  0  0  0  0
   -0.5610   -1.0290   -0.5630 O   0  0  0  0  0  0  0  0  0  0  0  0
   -1.8530   -1.1420   -0.0870 C   0  0  0  0  0  0  0  0  0  0  0  0
   -2.7300   -2.1840   -0.4880 N   0  0  0  0  0  0  0  0  0  0  0  0
   -2.2670   -0.2610    0.7540 N   0  0  0  0  0  0  0  0  0  0  0  0
   -3.5640   -0.2820    1.3000 C   0  0  0  0  0  0  0  0  0  0  0  0
   -4.5100    0.3450    0.7280 N   0  0  0  0  0  0  0  0  0  0  0  0
   -4.2320    1.0760   -0.4880 C   0  0  0  0  0  0  0  0  0  0  0  0
  1  2  2  0
  2  3  1  1
  2  5  1  0
  3  4  1  0
  5  6  1  0
  6  7  2  0
  6  8  1  0
  8  9  2  0
  8 10  1  0
 10 11  1  0
 11 12  1  0
 11 13  2  3
 13 14  1  0
 14 15  2  3
 15 16  1  0
M  END
