
     RDKit          3D

 16 16  0  0  0  0  0  0  0  0999 V2000
   -3.8410    1.5130    0.8170 C   0  0  0  0  0  0  0  0  0  0  0  0
   -2.6140    1.1160    0.2390 O   0  0  0  0  0  0  0  0  0  0  0  0
   -2.4070   -0.2360    0.0190 C   0  0  0  0  0  0  0  0  0  0  0  0
   -3.3100   -1.0440    0.3410 O   0  0  0  0  0  0  0  0  0  0  0  0
   -1.1590   -0.7190   -0.5760 C   0  0  2  0  0  0  0  0  0  0  0  0
   -1.2320   -2.1640   -0.6810 N   0  0  0  0  0  0  0  0  0  0  0  0
   -0.0480   -2.3990   -1.3390 O   0  0  0  0  0  0  0  0  0  0  0  0
    0.9800   -1.7040   -0.6590 C   0  0  0  0  0  0  0  0  0  0  0  0
    2.1440   -2.1890   -0.7990 O   0  0  0  0  0  0  0  0  0  0  0  0
    0.2990   -0.3830    0.1670 S   0  0  0  0  0  0  0  0  0  0  0  0
    0.8840   -0.8760    1.4740 O   0  0  0  0  0  0  0  0  0  0  0  0
    1.3830    0.6040   -0.9410 N   0  0  0  0  0  0  0  0  0  0  0  0
    2.5800    0.7140   -0.5580 C   0  0  0  0  0  0  0  0  0  0  0  0
    3.1280    0.1480    0.6280 N   0  0  0  0  0  0  0  0  0  0  0  0
    3.4810    1.4860   -1.4020 C   0  0  0  0  0  0  0  0  0  0  0  0
    4.6960    1.6580   -1.1140 O   0  0  0  0  0  0  0  0  0  0  0  0
  1  2  1  0
  2  3  1  0
  3  4  2  0
  5  3  1  1
  5  6  1  0
  5 10  1  0
  6  7  1  0
  7  8  1  0
  8  9  2  0
  8 10  1  0
 10 11  2  0
 10 12  1  0
 12 13  2  3
 13 14  1  0
 13 15  1  0
 15 16  2  0
M  END
