
     RDKit          3D

 20 21  0  0  0  0  0  0  0  0999 V2000
   -3.9630    3.3130    0.3200 O   0  0  0  0  0  0  0  0  0  0  0  0
   -3.3180    2.2360    0.3410 C   0  0  0  0  0  0  0  0  0  0  0  0
   -3.3540    1.3550   -0.7100 C   0  0  0  0  0  0  0  0  0  0  0  0
   -2.6110    0.1980   -0.5910 C   0  0  0  0  0  0  0  0  0  0  0  0
   -1.8730   -0.0840    0.4940 N   0  0  0  0  0  0  0  0  0  0  0  0
   -1.0940   -1.2750    0.6420 C   0  0  1  0  0  0  0  0  0  0  0  0
   -0.6020   -1.8430   -0.6600 C   0  0  0  0  0  0  0  0  0  0  0  0
    0.6770   -2.5160   -0.1840 C   0  0  2  0  0  0  0  0  0  0  0  0
    0.4130   -3.7070    0.4670 O   0  0  0  0  0  0  0  0  0  0  0  0
    1.1220   -1.5040    0.8550 C   0  0  1  0  0  0  0  0  0  0  0  0
    1.8610   -0.4120    0.1190 C   0  0  0  0  0  0  0  0  0  0  0  0
    2.2430    0.6260    0.9730 O   0  0  0  0  0  0  0  0  0  0  0  0
    3.0520    1.7590    0.0050 P   0  0  2  0  0  0  0  0  0  0  0  0
    2.0560    2.7510   -0.6020 O   0  0  0  0  0  0  0  0  0  0  0  0
    3.8740    0.9100   -1.2060 O   0  0  0  0  0  0  0  0  0  0  0  0
    4.1670    2.6390    0.9500 O   0  0  0  0  0  0  0  0  0  0  0  0
   -0.0210   -1.0360    1.4510 O   0  0  0  0  0  0  0  0  0  0  0  0
   -1.8660    0.8080    1.5030 C   0  0  0  0  0  0  0  0  0  0  0  0
   -1.1940    0.6140    2.5620 O   0  0  0  0  0  0  0  0  0  0  0  0
   -2.5770    1.9430    1.4220 N   0  0  0  0  0  0  0  0  0  0  0  0
  1  2  2  0
  2  3  1  0
  2 20  1  0
  3  4  2  0
  4  5  1  0
  6  5  1  6
  5 18  1  0
  6  7  1  0
  6 17  1  0
  7  8  1  0
  8  9  1  1
  8 10  1  0
 10 11  1  6
 10 17  1  0
 11 12  1  0
 12 13  1  0
 13 14  2  0
 13 15  1  6
 13 16  1  0
 18 19  2  0
 18 20  1  0
M  END
