
     RDKit          3D

 16 16  0  0  0  0  0  0  0  0999 V2000
    3.2180    0.5740   -0.8170 N   0  0  0  0  0  0  0  0  0  0  0  0
    2.1990    0.0080   -0.2680 C   0  0  0  0  0  0  0  0  0  0  0  0
    2.3440   -0.2950    1.0880 O   0  0  0  0  0  0  0  0  0  0  0  0
    3.5180   -0.7430    1.5710 O   0  0  0  0  0  0  0  0  0  0  0  0
    4.5290   -0.0820    1.0520 O   0  0  0  0  0  0  0  0  0  0  0  0
    1.0120   -0.2780   -1.0230 C   0  0  0  0  0  0  0  0  0  0  0  0
    0.9390    0.1150   -2.6000 S   0  0  0  0  0  0  0  0  0  0  0  0
   -0.0690   -0.8830   -0.4200 O   0  0  0  0  0  0  0  0  0  0  0  0
   -1.2870   -0.2670   -0.2300 C   0  0  0  0  0  0  0  0  0  0  0  0
   -1.4540    1.0460   -0.6680 C   0  0  0  0  0  0  0  0  0  0  0  0
   -2.6650    1.5930   -0.4550 N   0  0  0  0  0  0  0  0  0  0  0  0
   -3.6450    0.8950    0.1480 C   0  0  0  0  0  0  0  0  0  0  0  0
   -4.7900    1.3720    0.3650 O   0  0  0  0  0  0  0  0  0  0  0  0
   -3.4570   -0.3590    0.5570 O   0  0  0  0  0  0  0  0  0  0  0  0
   -2.3030   -0.9580    0.3830 C   0  0  0  0  0  0  0  0  0  0  0  0
   -2.0410   -2.2930    0.7970 N   0  0  0  0  0  0  0  0  0  0  0  0
  1  2  2  0
  2  3  1  0
  2  6  1  0
  3  4  1  0
  4  5  1  0
  6  7  2  0
  6  8  1  0
  8  9  1  0
  9 10  1  0
  9 15  2  0
 10 11  2  0
 11 12  1  0
 12 13  2  0
 12 14  1  0
 14 15  1  0
 15 16  1  0
M  END
