
     RDKit          3D

 15 16  0  0  0  0  0  0  0  0999 V2000
   -2.3510   -0.7000    0.4820 C   0  0  0  0  0  0  0  0  0  0  0  0
   -1.2970   -0.1020   -0.6490 S   0  0  0  0  0  0  0  0  0  0  0  0
   -1.6520   -0.5160   -2.3270 O   0  0  0  0  0  0  0  0  0  0  0  0
   -0.4060   -1.2580   -0.7270 N   0  0  0  0  0  0  0  0  0  0  0  0
    0.8420   -1.4600   -0.0270 C   0  0  0  0  0  0  0  0  0  0  0  0
    1.8100   -0.4020   -0.3750 C   0  0  0  0  0  0  0  0  0  0  0  0
    3.1320   -0.7050   -0.5150 O   0  0  0  0  0  0  0  0  0  0  0  0
    4.0220   -0.2660    0.4380 N   0  0  0  0  0  0  0  0  0  0  0  0
    1.3100    0.7880   -0.5270 C   0  0  0  0  0  0  0  0  0  0  0  0
   -0.1590    1.0260   -0.3480 C   0  0  0  0  0  0  0  0  0  0  0  0
   -0.3960    2.2600    0.0580 N   0  0  0  0  0  0  0  0  0  0  0  0
   -1.6860    2.7540    0.2730 C   0  0  0  0  0  0  0  0  0  0  0  0
   -2.0510    3.8700    0.6560 O   0  0  0  0  0  0  0  0  0  0  0  0
   -2.6980    1.7890   -0.0060 O   0  0  0  0  0  0  0  0  0  0  0  0
   -2.3110    1.0050   -1.0960 O   0  0  0  0  0  0  0  0  0  0  0  0
  1  2  1  0
  2  3  2  0
  2  4  1  0
  2 10  1  0
  2 15  1  0
  4  5  1  0
  5  6  1  0
  6  7  1  0
  6  9  2  0
  7  8  1  0
  9 10  1  0
 10 11  2  0
 11 12  1  0
 12 13  2  0
 12 14  1  0
 14 15  1  0
M  END
