
     RDKit          3D

 10 10  0  0  0  0  0  0  0  0999 V2000
   -2.9620   -1.0480   -0.3310 O   0  0  0  0  0  0  0  0  0  0  0  0
   -2.2760   -0.2630   -1.1450 O   0  0  0  0  0  0  0  0  0  0  0  0
   -1.8550    0.8400   -0.3980 C   0  0  0  0  0  0  0  0  0  0  0  0
   -0.3540    0.8310   -0.2710 C   0  0  2  0  0  0  0  0  0  0  0  0
    0.2980    0.4850   -1.4430 O   0  0  0  0  0  0  0  0  0  0  0  0
    1.1760   -0.5780   -1.2360 C   0  0  0  0  0  0  0  0  0  0  0  0
    2.3380   -0.2130   -0.3620 C   0  0  0  0  0  0  0  0  0  0  0  0
    2.0670   -0.3020    0.9950 O   0  0  0  0  0  0  0  0  0  0  0  0
    1.0070    0.3670    1.3660 O   0  0  0  0  0  0  0  0  0  0  0  0
   -0.0410   -0.1040    0.7270 O   0  0  0  0  0  0  0  0  0  0  0  0
  1  2  1  0
  2  3  1  0
  4  3  1  6
  4  5  1  0
  4 10  1  0
  5  6  1  0
  6  7  1  0
  7  8  1  0
  8  9  1  0
  9 10  1  0
M  END
