
     RDKit          3D

 28 29  0  0  0  0  0  0  0  0999 V2000
   -6.9850    1.8920   -2.3350 O   0  0  0  0  0  0  0  0  0  0  0  0
   -6.1730    1.5920   -1.4310 C   0  0  0  0  0  0  0  0  0  0  0  0
   -4.9350    1.1000   -1.8020 C   0  0  0  0  0  0  0  0  0  0  0  0
   -4.0540    0.7750   -0.7870 C   0  0  0  0  0  0  0  0  0  0  0  0
   -4.4050    0.9390    0.5090 N   0  0  0  0  0  0  0  0  0  0  0  0
   -3.4010    0.5660    1.5070 C   0  0  1  0  0  0  0  0  0  0  0  0
   -3.3980   -0.9280    1.6870 C   0  0  0  0  0  0  0  0  0  0  0  0
   -1.9570   -1.3590    1.3910 C   0  0  2  0  0  0  0  0  0  0  0  0
   -1.4700   -2.1020    2.4660 O   0  0  0  0  0  0  0  0  0  0  0  0
   -1.2570   -0.0430    1.3170 C   0  0  1  0  0  0  0  0  0  0  0  0
   -0.1330    0.0030    0.3520 C   0  0  0  0  0  0  0  0  0  0  0  0
    0.7480   -1.0290    0.7610 O   0  0  0  0  0  0  0  0  0  0  0  0
    2.0020   -1.1410   -0.1310 P   0  0  0  0  0  0  0  0  0  0  0  0
    1.1870   -1.1980   -1.5310 O   0  0  0  0  0  0  0  0  0  0  0  0
    2.4270    0.3690    0.4640 O   0  0  0  0  0  0  0  0  0  0  0  0
    3.3840   -1.1420   -0.8260 O   0  0  0  0  0  0  0  0  0  0  0  0
    3.8880   -0.0110   -1.7220 P   0  0  0  0  0  0  0  0  0  0  0  0
    2.4630    0.3220   -2.3680 O   0  0  0  0  0  0  0  0  0  0  0  0
    4.9470   -1.1000   -2.4500 O   0  0  0  0  0  0  0  0  0  0  0  0
    4.4280    0.8190   -0.3900 O   0  0  0  0  0  0  0  0  0  0  0  0
    5.8290    0.4630    0.1150 P   0  0  0  0  0  0  0  0  0  0  0  0
    5.2280   -1.1050    0.3380 O   0  0  0  0  0  0  0  0  0  0  0  0
    5.9350    1.4930    1.3260 O   0  0  0  0  0  0  0  0  0  0  0  0
    6.5040    0.7850   -1.3710 O   0  0  0  0  0  0  0  0  0  0  0  0
   -2.1760    0.9300    1.0020 O   0  0  0  0  0  0  0  0  0  0  0  0
   -5.5970    1.4120    0.8480 C   0  0  0  0  0  0  0  0  0  0  0  0
   -5.8520    1.5370    2.0770 O   0  0  0  0  0  0  0  0  0  0  0  0
   -6.4720    1.7360   -0.1210 N   0  0  0  0  0  0  0  0  0  0  0  0
  1  2  2  0
  2  3  1  0
  2 28  1  0
  3  4  2  0
  4  5  1  0
  6  5  1  6
  5 26  1  0
  6  7  1  0
  6 25  1  0
  7  8  1  0
  8  9  1  1
  8 10  1  0
 10 11  1  6
 10 25  1  0
 11 12  1  0
 12 13  1  0
 13 14  1  0
 13 15  1  0
 13 16  1  0
 16 17  1  0
 17 18  1  0
 17 19  1  0
 17 20  1  0
 20 21  1  0
 21 22  1  0
 21 23  1  0
 21 24  1  0
 26 27  2  0
 26 28  1  0
M  END
