
     RDKit          3D

 10  9  0  0  0  0  0  0  0  0999 V2000
   -2.6030    1.5890    1.2050 O   0  0  0  0  0  0  0  0  0  0  0  0
   -2.6400    1.1900    0.0670 C   0  0  0  0  0  0  0  0  0  0  0  0
   -2.2460   -0.2040   -0.2130 C   0  0  0  0  0  0  0  0  0  0  0  0
   -0.7470   -0.2700    0.0370 C   0  0  0  0  0  0  0  0  0  0  0  0
   -0.2520   -1.5490   -0.1970 O   0  0  0  0  0  0  0  0  0  0  0  0
    1.0260   -1.6360    0.0070 O   0  0  0  0  0  0  0  0  0  0  0  0
    1.6230   -0.4340   -0.0140 O   0  0  0  0  0  0  0  0  0  0  0  0
    2.9860   -0.3120   -0.2030 C   0  0  0  0  0  0  0  0  0  0  0  0
    3.6570   -1.3630   -0.3570 O   0  0  0  0  0  0  0  0  0  0  0  0
    3.6340    0.9090   -0.2310 O   0  0  0  0  0  0  0  0  0  0  0  0
  1  2  2  0
  2  3  1  0
  3  4  1  0
  4  5  1  0
  5  6  1  0
  6  7  1  0
  7  8  1  0
  8  9  2  0
  8 10  1  0
M  END
