
     RDKit          3D

 10 10  0  0  0  0  0  0  0  0999 V2000
    1.4520    0.5870   -0.7580 O   0  0  0  0  0  0  0  0  0  0  0  0
    1.8390    0.1080    0.3390 C   0  0  0  0  0  0  0  0  0  0  0  0
    2.9980    0.5640    0.9860 O   0  0  0  0  0  0  0  0  0  0  0  0
    1.0520   -0.9050    0.8830 O   0  0  0  0  0  0  0  0  0  0  0  0
   -0.1300   -1.3560    0.2020 C   0  0  0  0  0  0  0  0  0  0  0  0
   -1.0820   -0.2160    0.0470 C   0  0  0  0  0  0  0  0  0  0  0  0
   -1.5440    0.2780   -1.0940 C   0  0  0  0  0  0  0  0  0  0  0  0
   -2.4020    1.3320   -0.7490 O   0  0  0  0  0  0  0  0  0  0  0  0
   -2.2710    1.6120    0.5540 O   0  0  0  0  0  0  0  0  0  0  0  0
   -1.6600    0.5390    1.0410 O   0  0  0  0  0  0  0  0  0  0  0  0
  1  2  2  0
  2  3  1  0
  2  4  1  0
  4  5  1  0
  5  6  1  0
  6  7  2  0
  6 10  1  0
  7  8  1  0
  8  9  1  0
  9 10  1  0
M  END
