
     RDKit          3D

 10  9  0  0  0  0  0  0  0  0999 V2000
   -3.4490   -0.3190    0.8540 O   0  0  0  0  0  0  0  0  0  0  0  0
   -3.1250    0.7680    0.3780 C   0  0  0  0  0  0  0  0  0  0  0  0
   -1.9470    0.6740   -0.3480 O   0  0  0  0  0  0  0  0  0  0  0  0
   -1.0680   -0.3300   -0.6000 C   0  0  0  0  0  0  0  0  0  0  0  0
   -0.2180   -0.9570    0.4950 C   0  0  0  0  0  0  0  0  0  0  0  0
    0.5250   -0.0840    1.1830 O   0  0  0  0  0  0  0  0  0  0  0  0
    1.4090    0.5620    0.5790 O   0  0  0  0  0  0  0  0  0  0  0  0
    2.6830    0.4350    0.2190 C   0  0  0  0  0  0  0  0  0  0  0  0
    3.2990   -0.6380    0.5360 O   0  0  0  0  0  0  0  0  0  0  0  0
    3.4130    1.4120   -0.4950 O   0  0  0  0  0  0  0  0  0  0  0  0
  1  2  2  0
  2  3  1  0
  3  4  1  0
  4  5  1  0
  5  6  1  0
  6  7  1  0
  7  8  1  0
  8  9  2  0
  8 10  1  0
M  END
