
     RDKit          3D

 10  9  0  0  0  0  0  0  0  0999 V2000
    3.3110    0.5980   -0.7350 O   0  0  0  0  0  0  0  0  0  0  0  0
    3.2180   -0.5020   -0.1310 C   0  0  0  0  0  0  0  0  0  0  0  0
    4.2330   -1.4710   -0.2190 O   0  0  0  0  0  0  0  0  0  0  0  0
    2.0740   -0.7160    0.6220 O   0  0  0  0  0  0  0  0  0  0  0  0
    1.1220    0.2340    0.6830 O   0  0  0  0  0  0  0  0  0  0  0  0
   -0.0560   -0.3580    0.2320 C   0  0  0  0  0  0  0  0  0  0  0  0
   -1.2030    0.6210    0.2560 C   0  0  2  0  0  0  0  0  0  0  0  0
   -1.4450    1.1000    1.5270 O   0  0  0  0  0  0  0  0  0  0  0  0
   -2.4380    0.0440   -0.3750 C   0  0  0  0  0  0  0  0  0  0  0  0
   -3.4490    0.9960   -0.4840 O   0  0  0  0  0  0  0  0  0  0  0  0
  1  2  2  0
  2  3  1  0
  2  4  1  0
  4  5  1  0
  5  6  1  0
  6  7  1  0
  7  8  1  1
  7  9  1  0
  9 10  1  0
M  END
