
     RDKit          3D

 10  9  0  0  0  0  0  0  0  0999 V2000
    1.5690   -0.6750    0.7430 O   0  0  0  0  0  0  0  0  0  0  0  0
    1.8400    0.2480   -0.0680 C   0  0  0  0  0  0  0  0  0  0  0  0
    3.2440    0.4590   -0.4990 C   0  0  0  0  0  0  0  0  0  0  0  0
    4.1170   -0.4310    0.0760 O   0  0  0  0  0  0  0  0  0  0  0  0
    0.7830    1.0210   -0.5130 O   0  0  0  0  0  0  0  0  0  0  0  0
   -0.4680    0.8360   -0.1330 O   0  0  0  0  0  0  0  0  0  0  0  0
   -1.0210   -0.3590   -0.5120 C   0  0  0  0  0  0  0  0  0  0  0  0
   -2.4560   -0.3700    0.0230 C   0  0  0  0  0  0  0  0  0  0  0  0
   -3.0950    0.7210   -0.5660 O   0  0  0  0  0  0  0  0  0  0  0  0
   -4.3460    0.8140   -0.1780 O   0  0  0  0  0  0  0  0  0  0  0  0
  1  2  2  0
  2  3  1  0
  2  5  1  0
  3  4  1  0
  5  6  1  0
  6  7  1  0
  7  8  1  0
  8  9  1  0
  9 10  1  0
M  END
