
     RDKit          3D

 10  9  0  0  0  0  0  0  0  0999 V2000
   -3.7050   -0.9820   -0.1880 C   0  0  0  0  0  0  0  0  0  0  0  0
   -3.0280    0.1390   -0.5570 O   0  0  0  0  0  0  0  0  0  0  0  0
   -1.8890    0.3100    0.1850 C   0  0  0  0  0  0  0  0  0  0  0  0
   -1.2000    1.3160   -0.5550 O   0  0  0  0  0  0  0  0  0  0  0  0
   -0.1880    1.5240    0.0390 O   0  0  0  0  0  0  0  0  0  0  0  0
    0.7510    0.8390    0.3950 O   0  0  0  0  0  0  0  0  0  0  0  0
    1.4700    0.5190   -0.8460 C   0  0  0  0  0  0  0  0  0  0  0  0
    2.8840    0.6900   -0.2200 C   0  0  0  0  0  0  0  0  0  0  0  0
    3.7030   -0.3260   -0.5440 O   0  0  0  0  0  0  0  0  0  0  0  0
    3.3490   -1.3410    0.3240 O   0  0  0  0  0  0  0  0  0  0  0  0
  1  2  1  0
  2  3  1  0
  3  4  1  0
  4  5  1  0
  5  6  1  0
  6  7  1  0
  7  8  1  0
  8  9  1  0
  9 10  1  0
M  END
