
     RDKit          3D

 10  9  0  0  0  0  0  0  0  0999 V2000
   -4.0060   -1.2170    0.5650 O   0  0  0  0  0  0  0  0  0  0  0  0
   -3.4440   -0.1000    0.1730 O   0  0  0  0  0  0  0  0  0  0  0  0
   -2.0290   -0.1960    0.2520 C   0  0  0  0  0  0  0  0  0  0  0  0
   -1.4560    1.1150   -0.2120 C   0  0  0  0  0  0  0  0  0  0  0  0
   -0.0880    1.2050   -0.1930 O   0  0  0  0  0  0  0  0  0  0  0  0
    0.4820    0.2870   -1.0170 C   0  0  0  0  0  0  0  0  0  0  0  0
    1.8770    0.3500   -1.0370 O   0  0  0  0  0  0  0  0  0  0  0  0
    2.4350    0.1340    0.2140 C   0  0  0  0  0  0  0  0  0  0  0  0
    3.8200    0.2220    0.0620 O   0  0  0  0  0  0  0  0  0  0  0  0
    4.4730    0.0380    1.1640 O   0  0  0  0  0  0  0  0  0  0  0  0
  1  2  1  0
  2  3  1  0
  3  4  1  0
  4  5  1  0
  5  6  1  0
  6  7  1  0
  7  8  1  0
  8  9  1  0
  9 10  1  0
M  END
