
     RDKit          3D

 35 36  0  0  0  0  0  0  0  0999 V2000
   -2.3430   -2.1160   -1.0300 C   0  0  0  0  0  0  0  0  0  0  0  0
   -2.1400   -0.8000   -0.3640 C   0  0  2  0  0  0  0  0  0  0  0  0
   -0.7960   -0.3810   -0.2770 O   0  0  0  0  0  0  0  0  0  0  0  0
    0.1740   -1.0910    0.3980 C   0  0  0  0  0  0  0  0  0  0  0  0
   -0.1830   -2.1600    0.9540 O   0  0  0  0  0  0  0  0  0  0  0  0
    1.5990   -0.6060    0.4690 C   0  0  0  0  0  0  0  0  0  0  0  0
    1.7490    0.5560   -0.2690 O   0  0  0  0  0  0  0  0  0  0  0  0
    2.9980    1.0300   -0.2000 N   0  0  0  0  0  0  0  0  0  0  0  0
    4.1530    0.3530   -0.6550 C   0  0  0  0  0  0  0  0  0  0  0  0
    4.0330   -0.7790   -1.1700 O   0  0  0  0  0  0  0  0  0  0  0  0
    5.5190    0.9620   -0.5360 C   0  0  1  0  0  0  0  0  0  0  0  0
    5.7810    1.2960    0.8980 C   0  0  0  0  0  0  0  0  0  0  0  0
    7.1430    1.2700    1.2100 O   0  0  0  0  0  0  0  0  0  0  0  0
    7.7200    0.0240    1.0630 C   0  0  2  0  0  0  0  0  0  0  0  0
    9.1600    0.1940    0.7850 C   0  0  0  0  0  0  0  0  0  0  0  0
    9.6410    1.3450    0.7120 O   0  0  0  0  0  0  0  0  0  0  0  0
    9.9710   -0.9120    0.6060 O   0  0  0  0  0  0  0  0  0  0  0  0
    7.0080   -0.7270   -0.0430 C   0  0  0  0  0  0  0  0  0  0  0  0
    6.4940    0.1220   -1.0210 O   0  0  0  0  0  0  0  0  0  0  0  0
   -2.7880   -0.8280    0.9780 C   0  0  0  0  0  0  0  0  0  0  0  0
   -2.1480   -0.5070    1.9950 O   0  0  0  0  0  0  0  0  0  0  0  0
   -4.0970   -1.2090    1.0810 O   0  0  0  0  0  0  0  0  0  0  0  0
   -4.8120   -1.2710    2.2980 C   0  0  0  0  0  0  0  0  0  0  0  0
   -6.1150   -1.6950    2.0510 O   0  0  0  0  0  0  0  0  0  0  0  0
   -6.9280   -0.5880    0.9760 P   0  0  0  0  0  0  0  0  0  0  0  0
   -8.6180   -0.6690    1.3120 O   0  0  0  0  0  0  0  0  0  0  0  0
   -6.3680    1.0160    1.2780 O   0  0  0  0  0  0  0  0  0  0  0  0
   -2.8520    0.2470   -1.1450 C   0  0  0  0  0  0  0  0  0  0  0  0
   -3.5440    0.0650   -2.2130 N   0  0  0  0  0  0  0  0  0  0  0  0
   -4.0940    1.3240   -2.7040 C   0  0  1  0  0  0  0  0  0  0  0  0
   -5.9320    1.1670   -2.7870 P   0  0  0  0  0  0  0  0  0  0  0  0
   -6.6850    2.1870   -1.5840 O   0  0  0  0  0  0  0  0  0  0  0  0
   -6.4320   -0.4690   -2.5010 O   0  0  0  0  0  0  0  0  0  0  0  0
   -3.7080    2.3410   -1.6580 C   0  0  0  0  0  0  0  0  0  0  0  0
   -2.8620    1.6160   -0.8110 O   0  0  0  0  0  0  0  0  0  0  0  0
  2  1  1  6
  2  3  1  0
  2 20  1  0
  2 28  1  0
  3  4  1  0
  4  5  2  0
  4  6  1  0
  6  7  1  0
  7  8  1  0
  8  9  1  0
  9 10  2  0
 11  9  1  1
 11 12  1  0
 11 19  1  0
 12 13  1  0
 13 14  1  0
 14 15  1  6
 14 18  1  0
 15 16  2  0
 15 17  1  0
 18 19  1  0
 20 21  2  0
 20 22  1  0
 22 23  1  0
 23 24  1  0
 24 25  1  0
 25 26  1  0
 25 27  1  0
 28 29  2  0
 28 35  1  0
 29 30  1  0
 30 31  1  1
 30 34  1  0
 31 32  1  0
 31 33  1  0
 34 35  1  0
M  END
