
     RDKit          3D

 35 36  0  0  0  0  0  0  0  0999 V2000
   -9.8770    0.5140   -0.6130 C   0  0  0  0  0  0  0  0  0  0  0  0
   -8.7880    0.7370    0.2630 O   0  0  0  0  0  0  0  0  0  0  0  0
   -7.5280    0.2710   -0.1510 C   0  0  0  0  0  0  0  0  0  0  0  0
   -7.4250   -0.3150   -1.2640 O   0  0  0  0  0  0  0  0  0  0  0  0
   -6.3710    0.4310    0.6300 N   0  0  0  0  0  0  0  0  0  0  0  0
   -5.0640   -0.0640    0.1780 C   0  0  2  0  0  0  0  0  0  0  0  0
   -4.5000   -1.0490    1.1790 C   0  0  0  0  0  0  0  0  0  0  0  0
   -3.1660   -1.2710    0.8360 O   0  0  0  0  0  0  0  0  0  0  0  0
   -2.4200   -0.2350    1.3470 C   0  0  2  0  0  0  0  0  0  0  0  0
   -1.1980    0.0270    0.5000 C   0  0  0  0  0  0  0  0  0  0  0  0
   -0.4000    0.9420    0.8200 O   0  0  0  0  0  0  0  0  0  0  0  0
   -0.9360   -0.7200   -0.6240 O   0  0  0  0  0  0  0  0  0  0  0  0
    0.1710   -0.5490   -1.4620 C   0  0  0  0  0  0  0  0  0  0  0  0
    1.4300   -0.7920   -0.7080 C   0  0  2  0  0  0  0  0  0  0  0  0
    2.5910   -0.6440   -1.5100 O   0  0  0  0  0  0  0  0  0  0  0  0
    3.5850    0.2810   -1.2530 C   0  0  0  0  0  0  0  0  0  0  0  0
    3.4060    1.0190   -0.2280 O   0  0  0  0  0  0  0  0  0  0  0  0
    4.7930    0.4490   -2.0720 C   0  0  2  0  0  0  0  0  0  0  0  0
    4.7360   -0.4750   -3.1190 O   0  0  0  0  0  0  0  0  0  0  0  0
    6.0620    0.1700   -1.2960 C   0  0  0  0  0  0  0  0  0  0  0  0
    7.1930    0.2930   -2.0630 O   0  0  0  0  0  0  0  0  0  0  0  0
    8.5670   -0.0510   -1.0580 P   0  0  0  0  0  0  0  0  0  0  0  0
    9.9860    0.1520   -2.0720 O   0  0  0  0  0  0  0  0  0  0  0  0
    8.7080    1.3900    0.6100 P   0  0  0  0  0  0  0  0  0  0  0  0
   10.3610    1.4380    1.1730 O   0  0  0  0  0  0  0  0  0  0  0  0
    7.6600    0.8930    1.9000 O   0  0  0  0  0  0  0  0  0  0  0  0
    1.3910   -2.1230   -0.0520 C   0  0  0  0  0  0  0  0  0  0  0  0
    0.4150   -2.3760    0.6830 O   0  0  0  0  0  0  0  0  0  0  0  0
    2.3940   -3.0730   -0.2330 O   0  0  0  0  0  0  0  0  0  0  0  0
   -2.0760   -0.3740    2.7950 C   0  0  0  0  0  0  0  0  0  0  0  0
   -2.3070    0.9030    3.3840 O   0  0  0  0  0  0  0  0  0  0  0  0
   -2.9270    1.7250    2.4570 C   0  0  0  0  0  0  0  0  0  0  0  0
   -3.1990    2.9520    2.5840 O   0  0  0  0  0  0  0  0  0  0  0  0
   -3.2300    0.9790    1.2950 N   0  0  0  0  0  0  0  0  0  0  0  0
   -4.0960    1.1230    0.1410 C   0  0  0  0  0  0  0  0  0  0  0  0
  1  2  1  0
  2  3  1  0
  3  4  2  0
  3  5  1  0
  6  5  1  1
  6  7  1  0
  6 35  1  0
  7  8  1  0
  8  9  1  0
  9 10  1  6
  9 30  1  0
  9 34  1  0
 10 11  2  0
 10 12  1  0
 12 13  1  0
 14 13  1  6
 14 15  1  0
 14 27  1  0
 15 16  1  0
 16 17  2  0
 16 18  1  0
 18 19  1  6
 18 20  1  0
 20 21  1  0
 21 22  1  0
 22 23  1  0
 22 24  1  0
 24 25  1  0
 24 26  1  0
 27 28  2  0
 27 29  1  0
 30 31  1  0
 31 32  1  0
 32 33  2  0
 32 34  1  0
 34 35  1  0
M  END
