
     RDKit          3D

 38 40  0  0  0  0  0  0  0  0999 V2000
   -6.2090    2.2220   -1.2770 C   0  0  0  0  0  0  0  0  0  0  0  0
   -5.5920    1.1910   -0.5320 O   0  0  0  0  0  0  0  0  0  0  0  0
   -4.5160    1.4410    0.2900 C   0  0  0  0  0  0  0  0  0  0  0  0
   -4.0740    2.6060    0.3770 O   0  0  0  0  0  0  0  0  0  0  0  0
   -3.9250    0.3020    1.0410 C   0  0  2  0  0  0  0  0  0  0  0  0
   -5.0030   -0.1780    2.0280 C   0  0  0  0  0  0  0  0  0  0  0  0
   -6.2480   -0.6110    1.3950 C   0  0  0  0  0  0  0  0  0  0  0  0
   -7.3260    0.2410    1.2500 C   0  0  0  0  0  0  0  0  0  0  0  0
   -8.4820   -0.1560    0.6470 C   0  0  0  0  0  0  0  0  0  0  0  0
   -8.6270   -1.4380    0.1500 C   0  0  0  0  0  0  0  0  0  0  0  0
   -7.5770   -2.3090    0.2770 C   0  0  0  0  0  0  0  0  0  0  0  0
   -6.3990   -1.8870    0.8970 C   0  0  0  0  0  0  0  0  0  0  0  0
   -2.9150    0.7770    1.7280 O   0  0  0  0  0  0  0  0  0  0  0  0
   -1.4600    0.3550    1.7270 P   0  0  0  0  0  0  0  0  0  0  0  0
   -1.1580    1.9750    1.2430 O   0  0  0  0  0  0  0  0  0  0  0  0
   -1.6110    0.0880    3.3790 O   0  0  0  0  0  0  0  0  0  0  0  0
   -1.2480   -0.9080    0.6300 C   0  0  0  0  0  0  0  0  0  0  0  0
   -0.3900   -0.5540   -0.4660 N   0  0  0  0  0  0  0  0  0  0  0  0
    1.0070   -0.2460   -0.3590 C   0  0  0  0  0  0  0  0  0  0  0  0
    1.5330   -0.2850    0.7780 O   0  0  0  0  0  0  0  0  0  0  0  0
    1.7280    0.0900   -1.6030 C   0  0  1  0  0  0  0  0  0  0  0  0
    3.1260    0.2780   -1.5100 N   0  0  0  0  0  0  0  0  0  0  0  0
    3.7520    1.5780   -1.5660 C   0  0  0  0  0  0  0  0  0  0  0  0
    3.0370    2.6020   -1.6500 O   0  0  0  0  0  0  0  0  0  0  0  0
    5.2310    1.6480   -1.5300 C   0  0  0  0  0  0  0  0  0  0  0  0
    5.8640    0.6640   -0.6640 C   0  0  0  0  0  0  0  0  0  0  0  0
    6.4490   -0.4370   -1.3040 C   0  0  0  0  0  0  0  0  0  0  0  0
    7.0620   -1.4110   -0.5690 C   0  0  0  0  0  0  0  0  0  0  0  0
    7.1150   -1.3320    0.8120 C   0  0  0  0  0  0  0  0  0  0  0  0
    6.5430   -0.2540    1.4490 C   0  0  0  0  0  0  0  0  0  0  0  0
    6.5870   -0.1570    2.8330 C   0  0  0  0  0  0  0  0  0  0  0  0
    6.0220    0.9090    3.4710 C   0  0  0  0  0  0  0  0  0  0  0  0
    5.4130    1.8730    2.7130 C   0  0  0  0  0  0  0  0  0  0  0  0
    5.3500    1.8100    1.3430 C   0  0  0  0  0  0  0  0  0  0  0  0
    5.9230    0.7310    0.6970 C   0  0  0  0  0  0  0  0  0  0  0  0
    1.4340   -0.9580   -2.6760 C   0  0  2  0  0  0  0  0  0  0  0  0
    1.8490   -2.3330   -2.1350 C   0  0  0  0  0  0  0  0  0  0  0  0
    2.3290   -0.6430   -3.8860 C   0  0  0  0  0  0  0  0  0  0  0  0
  1  2  1  0
  2  3  1  0
  3  4  2  0
  3  5  1  0
  5  6  1  1
  5 13  1  0
  6  7  1  0
  7  8  2  0
  7 12  1  0
  8  9  1  0
  9 10  2  0
 10 11  1  0
 11 12  2  0
 13 14  1  0
 14 15  1  0
 14 16  1  0
 14 17  1  0
 17 18  1  0
 18 19  1  0
 19 20  2  0
 19 21  1  0
 21 22  1  1
 21 36  1  0
 22 23  1  0
 23 24  2  0
 23 25  1  0
 25 26  1  0
 26 27  2  0
 26 35  1  0
 27 28  1  0
 28 29  2  0
 29 30  1  0
 30 31  2  0
 30 35  1  0
 31 32  1  0
 32 33  2  0
 33 34  1  0
 34 35  2  0
 36 37  1  1
 36 38  1  0
M  END
