
     RDKit          3D

 35 37  0  0  0  0  0  0  0  0999 V2000
   -2.6140   -2.9530   -1.9190 N   0  0  0  0  0  0  0  0  0  0  0  0
   -2.7540   -2.6480   -0.5380 C   0  0  0  0  0  0  0  0  0  0  0  0
   -2.8690   -3.6480    0.2310 O   0  0  0  0  0  0  0  0  0  0  0  0
   -2.7680   -1.3210   -0.0480 N   0  0  0  0  0  0  0  0  0  0  0  0
   -2.6050   -0.2070   -0.8840 C   0  0  0  0  0  0  0  0  0  0  0  0
   -1.3440    0.4300   -1.1440 C   0  0  0  0  0  0  0  0  0  0  0  0
   -1.4490    1.3630   -2.0210 O   0  0  0  0  0  0  0  0  0  0  0  0
    0.0390    0.2910   -0.6520 C   0  0  1  0  0  0  0  0  0  0  0  0
    0.7320   -0.8110   -1.4790 C   0  0  1  0  0  0  0  0  0  0  0  0
    0.3500   -0.7000   -2.8130 O   0  0  0  0  0  0  0  0  0  0  0  0
    2.1000   -0.3250   -1.5480 O   0  0  0  0  0  0  0  0  0  0  0  0
    2.7430   -0.8630   -0.4760 C   0  0  2  0  0  0  0  0  0  0  0  0
    4.2020   -1.1670   -0.7450 C   0  0  0  0  0  0  0  0  0  0  0  0
    4.9770   -1.8880    0.7590 P   0  0  0  0  0  0  0  0  0  0  0  0
    4.7490   -3.6030    0.8460 O   0  0  0  0  0  0  0  0  0  0  0  0
    4.4980   -1.0960    2.2080 O   0  0  0  0  0  0  0  0  0  0  0  0
    2.1140   -2.0500   -0.1310 O   0  0  0  0  0  0  0  0  0  0  0  0
    0.9160   -2.0920   -0.9070 C   0  0  0  0  0  0  0  0  0  0  0  0
    0.2990   -3.2090   -0.9230 O   0  0  0  0  0  0  0  0  0  0  0  0
    0.6600    1.5080   -1.0750 O   0  0  0  0  0  0  0  0  0  0  0  0
    0.7420    2.4850   -0.1590 C   0  0  2  0  0  0  0  0  0  0  0  0
   -0.4970    3.3560   -0.0050 C   0  0  0  0  0  0  0  0  0  0  0  0
   -0.2240    4.4310    0.8990 O   0  0  0  0  0  0  0  0  0  0  0  0
    0.9770    5.1360    0.8220 C   0  0  0  0  0  0  0  0  0  0  0  0
    1.0740    6.3440    1.2000 O   0  0  0  0  0  0  0  0  0  0  0  0
    2.0720    4.4550    0.3090 O   0  0  0  0  0  0  0  0  0  0  0  0
    1.8220    3.4650   -0.6730 C   0  0  0  0  0  0  0  0  0  0  0  0
    1.1730    2.1100    1.2260 C   0  0  0  0  0  0  0  0  0  0  0  0
    0.4600    0.9740    1.6710 O   0  0  0  0  0  0  0  0  0  0  0  0
    0.2100   -0.0180    0.7470 C   0  0  0  0  0  0  0  0  0  0  0  0
    0.1360   -1.1950    1.1600 O   0  0  0  0  0  0  0  0  0  0  0  0
   -2.9990   -1.1180    1.3740 C   0  0  0  0  0  0  0  0  0  0  0  0
   -4.8070   -0.9360    1.7460 P   0  0  0  0  0  0  0  0  0  0  0  0
   -4.9460   -0.4190    3.4100 O   0  0  0  0  0  0  0  0  0  0  0  0
   -5.5660   -2.4930    1.5850 O   0  0  0  0  0  0  0  0  0  0  0  0
  1  2  1  0
  2  3  2  0
  2  4  1  0
  4  5  1  0
  4 32  1  0
  5  6  1  0
  6  7  2  0
  8  6  1  6
  8  9  1  0
  8 20  1  0
  8 30  1  0
  9 10  1  6
  9 11  1  0
  9 18  1  0
 11 12  1  0
 12 13  1  6
 12 17  1  0
 13 14  1  0
 14 15  1  0
 14 16  1  0
 17 18  1  0
 18 19  2  0
 20 21  1  0
 21 22  1  1
 21 27  1  0
 21 28  1  0
 22 23  1  0
 23 24  1  0
 24 25  2  0
 24 26  1  0
 26 27  1  0
 28 29  1  0
 29 30  1  0
 30 31  2  0
 32 33  1  0
 33 34  1  0
 33 35  1  0
M  END
