
     RDKit          3D

 35 37  0  0  0  0  0  0  0  0999 V2000
   -3.9910   -3.6260    1.6760 C   0  0  0  0  0  0  0  0  0  0  0  0
   -3.4170   -2.3440    1.5550 O   0  0  0  0  0  0  0  0  0  0  0  0
   -3.8640   -1.5200    0.5250 C   0  0  0  0  0  0  0  0  0  0  0  0
   -4.7600   -1.9670   -0.2450 O   0  0  0  0  0  0  0  0  0  0  0  0
   -3.2970   -0.1410    0.3320 C   0  0  2  0  0  0  0  0  0  0  0  0
   -4.4640    0.8060    0.5950 C   0  0  0  0  0  0  0  0  0  0  0  0
   -5.4350    0.6420   -0.4400 O   0  0  0  0  0  0  0  0  0  0  0  0
   -6.6090    1.3590   -0.4900 C   0  0  0  0  0  0  0  0  0  0  0  0
   -7.5740    1.2150   -1.4930 N   0  0  0  0  0  0  0  0  0  0  0  0
   -6.8140    2.1980    0.4370 O   0  0  0  0  0  0  0  0  0  0  0  0
   -2.8510   -0.0170   -1.0650 C   0  0  0  0  0  0  0  0  0  0  0  0
   -1.8940    0.9170   -1.3240 O   0  0  0  0  0  0  0  0  0  0  0  0
   -0.9210    1.0660   -0.3400 C   0  0  2  0  0  0  0  0  0  0  0  0
   -0.7100    2.5640   -0.2240 C   0  0  0  0  0  0  0  0  0  0  0  0
   -0.3770    2.8830   -1.5370 O   0  0  0  0  0  0  0  0  0  0  0  0
    0.3230    1.8250   -2.1020 C   0  0  0  0  0  0  0  0  0  0  0  0
    0.3710    0.7300   -1.0420 C   0  0  1  0  0  0  0  0  0  0  0  0
    1.6220    0.8870   -0.2270 C   0  0  0  0  0  0  0  0  0  0  0  0
    2.6780    0.6050   -1.1310 O   0  0  0  0  0  0  0  0  0  0  0  0
    3.8760    0.7340   -0.6360 O   0  0  0  0  0  0  0  0  0  0  0  0
    4.4890    0.0760    0.3870 C   0  0  0  0  0  0  0  0  0  0  0  0
    3.7900   -0.8200    0.9780 O   0  0  0  0  0  0  0  0  0  0  0  0
    5.8010    0.3050    0.8250 N   0  0  0  0  0  0  0  0  0  0  0  0
    6.5780   -0.5770    2.1770 P   0  0  0  0  0  0  0  0  0  0  0  0
    6.5070   -2.2940    1.9340 O   0  0  0  0  0  0  0  0  0  0  0  0
    8.2300   -0.0670    2.3570 O   0  0  0  0  0  0  0  0  0  0  0  0
    9.0720   -0.0300    0.8350 P   0  0  0  0  0  0  0  0  0  0  0  0
    8.6150   -1.3960   -0.1550 O   0  0  0  0  0  0  0  0  0  0  0  0
    8.6440    1.3920   -0.0500 O   0  0  0  0  0  0  0  0  0  0  0  0
    0.2790   -0.5380   -1.5240 O   0  0  0  0  0  0  0  0  0  0  0  0
    0.1520   -1.4620   -0.5250 C   0  0  0  0  0  0  0  0  0  0  0  0
   -0.4210   -1.0130    0.7400 C   0  0  0  0  0  0  0  0  0  0  0  0
   -0.3540   -1.7460    1.7160 O   0  0  0  0  0  0  0  0  0  0  0  0
   -1.0830    0.3070    0.8810 C   0  0  2  0  0  0  0  0  0  0  0  0
   -2.3680    0.0510    1.3080 O   0  0  0  0  0  0  0  0  0  0  0  0
  1  2  1  0
  2  3  1  0
  3  4  2  0
  3  5  1  0
  5  6  1  1
  5 11  1  0
  5 35  1  0
  6  7  1  0
  7  8  1  0
  8  9  1  0
  8 10  2  0
 11 12  1  0
 12 13  1  0
 13 14  1  1
 13 17  1  0
 13 34  1  0
 14 15  1  0
 15 16  1  0
 16 17  1  0
 17 18  1  1
 17 30  1  0
 18 19  1  0
 19 20  1  0
 20 21  1  0
 21 22  2  0
 21 23  1  0
 23 24  1  0
 24 25  1  0
 24 26  1  0
 26 27  1  0
 27 28  1  0
 27 29  1  0
 30 31  1  0
 31 32  1  0
 32 33  2  0
 32 34  1  0
 34 35  1  6
M  END
