
     RDKit          3D

 36 36  0  0  0  0  0  0  0  0999 V2000
   -4.9050    3.9680   -0.6000 O   0  0  0  0  0  0  0  0  0  0  0  0
   -4.2370    3.0070   -1.6330 P   0  0  0  0  0  0  0  0  0  0  0  0
   -2.8890    3.6570   -2.7010 C   0  0  0  0  0  0  0  0  0  0  0  0
   -1.6620    3.4860   -2.2280 O   0  0  0  0  0  0  0  0  0  0  0  0
   -1.1150    2.2960   -2.0750 C   0  0  0  0  0  0  0  0  0  0  0  0
   -1.7180    1.3020   -1.1050 C   0  0  1  0  0  0  0  0  0  0  0  0
   -1.0790    0.1050   -0.9850 O   0  0  0  0  0  0  0  0  0  0  0  0
   -0.0320   -0.6380   -1.1990 C   0  0  0  0  0  0  0  0  0  0  0  0
    0.2830   -1.0810   -2.3700 O   0  0  0  0  0  0  0  0  0  0  0  0
    0.9290   -1.0790   -0.1550 C   0  0  1  0  0  0  0  0  0  0  0  0
    1.6560   -2.3640   -0.6160 C   0  0  0  0  0  0  0  0  0  0  0  0
    2.3990   -2.0680   -1.8080 O   0  0  0  0  0  0  0  0  0  0  0  0
    3.1460   -3.0560   -2.4310 C   0  0  0  0  0  0  0  0  0  0  0  0
    3.1280   -4.2080   -1.8920 O   0  0  0  0  0  0  0  0  0  0  0  0
    3.8880   -2.8700   -3.5730 O   0  0  0  0  0  0  0  0  0  0  0  0
    2.0170   -0.1210    0.1690 C   0  0  1  0  0  0  0  0  0  0  0  0
    2.6080    0.2900   -1.0210 O   0  0  0  0  0  0  0  0  0  0  0  0
    1.6180    1.0800    0.9560 C   0  0  0  0  0  0  0  0  0  0  0  0
    2.6720    1.9260    1.2880 O   0  0  0  0  0  0  0  0  0  0  0  0
    3.7520    1.5500    2.0550 C   0  0  0  0  0  0  0  0  0  0  0  0
    3.8030    0.3930    2.4850 O   0  0  0  0  0  0  0  0  0  0  0  0
    4.7370    2.5150    2.3030 O   0  0  0  0  0  0  0  0  0  0  0  0
    6.1100    2.0270    3.2820 P   0  0  0  0  0  0  0  0  0  0  0  0
    0.2520   -1.5210    1.0080 O   0  0  0  0  0  0  0  0  0  0  0  0
   -0.8670   -2.0830    0.5370 O   0  0  0  0  0  0  0  0  0  0  0  0
   -1.2290   -3.1910    1.2510 C   0  0  2  0  0  0  0  0  0  0  0  0
   -1.4680   -4.2170    0.3050 O   0  0  0  0  0  0  0  0  0  0  0  0
   -2.5120   -2.9980    1.9600 C   0  0  0  0  0  0  0  0  0  0  0  0
   -2.6420   -3.6280    3.0700 O   0  0  0  0  0  0  0  0  0  0  0  0
   -3.5920   -2.1930    1.5280 N   0  0  0  0  0  0  0  0  0  0  0  0
   -3.5270   -0.8340    1.1400 C   0  0  0  0  0  0  0  0  0  0  0  0
   -4.1510   -0.4930    0.1020 O   0  0  0  0  0  0  0  0  0  0  0  0
   -2.7810    0.2210    1.8640 C   0  0  0  0  0  0  0  0  0  0  0  0
   -2.8270    1.5020    1.2260 N   0  0  0  0  0  0  0  0  0  0  0  0
   -1.9910    1.9850    0.1950 C   0  0  0  0  0  0  0  0  0  0  0  0
   -1.3960    3.1140    0.3620 O   0  0  0  0  0  0  0  0  0  0  0  0
  1  2  2  0
  2  3  1  0
  3  4  1  0
  4  5  1  0
  6  5  1  6
  6  7  1  0
  6 35  1  0
  7  8  1  0
  8  9  2  0
  8 10  1  0
 10 11  1  6
 10 16  1  0
 10 24  1  0
 11 12  1  0
 12 13  1  0
 13 14  2  0
 13 15  1  0
 16 17  1  6
 16 18  1  0
 18 19  1  0
 19 20  1  0
 20 21  2  0
 20 22  1  0
 22 23  1  0
 24 25  1  0
 25 26  1  0
 26 27  1  6
 26 28  1  0
 28 29  2  0
 28 30  1  0
 30 31  1  0
 31 32  2  0
 31 33  1  0
 33 34  1  0
 34 35  1  0
 35 36  2  0
M  END
