
     RDKit          3D

 36 37  0  0  0  0  0  0  0  0999 V2000
   -4.0130   -5.5390   -1.8860 O   0  0  0  0  0  0  0  0  0  0  0  0
   -2.8350   -4.6830   -1.3890 P   0  0  0  0  0  0  0  0  0  0  0  0
   -3.0750   -3.4960    0.0180 C   0  0  0  0  0  0  0  0  0  0  0  0
   -3.0390   -2.1180   -0.4090 N   0  0  0  0  0  0  0  0  0  0  0  0
   -4.3050   -1.5370   -0.7940 C   0  0  0  0  0  0  0  0  0  0  0  0
   -5.3280   -2.2330   -0.9960 O   0  0  0  0  0  0  0  0  0  0  0  0
   -4.3690   -0.0430   -0.9500 C   0  0  1  0  0  0  0  0  0  0  0  0
   -4.5040    0.5830    0.3330 O   0  0  0  0  0  0  0  0  0  0  0  0
   -5.5810    1.3850    0.6090 C   0  0  0  0  0  0  0  0  0  0  0  0
   -6.4380    1.5510   -0.2940 O   0  0  0  0  0  0  0  0  0  0  0  0
   -5.7910    2.0280    1.8200 O   0  0  0  0  0  0  0  0  0  0  0  0
   -3.0710    0.3940   -1.4940 C   0  0  0  0  0  0  0  0  0  0  0  0
   -3.0080    0.9680   -2.5480 O   0  0  0  0  0  0  0  0  0  0  0  0
   -1.8490    0.1120   -0.7170 C   0  0  1  0  0  0  0  0  0  0  0  0
   -0.5820    0.5610   -1.4000 C   0  0  0  0  0  0  0  0  0  0  0  0
    0.4260    0.9940   -0.4360 N   0  0  0  0  0  0  0  0  0  0  0  0
    1.7600    0.6020   -0.6150 C   0  0  0  0  0  0  0  0  0  0  0  0
    2.0050   -0.1250   -1.6540 O   0  0  0  0  0  0  0  0  0  0  0  0
    2.8330    0.9720    0.2970 C   0  0  2  0  0  0  0  0  0  0  0  0
    2.3400    1.7270    1.3410 O   0  0  0  0  0  0  0  0  0  0  0  0
    3.9070    1.8160   -0.3610 C   0  0  0  0  0  0  0  0  0  0  0  0
    4.4990    1.1470   -1.4580 O   0  0  0  0  0  0  0  0  0  0  0  0
    5.5020    1.8080   -2.1520 C   0  0  0  0  0  0  0  0  0  0  0  0
    5.8480    2.9650   -1.7900 O   0  0  0  0  0  0  0  0  0  0  0  0
    6.1560    1.2550   -3.2420 O   0  0  0  0  0  0  0  0  0  0  0  0
    3.4880   -0.2800    0.7700 C   0  0  0  0  0  0  0  0  0  0  0  0
    3.9760   -1.0490   -0.0970 O   0  0  0  0  0  0  0  0  0  0  0  0
    3.5950   -0.6500    2.0860 O   0  0  0  0  0  0  0  0  0  0  0  0
    4.3890   -2.1570    2.5770 P   0  0  0  0  0  0  0  0  0  0  0  0
    4.6770   -2.0190    4.2850 O   0  0  0  0  0  0  0  0  0  0  0  0
    3.3470   -3.4780    2.2360 O   0  0  0  0  0  0  0  0  0  0  0  0
    0.0380    1.8190    0.6850 C   0  0  0  0  0  0  0  0  0  0  0  0
   -1.4840    2.0340    0.4940 C   0  0  0  0  0  0  0  0  0  0  0  0
   -2.0090    0.7320    0.5270 O   0  0  0  0  0  0  0  0  0  0  0  0
   -1.8460   -1.3490   -0.4600 C   0  0  0  0  0  0  0  0  0  0  0  0
   -0.7530   -1.9250   -0.2810 O   0  0  0  0  0  0  0  0  0  0  0  0
  1  2  2  0
  2  3  1  0
  3  4  1  0
  4  5  1  0
  4 35  1  0
  5  6  2  0
  5  7  1  0
  7  8  1  1
  7 12  1  0
  8  9  1  0
  9 10  2  0
  9 11  1  0
 12 13  2  0
 12 14  1  0
 14 15  1  6
 14 34  1  0
 14 35  1  0
 15 16  1  0
 16 17  1  0
 16 32  1  0
 17 18  2  0
 17 19  1  0
 19 20  1  1
 19 21  1  0
 19 26  1  0
 21 22  1  0
 22 23  1  0
 23 24  2  0
 23 25  1  0
 26 27  2  0
 26 28  1  0
 28 29  1  0
 29 30  1  0
 29 31  1  0
 32 33  1  0
 33 34  1  0
 35 36  2  0
M  END
