
     RDKit          3D

 35 36  0  0  0  0  0  0  0  0999 V2000
    8.5500    2.5740    0.9140 O   0  0  0  0  0  0  0  0  0  0  0  0
    8.3050    1.3490    1.0040 C   0  0  0  0  0  0  0  0  0  0  0  0
    9.3580    0.4850    1.3110 O   0  0  0  0  0  0  0  0  0  0  0  0
    6.9530    0.7860    0.7980 C   0  0  0  0  0  0  0  0  0  0  0  0
    6.3940    1.1610   -0.5640 C   0  0  0  0  0  0  0  0  0  0  0  0
    5.1140    0.6330   -0.7690 O   0  0  0  0  0  0  0  0  0  0  0  0
    3.9850    0.9210   -0.0250 C   0  0  0  0  0  0  0  0  0  0  0  0
    4.0830    1.7230    0.9230 O   0  0  0  0  0  0  0  0  0  0  0  0
    2.7150    0.2750   -0.3740 C   0  0  0  0  0  0  0  0  0  0  0  0
    2.6420   -0.5390   -1.3250 O   0  0  0  0  0  0  0  0  0  0  0  0
    1.5140    0.5440    0.3470 N   0  0  0  0  0  0  0  0  0  0  0  0
    0.2710   -0.0770    0.0180 C   0  0  2  0  0  0  0  0  0  0  0  0
   -0.8230    0.8580   -0.3990 C   0  0  0  0  0  0  0  0  0  0  0  0
   -2.0420    0.0160   -0.7410 C   0  0  1  0  0  0  0  0  0  0  0  0
   -2.4950    0.4080   -2.1350 C   0  0  0  0  0  0  0  0  0  0  0  0
   -2.8550    1.7340   -2.1910 O   0  0  0  0  0  0  0  0  0  0  0  0
   -3.3760    2.2160   -3.7670 P   0  0  0  0  0  0  0  0  0  0  0  0
   -2.3470    3.4310   -4.4540 O   0  0  0  0  0  0  0  0  0  0  0  0
   -5.0240    2.7710   -3.6410 O   0  0  0  0  0  0  0  0  0  0  0  0
   -1.7010   -1.3370   -0.7680 O   0  0  0  0  0  0  0  0  0  0  0  0
   -1.3360   -1.8360    0.4850 C   0  0  1  0  0  0  0  0  0  0  0  0
   -0.8790   -3.1530    0.2580 O   0  0  0  0  0  0  0  0  0  0  0  0
   -0.4350   -3.9230    1.3200 C   0  0  0  0  0  0  0  0  0  0  0  0
   -0.4320   -3.4680    2.4990 O   0  0  0  0  0  0  0  0  0  0  0  0
    0.0320   -5.2200    1.1720 O   0  0  0  0  0  0  0  0  0  0  0  0
   -0.2630   -0.9670    1.1140 C   0  0  0  0  0  0  0  0  0  0  0  0
   -2.5350   -1.9280    1.4080 C   0  0  0  0  0  0  0  0  0  0  0  0
   -3.5050   -0.9020    1.0700 N   0  0  0  0  0  0  0  0  0  0  0  0
   -4.8510   -1.0130    1.5860 C   0  0  0  0  0  0  0  0  0  0  0  0
   -5.1530   -1.9680    2.3020 O   0  0  0  0  0  0  0  0  0  0  0  0
   -6.0690    0.2770    1.1550 P   0  0  0  0  0  0  0  0  0  0  0  0
   -7.6000   -0.0070    1.8630 O   0  0  0  0  0  0  0  0  0  0  0  0
   -6.1400    0.5700   -0.5340 O   0  0  0  0  0  0  0  0  0  0  0  0
   -3.1170    0.1760    0.2540 C   0  0  0  0  0  0  0  0  0  0  0  0
   -3.6910    1.2770    0.3770 O   0  0  0  0  0  0  0  0  0  0  0  0
  1  2  2  0
  2  3  1  0
  2  4  1  0
  4  5  1  0
  5  6  1  0
  6  7  1  0
  7  8  2  0
  7  9  1  0
  9 10  2  0
  9 11  1  0
 12 11  1  1
 12 13  1  0
 12 26  1  0
 13 14  1  0
 14 15  1  6
 14 20  1  0
 14 34  1  0
 15 16  1  0
 16 17  1  0
 17 18  1  0
 17 19  1  0
 20 21  1  0
 21 22  1  6
 21 26  1  0
 21 27  1  0
 22 23  1  0
 23 24  2  0
 23 25  1  0
 27 28  1  0
 28 29  1  0
 28 34  1  0
 29 30  2  0
 29 31  1  0
 31 32  1  0
 31 33  1  0
 34 35  2  0
M  END
