
     RDKit          3D

 35 36  0  0  0  0  0  0  0  0999 V2000
    5.3560   -1.1020   -1.7420 O   0  0  0  0  0  0  0  0  0  0  0  0
    4.7070   -0.2170   -1.1630 C   0  0  0  0  0  0  0  0  0  0  0  0
    5.3870    0.6250   -0.2940 O   0  0  0  0  0  0  0  0  0  0  0  0
    6.7670    0.5110   -0.0510 C   0  0  0  0  0  0  0  0  0  0  0  0
    7.1570    1.5960    0.9490 C   0  0  0  0  0  0  0  0  0  0  0  0
    8.5180    1.5490    1.2420 O   0  0  0  0  0  0  0  0  0  0  0  0
    3.3470   -0.1030   -1.4000 O   0  0  0  0  0  0  0  0  0  0  0  0
    2.6270   -0.9270   -2.2630 C   0  0  0  0  0  0  0  0  0  0  0  0
    1.1850   -0.5550   -2.3060 C   0  0  0  0  0  0  0  0  0  0  0  0
    0.5520   -0.6630   -1.0270 N   0  0  0  0  0  0  0  0  0  0  0  0
    0.8430    0.0830    0.1400 C   0  0  0  0  0  0  0  0  0  0  0  0
    1.7310    0.9540    0.1160 O   0  0  0  0  0  0  0  0  0  0  0  0
    0.0930   -0.1700    1.3930 C   0  0  2  0  0  0  0  0  0  0  0  0
    0.5610    0.6900    2.3890 O   0  0  0  0  0  0  0  0  0  0  0  0
    0.2080   -1.5620    1.8990 C   0  0  0  0  0  0  0  0  0  0  0  0
   -0.9620   -2.2220    1.3940 N   0  0  0  0  0  0  0  0  0  0  0  0
   -1.3040   -3.4380    0.7770 C   0  0  0  0  0  0  0  0  0  0  0  0
   -0.5600   -4.4340    1.0170 O   0  0  0  0  0  0  0  0  0  0  0  0
   -2.4160   -3.5110   -0.0540 O   0  0  0  0  0  0  0  0  0  0  0  0
   -3.2400   -2.3610   -0.2840 C   0  0  0  0  0  0  0  0  0  0  0  0
   -3.3320   -1.6570    1.0480 C   0  0  2  0  0  0  0  0  0  0  0  0
   -4.2890   -0.5480    1.0700 C   0  0  0  0  0  0  0  0  0  0  0  0
   -5.0080   -0.2060    0.0810 O   0  0  0  0  0  0  0  0  0  0  0  0
   -4.4340    0.1810    2.2220 O   0  0  0  0  0  0  0  0  0  0  0  0
   -2.0400   -1.2630    1.6440 C   0  0  2  0  0  0  0  0  0  0  0  0
   -1.4130   -0.0030    1.1700 C   0  0  2  0  0  0  0  0  0  0  0  0
   -1.6940    0.2400   -0.1900 O   0  0  0  0  0  0  0  0  0  0  0  0
   -2.2960    1.4140   -0.6290 C   0  0  0  0  0  0  0  0  0  0  0  0
   -2.5760    2.2550    0.2820 O   0  0  0  0  0  0  0  0  0  0  0  0
   -2.6570    1.7220   -2.3970 P   0  0  0  0  0  0  0  0  0  0  0  0
   -3.7520    0.5020   -3.0210 O   0  0  0  0  0  0  0  0  0  0  0  0
   -3.5040    3.2350   -2.4920 O   0  0  0  0  0  0  0  0  0  0  0  0
   -4.6210    3.2630   -1.1400 P   0  0  0  0  0  0  0  0  0  0  0  0
   -4.7190    4.8160   -0.4220 O   0  0  0  0  0  0  0  0  0  0  0  0
   -6.1760    2.6870   -1.5990 O   0  0  0  0  0  0  0  0  0  0  0  0
  1  2  2  0
  2  3  1  0
  2  7  1  0
  3  4  1  0
  4  5  1  0
  5  6  1  0
  7  8  1  0
  8  9  1  0
  9 10  1  0
 10 11  1  0
 11 12  2  0
 11 13  1  0
 13 14  1  1
 13 15  1  0
 13 26  1  0
 15 16  1  0
 16 17  1  0
 25 16  1  6
 17 18  2  0
 17 19  1  0
 19 20  1  0
 20 21  1  0
 21 22  1  6
 21 25  1  0
 22 23  2  0
 22 24  1  0
 25 26  1  0
 26 27  1  6
 27 28  1  0
 28 29  2  0
 28 30  1  0
 30 31  1  0
 30 32  1  0
 32 33  1  0
 33 34  1  0
 33 35  1  0
M  END
