
     RDKit          3D

 33 33  0  0  0  0  0  0  0  0999 V2000
   -5.3410    1.3860    0.4160 C   0  0  0  0  0  0  0  0  0  0  0  0
   -5.9400    0.0480    0.2180 C   0  0  2  0  0  0  0  0  0  0  0  0
   -6.5230   -0.1520   -1.0320 O   0  0  0  0  0  0  0  0  0  0  0  0
   -7.5380    0.6210   -1.5570 C   0  0  0  0  0  0  0  0  0  0  0  0
   -7.9210    1.5940   -0.6770 O   0  0  0  0  0  0  0  0  0  0  0  0
   -8.2030    0.5880   -2.7120 O   0  0  0  0  0  0  0  0  0  0  0  0
   -7.0450   -0.2680    1.2780 C   0  0  0  0  0  0  0  0  0  0  0  0
   -7.1650   -1.8230    1.2340 C   0  0  0  0  0  0  0  0  0  0  0  0
   -6.8330   -2.2180   -0.0500 O   0  0  0  0  0  0  0  0  0  0  0  0
   -5.5080   -2.2050   -0.2580 O   0  0  0  0  0  0  0  0  0  0  0  0
   -5.0010   -1.1410    0.4350 C   0  0  1  0  0  0  0  0  0  0  0  0
   -3.6020   -0.9060    0.3490 C   0  0  0  0  0  0  0  0  0  0  0  0
   -3.0270   -0.0200    0.9980 O   0  0  0  0  0  0  0  0  0  0  0  0
   -2.6500   -1.6230   -0.5290 N   0  0  0  0  0  0  0  0  0  0  0  0
   -1.4620   -1.2520   -0.4300 O   0  0  0  0  0  0  0  0  0  0  0  0
   -0.3090   -0.6940   -0.4110 C   0  0  0  0  0  0  0  0  0  0  0  0
   -0.3870    0.5050   -0.9780 O   0  0  0  0  0  0  0  0  0  0  0  0
    0.8720   -1.2010    0.1700 N   0  0  0  0  0  0  0  0  0  0  0  0
    2.0560   -0.3520    0.1880 C   0  0  0  0  0  0  0  0  0  0  0  0
    2.4390   -0.1010   -1.2070 C   0  0  0  0  0  0  0  0  0  0  0  0
    3.5130    0.9570   -1.3730 C   0  0  0  0  0  0  0  0  0  0  0  0
    3.4730    1.7380   -2.2780 O   0  0  0  0  0  0  0  0  0  0  0  0
    4.6990    1.0610   -0.4020 C   0  0  1  0  0  0  0  0  0  0  0  0
    4.4630    2.2850    0.3860 C   0  0  0  0  0  0  0  0  0  0  0  0
    5.4790    2.5690    1.2760 O   0  0  0  0  0  0  0  0  0  0  0  0
    6.6860    2.9930    1.0460 C   0  0  0  0  0  0  0  0  0  0  0  0
    7.0090    3.1690   -0.2780 O   0  0  0  0  0  0  0  0  0  0  0  0
    7.7230    3.2780    1.8970 O   0  0  0  0  0  0  0  0  0  0  0  0
    4.6860   -0.1460    0.3310 O   0  0  0  0  0  0  0  0  0  0  0  0
    5.5820   -0.9780   -0.1720 C   0  0  0  0  0  0  0  0  0  0  0  0
    7.1010   -0.7410    0.1210 C   0  0  0  0  0  0  0  0  0  0  0  0
    7.5670   -1.7760   -0.6550 O   0  0  0  0  0  0  0  0  0  0  0  0
    8.3050   -2.6410   -0.0350 O   0  0  0  0  0  0  0  0  0  0  0  0
  2  1  1  6
  2  3  1  0
  2  7  1  0
  2 11  1  0
  3  4  1  0
  4  5  2  0
  4  6  1  0
  7  8  1  0
  8  9  1  0
  9 10  1  0
 10 11  1  0
 11 12  1  6
 12 13  2  0
 12 14  1  0
 14 15  1  0
 15 16  1  0
 16 17  2  0
 16 18  1  0
 18 19  1  0
 19 20  1  0
 20 21  1  0
 21 22  2  0
 21 23  1  0
 23 24  1  1
 23 29  1  0
 24 25  1  0
 25 26  1  0
 26 27  2  0
 26 28  1  0
 29 30  1  0
 30 31  1  0
 31 32  1  0
 32 33  1  0
M  END
