
     RDKit          3D

 39 42  0  0  0  0  0  0  0  0999 V2000
    5.6170    0.3800   -4.9530 C   0  0  0  0  0  0  0  0  0  0  0  0
    5.3800    0.6840   -3.5920 O   0  0  0  0  0  0  0  0  0  0  0  0
    4.3450    0.0670   -2.9340 C   0  0  0  0  0  0  0  0  0  0  0  0
    3.6100   -0.7600   -3.5350 O   0  0  0  0  0  0  0  0  0  0  0  0
    4.0650    0.3600   -1.4950 C   0  0  2  0  0  0  0  0  0  0  0  0
    5.3230   -0.0180   -0.7490 C   0  0  0  0  0  0  0  0  0  0  0  0
    5.2010    0.2090    0.6920 C   0  0  0  0  0  0  0  0  0  0  0  0
    5.5460    1.4420    1.2040 C   0  0  0  0  0  0  0  0  0  0  0  0
    5.4370    1.6560    2.5500 C   0  0  0  0  0  0  0  0  0  0  0  0
    4.9910    0.6530    3.3860 C   0  0  0  0  0  0  0  0  0  0  0  0
    4.6440   -0.5960    2.8520 C   0  0  0  0  0  0  0  0  0  0  0  0
    4.7540   -0.8070    1.4960 C   0  0  0  0  0  0  0  0  0  0  0  0
    3.0230   -0.3180   -0.9860 O   0  0  0  0  0  0  0  0  0  0  0  0
    1.7280    0.4430   -0.4070 P   0  0  0  0  0  0  0  0  0  0  0  0
    1.0750    0.6220   -1.7870 O   0  0  0  0  0  0  0  0  0  0  0  0
    1.6760    2.1400   -0.2930 O   0  0  0  0  0  0  0  0  0  0  0  0
    0.4260   -0.5040    0.3280 C   0  0  2  0  0  0  0  0  0  0  0  0
    0.0730   -1.6690   -0.5880 C   0  0  0  0  0  0  0  0  0  0  0  0
   -1.2560   -2.2560   -0.2460 C   0  0  0  0  0  0  0  0  0  0  0  0
   -1.1280   -3.3510    0.6030 C   0  0  0  0  0  0  0  0  0  0  0  0
   -2.1970   -3.9530    1.2090 C   0  0  0  0  0  0  0  0  0  0  0  0
   -3.4510   -3.3890    0.9230 C   0  0  0  0  0  0  0  0  0  0  0  0
   -4.4730   -3.9920    1.6270 C   0  0  0  0  0  0  0  0  0  0  0  0
   -5.7500   -3.5160    1.5350 C   0  0  0  0  0  0  0  0  0  0  0  0
   -5.9350   -2.4350    0.7270 C   0  0  0  0  0  0  0  0  0  0  0  0
   -4.9200   -1.8110    0.0050 C   0  0  0  0  0  0  0  0  0  0  0  0
   -3.6010   -2.2830    0.0680 C   0  0  0  0  0  0  0  0  0  0  0  0
   -2.4970   -1.7160   -0.5340 C   0  0  0  0  0  0  0  0  0  0  0  0
   -5.4610   -0.5890   -0.6260 C   0  0  0  0  0  0  0  0  0  0  0  0
   -4.5610    0.3040   -1.3330 C   0  0  0  0  0  0  0  0  0  0  0  0
   -4.5400    0.0360   -2.6270 O   0  0  0  0  0  0  0  0  0  0  0  0
   -3.7320    1.3630   -0.9970 N   0  0  0  0  0  0  0  0  0  0  0  0
   -2.5200    1.6800   -0.3370 C   0  0  1  0  0  0  0  0  0  0  0  0
   -2.8630    3.0490    0.3770 C   0  0  1  0  0  0  0  0  0  0  0  0
   -3.9740    2.8910    1.3380 C   0  0  0  0  0  0  0  0  0  0  0  0
   -1.5930    3.6230    0.9120 C   0  0  0  0  0  0  0  0  0  0  0  0
   -1.8730    0.8230    0.6470 C   0  0  0  0  0  0  0  0  0  0  0  0
   -2.7220    0.4320    1.5580 O   0  0  0  0  0  0  0  0  0  0  0  0
   -0.5730    0.3550    0.8260 N   0  0  0  0  0  0  0  0  0  0  0  0
  1  2  1  0
  2  3  1  0
  3  4  2  0
  3  5  1  0
  5  6  1  1
  5 13  1  0
  6  7  1  0
  7  8  2  0
  7 12  1  0
  8  9  1  0
  9 10  2  0
 10 11  1  0
 11 12  2  0
 13 14  1  0
 14 15  1  0
 14 16  1  0
 17 14  1  6
 17 18  1  0
 17 39  1  0
 18 19  1  0
 19 20  2  0
 19 28  1  0
 20 21  1  0
 21 22  2  0
 22 23  1  0
 22 27  1  0
 23 24  2  0
 24 25  1  0
 25 26  2  0
 26 27  1  0
 26 29  1  0
 27 28  2  0
 29 30  1  0
 30 31  2  0
 30 32  1  0
 33 32  1  1
 33 34  1  0
 33 37  1  0
 34 35  1  1
 34 36  1  0
 37 38  2  0
 37 39  1  0
M  END
