
     RDKit          3D

 10 10  0  0  0  0  0  0  0  0999 V2000
    3.5830    0.4320    0.7670 O   0  0  0  0  0  0  0  0  0  0  0  0
    3.5580    0.5020   -0.4750 C   0  0  0  0  0  0  0  0  0  0  0  0
    2.3500    0.4100   -1.1720 N   0  0  0  0  0  0  0  0  0  0  0  0
    1.1280    0.2370   -0.5110 C   0  0  0  0  0  0  0  0  0  0  0  0
    0.7130    0.1170    0.7730 C   0  0  0  0  0  0  0  0  0  0  0  0
   -0.5900   -0.0410    1.0360 C   0  0  0  0  0  0  0  0  0  0  0  0
   -1.4810   -0.0790   -0.0030 C   0  0  0  0  0  0  0  0  0  0  0  0
   -2.9430   -0.2390    0.0020 C   0  0  0  0  0  0  0  0  0  0  0  0
   -3.6400    0.9470    0.0760 O   0  0  0  0  0  0  0  0  0  0  0  0
   -0.4750    0.1150   -1.4290 S   0  0  0  0  0  0  0  0  0  0  0  0
  1  2  2  0
  2  3  1  0
  3  4  1  0
  4  5  2  0
  4 10  1  0
  5  6  1  0
  6  7  2  0
  7  8  1  0
  7 10  1  0
  8  9  1  0
M  END
