
     RDKit          3D

 11 11  0  0  0  0  0  0  0  0999 V2000
    4.0480   -0.3050   -0.4700 O   0  0  0  0  0  0  0  0  0  0  0  0
    2.8230   -0.3670    0.4080 S   0  0  1  0  0  0  0  0  0  0  0  0
    2.6950    0.9700    1.0630 O   0  0  0  0  0  0  0  0  0  0  0  0
    1.4600   -0.6480   -0.5790 N   0  0  0  0  0  0  0  0  0  0  0  0
    0.1460   -0.2190   -0.3230 C   0  0  0  0  0  0  0  0  0  0  0  0
   -0.9120   -1.0890   -0.4910 C   0  0  0  0  0  0  0  0  0  0  0  0
   -2.2040   -0.6780   -0.2410 C   0  0  0  0  0  0  0  0  0  0  0  0
   -2.5000    0.6020    0.1820 C   0  0  0  0  0  0  0  0  0  0  0  0
   -3.7930    0.9930    0.4260 F   0  0  0  0  0  0  0  0  0  0  0  0
   -1.4420    1.4680    0.3490 C   0  0  0  0  0  0  0  0  0  0  0  0
   -0.1380    1.0610    0.1000 C   0  0  0  0  0  0  0  0  0  0  0  0
  1  2  2  0
  2  3  2  0
  2  4  1  6
  4  5  1  0
  5  6  2  0
  5 11  1  0
  6  7  1  0
  7  8  2  0
  8  9  1  0
  8 10  1  0
 10 11  2  0
M  END
