
     RDKit          3D

 11 11  0  0  0  0  0  0  0  0999 V2000
   -2.9110   -0.2680    0.6370 N   0  0  0  0  0  0  0  0  0  0  0  0
   -1.8460    0.8670   -0.0720 S   0  0  2  0  0  0  0  0  0  0  0  0
   -1.9500    2.1440    0.7150 O   0  0  0  0  0  0  0  0  0  0  0  0
   -2.3570    1.1880   -1.4590 O   0  0  0  0  0  0  0  0  0  0  0  0
   -0.1930    0.3020   -0.1130 C   0  0  0  0  0  0  0  0  0  0  0  0
    0.8080    0.9990    0.5330 C   0  0  0  0  0  0  0  0  0  0  0  0
    2.1210    0.5750    0.5170 C   0  0  0  0  0  0  0  0  0  0  0  0
    2.4950   -0.5740   -0.1510 C   0  0  0  0  0  0  0  0  0  0  0  0
    1.4940   -1.2700   -0.7960 C   0  0  0  0  0  0  0  0  0  0  0  0
    0.1810   -0.8460   -0.7790 C   0  0  0  0  0  0  0  0  0  0  0  0
   -0.8060   -1.5320   -1.4150 F   0  0  0  0  0  0  0  0  0  0  0  0
  2  1  1  1
  2  3  2  0
  2  4  2  0
  2  5  1  0
  5  6  2  0
  5 10  1  0
  6  7  1  0
  7  8  2  0
  8  9  1  0
  9 10  2  0
 10 11  1  0
M  END
