
     RDKit          3D

 10 10  0  0  0  0  0  0  0  0999 V2000
   -2.3060    0.3550    0.1550 N   0  0  0  0  0  0  0  0  0  0  0  0
   -0.9040    0.1290    0.0140 C   0  0  0  0  0  0  0  0  0  0  0  0
   -0.3560   -1.1050    0.2970 C   0  0  0  0  0  0  0  0  0  0  0  0
   -1.2090   -2.1240    0.7250 O   0  0  0  0  0  0  0  0  0  0  0  0
    1.0050   -1.3430    0.1660 C   0  0  0  0  0  0  0  0  0  0  0  0
    1.8550   -0.3440   -0.2550 C   0  0  0  0  0  0  0  0  0  0  0  0
    3.2200   -0.5320   -0.4010 O   0  0  0  0  0  0  0  0  0  0  0  0
    1.3020    0.8870   -0.5370 C   0  0  0  0  0  0  0  0  0  0  0  0
   -0.0500    1.1250   -0.4070 C   0  0  0  0  0  0  0  0  0  0  0  0
   -0.7540    2.7170   -0.7730 S   0  0  0  0  0  0  0  0  0  0  0  0
  1  2  1  0
  2  3  2  0
  2  9  1  0
  3  4  1  0
  3  5  1  0
  5  6  2  0
  6  7  1  0
  6  8  1  0
  8  9  2  0
  9 10  1  0
M  END
