
     RDKit          3D

 25 28  0  0  0  0  0  0  0  0999 V2000
    5.3400    2.9140    0.5640 N   0  0  0  0  0  0  0  0  0  0  0  0
    4.8610    1.5850    0.3230 C   0  0  0  0  0  0  0  0  0  0  0  0
    3.5120    1.3910    0.1220 C   0  0  0  0  0  0  0  0  0  0  0  0
    3.0240    0.1200   -0.1180 C   0  0  0  0  0  0  0  0  0  0  0  0
    1.6240   -0.0760   -0.3540 N   0  0  0  0  0  0  0  0  0  0  0  0
    0.7220    0.8860   -0.6260 C   0  0  0  0  0  0  0  0  0  0  0  0
   -0.5460    0.3080   -0.8190 C   0  0  0  0  0  0  0  0  0  0  0  0
   -1.7730    1.0200   -1.1090 C   0  0  0  0  0  0  0  0  0  0  0  0
   -1.8890    1.5880   -2.2790 O   0  0  0  0  0  0  0  0  0  0  0  0
   -2.9150    1.1950   -0.2510 C   0  0  0  0  0  0  0  0  0  0  0  0
   -3.1580    0.4350    0.8420 C   0  0  0  0  0  0  0  0  0  0  0  0
   -4.2690    0.6020    1.6650 C   0  0  0  0  0  0  0  0  0  0  0  0
   -5.1470    1.5820    1.3450 N   0  0  0  0  0  0  0  0  0  0  0  0
   -4.9590    2.3820    0.2560 C   0  0  0  0  0  0  0  0  0  0  0  0
   -3.8500    2.1950   -0.5420 C   0  0  0  0  0  0  0  0  0  0  0  0
   -0.3510   -1.0250   -0.6510 C   0  0  0  0  0  0  0  0  0  0  0  0
   -1.2910   -2.1320   -0.7490 C   0  0  0  0  0  0  0  0  0  0  0  0
   -1.0240   -3.4640   -0.4600 C   0  0  0  0  0  0  0  0  0  0  0  0
   -2.1540   -4.2290   -0.6990 C   0  0  0  0  0  0  0  0  0  0  0  0
   -3.0670   -3.4130   -1.1120 O   0  0  0  0  0  0  0  0  0  0  0  0
   -2.6080   -2.1600   -1.1600 C   0  0  0  0  0  0  0  0  0  0  0  0
    0.9850   -1.2180   -0.3670 N   0  0  0  0  0  0  0  0  0  0  0  0
    3.9350   -0.9060   -0.1420 C   0  0  0  0  0  0  0  0  0  0  0  0
    5.2760   -0.7250    0.0560 C   0  0  0  0  0  0  0  0  0  0  0  0
    5.7050    0.5430    0.2870 N   0  0  0  0  0  0  0  0  0  0  0  0
  1  2  1  0
  2  3  2  0
  2 25  1  0
  3  4  1  0
  4  5  1  0
  4 23  2  0
  5  6  1  0
  5 22  1  0
  6  7  2  0
  7  8  1  0
  7 16  1  0
  8  9  2  0
  8 10  1  0
 10 11  2  0
 10 15  1  0
 11 12  1  0
 12 13  2  0
 13 14  1  0
 14 15  2  0
 16 17  1  0
 16 22  2  0
 17 18  1  0
 17 21  2  0
 18 19  2  0
 19 20  1  0
 20 21  1  0
 23 24  1  0
 24 25  2  0
M  CHG  1  22   1
M  END
