
     RDKit          3D

 11 11  0  0  0  0  0  0  0  0999 V2000
   -3.5200   -0.6370    0.0940 N   0  0  0  0  0  0  0  0  0  0  0  0
   -2.6710    0.4690    0.2370 C   0  0  0  0  0  0  0  0  0  0  0  0
   -3.1850    1.5830    0.4780 O   0  0  0  0  0  0  0  0  0  0  0  0
   -1.2400    0.2750    0.0990 C   0  0  0  0  0  0  0  0  0  0  0  0
   -0.4770   -0.8450   -0.1600 C   0  0  0  0  0  0  0  0  0  0  0  0
    0.8510   -0.6820   -0.2250 C   0  0  0  0  0  0  0  0  0  0  0  0
    1.3860    0.5240   -0.0410 C   0  0  0  0  0  0  0  0  0  0  0  0
    2.7930    1.0160   -0.0510 C   0  0  0  0  0  0  0  0  0  0  0  0
    3.6930    0.0040   -0.3000 O   0  0  0  0  0  0  0  0  0  0  0  0
    3.6650   -0.9590    0.5730 F   0  0  0  0  0  0  0  0  0  0  0  0
    0.0160    1.5310    0.2410 S   0  0  0  0  0  0  0  0  0  0  0  0
  1  2  1  0
  2  3  2  0
  2  4  1  0
  4  5  2  0
  4 11  1  0
  5  6  1  0
  6  7  2  0
  7  8  1  0
  7 11  1  0
  8  9  1  0
  9 10  1  0
M  END
