
     RDKit          3D

 10 10  0  0  0  0  0  0  0  0999 V2000
   -3.5100    0.1060    0.1880 C   0  0  0  0  0  0  0  0  0  0  0  0
   -2.0650    0.0040   -0.1820 C   0  0  0  0  0  0  0  0  0  0  0  0
   -1.8170   -0.1560   -1.3990 O   0  0  0  0  0  0  0  0  0  0  0  0
   -1.0150    0.0750    0.7310 N   0  0  0  0  0  0  0  0  0  0  0  0
    0.4110   -0.0300    0.3360 C   0  0  0  0  0  0  0  0  0  0  0  0
    1.0040   -0.1950   -0.8180 C   0  0  0  0  0  0  0  0  0  0  0  0
    2.3520   -0.2550   -0.8740 C   0  0  0  0  0  0  0  0  0  0  0  0
    3.0210   -0.1370    0.2970 C   0  0  0  0  0  0  0  0  0  0  0  0
    4.4120   -0.1590    0.5640 O   0  0  0  0  0  0  0  0  0  0  0  0
    1.7260    0.0600    1.4860 S   0  0  0  0  0  0  0  0  0  0  0  0
  1  2  1  0
  2  3  2  0
  2  4  1  0
  4  5  1  0
  5  6  2  0
  5 10  1  0
  6  7  1  0
  7  8  2  0
  8  9  1  0
  8 10  1  0
M  END
