
     RDKit          3D

 10 10  0  0  0  0  0  0  0  0999 V2000
    3.1950   -0.1300   -0.2070 C   0  0  0  0  0  0  0  0  0  0  0  0
    1.9240    0.4870   -0.2430 O   0  0  0  0  0  0  0  0  0  0  0  0
    0.7750   -0.2160   -0.0090 C   0  0  0  0  0  0  0  0  0  0  0  0
    0.8500   -1.4340    0.2430 O   0  0  0  0  0  0  0  0  0  0  0  0
   -0.5700    0.4640   -0.0520 C   0  0  0  0  0  0  0  0  0  0  0  0
   -0.5990    1.8860   -0.3510 C   0  0  0  0  0  0  0  0  0  0  0  0
   -2.3410    2.2080   -0.2890 S   0  0  0  0  0  0  0  0  0  0  0  0
   -2.9060    0.6160    0.0890 C   0  0  0  0  0  0  0  0  0  0  0  0
   -1.7050   -0.1520    0.1620 C   0  0  0  0  0  0  0  0  0  0  0  0
   -1.8250   -1.5710    0.4710 N   0  0  0  0  0  0  0  0  0  0  0  0
  1  2  1  0
  2  3  1  0
  3  4  2  0
  3  5  1  0
  5  6  2  0
  5  9  1  0
  6  7  1  0
  7  8  1  0
  8  9  2  0
  9 10  1  0
M  END
