
     RDKit          3D

 12 13  0  0  0  0  0  0  0  0999 V2000
   -4.4870   -0.7950   -0.5800 Cl  0  0  0  0  0  0  0  0  0  0  0  0
   -2.9760    0.0310   -0.2560 C   0  0  0  0  0  0  0  0  0  0  0  0
   -2.7870    1.3400    0.0630 N   0  0  0  0  0  0  0  0  0  0  0  0
   -1.4740    1.5510    0.2280 C   0  0  0  0  0  0  0  0  0  0  0  0
   -0.8160    0.3670    0.0130 C   0  0  0  0  0  0  0  0  0  0  0  0
    0.6220    0.1240    0.0840 C   0  0  0  0  0  0  0  0  0  0  0  0
    1.1780   -1.1140   -0.1530 C   0  0  0  0  0  0  0  0  0  0  0  0
    2.5180   -1.2950   -0.0760 N   0  0  0  0  0  0  0  0  0  0  0  0
    3.3430   -0.2780    0.2310 C   0  0  0  0  0  0  0  0  0  0  0  0
    2.7760    0.9210    0.4580 N   0  0  0  0  0  0  0  0  0  0  0  0
    1.4700    1.1210    0.3890 N   0  0  0  0  0  0  0  0  0  0  0  0
   -1.7500   -0.5590   -0.2840 N   0  0  0  0  0  0  0  0  0  0  0  0
  1  2  1  0
  2  3  2  0
  2 12  1  0
  3  4  1  0
  4  5  2  0
  5  6  1  0
  5 12  1  0
  6  7  2  0
  6 11  1  0
  7  8  1  0
  8  9  2  0
  9 10  1  0
 10 11  2  0
M  END
