
     RDKit          3D

 12 13  0  0  0  0  0  0  0  0999 V2000
    4.7570   -0.1750   -0.7270 Cl  0  0  0  0  0  0  0  0  0  0  0  0
    3.1050   -0.5010   -0.2480 C   0  0  0  0  0  0  0  0  0  0  0  0
    1.9870    0.2150   -0.5630 N   0  0  0  0  0  0  0  0  0  0  0  0
    0.9070   -0.3580   -0.0050 C   0  0  0  0  0  0  0  0  0  0  0  0
   -0.4780    0.0910   -0.0960 C   0  0  0  0  0  0  0  0  0  0  0  0
   -0.7510    1.2270   -0.8280 C   0  0  0  0  0  0  0  0  0  0  0  0
   -2.0110    1.6950   -0.9520 N   0  0  0  0  0  0  0  0  0  0  0  0
   -3.0310    1.0520   -0.3550 C   0  0  0  0  0  0  0  0  0  0  0  0
   -2.7460   -0.0830    0.3740 C   0  0  0  0  0  0  0  0  0  0  0  0
   -1.4800   -0.5660    0.5070 N   0  0  0  0  0  0  0  0  0  0  0  0
    1.3830   -1.4380    0.6570 N   0  0  0  0  0  0  0  0  0  0  0  0
    2.6880   -1.5260    0.5150 N   0  0  0  0  0  0  0  0  0  0  0  0
  1  2  1  0
  2  3  2  0
  2 12  1  0
  3  4  1  0
  4  5  1  0
  4 11  2  0
  5  6  2  0
  5 10  1  0
  6  7  1  0
  7  8  2  0
  8  9  1  0
  9 10  2  0
 11 12  1  0
M  END
