
     RDKit          3D

 25 29  0  0  0  0  0  0  0  0999 V2000
    5.7460    2.2440   -0.9830 C   0  0  0  0  0  0  0  0  0  0  0  0
    5.3090    1.0150   -0.2810 C   0  0  0  0  0  0  0  0  0  0  0  0
    6.1050    0.1830    0.4430 N   0  0  0  0  0  0  0  0  0  0  0  0
    5.3840   -0.8180    0.9370 N   0  0  0  0  0  0  0  0  0  0  0  0
    5.9260   -1.8830    1.7560 C   0  0  0  0  0  0  0  0  0  0  0  0
    4.0980   -0.6940    0.5650 C   0  0  0  0  0  0  0  0  0  0  0  0
    4.0530    0.4750   -0.2100 C   0  0  0  0  0  0  0  0  0  0  0  0
    2.6630    0.6310   -0.6190 C   0  0  0  0  0  0  0  0  0  0  0  0
    1.9840    1.6540   -1.0610 C   0  0  0  0  0  0  0  0  0  0  0  0
    0.5700    1.4830   -1.3700 C   0  0  0  0  0  0  0  0  0  0  0  0
   -0.0070    0.3140   -1.1810 C   0  0  0  0  0  0  0  0  0  0  0  0
    0.7110   -0.7970   -0.6650 N   0  0  0  0  0  0  0  0  0  0  0  0
   -0.0640   -1.9720   -0.2360 C   0  0  0  0  0  0  0  0  0  0  0  0
   -1.5280   -1.7560   -0.1590 C   0  0  0  0  0  0  0  0  0  0  0  0
   -1.8720   -0.7220    0.8770 C   0  0  0  0  0  0  0  0  0  0  0  0
   -3.3200   -0.5180    0.9540 N   0  0  0  0  0  0  0  0  0  0  0  0
   -4.1320   -1.2210    1.7790 C   0  0  0  0  0  0  0  0  0  0  0  0
   -5.4240   -0.7840    1.6080 C   0  0  0  0  0  0  0  0  0  0  0  0
   -5.3960    0.2160    0.6490 C   0  0  0  0  0  0  0  0  0  0  0  0
   -4.0850    0.3550    0.2670 C   0  0  0  0  0  0  0  0  0  0  0  0
   -3.9740    1.4170   -0.7690 C   0  0  0  0  0  0  0  0  0  0  0  0
   -5.3670    1.8850   -1.0350 C   0  0  0  0  0  0  0  0  0  0  0  0
   -6.2820    1.1750   -0.1000 C   0  0  0  0  0  0  0  0  0  0  0  0
    2.1170   -0.7800   -0.5970 C   0  0  2  0  0  0  0  0  0  0  0  0
    2.7530   -1.2340    0.6110 N   0  0  0  0  0  0  0  0  0  0  0  0
  1  2  1  0
  2  3  2  0
  2  7  1  0
  3  4  1  0
  4  5  1  0
  4  6  1  0
  6  7  2  0
  6 25  1  0
  7  8  1  0
  8  9  2  0
  8 24  1  0
  9 10  1  0
 10 11  2  0
 11 12  1  0
 12 13  1  0
 12 24  1  0
 13 14  1  0
 14 15  1  0
 15 16  1  0
 16 17  1  0
 16 20  1  0
 17 18  2  0
 18 19  1  0
 19 20  2  0
 19 23  1  0
 20 21  1  0
 21 22  1  0
 22 23  1  0
 24 25  1  1
M  END
