
     RDKit          3D

 12 13  0  0  0  0  0  0  0  0999 V2000
   -3.3950   -0.9570    2.3340 Cl  0  0  0  0  0  0  0  0  0  0  0  0
   -2.5330   -0.3770    0.9260 C   0  0  0  0  0  0  0  0  0  0  0  0
   -3.1630    0.0830   -0.1780 N   0  0  0  0  0  0  0  0  0  0  0  0
   -2.5150    0.5320   -1.2680 C   0  0  0  0  0  0  0  0  0  0  0  0
   -1.1700    0.5080   -1.2190 N   0  0  0  0  0  0  0  0  0  0  0  0
   -0.4840    0.0670   -0.1580 C   0  0  0  0  0  0  0  0  0  0  0  0
    0.9640    0.0380   -0.0990 C   0  0  0  0  0  0  0  0  0  0  0  0
    1.8400    0.4440   -1.0840 C   0  0  0  0  0  0  0  0  0  0  0  0
    3.0930    0.2470   -0.6180 N   0  0  0  0  0  0  0  0  0  0  0  0
    3.0620   -0.2560    0.5970 N   0  0  0  0  0  0  0  0  0  0  0  0
    1.7640   -0.3930    0.9380 C   0  0  0  0  0  0  0  0  0  0  0  0
   -1.1670   -0.3720    0.9070 N   0  0  0  0  0  0  0  0  0  0  0  0
  1  2  1  0
  2  3  2  0
  2 12  1  0
  3  4  1  0
  4  5  2  0
  5  6  1  0
  6  7  1  0
  6 12  2  0
  7  8  1  0
  7 11  2  0
  8  9  2  0
  9 10  1  0
 10 11  1  0
M  END
