
     RDKit          3D

 12 13  0  0  0  0  0  0  0  0999 V2000
    0.1850   -2.1480    1.5610 Cl  0  0  0  0  0  0  0  0  0  0  0  0
   -0.9680   -0.9060    1.1220 C   0  0  0  0  0  0  0  0  0  0  0  0
   -2.2090   -0.8480    1.6530 N   0  0  0  0  0  0  0  0  0  0  0  0
   -3.0950    0.1030    1.3180 C   0  0  0  0  0  0  0  0  0  0  0  0
   -2.7060    1.0270    0.4120 N   0  0  0  0  0  0  0  0  0  0  0  0
   -1.4770    1.0100   -0.1450 C   0  0  0  0  0  0  0  0  0  0  0  0
   -0.5680    0.0320    0.2000 C   0  0  0  0  0  0  0  0  0  0  0  0
    0.7750    0.0020   -0.4000 C   0  0  0  0  0  0  0  0  0  0  0  0
    1.7450   -0.8870   -0.1540 N   0  0  0  0  0  0  0  0  0  0  0  0
    2.8200   -0.5530   -0.9150 C   0  0  0  0  0  0  0  0  0  0  0  0
    2.5100    0.5390   -1.6280 N   0  0  0  0  0  0  0  0  0  0  0  0
    1.2730    0.8560   -1.3010 N   0  0  0  0  0  0  0  0  0  0  0  0
  1  2  1  0
  2  3  2  0
  2  7  1  0
  3  4  1  0
  4  5  2  0
  5  6  1  0
  6  7  2  0
  7  8  1  0
  8  9  1  0
  8 12  2  0
  9 10  2  0
 10 11  1  0
 11 12  1  0
M  END
