
     RDKit          3D

 12 13  0  0  0  0  0  0  0  0999 V2000
    3.3520    2.2280   -1.6030 Cl  0  0  0  0  0  0  0  0  0  0  0  0
    2.4620    0.8340   -1.0160 C   0  0  0  0  0  0  0  0  0  0  0  0
    3.0640   -0.3650   -0.9230 N   0  0  0  0  0  0  0  0  0  0  0  0
    2.3930   -1.4410   -0.4750 C   0  0  0  0  0  0  0  0  0  0  0  0
    1.1010   -1.2940   -0.1180 N   0  0  0  0  0  0  0  0  0  0  0  0
    0.4610   -0.1150   -0.1950 C   0  0  0  0  0  0  0  0  0  0  0  0
   -0.9400   -0.0170    0.2060 C   0  0  0  0  0  0  0  0  0  0  0  0
   -1.7310   -1.0430    0.6790 C   0  0  0  0  0  0  0  0  0  0  0  0
   -2.9580   -0.5470    0.9360 N   0  0  0  0  0  0  0  0  0  0  0  0
   -2.9600    0.7610    0.6370 C   0  0  0  0  0  0  0  0  0  0  0  0
   -1.7250    1.0720    0.1930 N   0  0  0  0  0  0  0  0  0  0  0  0
    1.1590    0.9370   -0.6460 N   0  0  0  0  0  0  0  0  0  0  0  0
  1  2  1  0
  2  3  2  0
  2 12  1  0
  3  4  1  0
  4  5  2  0
  5  6  1  0
  6  7  1  0
  6 12  2  0
  7  8  2  0
  7 11  1  0
  8  9  1  0
  9 10  2  0
 10 11  1  0
M  END
