
     RDKit          3D

 10 10  0  0  0  0  0  0  0  0999 V2000
   -2.4850   -1.1000   -1.0010 O   0  0  0  0  0  0  0  0  0  0  0  0
   -2.3380   -0.8210    0.3580 C   0  0  0  0  0  0  0  0  0  0  0  0
   -1.8480    0.6100    0.4620 C   0  0  0  0  0  0  0  0  0  0  0  0
   -0.5340    0.6630   -0.2740 C   0  0  0  0  0  0  0  0  0  0  0  0
   -0.4380    0.9440   -1.5750 C   0  0  0  0  0  0  0  0  0  0  0  0
    1.3080    0.8690   -1.9020 S   0  0  0  0  0  0  0  0  0  0  0  0
    1.6810    0.4350   -0.0950 C   0  0  0  0  0  0  0  0  0  0  0  0
    3.1200    0.2410    0.2300 C   0  0  0  0  0  0  0  0  0  0  0  0
    3.4190   -1.1020    0.0350 O   0  0  0  0  0  0  0  0  0  0  0  0
    0.6200    0.4300    0.3340 N   0  0  0  0  0  0  0  0  0  0  0  0
  1  2  1  0
  2  3  1  0
  3  4  1  0
  4  5  2  0
  4 10  1  0
  5  6  1  0
  6  7  1  0
  7  8  1  0
  7 10  2  0
  8  9  1  0
M  END
