
     RDKit          3D

 10 10  0  0  0  0  0  0  0  0999 V2000
   -3.3090    0.9900    0.1680 C   0  0  0  0  0  0  0  0  0  0  0  0
   -1.9020    1.0980    0.0250 O   0  0  0  0  0  0  0  0  0  0  0  0
   -1.0540    0.0140    0.1540 C   0  0  0  0  0  0  0  0  0  0  0  0
   -1.5260   -1.1130    0.4060 O   0  0  0  0  0  0  0  0  0  0  0  0
    0.3570    0.2220   -0.0080 C   0  0  0  0  0  0  0  0  0  0  0  0
    1.1300    1.7620   -0.3640 S   0  0  0  0  0  0  0  0  0  0  0  0
    2.7760    1.1790   -0.3990 C   0  0  0  0  0  0  0  0  0  0  0  0
    2.6520   -0.1910   -0.1310 C   0  0  0  0  0  0  0  0  0  0  0  0
    1.4210   -0.6400    0.0600 C   0  0  0  0  0  0  0  0  0  0  0  0
    1.1250   -2.0360    0.3480 N   0  0  0  0  0  0  0  0  0  0  0  0
  1  2  1  0
  2  3  1  0
  3  4  2  0
  3  5  1  0
  5  6  1  0
  5  9  2  0
  6  7  1  0
  7  8  2  0
  8  9  1  0
  9 10  1  0
M  END
