
     RDKit          3D

 10 10  0  0  0  0  0  0  0  0999 V2000
   -2.5270   -0.7870   -0.2490 C   0  0  0  0  0  0  0  0  0  0  0  0
   -1.0860   -0.8200   -0.1760 N   0  0  0  0  0  0  0  0  0  0  0  0
   -0.2840    0.3710    0.0040 C   0  0  0  0  0  0  0  0  0  0  0  0
   -0.9550    1.5950    0.0930 C   0  0  0  0  0  0  0  0  0  0  0  0
    0.3400    2.7980    0.3030 S   0  0  0  0  0  0  0  0  0  0  0  0
    1.6340    1.6690    0.2620 C   0  0  0  0  0  0  0  0  0  0  0  0
    1.0380    0.4330    0.0920 C   0  0  0  0  0  0  0  0  0  0  0  0
    1.9270   -0.7540    0.0210 C   0  0  0  0  0  0  0  0  0  0  0  0
    1.4930   -1.9140   -0.1300 O   0  0  0  0  0  0  0  0  0  0  0  0
    3.3110   -0.6380    0.1200 O   0  0  0  0  0  0  0  0  0  0  0  0
  1  2  1  0
  2  3  1  0
  3  4  2  0
  3  7  1  0
  4  5  1  0
  5  6  1  0
  6  7  2  0
  7  8  1  0
  8  9  2  0
  8 10  1  0
M  END
