
     RDKit          3D

 10 10  0  0  0  0  0  0  0  0999 V2000
   -1.8440   -1.3670    0.0080 C   0  0  0  0  0  0  0  0  0  0  0  0
   -0.4610   -0.8330   -0.0110 C   0  0  0  0  0  0  0  0  0  0  0  0
    0.8700   -1.8960   -0.0670 S   0  0  0  0  0  0  0  0  0  0  0  0
    2.3740   -1.0700   -0.0810 C   0  0  0  0  0  0  0  0  0  0  0  0
    3.4820   -1.6590   -0.1200 O   0  0  0  0  0  0  0  0  0  0  0  0
    2.2750    0.2650   -0.0460 N   0  0  0  0  0  0  0  0  0  0  0  0
    1.1460    0.9750   -0.0030 C   0  0  0  0  0  0  0  0  0  0  0  0
    1.3420    2.2560    0.0230 O   0  0  0  0  0  0  0  0  0  0  0  0
   -0.1370    0.4950    0.0140 C   0  0  0  0  0  0  0  0  0  0  0  0
   -1.2410    1.4910    0.0630 C   0  0  0  0  0  0  0  0  0  0  0  0
  1  2  1  0
  2  3  1  0
  2  9  2  0
  3  4  1  0
  4  5  2  0
  4  6  1  0
  6  7  1  0
  7  8  2  0
  7  9  1  0
  9 10  1  0
M  END
