
     RDKit          3D

 10 10  0  0  0  0  0  0  0  0999 V2000
    3.0110   -0.0500    0.3410 C   0  0  0  0  0  0  0  0  0  0  0  0
    1.6560   -0.4350   -0.2190 C   0  0  0  0  0  0  0  0  0  0  0  0
    1.5810   -1.3090   -1.1070 O   0  0  0  0  0  0  0  0  0  0  0  0
    0.4910    0.1880    0.2570 N   0  0  0  0  0  0  0  0  0  0  0  0
   -0.8480   -0.1370   -0.2420 C   0  0  0  0  0  0  0  0  0  0  0  0
   -1.0280   -1.0730   -1.2050 C   0  0  0  0  0  0  0  0  0  0  0  0
   -2.8640   -1.0670   -1.4350 S   0  0  0  0  0  0  0  0  0  0  0  0
   -3.1640    0.1680   -0.2340 C   0  0  0  0  0  0  0  0  0  0  0  0
   -1.9430    0.4930    0.2500 C   0  0  0  0  0  0  0  0  0  0  0  0
   -1.8930    1.5030    1.2710 O   0  0  0  0  0  0  0  0  0  0  0  0
  1  2  1  0
  2  3  2  0
  2  4  1  0
  4  5  1  0
  5  6  2  0
  5  9  1  0
  6  7  1  0
  7  8  1  0
  8  9  2  0
  9 10  1  0
M  END
