
     RDKit          3D

 10 10  0  0  0  0  0  0  0  0999 V2000
   -0.2780    2.8230   -0.4550 O   0  0  0  0  0  0  0  0  0  0  0  0
   -0.2510    1.6140   -0.1570 C   0  0  0  0  0  0  0  0  0  0  0  0
    1.0010    1.0360   -0.2600 C   0  0  0  0  0  0  0  0  0  0  0  0
    1.3410   -0.3050   -0.2340 C   0  0  0  0  0  0  0  0  0  0  0  0
    2.7130   -0.6190   -0.1850 O   0  0  0  0  0  0  0  0  0  0  0  0
    0.4560   -1.3620   -0.2520 C   0  0  0  0  0  0  0  0  0  0  0  0
   -0.9290   -1.3220   -0.0990 C   0  0  0  0  0  0  0  0  0  0  0  0
   -1.7390   -0.2890    0.3260 C   0  0  0  0  0  0  0  0  0  0  0  0
   -3.1560   -0.6900    0.9810 S   0  0  0  0  0  0  0  0  0  0  0  0
   -1.4070    1.0260    0.2200 N   0  0  0  0  0  0  0  0  0  0  0  0
  1  2  2  0
  2  3  1  0
  2 10  1  0
  3  4  2  0
  4  5  1  0
  4  6  1  0
  6  7  2  0
  7  8  1  0
  8  9  2  0
  8 10  1  0
M  END
