
     RDKit          3D

 10 11  0  0  0  0  0  0  0  0999 V2000
   -3.0450    0.6200    0.0900 N   0  0  0  0  0  0  0  0  0  0  0  0
   -1.7170    0.0760    0.1660 C   0  0  0  0  0  0  0  0  0  0  0  0
   -0.6700    0.9760    0.0560 C   0  0  0  0  0  0  0  0  0  0  0  0
    0.6280    0.5310    0.1190 C   0  0  0  0  0  0  0  0  0  0  0  0
    0.8590   -0.8240    0.2940 C   0  0  0  0  0  0  0  0  0  0  0  0
   -0.2180   -1.6650    0.3970 C   0  0  0  0  0  0  0  0  0  0  0  0
   -1.4750   -1.2250    0.3340 N   0  0  0  0  0  0  0  0  0  0  0  0
    2.2500   -1.0160    0.3260 O   0  0  0  0  0  0  0  0  0  0  0  0
    2.8300    0.1230   -0.3280 C   0  0  0  0  0  0  0  0  0  0  0  0
    1.8880    1.1270    0.0490 O   0  0  0  0  0  0  0  0  0  0  0  0
  1  2  1  0
  2  3  2  0
  2  7  1  0
  3  4  1  0
  4  5  2  0
  4 10  1  0
  5  6  1  0
  5  8  1  0
  6  7  2  0
  8  9  1  0
  9 10  1  0
M  END
