
     RDKit          3D

  9  9  0  0  0  0  0  0  0  0999 V2000
    3.2280   -0.4030   -0.0010 N   0  0  0  0  0  0  0  0  0  0  0  0
    2.0330   -0.1090   -0.7210 C   0  0  0  0  0  0  0  0  0  0  0  0
    1.8870   -0.6460   -1.8460 O   0  0  0  0  0  0  0  0  0  0  0  0
    1.0520    0.8070   -0.0910 C   0  0  0  0  0  0  0  0  0  0  0  0
   -0.0770    0.0370    0.5920 C   0  0  2  0  0  0  0  0  0  0  0  0
   -0.8460   -0.8280   -0.3750 C   0  0  0  0  0  0  0  0  0  0  0  0
   -2.1050    0.0110   -0.5370 C   0  0  0  0  0  0  0  0  0  0  0  0
   -2.2400    0.4920    0.8940 C   0  0  0  0  0  0  0  0  0  0  0  0
   -0.9540    0.9600    1.1370 O   0  0  0  0  0  0  0  0  0  0  0  0
  1  2  1  0
  2  3  2  0
  2  4  1  0
  5  4  1  6
  5  6  1  0
  5  9  1  0
  6  7  1  0
  7  8  1  0
  8  9  1  0
M  END
