
     RDKit          3D

 10 10  0  0  0  0  0  0  0  0999 V2000
    3.2580    0.3450    0.3380 C   0  0  0  0  0  0  0  0  0  0  0  0
    1.8430   -0.0780    0.1000 C   0  0  0  0  0  0  0  0  0  0  0  0
    1.3500   -1.3100   -0.3080 C   0  0  0  0  0  0  0  0  0  0  0  0
    0.0230   -1.4110   -0.4430 C   0  0  0  0  0  0  0  0  0  0  0  0
   -0.7690   -0.3520   -0.1870 C   0  0  0  0  0  0  0  0  0  0  0  0
   -2.1750   -0.1950   -0.2500 N   0  0  0  0  0  0  0  0  0  0  0  0
   -2.7810    1.0270    0.0690 C   0  0  0  0  0  0  0  0  0  0  0  0
   -2.0370    1.9850    0.4150 O   0  0  0  0  0  0  0  0  0  0  0  0
   -4.1410    1.2670    0.0350 O   0  0  0  0  0  0  0  0  0  0  0  0
    0.3760    0.8980    0.2780 S   0  0  0  0  0  0  0  0  0  0  0  0
  1  2  1  0
  2  3  2  0
  2 10  1  0
  3  4  1  0
  4  5  2  0
  5  6  1  0
  5 10  1  0
  6  7  1  0
  7  8  2  0
  7  9  1  0
M  END
