
     RDKit          3D

 22 23  0  0  0  0  0  0  0  0999 V2000
   -3.7960    1.7100   -0.8810 N   0  0  0  0  0  0  0  0  0  0  0  0
   -4.5770    0.7380   -0.1570 C   0  0  0  0  0  0  0  0  0  0  0  0
   -5.5820    1.3010    0.4820 C   0  0  0  0  0  0  0  0  0  0  0  0
   -6.5570    0.6760    1.2930 N   0  0  0  0  0  0  0  0  0  0  0  0
   -6.7470   -1.0130    1.6610 S   0  0  0  0  0  0  0  0  0  0  0  0
   -6.1290   -2.0740    0.3360 C   0  0  0  0  0  0  0  0  0  0  0  0
   -4.7480   -1.7520   -0.0660 C   0  0  0  0  0  0  0  0  0  0  0  0
   -4.1080   -0.6170   -0.2680 C   0  0  0  0  0  0  0  0  0  0  0  0
   -2.7240   -0.7070   -0.6560 N   0  0  0  0  0  0  0  0  0  0  0  0
   -1.6880   -0.0450    0.0400 C   0  0  0  0  0  0  0  0  0  0  0  0
   -2.0060    0.6510    1.0440 O   0  0  0  0  0  0  0  0  0  0  0  0
   -0.3320   -0.1670   -0.3970 N   0  0  0  0  0  0  0  0  0  0  0  0
    0.6630    0.5120    0.2510 N   0  0  0  0  0  0  0  0  0  0  0  0
    2.0410    0.1890    0.0200 C   0  0  0  0  0  0  0  0  0  0  0  0
    2.2810   -0.7410   -0.7680 O   0  0  0  0  0  0  0  0  0  0  0  0
    3.0800    0.9780    0.7180 C   0  0  0  0  0  0  0  0  0  0  0  0
    4.4580    0.5170    0.3640 C   0  0  0  0  0  0  0  0  0  0  0  0
    5.3030    0.0880    1.2930 C   0  0  0  0  0  0  0  0  0  0  0  0
    6.6460   -0.3550    0.9240 C   0  0  0  0  0  0  0  0  0  0  0  0
    6.7840   -0.9440   -0.3020 O   0  0  0  0  0  0  0  0  0  0  0  0
    5.7870   -0.7390   -1.2140 C   0  0  0  0  0  0  0  0  0  0  0  0
    4.9750    0.5060   -1.0300 C   0  0  0  0  0  0  0  0  0  0  0  0
  1  2  1  0
  2  3  2  0
  2  8  1  0
  3  4  1  0
  4  5  1  0
  5  6  1  0
  6  7  1  0
  7  8  2  0
  8  9  1  0
  9 10  1  0
 10 11  2  0
 10 12  1  0
 12 13  1  0
 13 14  1  0
 14 15  2  0
 14 16  1  0
 16 17  1  0
 17 18  2  0
 17 22  1  0
 18 19  1  0
 19 20  1  0
 20 21  1  0
 21 22  1  0
M  END
