
     RDKit          3D

 22 24  0  0  0  0  0  0  0  0999 V2000
   -4.1730   -2.0900   -0.0540 N   0  0  0  0  0  0  0  0  0  0  0  0
   -3.2520   -1.0040   -0.1650 C   0  0  0  0  0  0  0  0  0  0  0  0
   -3.6220    0.2100    0.3700 C   0  0  0  0  0  0  0  0  0  0  0  0
   -2.7830    1.3000    0.2980 C   0  0  0  0  0  0  0  0  0  0  0  0
   -3.1680    2.6120    0.8700 C   0  0  0  0  0  0  0  0  0  0  0  0
   -4.4250    2.4950    1.4290 O   0  0  0  0  0  0  0  0  0  0  0  0
   -1.5710    1.1230   -0.3270 C   0  0  0  0  0  0  0  0  0  0  0  0
   -1.1680   -0.0740   -0.8740 C   0  0  0  0  0  0  0  0  0  0  0  0
    0.0530   -0.2920   -1.5150 N   0  0  0  0  0  0  0  0  0  0  0  0
    1.2010   -0.2730   -0.9370 C   0  0  0  0  0  0  0  0  0  0  0  0
    1.2900   -0.0290    0.3930 N   0  0  0  0  0  0  0  0  0  0  0  0
    2.3260    0.1400    1.2050 C   0  0  0  0  0  0  0  0  0  0  0  0
    2.0260    0.8700    2.2220 O   0  0  0  0  0  0  0  0  0  0  0  0
    3.5910   -0.3020    1.1540 C   0  0  0  0  0  0  0  0  0  0  0  0
    4.1540   -0.6170    2.2740 O   0  0  0  0  0  0  0  0  0  0  0  0
    4.4470   -0.4950    0.1040 C   0  0  0  0  0  0  0  0  0  0  0  0
    5.8060   -0.5980    0.2330 N   0  0  0  0  0  0  0  0  0  0  0  0
    6.3460   -0.7840   -0.9840 C   0  0  0  0  0  0  0  0  0  0  0  0
    5.3720   -0.8080   -1.9340 N   0  0  0  0  0  0  0  0  0  0  0  0
    4.2250   -0.6340   -1.2780 C   0  0  0  0  0  0  0  0  0  0  0  0
    2.6080   -0.5660   -1.9010 S   0  0  0  0  0  0  0  0  0  0  0  0
   -2.0450   -1.1620   -0.7830 C   0  0  0  0  0  0  0  0  0  0  0  0
  1  2  1  0
  2  3  2  0
  2 22  1  0
  3  4  1  0
  4  5  1  0
  4  7  2  0
  5  6  1  0
  7  8  1  0
  8  9  1  0
  8 22  2  0
  9 10  2  3
 10 11  1  0
 10 21  1  0
 11 12  1  0
 12 13  2  0
 12 14  1  0
 14 15  2  0
 14 16  1  0
 16 17  1  0
 16 20  2  0
 17 18  1  0
 18 19  2  0
 19 20  1  0
 20 21  1  0
M  CHG  1   1   1
M  END
