
     RDKit          3D

 22 24  0  0  0  0  0  0  0  0999 V2000
   -2.0040    2.2890    0.0070 N   0  0  0  0  0  0  0  0  0  0  0  0
   -2.7090    1.5250    1.0220 C   0  0  0  0  0  0  0  0  0  0  0  0
   -3.3820    0.3290    0.4590 C   0  0  0  0  0  0  0  0  0  0  0  0
   -4.7060    0.2200    0.5810 C   0  0  0  0  0  0  0  0  0  0  0  0
   -5.3270   -0.8960    0.0550 O   0  0  0  0  0  0  0  0  0  0  0  0
   -4.6680   -1.9420   -0.6090 C   0  0  0  0  0  0  0  0  0  0  0  0
   -3.2070   -1.7540   -0.7050 C   0  0  0  0  0  0  0  0  0  0  0  0
   -2.5950   -0.6960   -0.2100 C   0  0  0  0  0  0  0  0  0  0  0  0
   -1.1880   -0.6100   -0.3560 N   0  0  0  0  0  0  0  0  0  0  0  0
   -0.3600   -1.0540    0.7270 C   0  0  0  0  0  0  0  0  0  0  0  0
   -1.0160   -1.6460    2.0990 S   0  0  0  0  0  0  0  0  0  0  0  0
    1.0640   -0.9770    0.6040 N   0  0  0  0  0  0  0  0  0  0  0  0
    1.7590   -0.0070    0.0070 N   0  0  0  0  0  0  0  0  0  0  0  0
    3.0720   -0.2560    0.0780 C   0  0  0  0  0  0  0  0  0  0  0  0
    4.1830    0.5520   -0.4480 C   0  0  0  0  0  0  0  0  0  0  0  0
    5.5170    0.2390   -0.3420 C   0  0  0  0  0  0  0  0  0  0  0  0
    6.2250    1.2540   -0.9650 C   0  0  0  0  0  0  0  0  0  0  0  0
    5.2760    2.1350   -1.4190 C   0  0  0  0  0  0  0  0  0  0  0  0
    4.0980    1.6780   -1.0910 O   0  0  0  0  0  0  0  0  0  0  0  0
    3.1860   -1.4150    0.7380 N   0  0  0  0  0  0  0  0  0  0  0  0
    1.9580   -1.8690    1.0670 C   0  0  0  0  0  0  0  0  0  0  0  0
    1.6630   -2.9350    1.6960 O   0  0  0  0  0  0  0  0  0  0  0  0
  1  2  1  0
  2  3  1  0
  3  4  2  0
  3  8  1  0
  4  5  1  0
  5  6  1  0
  6  7  1  0
  7  8  2  0
  8  9  1  0
  9 10  1  0
 10 11  2  0
 10 12  1  0
 12 13  1  0
 12 21  1  0
 13 14  2  0
 14 15  1  0
 14 20  1  0
 15 16  2  0
 15 19  1  0
 16 17  1  0
 17 18  2  0
 18 19  1  0
 20 21  1  0
 21 22  2  0
M  CHG  1   1   1
M  END
