
     RDKit          3D

 22 24  0  0  0  0  0  0  0  0999 V2000
   -6.0320   -0.0500    2.6240 C   0  0  0  0  0  0  0  0  0  0  0  0
   -5.9000    0.3980    1.2250 C   0  0  0  0  0  0  0  0  0  0  0  0
   -6.8440    0.9490    0.4380 N   0  0  0  0  0  0  0  0  0  0  0  0
   -6.3710    1.2220   -0.7460 N   0  0  0  0  0  0  0  0  0  0  0  0
   -5.0500    0.8380   -0.7580 C   0  0  0  0  0  0  0  0  0  0  0  0
   -4.7470    0.3190    0.4810 C   0  0  0  0  0  0  0  0  0  0  0  0
   -3.3900   -0.1610    0.7160 C   0  0  0  0  0  0  0  0  0  0  0  0
   -2.4510   -0.1150   -0.2070 C   0  0  0  0  0  0  0  0  0  0  0  0
   -1.0980   -0.5930    0.0270 C   0  0  0  0  0  0  0  0  0  0  0  0
   -0.7440   -1.0860    1.1460 O   0  0  0  0  0  0  0  0  0  0  0  0
   -0.0820   -0.5450   -0.9670 N   0  0  0  0  0  0  0  0  0  0  0  0
    1.2230   -1.0000   -0.7570 N   0  0  0  0  0  0  0  0  0  0  0  0
    2.3600   -0.1630   -0.8800 C   0  0  0  0  0  0  0  0  0  0  0  0
    2.2110    1.0320   -1.1870 O   0  0  0  0  0  0  0  0  0  0  0  0
    3.6560   -0.7200   -0.6460 N   0  0  0  0  0  0  0  0  0  0  0  0
    4.8540    0.0830   -0.7550 C   0  0  2  0  0  0  0  0  0  0  0  0
    6.0810   -0.5050   -1.4260 C   0  0  0  0  0  0  0  0  0  0  0  0
    6.0370   -0.2900    0.0600 C   0  0  1  0  0  0  0  0  0  0  0  0
    6.7900    0.9100    0.6460 C   0  0  0  0  0  0  0  0  0  0  0  0
    8.2090    0.3900    1.6200 S   0  0  0  0  0  0  0  0  0  0  0  0
   -2.7850    0.4440   -1.5320 C   0  0  0  0  0  0  0  0  0  0  0  0
   -4.0730    0.8850   -1.7160 O   0  0  0  0  0  0  0  0  0  0  0  0
  1  2  1  0
  2  3  2  0
  2  6  1  0
  3  4  1  0
  4  5  1  0
  5  6  2  0
  5 22  1  0
  6  7  1  0
  7  8  2  0
  8  9  1  0
  8 21  1  0
  9 10  2  0
  9 11  1  0
 11 12  1  0
 12 13  1  0
 13 14  2  0
 13 15  1  0
 16 15  1  1
 16 17  1  0
 16 18  1  0
 17 18  1  0
 18 19  1  6
 19 20  1  0
 21 22  1  0
M  CHG  1   3   1
M  END
