
     RDKit          3D

 22 24  0  0  0  0  0  0  0  0999 V2000
    1.6290   -2.4740   -2.8180 C   0  0  0  0  0  0  0  0  0  0  0  0
    2.5730   -1.1420   -2.0500 S   0  0  0  0  0  0  0  0  0  0  0  0
    1.6230   -0.4750   -0.6290 C   0  0  2  0  0  0  0  0  0  0  0  0
    2.3800    0.6250    0.0200 C   0  0  0  0  0  0  0  0  0  0  0  0
    1.8720    1.3510    1.1980 C   0  0  0  0  0  0  0  0  0  0  0  0
    3.5590    0.9820   -0.4650 C   0  0  0  0  0  0  0  0  0  0  0  0
    4.3470    2.0260    0.1000 N   0  0  0  0  0  0  0  0  0  0  0  0
    1.4130   -1.5290    0.3510 N   0  0  0  0  0  0  0  0  0  0  0  0
    0.2270   -1.5840    1.1010 C   0  0  0  0  0  0  0  0  0  0  0  0
    0.1760   -2.2960    2.1430 O   0  0  0  0  0  0  0  0  0  0  0  0
   -0.9580   -0.8130    0.6720 C   0  0  0  0  0  0  0  0  0  0  0  0
   -0.8690   -0.0820   -0.4180 C   0  0  0  0  0  0  0  0  0  0  0  0
   -2.0150    0.6590   -0.8250 N   0  0  0  0  0  0  0  0  0  0  0  0
   -3.2100    0.5940   -0.0600 C   0  0  0  0  0  0  0  0  0  0  0  0
   -3.2960   -0.1370    1.0290 C   0  0  0  0  0  0  0  0  0  0  0  0
   -2.1670   -0.9270    1.5170 C   0  0  0  0  0  0  0  0  0  0  0  0
   -4.6490   -0.0030    1.6030 C   0  0  0  0  0  0  0  0  0  0  0  0
   -5.0850   -0.5620    2.6430 O   0  0  0  0  0  0  0  0  0  0  0  0
   -5.4000    0.8730    0.7800 N   0  0  0  0  0  0  0  0  0  0  0  0
   -4.5200    1.2580   -0.2650 C   0  0  0  0  0  0  0  0  0  0  0  0
   -4.7940    2.0280   -1.2050 O   0  0  0  0  0  0  0  0  0  0  0  0
    0.3460   -0.0440   -1.1560 N   0  0  0  0  0  0  0  0  0  0  0  0
  1  2  1  0
  3  2  1  6
  3  4  1  0
  3  8  1  0
  3 22  1  0
  4  5  1  0
  4  6  2  3
  6  7  1  0
  8  9  1  0
  9 10  2  0
  9 11  1  0
 11 12  2  0
 11 16  1  0
 12 13  1  0
 12 22  1  0
 13 14  1  0
 14 15  2  0
 14 20  1  0
 15 16  1  0
 15 17  1  0
 17 18  2  0
 17 19  1  0
 19 20  1  0
 20 21  2  0
M  CHG  1   7   1
M  END
