
     RDKit          3D

 22 23  0  0  0  0  0  0  0  0999 V2000
    7.7780    0.1170    0.8210 C   0  0  0  0  0  0  0  0  0  0  0  0
    6.5080    0.1970    0.0180 C   0  0  0  0  0  0  0  0  0  0  0  0
    5.3990   -0.1530    0.8690 N   0  0  0  0  0  0  0  0  0  0  0  0
    4.0560   -0.1720    0.4000 C   0  0  0  0  0  0  0  0  0  0  0  0
    3.8620    0.1330   -0.8000 O   0  0  0  0  0  0  0  0  0  0  0  0
    2.9580   -0.5150    1.2270 N   0  0  0  0  0  0  0  0  0  0  0  0
    1.6290   -0.5160    0.6990 C   0  0  0  0  0  0  0  0  0  0  0  0
    0.6760    0.2380    1.1700 C   0  0  0  0  0  0  0  0  0  0  0  0
   -0.6660    0.2410    0.6400 N   0  0  0  0  0  0  0  0  0  0  0  0
   -1.0060   -0.5840   -0.4230 C   0  0  0  0  0  0  0  0  0  0  0  0
   -2.1440   -0.7330   -1.0500 C   0  0  0  0  0  0  0  0  0  0  0  0
   -3.4200   -0.1190   -0.8810 C   0  0  0  0  0  0  0  0  0  0  0  0
   -4.3020   -0.6190   -1.7800 C   0  0  0  0  0  0  0  0  0  0  0  0
   -5.6990   -0.2790   -1.9550 C   0  0  0  0  0  0  0  0  0  0  0  0
   -6.5760    0.2710   -1.1480 C   0  0  0  0  0  0  0  0  0  0  0  0
   -6.1660    0.7590    0.5080 S   0  0  1  0  0  0  0  0  0  0  0  0
   -7.2390    1.6880    0.9990 O   0  0  0  0  0  0  0  0  0  0  0  0
   -6.0710   -0.4660    1.3320 O   0  0  0  0  0  0  0  0  0  0  0  0
   -4.7200    1.6320    0.3520 N   0  0  0  0  0  0  0  0  0  0  0  0
   -3.5320    0.8760    0.1490 C   0  0  0  0  0  0  0  0  0  0  0  0
    0.1090   -1.4100   -0.9100 N   0  0  0  0  0  0  0  0  0  0  0  0
    1.2670   -1.3810   -0.4170 C   0  0  0  0  0  0  0  0  0  0  0  0
  1  2  1  0
  2  3  1  0
  3  4  1  0
  4  5  2  0
  4  6  1  0
  6  7  1  0
  7  8  2  0
  7 22  1  0
  8  9  1  0
  9 10  1  0
 10 11  2  3
 10 21  1  0
 11 12  1  0
 12 13  2  0
 12 20  1  0
 13 14  1  0
 14 15  2  0
 15 16  1  0
 16 17  2  0
 16 18  2  0
 16 19  1  6
 19 20  1  0
 21 22  2  0
M  END
