
     RDKit          3D

 40 45  0  0  0  0  0  0  0  0999 V2000
   -4.0900    2.8790   -1.2770 C   0  0  0  0  0  0  0  0  0  0  0  0
   -4.9040    1.6860   -0.9780 C   0  0  0  0  0  0  0  0  0  0  0  0
   -6.1440    1.7940   -0.3930 C   0  0  0  0  0  0  0  0  0  0  0  0
   -6.9480    0.6930   -0.0880 C   0  0  0  0  0  0  0  0  0  0  0  0
   -8.2770    0.9290    0.5140 C   0  0  0  0  0  0  0  0  0  0  0  0
   -9.3400    0.9260   -0.5350 C   0  0  2  0  0  0  0  0  0  0  0  0
   -9.4770   -0.3390   -1.3140 C   0  0  0  0  0  0  0  0  0  0  0  0
   -9.0690    1.9490   -1.4620 F   0  0  0  0  0  0  0  0  0  0  0  0
  -10.5840    1.2180    0.0210 F   0  0  0  0  0  0  0  0  0  0  0  0
   -6.4500   -0.5450   -0.3970 C   0  0  0  0  0  0  0  0  0  0  0  0
   -7.1800   -1.6590   -0.0900 F   0  0  0  0  0  0  0  0  0  0  0  0
   -5.2060   -0.7040   -0.9880 C   0  0  0  0  0  0  0  0  0  0  0  0
   -4.4650    0.4190   -1.2630 C   0  0  0  0  0  0  0  0  0  0  0  0
   -3.1270    0.2210   -1.8990 C   0  0  0  0  0  0  0  0  0  0  0  0
   -2.0500    0.4370   -0.8600 C   0  0  0  0  0  0  0  0  0  0  0  0
   -2.2220   -0.5140    0.2160 N   0  0  0  0  0  0  0  0  0  0  0  0
   -1.9440   -1.8600   -0.1770 C   0  0  0  0  0  0  0  0  0  0  0  0
   -0.9700   -2.4650    0.7940 C   0  0  0  0  0  0  0  0  0  0  0  0
   -0.9380   -1.4930    1.9300 C   0  0  1  0  0  0  0  0  0  0  0  0
    0.4280   -1.4660    2.4940 C   0  0  0  0  0  0  0  0  0  0  0  0
    1.0760   -1.6190    3.5180 N   0  0  0  0  0  0  0  0  0  0  0  0
    2.3370   -1.4980    3.6330 N   0  0  0  0  0  0  0  0  0  0  0  0
    3.0920   -1.1930    2.6560 C   0  0  0  0  0  0  0  0  0  0  0  0
    4.5100   -0.9630    2.3840 C   0  0  0  0  0  0  0  0  0  0  0  0
    5.5000   -1.0320    3.2690 C   0  0  0  0  0  0  0  0  0  0  0  0
    6.7680   -0.7410    2.6330 C   0  0  0  0  0  0  0  0  0  0  0  0
    8.0360   -0.6670    3.0030 C   0  0  0  0  0  0  0  0  0  0  0  0
    9.0980   -0.3350    2.0610 C   0  0  0  0  0  0  0  0  0  0  0  0
    8.8070   -0.0990    0.8040 N   0  0  0  0  0  0  0  0  0  0  0  0
    7.4750   -0.1570    0.3180 C   0  0  0  0  0  0  0  0  0  0  0  0
    7.1270    0.0550   -0.9290 C   0  0  0  0  0  0  0  0  0  0  0  0
    8.0800    0.3770   -1.9800 C   0  0  0  0  0  0  0  0  0  0  0  0
    9.2870   -0.1850   -2.2930 C   0  0  0  0  0  0  0  0  0  0  0  0
    9.8440    0.4450   -3.3410 N   0  0  0  0  0  0  0  0  0  0  0  0
    9.0130    1.4040   -3.7060 N   0  0  0  0  0  0  0  0  0  0  0  0
    7.9260    1.4090   -2.9160 C   0  0  0  0  0  0  0  0  0  0  0  0
    6.4570   -0.4850    1.2650 N   0  0  0  0  0  0  0  0  0  0  0  0
    5.0760   -0.6210    1.1160 N   0  0  0  0  0  0  0  0  0  0  0  0
    1.8030   -1.0460    1.3220 S   0  0  0  0  0  0  0  0  0  0  0  0
   -1.2440   -0.1790    1.2470 C   0  0  0  0  0  0  0  0  0  0  0  0
  1  2  1  0
  2  3  2  0
  2 13  1  0
  3  4  1  0
  4  5  1  0
  4 10  2  0
  5  6  1  0
  6  7  1  6
  6  8  1  0
  6  9  1  0
 10 11  1  0
 10 12  1  0
 12 13  2  0
 13 14  1  0
 14 15  1  0
 15 16  1  0
 16 17  1  0
 16 40  1  0
 17 18  1  0
 18 19  1  0
 19 20  1  6
 19 40  1  0
 20 21  2  0
 20 39  1  0
 21 22  1  0
 22 23  2  0
 23 24  1  0
 23 39  1  0
 24 25  2  0
 24 38  1  0
 25 26  1  0
 26 27  2  0
 26 37  1  0
 27 28  1  0
 28 29  2  0
 29 30  1  0
 30 31  2  3
 30 37  1  0
 31 32  1  0
 32 33  1  0
 32 36  2  0
 33 34  2  0
 34 35  1  0
 35 36  1  0
 37 38  1  0
M  CHG  1  29   1
M  END
