
     RDKit          3D

 40 44  0  0  0  0  0  0  0  0999 V2000
    8.1460    0.2240   -2.4450 C   0  0  0  0  0  0  0  0  0  0  0  0
    8.1700    0.7960   -1.1250 C   0  0  0  0  0  0  0  0  0  0  0  0
    9.1970    1.1920   -0.2820 C   0  0  0  0  0  0  0  0  0  0  0  0
    8.9000    1.6950    0.9020 C   0  0  0  0  0  0  0  0  0  0  0  0
    7.6340    1.8460    1.3370 C   0  0  0  0  0  0  0  0  0  0  0  0
    7.0050    2.3340    2.5050 C   0  0  0  0  0  0  0  0  0  0  0  0
    5.7490    2.3840    2.7120 N   0  0  0  0  0  0  0  0  0  0  0  0
    4.7450    1.9570    1.8050 C   0  0  0  0  0  0  0  0  0  0  0  0
    4.3870    0.6200    1.6880 C   0  0  0  0  0  0  0  0  0  0  0  0
    3.4000    0.2130    0.7960 C   0  0  0  0  0  0  0  0  0  0  0  0
    2.7760    1.1700    0.0230 C   0  0  0  0  0  0  0  0  0  0  0  0
    1.7240    0.8240   -0.9360 C   0  0  0  0  0  0  0  0  0  0  0  0
    0.3780    1.0820   -0.4660 N   0  0  0  0  0  0  0  0  0  0  0  0
   -0.6110    0.7380   -1.4120 C   0  0  0  0  0  0  0  0  0  0  0  0
   -1.4900   -0.4260   -1.0550 C   0  0  0  0  0  0  0  0  0  0  0  0
   -2.0060   -0.2500    0.2630 N   0  0  0  0  0  0  0  0  0  0  0  0
   -3.3250   -0.6920    0.5560 C   0  0  0  0  0  0  0  0  0  0  0  0
   -3.5100   -1.7570    1.5120 N   0  0  0  0  0  0  0  0  0  0  0  0
   -4.3880   -2.8370    1.3330 C   0  0  0  0  0  0  0  0  0  0  0  0
   -4.7190   -3.6380    2.3980 C   0  0  0  0  0  0  0  0  0  0  0  0
   -5.5720   -4.7220    2.2380 C   0  0  0  0  0  0  0  0  0  0  0  0
   -6.1090   -5.0220    1.0050 C   0  0  0  0  0  0  0  0  0  0  0  0
   -6.9370   -6.0970    0.9230 F   0  0  0  0  0  0  0  0  0  0  0  0
   -5.7840   -4.2290   -0.0650 C   0  0  0  0  0  0  0  0  0  0  0  0
   -6.3140   -4.5290   -1.2680 F   0  0  0  0  0  0  0  0  0  0  0  0
   -4.9250   -3.1430    0.1130 C   0  0  0  0  0  0  0  0  0  0  0  0
   -4.3950   -0.1930    0.0350 N   0  0  0  0  0  0  0  0  0  0  0  0
   -4.3860    0.8660   -0.9000 C   0  0  0  0  0  0  0  0  0  0  0  0
   -3.8240    2.0650   -0.5420 C   0  0  0  0  0  0  0  0  0  0  0  0
   -3.7990    3.1290   -1.4230 C   0  0  0  0  0  0  0  0  0  0  0  0
   -4.3570    2.9440   -2.6690 C   0  0  0  0  0  0  0  0  0  0  0  0
   -4.3460    3.9800   -3.5600 F   0  0  0  0  0  0  0  0  0  0  0  0
   -4.9040    1.7840   -3.0240 N   0  0  0  0  0  0  0  0  0  0  0  0
   -4.9230    0.7400   -2.1460 C   0  0  0  0  0  0  0  0  0  0  0  0
   -5.5480   -0.5430   -2.5820 C   0  0  0  0  0  0  0  0  0  0  0  0
   -1.2010    0.3520    1.2740 C   0  0  0  0  0  0  0  0  0  0  0  0
    0.2250    0.5840    0.8440 C   0  0  0  0  0  0  0  0  0  0  0  0
    3.1510    2.4640    0.1640 N   0  0  0  0  0  0  0  0  0  0  0  0
    4.0930    2.8320    1.0190 N   0  0  0  0  0  0  0  0  0  0  0  0
    6.6810    1.1900   -0.1120 S   0  0  0  0  0  0  0  0  0  0  0  0
  1  2  1  0
  2  3  2  0
  2 40  1  0
  3  4  1  0
  4  5  2  0
  5  6  1  0
  5 40  1  0
  6  7  2  3
  7  8  1  0
  8  9  2  0
  8 39  1  0
  9 10  1  0
 10 11  2  0
 11 12  1  0
 11 38  1  0
 12 13  1  0
 13 14  1  0
 13 37  1  0
 14 15  1  0
 15 16  1  0
 16 17  1  0
 16 36  1  0
 17 18  1  0
 17 27  2  3
 18 19  1  0
 19 20  2  0
 19 26  1  0
 20 21  1  0
 21 22  2  0
 22 23  1  0
 22 24  1  0
 24 25  1  0
 24 26  2  0
 27 28  1  0
 28 29  2  0
 28 34  1  0
 29 30  1  0
 30 31  2  0
 31 32  1  0
 31 33  1  0
 33 34  2  0
 34 35  1  0
 36 37  1  0
 38 39  2  0
M  CHG  1  27   1
M  END
