
     RDKit          3D

 40 44  0  0  0  0  0  0  0  0999 V2000
   -7.9900    1.1560   -1.5100 C   0  0  0  0  0  0  0  0  0  0  0  0
   -7.2540    0.4270   -0.4190 C   0  0  0  0  0  0  0  0  0  0  0  0
   -5.8590    0.8310   -0.3610 N   0  0  0  0  0  0  0  0  0  0  0  0
   -5.4680    2.1070    0.1140 C   0  0  0  0  0  0  0  0  0  0  0  0
   -6.4630    3.0470    0.3570 C   0  0  0  0  0  0  0  0  0  0  0  0
   -6.1280    4.3240    0.7050 C   0  0  0  0  0  0  0  0  0  0  0  0
   -4.8090    4.6400    0.8050 C   0  0  0  0  0  0  0  0  0  0  0  0
   -3.8060    3.7400    0.5760 C   0  0  0  0  0  0  0  0  0  0  0  0
   -4.1530    2.4200    0.2180 C   0  0  0  0  0  0  0  0  0  0  0  0
   -3.0260    1.4930    0.1380 C   0  0  0  0  0  0  0  0  0  0  0  0
   -1.7170    1.8770   -0.2260 C   0  0  0  0  0  0  0  0  0  0  0  0
   -0.9120    0.7650   -0.2680 C   0  0  0  0  0  0  0  0  0  0  0  0
   -1.7080   -0.3000    0.0670 C   0  0  0  0  0  0  0  0  0  0  0  0
   -1.2810   -1.7020    0.1530 C   0  0  0  0  0  0  0  0  0  0  0  0
   -0.0380   -1.9350   -0.1240 N   0  0  0  0  0  0  0  0  0  0  0  0
    0.6700   -3.1250   -0.1370 N   0  0  0  0  0  0  0  0  0  0  0  0
    2.0170   -3.1860   -0.2510 C   0  0  0  0  0  0  0  0  0  0  0  0
    2.8960   -1.9910   -0.3730 C   0  0  0  0  0  0  0  0  0  0  0  0
    4.1720   -2.1190   -0.4780 C   0  0  0  0  0  0  0  0  0  0  0  0
    5.0910   -1.0150   -0.6010 C   0  0  0  0  0  0  0  0  0  0  0  0
    4.7090    0.2980   -0.6200 C   0  0  0  0  0  0  0  0  0  0  0  0
    5.5360    1.3840   -0.7340 C   0  0  0  0  0  0  0  0  0  0  0  0
    6.9020    1.3660   -0.8510 C   0  0  0  0  0  0  0  0  0  0  0  0
    7.6740    0.2250   -0.8710 C   0  0  0  0  0  0  0  0  0  0  0  0
    8.9670    0.2540   -0.9830 N   0  0  0  0  0  0  0  0  0  0  0  0
    9.5840    1.5170   -1.0870 C   0  0  0  0  0  0  0  0  0  0  0  0
    9.7570    2.2490   -0.0140 C   0  0  0  0  0  0  0  0  0  0  0  0
   10.4110    3.5910   -0.1160 C   0  0  2  0  0  0  0  0  0  0  0  0
    9.4540    4.4930   -0.5250 F   0  0  0  0  0  0  0  0  0  0  0  0
   11.4670    3.5050   -1.0220 F   0  0  0  0  0  0  0  0  0  0  0  0
   10.9730    3.9150    1.0980 F   0  0  0  0  0  0  0  0  0  0  0  0
    6.8040   -1.2250   -0.7390 S   0  0  0  0  0  0  0  0  0  0  0  0
    2.3420   -4.4720   -0.2290 N   0  0  0  0  0  0  0  0  0  0  0  0
    1.2280   -5.2010   -0.1050 N   0  0  0  0  0  0  0  0  0  0  0  0
    0.1830   -4.3900   -0.0460 C   0  0  0  0  0  0  0  0  0  0  0  0
   -1.2620   -4.7440    0.0940 C   0  0  0  0  0  0  0  0  0  0  0  0
   -1.8910   -3.8850    1.0800 N   0  0  2  0  0  0  0  0  0  0  0  0
   -2.9300   -4.5430    1.8180 C   0  0  0  0  0  0  0  0  0  0  0  0
   -2.3570   -2.6440    0.5500 C   0  0  0  0  0  0  0  0  0  0  0  0
   -2.9580    0.1820    0.3020 N   0  0  0  0  0  0  0  0  0  0  0  0
  1  2  1  0
  2  3  1  0
  3  4  1  0
  4  5  2  0
  4  9  1  0
  5  6  1  0
  6  7  2  0
  7  8  1  0
  8  9  2  0
  9 10  1  0
 10 11  2  0
 10 40  1  0
 11 12  1  0
 12 13  2  0
 13 14  1  0
 13 40  1  0
 14 15  2  0
 14 39  1  0
 15 16  1  0
 16 17  1  0
 16 35  1  0
 17 18  1  0
 17 33  2  0
 18 19  2  3
 19 20  1  0
 20 21  2  0
 20 32  1  0
 21 22  1  0
 22 23  2  0
 23 24  1  0
 24 25  2  3
 24 32  1  0
 25 26  1  0
 26 27  2  3
 27 28  1  0
 28 29  1  6
 28 30  1  0
 28 31  1  0
 33 34  1  0
 34 35  2  0
 35 36  1  0
 36 37  1  0
 37 38  1  6
 37 39  1  0
M  CHG  1  37   1
M  END
