
     RDKit          3D

 40 43  0  0  0  0  0  0  0  0999 V2000
   -9.5330    4.4390    2.7680 C   0  0  0  0  0  0  0  0  0  0  0  0
   -8.3350    3.9540    2.4970 C   0  0  0  0  0  0  0  0  0  0  0  0
   -8.1530    2.7150    1.7900 C   0  0  0  0  0  0  0  0  0  0  0  0
   -6.9990    2.1710    1.4830 C   0  0  0  0  0  0  0  0  0  0  0  0
   -5.7410    2.7740    1.8340 C   0  0  0  0  0  0  0  0  0  0  0  0
   -4.5930    2.1830    1.5070 C   0  0  0  0  0  0  0  0  0  0  0  0
   -4.5180    0.9190    0.7900 C   0  0  0  0  0  0  0  0  0  0  0  0
   -3.2810    0.3140    0.4490 N   0  0  0  0  0  0  0  0  0  0  0  0
   -2.0010    0.8250    0.7510 C   0  0  0  0  0  0  0  0  0  0  0  0
   -1.8510    1.8810    1.3640 O   0  0  0  0  0  0  0  0  0  0  0  0
   -0.7800    0.1050    0.3410 C   0  0  0  0  0  0  0  0  0  0  0  0
    0.3830    0.2900    1.0160 C   0  0  0  0  0  0  0  0  0  0  0  0
    1.5270   -0.3630    0.6390 C   0  0  0  0  0  0  0  0  0  0  0  0
    1.5880   -1.2510   -0.4470 C   0  0  0  0  0  0  0  0  0  0  0  0
    2.8110   -1.8960   -0.7480 N   0  0  0  0  0  0  0  0  0  0  0  0
    3.0740   -2.5790   -1.9410 C   0  0  0  0  0  0  0  0  0  0  0  0
    2.2160   -2.6770   -2.8720 O   0  0  0  0  0  0  0  0  0  0  0  0
    4.3800   -3.2380   -2.1860 C   0  0  0  0  0  0  0  0  0  0  0  0
    5.3360   -2.9790   -1.2310 O   0  0  0  0  0  0  0  0  0  0  0  0
    5.9070   -1.7650   -0.9010 C   0  0  0  0  0  0  0  0  0  0  0  0
    5.5860   -0.5810   -1.5260 C   0  0  0  0  0  0  0  0  0  0  0  0
    6.1810    0.6220   -1.1710 C   0  0  0  0  0  0  0  0  0  0  0  0
    7.1270    0.6920   -0.1710 C   0  0  0  0  0  0  0  0  0  0  0  0
    7.4630   -0.4890    0.4710 C   0  0  0  0  0  0  0  0  0  0  0  0
    6.8690   -1.6800    0.1130 C   0  0  0  0  0  0  0  0  0  0  0  0
    7.1920   -2.8550    0.7390 O   0  0  0  0  0  0  0  0  0  0  0  0
    8.1560   -2.8380    1.7720 C   0  0  0  0  0  0  0  0  0  0  0  0
    7.7950    1.9450    0.2460 C   0  0  0  0  0  0  0  0  0  0  0  0
    7.3510    3.1120   -0.5820 C   0  0  0  0  0  0  0  0  0  0  0  0
    5.9200    2.9880   -0.9980 C   0  0  0  0  0  0  0  0  0  0  0  0
    5.8380    1.8130   -1.8200 O   0  0  0  0  0  0  0  0  0  0  0  0
    0.4140   -1.4280   -1.1170 C   0  0  0  0  0  0  0  0  0  0  0  0
   -0.7620   -0.7570   -0.7290 C   0  0  0  0  0  0  0  0  0  0  0  0
   -5.6420    0.2590    0.4070 C   0  0  0  0  0  0  0  0  0  0  0  0
   -5.5760   -0.9970   -0.3040 C   0  0  0  0  0  0  0  0  0  0  0  0
   -6.6430   -1.6620   -0.6880 C   0  0  0  0  0  0  0  0  0  0  0  0
   -6.4720   -2.9760   -1.4310 C   0  0  0  0  0  0  0  0  0  0  0  0
   -7.1010   -2.8970   -2.7790 C   0  0  0  0  0  0  0  0  0  0  0  0
   -6.9100    0.8850    0.7540 C   0  0  0  0  0  0  0  0  0  0  0  0
   -8.0260    0.3770    0.4590 O   0  0  0  0  0  0  0  0  0  0  0  0
  1  2  2  0
  2  3  1  0
  3  4  2  3
  4  5  1  0
  4 39  1  0
  5  6  2  0
  6  7  1  0
  7  8  1  0
  7 34  2  0
  8  9  1  0
  9 10  2  0
  9 11  1  0
 11 12  2  0
 11 33  1  0
 12 13  1  0
 13 14  2  0
 14 15  1  0
 14 32  1  0
 15 16  1  0
 16 17  2  0
 16 18  1  0
 18 19  1  0
 19 20  1  0
 20 21  2  0
 20 25  1  0
 21 22  1  0
 22 23  2  0
 22 31  1  0
 23 24  1  0
 23 28  1  0
 24 25  2  0
 25 26  1  0
 26 27  1  0
 28 29  1  0
 29 30  1  0
 30 31  1  0
 32 33  2  0
 34 35  1  0
 34 39  1  0
 35 36  2  3
 36 37  1  0
 37 38  1  0
 39 40  2  0
M  END
