
     RDKit          3D

 18 20  0  0  0  0  0  0  0  0999 V2000
    3.4350    1.2360   -1.3670 N   0  0  0  0  0  0  0  0  0  0  0  0
    3.1380    0.3210   -0.5150 C   0  0  0  0  0  0  0  0  0  0  0  0
    4.2020   -0.5570    0.0740 C   0  0  0  0  0  0  0  0  0  0  0  0
    3.9350   -0.6180    1.5500 C   0  0  0  0  0  0  0  0  0  0  0  0
    4.8430   -0.5020    2.4030 O   0  0  0  0  0  0  0  0  0  0  0  0
    2.5940   -0.8130    1.9390 N   0  0  0  0  0  0  0  0  0  0  0  0
    1.5080   -0.4340    1.0850 C   0  0  0  0  0  0  0  0  0  0  0  0
    0.1790   -0.5240    1.2420 N   0  0  0  0  0  0  0  0  0  0  0  0
   -0.4330   -0.0200    0.1270 C   0  0  0  0  0  0  0  0  0  0  0  0
   -1.9010    0.0510   -0.0670 C   0  0  0  0  0  0  0  0  0  0  0  0
   -2.4540    0.5250   -1.1470 C   0  0  0  0  0  0  0  0  0  0  0  0
   -3.8720    0.6140   -1.3790 N   0  0  0  0  0  0  0  0  0  0  0  0
   -4.6230    0.1850   -0.4350 C   0  0  0  0  0  0  0  0  0  0  0  0
   -4.1750   -0.3780    0.8410 C   0  0  0  0  0  0  0  0  0  0  0  0
   -2.7170   -0.4550    1.0510 C   0  0  0  0  0  0  0  0  0  0  0  0
    0.5780    0.3690   -0.6900 C   0  0  0  0  0  0  0  0  0  0  0  0
    0.4780    0.9610   -1.9740 N   0  0  0  0  0  0  0  0  0  0  0  0
    1.7910    0.1170   -0.1070 N   0  0  0  0  0  0  0  0  0  0  0  0
  1  2  2  0
  2  3  1  0
  2 18  1  0
  3  4  1  0
  4  5  2  0
  4  6  1  0
  6  7  1  0
  7  8  2  0
  7 18  1  0
  8  9  1  0
  9 10  1  0
  9 16  2  0
 10 11  2  0
 10 15  1  0
 11 12  1  0
 12 13  2  0
 13 14  1  0
 14 15  1  0
 16 17  1  0
 16 18  1  0
M  END
