
     RDKit          3D

 18 20  0  0  0  0  0  0  0  0999 V2000
   -0.2070    3.1630   -1.7510 N   0  0  0  0  0  0  0  0  0  0  0  0
   -0.8550    1.9550   -1.3070 C   0  0  0  0  0  0  0  0  0  0  0  0
   -2.0900    1.7080   -1.2360 N   0  0  0  0  0  0  0  0  0  0  0  0
   -2.3210    0.3970   -0.7460 C   0  0  0  0  0  0  0  0  0  0  0  0
   -1.1820   -0.2120   -0.4960 C   0  0  0  0  0  0  0  0  0  0  0  0
   -1.1630   -1.5780    0.0190 C   0  0  0  0  0  0  0  0  0  0  0  0
    0.0520   -2.2440    0.2910 O   0  0  0  0  0  0  0  0  0  0  0  0
   -2.2930   -2.2120    0.2370 C   0  0  0  0  0  0  0  0  0  0  0  0
   -3.5980   -1.6230   -0.0080 C   0  0  0  0  0  0  0  0  0  0  0  0
   -3.5620   -0.2950   -0.5070 N   0  0  0  0  0  0  0  0  0  0  0  0
   -0.0930    0.7630   -0.8410 C   0  0  2  0  0  0  0  0  0  0  0  0
    0.7260    1.1060    0.2930 N   0  0  0  0  0  0  0  0  0  0  0  0
    1.9570    0.5140    0.6370 C   0  0  0  0  0  0  0  0  0  0  0  0
    2.5350   -0.4420   -0.1650 C   0  0  0  0  0  0  0  0  0  0  0  0
    3.7070   -0.9900    0.1840 N   0  0  0  0  0  0  0  0  0  0  0  0
    4.3120   -0.6020    1.3200 C   0  0  0  0  0  0  0  0  0  0  0  0
    3.7460    0.3590    2.1440 C   0  0  0  0  0  0  0  0  0  0  0  0
    2.5780    0.8940    1.7770 N   0  0  0  0  0  0  0  0  0  0  0  0
  1  2  1  0
  2  3  2  0
  2 11  1  0
  3  4  1  0
  4  5  2  0
  4 10  1  0
  5  6  1  0
  5 11  1  0
  6  7  1  0
  6  8  2  0
  8  9  1  0
  9 10  1  0
 11 12  1  1
 12 13  1  0
 13 14  2  0
 13 18  1  0
 14 15  1  0
 15 16  2  0
 16 17  1  0
 17 18  2  0
M  END
