
     RDKit          3D

 18 19  0  0  0  0  0  0  0  0999 V2000
    0.9570    2.4230   -0.5450 C   0  0  0  0  0  0  0  0  0  0  0  0
    0.7350    1.0490   -0.2350 N   0  0  0  0  0  0  0  0  0  0  0  0
    1.9050    0.2700   -0.0350 C   0  0  0  0  0  0  0  0  0  0  0  0
    3.1100    1.0800    0.1150 C   0  0  0  0  0  0  0  0  0  0  0  0
    4.2440    0.4480    0.3040 C   0  0  0  0  0  0  0  0  0  0  0  0
    4.3020   -0.9690    0.3620 N   0  0  0  0  0  0  0  0  0  0  0  0
    2.0270   -1.0130    0.0280 N   0  0  0  0  0  0  0  0  0  0  0  0
    1.0690   -2.0450   -0.0780 C   0  0  0  0  0  0  0  0  0  0  0  0
   -0.2720   -1.9670   -0.1300 C   0  0  0  0  0  0  0  0  0  0  0  0
   -1.1060   -0.7770   -0.0890 C   0  0  0  0  0  0  0  0  0  0  0  0
   -2.3320   -1.2120    0.0220 C   0  0  0  0  0  0  0  0  0  0  0  0
   -2.4830   -2.6140    0.0680 N   0  0  0  0  0  0  0  0  0  0  0  0
   -3.5120   -0.4070    0.0970 N   0  0  0  0  0  0  0  0  0  0  0  0
   -3.6950    0.9580    0.5170 C   0  0  0  0  0  0  0  0  0  0  0  0
   -2.6790    1.8630   -0.1140 C   0  0  0  0  0  0  0  0  0  0  0  0
   -3.1730    2.8780   -0.6650 O   0  0  0  0  0  0  0  0  0  0  0  0
   -1.2680    1.7340   -0.1710 N   0  0  0  0  0  0  0  0  0  0  0  0
   -0.6280    0.6170   -0.1600 C   0  0  0  0  0  0  0  0  0  0  0  0
  1  2  1  0
  2  3  1  0
  2 18  1  0
  3  4  1  0
  3  7  2  0
  4  5  2  3
  5  6  1  0
  7  8  1  0
  8  9  2  0
  9 10  1  0
 10 11  2  0
 10 18  1  0
 11 12  1  0
 11 13  1  0
 13 14  1  0
 14 15  1  0
 15 16  2  0
 15 17  1  0
 17 18  2  0
M  END
