
     RDKit          3D

 18 20  0  0  0  0  0  0  0  0999 V2000
    5.9010    0.0430   -0.1280 C   0  0  0  0  0  0  0  0  0  0  0  0
    4.7930    0.8530    0.2140 O   0  0  0  0  0  0  0  0  0  0  0  0
    3.4960    0.3520   -0.0070 C   0  0  0  0  0  0  0  0  0  0  0  0
    2.4000    1.1220    0.3180 C   0  0  0  0  0  0  0  0  0  0  0  0
    1.1480    0.6300    0.1010 C   0  0  0  0  0  0  0  0  0  0  0  0
    0.9430   -0.6270   -0.4400 C   0  0  0  0  0  0  0  0  0  0  0  0
    2.0570   -1.3760   -0.7560 C   0  0  0  0  0  0  0  0  0  0  0  0
    3.2830   -0.8660   -0.5310 N   0  0  0  0  0  0  0  0  0  0  0  0
   -0.3930   -1.1000   -0.6490 N   0  0  0  0  0  0  0  0  0  0  0  0
   -1.4260   -0.4110   -0.3590 C   0  0  0  0  0  0  0  0  0  0  0  0
   -1.2550    0.9150    0.2120 C   0  0  0  0  0  0  0  0  0  0  0  0
   -2.3200    1.5910    0.4970 N   0  0  0  0  0  0  0  0  0  0  0  0
   -3.6350    1.0920    0.2760 C   0  0  0  0  0  0  0  0  0  0  0  0
   -4.7260    1.9290    0.6300 N   0  0  0  0  0  0  0  0  0  0  0  0
   -3.8360   -0.1270   -0.2480 C   0  0  0  0  0  0  0  0  0  0  0  0
   -2.7230   -0.9410   -0.5930 N   0  0  0  0  0  0  0  0  0  0  0  0
   -2.9630   -2.2510   -1.1560 C   0  0  0  0  0  0  0  0  0  0  0  0
    0.0320    1.4680    0.4550 N   0  0  0  0  0  0  0  0  0  0  0  0
  1  2  1  0
  2  3  1  0
  3  4  2  0
  3  8  1  0
  4  5  1  0
  5  6  2  0
  5 18  1  0
  6  7  1  0
  6  9  1  0
  7  8  2  0
  9 10  2  0
 10 11  1  0
 10 16  1  0
 11 12  2  0
 11 18  1  0
 12 13  1  0
 13 14  1  0
 13 15  2  0
 15 16  1  0
 16 17  1  0
M  END
