
     RDKit          3D

 18 20  0  0  0  0  0  0  0  0999 V2000
   -5.6820   -0.4140    0.0220 N   0  0  0  0  0  0  0  0  0  0  0  0
   -4.2710   -0.1870    0.0440 C   0  0  0  0  0  0  0  0  0  0  0  0
   -3.4210   -1.2740   -0.0420 C   0  0  0  0  0  0  0  0  0  0  0  0
   -2.0480   -1.0300   -0.0190 C   0  0  0  0  0  0  0  0  0  0  0  0
   -1.5510    0.2420    0.0850 C   0  0  0  0  0  0  0  0  0  0  0  0
   -0.1180    0.4540    0.1060 C   0  0  0  0  0  0  0  0  0  0  0  0
    0.8480   -0.5330    0.0290 C   0  0  0  0  0  0  0  0  0  0  0  0
    2.0780    0.0800    0.0810 C   0  0  0  0  0  0  0  0  0  0  0  0
    3.3490   -0.5530    0.0330 N   0  0  0  0  0  0  0  0  0  0  0  0
    4.6190    0.1460    0.0930 C   0  0  0  0  0  0  0  0  0  0  0  0
    5.5050   -0.9180    0.7340 C   0  0  0  0  0  0  0  0  0  0  0  0
    4.8430   -2.1320    0.3050 N   0  0  0  0  0  0  0  0  0  0  0  0
    3.6600   -1.9040   -0.0750 N   0  0  0  0  0  0  0  0  0  0  0  0
    1.8140    1.3890    0.1860 N   0  0  0  0  0  0  0  0  0  0  0  0
    0.5390    1.6190    0.2020 N   0  0  0  0  0  0  0  0  0  0  0  0
   -2.4290    1.2930    0.1680 C   0  0  0  0  0  0  0  0  0  0  0  0
   -3.8110    1.0910    0.1480 C   0  0  0  0  0  0  0  0  0  0  0  0
   -4.6840    2.1690    0.2330 O   0  0  0  0  0  0  0  0  0  0  0  0
  1  2  1  0
  2  3  2  0
  2 17  1  0
  3  4  1  0
  4  5  2  0
  5  6  1  0
  5 16  1  0
  6  7  1  0
  6 15  2  0
  7  8  2  0
  8  9  1  0
  8 14  1  0
  9 10  1  0
  9 13  1  0
 10 11  1  0
 11 12  1  0
 12 13  2  0
 14 15  1  0
 16 17  2  0
 17 18  1  0
M  END
