
     RDKit          3D

 18 20  0  0  0  0  0  0  0  0999 V2000
   -3.8710    1.2180    1.8970 O   0  0  0  0  0  0  0  0  0  0  0  0
   -3.9590    0.4910    0.7200 C   0  0  0  0  0  0  0  0  0  0  0  0
   -3.0360   -0.6280    0.7550 N   0  0  0  0  0  0  0  0  0  0  0  0
   -3.1390   -1.3750   -0.4760 C   0  0  0  0  0  0  0  0  0  0  0  0
   -1.9010   -1.2890   -1.3230 C   0  0  0  0  0  0  0  0  0  0  0  0
   -1.4610    0.1450   -1.4260 C   0  0  0  0  0  0  0  0  0  0  0  0
   -1.1830    0.7130   -0.0540 C   0  0  2  0  0  0  0  0  0  0  0  0
    0.2690    0.9570    0.1200 C   0  0  0  0  0  0  0  0  0  0  0  0
    0.8440    2.1500    0.3520 N   0  0  0  0  0  0  0  0  0  0  0  0
    2.1330    1.9790    0.4490 N   0  0  0  0  0  0  0  0  0  0  0  0
    2.4480    0.6840    0.2850 C   0  0  0  0  0  0  0  0  0  0  0  0
    3.7900    0.1000    0.3250 C   0  0  0  0  0  0  0  0  0  0  0  0
    4.9380    0.7560    0.5310 N   0  0  0  0  0  0  0  0  0  0  0  0
    5.9830   -0.0900    0.5040 C   0  0  0  0  0  0  0  0  0  0  0  0
    5.4660   -1.3500    0.2660 C   0  0  0  0  0  0  0  0  0  0  0  0
    4.1360   -1.1870    0.1650 N   0  0  0  0  0  0  0  0  0  0  0  0
    1.2720    0.0640    0.0810 N   0  0  0  0  0  0  0  0  0  0  0  0
   -1.6850   -0.2100    1.0380 C   0  0  0  0  0  0  0  0  0  0  0  0
  1  2  1  0
  2  3  1  0
  3  4  1  0
  3 18  1  0
  4  5  1  0
  5  6  1  0
  6  7  1  0
  7  8  1  1
  7 18  1  0
  8  9  2  0
  8 17  1  0
  9 10  1  0
 10 11  1  0
 11 12  1  0
 11 17  2  0
 12 13  2  0
 12 16  1  0
 13 14  1  0
 14 15  2  0
 15 16  1  0
M  END
