
     RDKit          3D

 18 20  0  0  0  0  0  0  0  0999 V2000
   -4.3990   -1.1730   -0.1870 C   0  0  0  0  0  0  0  0  0  0  0  0
   -3.9750    0.2540   -0.0170 C   0  0  0  0  0  0  0  0  0  0  0  0
   -2.4960    0.3470    0.0280 C   0  0  0  0  0  0  0  0  0  0  0  0
   -1.6500   -0.6950   -0.0690 N   0  0  0  0  0  0  0  0  0  0  0  0
   -0.3900   -0.2970    0.0050 N   0  0  0  0  0  0  0  0  0  0  0  0
    0.7640   -0.9840   -0.0450 C   0  0  0  0  0  0  0  0  0  0  0  0
    0.7390   -2.4590   -0.2120 C   0  0  0  0  0  0  0  0  0  0  0  0
    1.9660   -0.3150    0.0580 C   0  0  0  0  0  0  0  0  0  0  0  0
    1.9510    1.0640    0.2120 C   0  0  0  0  0  0  0  0  0  0  0  0
    0.7690    1.7150    0.2580 N   0  0  0  0  0  0  0  0  0  0  0  0
   -0.4000    1.0560    0.1570 C   0  0  0  0  0  0  0  0  0  0  0  0
   -1.7140    1.4710    0.1730 C   0  0  0  0  0  0  0  0  0  0  0  0
   -2.1970    2.7910    0.3100 N   0  0  0  0  0  0  0  0  0  0  0  0
    3.1870    1.7590    0.3190 N   0  0  0  0  0  0  0  0  0  0  0  0
    4.4230    1.1580   -0.0780 C   0  0  0  0  0  0  0  0  0  0  0  0
    4.4090   -0.2600    0.1210 O   0  0  0  0  0  0  0  0  0  0  0  0
    3.2520   -1.0040    0.0100 C   0  0  0  0  0  0  0  0  0  0  0  0
    3.2810   -2.2870   -0.1330 N   0  0  0  0  0  0  0  0  0  0  0  0
  1  2  1  0
  2  3  1  0
  3  4  2  0
  3 12  1  0
  4  5  1  0
  5  6  1  0
  5 11  1  0
  6  7  1  0
  6  8  2  0
  8  9  1  0
  8 17  1  0
  9 10  2  0
  9 14  1  0
 10 11  1  0
 11 12  2  0
 12 13  1  0
 14 15  1  0
 15 16  1  0
 16 17  1  0
 17 18  2  0
M  END
