
     RDKit          3D

 21 22  0  0  0  0  0  0  0  0999 V2000
   -6.2040   -0.1270    0.4900 N   0  0  0  0  0  0  0  0  0  0  0  0
   -5.0220    0.3340   -0.1710 C   0  0  0  0  0  0  0  0  0  0  0  0
   -5.0480    1.3350   -0.9520 O   0  0  0  0  0  0  0  0  0  0  0  0
   -3.8750   -0.3320    0.0340 O   0  0  0  0  0  0  0  0  0  0  0  0
   -2.6990    0.1160   -0.6770 C   0  0  2  0  0  0  0  0  0  0  0  0
   -1.6750   -0.8960   -0.5750 C   0  0  0  0  0  0  0  0  0  0  0  0
   -0.4210   -0.1740   -0.1560 C   0  0  2  0  0  0  0  0  0  0  0  0
    0.6940   -1.0100    0.0910 C   0  0  1  0  0  0  0  0  0  0  0  0
    1.5160   -0.8970   -1.1170 O   0  0  0  0  0  0  0  0  0  0  0  0
    2.4540    0.0480   -0.9470 C   0  0  0  0  0  0  0  0  0  0  0  0
    3.7930   -0.3190   -1.5130 C   0  0  0  0  0  0  0  0  0  0  0  0
    4.6280    0.8100   -1.1530 O   0  0  0  0  0  0  0  0  0  0  0  0
    5.4980    0.4030   -0.4350 O   0  0  0  0  0  0  0  0  0  0  0  0
    6.4700   -0.1090   -0.0680 O   0  0  0  0  0  0  0  0  0  0  0  0
    1.5460   -0.6270    1.3310 C   0  0  0  0  0  0  0  0  0  0  0  0
    1.0670    0.3870    2.0980 O   0  0  0  0  0  0  0  0  0  0  0  0
   -0.2170    0.8920    2.1140 C   0  0  0  0  0  0  0  0  0  0  0  0
   -0.7630    1.5030    3.0460 O   0  0  0  0  0  0  0  0  0  0  0  0
   -0.9420    0.6790    0.8890 N   0  0  0  0  0  0  0  0  0  0  0  0
   -2.1600    1.1620    0.4120 C   0  0  0  0  0  0  0  0  0  0  0  0
   -2.7580    2.1900    0.7520 O   0  0  0  0  0  0  0  0  0  0  0  0
  1  2  1  0
  2  3  2  0
  2  4  1  0
  5  4  1  1
  5  6  1  0
  5 20  1  0
  7  6  1  1
  7  8  1  0
  7 19  1  0
  8  9  1  6
  8 15  1  0
  9 10  1  0
 10 11  1  0
 11 12  1  0
 12 13  1  0
 13 14  1  0
 15 16  1  0
 16 17  1  0
 17 18  2  0
 17 19  1  0
 19 20  1  0
 20 21  2  0
M  END
