
     RDKit          3D

 21 21  0  0  0  0  0  0  0  0999 V2000
    1.6570    3.0680    1.3940 O   0  0  0  0  0  0  0  0  0  0  0  0
    1.0530    2.2500    0.6510 C   0  0  0  0  0  0  0  0  0  0  0  0
    0.0060    2.7740   -0.1480 N   0  0  0  0  0  0  0  0  0  0  0  0
   -1.1660    2.0090   -0.5320 C   0  0  0  0  0  0  0  0  0  0  0  0
   -2.2100    2.0200    0.5630 C   0  0  0  0  0  0  0  0  0  0  0  0
   -3.4820    1.7270    0.0260 O   0  0  0  0  0  0  0  0  0  0  0  0
   -4.0750    0.4810    0.0100 C   0  0  0  0  0  0  0  0  0  0  0  0
   -5.2610    0.2910    0.3710 O   0  0  0  0  0  0  0  0  0  0  0  0
   -3.2820   -0.6800   -0.4510 C   0  0  0  0  0  0  0  0  0  0  0  0
   -2.3310   -1.0430    0.5220 O   0  0  0  0  0  0  0  0  0  0  0  0
   -1.5470   -2.1590    0.4320 C   0  0  0  0  0  0  0  0  0  0  0  0
   -1.3250   -2.9430    1.4180 O   0  0  0  0  0  0  0  0  0  0  0  0
   -0.9020   -2.5190   -0.8570 C   0  0  0  0  0  0  0  0  0  0  0  0
    0.0360   -1.5680   -1.2550 O   0  0  0  0  0  0  0  0  0  0  0  0
    0.8260   -1.2670   -0.1490 C   0  0  0  0  0  0  0  0  0  0  0  0
    1.6040    0.0180   -0.4500 C   0  0  2  0  0  0  0  0  0  0  0  0
    3.0670   -0.4210   -0.6170 C   0  0  0  0  0  0  0  0  0  0  0  0
    3.4290   -1.0810    0.5440 O   0  0  0  0  0  0  0  0  0  0  0  0
    4.6850   -1.4580    0.3990 O   0  0  0  0  0  0  0  0  0  0  0  0
    5.4300   -0.3990    0.6050 O   0  0  0  0  0  0  0  0  0  0  0  0
    1.4850    0.9010    0.6950 N   0  0  0  0  0  0  0  0  0  0  0  0
  1  2  2  0
  2  3  1  0
  2 21  1  0
  3  4  1  0
  4  5  1  0
  5  6  1  0
  6  7  1  0
  7  8  2  0
  7  9  1  0
  9 10  1  0
 10 11  1  0
 11 12  2  0
 11 13  1  0
 13 14  1  0
 14 15  1  0
 15 16  1  0
 16 17  1  1
 16 21  1  0
 17 18  1  0
 18 19  1  0
 19 20  1  0
M  END
