
     RDKit          3D

 21 22  0  0  0  0  0  0  0  0999 V2000
   -0.2210   -0.9180   -0.3580 O   0  0  0  0  0  0  0  0  0  0  0  0
   -0.6670    0.2470   -0.3740 C   0  0  0  0  0  0  0  0  0  0  0  0
    0.2910    1.2750   -0.6280 N   0  0  0  0  0  0  0  0  0  0  0  0
    1.6780    1.0320   -0.8530 C   0  0  0  0  0  0  0  0  0  0  0  0
    2.3750    0.3430    0.3170 C   0  0  0  0  0  0  0  0  0  0  0  0
    3.7050    0.1850   -0.0670 O   0  0  0  0  0  0  0  0  0  0  0  0
    4.6660   -0.5780    1.1240 P   0  0  0  0  0  0  0  0  0  0  0  0
    4.5320   -2.2930    1.1320 O   0  0  0  0  0  0  0  0  0  0  0  0
    6.4010    0.0220    1.1650 C   0  0  0  0  0  0  0  0  0  0  0  0
    6.6100    1.0570    2.0480 O   0  0  0  0  0  0  0  0  0  0  0  0
   -2.0820    0.5170   -0.1460 C   0  0  1  0  0  0  0  0  0  0  0  0
   -2.6280    1.2360   -1.4000 C   0  0  0  0  0  0  0  0  0  0  0  0
   -3.9310    0.7610   -1.6210 O   0  0  0  0  0  0  0  0  0  0  0  0
   -4.6700    0.7240   -0.5600 O   0  0  0  0  0  0  0  0  0  0  0  0
   -4.3410   -0.2670    0.3560 C   0  0  1  0  0  0  0  0  0  0  0  0
   -4.4400    0.2530    1.6270 O   0  0  0  0  0  0  0  0  0  0  0  0
   -5.0960   -1.5440    0.1940 C   0  0  0  0  0  0  0  0  0  0  0  0
   -4.1030   -2.4970    0.6130 O   0  0  0  0  0  0  0  0  0  0  0  0
   -2.9160   -2.0160    0.0120 C   0  0  0  0  0  0  0  0  0  0  0  0
   -1.9940   -2.7340   -0.4670 O   0  0  0  0  0  0  0  0  0  0  0  0
   -2.9370   -0.6130    0.0370 N   0  0  0  0  0  0  0  0  0  0  0  0
  1  2  2  0
  2  3  1  0
 11  2  1  6
  3  4  1  0
  4  5  1  0
  5  6  1  0
  6  7  1  0
  7  8  1  0
  7  9  1  0
  9 10  1  0
 11 12  1  0
 11 21  1  0
 12 13  1  0
 13 14  1  0
 14 15  1  0
 15 16  1  1
 15 17  1  0
 15 21  1  0
 17 18  1  0
 18 19  1  0
 19 20  2  0
 19 21  1  0
M  END
