
     RDKit          3D

 13 12  0  0  0  0  0  0  0  0999 V2000
    5.2330    1.0470    0.9070 O   0  0  0  0  0  0  0  0  0  0  0  0
    4.8640    0.1290    0.1420 C   0  0  0  0  0  0  0  0  0  0  0  0
    3.5240   -0.2230    0.0070 O   0  0  0  0  0  0  0  0  0  0  0  0
    2.5370    0.4400    0.7250 C   0  0  0  0  0  0  0  0  0  0  0  0
    2.8890    1.3630    1.4980 O   0  0  0  0  0  0  0  0  0  0  0  0
    1.0920    0.1060    0.6200 C   0  0  0  0  0  0  0  0  0  0  0  0
    0.9730   -0.9330   -0.2860 O   0  0  0  0  0  0  0  0  0  0  0  0
   -0.3540   -1.3330   -0.4650 C   0  0  0  0  0  0  0  0  0  0  0  0
   -1.4340    0.0130   -1.0930 P   0  0  0  0  0  0  0  0  0  0  0  0
   -0.6260    1.1280   -2.1100 O   0  0  0  0  0  0  0  0  0  0  0  0
   -2.4010    0.7410    0.1150 O   0  0  0  0  0  0  0  0  0  0  0  0
   -3.6650    0.1100    0.0840 C   0  0  0  0  0  0  0  0  0  0  0  0
   -4.4520    0.6940    1.0590 O   0  0  0  0  0  0  0  0  0  0  0  0
  1  2  2  0
  2  3  1  0
  3  4  1  0
  4  5  2  0
  4  6  1  0
  6  7  1  0
  7  8  1  0
  8  9  1  0
  9 10  1  0
  9 11  1  0
 11 12  1  0
 12 13  1  0
M  END
