
     RDKit          3D

 21 23  0  0  0  0  0  0  0  0999 V2000
    4.4040    1.6930   -1.3430 O   0  0  0  0  0  0  0  0  0  0  0  0
    4.8580    1.6800   -0.1750 C   0  0  0  0  0  0  0  0  0  0  0  0
    6.2130    1.8430    0.0500 O   0  0  0  0  0  0  0  0  0  0  0  0
    3.9350    1.4950    0.8650 O   0  0  0  0  0  0  0  0  0  0  0  0
    2.6150    1.3390    0.6090 O   0  0  0  0  0  0  0  0  0  0  0  0
    1.9920    0.1520    0.9380 C   0  0  0  0  0  0  0  0  0  0  0  0
    2.6870   -0.7400    1.4680 O   0  0  0  0  0  0  0  0  0  0  0  0
    0.5890   -0.1110    0.7050 C   0  0  0  0  0  0  0  0  0  0  0  0
    0.0770   -1.2630    1.0480 N   0  0  0  0  0  0  0  0  0  0  0  0
   -1.3100   -1.5350    0.8500 C   0  0  0  0  0  0  0  0  0  0  0  0
   -2.0700   -2.5420    1.2400 C   0  0  0  0  0  0  0  0  0  0  0  0
   -3.4080   -2.2850    0.8360 O   0  0  0  0  0  0  0  0  0  0  0  0
   -3.4260   -1.0070    0.1970 C   0  0  0  0  0  0  0  0  0  0  0  0
   -4.4900   -0.3740    0.0620 O   0  0  0  0  0  0  0  0  0  0  0  0
   -2.0400   -0.8020   -0.1420 C   0  0  2  0  0  0  0  0  0  0  0  0
   -2.0630   -1.2210   -1.5680 O   0  0  0  0  0  0  0  0  0  0  0  0
   -2.9470   -0.1550   -2.0430 C   0  0  0  0  0  0  0  0  0  0  0  0
   -3.8410   -0.2390   -2.8820 O   0  0  0  0  0  0  0  0  0  0  0  0
   -2.5120    1.0290   -1.2880 N   0  0  0  0  0  0  0  0  0  0  0  0
   -1.4390    0.4820   -0.5040 C   0  0  0  0  0  0  0  0  0  0  0  0
   -0.2360    0.7820   -0.1070 C   0  0  0  0  0  0  0  0  0  0  0  0
  1  2  2  0
  2  3  1  0
  2  4  1  0
  4  5  1  0
  5  6  1  0
  6  7  2  0
  6  8  1  0
  8  9  2  0
  8 21  1  0
  9 10  1  0
 10 11  2  0
 10 15  1  0
 11 12  1  0
 12 13  1  0
 13 14  2  0
 13 15  1  0
 15 16  1  6
 15 20  1  0
 16 17  1  0
 17 18  2  0
 17 19  1  0
 19 20  1  0
 20 21  2  0
M  END
