
     RDKit          3D

 21 21  0  0  0  0  0  0  0  0999 V2000
    1.7190   -2.9930   -0.3810 C   0  0  0  0  0  0  0  0  0  0  0  0
    1.5770   -1.6530    0.2540 C   0  0  2  0  0  0  0  0  0  0  0  0
    0.5440   -0.8670   -0.2610 O   0  0  0  0  0  0  0  0  0  0  0  0
   -0.5000   -0.3520    0.5430 C   0  0  0  0  0  0  0  0  0  0  0  0
   -0.4010   -0.6700    1.7380 O   0  0  0  0  0  0  0  0  0  0  0  0
   -1.5060    0.4340   -0.0560 N   0  0  0  0  0  0  0  0  0  0  0  0
   -1.4180    0.6470   -1.5140 C   0  0  0  0  0  0  0  0  0  0  0  0
   -2.8150    0.4780   -2.0950 C   0  0  0  0  0  0  0  0  0  0  0  0
   -3.6570   -0.2890   -1.1960 N   0  0  0  0  0  0  0  0  0  0  0  0
   -3.8010    0.1940    0.1330 C   0  0  0  0  0  0  0  0  0  0  0  0
   -4.7910   -0.0720    0.8130 O   0  0  0  0  0  0  0  0  0  0  0  0
   -2.6280    1.0390    0.5740 C   0  0  1  0  0  0  0  0  0  0  0  0
   -2.5950    1.3720    1.9640 C   0  0  0  0  0  0  0  0  0  0  0  0
   -3.6520    1.7060    2.5950 O   0  0  0  0  0  0  0  0  0  0  0  0
   -1.4450    1.3640    2.7140 O   0  0  0  0  0  0  0  0  0  0  0  0
    2.8470   -0.8790    0.0980 C   0  0  0  0  0  0  0  0  0  0  0  0
    3.9400   -1.3820    0.4940 O   0  0  0  0  0  0  0  0  0  0  0  0
    2.8840    0.3740   -0.4630 O   0  0  0  0  0  0  0  0  0  0  0  0
    4.4160    1.2340   -0.6170 P   0  0  0  0  0  0  0  0  0  0  0  0
    4.2710    2.8130    0.0980 O   0  0  0  0  0  0  0  0  0  0  0  0
    5.6600    0.3800    0.2390 O   0  0  0  0  0  0  0  0  0  0  0  0
  2  1  1  6
  2  3  1  0
  2 16  1  0
  3  4  1  0
  4  5  2  0
  4  6  1  0
  6  7  1  0
  6 12  1  0
  7  8  1  0
  8  9  1  0
  9 10  1  0
 10 11  2  0
 10 12  1  0
 12 13  1  1
 13 14  2  0
 13 15  1  0
 16 17  2  0
 16 18  1  0
 18 19  1  0
 19 20  1  0
 19 21  1  0
M  END
