
     RDKit          3D

 20 20  0  0  0  0  0  0  0  0999 V2000
    4.7520    0.9210   -1.5570 O   0  0  0  0  0  0  0  0  0  0  0  0
    4.8550   -0.3320   -1.4800 C   0  0  0  0  0  0  0  0  0  0  0  0
    5.9000   -0.9620   -2.1420 O   0  0  0  0  0  0  0  0  0  0  0  0
    3.9100   -1.0000   -0.7330 O   0  0  0  0  0  0  0  0  0  0  0  0
    2.8440   -0.4210   -0.0510 C   0  0  2  0  0  0  0  0  0  0  0  0
    2.9290   -0.5960    1.4490 C   0  0  0  0  0  0  0  0  0  0  0  0
    2.1190    0.5590    2.0560 C   0  0  1  0  0  0  0  0  0  0  0  0
    2.9150    1.6950    2.1900 O   0  0  0  0  0  0  0  0  0  0  0  0
    0.9600    0.8350    1.1550 C   0  0  0  0  0  0  0  0  0  0  0  0
    0.3830    1.9740    1.2410 O   0  0  0  0  0  0  0  0  0  0  0  0
    0.4900   -0.1260    0.2160 N   0  0  0  0  0  0  0  0  0  0  0  0
   -0.8900   -0.3460    0.0440 C   0  0  0  0  0  0  0  0  0  0  0  0
   -1.2340   -1.2060   -0.8350 O   0  0  0  0  0  0  0  0  0  0  0  0
   -1.9280    0.3020    0.7600 N   0  0  0  0  0  0  0  0  0  0  0  0
   -3.3310   -0.0040    0.4950 C   0  0  0  0  0  0  0  0  0  0  0  0
   -3.7390    0.2810   -0.9170 C   0  0  0  0  0  0  0  0  0  0  0  0
   -5.5400   -0.1640   -1.0730 P   0  0  0  0  0  0  0  0  0  0  0  0
   -5.9540   -1.4530    0.0300 O   0  0  0  0  0  0  0  0  0  0  0  0
   -6.5380    1.1990   -0.7100 O   0  0  0  0  0  0  0  0  0  0  0  0
    1.4970   -0.8570   -0.5600 C   0  0  0  0  0  0  0  0  0  0  0  0
  1  2  2  0
  2  3  1  0
  2  4  1  0
  5  4  1  6
  5  6  1  0
  5 20  1  0
  6  7  1  0
  7  8  1  6
  7  9  1  0
  9 10  2  0
  9 11  1  0
 11 12  1  0
 11 20  1  0
 12 13  2  0
 12 14  1  0
 14 15  1  0
 15 16  1  0
 16 17  1  0
 17 18  1  0
 17 19  1  0
M  END
