
     RDKit          3D

 21 21  0  0  0  0  0  0  0  0999 V2000
    4.1940    1.5770    0.6000 O   0  0  0  0  0  0  0  0  0  0  0  0
    4.8700    0.7580   -0.0450 C   0  0  0  0  0  0  0  0  0  0  0  0
    6.2430    1.0890   -0.4910 C   0  0  0  0  0  0  0  0  0  0  0  0
    6.6040    2.3860   -0.0860 O   0  0  0  0  0  0  0  0  0  0  0  0
    7.8210    2.6550   -0.4920 O   0  0  0  0  0  0  0  0  0  0  0  0
    4.3400   -0.4790   -0.3520 O   0  0  0  0  0  0  0  0  0  0  0  0
    3.0460   -0.8180    0.0570 C   0  0  0  0  0  0  0  0  0  0  0  0
    2.3660    0.0050    0.7050 O   0  0  0  0  0  0  0  0  0  0  0  0
    2.4920   -2.0480   -0.2360 O   0  0  0  0  0  0  0  0  0  0  0  0
    1.2060   -2.4300    0.1510 C   0  0  0  0  0  0  0  0  0  0  0  0
    0.2050   -1.5000   -0.4350 C   0  0  0  0  0  0  0  0  0  0  0  0
    0.5880   -0.5430   -1.1610 O   0  0  0  0  0  0  0  0  0  0  0  0
   -1.1600   -1.6470   -0.2110 O   0  0  0  0  0  0  0  0  0  0  0  0
   -2.0960   -0.7750   -0.7610 C   0  0  0  0  0  0  0  0  0  0  0  0
   -1.6700    0.1630   -1.4760 O   0  0  0  0  0  0  0  0  0  0  0  0
   -3.5550   -0.9090   -0.5370 C   0  0  1  0  0  0  0  0  0  0  0  0
   -3.7960   -1.0040    0.9280 C   0  0  0  0  0  0  0  0  0  0  0  0
   -4.1310    0.1840    1.6080 N   0  0  0  0  0  0  0  0  0  0  0  0
   -4.1510    1.3520    0.7860 C   0  0  0  0  0  0  0  0  0  0  0  0
   -5.0330    0.9890   -0.4180 C   0  0  0  0  0  0  0  0  0  0  0  0
   -4.2320    0.1230   -1.2250 N   0  0  0  0  0  0  0  0  0  0  0  0
  1  2  2  0
  2  3  1  0
  2  6  1  0
  3  4  1  0
  4  5  1  0
  6  7  1  0
  7  8  2  0
  7  9  1  0
  9 10  1  0
 10 11  1  0
 11 12  2  0
 11 13  1  0
 13 14  1  0
 14 15  2  0
 16 14  1  1
 16 17  1  0
 16 21  1  0
 17 18  1  0
 18 19  1  0
 19 20  1  0
 20 21  1  0
M  END
