
     RDKit          3D

 29 32  0  0  0  0  0  0  0  0999 V2000
    0.8840   -0.4020   -3.3080 C   0  0  0  0  0  0  0  0  0  0  0  0
    0.9640   -1.3770   -2.1460 C   0  0  0  0  0  0  0  0  0  0  0  0
    0.8650   -0.6030   -0.8880 C   0  0  0  0  0  0  0  0  0  0  0  0
   -0.3040   -0.6570   -0.1870 N   0  0  0  0  0  0  0  0  0  0  0  0
   -0.5200   -0.0130    0.9600 C   0  0  0  0  0  0  0  0  0  0  0  0
   -1.7390   -0.0830    1.6670 N   0  0  0  0  0  0  0  0  0  0  0  0
   -1.9500    0.5630    2.9750 C   0  0  0  0  0  0  0  0  0  0  0  0
   -3.3810    0.3420    3.3150 C   0  0  0  0  0  0  0  0  0  0  0  0
   -4.0190    0.0420    1.9800 C   0  0  0  0  0  0  0  0  0  0  0  0
   -2.9460   -0.7660    1.2840 C   0  0  2  0  0  0  0  0  0  0  0  0
   -2.9540   -2.1220    1.9450 C   0  0  0  0  0  0  0  0  0  0  0  0
   -1.8370   -2.9550    1.5810 N   0  0  0  0  0  0  0  0  0  0  0  0
   -3.1750   -0.9200   -0.1720 C   0  0  0  0  0  0  0  0  0  0  0  0
   -3.2890    0.3080   -0.9780 C   0  0  0  0  0  0  0  0  0  0  0  0
   -3.5110   -0.0180   -2.4520 C   0  0  0  0  0  0  0  0  0  0  0  0
   -4.6870   -0.7580   -2.6030 O   0  0  0  0  0  0  0  0  0  0  0  0
    0.5010    0.7740    1.4990 C   0  0  0  0  0  0  0  0  0  0  0  0
    1.6830    0.8280    0.7900 C   0  0  0  0  0  0  0  0  0  0  0  0
    1.9020    0.1580   -0.4000 C   0  0  0  0  0  0  0  0  0  0  0  0
    3.0400    0.1110   -1.2500 N   0  0  0  0  0  0  0  0  0  0  0  0
    4.2580    0.8180   -1.0540 C   0  0  0  0  0  0  0  0  0  0  0  0
    5.2020    0.5330   -2.0190 C   0  0  0  0  0  0  0  0  0  0  0  0
    6.4470    1.0720   -2.0660 C   0  0  0  0  0  0  0  0  0  0  0  0
    6.8120    1.9790   -1.0750 C   0  0  0  0  0  0  0  0  0  0  0  0
    5.8900    2.2970   -0.0790 C   0  0  0  0  0  0  0  0  0  0  0  0
    4.6410    1.7200   -0.0820 C   0  0  0  0  0  0  0  0  0  0  0  0
    3.8690    2.1900    1.0210 N   0  0  0  0  0  0  0  0  0  0  0  0
    2.6180    1.6900    1.5020 C   0  0  0  0  0  0  0  0  0  0  0  0
    2.2560    2.0110    2.6630 O   0  0  0  0  0  0  0  0  0  0  0  0
  1  2  1  0
  2  3  1  0
  3  4  2  0
  3 19  1  0
  4  5  1  0
  5  6  1  0
  5 17  2  0
  6  7  1  0
  6 10  1  0
  7  8  1  0
  8  9  1  0
  9 10  1  0
 10 11  1  1
 10 13  1  0
 11 12  1  0
 13 14  1  0
 14 15  1  0
 15 16  1  0
 17 18  1  0
 18 19  2  0
 18 28  1  0
 19 20  1  0
 20 21  1  0
 21 22  2  0
 21 26  1  0
 22 23  1  0
 23 24  2  0
 24 25  1  0
 25 26  2  0
 26 27  1  0
 27 28  1  0
 28 29  2  0
M  CHG  1  12   1
M  END
