
     RDKit          3D

 29 32  0  0  0  0  0  0  0  0999 V2000
   -4.8710    1.6320   -0.4100 C   0  0  0  0  0  0  0  0  0  0  0  0
   -3.5170    2.1510   -0.1950 N   0  0  0  0  0  0  0  0  0  0  0  0
   -3.2530    3.4610   -0.1000 C   0  0  0  0  0  0  0  0  0  0  0  0
   -1.9050    3.6290    0.0990 C   0  0  0  0  0  0  0  0  0  0  0  0
   -1.3840    2.3580    0.1180 C   0  0  0  0  0  0  0  0  0  0  0  0
   -2.3740    1.4240   -0.0640 C   0  0  0  0  0  0  0  0  0  0  0  0
   -2.3330   -0.0240   -0.1020 C   0  0  1  0  0  0  0  0  0  0  0  0
   -1.4320   -0.6610   -1.0350 N   0  0  0  0  0  0  0  0  0  0  0  0
   -0.1180   -0.2520   -1.0000 C   0  0  0  0  0  0  0  0  0  0  0  0
    0.9470   -1.0350   -1.6470 C   0  0  0  0  0  0  0  0  0  0  0  0
    0.8490   -2.1340   -2.3170 C   0  0  0  0  0  0  0  0  0  0  0  0
   -0.4330   -2.7210   -2.4990 N   0  0  0  0  0  0  0  0  0  0  0  0
    2.0100   -2.7880   -2.8540 N   0  0  0  0  0  0  0  0  0  0  0  0
    3.1800   -2.3380   -2.7030 C   0  0  0  0  0  0  0  0  0  0  0  0
    4.2650   -3.0380   -3.2630 O   0  0  0  0  0  0  0  0  0  0  0  0
    3.4720   -1.1150   -1.9660 C   0  0  0  0  0  0  0  0  0  0  0  0
    2.3000   -0.3880   -1.4860 C   0  0  2  0  0  0  0  0  0  0  0  0
    2.4700    0.0410   -0.0590 C   0  0  0  0  0  0  0  0  0  0  0  0
    2.4770    1.3800    0.2500 C   0  0  0  0  0  0  0  0  0  0  0  0
    2.6350    1.8050    1.5780 C   0  0  0  0  0  0  0  0  0  0  0  0
    2.7860    0.9040    2.5850 C   0  0  0  0  0  0  0  0  0  0  0  0
    2.9460    1.3700    3.9390 N   0  0  0  0  0  0  0  0  0  0  0  0
    2.7800   -0.4410    2.2870 C   0  0  0  0  0  0  0  0  0  0  0  0
    2.6220   -0.8580    0.9650 C   0  0  0  0  0  0  0  0  0  0  0  0
   -2.1130   -0.6060    1.2760 C   0  0  0  0  0  0  0  0  0  0  0  0
   -1.9820   -1.9430    1.5860 C   0  0  0  0  0  0  0  0  0  0  0  0
   -1.7950   -2.0370    2.9590 C   0  0  0  0  0  0  0  0  0  0  0  0
   -1.8180   -0.8220    3.4080 O   0  0  0  0  0  0  0  0  0  0  0  0
   -2.0020    0.0720    2.4700 C   0  0  0  0  0  0  0  0  0  0  0  0
  1  2  1  0
  2  3  1  0
  2  6  1  0
  3  4  2  0
  4  5  1  0
  5  6  2  0
  6  7  1  0
  7  8  1  6
  7 25  1  0
  8  9  1  0
  9 10  1  0
 10 11  2  0
 10 17  1  0
 11 12  1  0
 11 13  1  0
 13 14  2  0
 14 15  1  0
 14 16  1  0
 16 17  1  0
 17 18  1  1
 18 19  2  0
 18 24  1  0
 19 20  1  0
 20 21  2  0
 21 22  1  0
 21 23  1  0
 23 24  2  0
 25 26  1  0
 25 29  2  0
 26 27  2  0
 27 28  1  0
 28 29  1  0
M  CHG  1   8   1
M  END
