
     RDKit          3D

 31 34  0  0  0  0  0  0  0  0999 V2000
   -4.1130    3.0110   -0.0610 C   0  0  0  0  0  0  0  0  0  0  0  0
   -4.8540    2.3180   -0.8450 C   0  0  0  0  0  0  0  0  0  0  0  0
   -5.0780    0.9300   -1.0790 C   0  0  0  0  0  0  0  0  0  0  0  0
   -6.0490    0.6080   -1.9650 C   0  0  0  0  0  0  0  0  0  0  0  0
   -6.6090   -0.6500   -2.4870 C   0  0  0  0  0  0  0  0  0  0  0  0
   -6.7340   -1.8420   -1.8690 C   0  0  0  0  0  0  0  0  0  0  0  0
   -6.4080   -2.3940   -0.5370 C   0  0  0  0  0  0  0  0  0  0  0  0
   -5.4290   -2.1490    0.3480 C   0  0  0  0  0  0  0  0  0  0  0  0
   -4.3000   -1.1950    0.2730 C   0  0  0  0  0  0  0  0  0  0  0  0
   -3.2480   -1.8030    0.9190 C   0  0  0  0  0  0  0  0  0  0  0  0
   -2.0400   -1.1370    0.8760 C   0  0  0  0  0  0  0  0  0  0  0  0
   -0.9430   -1.6770    1.5050 C   0  0  0  0  0  0  0  0  0  0  0  0
    0.2580   -0.9740    1.4460 C   0  0  0  0  0  0  0  0  0  0  0  0
    0.4090    0.2120    0.8020 C   0  0  0  0  0  0  0  0  0  0  0  0
    1.6130    0.9420    0.7330 N   0  0  0  0  0  0  0  0  0  0  0  0
    2.8460    0.5840    1.3130 C   0  0  0  0  0  0  0  0  0  0  0  0
    2.9410   -0.4730    1.9670 O   0  0  0  0  0  0  0  0  0  0  0  0
    4.0520    1.4790    1.1440 C   0  0  0  0  0  0  0  0  0  0  0  0
    5.2790    0.8890    1.7730 C   0  0  0  0  0  0  0  0  0  0  0  0
    5.7090   -0.4240    1.1910 C   0  0  0  0  0  0  0  0  0  0  0  0
    6.0040   -0.3050   -0.2270 N   0  0  0  0  0  0  0  0  0  0  0  0
    5.1110   -0.4780   -1.3160 C   0  0  0  0  0  0  0  0  0  0  0  0
    3.9710   -1.0080   -1.2840 O   0  0  0  0  0  0  0  0  0  0  0  0
    5.7450    0.0830   -2.5600 C   0  0  0  0  0  0  0  0  0  0  0  0
    7.1370    0.0340   -2.2030 N   0  0  0  0  0  0  0  0  0  0  0  0
    7.2660    0.0150   -0.7920 C   0  0  0  0  0  0  0  0  0  0  0  0
    8.3220    0.2410   -0.1130 O   0  0  0  0  0  0  0  0  0  0  0  0
   -0.7130    0.7050    0.1930 N   0  0  0  0  0  0  0  0  0  0  0  0
   -1.8860    0.0870    0.2110 C   0  0  0  0  0  0  0  0  0  0  0  0
   -2.9720    0.6550   -0.4220 C   0  0  0  0  0  0  0  0  0  0  0  0
   -4.1710    0.0100   -0.3790 C   0  0  0  0  0  0  0  0  0  0  0  0
  1  2  2  0
  2  3  1  0
  3  4  2  0
  3 31  1  0
  4  5  1  0
  5  6  2  0
  6  7  1  0
  7  8  2  0
  8  9  1  0
  9 10  2  0
  9 31  1  0
 10 11  1  0
 11 12  2  0
 11 29  1  0
 12 13  1  0
 13 14  2  0
 14 15  1  0
 14 28  1  0
 15 16  1  0
 16 17  2  0
 16 18  1  0
 18 19  1  0
 19 20  1  0
 20 21  1  0
 21 22  1  0
 21 26  1  0
 22 23  2  0
 22 24  1  0
 24 25  1  0
 25 26  1  0
 26 27  2  0
 28 29  2  0
 29 30  1  0
 30 31  2  0
M  END
