
     RDKit          3D

 29 32  0  0  0  0  0  0  0  0999 V2000
   -4.9290   -1.3400   -1.5780 C   0  0  0  0  0  0  0  0  0  0  0  0
   -5.1840   -0.2130   -0.6060 C   0  0  1  0  0  0  0  0  0  0  0  0
   -6.6750   -0.0060   -0.4210 C   0  0  0  0  0  0  0  0  0  0  0  0
   -6.8710    1.2780    0.3320 C   0  0  0  0  0  0  0  0  0  0  0  0
   -6.1520    1.3440    1.6360 C   0  0  0  0  0  0  0  0  0  0  0  0
   -5.0700    0.3490    1.7710 C   0  0  0  0  0  0  0  0  0  0  0  0
   -4.5020    0.2440    2.8880 O   0  0  0  0  0  0  0  0  0  0  0  0
   -4.6380   -0.4940    0.7090 N   0  0  0  0  0  0  0  0  0  0  0  0
   -3.7130   -1.5550    0.9500 C   0  0  0  0  0  0  0  0  0  0  0  0
   -2.2830   -1.1200    0.7920 C   0  0  0  0  0  0  0  0  0  0  0  0
   -1.4450   -2.0270    0.9960 O   0  0  0  0  0  0  0  0  0  0  0  0
   -1.9050    0.1590    0.4530 N   0  0  0  0  0  0  0  0  0  0  0  0
   -0.5760    0.5990    0.2930 C   0  0  0  0  0  0  0  0  0  0  0  0
   -0.3210    1.9760    0.1240 C   0  0  0  0  0  0  0  0  0  0  0  0
    0.9270    2.5030   -0.0480 C   0  0  0  0  0  0  0  0  0  0  0  0
    1.9990    1.6710   -0.0620 C   0  0  0  0  0  0  0  0  0  0  0  0
    1.8400    0.3190    0.0950 C   0  0  0  0  0  0  0  0  0  0  0  0
    0.5430   -0.1880    0.2700 C   0  0  0  0  0  0  0  0  0  0  0  0
    2.9730   -0.6000    0.0850 C   0  0  0  0  0  0  0  0  0  0  0  0
    4.2350   -0.2030   -0.0740 C   0  0  0  0  0  0  0  0  0  0  0  0
    4.4420    1.2240   -0.2440 C   0  0  0  0  0  0  0  0  0  0  0  0
    5.6830    1.6370   -0.4030 C   0  0  0  0  0  0  0  0  0  0  0  0
    6.8120    0.7180   -0.4120 C   0  0  0  0  0  0  0  0  0  0  0  0
    6.6820   -0.5890   -0.2630 C   0  0  0  0  0  0  0  0  0  0  0  0
    7.8320   -1.4900   -0.2760 C   0  0  0  0  0  0  0  0  0  0  0  0
    9.0300   -1.1300   -0.4260 N   0  0  0  0  0  0  0  0  0  0  0  0
    5.3420   -1.1810   -0.0760 C   0  0  1  0  0  0  0  0  0  0  0  0
    5.2920   -1.9570    1.1740 N   0  0  0  0  0  0  0  0  0  0  0  0
    3.3390    2.1360   -0.2360 N   0  0  0  0  0  0  0  0  0  0  0  0
  2  1  1  6
  2  3  1  0
  2  8  1  0
  3  4  1  0
  4  5  1  0
  5  6  1  0
  6  7  2  0
  6  8  1  0
  8  9  1  0
  9 10  1  0
 10 11  2  0
 10 12  1  0
 12 13  1  0
 13 14  2  0
 13 18  1  0
 14 15  1  0
 15 16  2  0
 16 17  1  0
 16 29  1  0
 17 18  2  0
 17 19  1  0
 19 20  2  0
 20 21  1  0
 20 27  1  0
 21 22  2  0
 21 29  1  0
 22 23  1  0
 23 24  2  0
 24 25  1  0
 24 27  1  0
 25 26  2  0
 27 28  1  1
M  CHG  1  28   1
M  END
