
     RDKit          3D

 29 32  0  0  0  0  0  0  0  0999 V2000
   -7.6560   -2.0020   -0.4160 C   0  0  0  0  0  0  0  0  0  0  0  0
   -7.2280   -0.5870   -0.7080 C   0  0  1  0  0  0  0  0  0  0  0  0
   -7.8050    0.3050    0.2910 N   0  0  0  0  0  0  0  0  0  0  0  0
   -5.7560   -0.4230   -0.6900 C   0  0  0  0  0  0  0  0  0  0  0  0
   -5.0310   -0.3730    0.4860 C   0  0  0  0  0  0  0  0  0  0  0  0
   -3.6620   -0.2200    0.4450 C   0  0  0  0  0  0  0  0  0  0  0  0
   -2.9600   -0.1130   -0.7350 C   0  0  0  0  0  0  0  0  0  0  0  0
   -1.4900    0.0530   -0.8100 C   0  0  2  0  0  0  0  0  0  0  0  0
   -0.8240   -0.8640    0.1100 N   0  0  0  0  0  0  0  0  0  0  0  0
    0.5700   -0.9730    0.2460 C   0  0  0  0  0  0  0  0  0  0  0  0
    1.5650   -0.2790   -0.4350 C   0  0  0  0  0  0  0  0  0  0  0  0
    2.7540   -0.7570    0.0690 C   0  0  0  0  0  0  0  0  0  0  0  0
    4.0520   -0.3230   -0.3450 N   0  0  0  0  0  0  0  0  0  0  0  0
    5.1890   -0.9030    0.2610 C   0  0  0  0  0  0  0  0  0  0  0  0
    4.9840   -1.7880    1.1490 O   0  0  0  0  0  0  0  0  0  0  0  0
    6.5770   -0.5330   -0.0860 C   0  0  2  0  0  0  0  0  0  0  0  0
    6.8930   -0.7910   -1.5250 C   0  0  0  0  0  0  0  0  0  0  0  0
    7.5610   -1.1520    0.8790 C   0  0  0  0  0  0  0  0  0  0  0  0
    8.2960    0.1690    0.9000 C   0  0  0  0  0  0  0  0  0  0  0  0
    7.0120    0.8260    0.4290 C   0  0  0  0  0  0  0  0  0  0  0  0
    2.4350   -1.6760    0.9890 N   0  0  0  0  0  0  0  0  0  0  0  0
    1.1720   -1.7860    1.0770 O   0  0  0  0  0  0  0  0  0  0  0  0
   -1.0670    1.4310   -0.5080 C   0  0  0  0  0  0  0  0  0  0  0  0
   -0.7260    2.3950   -1.4280 C   0  0  0  0  0  0  0  0  0  0  0  0
   -0.3870    3.5530   -0.7390 C   0  0  0  0  0  0  0  0  0  0  0  0
   -0.5180    3.3010    0.5740 N   0  0  0  0  0  0  0  0  0  0  0  0
   -0.9260    2.0290    0.7210 C   0  0  0  0  0  0  0  0  0  0  0  0
   -3.6920   -0.1650   -1.9000 C   0  0  0  0  0  0  0  0  0  0  0  0
   -5.0760   -0.3180   -1.8800 C   0  0  0  0  0  0  0  0  0  0  0  0
  2  1  1  1
  2  3  1  0
  2  4  1  0
  4  5  2  0
  4 29  1  0
  5  6  1  0
  6  7  2  0
  7  8  1  0
  7 28  1  0
  8  9  1  1
  8 23  1  0
  9 10  1  0
 10 11  2  0
 10 22  1  0
 11 12  1  0
 12 13  1  0
 12 21  2  0
 13 14  1  0
 14 15  2  0
 14 16  1  0
 16 17  1  6
 16 18  1  0
 16 20  1  0
 18 19  1  0
 19 20  1  0
 21 22  1  0
 23 24  1  0
 23 27  2  0
 24 25  2  0
 25 26  1  0
 26 27  1  0
 28 29  2  0
M  CHG  1   3   1
M  END
