
     RDKit          3D

 30 33  0  0  0  0  0  0  0  0999 V2000
   -5.2700   -2.2160   -0.3610 C   0  0  0  0  0  0  0  0  0  0  0  0
   -4.7210   -0.9290    0.2510 C   0  0  1  0  0  0  0  0  0  0  0  0
   -3.4000   -0.8610   -0.0920 O   0  0  0  0  0  0  0  0  0  0  0  0
   -2.2040   -1.0170    0.4730 C   0  0  0  0  0  0  0  0  0  0  0  0
   -1.0780   -0.7810   -0.3520 C   0  0  0  0  0  0  0  0  0  0  0  0
    0.1760   -0.9240    0.1690 C   0  0  0  0  0  0  0  0  0  0  0  0
    1.3400   -0.6640   -0.7080 C   0  0  0  0  0  0  0  0  0  0  0  0
    1.4620   -0.8590   -2.0670 C   0  0  0  0  0  0  0  0  0  0  0  0
    2.7210   -0.4690   -2.4150 N   0  0  0  0  0  0  0  0  0  0  0  0
    3.3890   -0.0440   -1.3570 N   0  0  0  0  0  0  0  0  0  0  0  0
    4.7670    0.4570   -1.3220 C   0  0  2  0  0  0  0  0  0  0  0  0
    5.7700   -0.6090   -1.0420 C   0  0  0  0  0  0  0  0  0  0  0  0
    6.5630   -0.2550    0.1890 C   0  0  0  0  0  0  0  0  0  0  0  0
    7.1740    1.0480    0.1250 N   0  0  0  0  0  0  0  0  0  0  0  0
    6.2700    2.0810   -0.2930 C   0  0  0  0  0  0  0  0  0  0  0  0
    4.8730    1.5200   -0.2530 C   0  0  0  0  0  0  0  0  0  0  0  0
    2.5610   -0.1560   -0.3020 C   0  0  0  0  0  0  0  0  0  0  0  0
    0.3580   -1.2970    1.4860 C   0  0  0  0  0  0  0  0  0  0  0  0
   -0.7130   -1.5190    2.2590 N   0  0  0  0  0  0  0  0  0  0  0  0
   -1.9790   -1.3850    1.7740 C   0  0  0  0  0  0  0  0  0  0  0  0
   -3.1000   -1.6320    2.6020 N   0  0  0  0  0  0  0  0  0  0  0  0
   -5.4450    0.2380   -0.2240 C   0  0  0  0  0  0  0  0  0  0  0  0
   -4.8760    1.5040    0.0100 C   0  0  0  0  0  0  0  0  0  0  0  0
   -3.3400    1.6850    0.8350 Cl  0  0  0  0  0  0  0  0  0  0  0  0
   -5.4910    2.6650   -0.3920 C   0  0  0  0  0  0  0  0  0  0  0  0
   -6.7050    2.6120   -1.0460 C   0  0  0  0  0  0  0  0  0  0  0  0
   -7.2790    1.4020   -1.2840 C   0  0  0  0  0  0  0  0  0  0  0  0
   -8.4630    1.3460   -1.9200 F   0  0  0  0  0  0  0  0  0  0  0  0
   -6.6320    0.2320   -0.8650 C   0  0  0  0  0  0  0  0  0  0  0  0
   -7.5210   -1.2590   -1.2250 Cl  0  0  0  0  0  0  0  0  0  0  0  0
  2  1  1  6
  2  3  1  0
  2 22  1  0
  3  4  1  0
  4  5  2  0
  4 20  1  0
  5  6  1  0
  6  7  1  0
  6 18  2  0
  7  8  1  0
  7 17  2  0
  8  9  2  0
  9 10  1  0
 11 10  1  1
 10 17  1  0
 11 12  1  0
 11 16  1  0
 12 13  1  0
 13 14  1  0
 14 15  1  0
 15 16  1  0
 18 19  1  0
 19 20  2  0
 20 21  1  0
 22 23  2  0
 22 29  1  0
 23 24  1  0
 23 25  1  0
 25 26  2  0
 26 27  1  0
 27 28  1  0
 27 29  2  0
 29 30  1  0
M  CHG  1  14   1
M  END
