
     RDKit          3D

 29 32  0  0  0  0  0  0  0  0999 V2000
   -4.0280    3.4860    0.9420 C   0  0  0  0  0  0  0  0  0  0  0  0
   -2.7050    3.5680    0.3870 N   0  0  0  0  0  0  0  0  0  0  0  0
   -2.2060    2.3310   -0.1740 C   0  0  2  0  0  0  0  0  0  0  0  0
   -3.0960    1.9330   -1.3360 C   0  0  0  0  0  0  0  0  0  0  0  0
   -2.1410    1.3150    0.9120 C   0  0  0  0  0  0  0  0  0  0  0  0
   -1.6530   -0.0090    0.5400 C   0  0  0  0  0  0  0  0  0  0  0  0
   -0.3620   -0.3900    0.3630 C   0  0  0  0  0  0  0  0  0  0  0  0
    0.8770    0.3840    0.5470 C   0  0  0  0  0  0  0  0  0  0  0  0
    0.7570    1.5360    1.0050 O   0  0  0  0  0  0  0  0  0  0  0  0
    2.1570   -0.0970    0.2400 N   0  0  0  0  0  0  0  0  0  0  0  0
    3.3960    0.5750    0.3890 C   0  0  0  0  0  0  0  0  0  0  0  0
    3.6080    1.7700    1.0180 C   0  0  0  0  0  0  0  0  0  0  0  0
    4.8560    2.3900    1.1220 C   0  0  0  0  0  0  0  0  0  0  0  0
    5.9480    1.7710    0.5620 C   0  0  0  0  0  0  0  0  0  0  0  0
    7.2120    2.1050    0.5030 O   0  0  0  0  0  0  0  0  0  0  0  0
    7.8960    1.2000   -0.1390 N   0  0  0  0  0  0  0  0  0  0  0  0
    7.0580    0.2230   -0.5230 C   0  0  0  0  0  0  0  0  0  0  0  0
    7.4150   -0.9940   -1.2770 C   0  0  0  0  0  0  0  0  0  0  0  0
    5.7900    0.5530   -0.0900 C   0  0  0  0  0  0  0  0  0  0  0  0
    4.5450   -0.0170   -0.1670 C   0  0  0  0  0  0  0  0  0  0  0  0
   -0.3210   -1.6940   -0.0040 N   0  0  0  0  0  0  0  0  0  0  0  0
   -1.5570   -2.1810   -0.0710 C   0  0  0  0  0  0  0  0  0  0  0  0
   -2.0900   -3.4360   -0.3900 C   0  0  0  0  0  0  0  0  0  0  0  0
   -3.4460   -3.6510   -0.3730 C   0  0  0  0  0  0  0  0  0  0  0  0
   -3.9470   -4.9420   -0.7030 N   0  0  0  0  0  0  0  0  0  0  0  0
   -4.2720   -2.6000   -0.0340 C   0  0  0  0  0  0  0  0  0  0  0  0
   -5.7330   -2.8330   -0.0160 C   0  0  0  0  0  0  0  0  0  0  0  0
   -3.7680   -1.3460    0.2860 C   0  0  0  0  0  0  0  0  0  0  0  0
   -2.4150   -1.1560    0.2620 C   0  0  0  0  0  0  0  0  0  0  0  0
  1  2  1  0
  2  3  1  0
  3  4  1  6
  3  5  1  0
  5  6  1  0
  6  7  2  0
  6 29  1  0
  7  8  1  0
  7 21  1  0
  8  9  2  0
  8 10  1  0
 10 11  1  0
 11 12  2  0
 11 20  1  0
 12 13  1  0
 13 14  2  0
 14 15  1  0
 14 19  1  0
 15 16  1  0
 16 17  2  0
 17 18  1  0
 17 19  1  0
 19 20  2  0
 21 22  1  0
 22 23  2  0
 22 29  1  0
 23 24  1  0
 24 25  1  0
 24 26  2  0
 26 27  1  0
 26 28  1  0
 28 29  2  0
M  CHG  1  16   1
M  END
