
     RDKit          3D

 29 32  0  0  0  0  0  0  0  0999 V2000
   -7.4340   -0.1420   -1.1370 N   0  0  0  0  0  0  0  0  0  0  0  0
   -6.1700    0.3310   -0.6620 C   0  0  0  0  0  0  0  0  0  0  0  0
   -5.6590    1.2570   -1.4500 C   0  0  0  0  0  0  0  0  0  0  0  0
   -4.4310    2.0580   -1.4430 C   0  0  0  0  0  0  0  0  0  0  0  0
   -3.2760    2.0010   -0.7790 C   0  0  0  0  0  0  0  0  0  0  0  0
   -2.7830    1.0790    0.2330 C   0  0  0  0  0  0  0  0  0  0  0  0
   -3.3060    0.1540    1.0070 C   0  0  0  0  0  0  0  0  0  0  0  0
   -4.6390   -0.4210    1.2560 C   0  0  0  0  0  0  0  0  0  0  0  0
   -5.7850   -0.3530    0.5920 C   0  0  0  0  0  0  0  0  0  0  0  0
   -4.6150   -1.1980    2.5390 C   0  0  0  0  0  0  0  0  0  0  0  0
   -3.2530   -0.8830    3.1440 C   0  0  0  0  0  0  0  0  0  0  0  0
   -2.4240   -0.5820    1.9130 C   0  0  0  0  0  0  0  0  0  0  0  0
   -1.2100   -0.9530    1.6880 C   0  0  0  0  0  0  0  0  0  0  0  0
   -0.4190   -0.7520    0.5020 C   0  0  0  0  0  0  0  0  0  0  0  0
   -0.9010   -1.0940   -0.7660 C   0  0  0  0  0  0  0  0  0  0  0  0
   -0.1070   -0.8760   -1.8650 C   0  0  0  0  0  0  0  0  0  0  0  0
    1.1510   -0.3280   -1.7180 C   0  0  0  0  0  0  0  0  0  0  0  0
    1.6260    0.0090   -0.4590 C   0  0  0  0  0  0  0  0  0  0  0  0
    2.9660    0.6090   -0.2550 C   0  0  0  0  0  0  0  0  0  0  0  0
    4.0360   -0.3340   -0.1750 N   0  0  0  0  0  0  0  0  0  0  0  0
    4.8680   -0.3140   -1.3500 C   0  0  0  0  0  0  0  0  0  0  0  0
    6.3070   -0.0130   -1.0760 C   0  0  2  0  0  0  0  0  0  0  0  0
    6.9520   -0.9420   -0.2080 N   0  0  0  0  0  0  0  0  0  0  0  0
    8.0220   -0.2470    0.4160 C   0  0  0  0  0  0  0  0  0  0  0  0
    9.0600   -0.6690    0.9880 O   0  0  0  0  0  0  0  0  0  0  0  0
    7.7490    1.1630    0.3040 N   0  0  0  0  0  0  0  0  0  0  0  0
    6.5120    1.2840   -0.3890 C   0  0  0  0  0  0  0  0  0  0  0  0
    5.7620    2.3170   -0.3910 O   0  0  0  0  0  0  0  0  0  0  0  0
    0.8130   -0.2230    0.5810 N   0  0  0  0  0  0  0  0  0  0  0  0
  1  2  1  0
  2  3  2  0
  2  9  1  0
  3  4  1  0
  4  5  2  0
  5  6  1  0
  6  7  2  0
  7  8  1  0
  7 12  1  0
  8  9  2  0
  8 10  1  0
 10 11  1  0
 11 12  1  0
 12 13  2  3
 13 14  1  0
 14 15  2  0
 14 29  1  0
 15 16  1  0
 16 17  2  0
 17 18  1  0
 18 19  1  0
 18 29  2  0
 19 20  1  0
 20 21  1  0
 22 21  1  1
 22 23  1  0
 22 27  1  0
 23 24  1  0
 24 25  2  0
 24 26  1  0
 26 27  1  0
 27 28  2  0
M  CHG  1  20   1
M  END
