
     RDKit          3D

  9  9  0  0  0  0  0  0  0  0999 V2000
    3.1320   -1.3890    1.1330 O   0  0  0  0  0  0  0  0  0  0  0  0
    2.2310   -0.8100    0.4530 C   0  0  0  0  0  0  0  0  0  0  0  0
    1.0150   -1.2500    0.1220 N   0  0  0  0  0  0  0  0  0  0  0  0
    0.3790   -0.3010   -0.6200 C   0  0  0  0  0  0  0  0  0  0  0  0
   -1.2780   -0.5040   -1.2650 S   0  0  0  0  0  0  0  0  0  0  0  0
   -2.5250    0.0970   -0.1090 C   0  0  0  0  0  0  0  0  0  0  0  0
   -2.5910   -0.6560    1.0560 O   0  0  0  0  0  0  0  0  0  0  0  0
    1.2330    0.7150   -0.7260 N   0  0  0  0  0  0  0  0  0  0  0  0
    2.3520    0.4200   -0.0850 N   0  0  0  0  0  0  0  0  0  0  0  0
  1  2  2  0
  2  3  1  0
  2  9  1  0
  3  4  2  0
  4  5  1  0
  4  8  1  0
  5  6  1  0
  6  7  1  0
  8  9  1  0
M  END
