
     RDKit          3D

  9  8  0  0  0  0  0  0  0  0999 V2000
   -0.1840    0.9280    0.8640 N   0  0  0  0  0  0  0  0  0  0  0  0
    0.3440   -0.0230    0.0620 C   0  0  0  0  0  0  0  0  0  0  0  0
    1.6520    0.0090    0.4230 N   0  0  0  0  0  0  0  0  0  0  0  0
    2.6690   -0.7360   -0.1370 C   0  0  0  0  0  0  0  0  0  0  0  0
    2.3040   -1.4810   -1.0410 O   0  0  0  0  0  0  0  0  0  0  0  0
    3.9880   -0.6750    0.2510 O   0  0  0  0  0  0  0  0  0  0  0  0
   -0.8360   -0.7540   -0.9290 S   0  0  0  0  0  0  0  0  0  0  0  0
   -2.4610   -0.0220   -0.6660 C   0  0  0  0  0  0  0  0  0  0  0  0
   -3.1360   -0.3890    0.9720 S   0  0  0  0  0  0  0  0  0  0  0  0
  1  2  2  0
  2  3  1  0
  2  7  1  0
  3  4  1  0
  4  5  2  0
  4  6  1  0
  7  8  1  0
  8  9  1  0
M  END
