
     RDKit          3D

  9  9  0  0  0  0  0  0  0  0999 V2000
   -0.2650    2.3060    0.1100 O   0  0  0  0  0  0  0  0  0  0  0  0
   -0.1050    1.0350    0.0500 C   0  0  0  0  0  0  0  0  0  0  0  0
    1.1630    0.5970    0.0630 N   0  0  0  0  0  0  0  0  0  0  0  0
    1.5460   -0.6900    0.0080 C   0  0  0  0  0  0  0  0  0  0  0  0
    2.7700   -1.0260    0.0250 O   0  0  0  0  0  0  0  0  0  0  0  0
    0.2620   -1.8050   -0.0840 S   0  0  0  0  0  0  0  0  0  0  0  0
   -1.2550   -1.0300   -0.0870 C   0  0  0  0  0  0  0  0  0  0  0  0
   -2.6970   -1.8280   -0.1680 S   0  0  0  0  0  0  0  0  0  0  0  0
   -1.2080    0.3100   -0.0180 N   0  0  0  0  0  0  0  0  0  0  0  0
  1  2  2  0
  2  3  1  0
  2  9  1  0
  3  4  1  0
  4  5  2  0
  4  6  1  0
  6  7  1  0
  7  8  2  0
  7  9  1  0
M  END
