
     RDKit          3D

  9  8  0  0  0  0  0  0  0  0999 V2000
    1.7240   -1.3970   -2.4490 C   0  0  0  0  0  0  0  0  0  0  0  0
    1.8540   -0.8970   -1.1350 O   0  0  0  0  0  0  0  0  0  0  0  0
    0.7320   -0.3700   -0.5250 C   0  0  0  0  0  0  0  0  0  0  0  0
   -0.3390   -0.3700   -1.1800 O   0  0  0  0  0  0  0  0  0  0  0  0
    0.7940    0.1490    0.7930 N   0  0  0  0  0  0  0  0  0  0  0  0
   -0.2610    0.6420    1.3210 C   0  0  0  0  0  0  0  0  0  0  0  0
   -0.1660    1.1540    2.6420 N   0  0  0  0  0  0  0  0  0  0  0  0
   -1.7770    0.6730    0.4130 S   0  0  0  0  0  0  0  0  0  0  0  0
   -3.3570    1.5470    1.5360 S   0  0  0  0  0  0  0  0  0  0  0  0
  1  2  1  0
  2  3  1  0
  3  4  2  0
  3  5  1  0
  5  6  2  3
  6  7  1  0
  6  8  1  0
  8  9  1  0
M  END
