
     RDKit          3D

  8  8  0  0  0  0  0  0  0  0999 V2000
    1.8590   -2.1190    0.0040 O   0  0  0  0  0  0  0  0  0  0  0  0
    1.0510   -1.1700   -0.0630 C   0  0  0  0  0  0  0  0  0  0  0  0
    1.4560    0.2060    0.0520 N   0  0  0  0  0  0  0  0  0  0  0  0
    0.4060    1.1590   -0.0480 C   0  0  0  0  0  0  0  0  0  0  0  0
    0.7640    2.7400    0.0700 S   0  0  0  0  0  0  0  0  0  0  0  0
   -0.9520    0.7950   -0.2480 N   0  0  0  0  0  0  0  0  0  0  0  0
   -1.3310   -0.5750    0.1100 C   0  0  0  0  0  0  0  0  0  0  0  0
   -0.2890   -1.4400   -0.2570 O   0  0  0  0  0  0  0  0  0  0  0  0
  1  2  2  0
  2  3  1  0
  2  8  1  0
  3  4  1  0
  4  5  2  0
  4  6  1  0
  6  7  1  0
  7  8  1  0
M  END
