
     RDKit          3D

  9  9  0  0  0  0  0  0  0  0999 V2000
    1.8970   -1.9220    0.5770 O   0  0  0  0  0  0  0  0  0  0  0  0
    1.1170   -0.9520    0.2860 C   0  0  0  0  0  0  0  0  0  0  0  0
    1.7030    0.3370    0.3440 N   0  0  0  0  0  0  0  0  0  0  0  0
    0.9560    1.4810    0.0480 C   0  0  0  0  0  0  0  0  0  0  0  0
    1.2230    2.6200    0.5020 O   0  0  0  0  0  0  0  0  0  0  0  0
   -0.4640    1.2940   -1.0440 S   0  0  0  0  0  0  0  0  0  0  0  0
   -1.1550   -0.3210   -0.6570 C   0  0  2  0  0  0  0  0  0  0  0  0
   -2.5090   -0.0660    0.5510 S   0  0  0  0  0  0  0  0  0  0  0  0
   -0.2200   -1.2200   -0.0580 N   0  0  0  0  0  0  0  0  0  0  0  0
  1  2  2  0
  2  3  1  0
  2  9  1  0
  3  4  1  0
  4  5  2  0
  4  6  1  0
  6  7  1  0
  7  8  1  1
  7  9  1  0
M  END
