
     RDKit          3D

  8  8  0  0  0  0  0  0  0  0999 V2000
    2.2440    0.2110    0.1600 N   0  0  0  0  0  0  0  0  0  0  0  0
    0.8310    0.0940    0.0580 C   0  0  0  0  0  0  0  0  0  0  0  0
   -0.0640    0.9550   -0.0950 N   0  0  0  0  0  0  0  0  0  0  0  0
   -1.3960    0.6160   -0.1700 C   0  0  0  0  0  0  0  0  0  0  0  0
   -2.3280    1.4850   -0.3270 O   0  0  0  0  0  0  0  0  0  0  0  0
   -1.6680   -0.7910   -0.0570 C   0  0  0  0  0  0  0  0  0  0  0  0
   -3.0550   -1.5770   -0.0930 S   0  0  0  0  0  0  0  0  0  0  0  0
   -0.0480   -1.4960    0.1400 S   0  0  0  0  0  0  0  0  0  0  0  0
  1  2  1  0
  2  3  2  0
  2  8  1  0
  3  4  1  0
  4  5  2  0
  4  6  1  0
  6  7  2  0
  6  8  1  0
M  END
