
     RDKit          3D

  8  8  0  0  0  0  0  0  0  0999 V2000
    3.1190    0.1980   -0.5150 N   0  0  0  0  0  0  0  0  0  0  0  0
    2.0560   -1.1560   -0.0940 S   0  0  0  0  0  0  0  0  0  0  0  0
    0.3670   -0.6150   -0.3490 C   0  0  0  0  0  0  0  0  0  0  0  0
   -0.0570    0.5090   -0.7480 N   0  0  0  0  0  0  0  0  0  0  0  0
   -1.4110    0.7240   -0.8790 C   0  0  0  0  0  0  0  0  0  0  0  0
   -1.9190    1.6770   -1.5660 O   0  0  0  0  0  0  0  0  0  0  0  0
   -2.2830   -0.2380   -0.1590 C   0  0  0  0  0  0  0  0  0  0  0  0
   -1.0750   -1.6260   -0.0610 S   0  0  0  0  0  0  0  0  0  0  0  0
  1  2  1  0
  2  3  1  0
  3  4  2  0
  3  8  1  0
  4  5  1  0
  5  6  2  0
  5  7  1  0
  7  8  1  0
M  END
