
     RDKit          3D

 18 19  0  0  0  0  0  0  0  0999 V2000
    5.3880    1.2950    0.9640 N   0  0  0  0  0  0  0  0  0  0  0  0
    4.5930    1.1060   -0.1900 C   0  0  0  0  0  0  0  0  0  0  0  0
    4.9010    1.6820   -1.2530 O   0  0  0  0  0  0  0  0  0  0  0  0
    3.4230    0.2500   -0.1490 C   0  0  0  0  0  0  0  0  0  0  0  0
    2.6420    0.0590   -1.2670 C   0  0  0  0  0  0  0  0  0  0  0  0
    1.5170   -0.7580   -1.2460 C   0  0  0  0  0  0  0  0  0  0  0  0
    1.1640   -1.3890   -0.1150 N   0  0  0  0  0  0  0  0  0  0  0  0
   -0.0130   -2.2350   -0.1210 C   0  0  0  0  0  0  0  0  0  0  0  0
   -1.1480   -1.5330    0.2160 O   0  0  0  0  0  0  0  0  0  0  0  0
   -1.4530   -0.4870   -0.6170 C   0  0  0  0  0  0  0  0  0  0  0  0
   -2.6620    0.1750   -0.1790 N   0  0  0  0  0  0  0  0  0  0  0  0
   -2.6420    1.1940    0.6840 C   0  0  0  0  0  0  0  0  0  0  0  0
   -3.7900    1.8070    1.0870 C   0  0  0  0  0  0  0  0  0  0  0  0
   -5.0030    1.3750    0.6010 C   0  0  0  0  0  0  0  0  0  0  0  0
   -5.0390    0.3290   -0.2860 C   0  0  0  0  0  0  0  0  0  0  0  0
   -3.8430   -0.2490   -0.6540 C   0  0  0  0  0  0  0  0  0  0  0  0
    1.9140   -1.2200    1.0020 C   0  0  0  0  0  0  0  0  0  0  0  0
    3.0350   -0.4120    1.0000 C   0  0  0  0  0  0  0  0  0  0  0  0
  1  2  1  0
  2  3  2  0
  2  4  1  0
  4  5  2  0
  4 18  1  0
  5  6  1  0
  6  7  2  0
  7  8  1  0
  7 17  1  0
  8  9  1  0
  9 10  1  0
 10 11  1  0
 11 12  2  0
 11 16  1  0
 12 13  1  0
 13 14  2  0
 14 15  1  0
 15 16  2  0
 17 18  2  0
M  CHG  2   7   1  11   1
M  END
