
     RDKit          3D

 13 14  0  0  0  0  0  0  0  0999 V2000
    3.9140    0.3440    0.1090 C   0  0  0  0  0  0  0  0  0  0  0  0
    2.7630   -0.5650   -0.3420 C   0  0  0  0  0  0  0  0  0  0  0  0
    1.6260   -0.1030    0.2590 O   0  0  0  0  0  0  0  0  0  0  0  0
    0.5140   -0.7610   -0.0090 N   0  0  0  0  0  0  0  0  0  0  0  0
    0.4260   -2.1090   -0.3900 N   0  0  0  0  0  0  0  0  0  0  0  0
   -0.5320   -2.6800    0.3380 O   0  0  0  0  0  0  0  0  0  0  0  0
   -1.8150   -2.2480    0.0400 C   0  0  0  0  0  0  0  0  0  0  0  0
   -1.9440   -0.8080    0.1270 N   0  0  0  0  0  0  0  0  0  0  0  0
   -3.0370    0.1000    0.2460 C   0  0  0  0  0  0  0  0  0  0  0  0
   -2.4360    1.4700    0.2550 C   0  0  0  0  0  0  0  0  0  0  0  0
   -0.9770    1.2270    0.1630 C   0  0  0  0  0  0  0  0  0  0  0  0
    0.0660    2.3120    0.1510 C   0  0  0  0  0  0  0  0  0  0  0  0
   -0.7380   -0.0560    0.0930 C   0  0  0  0  0  0  0  0  0  0  0  0
  1  2  1  0
  2  3  1  0
  3  4  1  0
  4  5  1  0
  4 13  1  0
  5  6  1  0
  6  7  1  0
  7  8  1  0
  8  9  1  0
  8 13  1  0
  9 10  1  0
 10 11  1  0
 11 12  1  0
 11 13  2  0
M  END
