
     RDKit          3D

 11 10  0  0  0  0  0  0  0  0999 V2000
    3.3190    0.6110   -0.5550 O   0  0  0  0  0  0  0  0  0  0  0  0
    2.8920   -0.4540   -0.0680 C   0  0  0  0  0  0  0  0  0  0  0  0
    3.8340   -1.3940    0.3430 O   0  0  0  0  0  0  0  0  0  0  0  0
    1.5260   -0.6470    0.0380 O   0  0  0  0  0  0  0  0  0  0  0  0
    0.6360    0.3610   -0.4040 C   0  0  0  0  0  0  0  0  0  0  0  0
   -0.7990   -0.1080   -0.1730 C   0  0  2  0  0  0  0  0  0  0  0  0
   -1.7270    1.0180   -0.5780 C   0  0  0  0  0  0  0  0  0  0  0  0
   -1.4930    2.1710    0.1460 O   0  0  0  0  0  0  0  0  0  0  0  0
   -1.0240   -0.3540    1.1770 O   0  0  0  0  0  0  0  0  0  0  0  0
   -1.4570   -1.6090    1.3270 O   0  0  0  0  0  0  0  0  0  0  0  0
   -2.5790   -1.6730    0.6150 O   0  0  0  0  0  0  0  0  0  0  0  0
  1  2  2  0
  2  3  1  0
  2  4  1  0
  4  5  1  0
  6  5  1  1
  6  7  1  0
  6  9  1  0
  7  8  1  0
  9 10  1  0
 10 11  1  0
M  END
