
     RDKit          3D

 11 10  0  0  0  0  0  0  0  0999 V2000
   -3.1810    1.3190   -0.7920 O   0  0  0  0  0  0  0  0  0  0  0  0
   -2.4580    0.3890   -0.4220 C   0  0  0  0  0  0  0  0  0  0  0  0
   -3.0410   -0.8070   -0.0510 O   0  0  0  0  0  0  0  0  0  0  0  0
   -0.9740    0.5500   -0.3750 C   0  0  2  0  0  0  0  0  0  0  0  0
   -0.6680    1.8490   -0.8000 O   0  0  0  0  0  0  0  0  0  0  0  0
   -0.0340    2.4960    0.1260 O   0  0  0  0  0  0  0  0  0  0  0  0
   -0.4560   -0.3750   -1.2530 O   0  0  0  0  0  0  0  0  0  0  0  0
    0.4580   -1.2610   -0.7150 C   0  0  0  0  0  0  0  0  0  0  0  0
    1.6760   -0.5480   -0.1770 C   0  0  0  0  0  0  0  0  0  0  0  0
    2.5740   -1.4880    0.3570 O   0  0  0  0  0  0  0  0  0  0  0  0
    3.6320   -0.8900    0.8260 O   0  0  0  0  0  0  0  0  0  0  0  0
  1  2  2  0
  2  3  1  0
  2  4  1  0
  4  5  1  6
  4  7  1  0
  5  6  1  0
  7  8  1  0
  8  9  1  0
  9 10  1  0
 10 11  1  0
M  END
