
     RDKit          3D

 13 13  0  0  0  0  0  0  0  0999 V2000
   -4.1270   -0.9530   -2.2940 C   0  0  0  0  0  0  0  0  0  0  0  0
   -3.0120   -1.1520   -2.5870 N   0  0  0  0  0  0  0  0  0  0  0  0
   -1.9880   -0.7760   -1.6240 C   0  0  0  0  0  0  0  0  0  0  0  0
   -1.9130   -1.2460   -0.4620 N   0  0  0  0  0  0  0  0  0  0  0  0
   -1.0530   -0.9820    0.5040 O   0  0  0  0  0  0  0  0  0  0  0  0
   -0.0110   -0.1040    0.4490 C   0  0  0  0  0  0  0  0  0  0  0  0
    0.8440    0.1030    1.6290 C   0  0  0  0  0  0  0  0  0  0  0  0
    0.5650   -0.6640    2.7180 C   0  0  0  0  0  0  0  0  0  0  0  0
    1.8410    1.0710    1.6380 N   0  0  0  0  0  0  0  0  0  0  0  0
    3.1700    0.9630    1.0770 C   0  0  0  0  0  0  0  0  0  0  0  0
    0.2780    0.6000   -0.6060 C   0  0  0  0  0  0  0  0  0  0  0  0
   -0.7490    0.4280   -2.1340 P   0  0  0  0  0  0  0  0  0  0  0  0
    0.3010   -0.3410   -3.3060 O   0  0  0  0  0  0  0  0  0  0  0  0
  1  2  2  0
  2  3  1  0
  3  4  2  0
  3 12  1  0
  4  5  1  0
  5  6  1  0
  6  7  1  0
  6 11  2  0
  7  8  2  0
  7  9  1  0
  9 10  1  0
 11 12  1  0
 12 13  1  0
M  END
