
     RDKit          3D

 11 10  0  0  0  0  0  0  0  0999 V2000
   -3.4080    0.5710    0.5620 C   0  0  0  0  0  0  0  0  0  0  0  0
   -2.1960   -0.0590    0.3930 O   0  0  0  0  0  0  0  0  0  0  0  0
   -1.1920    0.7550   -0.0630 C   0  0  0  0  0  0  0  0  0  0  0  0
    0.0660   -0.1000   -0.1910 C   0  0  1  0  0  0  0  0  0  0  0  0
   -0.1860   -1.1350   -1.0970 O   0  0  0  0  0  0  0  0  0  0  0  0
   -0.0280   -2.2920   -0.4920 O   0  0  0  0  0  0  0  0  0  0  0  0
    1.1370    0.6370   -0.6600 O   0  0  0  0  0  0  0  0  0  0  0  0
    2.1460    0.6110    0.1980 O   0  0  0  0  0  0  0  0  0  0  0  0
    3.3720    0.0450   -0.0290 C   0  0  0  0  0  0  0  0  0  0  0  0
    3.5860   -0.5080   -1.1500 O   0  0  0  0  0  0  0  0  0  0  0  0
    4.3940    0.0460    0.9080 O   0  0  0  0  0  0  0  0  0  0  0  0
  1  2  1  0
  2  3  1  0
  4  3  1  6
  4  5  1  0
  4  7  1  0
  5  6  1  0
  7  8  1  0
  8  9  1  0
  9 10  2  0
  9 11  1  0
M  END
