
     RDKit          3D

 13 14  0  0  0  0  0  0  0  0999 V2000
   -2.2980   -0.7340   -0.6060 C   0  0  0  0  0  0  0  0  0  0  0  0
   -1.1530   -0.0300    0.1760 C   0  0  2  0  0  0  0  0  0  0  0  0
   -1.5980    1.3920    0.4850 C   0  0  0  0  0  0  0  0  0  0  0  0
   -1.7130    1.9360   -0.9280 C   0  0  0  0  0  0  0  0  0  0  0  0
   -0.8050    1.2840   -1.6790 C   0  0  0  0  0  0  0  0  0  0  0  0
   -0.0780    0.3170   -0.7950 C   0  0  0  0  0  0  0  0  0  0  0  0
    1.1340   -0.0280   -0.7850 N   0  0  0  0  0  0  0  0  0  0  0  0
    1.8090   -0.8060    0.1300 N   0  0  0  0  0  0  0  0  0  0  0  0
    3.2130   -1.1530    0.0440 C   0  0  0  0  0  0  0  0  0  0  0  0
    4.0810   -0.0110    0.0480 N   0  0  0  0  0  0  0  0  0  0  0  0
    0.7450   -1.3690    1.4870 P   0  0  0  0  0  0  0  0  0  0  0  0
   -0.8380   -0.8150    1.3050 C   0  0  0  0  0  0  0  0  0  0  0  0
   -1.8320   -1.1270    2.2620 O   0  0  0  0  0  0  0  0  0  0  0  0
  2  1  1  6
  2  3  1  0
  2  6  1  0
  2 12  1  0
  3  4  1  0
  4  5  2  0
  5  6  1  0
  6  7  2  0
  7  8  1  0
  8  9  1  0
  8 11  1  0
  9 10  1  0
 11 12  2  0
 12 13  1  0
M  END
