
     RDKit          3D

 13 14  0  0  0  0  0  0  0  0999 V2000
   -0.8990   -2.1660    0.0590 C   0  0  0  0  0  0  0  0  0  0  0  0
   -0.9900   -0.6720    0.2560 C   0  0  0  0  0  0  0  0  0  0  0  0
   -1.9910   -0.2080    0.9750 C   0  0  0  0  0  0  0  0  0  0  0  0
   -1.9990    1.6250    1.1470 P   0  0  0  0  0  0  0  0  0  0  0  0
   -2.4220    2.4130   -0.3370 O   0  0  0  0  0  0  0  0  0  0  0  0
   -0.2940    1.9680    1.4140 O   0  0  0  0  0  0  0  0  0  0  0  0
    0.4980    1.3590    0.5010 C   0  0  1  0  0  0  0  0  0  0  0  0
    1.6190    0.7310    1.1390 O   0  0  0  0  0  0  0  0  0  0  0  0
    2.1770   -0.1380    0.1740 C   0  0  0  0  0  0  0  0  0  0  0  0
    3.5380   -0.5530    0.2430 N   0  0  0  0  0  0  0  0  0  0  0  0
    1.2540   -0.4440   -0.7090 C   0  0  0  0  0  0  0  0  0  0  0  0
   -0.0270    0.2610   -0.3260 C   0  0  1  0  0  0  0  0  0  0  0  0
   -0.6430    0.8260   -1.5350 N   0  0  0  0  0  0  0  0  0  0  0  0
  1  2  1  0
  2  3  2  0
  2 12  1  0
  3  4  1  0
  4  5  1  0
  4  6  1  0
  7  6  1  1
  7  8  1  0
  7 12  1  0
  8  9  1  0
  9 10  1  0
  9 11  2  0
 11 12  1  0
 12 13  1  6
M  END
