
     RDKit          3D

  8  7  0  0  0  0  0  0  0  0999 V2000
    1.8230    0.4460   -0.0660 O   0  0  0  0  0  0  0  0  0  0  0  0
    0.9310   -0.4470   -0.5440 N   0  0  0  0  0  0  0  0  0  0  0  0
    1.3170   -1.7180   -0.4000 F   0  0  0  0  0  0  0  0  0  0  0  0
   -0.4080   -0.1910   -0.0630 C   0  0  2  0  0  0  0  0  0  0  0  0
   -0.5210   -0.2670    1.6960 Cl  0  0  0  0  0  0  0  0  0  0  0  0
   -1.5140   -1.3860   -0.7470 Cl  0  0  0  0  0  0  0  0  0  0  0  0
   -0.7580    1.0850   -0.5460 O   0  0  0  0  0  0  0  0  0  0  0  0
   -2.3260    1.5260   -0.0550 Cl  0  0  0  0  0  0  0  0  0  0  0  0
  1  2  1  0
  2  3  1  0
  2  4  1  0
  4  5  1  1
  4  6  1  0
  4  7  1  0
  7  8  1  0
M  END
