
     RDKit          3D

  8  7  0  0  0  0  0  0  0  0999 V2000
   -1.5300   -0.8350   -0.1680 O   0  0  0  0  0  0  0  0  0  0  0  0
   -0.7870    0.2890   -0.2680 N   0  0  0  0  0  0  0  0  0  0  0  0
   -1.4850    1.5940    0.6460 Cl  0  0  0  0  0  0  0  0  0  0  0  0
    0.5630    0.1120    0.1710 C   0  0  2  0  0  0  0  0  0  0  0  0
    0.6400   -0.3910    1.8760 Cl  0  0  0  0  0  0  0  0  0  0  0  0
    1.3820    1.6920    0.0620 Cl  0  0  0  0  0  0  0  0  0  0  0  0
    1.2280   -0.8240   -0.6380 O   0  0  0  0  0  0  0  0  0  0  0  0
    2.4640   -0.9950   -0.2470 F   0  0  0  0  0  0  0  0  0  0  0  0
  1  2  1  0
  2  3  1  0
  2  4  1  0
  4  5  1  1
  4  6  1  0
  4  7  1  0
  7  8  1  0
M  END
