
     RDKit          3D

  8  7  0  0  0  0  0  0  0  0999 V2000
    2.7370    1.1860   -0.6670 F   0  0  0  0  0  0  0  0  0  0  0  0
    1.9450    0.2690   -0.1380 N   0  0  0  0  0  0  0  0  0  0  0  0
    0.6440    0.5240   -0.1970 O   0  0  0  0  0  0  0  0  0  0  0  0
   -0.0670   -0.5460    0.0060 O   0  0  0  0  0  0  0  0  0  0  0  0
   -1.4250   -0.2750    0.0980 C   0  0  2  0  0  0  0  0  0  0  0  0
   -1.7140    0.8410    1.4550 Cl  0  0  0  0  0  0  0  0  0  0  0  0
   -2.3490   -1.7410    0.4330 Cl  0  0  0  0  0  0  0  0  0  0  0  0
   -1.9870    0.4550   -1.4300 Cl  0  0  0  0  0  0  0  0  0  0  0  0
  1  2  1  0
  2  3  1  0
  3  4  1  0
  4  5  1  0
  5  6  1  1
  5  7  1  0
  5  8  1  0
M  END
