
     RDKit          3D

  7  7  0  0  0  0  0  0  0  0999 V2000
   -0.5050   -1.7800    0.5590 F   0  0  0  0  0  0  0  0  0  0  0  0
   -0.8060   -0.4760    0.6330 N   0  0  0  0  0  0  0  0  0  0  0  0
   -1.4270    0.0020   -0.4690 O   0  0  0  0  0  0  0  0  0  0  0  0
   -0.1340    0.4950   -0.0820 C   0  0  1  0  0  0  0  0  0  0  0  0
   -0.2140    2.1910    0.5010 Cl  0  0  0  0  0  0  0  0  0  0  0  0
    0.8980    0.1800   -0.9650 O   0  0  0  0  0  0  0  0  0  0  0  0
    2.1890   -0.6110   -0.1760 Cl  0  0  0  0  0  0  0  0  0  0  0  0
  1  2  1  0
  2  3  1  0
  2  4  1  0
  3  4  1  0
  4  5  1  1
  4  6  1  0
  6  7  1  0
M  END
