
     RDKit          3D

  8  7  0  0  0  0  0  0  0  0999 V2000
   -1.8640   -0.7940   -0.0290 O   0  0  0  0  0  0  0  0  0  0  0  0
   -1.0110    0.1620   -0.4650 N   0  0  0  0  0  0  0  0  0  0  0  0
   -0.9970    1.1420    0.4350 F   0  0  0  0  0  0  0  0  0  0  0  0
    0.1640   -0.2830   -0.8590 O   0  0  0  0  0  0  0  0  0  0  0  0
    1.2290   -0.0230   -0.0540 C   0  0  2  0  0  0  0  0  0  0  0  0
    2.6820   -0.7430   -0.8370 Cl  0  0  0  0  0  0  0  0  0  0  0  0
    0.9470   -0.7830    1.5400 Cl  0  0  0  0  0  0  0  0  0  0  0  0
    1.5950    1.6860    0.1680 Cl  0  0  0  0  0  0  0  0  0  0  0  0
  1  2  1  0
  2  3  1  0
  2  4  1  0
  4  5  1  0
  5  6  1  6
  5  7  1  0
  5  8  1  0
M  END
