
     RDKit          3D

  8  7  0  0  0  0  0  0  0  0999 V2000
    2.0500   -0.7910    0.5180 O   0  0  0  0  0  0  0  0  0  0  0  0
    0.8430   -1.0000   -0.0000 O   0  0  0  0  0  0  0  0  0  0  0  0
    0.2850    0.1580   -0.4370 N   0  0  0  0  0  0  0  0  0  0  0  0
    0.1720    0.1080   -1.7730 F   0  0  0  0  0  0  0  0  0  0  0  0
   -1.0030    0.3060    0.1640 C   0  0  1  0  0  0  0  0  0  0  0  0
   -0.8640    0.3530    1.9350 Cl  0  0  0  0  0  0  0  0  0  0  0  0
   -1.7440    1.8210   -0.4380 Cl  0  0  0  0  0  0  0  0  0  0  0  0
   -2.0200   -1.0980   -0.2590 Cl  0  0  0  0  0  0  0  0  0  0  0  0
  1  2  1  0
  2  3  1  0
  3  4  1  0
  3  5  1  0
  5  6  1  1
  5  7  1  0
  5  8  1  0
M  END
