
     RDKit          3D

  8  7  0  0  0  0  0  0  0  0999 V2000
    1.0730   -0.9220    1.3990 O   0  0  0  0  0  0  0  0  0  0  0  0
    0.8660   -0.0550    0.4250 N   0  0  0  0  0  0  0  0  0  0  0  0
    1.9240    0.6230    0.0070 O   0  0  0  0  0  0  0  0  0  0  0  0
    1.6520    2.2750   -0.0730 Cl  0  0  0  0  0  0  0  0  0  0  0  0
   -0.0380   -0.3560   -0.4800 O   0  0  0  0  0  0  0  0  0  0  0  0
   -1.3250    0.0260   -0.2120 C   0  0  1  0  0  0  0  0  0  0  0  0
   -1.8170    0.9780   -1.0920 F   0  0  0  0  0  0  0  0  0  0  0  0
   -2.4470   -1.3360   -0.0300 Cl  0  0  0  0  0  0  0  0  0  0  0  0
  1  2  1  0
  2  3  1  0
  2  5  1  0
  3  4  1  0
  5  6  1  0
  6  7  1  6
  6  8  1  0
M  END
