
     RDKit          3D

  9  9  0  0  0  0  0  0  0  0999 V2000
   -2.6500   -1.2930    0.3730 O   0  0  0  0  0  0  0  0  0  0  0  0
   -1.4860   -0.8020    0.2760 C   0  0  0  0  0  0  0  0  0  0  0  0
   -0.3180   -1.4750    0.7060 N   0  0  0  0  0  0  0  0  0  0  0  0
    0.8570   -0.9960    0.6160 C   0  0  0  0  0  0  0  0  0  0  0  0
    1.1250    0.3220    0.0500 C   0  0  1  0  0  0  0  0  0  0  0  0
    2.5300    0.1580   -1.5880 I   0  0  0  0  0  0  0  0  0  0  0  0
   -0.0560    1.0550   -0.4090 C   0  0  0  0  0  0  0  0  0  0  0  0
    0.1290    2.2090   -0.9100 O   0  0  0  0  0  0  0  0  0  0  0  0
   -1.3430    0.4920   -0.2930 N   0  0  0  0  0  0  0  0  0  0  0  0
  1  2  2  0
  2  3  1  0
  2  9  1  0
  3  4  2  0
  4  5  1  0
  5  6  1  6
  5  7  1  0
  7  8  2  0
  7  9  1  0
M  END
