
     RDKit          3D

 17 18  0  0  0  0  0  0  0  0999 V2000
   -2.0910    0.0300   -1.2530 N   0  0  0  0  0  0  0  0  0  0  0  0
   -2.1910   -0.6580   -0.0140 C   0  0  1  0  0  0  0  0  0  0  0  0
   -1.2760   -0.1500    1.0750 C   0  0  0  0  0  0  0  0  0  0  0  0
    0.1380   -0.2350    0.7320 C   0  0  0  0  0  0  0  0  0  0  0  0
    0.9250    0.8010    0.6180 C   0  0  0  0  0  0  0  0  0  0  0  0
    0.4080    2.1540    0.8320 C   0  0  0  0  0  0  0  0  0  0  0  0
   -0.6670    2.5330    1.2740 O   0  0  0  0  0  0  0  0  0  0  0  0
    1.4890    3.0060    0.3900 N   0  0  0  0  0  0  0  0  0  0  0  0
    2.3020    2.2310   -0.3930 O   0  0  0  0  0  0  0  0  0  0  0  0
    2.3520    1.0120    0.3090 C   0  0  2  0  0  0  0  0  0  0  0  0
    3.1330   -0.0510   -0.2780 C   0  0  0  0  0  0  0  0  0  0  0  0
    2.4940   -1.1130   -1.0860 C   0  0  0  0  0  0  0  0  0  0  0  0
    1.6430   -2.0330   -0.2600 C   0  0  0  0  0  0  0  0  0  0  0  0
    0.6450   -1.6190    0.5040 C   0  0  0  0  0  0  0  0  0  0  0  0
   -3.5810   -0.6590    0.4550 C   0  0  0  0  0  0  0  0  0  0  0  0
   -3.9040   -1.2250    1.5570 O   0  0  0  0  0  0  0  0  0  0  0  0
   -4.5570   -0.0450   -0.2910 O   0  0  0  0  0  0  0  0  0  0  0  0
  2  1  1  6
  2  3  1  0
  2 15  1  0
  3  4  1  0
  4  5  2  0
  4 14  1  0
  5  6  1  0
  5 10  1  0
  6  7  2  0
  6  8  1  0
  8  9  1  0
  9 10  1  0
 10 11  1  6
 11 12  1  0
 12 13  1  0
 13 14  2  0
 15 16  2  0
 15 17  1  0
M  CHG  1   1   1
M  END
