
     RDKit          3D

 22 24  0  0  0  0  0  0  0  0999 V2000
    5.3130   -0.0320    1.1020 C   0  0  0  0  0  0  0  0  0  0  0  0
    4.0390   -0.0350    0.3150 C   0  0  0  0  0  0  0  0  0  0  0  0
    2.9520   -0.4670    1.1100 O   0  0  0  0  0  0  0  0  0  0  0  0
    1.6850   -0.5270    0.5200 C   0  0  0  0  0  0  0  0  0  0  0  0
    0.8490    0.5610    0.5520 C   0  0  0  0  0  0  0  0  0  0  0  0
    1.2710    1.7260    1.1770 O   0  0  0  0  0  0  0  0  0  0  0  0
    0.3890    2.8260    1.1930 C   0  0  0  0  0  0  0  0  0  0  0  0
   -0.3730    0.4480   -0.0370 C   0  0  0  0  0  0  0  0  0  0  0  0
   -0.8000   -0.7060   -0.6590 C   0  0  0  0  0  0  0  0  0  0  0  0
   -2.1320   -0.7000   -1.2540 C   0  0  1  0  0  0  0  0  0  0  0  0
   -1.9910   -0.9830   -2.6130 O   0  0  0  0  0  0  0  0  0  0  0  0
   -3.0960   -1.6770   -0.6850 C   0  0  0  0  0  0  0  0  0  0  0  0
   -3.6020   -0.9120    0.4280 O   0  0  0  0  0  0  0  0  0  0  0  0
   -3.7210    0.4140   -0.0460 C   0  0  0  0  0  0  0  0  0  0  0  0
   -4.3800    1.6140    0.1210 C   0  0  0  0  0  0  0  0  0  0  0  0
   -3.9080    2.4360   -0.7630 O   0  0  0  0  0  0  0  0  0  0  0  0
   -2.9970    1.9010   -1.5060 C   0  0  0  0  0  0  0  0  0  0  0  0
   -2.8370    0.5970   -1.0850 C   0  0  0  0  0  0  0  0  0  0  0  0
    0.0510   -1.7810   -0.6800 C   0  0  0  0  0  0  0  0  0  0  0  0
   -0.3500   -2.9330   -1.2900 O   0  0  0  0  0  0  0  0  0  0  0  0
    1.3080   -1.7140   -0.0920 C   0  0  0  0  0  0  0  0  0  0  0  0
    2.2010   -2.7600   -0.0830 O   0  0  0  0  0  0  0  0  0  0  0  0
  1  2  1  0
  2  3  1  0
  3  4  1  0
  4  5  2  0
  4 21  1  0
  5  6  1  0
  5  8  1  0
  6  7  1  0
  8  9  2  0
  9 10  1  0
  9 19  1  0
 10 11  1  6
 10 12  1  0
 10 18  1  0
 12 13  1  0
 13 14  1  0
 14 15  2  0
 14 18  1  0
 15 16  1  0
 16 17  1  0
 17 18  2  0
 19 20  1  0
 19 21  2  0
 21 22  1  0
M  END
