
     RDKit          3D

 17 18  0  0  0  0  0  0  0  0999 V2000
   -3.1200   -1.9940    1.2590 C   0  0  0  0  0  0  0  0  0  0  0  0
   -2.0990   -1.2010    0.7930 O   0  0  0  0  0  0  0  0  0  0  0  0
   -2.6070    0.0120    0.4110 C   0  0  0  0  0  0  0  0  0  0  0  0
   -1.5330    0.9290   -0.1110 C   0  0  0  0  0  0  0  0  0  0  0  0
   -1.8420    2.1660   -0.5340 N   0  0  0  0  0  0  0  0  0  0  0  0
   -0.9280    3.0070   -1.0010 N   0  0  0  0  0  0  0  0  0  0  0  0
    0.3550    2.6490   -1.0690 C   0  0  0  0  0  0  0  0  0  0  0  0
    1.5390    3.6130   -1.6260 S   0  0  0  0  0  0  0  0  0  0  0  0
    0.7050    1.3890   -0.6440 C   0  0  0  0  0  0  0  0  0  0  0  0
    1.8880    0.6840   -0.5640 C   0  0  0  0  0  0  0  0  0  0  0  0
    3.1380    1.2440   -0.9770 N   0  0  0  0  0  0  0  0  0  0  0  0
    1.6410   -0.5690   -0.0460 C   0  0  0  0  0  0  0  0  0  0  0  0
    2.6620   -1.5820    0.1780 C   0  0  0  0  0  0  0  0  0  0  0  0
    2.3680   -2.8580    0.7120 N   0  0  0  0  0  0  0  0  0  0  0  0
    3.8720   -1.3470   -0.1050 O   0  0  0  0  0  0  0  0  0  0  0  0
    0.3310   -0.6060    0.1780 N   0  0  0  0  0  0  0  0  0  0  0  0
   -0.2430    0.5570   -0.1750 N   0  0  0  0  0  0  0  0  0  0  0  0
  1  2  1  0
  2  3  1  0
  3  4  1  0
  4  5  2  0
  4 17  1  0
  5  6  1  0
  6  7  1  0
  7  8  2  0
  7  9  1  0
  9 10  2  0
  9 17  1  0
 10 11  1  0
 10 12  1  0
 12 13  1  0
 12 16  2  0
 13 14  1  0
 13 15  2  0
 16 17  1  0
M  END
