
     RDKit          3D

 22 23  0  0  0  0  0  0  0  0999 V2000
   -2.6470    2.0630   -1.5740 C   0  0  0  0  0  0  0  0  0  0  0  0
   -2.4950    0.6720   -1.8710 O   0  0  0  0  0  0  0  0  0  0  0  0
   -2.6880   -0.2190   -0.8350 C   0  0  0  0  0  0  0  0  0  0  0  0
   -1.6050   -0.5710   -0.0680 C   0  0  0  0  0  0  0  0  0  0  0  0
   -0.2930    0.0100   -0.3780 C   0  0  0  0  0  0  0  0  0  0  0  0
    0.7300   -0.4190    0.4660 O   0  0  0  0  0  0  0  0  0  0  0  0
    2.0080    0.0760    0.2510 C   0  0  0  0  0  0  0  0  0  0  0  0
    2.9120   -0.5490   -0.5860 C   0  0  0  0  0  0  0  0  0  0  0  0
    2.4990   -1.7990   -1.2820 C   0  0  0  0  0  0  0  0  0  0  0  0
    4.1750   -0.0720   -0.8060 C   0  0  0  0  0  0  0  0  0  0  0  0
    5.0210   -0.7510   -1.6560 O   0  0  0  0  0  0  0  0  0  0  0  0
    4.5980    1.0840   -0.1810 C   0  0  0  0  0  0  0  0  0  0  0  0
    3.7050    1.7280    0.6650 C   0  0  0  0  0  0  0  0  0  0  0  0
    4.0860    2.8930    1.3160 O   0  0  0  0  0  0  0  0  0  0  0  0
    2.4350    1.2290    0.8730 C   0  0  0  0  0  0  0  0  0  0  0  0
    1.5970    1.9080    1.7200 O   0  0  0  0  0  0  0  0  0  0  0  0
   -1.8520   -1.4670    0.9580 C   0  0  0  0  0  0  0  0  0  0  0  0
   -3.1070   -1.9830    1.2060 C   0  0  0  0  0  0  0  0  0  0  0  0
   -4.1880   -1.6050    0.4070 C   0  0  0  0  0  0  0  0  0  0  0  0
   -5.4430   -2.1150    0.6470 O   0  0  0  0  0  0  0  0  0  0  0  0
   -3.9550   -0.7170   -0.6130 C   0  0  0  0  0  0  0  0  0  0  0  0
   -4.9730   -0.2990   -1.4420 O   0  0  0  0  0  0  0  0  0  0  0  0
  1  2  1  0
  2  3  1  0
  3  4  2  0
  3 21  1  0
  4  5  1  0
  4 17  1  0
  5  6  1  0
  6  7  1  0
  7  8  2  0
  7 15  1  0
  8  9  1  0
  8 10  1  0
 10 11  1  0
 10 12  2  0
 12 13  1  0
 13 14  1  0
 13 15  2  0
 15 16  1  0
 17 18  2  0
 18 19  1  0
 19 20  1  0
 19 21  2  0
 21 22  1  0
M  END
