
     RDKit          3D

 22 23  0  0  0  0  0  0  0  0999 V2000
    0.9870   -0.1960    2.5650 C   0  0  0  0  0  0  0  0  0  0  0  0
    1.0870    0.2270    1.0960 C   0  0  1  0  0  0  0  0  0  0  0  0
    2.0440   -0.5010    0.4250 O   0  0  0  0  0  0  0  0  0  0  0  0
    3.1460   -0.0230   -0.1900 C   0  0  0  0  0  0  0  0  0  0  0  0
    3.4780    1.3040   -0.2340 C   0  0  0  0  0  0  0  0  0  0  0  0
    4.6230    1.7440   -0.8800 C   0  0  0  0  0  0  0  0  0  0  0  0
    5.4410    0.8230   -1.4890 C   0  0  0  0  0  0  0  0  0  0  0  0
    5.1270   -0.5250   -1.4590 C   0  0  0  0  0  0  0  0  0  0  0  0
    3.9870   -0.9300   -0.8110 C   0  0  0  0  0  0  0  0  0  0  0  0
    3.6740   -2.2830   -0.7820 O   0  0  0  0  0  0  0  0  0  0  0  0
   -0.2640   -0.0780    0.5050 C   0  0  0  0  0  0  0  0  0  0  0  0
   -0.3160   -0.8870   -0.4390 O   0  0  0  0  0  0  0  0  0  0  0  0
   -1.3880    0.5260    1.0040 O   0  0  0  0  0  0  0  0  0  0  0  0
   -2.6380    0.2530    0.4670 C   0  0  0  0  0  0  0  0  0  0  0  0
   -3.3880   -0.7980    0.9990 C   0  0  0  0  0  0  0  0  0  0  0  0
   -4.6310   -1.1130    0.5060 C   0  0  0  0  0  0  0  0  0  0  0  0
   -5.3820   -2.1470    1.0220 O   0  0  0  0  0  0  0  0  0  0  0  0
   -5.1150   -0.3480   -0.5410 C   0  0  0  0  0  0  0  0  0  0  0  0
   -6.3630   -0.6650   -1.0360 O   0  0  0  0  0  0  0  0  0  0  0  0
   -4.3770    0.6870   -1.0660 C   0  0  0  0  0  0  0  0  0  0  0  0
   -3.1270    1.0010   -0.5680 C   0  0  0  0  0  0  0  0  0  0  0  0
   -2.4250    2.0430   -1.1220 O   0  0  0  0  0  0  0  0  0  0  0  0
  2  1  1  1
  2  3  1  0
  2 11  1  0
  3  4  1  0
  4  5  2  0
  4  9  1  0
  5  6  1  0
  6  7  2  0
  7  8  1  0
  8  9  2  0
  9 10  1  0
 11 12  2  0
 11 13  1  0
 13 14  1  0
 14 15  2  0
 14 21  1  0
 15 16  1  0
 16 17  1  0
 16 18  2  0
 18 19  1  0
 18 20  1  0
 20 21  2  0
 21 22  1  0
M  END
