
     RDKit          3D

 22 24  0  0  0  0  0  0  0  0999 V2000
   -2.3380   -1.9790    0.4920 O   0  0  0  0  0  0  0  0  0  0  0  0
   -2.9470   -0.9320    0.6830 C   0  0  0  0  0  0  0  0  0  0  0  0
   -3.9410   -0.9170    1.6970 O   0  0  0  0  0  0  0  0  0  0  0  0
   -2.7090    0.2840   -0.0660 C   0  0  0  0  0  0  0  0  0  0  0  0
   -3.5220    1.4050    0.2230 C   0  0  0  0  0  0  0  0  0  0  0  0
   -3.3730    2.5810   -0.4660 C   0  0  0  0  0  0  0  0  0  0  0  0
   -2.4180    2.6680   -1.4530 C   0  0  0  0  0  0  0  0  0  0  0  0
   -1.6510    1.6000   -1.7210 C   0  0  0  0  0  0  0  0  0  0  0  0
   -1.7650    0.3570   -1.0340 C   0  0  0  0  0  0  0  0  0  0  0  0
   -0.9150   -0.5940   -1.4360 O   0  0  0  0  0  0  0  0  0  0  0  0
    0.0940   -1.3190   -0.9100 C   0  0  0  0  0  0  0  0  0  0  0  0
    0.1040   -2.6950   -0.9760 C   0  0  0  0  0  0  0  0  0  0  0  0
    1.1440   -3.4060   -0.4320 C   0  0  0  0  0  0  0  0  0  0  0  0
    2.1980   -2.7320    0.1910 C   0  0  0  0  0  0  0  0  0  0  0  0
    3.2310   -3.4880    0.7290 O   0  0  0  0  0  0  0  0  0  0  0  0
    2.2050   -1.3540    0.2670 C   0  0  0  0  0  0  0  0  0  0  0  0
    1.1640   -0.6430   -0.2780 C   0  0  0  0  0  0  0  0  0  0  0  0
    1.4320    0.7000   -0.0580 O   0  0  0  0  0  0  0  0  0  0  0  0
    2.8130    0.7900    0.1570 C   0  0  1  0  0  0  0  0  0  0  0  0
    3.2080    1.9940    0.9780 C   0  0  0  0  0  0  0  0  0  0  0  0
    2.6400    2.0050    2.2270 O   0  0  0  0  0  0  0  0  0  0  0  0
    3.1070   -0.4240    0.8190 O   0  0  0  0  0  0  0  0  0  0  0  0
  1  2  2  0
  2  3  1  0
  2  4  1  0
  4  5  2  0
  4  9  1  0
  5  6  1  0
  6  7  2  0
  7  8  1  0
  8  9  2  0
  9 10  1  0
 10 11  1  0
 11 12  2  0
 11 17  1  0
 12 13  1  0
 13 14  2  0
 14 15  1  0
 14 16  1  0
 16 17  2  0
 16 22  1  0
 17 18  1  0
 18 19  1  0
 19 20  1  1
 19 22  1  0
 20 21  1  0
M  END
