
     RDKit          3D

 27 28  0  0  0  0  0  0  0  0999 V2000
    5.4650    0.5140    0.9580 C   0  0  0  0  0  0  0  0  0  0  0  0
    4.2640   -0.0540    1.3630 O   0  0  0  0  0  0  0  0  0  0  0  0
    3.3090   -0.0730    0.3820 C   0  0  1  0  0  0  0  0  0  0  0  0
    2.8560   -1.4440   -0.0050 C   0  0  0  0  0  0  0  0  0  0  0  0
    1.5320   -1.8080    0.6860 C   0  0  1  0  0  0  0  0  0  0  0  0
    0.4110   -0.9490    0.2050 C   0  0  0  0  0  0  0  0  0  0  0  0
    0.8820    0.4770   -0.0080 C   0  0  2  0  0  0  0  0  0  0  0  0
    1.2870    0.6160   -1.3110 O   0  0  0  0  0  0  0  0  0  0  0  0
    2.1130    0.7030    0.8600 C   0  0  0  0  0  0  0  0  0  0  0  0
   -0.1200    1.4830    0.4510 C   0  0  1  0  0  0  0  0  0  0  0  0
   -0.8620    1.9010   -0.6420 O   0  0  0  0  0  0  0  0  0  0  0  0
   -0.7810    3.2240   -0.9560 C   0  0  0  0  0  0  0  0  0  0  0  0
    0.6170    3.6030   -1.3500 C   0  0  0  0  0  0  0  0  0  0  0  0
    0.7080    4.9660   -1.6700 O   0  0  0  0  0  0  0  0  0  0  0  0
   -1.0820    0.9730    1.4070 N   0  0  0  0  0  0  0  0  0  0  0  0
   -2.4490    0.7100    1.2040 C   0  0  0  0  0  0  0  0  0  0  0  0
   -3.3060    0.9230    2.1080 O   0  0  0  0  0  0  0  0  0  0  0  0
   -3.0530    0.1700   -0.0450 C   0  0  2  0  0  0  0  0  0  0  0  0
   -4.1740    1.0940   -0.4870 C   0  0  0  0  0  0  0  0  0  0  0  0
   -4.7140    0.5590   -1.6530 O   0  0  0  0  0  0  0  0  0  0  0  0
   -3.8000   -1.4320    0.3410 S   0  0  0  0  0  0  0  0  0  0  0  0
   -3.4390   -2.6460   -0.9610 C   0  0  0  0  0  0  0  0  0  0  0  0
   -2.8560   -3.8660   -0.2890 C   0  0  0  0  0  0  0  0  0  0  0  0
   -1.4810   -3.3110    0.7520 S   0  0  0  0  0  0  0  0  0  0  0  0
    0.0820   -3.8010    0.0380 C   0  0  0  0  0  0  0  0  0  0  0  0
    0.0280   -4.7190   -0.8240 O   0  0  0  0  0  0  0  0  0  0  0  0
    1.3220   -3.2090    0.3990 N   0  0  0  0  0  0  0  0  0  0  0  0
  1  2  1  0
  3  2  1  1
  3  4  1  0
  3  9  1  0
  5  4  1  6
  5  6  1  0
  5 27  1  0
  6  7  1  0
  7  8  1  6
  7  9  1  0
  7 10  1  0
 10 11  1  6
 10 15  1  0
 11 12  1  0
 12 13  1  0
 13 14  1  0
 15 16  1  0
 16 17  2  0
 16 18  1  0
 18 19  1  1
 18 21  1  0
 19 20  1  0
 21 22  1  0
 22 23  1  0
 23 24  1  0
 24 25  1  0
 25 26  2  0
 25 27  1  0
M  END
