
     RDKit          3D

 28 29  0  0  0  0  0  0  0  0999 V2000
    5.7860    2.2230   -1.2590 C   0  0  0  0  0  0  0  0  0  0  0  0
    5.4370    1.3150   -0.1000 C   0  0  1  0  0  0  0  0  0  0  0  0
    4.4840    0.4160   -0.3440 O   0  0  0  0  0  0  0  0  0  0  0  0
    4.8770   -0.8530   -0.5020 C   0  0  2  0  0  0  0  0  0  0  0  0
    3.7540   -1.7670   -0.0570 C   0  0  1  0  0  0  0  0  0  0  0  0
    3.4940   -1.6970    1.3020 O   0  0  0  0  0  0  0  0  0  0  0  0
    2.4690   -1.5090   -0.8500 C   0  0  0  0  0  0  0  0  0  0  0  0
    1.9780    0.2050   -0.5830 S   0  0  0  0  0  0  0  0  0  0  0  0
    1.4530    0.5100    1.1060 C   0  0  0  0  0  0  0  0  0  0  0  0
    0.1680   -0.1790    1.3560 C   0  0  0  0  0  0  0  0  0  0  0  0
   -0.3300   -0.1890    2.5270 O   0  0  0  0  0  0  0  0  0  0  0  0
   -0.4980   -0.8200    0.2910 N   0  0  0  0  0  0  0  0  0  0  0  0
   -1.7520   -1.4930    0.5440 C   0  0  2  0  0  0  0  0  0  0  0  0
   -1.5660   -3.0120    0.4630 C   0  0  0  0  0  0  0  0  0  0  0  0
   -2.7350   -1.0320   -0.5040 C   0  0  2  0  0  0  0  0  0  0  0  0
   -2.2810   -1.3670   -1.7840 O   0  0  0  0  0  0  0  0  0  0  0  0
   -2.9420    0.4520   -0.3750 C   0  0  2  0  0  0  0  0  0  0  0  0
   -3.4870    0.8610    0.9410 C   0  0  0  0  0  0  0  0  0  0  0  0
   -4.9090    0.4020    1.1640 C   0  0  0  0  0  0  0  0  0  0  0  0
   -5.5660    0.1180   -0.0220 O   0  0  0  0  0  0  0  0  0  0  0  0
   -5.2610    0.9340   -1.0750 C   0  0  1  0  0  0  0  0  0  0  0  0
   -5.8470    2.3100   -0.8290 C   0  0  0  0  0  0  0  0  0  0  0  0
   -7.2530    2.2150   -0.6980 O   0  0  0  0  0  0  0  0  0  0  0  0
   -3.8310    0.9850   -1.4880 C   0  0  0  0  0  0  0  0  0  0  0  0
    6.0820   -1.1800    0.1310 N   0  0  0  0  0  0  0  0  0  0  0  0
    6.8260    0.3460    0.4220 S   0  0  2  0  0  0  0  0  0  0  0  0
    7.1650    0.5480    1.8670 O   0  0  0  0  0  0  0  0  0  0  0  0
    8.0150    0.5570   -0.4680 O   0  0  0  0  0  0  0  0  0  0  0  0
  2  1  1  6
  2  3  1  0
  2 26  1  0
  3  4  1  0
  4  5  1  0
  4 25  1  1
  5  6  1  1
  5  7  1  0
  7  8  1  0
  8  9  1  0
  9 10  1  0
 10 11  2  0
 10 12  1  0
 12 13  1  0
 13 14  1  6
 13 15  1  0
 15 16  1  6
 15 17  1  0
 17 18  1  1
 17 24  1  0
 18 19  1  0
 19 20  1  0
 20 21  1  0
 21 22  1  1
 21 24  1  0
 22 23  1  0
 26 25  1  1
 26 27  2  0
 26 28  2  0
M  END
