
     RDKit          3D

 28 30  0  0  0  0  0  0  0  0999 V2000
   -1.5530   -2.3440   -0.3870 C   0  0  0  0  0  0  0  0  0  0  0  0
   -1.7850   -1.3660   -1.4880 C   0  0  1  0  0  0  0  0  0  0  0  0
   -3.3030   -1.2350   -1.6360 C   0  0  0  0  0  0  0  0  0  0  0  0
   -3.8240    0.0170   -1.0140 C   0  0  0  0  0  0  0  0  0  0  0  0
   -3.1330    0.4610    0.2280 C   0  0  1  0  0  0  0  0  0  0  0  0
   -3.5960    1.8960    0.5150 C   0  0  0  0  0  0  0  0  0  0  0  0
   -4.9270    1.6570    1.0230 N   0  0  0  0  0  0  0  0  0  0  0  0
   -4.9180    0.3450    1.5670 C   0  0  0  0  0  0  0  0  0  0  0  0
   -5.8970   -0.1830    2.1550 O   0  0  0  0  0  0  0  0  0  0  0  0
   -3.6550   -0.2350    1.3330 O   0  0  0  0  0  0  0  0  0  0  0  0
   -1.6250    0.4100    0.1520 C   0  0  0  0  0  0  0  0  0  0  0  0
   -1.2660    0.0120   -1.2590 C   0  0  1  0  0  0  0  0  0  0  0  0
    0.1400    0.2520   -1.6340 C   0  0  2  0  0  0  0  0  0  0  0  0
    0.2560   -0.0200   -3.0150 O   0  0  0  0  0  0  0  0  0  0  0  0
    1.1810   -0.4440   -0.9030 C   0  0  0  0  0  0  0  0  0  0  0  0
    2.0520   -1.2040   -1.3880 O   0  0  0  0  0  0  0  0  0  0  0  0
    1.2440   -0.2670    0.4800 O   0  0  0  0  0  0  0  0  0  0  0  0
    2.2050   -0.8880    1.2810 C   0  0  2  0  0  0  0  0  0  0  0  0
    1.6300   -1.8620    2.2760 C   0  0  0  0  0  0  0  0  0  0  0  0
    3.1510    0.0870    1.9500 C   0  0  1  0  0  0  0  0  0  0  0  0
    4.0430   -0.6730    2.7080 O   0  0  0  0  0  0  0  0  0  0  0  0
    3.9700    0.8120    0.8930 C   0  0  0  0  0  0  0  0  0  0  0  0
    3.9190    2.0530    0.7810 N   0  0  0  0  0  0  0  0  0  0  0  0
    4.8740    2.7410   -0.4270 S   0  0  1  0  0  0  0  0  0  0  0  0
    4.0740    3.2710   -1.5750 O   0  0  0  0  0  0  0  0  0  0  0  0
    5.7100    3.8330    0.2100 O   0  0  0  0  0  0  0  0  0  0  0  0
    5.9730    1.4200   -0.9600 C   0  0  0  0  0  0  0  0  0  0  0  0
    5.0630    0.0100   -0.2720 S   0  0  0  0  0  0  0  0  0  0  0  0
  2  1  1  1
  2  3  1  0
  2 12  1  0
  3  4  1  0
  5  4  1  6
  5  6  1  0
  5 10  1  0
  5 11  1  0
  6  7  1  0
  7  8  1  0
  8  9  2  0
  8 10  1  0
 12 11  1  1
 12 13  1  0
 13 14  1  6
 13 15  1  0
 15 16  2  0
 15 17  1  0
 17 18  1  0
 18 19  1  1
 18 20  1  0
 20 21  1  1
 20 22  1  0
 22 23  2  0
 22 28  1  0
 23 24  1  0
 24 25  2  0
 24 26  2  0
 24 27  1  6
 27 28  1  0
M  END
