
     RDKit          3D

 27 29  0  0  0  0  0  0  0  0999 V2000
    8.1160    1.7350    0.0820 C   0  0  0  0  0  0  0  0  0  0  0  0
    6.7780    1.3170   -0.0850 O   0  0  0  0  0  0  0  0  0  0  0  0
    6.5050    0.0280   -0.5040 C   0  0  0  0  0  0  0  0  0  0  0  0
    7.4710   -0.7400   -0.7250 O   0  0  0  0  0  0  0  0  0  0  0  0
    5.1220   -0.4320   -0.6860 C   0  0  1  0  0  0  0  0  0  0  0  0
    5.1000   -2.1860   -1.2480 S   0  0  0  0  0  0  0  0  0  0  0  0
    3.7690   -2.7380   -0.1870 C   0  0  0  0  0  0  0  0  0  0  0  0
    3.2810   -4.0450   -0.0860 S   0  0  0  0  0  0  0  0  0  0  0  0
    3.3170   -1.5470    0.5320 C   0  0  2  0  0  0  0  0  0  0  0  0
    2.1920   -0.8880   -0.1050 N   0  0  0  0  0  0  0  0  0  0  0  0
    0.9530   -0.7180    0.5730 C   0  0  0  0  0  0  0  0  0  0  0  0
    0.8840   -1.1680    1.7520 O   0  0  0  0  0  0  0  0  0  0  0  0
   -0.1770   -0.0860    0.0090 N   0  0  0  0  0  0  0  0  0  0  0  0
   -1.4240    0.0750    0.7160 C   0  0  0  0  0  0  0  0  0  0  0  0
   -2.4680    0.7870   -0.1180 C   0  0  2  0  0  0  0  0  0  0  0  0
   -1.8310    2.1100   -0.5120 C   0  0  0  0  0  0  0  0  0  0  0  0
   -3.6330    1.1120    0.7810 C   0  0  0  0  0  0  0  0  0  0  0  0
   -4.9040    0.4530    0.3630 C   0  0  2  0  0  0  0  0  0  0  0  0
   -5.6380    1.1380   -0.7350 C   0  0  0  0  0  0  0  0  0  0  0  0
   -5.7680    0.1150    1.3620 O   0  0  0  0  0  0  0  0  0  0  0  0
   -6.4110   -1.0470    0.9390 C   0  0  0  0  0  0  0  0  0  0  0  0
   -5.7980   -1.4600   -0.2430 O   0  0  0  0  0  0  0  0  0  0  0  0
   -4.5110   -0.9670   -0.0860 C   0  0  1  0  0  0  0  0  0  0  0  0
   -3.7240   -0.8040   -1.3100 C   0  0  0  0  0  0  0  0  0  0  0  0
   -2.7780    0.1430   -1.2730 O   0  0  0  0  0  0  0  0  0  0  0  0
    4.4720   -0.5940    0.6780 C   0  0  1  0  0  0  0  0  0  0  0  0
    5.3730   -0.9680    1.6450 O   0  0  0  0  0  0  0  0  0  0  0  0
  1  2  1  0
  2  3  1  0
  3  4  2  0
  5  3  1  1
  5  6  1  0
  5 26  1  0
  6  7  1  0
  7  8  2  0
  7  9  1  0
  9 10  1  6
  9 26  1  0
 10 11  1  0
 11 12  2  0
 11 13  1  0
 13 14  1  0
 14 15  1  0
 15 16  1  6
 15 17  1  0
 15 25  1  0
 17 18  1  0
 18 19  1  6
 18 20  1  0
 18 23  1  0
 20 21  1  0
 21 22  1  0
 22 23  1  0
 23 24  1  6
 24 25  1  0
 26 27  1  1
M  END
