
     RDKit          3D

 28 30  0  0  0  0  0  0  0  0999 V2000
   -3.9190    3.2450   -0.3940 C   0  0  0  0  0  0  0  0  0  0  0  0
   -2.9420    2.8490    0.6470 C   0  0  0  0  0  0  0  0  0  0  0  0
   -2.8630    3.7670    2.0150 S   0  0  0  0  0  0  0  0  0  0  0  0
   -2.1030    1.7300    0.4870 N   0  0  0  0  0  0  0  0  0  0  0  0
   -2.1490    0.9050   -0.6960 C   0  0  1  0  0  0  0  0  0  0  0  0
   -1.0730   -0.1570   -0.5690 C   0  0  2  0  0  0  0  0  0  0  0  0
    0.1890    0.3160   -0.8480 O   0  0  0  0  0  0  0  0  0  0  0  0
    1.0550    0.1340    0.2540 C   0  0  2  0  0  0  0  0  0  0  0  0
    1.5620    1.4980    0.6560 C   0  0  1  0  0  0  0  0  0  0  0  0
    1.6460    1.5450    2.1500 C   0  0  0  0  0  0  0  0  0  0  0  0
    2.0540    2.7870    2.6310 O   0  0  0  0  0  0  0  0  0  0  0  0
    2.7700    1.7630    0.0220 O   0  0  0  0  0  0  0  0  0  0  0  0
    3.7230    0.9520    0.5910 C   0  0  2  0  0  0  0  0  0  0  0  0
    5.3440    1.1170   -0.2190 S   0  0  0  0  0  0  0  0  0  0  0  0
    5.4280   -0.5800   -0.7870 C   0  0  0  0  0  0  0  0  0  0  0  0
    6.5490   -1.0810   -1.6450 C   0  0  0  0  0  0  0  0  0  0  0  0
    4.4310   -1.1460   -0.3310 N   0  0  0  0  0  0  0  0  0  0  0  0
    3.4960   -0.5090    0.4520 C   0  0  2  0  0  0  0  0  0  0  0  0
    2.1200   -0.8120   -0.1630 C   0  0  1  0  0  0  0  0  0  0  0  0
    1.8090   -2.1190    0.2580 O   0  0  0  0  0  0  0  0  0  0  0  0
   -1.4420   -1.1920   -1.4590 O   0  0  0  0  0  0  0  0  0  0  0  0
   -2.3030   -2.0260   -0.7280 C   0  0  2  0  0  0  0  0  0  0  0  0
   -2.8520   -3.1390   -1.5770 C   0  0  0  0  0  0  0  0  0  0  0  0
   -3.6890   -3.9050   -0.7670 O   0  0  0  0  0  0  0  0  0  0  0  0
   -3.3960   -1.1930   -0.0940 C   0  0  1  0  0  0  0  0  0  0  0  0
   -3.2330   -1.0430    1.2770 O   0  0  0  0  0  0  0  0  0  0  0  0
   -3.4870    0.1790   -0.7360 C   0  0  2  0  0  0  0  0  0  0  0  0
   -4.0050    0.1020   -2.0270 O   0  0  0  0  0  0  0  0  0  0  0  0
  1  2  1  0
  2  3  2  0
  2  4  1  0
  5  4  1  1
  5  6  1  0
  5 27  1  0
  6  7  1  6
  6 21  1  0
  8  7  1  6
  8  9  1  0
  8 19  1  0
  9 10  1  1
  9 12  1  0
 10 11  1  0
 13 12  1  6
 13 14  1  0
 13 18  1  0
 14 15  1  0
 15 16  1  0
 15 17  2  0
 18 17  1  6
 18 19  1  0
 19 20  1  1
 21 22  1  0
 22 23  1  6
 22 25  1  0
 23 24  1  0
 25 26  1  1
 25 27  1  0
 27 28  1  6
M  END
