
     RDKit          3D

 28 29  0  0  0  0  0  0  0  0999 V2000
    9.8220   -0.4970   -0.7790 O   0  0  0  0  0  0  0  0  0  0  0  0
    8.9280    0.1950   -1.3570 C   0  0  0  0  0  0  0  0  0  0  0  0
    9.3960    1.1730   -2.7570 S   0  0  0  0  0  0  0  0  0  0  0  0
    7.5960    0.1510   -0.8540 N   0  0  0  0  0  0  0  0  0  0  0  0
    7.2580   -0.6440    0.2670 C   0  0  0  0  0  0  0  0  0  0  0  0
    8.1630   -1.3160    0.8150 O   0  0  0  0  0  0  0  0  0  0  0  0
    5.8780   -0.6940    0.7930 C   0  0  2  0  0  0  0  0  0  0  0  0
    5.8360   -1.5660    1.9010 O   0  0  0  0  0  0  0  0  0  0  0  0
    4.9390   -1.2720   -0.2370 C   0  0  0  0  0  0  0  0  0  0  0  0
    3.5960   -1.3660    0.2720 N   0  0  0  0  0  0  0  0  0  0  0  0
    2.8290   -0.2570    0.7170 C   0  0  0  0  0  0  0  0  0  0  0  0
    3.3370    0.9000    0.6720 O   0  0  0  0  0  0  0  0  0  0  0  0
    1.4670   -0.4270    1.2260 C   0  0  1  0  0  0  0  0  0  0  0  0
    0.4020    0.2690    0.3780 C   0  0  0  0  0  0  0  0  0  0  0  0
   -0.8300   -0.2870    1.0900 C   0  0  1  0  0  0  0  0  0  0  0  0
   -1.0960    0.5680    2.1550 O   0  0  0  0  0  0  0  0  0  0  0  0
   -2.0350   -0.3150    0.1590 C   0  0  0  0  0  0  0  0  0  0  0  0
   -3.1610   -0.8820    0.9790 C   0  0  0  0  0  0  0  0  0  0  0  0
   -4.7140   -1.1230    0.1820 S   0  0  0  0  0  0  0  0  0  0  0  0
   -5.5130    0.3630   -0.3370 C   0  0  1  0  0  0  0  0  0  0  0  0
   -4.9070    1.0410   -1.5360 C   0  0  0  0  0  0  0  0  0  0  0  0
   -5.3190    2.5030   -1.4590 C   0  0  0  0  0  0  0  0  0  0  0  0
   -6.5880    2.5430   -0.8640 O   0  0  0  0  0  0  0  0  0  0  0  0
   -7.4170    1.5110   -1.2940 C   0  0  0  0  0  0  0  0  0  0  0  0
   -6.9990    0.1700   -0.6820 C   0  0  1  0  0  0  0  0  0  0  0  0
   -7.0550   -0.8330   -1.6450 O   0  0  0  0  0  0  0  0  0  0  0  0
   -0.3450   -1.6330    1.4960 C   0  0  0  0  0  0  0  0  0  0  0  0
    1.0120   -1.7200    1.2170 O   0  0  0  0  0  0  0  0  0  0  0  0
  1  2  2  0
  2  3  1  0
  2  4  1  0
  4  5  1  0
  5  6  2  0
  5  7  1  0
  7  8  1  1
  7  9  1  0
  9 10  1  0
 10 11  1  0
 11 12  2  0
 13 11  1  6
 13 14  1  0
 13 28  1  0
 14 15  1  0
 15 16  1  1
 15 17  1  0
 15 27  1  0
 17 18  1  0
 18 19  1  0
 20 19  1  6
 20 21  1  0
 20 25  1  0
 21 22  1  0
 22 23  1  0
 23 24  1  0
 24 25  1  0
 25 26  1  6
 27 28  1  0
M  END
