
     RDKit          3D

 10 10  0  0  0  0  0  0  0  0999 V2000
   -3.5400   -0.4430    0.9030 O   0  0  0  0  0  0  0  0  0  0  0  0
   -2.4150    0.2690    0.4240 C   0  0  0  0  0  0  0  0  0  0  0  0
   -1.5640   -0.7210   -0.3100 C   0  0  0  0  0  0  0  0  0  0  0  0
   -0.3190   -0.1740   -0.8980 C   0  0  0  0  0  0  0  0  0  0  0  0
    0.6480    0.4340    0.0530 C   0  0  1  0  0  0  0  0  0  0  0  0
    0.2130    1.5090    0.8030 O   0  0  0  0  0  0  0  0  0  0  0  0
    1.4270   -0.5310    0.9170 C   0  0  0  0  0  0  0  0  0  0  0  0
    2.3150   -0.7270   -0.2080 N   0  0  0  0  0  0  0  0  0  0  0  0
    1.9930    0.6250   -0.6150 C   0  0  2  0  0  0  0  0  0  0  0  0
    2.8380    1.5220    0.0300 O   0  0  0  0  0  0  0  0  0  0  0  0
  1  2  1  0
  2  3  1  0
  3  4  1  0
  4  5  1  0
  5  6  1  1
  5  7  1  0
  5  9  1  0
  7  8  1  0
  8  9  1  0
  9 10  1  1
M  END
