
     RDKit          3D

 27 28  0  0  0  0  0  0  0  0999 V2000
    0.1560    4.2890    0.4180 N   0  0  0  0  0  0  0  0  0  0  0  0
    0.3370    2.9630   -0.1220 C   0  0  2  0  0  0  0  0  0  0  0  0
   -0.9540    2.1890   -0.2350 C   0  0  0  0  0  0  0  0  0  0  0  0
   -1.0030    1.4410   -1.4200 O   0  0  0  0  0  0  0  0  0  0  0  0
   -1.4990    0.1660   -1.5530 C   0  0  0  0  0  0  0  0  0  0  0  0
   -1.1180   -0.5570   -2.4900 O   0  0  0  0  0  0  0  0  0  0  0  0
   -2.4810   -0.3370   -0.5830 C   0  0  1  0  0  0  0  0  0  0  0  0
   -3.6980    0.5380   -0.5990 C   0  0  0  0  0  0  0  0  0  0  0  0
   -4.9860   -0.1610   -0.3370 C   0  0  0  0  0  0  0  0  0  0  0  0
   -4.9950   -0.8900    1.0030 C   0  0  0  0  0  0  0  0  0  0  0  0
   -3.7380   -2.2190    0.8290 S   0  0  0  0  0  0  0  0  0  0  0  0
   -2.8200   -1.7800   -0.7020 C   0  0  2  0  0  0  0  0  0  0  0  0
   -1.7190   -2.6920   -0.9650 C   0  0  0  0  0  0  0  0  0  0  0  0
   -1.5600   -3.1230   -2.1670 O   0  0  0  0  0  0  0  0  0  0  0  0
   -0.7690   -3.1790   -0.0220 N   0  0  0  0  0  0  0  0  0  0  0  0
    0.0040   -2.3830    0.8660 C   0  0  0  0  0  0  0  0  0  0  0  0
   -0.0210   -2.7090    2.1050 O   0  0  0  0  0  0  0  0  0  0  0  0
    0.8320   -1.2180    0.4870 C   0  0  0  0  0  0  0  0  0  0  0  0
    2.1590   -1.2810    1.2560 C   0  0  1  0  0  0  0  0  0  0  0  0
    2.7510   -2.5330    1.0060 O   0  0  0  0  0  0  0  0  0  0  0  0
    3.0760   -0.1730    0.8030 C   0  0  1  0  0  0  0  0  0  0  0  0
    4.2350   -0.7050   -0.0120 C   0  0  1  0  0  0  0  0  0  0  0  0
    3.7270   -1.3630   -1.1460 O   0  0  0  0  0  0  0  0  0  0  0  0
    5.1040    0.4230   -0.5270 C   0  0  0  0  0  0  0  0  0  0  0  0
    4.3680    1.3100   -1.3080 O   0  0  0  0  0  0  0  0  0  0  0  0
    2.1260    0.9680   -0.2220 S   0  0  0  0  0  0  0  0  0  0  0  0
    1.3280    2.2330    0.7860 C   0  0  0  0  0  0  0  0  0  0  0  0
  2  1  1  1
  2  3  1  0
  2 27  1  0
  3  4  1  0
  4  5  1  0
  5  6  2  0
  5  7  1  0
  7  8  1  6
  7 12  1  0
  8  9  1  0
  9 10  1  0
 10 11  1  0
 12 11  1  1
 12 13  1  0
 13 14  2  0
 13 15  1  0
 15 16  1  0
 16 17  2  0
 16 18  1  0
 18 19  1  0
 19 20  1  6
 19 21  1  0
 21 22  1  0
 21 26  1  6
 22 23  1  6
 22 24  1  0
 24 25  1  0
 26 27  1  0
M  END
