
     RDKit          3D

 27 29  0  0  0  0  0  0  0  0999 V2000
   -0.5750   -1.3510    2.0090 O   0  0  0  0  0  0  0  0  0  0  0  0
   -1.1170   -0.6280    1.1400 C   0  0  0  0  0  0  0  0  0  0  0  0
   -2.5950   -0.3870    1.2110 C   0  0  0  0  0  0  0  0  0  0  0  0
   -3.1690    0.6560   -0.1190 S   0  0  0  0  0  0  0  0  0  0  0  0
   -4.9220    0.9720   -0.0970 C   0  0  0  0  0  0  0  0  0  0  0  0
   -5.8010   -0.2040   -0.3580 C   0  0  2  0  0  0  0  0  0  0  0  0
   -5.5720   -0.7840   -1.6050 O   0  0  0  0  0  0  0  0  0  0  0  0
   -7.2370    0.3370   -0.4200 C   0  0  0  0  0  0  0  0  0  0  0  0
   -7.9940   -0.5070    0.5870 C   0  0  0  0  0  0  0  0  0  0  0  0
   -7.2130   -1.6270    0.8310 O   0  0  0  0  0  0  0  0  0  0  0  0
   -5.8880   -1.1890    0.7570 C   0  0  0  0  0  0  0  0  0  0  0  0
   -0.3270   -0.0540    0.1090 N   0  0  0  0  0  0  0  0  0  0  0  0
    1.1200   -0.2620   -0.0070 C   0  0  1  0  0  0  0  0  0  0  0  0
    1.3630   -1.2110   -1.5210 S   0  0  0  0  0  0  0  0  0  0  0  0
    2.9950   -0.8040   -2.1300 C   0  0  0  0  0  0  0  0  0  0  0  0
    3.8440   -0.0950   -1.1150 C   0  0  2  0  0  0  0  0  0  0  0  0
    4.9640    0.3640   -1.8600 O   0  0  0  0  0  0  0  0  0  0  0  0
    4.4140   -1.0300   -0.0740 C   0  0  0  0  0  0  0  0  0  0  0  0
    5.5610   -0.3280    0.4630 N   0  0  0  0  0  0  0  0  0  0  0  0
    6.7030   -1.0470    0.8690 C   0  0  0  0  0  0  0  0  0  0  0  0
    6.7800   -2.3040    0.7890 O   0  0  0  0  0  0  0  0  0  0  0  0
    7.7970   -0.3910    1.3790 O   0  0  0  0  0  0  0  0  0  0  0  0
    5.5250    1.0950    0.5760 C   0  0  0  0  0  0  0  0  0  0  0  0
    4.1520    1.6810    0.5500 C   0  0  0  0  0  0  0  0  0  0  0  0
    3.2200    1.0970   -0.5030 C   0  0  2  0  0  0  0  0  0  0  0  0
    1.8790    1.0030    0.0730 C   0  0  1  0  0  0  0  0  0  0  0  0
    1.0530    2.0020   -0.5040 O   0  0  0  0  0  0  0  0  0  0  0  0
  1  2  2  0
  2  3  1  0
  2 12  1  0
  3  4  1  0
  4  5  1  0
  5  6  1  0
  6  7  1  6
  6  8  1  0
  6 11  1  0
  8  9  1  0
  9 10  1  0
 10 11  1  0
 13 12  1  6
 13 14  1  0
 13 26  1  0
 14 15  1  0
 15 16  1  0
 16 17  1  6
 16 18  1  0
 16 25  1  0
 18 19  1  0
 19 20  1  0
 19 23  1  0
 20 21  2  0
 20 22  1  0
 23 24  1  0
 25 24  1  1
 25 26  1  0
 26 27  1  6
M  END
