
     RDKit          3D

  5  4  0  0  0  0  0  0  0  0999 V2000
   -1.3400   -0.1350    0.0790 C   0  0  0  0  0  0  0  0  0  0  0  0
    0.0360    0.3320   -0.1880 C   0  0  0  0  0  0  0  0  0  0  0  0
    0.2810    1.5110   -0.4790 O   0  0  0  0  0  0  0  0  0  0  0  0
    1.0800   -0.5810   -0.1080 O   0  0  0  0  0  0  0  0  0  0  0  0
    2.3440   -0.2850   -0.3230 O   0  0  0  0  0  0  0  0  0  0  0  0
  1  2  1  0
  2  3  2  0
  2  4  1  0
  4  5  1  0
M  END
