
     RDKit          3D

  6  5  0  0  0  0  0  0  0  0999 V2000
   -2.2270    0.4230    0.6000 C   0  0  0  0  0  0  0  0  0  0  0  0
   -1.3690    0.5940   -0.4860 O   0  0  0  0  0  0  0  0  0  0  0  0
   -0.0890    0.6230   -0.0940 O   0  0  0  0  0  0  0  0  0  0  0  0
    0.8020   -0.3090   -0.5600 C   0  0  0  0  0  0  0  0  0  0  0  0
    2.2300   -0.3410   -0.1730 C   0  0  0  0  0  0  0  0  0  0  0  0
    0.4010   -1.1920   -1.3610 O   0  0  0  0  0  0  0  0  0  0  0  0
  1  2  1  0
  2  3  1  0
  3  4  1  0
  4  5  1  0
  4  6  2  0
M  END
