
     RDKit          3D

  6  5  0  0  0  0  0  0  0  0999 V2000
    1.8210    0.5520   -0.9430 O   0  0  0  0  0  0  0  0  0  0  0  0
    1.7230    0.6690    0.2980 C   0  0  0  0  0  0  0  0  0  0  0  0
    0.7410   -0.0320    0.9500 O   0  0  0  0  0  0  0  0  0  0  0  0
   -0.1600   -0.8700    0.2940 C   0  0  0  0  0  0  0  0  0  0  0  0
   -1.0080   -0.1370   -0.6830 C   0  0  0  0  0  0  0  0  0  0  0  0
   -1.7210    0.8420    0.0370 O   0  0  0  0  0  0  0  0  0  0  0  0
  1  2  2  0
  2  3  1  0
  3  4  1  0
  4  5  1  0
  5  6  1  0
M  END
