
     RDKit          3D

  6  5  0  0  0  0  0  0  0  0999 V2000
    2.2310    0.0020    0.0250 C   0  0  0  0  0  0  0  0  0  0  0  0
    0.9100    0.0090   -0.4440 O   0  0  0  0  0  0  0  0  0  0  0  0
   -0.2130   -0.0190    0.3420 C   0  0  0  0  0  0  0  0  0  0  0  0
   -0.0810   -0.0530    1.5840 O   0  0  0  0  0  0  0  0  0  0  0  0
   -1.5280   -0.0050   -0.3550 C   0  0  0  0  0  0  0  0  0  0  0  0
   -2.5980   -0.0350    0.5270 O   0  0  0  0  0  0  0  0  0  0  0  0
  1  2  1  0
  2  3  1  0
  3  4  2  0
  3  5  1  0
  5  6  1  0
M  END
