
     RDKit          3D

  6  5  0  0  0  0  0  0  0  0999 V2000
   -1.4040   -0.8630    0.3110 C   0  0  0  0  0  0  0  0  0  0  0  0
   -1.0390    0.1640   -0.7090 C   0  0  0  0  0  0  0  0  0  0  0  0
    0.2550    0.1250   -1.1430 O   0  0  0  0  0  0  0  0  0  0  0  0
    1.1320    0.3180   -0.0840 C   0  0  2  0  0  0  0  0  0  0  0  0
    1.9010    1.4480   -0.4060 O   0  0  0  0  0  0  0  0  0  0  0  0
    1.9450   -0.8060    0.1010 O   0  0  0  0  0  0  0  0  0  0  0  0
  1  2  1  0
  2  3  1  0
  3  4  1  0
  4  5  1  6
  4  6  1  0
M  END
