
     RDKit          3D

  5  4  0  0  0  0  0  0  0  0999 V2000
   -1.5190   -0.1120    0.0800 C   0  0  0  0  0  0  0  0  0  0  0  0
   -0.2280   -0.3090    0.6160 O   0  0  0  0  0  0  0  0  0  0  0  0
    0.7170   -0.0710   -0.3730 C   0  0  2  0  0  0  0  0  0  0  0  0
    1.4330   -1.2380   -0.5590 O   0  0  0  0  0  0  0  0  0  0  0  0
    1.5100    0.9850    0.0640 O   0  0  0  0  0  0  0  0  0  0  0  0
  1  2  1  0
  2  3  1  0
  3  4  1  1
  3  5  1  0
M  END
