
     RDKit          3D

  6  5  0  0  0  0  0  0  0  0999 V2000
   -1.7660   -0.2600   -0.0490 C   0  0  0  0  0  0  0  0  0  0  0  0
   -0.5960    0.6910    0.0900 C   0  0  0  0  0  0  0  0  0  0  0  0
    0.6550   -0.1180   -0.1090 C   0  0  0  0  0  0  0  0  0  0  0  0
    0.6200   -1.3500   -0.3420 O   0  0  0  0  0  0  0  0  0  0  0  0
    1.9110    0.4550   -0.0450 O   0  0  0  0  0  0  0  0  0  0  0  0
    2.9860   -0.3160   -0.2290 O   0  0  0  0  0  0  0  0  0  0  0  0
  1  2  1  0
  2  3  1  0
  3  4  2  0
  3  5  1  0
  5  6  1  0
M  END
