
     RDKit          3D

 42 45  0  0  0  0  0  0  0  0999 V2000
    0.9800    2.1310    1.4370 C   0  0  0  0  0  0  0  0  0  0  0  0
    1.2630    2.5700    0.0470 C   0  0  0  0  0  0  0  0  0  0  0  0
    0.4920    1.8790   -0.9830 N   0  0  0  0  0  0  0  0  0  0  0  0
    0.9060    0.7130   -1.6280 C   0  0  0  0  0  0  0  0  0  0  0  0
    0.0860    0.3270   -2.5740 O   0  0  0  0  0  0  0  0  0  0  0  0
    2.0430   -0.1450   -1.4680 C   0  0  0  0  0  0  0  0  0  0  0  0
    2.1840   -1.1750   -2.4190 C   0  0  0  0  0  0  0  0  0  0  0  0
    3.2250   -2.0610   -2.3420 C   0  0  0  0  0  0  0  0  0  0  0  0
    4.1780   -2.0070   -1.3560 C   0  0  0  0  0  0  0  0  0  0  0  0
    5.2590   -2.9870   -1.3580 C   0  0  0  0  0  0  0  0  0  0  0  0
    5.6890   -3.6290   -0.2280 F   0  0  0  0  0  0  0  0  0  0  0  0
    5.8500   -3.2910   -2.4860 C   0  0  0  0  0  0  0  0  0  0  0  0
    5.4740   -2.7120   -3.6340 F   0  0  0  0  0  0  0  0  0  0  0  0
    6.9620   -4.2830   -2.5600 C   0  0  0  0  0  0  0  0  0  0  0  0
    7.2480   -4.7970   -1.3030 F   0  0  0  0  0  0  0  0  0  0  0  0
    4.0560   -1.0130   -0.4230 C   0  0  0  0  0  0  0  0  0  0  0  0
    5.0320   -0.8980    0.6300 C   0  0  0  0  0  0  0  0  0  0  0  0
    4.9630    0.0290    1.5570 C   0  0  0  0  0  0  0  0  0  0  0  0
    6.0140    0.0730    2.6070 C   0  0  0  0  0  0  0  0  0  0  0  0
    7.0990   -0.7770    2.7290 C   0  0  0  0  0  0  0  0  0  0  0  0
    7.8120   -0.3650    3.8500 C   0  0  0  0  0  0  0  0  0  0  0  0
    7.1900    0.7000    4.3990 N   0  0  0  0  0  0  0  0  0  0  0  0
    6.0980    0.9680    3.6450 C   0  0  0  0  0  0  0  0  0  0  0  0
    3.0040   -0.1010   -0.4830 C   0  0  0  0  0  0  0  0  0  0  0  0
   -0.8050    2.4800   -1.2210 C   0  0  1  0  0  0  0  0  0  0  0  0
   -1.2160    2.7630   -2.5920 C   0  0  0  0  0  0  0  0  0  0  0  0
   -2.9810    3.1350   -2.3470 S   0  0  2  0  0  0  0  0  0  0  0  0
   -3.8450    2.0870   -2.9250 O   0  0  0  0  0  0  0  0  0  0  0  0
   -3.2930    4.5200   -2.7590 O   0  0  0  0  0  0  0  0  0  0  0  0
   -2.9820    2.9360   -0.5590 C   0  0  0  0  0  0  0  0  0  0  0  0
   -1.9570    1.8370   -0.4430 C   0  0  1  0  0  0  0  0  0  0  0  0
   -2.3610    0.4860   -0.8270 C   0  0  0  0  0  0  0  0  0  0  0  0
   -3.3750   -0.0610   -0.1820 O   0  0  0  0  0  0  0  0  0  0  0  0
   -4.5960   -0.2220    0.2250 C   0  0  0  0  0  0  0  0  0  0  0  0
   -4.9000   -1.2690    1.1250 C   0  0  0  0  0  0  0  0  0  0  0  0
   -6.1570   -1.5040    1.5940 C   0  0  0  0  0  0  0  0  0  0  0  0
   -7.2010   -0.7010    1.1900 C   0  0  0  0  0  0  0  0  0  0  0  0
   -8.5910   -0.9150    1.6680 C   0  0  1  0  0  0  0  0  0  0  0  0
   -9.3090   -1.9830    0.8640 C   0  0  0  0  0  0  0  0  0  0  0  0
   -8.6300   -1.1840    3.0340 O   0  0  0  0  0  0  0  0  0  0  0  0
   -6.9750    0.3260    0.3240 C   0  0  0  0  0  0  0  0  0  0  0  0
   -5.6970    0.5450   -0.1380 C   0  0  0  0  0  0  0  0  0  0  0  0
  1  2  1  0
  2  3  1  0
  3  4  1  0
 25  3  1  6
  4  5  2  0
  4  6  1  0
  6  7  2  0
  6 24  1  0
  7  8  1  0
  8  9  2  0
  9 10  1  0
  9 16  1  0
 10 11  1  0
 10 12  2  3
 12 13  1  0
 12 14  1  0
 14 15  1  0
 16 17  1  0
 16 24  2  0
 17 18  2  3
 18 19  1  0
 19 20  1  0
 19 23  2  0
 20 21  2  0
 21 22  1  0
 22 23  1  0
 25 26  1  0
 25 31  1  0
 27 26  1  6
 27 28  2  0
 27 29  2  0
 27 30  1  0
 30 31  1  0
 31 32  1  6
 32 33  1  0
 33 34  1  0
 34 35  2  0
 34 42  1  0
 35 36  1  0
 36 37  2  0
 37 38  1  0
 37 41  1  0
 38 39  1  6
 38 40  1  0
 41 42  2  0
M  END
