
     RDKit          3D

 42 43  0  0  0  0  0  0  0  0999 V2000
    2.6100   -4.2120   -0.1780 C   0  0  0  0  0  0  0  0  0  0  0  0
    3.0080   -2.8440   -0.7380 C   0  0  0  0  0  0  0  0  0  0  0  0
    3.4870   -2.0270    0.2500 O   0  0  0  0  0  0  0  0  0  0  0  0
    3.8790   -0.7550   -0.1730 C   0  0  1  0  0  0  0  0  0  0  0  0
    3.2810    0.3560    0.6080 C   0  0  0  0  0  0  0  0  0  0  0  0
    1.7570    0.3790    0.5870 C   0  0  0  0  0  0  0  0  0  0  0  0
    1.3170    0.5460   -0.7600 N   0  0  0  0  0  0  0  0  0  0  0  0
    0.0980    1.3460   -0.8760 C   0  0  2  0  0  0  0  0  0  0  0  0
   -0.4270    1.0190   -2.2830 C   0  0  0  0  0  0  0  0  0  0  0  0
   -1.6800    1.7340   -2.6130 C   0  0  0  0  0  0  0  0  0  0  0  0
   -2.7790    1.4180   -1.6750 C   0  0  0  0  0  0  0  0  0  0  0  0
   -3.1340   -0.0110   -1.7250 C   0  0  0  0  0  0  0  0  0  0  0  0
   -2.6280   -0.8940   -2.4270 O   0  0  0  0  0  0  0  0  0  0  0  0
   -4.1970   -0.4290   -0.8540 N   0  0  0  0  0  0  0  0  0  0  0  0
   -4.6440   -1.8050   -0.7830 C   0  0  0  0  0  0  0  0  0  0  0  0
   -6.1140   -1.9470   -0.5710 C   0  0  0  0  0  0  0  0  0  0  0  0
   -6.9320   -0.7300   -0.9460 C   0  0  1  0  0  0  0  0  0  0  0  0
   -6.8050   -0.7700   -2.3880 O   0  0  0  0  0  0  0  0  0  0  0  0
   -8.3790   -0.9460   -0.8050 C   0  0  0  0  0  0  0  0  0  0  0  0
   -9.0120   -1.3040    0.4700 C   0  0  0  0  0  0  0  0  0  0  0  0
   -8.6190   -2.4980    1.1080 N   0  0  0  0  0  0  0  0  0  0  0  0
   -6.3190    0.5580   -0.5540 C   0  0  1  0  0  0  0  0  0  0  0  0
   -7.1020    1.4960    0.2760 C   0  0  0  0  0  0  0  0  0  0  0  0
   -6.8950    1.4930    1.7440 C   0  0  0  0  0  0  0  0  0  0  0  0
   -6.0260    0.3990    2.2770 C   0  0  0  0  0  0  0  0  0  0  0  0
   -4.8110    0.1160    1.4550 C   0  0  0  0  0  0  0  0  0  0  0  0
   -4.9240    0.4750    0.0190 C   0  0  1  0  0  0  0  0  0  0  0  0
    0.3870    2.7850   -0.8410 C   0  0  0  0  0  0  0  0  0  0  0  0
    1.7310    3.2310   -0.7880 N   0  0  0  0  0  0  0  0  0  0  0  0
   -0.5330    3.6660   -0.8560 O   0  0  0  0  0  0  0  0  0  0  0  0
    5.4230   -0.6690   -0.0450 C   0  0  2  0  0  0  0  0  0  0  0  0
    6.0770   -1.7200   -0.9310 C   0  0  0  0  0  0  0  0  0  0  0  0
    5.6540   -1.1450    1.3930 C   0  0  0  0  0  0  0  0  0  0  0  0
    5.8470    0.7000   -0.3370 C   0  0  0  0  0  0  0  0  0  0  0  0
    7.2540    1.0090   -0.3600 N   0  0  0  0  0  0  0  0  0  0  0  0
    8.1860    0.9620    0.6880 C   0  0  0  0  0  0  0  0  0  0  0  0
    7.8520    0.6310    1.8400 O   0  0  0  0  0  0  0  0  0  0  0  0
    9.5830    1.2980    0.4700 N   0  0  0  0  0  0  0  0  0  0  0  0
   10.4730    1.2340    1.5440 N   0  0  0  0  0  0  0  0  0  0  0  0
   10.8730    2.3300    2.3360 C   0  0  0  0  0  0  0  0  0  0  0  0
   11.7830    2.2250    3.4240 N   0  0  0  0  0  0  0  0  0  0  0  0
   10.3750    3.4660    2.0400 O   0  0  0  0  0  0  0  0  0  0  0  0
  1  2  1  0
  2  3  1  0
  3  4  1  0
  4  5  1  1
  4 31  1  0
  5  6  1  0
  6  7  1  0
  7  8  1  0
  8  9  1  6
  8 28  1  0
  9 10  1  0
 10 11  1  0
 11 12  1  0
 12 13  2  0
 12 14  1  0
 14 15  1  0
 14 27  1  0
 15 16  1  0
 16 17  1  0
 17 18  1  6
 17 19  1  0
 17 22  1  0
 19 20  1  0
 20 21  1  0
 22 23  1  1
 22 27  1  0
 23 24  1  0
 24 25  1  0
 25 26  1  0
 27 26  1  1
 28 29  1  0
 28 30  2  0
 31 32  1  6
 31 33  1  0
 31 34  1  0
 34 35  1  0
 35 36  1  0
 36 37  2  0
 36 38  1  0
 38 39  1  0
 39 40  1  0
 40 41  1  0
 40 42  2  0
M  CHG  1   7   1
M  END
