
     RDKit          3D

 42 42  0  0  0  0  0  0  0  0999 V2000
    6.1330    1.3530   -1.4040 C   0  0  0  0  0  0  0  0  0  0  0  0
    4.9690    1.9790   -1.0090 C   0  0  0  0  0  0  0  0  0  0  0  0
    5.0980    3.4120   -0.7270 C   0  0  0  0  0  0  0  0  0  0  0  0
    6.5070    3.8620   -0.8060 N   0  0  0  0  0  0  0  0  0  0  0  0
    7.4020    3.3790    0.1710 C   0  0  0  0  0  0  0  0  0  0  0  0
    6.9900    2.6100    1.0610 O   0  0  0  0  0  0  0  0  0  0  0  0
    8.7800    3.7340    0.1920 N   0  0  0  0  0  0  0  0  0  0  0  0
    9.6850    3.2730    1.1490 N   0  0  0  0  0  0  0  0  0  0  0  0
   10.3240    4.2010    2.0390 C   0  0  0  0  0  0  0  0  0  0  0  0
   11.2510    3.7710    3.0240 N   0  0  0  0  0  0  0  0  0  0  0  0
   10.0100    5.4160    1.8900 O   0  0  0  0  0  0  0  0  0  0  0  0
    3.8620    1.1470   -0.9410 C   0  0  0  0  0  0  0  0  0  0  0  0
    4.2560   -0.2530   -1.3100 O   0  0  0  0  0  0  0  0  0  0  0  0
    2.5510    1.1640   -0.6570 C   0  0  0  0  0  0  0  0  0  0  0  0
    1.8820   -0.1050   -0.7650 C   0  0  0  0  0  0  0  0  0  0  0  0
    0.7490   -0.6560   -0.7210 C   0  0  0  0  0  0  0  0  0  0  0  0
    0.8040   -2.1650   -0.9050 N   0  0  0  0  0  0  0  0  0  0  0  0
    0.5680   -3.0220    0.1610 C   0  0  0  0  0  0  0  0  0  0  0  0
    0.3120   -2.6030    1.3290 O   0  0  0  0  0  0  0  0  0  0  0  0
    0.6140   -4.4840   -0.0630 C   0  0  1  0  0  0  0  0  0  0  0  0
    1.9470   -4.9170   -0.5770 C   0  0  0  0  0  0  0  0  0  0  0  0
    2.2630   -6.1250    0.2480 C   0  0  1  0  0  0  0  0  0  0  0  0
    3.3010   -5.8040    1.2930 C   0  0  0  0  0  0  0  0  0  0  0  0
    0.9330   -6.4720    0.8780 C   0  0  0  0  0  0  0  0  0  0  0  0
    0.3710   -5.2130    1.0990 O   0  0  0  0  0  0  0  0  0  0  0  0
   -0.6230   -0.2330   -0.8270 C   0  0  0  0  0  0  0  0  0  0  0  0
   -1.0450    0.9390   -1.0470 O   0  0  0  0  0  0  0  0  0  0  0  0
   -1.7250   -1.1590   -0.6850 N   0  0  0  0  0  0  0  0  0  0  0  0
   -3.1220   -0.7040   -0.7970 C   0  0  1  0  0  0  0  0  0  0  0  0
   -3.8010   -1.5780   -1.7940 C   0  0  0  0  0  0  0  0  0  0  0  0
   -3.8010   -3.0340   -1.4050 C   0  0  0  0  0  0  0  0  0  0  0  0
   -3.7130   -0.8330    0.5960 C   0  0  0  0  0  0  0  0  0  0  0  0
   -5.1610   -0.4050    0.6230 C   0  0  0  0  0  0  0  0  0  0  0  0
   -5.3440    1.0240    0.1860 C   0  0  0  0  0  0  0  0  0  0  0  0
   -6.8290    1.3200    0.2510 C   0  0  0  0  0  0  0  0  0  0  0  0
   -7.1300    2.7390   -0.1820 C   0  0  0  0  0  0  0  0  0  0  0  0
   -8.6140    2.9740   -0.0980 C   0  0  1  0  0  0  0  0  0  0  0  0
   -9.4050    2.0510   -0.9680 C   0  0  0  0  0  0  0  0  0  0  0  0
   -9.1260    2.9150    1.2460 N   0  0  0  0  0  0  0  0  0  0  0  0
    1.9330    2.3730   -0.2120 C   0  0  0  0  0  0  0  0  0  0  0  0
    0.5810    2.4910    0.2800 N   0  0  0  0  0  0  0  0  0  0  0  0
    2.4760    3.5310   -0.1570 O   0  0  0  0  0  0  0  0  0  0  0  0
  1  2  2  0
  2  3  1  0
  2 12  1  0
  3  4  1  0
  4  5  1  0
  5  6  2  0
  5  7  1  0
  7  8  1  0
  8  9  1  0
  9 10  1  0
  9 11  2  0
 12 13  1  0
 12 14  2  3
 14 15  1  0
 14 40  1  0
 15 16  2  3
 16 17  1  0
 16 26  1  0
 17 18  1  0
 18 19  2  0
 20 18  1  1
 20 21  1  0
 20 25  1  0
 21 22  1  0
 22 23  1  1
 22 24  1  0
 24 25  1  0
 26 27  2  0
 26 28  1  0
 28 29  1  0
 29 30  1  6
 29 32  1  0
 30 31  1  0
 32 33  1  0
 33 34  1  0
 34 35  1  0
 35 36  1  0
 36 37  1  0
 37 38  1  6
 37 39  1  0
 40 41  1  0
 40 42  2  0
M  CHG  1  39   1
M  END
