
     RDKit          3D

 42 43  0  0  0  0  0  0  0  0999 V2000
   -3.8170    2.1130   -0.6690 C   0  0  0  0  0  0  0  0  0  0  0  0
   -3.6710    2.0200    0.7900 C   0  0  0  0  0  0  0  0  0  0  0  0
   -4.7790    1.6080    1.6390 C   0  0  1  0  0  0  0  0  0  0  0  0
   -6.0410    2.4520    1.5270 C   0  0  0  0  0  0  0  0  0  0  0  0
   -5.8370    3.8870    1.8820 C   0  0  0  0  0  0  0  0  0  0  0  0
   -4.8750    4.5710    1.0410 N   0  0  0  0  0  0  0  0  0  0  0  0
   -5.1030    0.2070    1.9200 C   0  0  0  0  0  0  0  0  0  0  0  0
   -5.4720   -0.7730    0.9060 C   0  0  2  0  0  0  0  0  0  0  0  0
   -5.7580   -2.0910    1.5540 N   0  0  0  0  0  0  0  0  0  0  0  0
   -4.5740   -1.0900   -0.2250 C   0  0  0  0  0  0  0  0  0  0  0  0
   -3.2250   -1.6080    0.1750 C   0  0  0  0  0  0  0  0  0  0  0  0
   -3.0500   -1.6670    1.4080 O   0  0  0  0  0  0  0  0  0  0  0  0
   -2.2810   -1.9800   -0.8580 C   0  0  0  0  0  0  0  0  0  0  0  0
   -1.0880   -2.4570   -0.4650 C   0  0  0  0  0  0  0  0  0  0  0  0
   -0.7710   -2.5870    0.9650 C   0  0  0  0  0  0  0  0  0  0  0  0
   -0.1280   -2.9400   -1.4200 N   0  0  0  0  0  0  0  0  0  0  0  0
    1.1950   -3.3910   -1.0570 C   0  0  0  0  0  0  0  0  0  0  0  0
    2.0480   -2.2080   -0.5400 C   0  0  0  0  0  0  0  0  0  0  0  0
    2.2300   -1.1590   -1.6030 C   0  0  0  0  0  0  0  0  0  0  0  0
    3.0300   -0.0500   -1.1230 N   0  0  0  0  0  0  0  0  0  0  0  0
    4.3660   -0.1710   -0.6620 C   0  0  0  0  0  0  0  0  0  0  0  0
    4.9210   -1.2880   -0.6570 O   0  0  0  0  0  0  0  0  0  0  0  0
    5.1010    0.9770   -0.1960 N   0  0  0  0  0  0  0  0  0  0  0  0
    6.4560    0.7830    0.2610 C   0  0  0  0  0  0  0  0  0  0  0  0
    7.0760    2.0950    0.7120 C   0  0  1  0  0  0  0  0  0  0  0  0
    7.0860    3.0130   -0.4030 N   0  0  0  0  0  0  0  0  0  0  0  0
    7.4140    4.3850   -0.1700 C   0  0  0  0  0  0  0  0  0  0  0  0
    7.9740    5.0790   -1.0610 O   0  0  0  0  0  0  0  0  0  0  0  0
    7.0880    4.9320    1.0900 N   0  0  0  0  0  0  0  0  0  0  0  0
    6.4670    4.1180    2.0440 C   0  0  0  0  0  0  0  0  0  0  0  0
    5.9080    4.6270    3.0490 O   0  0  0  0  0  0  0  0  0  0  0  0
    6.4230    2.6340    1.9420 C   0  0  2  0  0  0  0  0  0  0  0  0
    7.0540    2.0980    3.1700 C   0  0  0  0  0  0  0  0  0  0  0  0
    7.6010    2.8430    4.0450 O   0  0  0  0  0  0  0  0  0  0  0  0
    7.0670    0.7310    3.4060 O   0  0  0  0  0  0  0  0  0  0  0  0
   -0.5150   -2.9030   -2.7820 C   0  0  0  0  0  0  0  0  0  0  0  0
   -0.3250   -3.8450   -3.6740 C   0  0  0  0  0  0  0  0  0  0  0  0
    0.2630   -5.1330   -3.6240 C   0  0  0  0  0  0  0  0  0  0  0  0
    0.8140   -5.8500   -2.5360 N   0  0  0  0  0  0  0  0  0  0  0  0
    0.3090   -5.7730   -4.7630 O   0  0  0  0  0  0  0  0  0  0  0  0
   -1.3760   -1.7000   -3.1500 C   0  0  0  0  0  0  0  0  0  0  0  0
   -2.6320   -1.7790   -2.2920 C   0  0  0  0  0  0  0  0  0  0  0  0
  1  2  1  0
  3  2  1  6
  3  4  1  0
  3  7  1  0
  4  5  1  0
  5  6  1  0
  7  8  1  0
  8  9  1  1
  8 10  1  0
 10 11  1  0
 11 12  2  0
 11 13  1  0
 13 14  2  0
 13 42  1  0
 14 15  1  0
 14 16  1  0
 16 17  1  0
 16 36  1  0
 17 18  1  0
 18 19  1  0
 19 20  1  0
 20 21  1  0
 21 22  2  0
 21 23  1  0
 23 24  1  0
 25 24  1  6
 25 26  1  0
 25 32  1  0
 26 27  1  0
 27 28  2  0
 27 29  1  0
 29 30  1  0
 30 31  2  0
 30 32  1  0
 32 33  1  1
 33 34  2  0
 33 35  1  0
 36 37  2  3
 36 41  1  0
 37 38  1  0
 38 39  1  0
 38 40  2  0
 41 42  1  0
M  CHG  1   9   1
M  END
