
     RDKit          3D

 42 43  0  0  0  0  0  0  0  0999 V2000
   -5.6310    4.7850   -2.4900 C   0  0  0  0  0  0  0  0  0  0  0  0
   -5.3860    3.6270   -1.6350 N   0  0  0  0  0  0  0  0  0  0  0  0
   -5.9590    3.6270   -0.3240 C   0  0  0  0  0  0  0  0  0  0  0  0
   -5.0980    4.2450    0.7340 C   0  0  0  0  0  0  0  0  0  0  0  0
   -5.8440    4.1570    1.9920 N   0  0  0  0  0  0  0  0  0  0  0  0
   -4.5980    2.5540   -2.1160 C   0  0  0  0  0  0  0  0  0  0  0  0
   -4.1160    2.6070   -3.2690 O   0  0  0  0  0  0  0  0  0  0  0  0
   -4.3610    1.3810   -1.2310 C   0  0  0  0  0  0  0  0  0  0  0  0
   -3.5570    0.3740   -1.9990 C   0  0  0  0  0  0  0  0  0  0  0  0
   -3.2140   -0.8790   -1.1750 C   0  0  2  0  0  0  0  0  0  0  0  0
   -4.4460   -1.5550   -0.7390 C   0  0  0  0  0  0  0  0  0  0  0  0
   -4.4560   -2.7620   -0.1860 O   0  0  0  0  0  0  0  0  0  0  0  0
   -3.9760   -3.1210    0.9930 C   0  0  2  0  0  0  0  0  0  0  0  0
   -2.7920   -4.0970    0.8070 C   0  0  0  0  0  0  0  0  0  0  0  0
   -3.2440   -5.3090    0.0820 C   0  0  0  0  0  0  0  0  0  0  0  0
   -3.2590   -6.5510    0.7600 N   0  0  0  0  0  0  0  0  0  0  0  0
   -3.6040   -5.2390   -1.1010 O   0  0  0  0  0  0  0  0  0  0  0  0
   -4.9920   -3.7830    1.8880 C   0  0  0  0  0  0  0  0  0  0  0  0
   -6.3270   -3.9960    1.4650 N   0  0  0  0  0  0  0  0  0  0  0  0
   -4.5810   -4.1290    3.0220 O   0  0  0  0  0  0  0  0  0  0  0  0
   -2.1970   -0.5490   -0.2530 N   0  0  0  0  0  0  0  0  0  0  0  0
   -0.9030   -0.3370   -0.9470 C   0  0  1  0  0  0  0  0  0  0  0  0
   -0.4560    1.0870   -0.9040 C   0  0  0  0  0  0  0  0  0  0  0  0
    0.9580    1.1130   -0.3530 C   0  0  0  0  0  0  0  0  0  0  0  0
    1.1820   -0.2240    0.3070 C   0  0  1  0  0  0  0  0  0  0  0  0
    2.5280   -0.6330   -0.0070 N   0  0  0  0  0  0  0  0  0  0  0  0
    3.6140    0.1780    0.3800 C   0  0  0  0  0  0  0  0  0  0  0  0
    3.4550    1.2730    0.9960 O   0  0  0  0  0  0  0  0  0  0  0  0
    4.9560   -0.2480    0.0660 N   0  0  0  0  0  0  0  0  0  0  0  0
    6.0400    0.6200    0.4790 C   0  0  0  0  0  0  0  0  0  0  0  0
    7.3730    0.0510    0.0880 C   0  0  2  0  0  0  0  0  0  0  0  0
    7.4660   -0.1320   -1.3780 C   0  0  0  0  0  0  0  0  0  0  0  0
    7.3210    1.0770   -2.2270 C   0  0  0  0  0  0  0  0  0  0  0  0
    6.1310    1.7490   -2.1350 O   0  0  0  0  0  0  0  0  0  0  0  0
    7.4960   -1.3210    0.7700 C   0  0  0  0  0  0  0  0  0  0  0  0
    8.3220   -1.0610    2.0160 C   0  0  0  0  0  0  0  0  0  0  0  0
    9.3410   -0.0600    1.5190 C   0  0  0  0  0  0  0  0  0  0  0  0
    8.5180    0.8650    0.6600 C   0  0  0  0  0  0  0  0  0  0  0  0
    1.0280   -0.1550    1.7750 C   0  0  0  0  0  0  0  0  0  0  0  0
   -0.2170    0.2260    2.3210 N   0  0  0  0  0  0  0  0  0  0  0  0
    1.9880   -0.4290    2.5210 O   0  0  0  0  0  0  0  0  0  0  0  0
    0.1580   -1.1690   -0.2990 C   0  0  0  0  0  0  0  0  0  0  0  0
  1  2  1  0
  2  3  1  0
  2  6  1  0
  3  4  1  0
  4  5  1  0
  6  7  2  0
  6  8  1  0
  8  9  1  0
 10  9  1  1
 10 11  1  0
 10 21  1  0
 11 12  1  0
 12 13  1  0
 13 14  1  6
 13 18  1  0
 14 15  1  0
 15 16  1  0
 15 17  2  0
 18 19  1  0
 18 20  2  0
 22 21  1  1
 22 23  1  0
 22 42  1  0
 23 24  1  0
 24 25  1  0
 25 26  1  1
 25 39  1  0
 25 42  1  0
 26 27  1  0
 27 28  2  0
 27 29  1  0
 29 30  1  0
 31 30  1  6
 31 32  1  0
 31 35  1  0
 31 38  1  0
 32 33  1  0
 33 34  1  0
 35 36  1  0
 36 37  1  0
 37 38  1  0
 39 40  1  0
 39 41  2  0
M  CHG  2   5   1  21   1
M  END
