
     RDKit          3D

 42 42  0  0  0  0  0  0  0  0999 V2000
  -10.5310   -3.3660   -2.0030 C   0  0  0  0  0  0  0  0  0  0  0  0
   -9.1920   -2.9770   -1.4220 C   0  0  0  0  0  0  0  0  0  0  0  0
   -8.6940   -1.6890   -2.0340 C   0  0  1  0  0  0  0  0  0  0  0  0
   -8.5870   -1.9590   -3.5340 C   0  0  0  0  0  0  0  0  0  0  0  0
   -9.6120   -0.6510   -1.9080 O   0  0  0  0  0  0  0  0  0  0  0  0
   -7.3050   -1.3120   -1.5990 C   0  0  0  0  0  0  0  0  0  0  0  0
   -7.0400   -1.0800   -0.2050 C   0  0  2  0  0  0  0  0  0  0  0  0
   -7.8030    0.0040    0.5300 C   0  0  0  0  0  0  0  0  0  0  0  0
   -7.3250    0.0680    1.9660 C   0  0  0  0  0  0  0  0  0  0  0  0
   -8.0560    1.1400    2.7270 C   0  0  0  0  0  0  0  0  0  0  0  0
   -7.8200    2.4240    2.1060 N   0  0  0  0  0  0  0  0  0  0  0  0
   -5.6370   -0.7790    0.0430 N   0  0  0  0  0  0  0  0  0  0  0  0
   -5.0400    0.4510   -0.4190 C   0  0  0  0  0  0  0  0  0  0  0  0
   -5.6980    1.2840   -1.0830 O   0  0  0  0  0  0  0  0  0  0  0  0
   -3.6420    0.7570   -0.1110 C   0  0  0  0  0  0  0  0  0  0  0  0
   -3.2040    2.0800   -0.3040 C   0  0  0  0  0  0  0  0  0  0  0  0
   -1.9490    2.4900    0.0280 C   0  0  0  0  0  0  0  0  0  0  0  0
   -1.0470    1.6120    0.5710 C   0  0  0  0  0  0  0  0  0  0  0  0
    0.2640    2.0740    1.0170 C   0  0  2  0  0  0  0  0  0  0  0  0
    0.2990    3.5620    1.2390 C   0  0  0  0  0  0  0  0  0  0  0  0
    1.3480    1.5960    0.1850 N   0  0  0  0  0  0  0  0  0  0  0  0
    2.6820    1.7450    0.5980 C   0  0  0  0  0  0  0  0  0  0  0  0
    3.0800    2.2700    1.5490 O   0  0  0  0  0  0  0  0  0  0  0  0
    3.6650    1.0140   -0.5130 N   0  0  0  0  0  0  0  0  0  0  0  0
    5.2900    1.2870    0.3350 C   0  0  0  0  0  0  0  0  0  0  0  0
    5.2030    2.0720    1.1440 O   0  0  0  0  0  0  0  0  0  0  0  0
    6.1830    0.4400   -0.2420 N   0  0  0  0  0  0  0  0  0  0  0  0
    7.5770    0.3930    0.3000 C   0  0  1  0  0  0  0  0  0  0  0  0
    7.3930   -0.6240    1.4800 C   0  0  0  0  0  0  0  0  0  0  0  0
    8.4840   -0.2480   -0.6610 C   0  0  0  0  0  0  0  0  0  0  0  0
    9.8740   -0.2570   -0.0140 C   0  0  0  0  0  0  0  0  0  0  0  0
   10.8560   -0.8750   -0.8340 N   0  0  1  0  0  0  0  0  0  0  0  0
   10.2660   -1.7210   -1.8720 C   0  0  0  0  0  0  0  0  0  0  0  0
   11.8230    0.0350   -1.3950 C   0  0  0  0  0  0  0  0  0  0  0  0
   13.2020   -0.4860   -1.1960 C   0  0  0  0  0  0  0  0  0  0  0  0
   13.4200   -1.7520   -0.5400 N   0  0  0  0  0  0  0  0  0  0  0  0
   14.2090    0.1370   -1.5850 O   0  0  0  0  0  0  0  0  0  0  0  0
    0.4540    1.4160    2.3800 C   0  0  0  0  0  0  0  0  0  0  0  0
   -0.4800    1.6690    3.3900 N   0  0  0  0  0  0  0  0  0  0  0  0
    1.4280    0.6660    2.5840 O   0  0  0  0  0  0  0  0  0  0  0  0
   -1.4730    0.2960    0.7600 C   0  0  0  0  0  0  0  0  0  0  0  0
   -2.7430   -0.1100    0.4220 C   0  0  0  0  0  0  0  0  0  0  0  0
  1  2  1  0
  2  3  1  0
  3  4  1  6
  3  5  1  0
  3  6  1  0
  7  6  1  6
  7  8  1  0
  7 12  1  0
  8  9  1  0
  9 10  1  0
 10 11  1  0
 12 13  1  0
 13 14  2  0
 13 15  1  0
 15 16  2  0
 15 42  1  0
 16 17  1  0
 17 18  2  0
 18 19  1  0
 18 41  1  0
 19 20  1  1
 19 21  1  0
 19 38  1  0
 21 22  1  0
 22 23  2  0
 22 24  1  0
 24 25  1  0
 25 26  2  0
 25 27  1  0
 27 28  1  0
 28 29  1  1
 28 30  1  0
 30 31  1  0
 31 32  1  0
 32 33  1  6
 32 34  1  0
 34 35  1  0
 35 36  1  0
 35 37  2  0
 38 39  1  0
 38 40  2  0
 41 42  2  0
M  CHG  1  32   1
M  END
