
     RDKit          3D

 42 45  0  0  0  0  0  0  0  0999 V2000
   -3.2440    0.9980   -4.3220 C   0  0  0  0  0  0  0  0  0  0  0  0
   -3.7510    0.3040   -3.1010 C   0  0  0  0  0  0  0  0  0  0  0  0
   -4.1670   -0.8830   -3.1960 O   0  0  0  0  0  0  0  0  0  0  0  0
   -3.7800    0.9390   -1.8320 N   0  0  0  0  0  0  0  0  0  0  0  0
   -4.2680    0.2720   -0.6550 C   0  0  1  0  0  0  0  0  0  0  0  0
   -3.2490    0.2190    0.4670 C   0  0  2  0  0  0  0  0  0  0  0  0
   -2.0260   -0.2690    0.1130 O   0  0  0  0  0  0  0  0  0  0  0  0
   -1.0450    0.7130    0.3840 C   0  0  2  0  0  0  0  0  0  0  0  0
   -0.3060    1.1150   -0.8410 C   0  0  1  0  0  0  0  0  0  0  0  0
   -0.1610    2.6390   -0.9680 C   0  0  0  0  0  0  0  0  0  0  0  0
   -1.3390    3.2790   -0.6360 O   0  0  0  0  0  0  0  0  0  0  0  0
    0.8320    0.4490   -1.1560 O   0  0  0  0  0  0  0  0  0  0  0  0
    1.4770   -0.1940   -0.1140 C   0  0  1  0  0  0  0  0  0  0  0  0
    2.8220   -0.3600   -0.3280 O   0  0  0  0  0  0  0  0  0  0  0  0
    3.2110   -1.6790   -0.4940 C   0  0  2  0  0  0  0  0  0  0  0  0
    4.2750   -2.0310    0.4700 C   0  0  1  0  0  0  0  0  0  0  0  0
    3.8940   -3.3410    1.1800 C   0  0  0  0  0  0  0  0  0  0  0  0
    4.8440   -3.7070    2.1010 O   0  0  0  0  0  0  0  0  0  0  0  0
    5.4900   -2.3180   -0.1470 O   0  0  0  0  0  0  0  0  0  0  0  0
    5.9020   -1.3280   -1.0180 C   0  0  2  0  0  0  0  0  0  0  0  0
    5.5650    0.3400   -0.3150 S   0  0  0  0  0  0  0  0  0  0  0  0
    5.0670    1.0470   -1.8810 C   0  0  0  0  0  0  0  0  0  0  0  0
    4.9550    2.4960   -2.1560 C   0  0  0  0  0  0  0  0  0  0  0  0
    4.8490    0.0940   -2.6470 N   0  0  0  0  0  0  0  0  0  0  0  0
    5.0020   -1.2290   -2.2300 C   0  0  2  0  0  0  0  0  0  0  0  0
    3.6300   -1.8010   -1.9430 C   0  0  1  0  0  0  0  0  0  0  0  0
    3.5910   -3.1270   -2.3550 O   0  0  0  0  0  0  0  0  0  0  0  0
    1.2240    0.4260    1.2140 C   0  0  2  0  0  0  0  0  0  0  0  0
    2.0640   -0.2090    2.2110 N   0  0  0  0  0  0  0  0  0  0  0  0
    2.9910    0.4900    3.0230 C   0  0  0  0  0  0  0  0  0  0  0  0
    3.8390   -0.2170    4.0430 C   0  0  0  0  0  0  0  0  0  0  0  0
    3.0940    1.7270    2.8740 O   0  0  0  0  0  0  0  0  0  0  0  0
   -0.2410    0.1750    1.5160 C   0  0  1  0  0  0  0  0  0  0  0  0
   -0.5200    0.8010    2.7310 O   0  0  0  0  0  0  0  0  0  0  0  0
   -3.8320   -0.6050    1.4420 O   0  0  0  0  0  0  0  0  0  0  0  0
   -4.8690   -0.0160    2.1030 C   0  0  2  0  0  0  0  0  0  0  0  0
   -5.6050   -1.1560    2.8230 C   0  0  0  0  0  0  0  0  0  0  0  0
   -6.6880   -0.6700    3.5340 O   0  0  0  0  0  0  0  0  0  0  0  0
   -5.8680    0.6810    1.2610 C   0  0  1  0  0  0  0  0  0  0  0  0
   -6.2370    1.8720    1.9320 O   0  0  0  0  0  0  0  0  0  0  0  0
   -5.4470    1.0430   -0.1060 C   0  0  2  0  0  0  0  0  0  0  0  0
   -6.5230    0.9260   -1.0140 O   0  0  0  0  0  0  0  0  0  0  0  0
  1  2  1  0
  2  3  2  0
  2  4  1  0
  5  4  1  6
  5  6  1  0
  5 41  1  0
  6  7  1  6
  6 35  1  0
  8  7  1  6
  8  9  1  0
  8 33  1  0
  9 10  1  1
  9 12  1  0
 10 11  1  0
 12 13  1  0
 13 14  1  6
 13 28  1  0
 15 14  1  1
 15 16  1  0
 15 26  1  0
 16 17  1  6
 16 19  1  0
 17 18  1  0
 20 19  1  1
 20 21  1  0
 20 25  1  0
 21 22  1  0
 22 23  1  0
 22 24  2  0
 25 24  1  1
 25 26  1  0
 26 27  1  1
 28 29  1  1
 28 33  1  0
 29 30  1  0
 30 31  1  0
 30 32  2  0
 33 34  1  1
 35 36  1  0
 36 37  1  6
 36 39  1  0
 37 38  1  0
 39 40  1  1
 39 41  1  0
 41 42  1  6
M  END
