
     RDKit          3D

 22 23  0  0  0  0  0  0  0  0999 V2000
    0.3560    4.0880   -1.5480 C   0  0  0  0  0  0  0  0  0  0  0  0
    0.4750    2.6340   -1.6940 C   0  0  0  0  0  0  0  0  0  0  0  0
   -0.1010    1.8140   -0.8360 C   0  0  0  0  0  0  0  0  0  0  0  0
   -0.8600    2.3670    0.2650 C   0  0  0  0  0  0  0  0  0  0  0  0
   -2.0330    1.9980    0.7160 C   0  0  0  0  0  0  0  0  0  0  0  0
   -2.8870    0.8970    0.1940 C   0  0  0  0  0  0  0  0  0  0  0  0
   -2.7890   -0.2850    1.0040 N   0  0  0  0  0  0  0  0  0  0  0  0
   -3.2500   -1.5260    0.5660 C   0  0  0  0  0  0  0  0  0  0  0  0
   -3.8650   -2.3170    1.3640 O   0  0  0  0  0  0  0  0  0  0  0  0
   -3.0530   -1.9840   -0.8220 C   0  0  0  0  0  0  0  0  0  0  0  0
   -2.0170   -3.0860   -0.8180 C   0  0  0  0  0  0  0  0  0  0  0  0
   -0.6080   -2.5450   -1.0420 C   0  0  0  0  0  0  0  0  0  0  0  0
   -0.2500   -1.7600    0.1660 C   0  0  0  0  0  0  0  0  0  0  0  0
   -0.4290   -2.3220    1.3020 O   0  0  0  0  0  0  0  0  0  0  0  0
    0.2700   -0.4400    0.0860 N   0  0  0  0  0  0  0  0  0  0  0  0
    0.9730    0.0430    1.2520 C   0  0  0  0  0  0  0  0  0  0  0  0
    2.4410   -0.2700    1.2090 C   0  0  0  0  0  0  0  0  0  0  0  0
    3.1640   -0.9930    2.0490 C   0  0  0  0  0  0  0  0  0  0  0  0
    4.5620   -1.0360    1.6200 C   0  0  0  0  0  0  0  0  0  0  0  0
    4.5770   -0.2200    0.3830 C   0  0  0  0  0  0  0  0  0  0  0  0
    3.3380    0.2100    0.1690 C   0  0  0  0  0  0  0  0  0  0  0  0
    0.1090    0.3640   -1.0920 C   0  0  0  0  0  0  0  0  0  0  0  0
  1  2  1  0
  2  3  2  3
  3  4  1  0
  3 22  1  0
  4  5  2  0
  5  6  1  0
  6  7  1  0
  7  8  1  0
  8  9  2  0
  8 10  1  0
 10 11  1  0
 11 12  1  0
 12 13  1  0
 13 14  2  0
 13 15  1  0
 15 16  1  0
 15 22  1  0
 16 17  1  0
 17 18  2  0
 17 21  1  0
 18 19  1  0
 19 20  1  0
 20 21  2  0
M  END
