
     RDKit          3D

 24 25  0  0  0  0  0  0  0  0999 V2000
   -6.0160    2.0000   -0.0000 C   0  0  0  0  0  0  0  0  0  0  0  0
   -6.0130    0.6780    0.1320 C   0  0  0  0  0  0  0  0  0  0  0  0
   -4.8960   -0.2320    0.1050 C   0  0  0  0  0  0  0  0  0  0  0  0
   -3.5140    0.3060    0.4760 C   0  0  0  0  0  0  0  0  0  0  0  0
   -2.4710   -0.7330    0.2520 C   0  0  0  0  0  0  0  0  0  0  0  0
   -1.1710   -0.2700    0.5890 N   0  0  0  0  0  0  0  0  0  0  0  0
   -0.7230    0.7590   -0.3030 C   0  0  0  0  0  0  0  0  0  0  0  0
    0.7270    1.0400    0.0440 C   0  0  0  0  0  0  0  0  0  0  0  0
    1.5650   -0.0640   -0.3890 N   0  0  1  0  0  0  0  0  0  0  0  0
    2.5580   -0.3910    0.6160 C   0  0  0  0  0  0  0  0  0  0  0  0
    3.3840    0.7910    1.0190 C   0  0  0  0  0  0  0  0  0  0  0  0
    4.2210    1.3680   -0.0860 C   0  0  0  0  0  0  0  0  0  0  0  0
    5.2230    0.4470   -0.6110 N   0  0  0  0  0  0  0  0  0  0  0  0
    6.2110   -0.0600    0.2620 C   0  0  0  0  0  0  0  0  0  0  0  0
    6.1990    0.2910    1.4790 O   0  0  0  0  0  0  0  0  0  0  0  0
    7.2820   -0.9880   -0.1330 C   0  0  0  0  0  0  0  0  0  0  0  0
    8.8030   -0.0330   -0.2180 Cl  0  0  0  0  0  0  0  0  0  0  0  0
    0.7040   -1.2030   -0.5970 C   0  0  0  0  0  0  0  0  0  0  0  0
   -0.2570   -1.4200    0.5320 C   0  0  0  0  0  0  0  0  0  0  0  0
   -5.0680   -1.4630   -0.2480 C   0  0  0  0  0  0  0  0  0  0  0  0
   -6.7490   -1.9070   -0.6790 S   0  0  0  0  0  0  0  0  0  0  0  0
   -7.5300   -0.2210    0.3710 S   0  0  2  0  0  0  0  0  0  0  0  0
   -8.6590    0.3910   -0.3420 O   0  0  0  0  0  0  0  0  0  0  0  0
   -7.7710   -0.5390    1.7880 O   0  0  0  0  0  0  0  0  0  0  0  0
  1  2  2  0
  2  3  1  0
  2 22  1  0
  3  4  1  0
  3 20  2  0
  4  5  1  0
  5  6  1  0
  6  7  1  0
  6 19  1  0
  7  8  1  0
  8  9  1  0
  9 10  1  1
  9 18  1  0
 10 11  1  0
 11 12  1  0
 12 13  1  0
 13 14  1  0
 14 15  2  0
 14 16  1  0
 16 17  1  0
 18 19  1  0
 20 21  1  0
 22 21  1  6
 22 23  2  0
 22 24  2  0
M  CHG  1   9   1
M  END
