
     RDKit          3D

 22 24  0  0  0  0  0  0  0  0999 V2000
    2.5870   -0.4340    2.6370 C   0  0  0  0  0  0  0  0  0  0  0  0
    1.7110   -0.1410    1.5770 O   0  0  0  0  0  0  0  0  0  0  0  0
    2.2100    0.1910    0.3330 C   0  0  0  0  0  0  0  0  0  0  0  0
    3.6110    0.2230    0.1910 C   0  0  0  0  0  0  0  0  0  0  0  0
    4.1850    0.5500   -1.0120 C   0  0  0  0  0  0  0  0  0  0  0  0
    5.5620    0.5870   -1.1740 O   0  0  0  0  0  0  0  0  0  0  0  0
    3.3840    0.8490   -2.0930 C   0  0  0  0  0  0  0  0  0  0  0  0
    2.0350    0.8120   -1.9350 C   0  0  0  0  0  0  0  0  0  0  0  0
    1.4010    0.4850   -0.7360 C   0  0  0  0  0  0  0  0  0  0  0  0
   -0.0280    0.4340   -0.6840 C   0  0  0  0  0  0  0  0  0  0  0  0
   -0.7720   -0.5960   -0.3470 C   0  0  0  0  0  0  0  0  0  0  0  0
   -0.1700   -1.8940    0.0340 C   0  0  0  0  0  0  0  0  0  0  0  0
   -1.1660   -2.9810   -0.4210 C   0  0  0  0  0  0  0  0  0  0  0  0
   -1.9660   -2.4250   -1.5540 C   0  0  0  0  0  0  0  0  0  0  0  0
   -2.8900   -1.4120   -0.9880 N   0  0  0  0  0  0  0  0  0  0  0  0
   -2.2450   -0.4700   -0.3650 C   0  0  0  0  0  0  0  0  0  0  0  0
   -2.9230    0.6420    0.2100 C   0  0  0  0  0  0  0  0  0  0  0  0
   -2.3010    1.6360    0.9270 C   0  0  0  0  0  0  0  0  0  0  0  0
   -3.0340    2.7010    1.4190 C   0  0  0  0  0  0  0  0  0  0  0  0
   -4.3780    2.8020    1.2130 C   0  0  0  0  0  0  0  0  0  0  0  0
   -4.9760    1.8270    0.5130 N   0  0  0  0  0  0  0  0  0  0  0  0
   -4.3120    0.7900    0.0250 C   0  0  0  0  0  0  0  0  0  0  0  0
  1  2  1  0
  2  3  1  0
  3  4  2  0
  3  9  1  0
  4  5  1  0
  5  6  1  0
  5  7  2  0
  7  8  1  0
  8  9  2  0
  9 10  1  0
 10 11  2  3
 11 12  1  0
 11 16  1  0
 12 13  1  0
 13 14  1  0
 14 15  1  0
 15 16  2  0
 16 17  1  0
 17 18  2  0
 17 22  1  0
 18 19  1  0
 19 20  2  0
 20 21  1  0
 21 22  2  0
M  END
