
     RDKit          3D

 22 24  0  0  0  0  0  0  0  0999 V2000
   -2.6230   -3.6900   -0.4270 C   0  0  0  0  0  0  0  0  0  0  0  0
   -1.7460   -2.6040   -0.3310 O   0  0  0  0  0  0  0  0  0  0  0  0
   -2.2160   -1.2890   -0.2810 C   0  0  0  0  0  0  0  0  0  0  0  0
   -3.5610   -1.0730   -0.3290 C   0  0  0  0  0  0  0  0  0  0  0  0
   -4.0470    0.2200   -0.2810 C   0  0  0  0  0  0  0  0  0  0  0  0
   -5.4300    0.4360   -0.3300 C   0  0  0  0  0  0  0  0  0  0  0  0
   -5.8410    1.7480   -0.2780 C   0  0  0  0  0  0  0  0  0  0  0  0
   -4.9630    2.8010   -0.1830 C   0  0  0  0  0  0  0  0  0  0  0  0
   -3.6420    2.5710   -0.1370 N   0  0  0  0  0  0  0  0  0  0  0  0
   -3.1990    1.2950   -0.1860 C   0  0  0  0  0  0  0  0  0  0  0  0
   -1.8240    1.0200   -0.1400 C   0  0  0  0  0  0  0  0  0  0  0  0
   -1.3090   -0.2390   -0.1850 C   0  0  0  0  0  0  0  0  0  0  0  0
    0.0650   -0.5070   -0.1390 N   0  0  0  0  0  0  0  0  0  0  0  0
    1.1280    0.4040   -0.0440 C   0  0  0  0  0  0  0  0  0  0  0  0
    0.9190    1.6180    0.0120 O   0  0  0  0  0  0  0  0  0  0  0  0
    2.5180   -0.0820   -0.0090 C   0  0  0  0  0  0  0  0  0  0  0  0
    2.9230   -1.3360   -0.0580 C   0  0  0  0  0  0  0  0  0  0  0  0
    4.3950   -1.3510    0.0060 C   0  0  0  0  0  0  0  0  0  0  0  0
    4.7830    0.0710    0.0990 C   0  0  0  0  0  0  0  0  0  0  0  0
    6.1620    0.6120    0.1890 C   0  0  0  0  0  0  0  0  0  0  0  0
    3.6810    0.7900    0.0890 C   0  0  0  0  0  0  0  0  0  0  0  0
    3.6370    2.2960    0.1680 C   0  0  0  0  0  0  0  0  0  0  0  0
  1  2  1  0
  2  3  1  0
  3  4  2  0
  3 12  1  0
  4  5  1  0
  5  6  2  0
  5 10  1  0
  6  7  1  0
  7  8  2  0
  8  9  1  0
  9 10  2  0
 10 11  1  0
 11 12  2  0
 12 13  1  0
 13 14  1  0
 14 15  2  0
 14 16  1  0
 16 17  2  0
 16 21  1  0
 17 18  1  0
 18 19  1  0
 19 20  1  0
 19 21  2  0
 21 22  1  0
M  END
