
     RDKit          3D

 22 24  0  0  0  0  0  0  0  0999 V2000
   -4.2860    2.5160   -0.5040 C   0  0  0  0  0  0  0  0  0  0  0  0
   -3.3930    1.3340   -0.7420 C   0  0  0  0  0  0  0  0  0  0  0  0
   -2.4770    1.1250    0.4640 C   0  0  1  0  0  0  0  0  0  0  0  0
   -3.2840    0.8750    1.7130 C   0  0  0  0  0  0  0  0  0  0  0  0
   -1.5430   -0.0020    0.2070 C   0  0  0  0  0  0  0  0  0  0  0  0
   -2.0930   -1.2200    0.0210 N   0  0  0  0  0  0  0  0  0  0  0  0
   -1.3290   -2.3130   -0.2200 C   0  0  0  0  0  0  0  0  0  0  0  0
   -1.9620   -3.6400   -0.4200 C   0  0  0  0  0  0  0  0  0  0  0  0
    0.0340   -2.1260   -0.2670 C   0  0  0  0  0  0  0  0  0  0  0  0
    0.8930   -3.1840   -0.5070 C   0  0  0  0  0  0  0  0  0  0  0  0
    0.3130   -4.4350   -0.6970 O   0  0  0  0  0  0  0  0  0  0  0  0
    2.2580   -3.0210   -0.5590 C   0  0  0  0  0  0  0  0  0  0  0  0
    2.7710   -1.7590   -0.3630 C   0  0  0  0  0  0  0  0  0  0  0  0
    1.9750   -0.6450   -0.1160 C   0  0  0  0  0  0  0  0  0  0  0  0
    2.5640    0.6640    0.0840 C   0  0  0  0  0  0  0  0  0  0  0  0
    2.0220    1.8780    0.3340 C   0  0  0  0  0  0  0  0  0  0  0  0
    3.0400    2.8020    0.4390 C   0  0  0  0  0  0  0  0  0  0  0  0
    4.1950    2.0930    0.2440 C   0  0  0  0  0  0  0  0  0  0  0  0
    5.6070    2.5840    0.2490 C   0  0  0  0  0  0  0  0  0  0  0  0
    3.8770    0.8670    0.0430 O   0  0  0  0  0  0  0  0  0  0  0  0
    0.6190   -0.8790   -0.0780 C   0  0  0  0  0  0  0  0  0  0  0  0
   -0.2060    0.1330    0.1520 N   0  0  0  0  0  0  0  0  0  0  0  0
  1  2  1  0
  2  3  1  0
  3  4  1  1
  3  5  1  0
  5  6  2  0
  5 22  1  0
  6  7  1  0
  7  8  1  0
  7  9  2  0
  9 10  1  0
  9 21  1  0
 10 11  1  0
 10 12  2  0
 12 13  1  0
 13 14  2  0
 14 15  1  0
 14 21  1  0
 15 16  2  0
 15 20  1  0
 16 17  1  0
 17 18  2  0
 18 19  1  0
 18 20  1  0
 21 22  2  0
M  END
