
     RDKit          3D

 22 24  0  0  0  0  0  0  0  0999 V2000
   -1.3290   -2.6410    0.0320 C   0  0  0  0  0  0  0  0  0  0  0  0
   -1.3230   -1.4200    0.8850 C   0  0  0  0  0  0  0  0  0  0  0  0
   -2.0190   -0.2930    0.3020 N   0  0  0  0  0  0  0  0  0  0  0  0
   -1.2670    0.5890   -0.5060 C   0  0  0  0  0  0  0  0  0  0  0  0
   -1.8340    1.5750   -1.0280 O   0  0  0  0  0  0  0  0  0  0  0  0
    0.1530    0.4130   -0.7700 C   0  0  0  0  0  0  0  0  0  0  0  0
    1.1190    0.9710    0.0420 C   0  0  0  0  0  0  0  0  0  0  0  0
    2.4610    0.7840   -0.2380 C   0  0  0  0  0  0  0  0  0  0  0  0
    2.8360    0.0390   -1.3290 C   0  0  0  0  0  0  0  0  0  0  0  0
    1.8980   -0.5160   -2.1370 N   0  0  0  0  0  0  0  0  0  0  0  0
    0.6170   -0.3230   -1.8480 C   0  0  0  0  0  0  0  0  0  0  0  0
   -0.2710   -0.8380   -2.5980 O   0  0  0  0  0  0  0  0  0  0  0  0
    4.2290   -0.2710   -1.7900 C   0  0  0  0  0  0  0  0  0  0  0  0
    5.1140   -0.3570   -0.5850 C   0  0  0  0  0  0  0  0  0  0  0  0
    4.3820   -0.7970    0.6460 C   0  0  0  0  0  0  0  0  0  0  0  0
    4.0150    0.3620    1.5460 C   0  0  0  0  0  0  0  0  0  0  0  0
    3.3410    1.4750    0.7710 C   0  0  0  0  0  0  0  0  0  0  0  0
   -3.4240   -0.0680    0.5300 C   0  0  1  0  0  0  0  0  0  0  0  0
   -3.6960    1.2590    1.1970 C   0  0  0  0  0  0  0  0  0  0  0  0
   -4.8720    1.8800    0.5070 C   0  0  0  0  0  0  0  0  0  0  0  0
   -5.5320    0.6920   -0.2030 C   0  0  0  0  0  0  0  0  0  0  0  0
   -4.2650   -0.0210   -0.6990 C   0  0  0  0  0  0  0  0  0  0  0  0
  1  2  1  0
  2  3  1  0
  3  4  1  0
 18  3  1  6
  4  5  2  0
  4  6  1  0
  6  7  2  0
  6 11  1  0
  7  8  1  0
  8  9  2  0
  8 17  1  0
  9 10  1  0
  9 13  1  0
 10 11  1  0
 11 12  2  0
 13 14  1  0
 14 15  1  0
 15 16  1  0
 16 17  1  0
 18 19  1  0
 18 22  1  0
 19 20  1  0
 20 21  1  0
 21 22  1  0
M  END
