
     RDKit          3D

 21 23  0  0  0  0  0  0  0  0999 V2000
   -5.2210    0.6560   -0.1950 C   0  0  0  0  0  0  0  0  0  0  0  0
   -3.8460   -0.0150   -0.3700 C   0  0  2  0  0  0  0  0  0  0  0  0
   -4.2000   -1.3820   -0.9960 C   0  0  0  0  0  0  0  0  0  0  0  0
   -3.2460   -0.2860    0.8990 C   0  0  0  0  0  0  0  0  0  0  0  0
   -2.7440   -0.5110    1.9150 N   0  0  0  0  0  0  0  0  0  0  0  0
   -3.0880    0.8290   -1.3270 C   0  0  0  0  0  0  0  0  0  0  0  0
   -1.7670    0.4200   -1.6560 N   0  0  0  0  0  0  0  0  0  0  0  0
   -0.6360    0.5420   -0.8060 C   0  0  0  0  0  0  0  0  0  0  0  0
   -0.6500    1.3660    0.2860 C   0  0  0  0  0  0  0  0  0  0  0  0
    0.4350    1.4880    1.1280 C   0  0  0  0  0  0  0  0  0  0  0  0
    1.5930    0.7480    0.8650 C   0  0  0  0  0  0  0  0  0  0  0  0
    1.6390   -0.0910   -0.2290 C   0  0  0  0  0  0  0  0  0  0  0  0
    0.5310   -0.1820   -1.0430 C   0  0  0  0  0  0  0  0  0  0  0  0
    2.8010   -0.8380   -0.4990 O   0  0  0  0  0  0  0  0  0  0  0  0
    3.8890   -0.7070    0.3580 C   0  0  0  0  0  0  0  0  0  0  0  0
    5.0500   -1.4230    0.1270 C   0  0  0  0  0  0  0  0  0  0  0  0
    6.1260   -1.2920    0.9760 C   0  0  0  0  0  0  0  0  0  0  0  0
    6.0970   -0.4590    2.0710 C   0  0  0  0  0  0  0  0  0  0  0  0
    4.9430    0.2450    2.2900 C   0  0  0  0  0  0  0  0  0  0  0  0
    3.8520    0.1320    1.4550 C   0  0  0  0  0  0  0  0  0  0  0  0
    2.6860    0.8700    1.7120 O   0  0  0  0  0  0  0  0  0  0  0  0
  2  1  1  1
  2  3  1  0
  2  4  1  0
  2  6  1  0
  4  5  3  0
  6  7  1  0
  7  8  1  0
  8  9  2  0
  8 13  1  0
  9 10  1  0
 10 11  2  0
 11 12  1  0
 11 21  1  0
 12 13  2  0
 12 14  1  0
 14 15  1  0
 15 16  2  0
 15 20  1  0
 16 17  1  0
 17 18  2  0
 18 19  1  0
 19 20  2  0
 20 21  1  0
M  END
