
     RDKit          3D

 22 24  0  0  0  0  0  0  0  0999 V2000
   -6.7030   -0.8960   -0.2210 C   0  0  0  0  0  0  0  0  0  0  0  0
   -5.4940   -0.7920    0.3010 C   0  0  0  0  0  0  0  0  0  0  0  0
   -5.3190   -0.7840    1.7540 C   0  0  0  0  0  0  0  0  0  0  0  0
   -4.1100   -0.6890    2.2310 C   0  0  0  0  0  0  0  0  0  0  0  0
   -2.9000   -0.5880    1.3830 C   0  0  0  0  0  0  0  0  0  0  0  0
   -2.9150   -0.5820    0.0740 C   0  0  0  0  0  0  0  0  0  0  0  0
   -1.8100   -0.4830   -0.8330 C   0  0  0  0  0  0  0  0  0  0  0  0
   -2.0980   -0.6010   -2.0980 O   0  0  0  0  0  0  0  0  0  0  0  0
   -0.4240   -0.2760   -0.5550 C   0  0  0  0  0  0  0  0  0  0  0  0
    0.4880   -0.5980   -1.5740 C   0  0  0  0  0  0  0  0  0  0  0  0
    1.8180   -0.3600   -1.4060 C   0  0  0  0  0  0  0  0  0  0  0  0
    2.3530    0.1950   -0.2670 C   0  0  0  0  0  0  0  0  0  0  0  0
    3.7400    0.4010   -0.1880 N   0  0  0  0  0  0  0  0  0  0  0  0
    4.5320    1.0580   -1.2380 C   0  0  0  0  0  0  0  0  0  0  0  0
    5.6620    1.7280   -0.5110 C   0  0  0  0  0  0  0  0  0  0  0  0
    5.8880    0.9270    0.7550 C   0  0  0  0  0  0  0  0  0  0  0  0
    4.6710    0.0640    0.8240 C   0  0  0  0  0  0  0  0  0  0  0  0
    4.4720   -0.8650    1.6730 O   0  0  0  0  0  0  0  0  0  0  0  0
    1.4730    0.5080    0.7160 C   0  0  0  0  0  0  0  0  0  0  0  0
    0.0960    0.2840    0.5920 C   0  0  0  0  0  0  0  0  0  0  0  0
   -4.3030   -0.6920   -0.5020 C   0  0  0  0  0  0  0  0  0  0  0  0
   -4.3880   -0.6930   -1.7680 N   0  0  0  0  0  0  0  0  0  0  0  0
  1  2  2  0
  2  3  1  0
  2 21  1  0
  3  4  2  0
  4  5  1  0
  5  6  2  0
  6  7  1  0
  6 21  1  0
  7  8  2  0
  7  9  1  0
  9 10  2  0
  9 20  1  0
 10 11  1  0
 11 12  2  0
 12 13  1  0
 12 19  1  0
 13 14  1  0
 13 17  1  0
 14 15  1  0
 15 16  1  0
 16 17  1  0
 17 18  2  0
 19 20  2  0
 21 22  2  0
M  END
