
     RDKit          3D

 22 24  0  0  0  0  0  0  0  0999 V2000
    4.9720   -1.3160   -0.7020 C   0  0  0  0  0  0  0  0  0  0  0  0
    4.0290   -0.3570   -1.4270 C   0  0  0  0  0  0  0  0  0  0  0  0
    3.0210    0.0670   -0.4580 C   0  0  0  0  0  0  0  0  0  0  0  0
    1.7810   -0.5390   -0.4780 C   0  0  0  0  0  0  0  0  0  0  0  0
    0.8030   -0.1830    0.4220 C   0  0  0  0  0  0  0  0  0  0  0  0
   -0.4700   -0.9010    0.3910 C   0  0  0  0  0  0  0  0  0  0  0  0
   -0.4710   -2.2680    0.4710 N   0  0  0  0  0  0  0  0  0  0  0  0
   -1.5730   -2.9730    0.4380 N   0  0  0  0  0  0  0  0  0  0  0  0
   -2.7440   -2.3290    0.3220 C   0  0  0  0  0  0  0  0  0  0  0  0
   -3.8460   -2.9750    0.2870 O   0  0  0  0  0  0  0  0  0  0  0  0
   -2.8240   -0.9580    0.2360 C   0  0  0  0  0  0  0  0  0  0  0  0
   -4.0370   -0.3080    0.1010 C   0  0  0  0  0  0  0  0  0  0  0  0
   -4.1480    1.0710   -0.0030 C   0  0  0  0  0  0  0  0  0  0  0  0
   -5.3930    1.6500   -0.1340 O   0  0  0  0  0  0  0  0  0  0  0  0
   -6.5430    0.8170   -0.1590 C   0  0  0  0  0  0  0  0  0  0  0  0
   -2.9660    1.7710    0.0330 C   0  0  0  0  0  0  0  0  0  0  0  0
   -1.7240    1.1640    0.1670 C   0  0  0  0  0  0  0  0  0  0  0  0
   -1.6560   -0.2290    0.2710 C   0  0  0  0  0  0  0  0  0  0  0  0
    1.0820    0.7890    1.3450 C   0  0  0  0  0  0  0  0  0  0  0  0
    2.3300    1.4110    1.3780 C   0  0  0  0  0  0  0  0  0  0  0  0
    3.3090    1.0430    0.4620 C   0  0  0  0  0  0  0  0  0  0  0  0
    4.6370    1.6730    0.4480 C   0  0  0  0  0  0  0  0  0  0  0  0
  1  2  1  0
  2  3  1  0
  3  4  2  0
  3 21  1  0
  4  5  1  0
  5  6  1  0
  5 19  2  0
  6  7  2  0
  6 18  1  0
  7  8  1  0
  8  9  1  0
  9 10  2  0
  9 11  1  0
 11 12  2  0
 11 18  1  0
 12 13  1  0
 13 14  1  0
 13 16  2  0
 14 15  1  0
 16 17  1  0
 17 18  2  0
 19 20  1  0
 20 21  2  0
 21 22  1  0
M  END
