
     RDKit          3D

 18 18  0  0  0  0  0  0  0  0999 V2000
    1.9560   -5.4880    1.7130 C   0  0  0  0  0  0  0  0  0  0  0  0
    2.0750   -5.0970    0.4600 C   0  0  0  0  0  0  0  0  0  0  0  0
    0.9110   -4.6880   -0.3730 C   0  0  0  0  0  0  0  0  0  0  0  0
    1.1440   -3.2570   -0.7910 C   0  0  0  0  0  0  0  0  0  0  0  0
    1.2520   -2.3960    0.3330 O   0  0  0  0  0  0  0  0  0  0  0  0
    1.4640   -1.0370    0.2350 C   0  0  0  0  0  0  0  0  0  0  0  0
    1.5650   -0.5550   -0.9030 O   0  0  0  0  0  0  0  0  0  0  0  0
    1.5700   -0.1760    1.3610 N   0  0  0  0  0  0  0  0  0  0  0  0
    1.7820    1.2430    1.2990 C   0  0  0  0  0  0  0  0  0  0  0  0
    0.7400    2.0190    0.6340 C   0  0  0  0  0  0  0  0  0  0  0  0
    0.9270    3.2830    0.5470 O   0  0  0  0  0  0  0  0  0  0  0  0
   -0.4620    1.5530    0.0720 N   0  0  0  0  0  0  0  0  0  0  0  0
   -1.3920    2.4480   -0.5540 C   0  0  0  0  0  0  0  0  0  0  0  0
   -1.7390    2.3410   -1.8230 C   0  0  0  0  0  0  0  0  0  0  0  0
   -2.7020    3.3790   -2.2070 C   0  0  0  0  0  0  0  0  0  0  0  0
   -2.5700    4.4030   -1.1040 C   0  0  0  0  0  0  0  0  0  0  0  0
   -2.1000    3.5750    0.0290 C   0  0  0  0  0  0  0  0  0  0  0  0
   -2.2830    3.8090    1.2910 C   0  0  0  0  0  0  0  0  0  0  0  0
  1  2  2  0
  2  3  1  0
  3  4  1  0
  4  5  1  0
  5  6  1  0
  6  7  2  0
  6  8  1  0
  8  9  1  0
  9 10  1  0
 10 11  2  0
 10 12  1  0
 12 13  1  0
 13 14  2  0
 13 17  1  0
 14 15  1  0
 15 16  1  0
 16 17  1  0
 17 18  2  0
M  END
