
     RDKit          3D

 18 18  0  0  0  0  0  0  0  0999 V2000
    5.7050   -0.7530   -0.9120 C   0  0  0  0  0  0  0  0  0  0  0  0
    4.2720   -1.2060   -0.8740 C   0  0  0  0  0  0  0  0  0  0  0  0
    3.8810   -1.5350    0.5440 C   0  0  0  0  0  0  0  0  0  0  0  0
    3.9870   -0.4900    1.4110 O   0  0  0  0  0  0  0  0  0  0  0  0
    3.2510    0.6260    1.1570 C   0  0  0  0  0  0  0  0  0  0  0  0
    1.7810    0.4210    1.1230 C   0  0  0  0  0  0  0  0  0  0  0  0
    1.2290   -0.7080    1.3250 O   0  0  0  0  0  0  0  0  0  0  0  0
    0.9020    1.4890    0.8590 N   0  0  0  0  0  0  0  0  0  0  0  0
   -0.5210    1.2700    0.8290 N   0  0  0  0  0  0  0  0  0  0  0  0
   -1.0940    0.4420   -0.1290 C   0  0  0  0  0  0  0  0  0  0  0  0
   -0.1940   -0.0620   -0.9320 O   0  0  0  0  0  0  0  0  0  0  0  0
   -2.4830    0.0670   -0.3640 C   0  0  0  0  0  0  0  0  0  0  0  0
   -2.7230   -0.7600   -1.3950 C   0  0  0  0  0  0  0  0  0  0  0  0
   -4.0310   -1.2390   -1.7770 C   0  0  0  0  0  0  0  0  0  0  0  0
   -5.1690   -0.7600   -0.9880 C   0  0  0  0  0  0  0  0  0  0  0  0
   -4.8570    0.1300    0.1180 C   0  0  0  0  0  0  0  0  0  0  0  0
   -3.6130    0.5130    0.4060 C   0  0  0  0  0  0  0  0  0  0  0  0
   -3.4340    1.4360    1.5910 C   0  0  0  0  0  0  0  0  0  0  0  0
  1  2  1  0
  2  3  1  0
  3  4  1  0
  4  5  1  0
  5  6  1  0
  6  7  2  0
  6  8  1  0
  8  9  1  0
  9 10  1  0
 10 11  2  0
 10 12  1  0
 12 13  2  0
 12 17  1  0
 13 14  1  0
 14 15  1  0
 15 16  1  0
 16 17  2  0
 17 18  1  0
M  END
