
     RDKit          3D

 18 18  0  0  0  0  0  0  0  0999 V2000
   -5.9160    0.9510   -0.3350 C   0  0  0  0  0  0  0  0  0  0  0  0
   -4.6620    0.3660   -0.8530 C   0  0  0  0  0  0  0  0  0  0  0  0
   -3.5990    0.2600   -0.0970 C   0  0  0  0  0  0  0  0  0  0  0  0
   -3.5580    0.7000    1.2900 C   0  0  0  0  0  0  0  0  0  0  0  0
   -2.4970    0.5600    1.9390 O   0  0  0  0  0  0  0  0  0  0  0  0
   -2.4220   -0.3150   -0.6640 N   0  0  0  0  0  0  0  0  0  0  0  0
   -1.2180    0.4400   -0.7290 C   0  0  0  0  0  0  0  0  0  0  0  0
   -1.1620    1.6220   -0.2920 O   0  0  0  0  0  0  0  0  0  0  0  0
   -0.0500   -0.1740   -1.3080 C   0  0  0  0  0  0  0  0  0  0  0  0
   -0.0950   -1.3340   -1.7400 O   0  0  0  0  0  0  0  0  0  0  0  0
    1.1620    0.5540   -1.3850 N   0  0  0  0  0  0  0  0  0  0  0  0
    2.3490   -0.0320   -1.9550 C   0  0  0  0  0  0  0  0  0  0  0  0
    2.8290   -1.2170   -1.1910 C   0  0  0  0  0  0  0  0  0  0  0  0
    3.2350   -0.8020    0.1740 C   0  0  0  0  0  0  0  0  0  0  0  0
    4.4710   -0.9600    0.6420 C   0  0  0  0  0  0  0  0  0  0  0  0
    4.4890   -0.4410    2.0040 C   0  0  0  0  0  0  0  0  0  0  0  0
    3.1210    0.0290    2.2550 C   0  0  0  0  0  0  0  0  0  0  0  0
    2.3920   -0.1900    1.1670 C   0  0  0  0  0  0  0  0  0  0  0  0
  1  2  1  0
  2  3  2  3
  3  4  1  0
  3  6  1  0
  4  5  2  0
  6  7  1  0
  7  8  2  0
  7  9  1  0
  9 10  2  0
  9 11  1  0
 11 12  1  0
 12 13  1  0
 13 14  1  0
 14 15  2  0
 14 18  1  0
 15 16  1  0
 16 17  1  0
 17 18  2  0
M  END
