
     RDKit          3D

 18 19  0  0  0  0  0  0  0  0999 V2000
   -6.6540    1.3160    0.5280 C   0  0  0  0  0  0  0  0  0  0  0  0
   -5.2260    1.2440    0.4940 N   0  0  0  0  0  0  0  0  0  0  0  0
   -4.7330   -0.0500    0.1310 C   0  0  0  0  0  0  0  0  0  0  0  0
   -3.2490   -0.0580    0.1150 C   0  0  0  0  0  0  0  0  0  0  0  0
   -2.4540    1.0260    0.4080 C   0  0  0  0  0  0  0  0  0  0  0  0
   -1.1650    0.5710    0.2700 C   0  0  0  0  0  0  0  0  0  0  0  0
   -1.2060   -0.7480   -0.0950 C   0  0  0  0  0  0  0  0  0  0  0  0
   -0.0640   -1.6510   -0.3560 C   0  0  0  0  0  0  0  0  0  0  0  0
   -0.2710   -2.8400   -0.6840 O   0  0  0  0  0  0  0  0  0  0  0  0
    1.2600   -1.1730   -0.2360 N   0  0  0  0  0  0  0  0  0  0  0  0
    2.4280   -1.9980   -0.4750 C   0  0  0  0  0  0  0  0  0  0  0  0
    3.6490   -1.1770   -0.2590 C   0  0  0  0  0  0  0  0  0  0  0  0
    4.9660   -1.6170   -0.3940 C   0  0  0  0  0  0  0  0  0  0  0  0
    5.7470   -0.5220   -0.0970 C   0  0  0  0  0  0  0  0  0  0  0  0
    4.9100    0.5230    0.2010 C   0  0  0  0  0  0  0  0  0  0  0  0
    5.3580    1.8970    0.5780 C   0  0  0  0  0  0  0  0  0  0  0  0
    3.6850    0.0800    0.0900 O   0  0  0  0  0  0  0  0  0  0  0  0
   -2.4690   -1.0730   -0.1740 O   0  0  0  0  0  0  0  0  0  0  0  0
  1  2  1  0
  2  3  1  0
  3  4  1  0
  4  5  2  0
  4 18  1  0
  5  6  1  0
  6  7  2  0
  7  8  1  0
  7 18  1  0
  8  9  2  0
  8 10  1  0
 10 11  1  0
 11 12  1  0
 12 13  2  0
 12 17  1  0
 13 14  1  0
 14 15  2  0
 15 16  1  0
 15 17  1  0
M  END
