
     RDKit          3D

 21 24  0  0  0  0  0  0  0  0999 V2000
   -5.0240    0.9230   -0.1480 C   0  0  0  0  0  0  0  0  0  0  0  0
   -3.6140    0.7040   -0.0750 N   0  0  1  0  0  0  0  0  0  0  0  0
   -3.2750   -0.2180    0.9940 C   0  0  1  0  0  0  0  0  0  0  0  0
   -3.6880   -1.5570    0.4570 C   0  0  0  0  0  0  0  0  0  0  0  0
   -3.8360   -1.3810   -1.0380 C   0  0  0  0  0  0  0  0  0  0  0  0
   -3.1610   -0.0270   -1.2420 C   0  0  2  0  0  0  0  0  0  0  0  0
   -1.6870   -0.2450   -1.2420 C   0  0  0  0  0  0  0  0  0  0  0  0
   -1.0000    0.1880    0.0210 C   0  0  2  0  0  0  0  0  0  0  0  0
    0.2960   -0.3780    0.0840 O   0  0  0  0  0  0  0  0  0  0  0  0
    1.4470    0.3920    0.0780 C   0  0  0  0  0  0  0  0  0  0  0  0
    1.3010    1.6350    0.0140 O   0  0  0  0  0  0  0  0  0  0  0  0
    2.7670   -0.2070    0.1430 C   0  0  0  0  0  0  0  0  0  0  0  0
    3.0460   -1.5510    0.2150 C   0  0  0  0  0  0  0  0  0  0  0  0
    4.4010   -1.7150    0.2600 N   0  0  0  0  0  0  0  0  0  0  0  0
    4.9920   -0.5070    0.2180 C   0  0  0  0  0  0  0  0  0  0  0  0
    6.3240   -0.1140    0.2350 C   0  0  0  0  0  0  0  0  0  0  0  0
    6.6230    1.2130    0.1790 C   0  0  0  0  0  0  0  0  0  0  0  0
    5.6090    2.1500    0.1060 C   0  0  0  0  0  0  0  0  0  0  0  0
    4.2890    1.7740    0.0880 C   0  0  0  0  0  0  0  0  0  0  0  0
    3.9790    0.4350    0.1450 C   0  0  0  0  0  0  0  0  0  0  0  0
   -1.8100   -0.1040    1.2590 C   0  0  0  0  0  0  0  0  0  0  0  0
  2  1  1  6
  2  3  1  0
  2  6  1  0
  3  4  1  6
  3 21  1  0
  4  5  1  0
  6  5  1  1
  6  7  1  0
  7  8  1  0
  8  9  1  1
  8 21  1  0
  9 10  1  0
 10 11  2  0
 10 12  1  0
 12 13  2  0
 12 20  1  0
 13 14  1  0
 14 15  1  0
 15 16  2  0
 15 20  1  0
 16 17  1  0
 17 18  2  0
 18 19  1  0
 19 20  2  0
M  CHG  1   2   1
M  END
