
     RDKit          3D

 18 19  0  0  0  0  0  0  0  0999 V2000
   -4.9950   -0.2810    0.6340 C   0  0  0  0  0  0  0  0  0  0  0  0
   -4.6580    0.7710   -0.3940 C   0  0  0  0  0  0  0  0  0  0  0  0
   -3.3640    1.3280   -0.1760 O   0  0  0  0  0  0  0  0  0  0  0  0
   -2.2220    0.5400   -0.1970 C   0  0  0  0  0  0  0  0  0  0  0  0
   -2.2310   -0.6930   -0.4020 N   0  0  0  0  0  0  0  0  0  0  0  0
   -0.8910   -1.1570   -0.3500 C   0  0  0  0  0  0  0  0  0  0  0  0
   -0.1330   -2.2300   -0.4550 C   0  0  0  0  0  0  0  0  0  0  0  0
    1.2510   -1.8230   -0.2550 C   0  0  0  0  0  0  0  0  0  0  0  0
    2.3570   -2.8260   -0.3150 C   0  0  0  0  0  0  0  0  0  0  0  0
    1.3620   -0.5220   -0.0300 C   0  0  0  0  0  0  0  0  0  0  0  0
    2.5280    0.2730    0.2130 C   0  0  0  0  0  0  0  0  0  0  0  0
    2.5440    1.5130    0.4180 O   0  0  0  0  0  0  0  0  0  0  0  0
    3.8780   -0.2380    0.2590 N   0  0  0  0  0  0  0  0  0  0  0  0
    5.0270    0.6320    0.5130 C   0  0  0  0  0  0  0  0  0  0  0  0
   -0.0310   -0.0160   -0.0790 C   0  0  0  0  0  0  0  0  0  0  0  0
   -0.8090    1.0360    0.0200 C   0  0  0  0  0  0  0  0  0  0  0  0
   -0.5910    2.4680    0.2770 C   0  0  0  0  0  0  0  0  0  0  0  0
    0.5970    2.9970    0.4790 O   0  0  0  0  0  0  0  0  0  0  0  0
  1  2  1  0
  2  3  1  0
  3  4  1  0
  4  5  2  0
  4 16  1  0
  5  6  1  0
  6  7  2  0
  6 15  1  0
  7  8  1  0
  8  9  1  0
  8 10  2  0
 10 11  1  0
 10 15  1  0
 11 12  2  0
 11 13  1  0
 13 14  1  0
 15 16  2  0
 16 17  1  0
 17 18  1  0
M  END
