
     RDKit          3D

 23 25  0  0  0  0  0  0  0  0999 V2000
   -2.8870   -3.6930   -0.3460 C   0  0  0  0  0  0  0  0  0  0  0  0
   -2.8180   -2.2100   -0.6440 C   0  0  0  0  0  0  0  0  0  0  0  0
   -2.7750   -1.4830    0.6770 C   0  0  0  0  0  0  0  0  0  0  0  0
   -2.7070   -0.0580    0.5530 N   0  0  0  0  0  0  0  0  0  0  0  0
   -3.8480    0.6780    0.5380 C   0  0  0  0  0  0  0  0  0  0  0  0
   -4.9510    0.0650    0.6440 O   0  0  0  0  0  0  0  0  0  0  0  0
   -3.7520    2.0360    0.4120 C   0  0  0  0  0  0  0  0  0  0  0  0
   -2.5500    2.6980    0.2980 C   0  0  0  0  0  0  0  0  0  0  0  0
   -2.4660    4.1750    0.1620 C   0  0  0  0  0  0  0  0  0  0  0  0
   -1.4140    1.8980    0.3180 C   0  0  0  0  0  0  0  0  0  0  0  0
   -0.1780    2.4750    0.2040 C   0  0  0  0  0  0  0  0  0  0  0  0
    0.9900    1.7450    0.2090 C   0  0  0  0  0  0  0  0  0  0  0  0
    0.9120    0.3700    0.3350 C   0  0  0  0  0  0  0  0  0  0  0  0
   -0.3050   -0.2160    0.4500 C   0  0  0  0  0  0  0  0  0  0  0  0
   -1.4850    0.5140    0.4460 C   0  0  0  0  0  0  0  0  0  0  0  0
    2.1370   -0.3390    0.3290 N   0  0  0  0  0  0  0  0  0  0  0  0
    2.1840   -1.6550   -0.1790 C   0  0  0  0  0  0  0  0  0  0  0  0
    1.1740   -2.1650   -0.7070 O   0  0  0  0  0  0  0  0  0  0  0  0
    3.4400   -2.4740   -0.1010 C   0  0  0  0  0  0  0  0  0  0  0  0
    4.1760   -2.4840   -1.4010 C   0  0  0  0  0  0  0  0  0  0  0  0
    3.3580    0.2660    0.8170 C   0  0  0  0  0  0  0  0  0  0  0  0
    3.4690    1.7260    0.5160 C   0  0  0  0  0  0  0  0  0  0  0  0
    2.2620    2.4460    0.0890 C   0  0  0  0  0  0  0  0  0  0  0  0
  1  2  1  0
  2  3  1  0
  3  4  1  0
  4  5  1  0
  4 15  1  0
  5  6  2  0
  5  7  1  0
  7  8  2  0
  8  9  1  0
  8 10  1  0
 10 11  2  0
 10 15  1  0
 11 12  1  0
 12 13  2  0
 12 23  1  0
 13 14  1  0
 13 16  1  0
 14 15  2  0
 16 17  1  0
 16 21  1  0
 17 18  2  0
 17 19  1  0
 19 20  1  0
 21 22  1  0
 22 23  1  0
M  END
