
     RDKit          3D

 18 21  0  0  0  0  0  0  0  0999 V2000
    4.6000    1.3740    0.3230 C   0  0  0  0  0  0  0  0  0  0  0  0
    3.6030    2.3160    0.1750 C   0  0  0  0  0  0  0  0  0  0  0  0
    2.3400    1.8700    0.0910 N   0  0  0  0  0  0  0  0  0  0  0  0
    2.0210    0.5510    0.1450 C   0  0  0  0  0  0  0  0  0  0  0  0
    3.0030   -0.4050    0.2920 C   0  0  0  0  0  0  0  0  0  0  0  0
    4.3080    0.0280    0.3810 C   0  0  0  0  0  0  0  0  0  0  0  0
    2.4150   -1.6310    0.3160 N   0  0  0  0  0  0  0  0  0  0  0  0
    1.0830   -1.5080    0.1890 C   0  0  0  0  0  0  0  0  0  0  0  0
    0.0490   -2.4440    0.1560 C   0  0  0  0  0  0  0  0  0  0  0  0
   -1.2210   -2.0260    0.0160 N   0  0  0  0  0  0  0  0  0  0  0  0
   -1.5050   -0.7160   -0.0910 C   0  0  0  0  0  0  0  0  0  0  0  0
   -2.8720   -0.2250   -0.2440 C   0  0  0  0  0  0  0  0  0  0  0  0
   -4.0250   -0.9800   -0.2990 C   0  0  0  0  0  0  0  0  0  0  0  0
   -5.1150   -0.1320   -0.4500 C   0  0  0  0  0  0  0  0  0  0  0  0
   -4.6400    1.1150   -0.4850 N   0  0  0  0  0  0  0  0  0  0  0  0
   -3.2910    1.0820   -0.3630 C   0  0  0  0  0  0  0  0  0  0  0  0
   -0.4790    0.2320   -0.0590 C   0  0  0  0  0  0  0  0  0  0  0  0
    0.8350   -0.1560    0.0830 C   0  0  0  0  0  0  0  0  0  0  0  0
  1  2  2  0
  1  6  1  0
  2  3  1  0
  3  4  2  0
  4  5  1  0
  4 18  1  0
  5  6  2  0
  5  7  1  0
  7  8  1  0
  8  9  2  0
  8 18  1  0
  9 10  1  0
 10 11  2  0
 11 12  1  0
 11 17  1  0
 12 13  1  0
 12 16  2  0
 13 14  2  0
 14 15  1  0
 15 16  1  0
 17 18  2  0
M  END
