
     RDKit          3D

 23 25  0  0  0  0  0  0  0  0999 V2000
    5.9590    1.2460   -1.5090 C   0  0  0  0  0  0  0  0  0  0  0  0
    5.1740    0.0760   -1.3240 O   0  0  0  0  0  0  0  0  0  0  0  0
    3.8490    0.1680   -0.9130 C   0  0  0  0  0  0  0  0  0  0  0  0
    3.3240    1.4260   -0.6920 C   0  0  0  0  0  0  0  0  0  0  0  0
    2.0200    1.5170   -0.2880 C   0  0  0  0  0  0  0  0  0  0  0  0
    1.2260    0.3670   -0.0990 C   0  0  0  0  0  0  0  0  0  0  0  0
   -0.1370    0.5680    0.3460 C   0  0  0  0  0  0  0  0  0  0  0  0
   -1.2230    0.1070   -0.2190 C   0  0  0  0  0  0  0  0  0  0  0  0
   -1.2170   -0.7060   -1.4300 C   0  0  0  0  0  0  0  0  0  0  0  0
   -2.3800   -0.3180   -2.3140 C   0  0  0  0  0  0  0  0  0  0  0  0
   -3.0240    0.9520   -1.8980 C   0  0  0  0  0  0  0  0  0  0  0  0
   -3.4280    0.8460   -0.4890 N   0  0  0  0  0  0  0  0  0  0  0  0
   -2.5370    0.4270    0.3590 C   0  0  0  0  0  0  0  0  0  0  0  0
   -2.8120    0.3590    1.7700 C   0  0  0  0  0  0  0  0  0  0  0  0
   -4.0520    0.8160    2.2400 C   0  0  0  0  0  0  0  0  0  0  0  0
   -4.3870    0.7440    3.5510 C   0  0  0  0  0  0  0  0  0  0  0  0
   -3.4930    0.2110    4.4460 C   0  0  0  0  0  0  0  0  0  0  0  0
   -2.3230   -0.2190    3.9890 N   0  0  0  0  0  0  0  0  0  0  0  0
   -1.9600   -0.1640    2.7040 C   0  0  0  0  0  0  0  0  0  0  0  0
    1.7580   -0.8740   -0.3190 C   0  0  0  0  0  0  0  0  0  0  0  0
    1.0160   -2.0490   -0.1380 O   0  0  0  0  0  0  0  0  0  0  0  0
    1.5590   -3.3230   -0.3720 C   0  0  0  0  0  0  0  0  0  0  0  0
    3.0790   -0.9580   -0.7290 C   0  0  0  0  0  0  0  0  0  0  0  0
  1  2  1  0
  2  3  1  0
  3  4  2  0
  3 23  1  0
  4  5  1  0
  5  6  2  0
  6  7  1  0
  6 20  1  0
  7  8  2  3
  8  9  1  0
  8 13  1  0
  9 10  1  0
 10 11  1  0
 11 12  1  0
 12 13  2  0
 13 14  1  0
 14 15  2  0
 14 19  1  0
 15 16  1  0
 16 17  2  0
 17 18  1  0
 18 19  2  0
 20 21  1  0
 20 23  2  0
 21 22  1  0
M  END
