
     RDKit          3D

 23 25  0  0  0  0  0  0  0  0999 V2000
    1.1560   -2.5320   -1.0160 C   0  0  0  0  0  0  0  0  0  0  0  0
    0.3050   -1.3540   -0.5950 C   0  0  0  0  0  0  0  0  0  0  0  0
   -0.9900   -1.5110   -0.3300 N   0  0  0  0  0  0  0  0  0  0  0  0
   -1.8480   -0.4930    0.0460 C   0  0  0  0  0  0  0  0  0  0  0  0
   -3.2130   -0.9060    0.3040 C   0  0  0  0  0  0  0  0  0  0  0  0
   -3.4380   -2.1840    0.6630 C   0  0  0  0  0  0  0  0  0  0  0  0
   -4.7720   -2.7350    0.9530 C   0  0  0  0  0  0  0  0  0  0  0  0
   -5.8010   -1.8430    0.6310 O   0  0  0  0  0  0  0  0  0  0  0  0
   -5.5740   -0.5420    0.2560 C   0  0  0  0  0  0  0  0  0  0  0  0
   -4.3320   -0.0400    0.0840 C   0  0  0  0  0  0  0  0  0  0  0  0
   -1.3300    0.7490    0.1570 C   0  0  0  0  0  0  0  0  0  0  0  0
    0.0420    0.9410   -0.1230 C   0  0  0  0  0  0  0  0  0  0  0  0
    0.8520   -0.0870   -0.4930 C   0  0  0  0  0  0  0  0  0  0  0  0
    2.2870    0.0590   -0.7670 C   0  0  0  0  0  0  0  0  0  0  0  0
    3.0400   -0.3800    0.4530 C   0  0  0  0  0  0  0  0  0  0  0  0
    2.4290   -0.7570    1.4910 O   0  0  0  0  0  0  0  0  0  0  0  0
    4.4530   -0.3910    0.4990 N   0  0  0  0  0  0  0  0  0  0  0  0
    5.1870   -0.8030    1.6700 C   0  0  0  0  0  0  0  0  0  0  0  0
    5.1730    0.0250   -0.6830 C   0  0  0  0  0  0  0  0  0  0  0  0
    0.4740    2.3240   -0.0110 C   0  0  0  0  0  0  0  0  0  0  0  0
   -0.4860    3.1780   -0.8210 C   0  0  0  0  0  0  0  0  0  0  0  0
   -1.8310    3.1390   -0.1800 C   0  0  0  0  0  0  0  0  0  0  0  0
   -2.0540    1.9290    0.6850 C   0  0  0  0  0  0  0  0  0  0  0  0
  1  2  1  0
  2  3  2  0
  2 13  1  0
  3  4  1  0
  4  5  1  0
  4 11  2  0
  5  6  2  0
  5 10  1  0
  6  7  1  0
  7  8  1  0
  8  9  1  0
  9 10  2  0
 11 12  1  0
 11 23  1  0
 12 13  2  0
 12 20  1  0
 13 14  1  0
 14 15  1  0
 15 16  2  0
 15 17  1  0
 17 18  1  0
 17 19  1  0
 20 21  1  0
 21 22  1  0
 22 23  1  0
M  END
