
     RDKit          3D

 23 25  0  0  0  0  0  0  0  0999 V2000
    8.0540   -0.5210    2.1080 C   0  0  0  0  0  0  0  0  0  0  0  0
    7.0630   -0.4450    0.9690 C   0  0  0  0  0  0  0  0  0  0  0  0
    5.7380   -0.3720    1.4440 O   0  0  0  0  0  0  0  0  0  0  0  0
    4.7030   -0.2960    0.5350 C   0  0  0  0  0  0  0  0  0  0  0  0
    4.9950   -0.2950   -0.8290 C   0  0  0  0  0  0  0  0  0  0  0  0
    3.9780   -0.2210   -1.7290 C   0  0  0  0  0  0  0  0  0  0  0  0
    2.6400   -0.1460   -1.3090 C   0  0  0  0  0  0  0  0  0  0  0  0
    2.3970   -0.1490    0.0350 C   0  0  0  0  0  0  0  0  0  0  0  0
    3.4050   -0.2230    0.9590 C   0  0  0  0  0  0  0  0  0  0  0  0
    1.0220   -0.0470    0.4280 N   0  0  0  0  0  0  0  0  0  0  0  0
    0.0640    0.0460   -0.3880 C   0  0  0  0  0  0  0  0  0  0  0  0
   -1.3190    0.1440    0.1700 C   0  0  0  0  0  0  0  0  0  0  0  0
   -2.3620    0.2430   -0.6350 C   0  0  0  0  0  0  0  0  0  0  0  0
   -3.6840    0.3360   -0.0650 C   0  0  0  0  0  0  0  0  0  0  0  0
   -4.7270    0.4360   -0.9050 C   0  0  0  0  0  0  0  0  0  0  0  0
   -6.0850    0.5330   -0.3910 C   0  0  0  0  0  0  0  0  0  0  0  0
   -7.1940    0.6380   -1.2030 O   0  0  0  0  0  0  0  0  0  0  0  0
   -8.4840    0.1760   -0.7920 C   0  0  0  0  0  0  0  0  0  0  0  0
   -6.2560    0.5190    0.8700 N   0  0  0  0  0  0  0  0  0  0  0  0
   -5.2560    0.4180    1.8850 C   0  0  0  0  0  0  0  0  0  0  0  0
   -3.8560    0.3180    1.3930 C   0  0  0  0  0  0  0  0  0  0  0  0
    0.2220    0.0870   -1.8300 C   0  0  0  0  0  0  0  0  0  0  0  0
    1.5950   -0.0940   -2.3260 C   0  0  0  0  0  0  0  0  0  0  0  0
  1  2  1  0
  2  3  1  0
  3  4  1  0
  4  5  2  0
  4  9  1  0
  5  6  1  0
  6  7  2  0
  7  8  1  0
  7 23  1  0
  8  9  2  0
  8 10  1  0
 10 11  2  0
 11 12  1  0
 11 22  1  0
 12 13  2  3
 13 14  1  0
 14 15  2  0
 14 21  1  0
 15 16  1  0
 16 17  1  0
 16 19  2  0
 17 18  1  0
 19 20  1  0
 20 21  1  0
 22 23  1  0
M  END
