
     RDKit          3D

 28 30  0  0  0  0  0  0  0  0999 V2000
   -4.7870   -0.7670    2.2110 C   0  0  0  0  0  0  0  0  0  0  0  0
   -3.9590   -0.3740    1.2430 C   0  0  0  0  0  0  0  0  0  0  0  0
   -2.6400   -0.3000    1.3080 N   0  0  0  0  0  0  0  0  0  0  0  0
   -2.1150    0.1470    0.1020 C   0  0  0  0  0  0  0  0  0  0  0  0
   -0.7330    0.3620   -0.0640 N   0  0  0  0  0  0  0  0  0  0  0  0
    0.0630    0.5710   -1.1730 C   0  0  0  0  0  0  0  0  0  0  0  0
   -0.4450    0.4960   -2.3050 O   0  0  0  0  0  0  0  0  0  0  0  0
    1.4880    0.8850   -1.1650 C   0  0  0  0  0  0  0  0  0  0  0  0
    2.0270    1.6070   -2.2420 C   0  0  0  0  0  0  0  0  0  0  0  0
    3.3410    1.9910   -2.3240 C   0  0  0  0  0  0  0  0  0  0  0  0
    4.1520    1.6280   -1.2630 C   0  0  0  0  0  0  0  0  0  0  0  0
    3.6520    0.9190   -0.1930 C   0  0  0  0  0  0  0  0  0  0  0  0
    2.3040    0.5330   -0.1260 C   0  0  0  0  0  0  0  0  0  0  0  0
    2.1130   -0.2310    1.1190 C   0  0  0  0  0  0  0  0  0  0  0  0
    3.5470   -0.7600    1.3190 C   0  0  2  0  0  0  0  0  0  0  0  0
    3.8690   -1.9040    0.4240 C   0  0  0  0  0  0  0  0  0  0  0  0
    3.8370   -1.0330    2.7750 C   0  0  2  0  0  0  0  0  0  0  0  0
    5.1400   -1.5000    2.8300 F   0  0  0  0  0  0  0  0  0  0  0  0
    2.9410   -1.9160    3.3420 F   0  0  0  0  0  0  0  0  0  0  0  0
    3.8320    0.1700    3.4700 F   0  0  0  0  0  0  0  0  0  0  0  0
    4.2580    0.4390    0.9860 O   0  0  0  0  0  0  0  0  0  0  0  0
   -3.1440    0.3540   -0.7270 N   0  0  0  0  0  0  0  0  0  0  0  0
   -3.2520    0.8300   -2.0770 C   0  0  0  0  0  0  0  0  0  0  0  0
   -3.2550   -0.2700   -3.0720 C   0  0  0  0  0  0  0  0  0  0  0  0
   -3.3370   -0.0800   -4.2720 O   0  0  0  0  0  0  0  0  0  0  0  0
   -3.1370   -1.9630   -2.5540 Cl  0  0  0  0  0  0  0  0  0  0  0  0
   -4.2770    0.0330   -0.0270 C   0  0  0  0  0  0  0  0  0  0  0  0
   -5.5310    0.0800   -0.4620 C   0  0  0  0  0  0  0  0  0  0  0  0
  1  2  2  0
  2  3  1  0
  2 27  1  0
  3  4  2  0
  4  5  1  0
  4 22  1  0
  5  6  1  0
  6  7  2  0
  6  8  1  0
  8  9  2  0
  8 13  1  0
  9 10  1  0
 10 11  2  0
 11 12  1  0
 12 13  2  0
 12 21  1  0
 13 14  1  0
 14 15  1  0
 15 16  1  6
 15 17  1  0
 15 21  1  0
 17 18  1  6
 17 19  1  0
 17 20  1  0
 22 23  1  0
 22 27  1  0
 23 24  1  0
 24 25  2  0
 24 26  1  0
 27 28  2  0
M  CHG  1   3   1
M  END
