
     RDKit          3D

 28 30  0  0  0  0  0  0  0  0999 V2000
   -7.9660   -0.3160   -0.1260 C   0  0  0  0  0  0  0  0  0  0  0  0
   -7.1220   -1.4820    0.0460 N   0  0  0  0  0  0  0  0  0  0  0  0
   -5.7340   -1.1560   -0.0850 C   0  0  0  0  0  0  0  0  0  0  0  0
   -5.0600   -1.3160   -1.2640 C   0  0  0  0  0  0  0  0  0  0  0  0
   -3.7120   -0.9660   -1.2710 C   0  0  0  0  0  0  0  0  0  0  0  0
   -3.0640   -0.4830   -0.1710 C   0  0  0  0  0  0  0  0  0  0  0  0
   -1.7130   -0.1280   -0.1660 O   0  0  0  0  0  0  0  0  0  0  0  0
   -1.3510    1.1560   -0.4800 C   0  0  0  0  0  0  0  0  0  0  0  0
   -2.2620    1.9760   -0.7640 O   0  0  0  0  0  0  0  0  0  0  0  0
    0.0390    1.6540   -0.5100 C   0  0  0  0  0  0  0  0  0  0  0  0
    0.9760    0.6480   -0.1750 O   0  0  0  0  0  0  0  0  0  0  0  0
    2.3220    1.0050   -0.1700 C   0  0  0  0  0  0  0  0  0  0  0  0
    2.7390    2.2490   -0.4690 N   0  0  0  0  0  0  0  0  0  0  0  0
    4.0310    2.6160   -0.4710 C   0  0  0  0  0  0  0  0  0  0  0  0
    4.5370    4.2520   -0.8680 Cl  0  0  0  0  0  0  0  0  0  0  0  0
    5.0040    1.7050   -0.1590 C   0  0  0  0  0  0  0  0  0  0  0  0
    4.5970    0.4130    0.1530 C   0  0  0  0  0  0  0  0  0  0  0  0
    3.2890    0.1020    0.1400 N   0  0  0  0  0  0  0  0  0  0  0  0
    5.8370   -0.3020    0.4330 C   0  0  0  0  0  0  0  0  0  0  0  0
    5.9130   -1.5780    0.7770 C   0  0  0  0  0  0  0  0  0  0  0  0
    7.2410   -2.2050    1.0400 C   0  0  2  0  0  0  0  0  0  0  0  0
    8.0080   -2.2890   -0.0940 F   0  0  0  0  0  0  0  0  0  0  0  0
    7.1150   -3.3930    1.7100 F   0  0  0  0  0  0  0  0  0  0  0  0
    6.9680    0.6030    0.2770 C   0  0  0  0  0  0  0  0  0  0  0  0
    8.2970    0.3230    0.4480 F   0  0  0  0  0  0  0  0  0  0  0  0
    6.4640    1.7780   -0.0710 C   0  0  0  0  0  0  0  0  0  0  0  0
   -3.7710   -0.3310    1.0090 C   0  0  0  0  0  0  0  0  0  0  0  0
   -5.1000   -0.6690    1.0420 C   0  0  0  0  0  0  0  0  0  0  0  0
  1  2  1  0
  2  3  1  0
  3  4  2  0
  3 28  1  0
  4  5  1  0
  5  6  2  0
  6  7  1  0
  6 27  1  0
  7  8  1  0
  8  9  2  0
  8 10  1  0
 10 11  1  0
 11 12  1  0
 12 13  2  0
 12 18  1  0
 13 14  1  0
 14 15  1  0
 14 16  2  0
 16 17  1  0
 16 26  1  0
 17 18  2  0
 17 19  1  0
 19 20  2  3
 19 24  1  0
 20 21  1  0
 21 22  1  6
 21 23  1  0
 24 25  1  0
 24 26  2  0
 27 28  2  0
M  CHG  1   2   1
M  END
