
     RDKit          3D

 28 31  0  0  0  0  0  0  0  0999 V2000
    3.2870    0.7430    0.7650 O   0  0  0  0  0  0  0  0  0  0  0  0
    2.8830   -0.3170    0.2410 C   0  0  0  0  0  0  0  0  0  0  0  0
    1.5290   -0.3790   -0.1300 N   0  0  0  0  0  0  0  0  0  0  0  0
    0.5380    0.6210    0.0180 C   0  0  0  0  0  0  0  0  0  0  0  0
    0.6710    1.8050    0.6930 C   0  0  0  0  0  0  0  0  0  0  0  0
   -0.3400    2.7510    0.7910 C   0  0  0  0  0  0  0  0  0  0  0  0
   -0.1260    4.2480    1.6630 Cl  0  0  0  0  0  0  0  0  0  0  0  0
   -1.5300    2.4920    0.1840 C   0  0  0  0  0  0  0  0  0  0  0  0
   -1.7300    1.3210   -0.5100 C   0  0  0  0  0  0  0  0  0  0  0  0
   -3.0060    1.1270   -1.1170 N   0  0  0  0  0  0  0  0  0  0  0  0
   -3.4390    1.6570   -2.2750 C   0  0  0  0  0  0  0  0  0  0  0  0
   -4.7240    1.2360   -2.5240 C   0  0  0  0  0  0  0  0  0  0  0  0
   -5.0730    0.4440   -1.5080 N   0  0  0  0  0  0  0  0  0  0  0  0
   -4.0310    0.3850   -0.6650 C   0  0  0  0  0  0  0  0  0  0  0  0
   -3.9820   -0.3970    0.6240 C   0  0  2  0  0  0  0  0  0  0  0  0
   -4.6490   -1.7800    0.5510 C   0  0  0  0  0  0  0  0  0  0  0  0
   -5.2320   -0.6470    1.3610 C   0  0  0  0  0  0  0  0  0  0  0  0
   -0.7170    0.4260   -0.5810 C   0  0  0  0  0  0  0  0  0  0  0  0
    3.8310   -1.4070    0.0490 C   0  0  0  0  0  0  0  0  0  0  0  0
    3.5990   -2.5980   -0.4840 C   0  0  0  0  0  0  0  0  0  0  0  0
    2.4480   -3.1140   -0.9830 F   0  0  0  0  0  0  0  0  0  0  0  0
    4.7750   -3.3540   -0.4850 O   0  0  0  0  0  0  0  0  0  0  0  0
    5.7710   -2.6260    0.0580 O   0  0  0  0  0  0  0  0  0  0  0  0
    5.2330   -1.3700    0.4210 C   0  0  0  0  0  0  0  0  0  0  0  0
    5.9460   -0.3950    0.9900 C   0  0  0  0  0  0  0  0  0  0  0  0
    7.3990   -0.6170    1.2720 C   0  0  2  0  0  0  0  0  0  0  0  0
    8.0680    0.5460    0.9710 F   0  0  0  0  0  0  0  0  0  0  0  0
    7.8360   -1.6010    0.4360 F   0  0  0  0  0  0  0  0  0  0  0  0
  1  2  2  0
  2  3  1  0
  2 19  1  0
  3  4  1  0
  4  5  2  0
  4 18  1  0
  5  6  1  0
  6  7  1  0
  6  8  2  0
  8  9  1  0
  9 10  1  0
  9 18  2  0
 10 11  1  0
 10 14  1  0
 11 12  2  0
 12 13  1  0
 13 14  2  0
 15 14  1  6
 15 16  1  0
 15 17  1  0
 16 17  1  0
 19 20  2  0
 19 24  1  0
 20 21  1  0
 20 22  1  0
 22 23  1  0
 23 24  1  0
 24 25  2  3
 25 26  1  0
 26 27  1  6
 26 28  1  0
M  CHG  1  13   1
M  END
