
     RDKit          3D

 28 29  0  0  0  0  0  0  0  0999 V2000
    5.1460    0.1870   -1.6920 C   0  0  0  0  0  0  0  0  0  0  0  0
    4.6870    1.3870   -1.4410 C   0  0  0  0  0  0  0  0  0  0  0  0
    5.6080    2.7430   -2.1340 Cl  0  0  0  0  0  0  0  0  0  0  0  0
    3.5390    1.7260   -0.6430 C   0  0  0  0  0  0  0  0  0  0  0  0
    3.1540    2.9700   -0.4800 C   0  0  0  0  0  0  0  0  0  0  0  0
    3.8820    3.9570   -1.0950 F   0  0  0  0  0  0  0  0  0  0  0  0
    2.0710    3.3090    0.2700 F   0  0  0  0  0  0  0  0  0  0  0  0
    2.7500    0.6850    0.0030 C   0  0  0  0  0  0  0  0  0  0  0  0
    1.4100    0.6030   -0.2900 C   0  0  0  0  0  0  0  0  0  0  0  0
    0.6330   -0.3810    0.3560 C   0  0  0  0  0  0  0  0  0  0  0  0
   -0.7970   -0.4340    0.0950 C   0  0  0  0  0  0  0  0  0  0  0  0
   -1.2260    0.6360   -0.5060 O   0  0  0  0  0  0  0  0  0  0  0  0
   -1.7160   -1.4460    0.3950 N   0  0  0  0  0  0  0  0  0  0  0  0
   -1.2890   -2.7800    0.8540 C   0  0  0  0  0  0  0  0  0  0  0  0
   -3.0990   -1.3060    0.2160 C   0  0  0  0  0  0  0  0  0  0  0  0
   -3.7930   -2.4120    0.2320 O   0  0  0  0  0  0  0  0  0  0  0  0
   -3.9030   -0.1320    0.0160 C   0  0  0  0  0  0  0  0  0  0  0  0
   -5.1340   -0.2380   -0.6660 C   0  0  0  0  0  0  0  0  0  0  0  0
   -6.0150    0.7960   -0.8100 C   0  0  0  0  0  0  0  0  0  0  0  0
   -5.7510    2.0050   -0.2960 N   0  0  0  0  0  0  0  0  0  0  0  0
   -4.5970    2.1550    0.3620 C   0  0  0  0  0  0  0  0  0  0  0  0
   -4.2870    3.3590    0.8980 F   0  0  0  0  0  0  0  0  0  0  0  0
   -3.6690    1.1190    0.5310 C   0  0  0  0  0  0  0  0  0  0  0  0
    1.2660   -1.2030    1.2490 C   0  0  0  0  0  0  0  0  0  0  0  0
    2.6020   -1.0850    1.5100 N   0  0  0  0  0  0  0  0  0  0  0  0
    3.2470   -1.9870    2.4760 C   0  0  0  0  0  0  0  0  0  0  0  0
    3.3410   -0.1740    0.9160 C   0  0  0  0  0  0  0  0  0  0  0  0
    4.5820   -0.0770    1.1760 O   0  0  0  0  0  0  0  0  0  0  0  0
  1  2  2  0
  2  3  1  0
  2  4  1  0
  4  5  2  3
  4  8  1  0
  5  6  1  0
  5  7  1  0
  8  9  2  0
  8 27  1  0
  9 10  1  0
 10 11  1  0
 10 24  2  0
 11 12  2  0
 11 13  1  0
 13 14  1  0
 13 15  1  0
 15 16  2  0
 15 17  1  0
 17 18  2  0
 17 23  1  0
 18 19  1  0
 19 20  2  0
 20 21  1  0
 21 22  1  0
 21 23  2  0
 24 25  1  0
 25 26  1  0
 25 27  1  0
 27 28  2  0
M  CHG  1  20   1
M  END
