
     RDKit          3D

 27 29  0  0  0  0  0  0  0  0999 V2000
   -1.7550    2.1320    0.5210 O   0  0  0  0  0  0  0  0  0  0  0  0
   -1.1180    1.0260    0.6950 C   0  0  0  0  0  0  0  0  0  0  0  0
   -1.9420   -0.0550    1.3200 C   0  0  0  0  0  0  0  0  0  0  0  0
   -2.6680   -0.8340    0.2620 C   0  0  2  0  0  0  0  0  0  0  0  0
   -3.6020    0.0950   -0.5310 C   0  0  0  0  0  0  0  0  0  0  0  0
   -4.8900   -0.6630   -0.6810 C   0  0  0  0  0  0  0  0  0  0  0  0
   -4.4590   -2.0760   -0.2990 C   0  0  0  0  0  0  0  0  0  0  0  0
   -3.6110   -1.7820    0.8600 N   0  0  0  0  0  0  0  0  0  0  0  0
    0.2280    0.8760    0.3230 N   0  0  0  0  0  0  0  0  0  0  0  0
    0.8500   -0.3240    0.4820 C   0  0  0  0  0  0  0  0  0  0  0  0
    0.2180   -1.2860    0.9600 O   0  0  0  0  0  0  0  0  0  0  0  0
    2.1610   -0.5620    0.1550 C   0  0  0  0  0  0  0  0  0  0  0  0
    2.8230   -1.8490    0.1670 C   0  0  0  0  0  0  0  0  0  0  0  0
    4.2590   -1.9660    0.3720 C   0  0  0  0  0  0  0  0  0  0  0  0
    5.1220   -1.0500    0.5700 C   0  0  0  0  0  0  0  0  0  0  0  0
    6.5060   -1.3880    0.7480 O   0  0  0  0  0  0  0  0  0  0  0  0
    4.8760    0.2660    0.6390 F   0  0  0  0  0  0  0  0  0  0  0  0
    2.2030   -3.0350    0.0140 C   0  0  0  0  0  0  0  0  0  0  0  0
    0.5540   -3.3850   -0.2350 Cl  0  0  0  0  0  0  0  0  0  0  0  0
    2.8120    0.5260   -0.3520 N   0  0  0  0  0  0  0  0  0  0  0  0
    2.2750    1.7190   -0.5330 C   0  0  0  0  0  0  0  0  0  0  0  0
    3.0260    2.7710   -1.0570 C   0  0  0  0  0  0  0  0  0  0  0  0
    2.4430    4.0030   -1.2340 C   0  0  0  0  0  0  0  0  0  0  0  0
    3.1950    5.0270   -1.7500 F   0  0  0  0  0  0  0  0  0  0  0  0
    1.1410    4.2250   -0.9070 C   0  0  0  0  0  0  0  0  0  0  0  0
    0.3990    3.1660   -0.3830 C   0  0  0  0  0  0  0  0  0  0  0  0
    0.9390    1.9210   -0.1910 C   0  0  0  0  0  0  0  0  0  0  0  0
  1  2  2  0
  2  3  1  0
  2  9  1  0
  4  3  1  1
  4  5  1  0
  4  8  1  0
  5  6  1  0
  6  7  1  0
  7  8  1  0
  9 10  1  0
  9 27  1  0
 10 11  2  0
 10 12  1  0
 12 13  1  0
 12 20  2  0
 13 14  1  0
 13 18  2  3
 14 15  2  3
 15 16  1  0
 15 17  1  0
 18 19  1  0
 20 21  1  0
 21 22  2  0
 21 27  1  0
 22 23  1  0
 23 24  1  0
 23 25  2  0
 25 26  1  0
 26 27  2  0
M  CHG  1   8   1
M  END
