
     RDKit          3D

 21 23  0  0  0  0  0  0  0  0999 V2000
   -5.9330   -1.5170   -0.3740 O   0  0  0  0  0  0  0  0  0  0  0  0
   -5.4540   -0.2770    0.3990 S   0  0  2  0  0  0  0  0  0  0  0  0
   -5.3880   -0.8280    2.0950 O   0  0  0  0  0  0  0  0  0  0  0  0
   -6.3260    0.9710    0.4270 O   0  0  0  0  0  0  0  0  0  0  0  0
   -3.7840    0.0970    0.0630 C   0  0  0  0  0  0  0  0  0  0  0  0
   -3.5130    0.9470   -0.9880 C   0  0  0  0  0  0  0  0  0  0  0  0
   -2.2020    1.2560   -1.2720 C   0  0  0  0  0  0  0  0  0  0  0  0
   -1.1480    0.7310   -0.5220 C   0  0  0  0  0  0  0  0  0  0  0  0
    0.1590    1.0430   -0.8090 C   0  0  0  0  0  0  0  0  0  0  0  0
    1.2530    0.5490   -0.0970 C   0  0  0  0  0  0  0  0  0  0  0  0
    2.5570    0.9500   -0.4490 N   0  0  0  0  0  0  0  0  0  0  0  0
    3.7430    0.2660   -0.1960 C   0  0  0  0  0  0  0  0  0  0  0  0
    4.9470    0.9840   -0.1390 C   0  0  0  0  0  0  0  0  0  0  0  0
    6.1670    0.4100    0.0750 C   0  0  0  0  0  0  0  0  0  0  0  0
    6.2200   -0.9570    0.2440 C   0  0  0  0  0  0  0  0  0  0  0  0
    5.0550   -1.6780    0.1910 C   0  0  0  0  0  0  0  0  0  0  0  0
    3.8170   -1.0990   -0.0250 C   0  0  0  0  0  0  0  0  0  0  0  0
    0.9460   -0.2930    0.9440 C   0  0  0  0  0  0  0  0  0  0  0  0
   -0.3700   -0.6230    1.2530 C   0  0  0  0  0  0  0  0  0  0  0  0
   -1.4250   -0.1160    0.5260 C   0  0  0  0  0  0  0  0  0  0  0  0
   -2.7320   -0.4240    0.8070 C   0  0  0  0  0  0  0  0  0  0  0  0
  2  1  1  6
  2  3  1  0
  2  4  1  0
  2  5  1  0
  5  6  2  0
  5 21  1  0
  6  7  1  0
  7  8  2  0
  8  9  1  0
  8 20  1  0
  9 10  2  0
 10 11  1  0
 10 18  1  0
 11 12  1  0
 12 13  2  0
 12 17  1  0
 13 14  1  0
 14 15  2  0
 15 16  1  0
 16 17  2  0
 18 19  2  0
 19 20  1  0
 20 21  2  0
M  END
