
     RDKit          3D

 28 31  0  0  0  0  0  0  0  0999 V2000
   -4.5910   -2.7450   -0.9690 C   0  0  0  0  0  0  0  0  0  0  0  0
   -3.3000   -2.1890   -0.6570 C   0  0  0  0  0  0  0  0  0  0  0  0
   -2.3390   -3.2600   -0.8130 F   0  0  0  0  0  0  0  0  0  0  0  0
   -2.7210   -1.1010   -0.2990 C   0  0  0  0  0  0  0  0  0  0  0  0
   -1.3010   -1.1690   -0.1310 C   0  0  0  0  0  0  0  0  0  0  0  0
   -0.4390   -2.6730   -0.4200 Cl  0  0  0  0  0  0  0  0  0  0  0  0
   -0.5880   -0.0820    0.2520 C   0  0  0  0  0  0  0  0  0  0  0  0
    0.8090   -0.1440    0.4180 O   0  0  0  0  0  0  0  0  0  0  0  0
    1.3770   -0.4770    1.6340 C   0  0  0  0  0  0  0  0  0  0  0  0
    2.8810   -0.4510    1.4680 C   0  0  0  0  0  0  0  0  0  0  0  0
    3.5980   -0.7230    2.4510 O   0  0  0  0  0  0  0  0  0  0  0  0
    3.4270   -0.1250    0.2260 N   0  0  0  0  0  0  0  0  0  0  0  0
    4.7990   -0.0740   -0.0500 C   0  0  0  0  0  0  0  0  0  0  0  0
    5.1730    0.5760   -1.2420 C   0  0  0  0  0  0  0  0  0  0  0  0
    6.4850    0.6750   -1.6270 C   0  0  0  0  0  0  0  0  0  0  0  0
    7.4620    0.1170   -0.8130 C   0  0  0  0  0  0  0  0  0  0  0  0
    8.7530    0.2190   -1.1990 F   0  0  0  0  0  0  0  0  0  0  0  0
    7.1210   -0.5180    0.3460 C   0  0  0  0  0  0  0  0  0  0  0  0
    5.7860   -0.6180    0.7370 C   0  0  0  0  0  0  0  0  0  0  0  0
   -1.2250    1.0770    0.4770 C   0  0  0  0  0  0  0  0  0  0  0  0
   -0.5920    2.1170    0.8370 O   0  0  0  0  0  0  0  0  0  0  0  0
   -2.5620    1.2150    0.3390 N   0  0  0  0  0  0  0  0  0  0  0  0
   -3.3070    0.1350   -0.0470 C   0  0  0  0  0  0  0  0  0  0  0  0
   -4.6100    0.3180   -0.1870 C   0  0  0  0  0  0  0  0  0  0  0  0
   -5.4220   -0.6620   -0.5750 F   0  0  0  0  0  0  0  0  0  0  0  0
   -5.2350    1.6010    0.0730 N   0  0  0  0  0  0  0  0  0  0  0  0
   -4.5450    2.2130    1.1910 C   0  0  0  0  0  0  0  0  0  0  0  0
   -3.1560    2.5100    0.6100 C   0  0  0  0  0  0  0  0  0  0  0  0
  1  2  1  0
  2  3  1  0
  2  4  2  0
  4  5  1  0
  4 23  1  0
  5  6  1  0
  5  7  2  0
  7  8  1  0
  7 20  1  0
  8  9  1  0
  9 10  1  0
 10 11  2  0
 10 12  1  0
 12 13  1  0
 13 14  2  0
 13 19  1  0
 14 15  1  0
 15 16  2  0
 16 17  1  0
 16 18  1  0
 18 19  2  0
 20 21  2  0
 20 22  1  0
 22 23  1  0
 22 28  1  0
 23 24  2  0
 24 25  1  0
 24 26  1  0
 26 27  1  0
 27 28  1  0
  6  3  1  0
M  CHG  1  26   1
M  END
