
     RDKit          3D

 33 36  0  0  0  0  0  0  0  0999 V2000
    4.8280   -2.4700   -0.4070 C   0  0  0  0  0  0  0  0  0  0  0  0
    4.8110   -1.5640    0.6950 N   0  0  0  0  0  0  0  0  0  0  0  0
    4.9930   -2.1000    2.0520 C   0  0  0  0  0  0  0  0  0  0  0  0
    4.6300   -0.1730    0.5600 C   0  0  0  0  0  0  0  0  0  0  0  0
    5.7020    0.6300    0.8610 C   0  0  0  0  0  0  0  0  0  0  0  0
    5.6220    1.9800    0.7590 C   0  0  0  0  0  0  0  0  0  0  0  0
    4.4110    2.5530    0.3340 C   0  0  0  0  0  0  0  0  0  0  0  0
    4.4160    3.9110    0.2580 O   0  0  0  0  0  0  0  0  0  0  0  0
    3.3510    1.7180    0.0390 C   0  0  0  0  0  0  0  0  0  0  0  0
    3.3870    0.3500    0.1270 C   0  0  0  0  0  0  0  0  0  0  0  0
    2.3040   -0.6000   -0.1770 C   0  0  0  0  0  0  0  0  0  0  0  0
    1.0590    0.0100   -0.6290 C   0  0  1  0  0  0  0  0  0  0  0  0
   -0.1500   -0.4290    0.2500 C   0  0  0  0  0  0  0  0  0  0  0  0
   -1.3590   -0.2660   -0.6130 C   0  0  1  0  0  0  0  0  0  0  0  0
   -2.6570   -0.5280    0.1000 C   0  0  2  0  0  0  0  0  0  0  0  0
   -2.7280   -1.7860    0.7680 N   0  0  1  0  0  0  0  0  0  0  0  0
   -3.0460   -1.6160    2.1950 C   0  0  0  0  0  0  0  0  0  0  0  0
   -3.6710   -2.7130    0.2400 C   0  0  0  0  0  0  0  0  0  0  0  0
   -3.7790   -0.2990   -0.8820 C   0  0  1  0  0  0  0  0  0  0  0  0
   -5.0110   -0.7290   -0.4150 O   0  0  0  0  0  0  0  0  0  0  0  0
   -3.9490    1.2050   -1.1450 C   0  0  1  0  0  0  0  0  0  0  0  0
   -5.0510    1.7600   -0.3500 C   0  0  0  0  0  0  0  0  0  0  0  0
   -6.3640    1.2670   -0.5090 N   0  0  0  0  0  0  0  0  0  0  0  0
   -4.8440    2.6750    0.4750 O   0  0  0  0  0  0  0  0  0  0  0  0
   -2.6420    1.8250   -0.7890 C   0  0  0  0  0  0  0  0  0  0  0  0
   -2.5710    2.8590   -0.1590 O   0  0  0  0  0  0  0  0  0  0  0  0
   -1.4210    1.0960   -1.2550 C   0  0  2  0  0  0  0  0  0  0  0  0
   -1.6020    0.9310   -2.6490 O   0  0  0  0  0  0  0  0  0  0  0  0
   -0.2630    1.9460   -0.9670 C   0  0  0  0  0  0  0  0  0  0  0  0
   -0.4210    3.3220   -1.0110 O   0  0  0  0  0  0  0  0  0  0  0  0
    0.9490    1.4720   -0.6610 C   0  0  0  0  0  0  0  0  0  0  0  0
    2.0760    2.3120   -0.3750 C   0  0  0  0  0  0  0  0  0  0  0  0
    1.9440    3.5510   -0.4860 O   0  0  0  0  0  0  0  0  0  0  0  0
  1  2  1  0
  2  3  1  0
  2  4  1  0
  4  5  2  0
  4 10  1  0
  5  6  1  0
  6  7  2  0
  7  8  1  0
  7  9  1  0
  9 10  2  0
  9 32  1  0
 10 11  1  0
 12 11  1  1
 12 13  1  0
 12 31  1  0
 14 13  1  1
 14 15  1  0
 14 27  1  0
 15 16  1  6
 15 19  1  0
 16 17  1  1
 16 18  1  0
 19 20  1  1
 19 21  1  0
 21 22  1  1
 21 25  1  0
 22 23  1  0
 22 24  2  0
 25 26  2  0
 25 27  1  0
 27 28  1  6
 27 29  1  0
 29 30  1  0
 29 31  2  0
 31 32  1  0
 32 33  2  0
M  CHG  1  16   1
M  END
