
     RDKit          3D

 32 34  0  0  0  0  0  0  0  0999 V2000
   -1.0020   -6.0030    2.0900 C   0  0  0  0  0  0  0  0  0  0  0  0
   -0.3830   -4.8490    1.5560 O   0  0  0  0  0  0  0  0  0  0  0  0
    0.0610   -3.7890    2.3140 C   0  0  0  0  0  0  0  0  0  0  0  0
   -0.0890   -3.8420    3.5570 O   0  0  0  0  0  0  0  0  0  0  0  0
    0.7000   -2.6000    1.7450 C   0  0  0  0  0  0  0  0  0  0  0  0
    0.0530   -1.4550    1.3310 C   0  0  0  0  0  0  0  0  0  0  0  0
   -1.4090   -1.2010    1.3800 C   0  0  0  0  0  0  0  0  0  0  0  0
   -1.7160    0.1350    0.8490 N   0  0  0  0  0  0  0  0  0  0  0  0
   -2.9780    0.6150    1.2520 C   0  0  0  0  0  0  0  0  0  0  0  0
   -3.9170    1.0070    0.1230 C   0  0  2  0  0  0  0  0  0  0  0  0
   -5.1830    1.4770    0.8740 C   0  0  0  0  0  0  0  0  0  0  0  0
   -4.3340   -0.1600   -0.7080 C   0  0  0  0  0  0  0  0  0  0  0  0
   -3.7500   -0.1950   -2.0830 C   0  0  1  0  0  0  0  0  0  0  0  0
   -4.5940   -0.9670   -2.9140 O   0  0  0  0  0  0  0  0  0  0  0  0
   -3.6590    1.0580   -2.6750 O   0  0  0  0  0  0  0  0  0  0  0  0
   -2.8540    1.9230   -1.9790 C   0  0  0  0  0  0  0  0  0  0  0  0
   -3.4550    2.2030   -0.6420 C   0  0  2  0  0  0  0  0  0  0  0  0
   -2.5630    2.9330    0.1800 O   0  0  0  0  0  0  0  0  0  0  0  0
    0.9890   -0.6050    0.8740 N   0  0  0  0  0  0  0  0  0  0  0  0
    2.2110   -1.1560    0.9760 C   0  0  0  0  0  0  0  0  0  0  0  0
    3.4830   -0.5180    0.5720 C   0  0  0  0  0  0  0  0  0  0  0  0
    4.5760   -1.1130    0.7060 O   0  0  0  0  0  0  0  0  0  0  0  0
    3.4990    0.7580    0.0330 O   0  0  0  0  0  0  0  0  0  0  0  0
    4.7460    1.3340   -0.3420 C   0  0  0  0  0  0  0  0  0  0  0  0
    4.4260    2.7240   -0.8940 C   0  0  2  0  0  0  0  0  0  0  0  0
    3.5070    2.5980   -2.0860 C   0  0  0  0  0  0  0  0  0  0  0  0
    4.4540    2.5000   -3.1890 N   0  0  0  0  0  0  0  0  0  0  0  0
    5.6880    3.1090   -2.8280 C   0  0  0  0  0  0  0  0  0  0  0  0
    6.6640    3.3630   -3.5790 O   0  0  0  0  0  0  0  0  0  0  0  0
    5.6650    3.4180   -1.3760 C   0  0  0  0  0  0  0  0  0  0  0  0
    2.0460   -2.4090    1.5210 C   0  0  0  0  0  0  0  0  0  0  0  0
    3.1530   -3.3510    1.8000 C   0  0  0  0  0  0  0  0  0  0  0  0
  1  2  1  0
  2  3  1  0
  3  4  2  0
  3  5  1  0
  5  6  2  0
  5 31  1  0
  6  7  1  0
  6 19  1  0
  7  8  1  0
  8  9  1  0
  9 10  1  0
 10 11  1  1
 10 12  1  0
 10 17  1  0
 12 13  1  0
 13 14  1  6
 13 15  1  0
 15 16  1  0
 16 17  1  0
 17 18  1  1
 19 20  1  0
 20 21  1  0
 20 31  2  0
 21 22  2  0
 21 23  1  0
 23 24  1  0
 25 24  1  6
 25 26  1  0
 25 30  1  0
 26 27  1  0
 27 28  1  0
 28 29  2  0
 28 30  1  0
 31 32  1  0
M  CHG  1   8   1
M  END
