
     RDKit          3D

 32 34  0  0  0  0  0  0  0  0999 V2000
   -4.0020   -2.0880    1.5030 C   0  0  0  0  0  0  0  0  0  0  0  0
   -2.7920   -1.2180    1.5800 C   0  0  0  0  0  0  0  0  0  0  0  0
   -2.7880   -0.1530    0.6000 N   0  0  2  0  0  0  0  0  0  0  0  0
   -3.9500    0.6580    0.7320 C   0  0  0  0  0  0  0  0  0  0  0  0
   -3.6590    1.8620    1.5920 C   0  0  0  0  0  0  0  0  0  0  0  0
   -2.3410    2.2360    1.6450 O   0  0  0  0  0  0  0  0  0  0  0  0
   -2.0960    3.5130    1.1340 C   0  0  0  0  0  0  0  0  0  0  0  0
   -0.7030    3.6730    0.5820 C   0  0  0  0  0  0  0  0  0  0  0  0
   -0.7410    3.3910   -0.8080 O   0  0  0  0  0  0  0  0  0  0  0  0
    0.2050    2.6320   -1.4910 C   0  0  0  0  0  0  0  0  0  0  0  0
    0.9370    3.2450   -2.3490 O   0  0  0  0  0  0  0  0  0  0  0  0
    0.4580    1.2160   -1.3360 C   0  0  0  0  0  0  0  0  0  0  0  0
   -0.4570    0.1970   -1.3710 C   0  0  0  0  0  0  0  0  0  0  0  0
   -0.0110   -1.0390   -1.1460 O   0  0  0  0  0  0  0  0  0  0  0  0
    1.2230   -1.3550   -0.8990 C   0  0  0  0  0  0  0  0  0  0  0  0
    1.5250   -2.5870   -0.7040 O   0  0  0  0  0  0  0  0  0  0  0  0
    2.1650   -0.4100   -0.8530 N   0  0  0  0  0  0  0  0  0  0  0  0
    3.5200   -0.7080   -0.5570 C   0  0  0  0  0  0  0  0  0  0  0  0
    4.0110   -0.5700    0.8210 C   0  0  2  0  0  0  0  0  0  0  0  0
    3.9050    0.8210    1.4340 C   0  0  0  0  0  0  0  0  0  0  0  0
    5.5420   -0.9110    0.7950 C   0  0  0  0  0  0  0  0  0  0  0  0
    5.0700   -2.3330    1.1480 C   0  0  0  0  0  0  0  0  0  0  0  0
    3.9070   -1.6160    1.8510 C   0  0  2  0  0  0  0  0  0  0  0  0
    2.7270   -2.3600    2.0660 N   0  0  0  0  0  0  0  0  0  0  0  0
    1.7890    0.8630   -1.0710 C   0  0  0  0  0  0  0  0  0  0  0  0
    2.6920    1.7730   -1.0350 O   0  0  0  0  0  0  0  0  0  0  0  0
   -1.8980    0.2890   -1.6330 C   0  0  1  0  0  0  0  0  0  0  0  0
   -2.4010    1.5730   -1.3400 O   0  0  0  0  0  0  0  0  0  0  0  0
   -2.3300    0.0230   -3.0370 C   0  0  0  0  0  0  0  0  0  0  0  0
   -2.0690   -1.0750   -3.7050 O   0  0  0  0  0  0  0  0  0  0  0  0
   -0.8960   -1.5540   -4.0990 C   0  0  0  0  0  0  0  0  0  0  0  0
   -2.6150   -0.7290   -0.7290 C   0  0  0  0  0  0  0  0  0  0  0  0
  1  2  1  0
  3  2  1  1
  3  4  1  0
  3 32  1  0
  4  5  1  0
  5  6  1  0
  6  7  1  0
  7  8  1  0
  8  9  1  0
  9 10  1  0
 10 11  2  0
 10 12  1  0
 12 13  2  0
 12 25  1  0
 13 14  1  0
 13 27  1  0
 14 15  1  0
 15 16  2  0
 15 17  1  0
 17 18  1  0
 17 25  1  0
 18 19  1  0
 19 20  1  1
 19 21  1  0
 19 23  1  0
 21 22  1  0
 22 23  1  0
 23 24  1  6
 25 26  2  0
 27 28  1  1
 27 29  1  0
 27 32  1  0
 29 30  1  0
 30 31  1  0
M  CHG  2   3   1  24   1
M  END
