
     RDKit          3D

 33 35  0  0  0  0  0  0  0  0999 V2000
    6.2150   -1.5730    2.6500 C   0  0  0  0  0  0  0  0  0  0  0  0
    7.1260   -0.8570    2.0420 C   0  0  0  0  0  0  0  0  0  0  0  0
    8.8110   -1.3160    2.2310 Cl  0  0  0  0  0  0  0  0  0  0  0  0
    6.8190    0.2840    1.2110 C   0  0  0  0  0  0  0  0  0  0  0  0
    7.7730    0.9950    0.6210 C   0  0  0  0  0  0  0  0  0  0  0  0
    7.3960    2.1440   -0.2130 C   0  0  0  0  0  0  0  0  0  0  0  0
    5.4640    0.6650    1.0190 N   0  0  0  0  0  0  0  0  0  0  0  0
    4.5550   -0.1920    0.3370 C   0  0  0  0  0  0  0  0  0  0  0  0
    4.9870   -1.2910   -0.0970 O   0  0  0  0  0  0  0  0  0  0  0  0
    3.1190    0.2220    0.1500 C   0  0  0  0  0  0  0  0  0  0  0  0
    2.4850   -0.8240   -0.5530 O   0  0  0  0  0  0  0  0  0  0  0  0
    1.1240   -0.6850   -0.8570 C   0  0  0  0  0  0  0  0  0  0  0  0
    0.5770    0.3560   -0.4830 O   0  0  0  0  0  0  0  0  0  0  0  0
    0.3950   -1.6570   -1.5490 N   0  0  0  0  0  0  0  0  0  0  0  0
   -0.9860   -1.6240   -1.9000 C   0  0  0  0  0  0  0  0  0  0  0  0
   -1.9060   -1.5980   -0.7030 C   0  0  2  0  0  0  0  0  0  0  0  0
   -3.3370   -1.8560   -1.0820 C   0  0  0  0  0  0  0  0  0  0  0  0
   -4.1010   -0.6870   -1.4000 N   0  0  2  0  0  0  0  0  0  0  0  0
   -4.2870   -0.4750   -2.8220 C   0  0  0  0  0  0  0  0  0  0  0  0
   -5.5810   -1.0800   -3.3170 C   0  0  0  0  0  0  0  0  0  0  0  0
   -5.6180   -2.4610   -3.0960 O   0  0  0  0  0  0  0  0  0  0  0  0
   -3.6330    0.5020   -0.7120 C   0  0  1  0  0  0  0  0  0  0  0  0
   -4.7290    1.4140   -0.3870 C   0  0  0  0  0  0  0  0  0  0  0  0
   -5.8110    1.3240   -1.0020 O   0  0  0  0  0  0  0  0  0  0  0  0
   -4.5680    2.3630    0.5880 O   0  0  0  0  0  0  0  0  0  0  0  0
   -3.5820    2.2100    1.5720 C   0  0  0  0  0  0  0  0  0  0  0  0
   -3.4030    3.1080    2.5240 C   0  0  0  0  0  0  0  0  0  0  0  0
   -2.4260    2.9300    3.4770 O   0  0  0  0  0  0  0  0  0  0  0  0
   -1.5460    1.8580    3.5710 C   0  0  0  0  0  0  0  0  0  0  0  0
   -1.7980    0.8850    2.4740 C   0  0  0  0  0  0  0  0  0  0  0  0
   -2.7290    1.0360    1.5510 C   0  0  0  0  0  0  0  0  0  0  0  0
   -2.8920    0.0140    0.5170 C   0  0  2  0  0  0  0  0  0  0  0  0
   -1.6890   -0.4950    0.0490 O   0  0  0  0  0  0  0  0  0  0  0  0
  1  2  2  0
  2  3  1  0
  2  4  1  0
  4  5  2  3
  4  7  1  0
  5  6  1  0
  7  8  1  0
  8  9  2  0
  8 10  1  0
 10 11  1  0
 11 12  1  0
 12 13  2  0
 12 14  1  0
 14 15  1  0
 16 15  1  6
 16 17  1  0
 16 33  1  0
 17 18  1  0
 18 19  1  6
 18 22  1  0
 19 20  1  0
 20 21  1  0
 22 23  1  1
 22 32  1  0
 23 24  2  0
 23 25  1  0
 25 26  1  0
 26 27  2  0
 26 31  1  0
 27 28  1  0
 28 29  1  0
 29 30  1  0
 30 31  2  0
 31 32  1  0
 32 33  1  6
M  CHG  1  18   1
M  END
