
     RDKit          3D

 33 35  0  0  0  0  0  0  0  0999 V2000
   -3.6560    7.6080   -0.0470 C   0  0  0  0  0  0  0  0  0  0  0  0
   -3.5040    6.2440    0.3190 O   0  0  0  0  0  0  0  0  0  0  0  0
   -2.6740    5.4290   -0.4210 C   0  0  0  0  0  0  0  0  0  0  0  0
   -2.0420    5.8580   -1.4170 O   0  0  0  0  0  0  0  0  0  0  0  0
   -2.5260    4.0180   -0.0290 C   0  0  0  0  0  0  0  0  0  0  0  0
   -1.7590    3.2200   -0.6940 C   0  0  0  0  0  0  0  0  0  0  0  0
   -1.5870    1.7690   -0.3160 C   0  0  0  0  0  0  0  0  0  0  0  0
   -0.3560    1.2840   -0.8030 N   0  0  0  0  0  0  0  0  0  0  0  0
    0.5520    0.3740   -0.2890 C   0  0  0  0  0  0  0  0  0  0  0  0
    0.4780   -0.1580    0.7990 O   0  0  0  0  0  0  0  0  0  0  0  0
    1.7420    0.0090   -1.1540 C   0  0  0  0  0  0  0  0  0  0  0  0
    2.5400   -0.9270   -0.4420 N   0  0  2  0  0  0  0  0  0  0  0  0
    3.5650   -0.3170    0.3830 C   0  0  0  0  0  0  0  0  0  0  0  0
    4.2270   -1.4410    1.1190 C   0  0  0  0  0  0  0  0  0  0  0  0
    5.0000   -1.1840    2.0730 O   0  0  0  0  0  0  0  0  0  0  0  0
    4.0110   -2.7670    0.7780 O   0  0  0  0  0  0  0  0  0  0  0  0
    3.4070   -3.1480   -0.4350 C   0  0  0  0  0  0  0  0  0  0  0  0
    3.1920   -1.9060   -1.2780 C   0  0  2  0  0  0  0  0  0  0  0  0
    4.4910   -1.4290   -1.8590 C   0  0  0  0  0  0  0  0  0  0  0  0
    5.0190   -2.5250   -2.6720 N   0  0  0  0  0  0  0  0  0  0  0  0
   -2.2430    1.3740    0.7000 C   0  0  0  0  0  0  0  0  0  0  0  0
   -2.2310   -0.0380    1.1540 C   0  0  0  0  0  0  0  0  0  0  0  0
   -2.8590   -0.3020    2.3030 C   0  0  0  0  0  0  0  0  0  0  0  0
   -2.9150   -1.6580    2.8090 C   0  0  0  0  0  0  0  0  0  0  0  0
   -3.7370   -1.9010    4.3550 Cl  0  0  0  0  0  0  0  0  0  0  0  0
   -2.3910   -2.6970    2.1900 C   0  0  0  0  0  0  0  0  0  0  0  0
   -1.7180   -2.4600    0.8910 C   0  0  1  0  0  0  0  0  0  0  0  0
   -0.3830   -3.1160    0.8360 C   0  0  0  0  0  0  0  0  0  0  0  0
   -2.6170   -3.1190   -0.1790 C   0  0  0  0  0  0  0  0  0  0  0  0
   -2.7500   -4.4630    0.0700 O   0  0  0  0  0  0  0  0  0  0  0  0
   -1.6660   -1.1060    0.5240 O   0  0  0  0  0  0  0  0  0  0  0  0
   -3.0190    2.2500    1.4560 O   0  0  0  0  0  0  0  0  0  0  0  0
   -3.2900    3.5660    1.1390 C   0  0  0  0  0  0  0  0  0  0  0  0
  1  2  1  0
  2  3  1  0
  3  4  2  0
  3  5  1  0
  5  6  2  0
  5 33  1  0
  6  7  1  0
  7  8  1  0
  7 21  2  0
  8  9  1  0
  9 10  2  0
  9 11  1  0
 12 11  1  6
 12 13  1  0
 12 18  1  0
 13 14  1  0
 14 15  2  0
 14 16  1  0
 16 17  1  0
 17 18  1  0
 18 19  1  1
 19 20  1  0
 21 22  1  0
 21 32  1  0
 22 23  2  0
 22 31  1  0
 23 24  1  0
 24 25  1  0
 24 26  2  0
 26 27  1  0
 27 28  1  1
 27 29  1  0
 27 31  1  0
 29 30  1  0
 32 33  1  0
M  CHG  2  12   1  20   1
M  END
