
     RDKit          3D

 32 33  0  0  0  0  0  0  0  0999 V2000
   -1.2160   -1.2130    3.4280 C   0  0  0  0  0  0  0  0  0  0  0  0
   -0.3930   -0.1460    2.8140 C   0  0  0  0  0  0  0  0  0  0  0  0
   -0.8670    0.4100    1.5060 C   0  0  2  0  0  0  0  0  0  0  0  0
   -1.9300    1.4200    1.6640 C   0  0  0  0  0  0  0  0  0  0  0  0
   -3.1240    1.2070    2.4720 C   0  0  0  0  0  0  0  0  0  0  0  0
   -2.7480    1.3950    3.8380 O   0  0  0  0  0  0  0  0  0  0  0  0
   -2.7480    2.7460    3.9280 O   0  0  0  0  0  0  0  0  0  0  0  0
   -1.4270   -0.7440    0.6380 C   0  0  0  0  0  0  0  0  0  0  0  0
   -1.5530   -0.3500   -0.7910 C   0  0  1  0  0  0  0  0  0  0  0  0
   -1.2220   -1.5660   -1.6280 C   0  0  0  0  0  0  0  0  0  0  0  0
   -2.5390   -2.0750   -2.1780 C   0  0  0  0  0  0  0  0  0  0  0  0
   -3.6290   -1.3540   -1.4530 C   0  0  2  0  0  0  0  0  0  0  0  0
   -4.7790   -1.1930   -2.2230 O   0  0  0  0  0  0  0  0  0  0  0  0
   -2.9910   -0.0100   -1.1950 C   0  0  2  0  0  0  0  0  0  0  0  0
   -3.0220    0.7100   -2.3720 O   0  0  0  0  0  0  0  0  0  0  0  0
   -0.7170    0.7240   -1.1170 O   0  0  0  0  0  0  0  0  0  0  0  0
    0.4570    0.7810   -0.4030 C   0  0  2  0  0  0  0  0  0  0  0  0
    1.0680    1.9730   -0.8100 O   0  0  0  0  0  0  0  0  0  0  0  0
    1.1370    2.0330   -2.1760 C   0  0  0  0  0  0  0  0  0  0  0  0
    2.2270    2.9670   -2.5630 C   0  0  2  0  0  0  0  0  0  0  0  0
    3.3820    2.4410   -1.8970 O   0  0  0  0  0  0  0  0  0  0  0  0
    2.0500    4.3500   -2.0480 C   0  0  0  0  0  0  0  0  0  0  0  0
    2.0120    4.3160   -0.6550 O   0  0  0  0  0  0  0  0  0  0  0  0
    1.4490   -0.3290   -0.6020 C   0  0  0  0  0  0  0  0  0  0  0  0
    1.8150   -0.6850   -1.7120 O   0  0  0  0  0  0  0  0  0  0  0  0
    1.9780   -0.9110    0.4500 O   0  0  0  0  0  0  0  0  0  0  0  0
    2.8270   -1.9140    0.7180 C   0  0  0  0  0  0  0  0  0  0  0  0
    4.1840   -1.9530    0.1230 C   0  0  0  0  0  0  0  0  0  0  0  0
    4.9920   -2.9400    1.0570 C   0  0  0  0  0  0  0  0  0  0  0  0
    4.0400   -3.9060    1.3300 O   0  0  0  0  0  0  0  0  0  0  0  0
    3.8540   -4.7660    0.3950 O   0  0  0  0  0  0  0  0  0  0  0  0
    0.2380    0.9920    0.9460 O   0  0  0  0  0  0  0  0  0  0  0  0
  1  2  1  0
  3  2  1  1
  3  4  1  0
  3  8  1  0
  3 32  1  0
  4  5  1  0
  5  6  1  0
  6  7  1  0
  9  8  1  1
  9 10  1  0
  9 14  1  0
  9 16  1  0
 10 11  1  0
 11 12  1  0
 12 13  1  6
 12 14  1  0
 14 15  1  6
 16 17  1  0
 17 18  1  6
 17 24  1  0
 17 32  1  0
 18 19  1  0
 19 20  1  0
 20 21  1  1
 20 22  1  0
 22 23  1  0
 24 25  2  0
 24 26  1  0
 26 27  1  0
 27 28  1  0
 28 29  1  0
 29 30  1  0
 30 31  1  0
M  CHG  2   7  -1  31  -1
M  END
