
     RDKit          3D

 33 33  0  0  0  0  0  0  0  0999 V2000
   -5.1400   -4.5400    0.1930 C   0  0  0  0  0  0  0  0  0  0  0  0
   -3.8850   -4.1610   -0.3030 O   0  0  0  0  0  0  0  0  0  0  0  0
   -3.0550   -3.3680    0.4710 C   0  0  0  0  0  0  0  0  0  0  0  0
   -3.5140   -3.0370    1.6080 O   0  0  0  0  0  0  0  0  0  0  0  0
   -1.7350   -2.8970    0.1050 C   0  0  0  0  0  0  0  0  0  0  0  0
   -1.5040   -1.5310   -0.3900 C   0  0  2  0  0  0  0  0  0  0  0  0
   -2.2150   -1.2000   -1.6430 C   0  0  0  0  0  0  0  0  0  0  0  0
   -3.6540   -1.2020   -1.5690 C   0  0  0  0  0  0  0  0  0  0  0  0
   -4.4180   -1.2400   -0.5870 O   0  0  0  0  0  0  0  0  0  0  0  0
   -4.3440   -1.1520   -2.8130 O   0  0  0  0  0  0  0  0  0  0  0  0
    0.0150   -1.2680   -0.5320 C   0  0  0  0  0  0  0  0  0  0  0  0
    0.3930   -0.3280    0.6230 C   0  0  1  0  0  0  0  0  0  0  0  0
   -0.2340   -0.8870    1.7430 O   0  0  0  0  0  0  0  0  0  0  0  0
    1.8310   -0.2590    0.8240 C   0  0  0  0  0  0  0  0  0  0  0  0
    2.3010   -0.7240    1.9130 O   0  0  0  0  0  0  0  0  0  0  0  0
    2.7320    0.2650   -0.0550 O   0  0  0  0  0  0  0  0  0  0  0  0
    4.1240    0.3360    0.1320 C   0  0  2  0  0  0  0  0  0  0  0  0
    4.6560    1.6900    0.2010 C   0  0  0  0  0  0  0  0  0  0  0  0
    5.3370    2.1630   -0.7300 O   0  0  0  0  0  0  0  0  0  0  0  0
    4.4120    2.4740    1.3060 O   0  0  0  0  0  0  0  0  0  0  0  0
    4.9030   -0.4970   -0.8670 C   0  0  2  0  0  0  0  0  0  0  0  0
    4.5780   -1.9500   -0.7690 C   0  0  0  0  0  0  0  0  0  0  0  0
    6.2650   -0.3210   -0.5390 O   0  0  0  0  0  0  0  0  0  0  0  0
   -0.2730    0.9670    0.2570 C   0  0  2  0  0  0  0  0  0  0  0  0
    0.1090    2.1480    1.0630 C   0  0  0  0  0  0  0  0  0  0  0  0
   -0.6570    3.3520    0.5620 C   0  0  2  0  0  0  0  0  0  0  0  0
   -0.3850    3.6770   -0.8870 C   0  0  0  0  0  0  0  0  0  0  0  0
   -1.1630    4.8140   -1.1950 O   0  0  0  0  0  0  0  0  0  0  0  0
   -0.4420    4.5450    1.4350 C   0  0  0  0  0  0  0  0  0  0  0  0
    0.0590    5.6120    0.9990 O   0  0  0  0  0  0  0  0  0  0  0  0
   -0.7970    4.4970    2.7700 O   0  0  0  0  0  0  0  0  0  0  0  0
   -1.7710    0.6830    0.3030 C   0  0  0  0  0  0  0  0  0  0  0  0
   -2.0400   -0.6350    0.5870 O   0  0  0  0  0  0  0  0  0  0  0  0
  1  2  1  0
  2  3  1  0
  3  4  2  0
  3  5  1  0
  6  5  1  1
  6  7  1  0
  6 11  1  0
  6 33  1  0
  7  8  1  0
  8  9  2  0
  8 10  1  0
 11 12  1  0
 12 13  1  1
 12 14  1  0
 12 24  1  0
 14 15  2  0
 14 16  1  0
 17 16  1  6
 17 18  1  0
 17 21  1  0
 18 19  2  0
 18 20  1  0
 21 22  1  1
 21 23  1  0
 24 25  1  1
 24 32  1  0
 26 25  1  1
 26 27  1  0
 26 29  1  0
 27 28  1  0
 29 30  2  0
 29 31  1  0
 32 33  1  0
M  CHG  2  10  -1  20  -1
M  END
