
     RDKit          3D

 33 35  0  0  0  0  0  0  0  0999 V2000
   10.7390    1.4700    0.2370 C   0  0  0  0  0  0  0  0  0  0  0  0
    9.4570    1.3560   -0.4300 N   0  0  0  0  0  0  0  0  0  0  0  0
    8.3030    0.8390    0.2320 C   0  0  0  0  0  0  0  0  0  0  0  0
    8.4570    0.4910    1.4140 O   0  0  0  0  0  0  0  0  0  0  0  0
    7.0500    0.7180   -0.3930 N   0  0  0  0  0  0  0  0  0  0  0  0
    5.8510    0.2230    0.1680 C   0  0  0  0  0  0  0  0  0  0  0  0
    5.7390   -0.2230    1.4510 C   0  0  0  0  0  0  0  0  0  0  0  0
    4.5350   -0.7120    1.9890 C   0  0  0  0  0  0  0  0  0  0  0  0
    3.4340   -0.7320    1.1670 C   0  0  0  0  0  0  0  0  0  0  0  0
    3.5020   -0.2910   -0.1380 C   0  0  0  0  0  0  0  0  0  0  0  0
    4.6930    0.1800   -0.6310 C   0  0  0  0  0  0  0  0  0  0  0  0
    4.8070    0.7490   -2.2920 Cl  0  0  0  0  0  0  0  0  0  0  0  0
    2.3560   -0.3300   -0.9390 O   0  0  0  0  0  0  0  0  0  0  0  0
    1.2440   -1.1510   -0.6480 C   0  0  2  0  0  0  0  0  0  0  0  0
   -0.0170   -0.3310   -0.5740 C   0  0  0  0  0  0  0  0  0  0  0  0
   -0.0210    0.9090   -0.7540 O   0  0  0  0  0  0  0  0  0  0  0  0
   -1.2130   -0.9470   -0.3000 O   0  0  0  0  0  0  0  0  0  0  0  0
   -2.4480   -0.2730   -0.2090 C   0  0  1  0  0  0  0  0  0  0  0  0
   -3.4740   -0.8120   -1.1110 C   0  0  0  0  0  0  0  0  0  0  0  0
   -3.2620   -1.7580   -1.8150 O   0  0  0  0  0  0  0  0  0  0  0  0
   -4.8090   -0.1530   -1.1370 C   0  0  1  0  0  0  0  0  0  0  0  0
   -4.8100    0.9550   -2.1760 C   0  0  0  0  0  0  0  0  0  0  0  0
   -3.7970    1.8900   -1.8310 O   0  0  0  0  0  0  0  0  0  0  0  0
   -5.9020   -1.1340   -1.3850 C   0  0  0  0  0  0  0  0  0  0  0  0
   -7.2870   -0.6200   -1.4360 C   0  0  0  0  0  0  0  0  0  0  0  0
   -7.5820    0.2950   -2.4090 O   0  0  0  0  0  0  0  0  0  0  0  0
   -4.9540    0.5440    0.2100 C   0  0  0  0  0  0  0  0  0  0  0  0
   -4.4610   -0.3660    1.2870 C   0  0  0  0  0  0  0  0  0  0  0  0
   -2.9540   -0.4580    1.2190 C   0  0  2  0  0  0  0  0  0  0  0  0
   -2.3160    0.5620    2.0270 N   0  0  0  0  0  0  0  0  0  0  0  0
   -2.3420    0.2680    3.4340 C   0  0  0  0  0  0  0  0  0  0  0  0
    1.3940   -1.8830    0.6540 C   0  0  0  0  0  0  0  0  0  0  0  0
    2.1810   -1.2020    1.6080 O   0  0  0  0  0  0  0  0  0  0  0  0
  1  2  1  0
  2  3  1  0
  3  4  2  0
  3  5  1  0
  5  6  1  0
  6  7  2  0
  6 11  1  0
  7  8  1  0
  8  9  2  0
  9 10  1  0
  9 33  1  0
 10 11  2  0
 10 13  1  0
 11 12  1  0
 13 14  1  0
 14 15  1  1
 14 32  1  0
 15 16  2  0
 15 17  1  0
 18 17  1  1
 18 19  1  0
 18 29  1  0
 19 20  2  0
 19 21  1  0
 21 22  1  6
 21 24  1  0
 21 27  1  0
 22 23  1  0
 24 25  1  0
 25 26  1  0
 27 28  1  0
 28 29  1  0
 29 30  1  1
 30 31  1  0
 32 33  1  0
M  CHG  1  30   1
M  END
