
     RDKit          3D

 26 27  0  0  0  0  0  0  0  0999 V2000
    3.5060   -2.7820    0.4990 C   0  0  0  0  0  0  0  0  0  0  0  0
    3.8430   -1.7000   -0.4980 C   0  0  1  0  0  0  0  0  0  0  0  0
    2.4010   -1.1980   -1.4850 S   0  0  0  0  0  0  0  0  0  0  0  0
    1.9980    0.5150   -1.4340 C   0  0  0  0  0  0  0  0  0  0  0  0
    1.3190    1.0470   -0.1460 C   0  0  0  0  0  0  0  0  0  0  0  0
    0.0770    0.3840   -0.1460 N   0  0  0  0  0  0  0  0  0  0  0  0
   -0.2370   -0.9170    0.3840 C   0  0  0  0  0  0  0  0  0  0  0  0
    0.6720   -1.5870    0.8430 O   0  0  0  0  0  0  0  0  0  0  0  0
   -1.6610   -1.2270    0.2790 C   0  0  2  0  0  0  0  0  0  0  0  0
   -2.0060   -2.5660    0.7020 N   0  0  0  0  0  0  0  0  0  0  0  0
   -3.1630   -2.6770    1.5380 C   0  0  0  0  0  0  0  0  0  0  0  0
   -3.6380   -3.9110    2.0350 N   0  0  0  0  0  0  0  0  0  0  0  0
   -3.8220   -1.6220    1.8670 O   0  0  0  0  0  0  0  0  0  0  0  0
   -2.0800   -1.0890   -1.1980 C   0  0  0  0  0  0  0  0  0  0  0  0
   -1.9300    0.3030   -1.7150 C   0  0  1  0  0  0  0  0  0  0  0  0
   -3.0300    0.9740   -2.1380 O   0  0  0  0  0  0  0  0  0  0  0  0
   -3.2860    2.2710   -1.8400 C   0  0  0  0  0  0  0  0  0  0  0  0
   -4.2750    2.8680   -2.3340 O   0  0  0  0  0  0  0  0  0  0  0  0
   -2.4180    2.9720   -0.9500 N   0  0  0  0  0  0  0  0  0  0  0  0
   -1.2720    2.3100   -0.3760 C   0  0  0  0  0  0  0  0  0  0  0  0
   -0.4100    2.9350    0.6340 C   0  0  0  0  0  0  0  0  0  0  0  0
   -1.4080    3.3820    1.6800 N   0  0  0  0  0  0  0  0  0  0  0  0
   -1.0740    1.0710   -0.7260 C   0  0  0  0  0  0  0  0  0  0  0  0
    4.4150   -0.5530    0.2410 C   0  0  0  0  0  0  0  0  0  0  0  0
    4.7640    0.7080   -0.2390 N   0  0  0  0  0  0  0  0  0  0  0  0
    4.6160   -0.7380    1.5060 O   0  0  0  0  0  0  0  0  0  0  0  0
  2  1  1  1
  2  3  1  0
  2 24  1  0
  3  4  1  0
  4  5  1  0
  5  6  1  0
  6  7  1  0
  6 23  1  0
  7  8  2  0
  7  9  1  0
  9 10  1  6
  9 14  1  0
 10 11  1  0
 11 12  1  0
 11 13  2  0
 15 14  1  1
 15 16  1  0
 15 23  1  0
 16 17  1  0
 17 18  2  0
 17 19  1  0
 19 20  1  0
 20 21  1  0
 20 23  2  0
 21 22  1  0
 24 25  1  0
 24 26  2  0
M  CHG  1  22   1
M  END
