
     RDKit          3D

 21 24  0  0  0  0  0  0  0  0999 V2000
   -4.1530    0.3400   -0.8490 C   0  0  0  0  0  0  0  0  0  0  0  0
   -2.8360   -0.3370   -0.7390 C   0  0  2  0  0  0  0  0  0  0  0  0
   -2.8910   -1.6060   -0.1750 O   0  0  0  0  0  0  0  0  0  0  0  0
   -1.7310   -2.2220   -0.6250 C   0  0  0  0  0  0  0  0  0  0  0  0
   -0.4650   -1.5750   -0.0740 C   0  0  1  0  0  0  0  0  0  0  0  0
    0.5890   -1.7890   -1.1320 C   0  0  0  0  0  0  0  0  0  0  0  0
    1.9490   -1.8090   -0.5490 C   0  0  0  0  0  0  0  0  0  0  0  0
    2.9210   -2.6680   -0.8020 C   0  0  0  0  0  0  0  0  0  0  0  0
    4.1280   -2.3380   -0.0090 C   0  0  0  0  0  0  0  0  0  0  0  0
    3.7100   -1.1550    0.7470 C   0  0  0  0  0  0  0  0  0  0  0  0
    2.4620   -0.8680    0.4240 C   0  0  0  0  0  0  0  0  0  0  0  0
    1.7800    0.2640    1.0220 C   0  0  0  0  0  0  0  0  0  0  0  0
    0.5100    0.7210    0.3680 C   0  0  1  0  0  0  0  0  0  0  0  0
    0.2130    2.0080    1.1100 C   0  0  0  0  0  0  0  0  0  0  0  0
    1.0780    3.0700    0.4600 C   0  0  0  0  0  0  0  0  0  0  0  0
    0.9610    2.6970   -0.9730 C   0  0  0  0  0  0  0  0  0  0  0  0
    0.7320    1.2000   -1.0200 C   0  0  0  0  0  0  0  0  0  0  0  0
   -0.6400   -0.2500    0.5100 C   0  0  2  0  0  0  0  0  0  0  0  0
   -0.7760   -0.4490    1.9130 O   0  0  0  0  0  0  0  0  0  0  0  0
   -1.9120    0.4950    0.1280 C   0  0  2  0  0  0  0  0  0  0  0  0
   -2.7490    0.8930    1.3330 C   0  0  0  0  0  0  0  0  0  0  0  0
  2  1  1  1
  2  3  1  0
  2 20  1  0
  3  4  1  0
  5  4  1  6
  5  6  1  0
  5 18  1  0
  6  7  1  0
  7  8  2  0
  7 11  1  0
  8  9  1  0
  9 10  1  0
 10 11  2  0
 11 12  1  0
 13 12  1  1
 13 14  1  0
 13 17  1  0
 13 18  1  0
 14 15  1  0
 15 16  1  0
 16 17  1  0
 18 19  1  1
 18 20  1  0
 20 21  1  1
M  END
