
     RDKit          3D

 26 28  0  0  0  0  0  0  0  0999 V2000
    0.2910   -2.0190   -0.6500 C   0  0  0  0  0  0  0  0  0  0  0  0
   -0.1650   -0.5830   -0.6010 C   0  0  2  0  0  0  0  0  0  0  0  0
   -1.5800   -0.3390   -0.8770 C   0  0  0  0  0  0  0  0  0  0  0  0
   -2.6910   -0.8880   -0.1140 C   0  0  1  0  0  0  0  0  0  0  0  0
   -2.7920   -2.4090   -0.0620 C   0  0  0  0  0  0  0  0  0  0  0  0
   -3.9260   -2.7770    0.7110 O   0  0  0  0  0  0  0  0  0  0  0  0
   -3.0210   -0.2760    1.2210 C   0  0  0  0  0  0  0  0  0  0  0  0
   -3.3500    1.0970    1.1260 O   0  0  0  0  0  0  0  0  0  0  0  0
   -4.4200    1.5410    0.3630 C   0  0  0  0  0  0  0  0  0  0  0  0
   -5.3900    0.7060    0.2020 N   0  0  0  0  0  0  0  0  0  0  0  0
   -4.4540    2.8470   -0.2140 N   0  0  0  0  0  0  0  0  0  0  0  0
    0.5920    0.1050   -1.6400 N   0  0  0  0  0  0  0  0  0  0  0  0
    1.5580    0.9760   -1.2460 N   0  0  0  0  0  0  0  0  0  0  0  0
    2.4640    0.6110   -0.1750 C   0  0  0  0  0  0  0  0  0  0  0  0
    1.7320    0.0400    0.8790 C   0  0  0  0  0  0  0  0  0  0  0  0
    2.9340   -0.3430    2.0850 S   0  0  0  0  0  0  0  0  0  0  0  0
    4.3390    0.2540    1.1740 C   0  0  0  0  0  0  0  0  0  0  0  0
    5.6830    0.3050    1.4730 C   0  0  0  0  0  0  0  0  0  0  0  0
    6.0390   -0.1510    2.5870 O   0  0  0  0  0  0  0  0  0  0  0  0
    6.5470    0.8260    0.5850 N   0  0  0  0  0  0  0  0  0  0  0  0
    6.0160    1.2740   -0.5670 C   0  0  0  0  0  0  0  0  0  0  0  0
    6.8520    1.7720   -1.4100 O   0  0  0  0  0  0  0  0  0  0  0  0
    4.7150    1.2280   -0.8610 N   0  0  0  0  0  0  0  0  0  0  0  0
    3.7870    0.7030    0.0140 C   0  0  0  0  0  0  0  0  0  0  0  0
    0.2560   -0.0990    0.7840 C   0  0  1  0  0  0  0  0  0  0  0  0
   -0.2550    1.1710    1.0500 O   0  0  0  0  0  0  0  0  0  0  0  0
  2  1  1  1
  2  3  1  0
  2 12  1  0
  2 25  1  0
  4  3  1  1
  4  5  1  0
  4  7  1  0
  5  6  1  0
  7  8  1  0
  8  9  1  0
  9 10  2  0
  9 11  1  0
 12 13  1  0
 13 14  1  0
 14 15  2  0
 14 24  1  0
 15 16  1  0
 15 25  1  0
 16 17  1  0
 17 18  1  0
 17 24  2  0
 18 19  2  0
 18 20  1  0
 20 21  1  0
 21 22  2  0
 21 23  1  0
 23 24  1  0
 25 26  1  6
M  CHG  1  12   1
M  END
