
     RDKit          3D

 26 28  0  0  0  0  0  0  0  0999 V2000
   -4.5640    1.0050   -0.5870 C   0  0  0  0  0  0  0  0  0  0  0  0
   -4.4370   -0.2560    0.2770 C   0  0  1  0  0  0  0  0  0  0  0  0
   -3.9820    0.0680    1.6310 C   0  0  0  0  0  0  0  0  0  0  0  0
   -2.7210    0.6400    1.8480 N   0  0  0  0  0  0  0  0  0  0  0  0
   -4.7170   -0.1610    2.6330 O   0  0  0  0  0  0  0  0  0  0  0  0
   -5.7910   -0.8340    0.2930 N   0  0  0  0  0  0  0  0  0  0  0  0
   -5.9730   -1.9900   -0.5120 C   0  0  0  0  0  0  0  0  0  0  0  0
   -6.9110   -2.7980   -0.2450 O   0  0  0  0  0  0  0  0  0  0  0  0
   -5.1040   -2.3020   -1.6660 C   0  0  0  0  0  0  0  0  0  0  0  0
   -3.9490   -1.5250   -1.6810 O   0  0  0  0  0  0  0  0  0  0  0  0
   -3.5590   -1.2770   -0.3660 C   0  0  1  0  0  0  0  0  0  0  0  0
   -2.1190   -0.9560   -0.2680 C   0  0  0  0  0  0  0  0  0  0  0  0
   -1.1990   -1.4180    0.6290 C   0  0  0  0  0  0  0  0  0  0  0  0
    0.0710   -0.9730    0.5090 C   0  0  0  0  0  0  0  0  0  0  0  0
    0.3760   -0.1160   -0.4640 C   0  0  0  0  0  0  0  0  0  0  0  0
    1.5820    0.5340   -0.8640 N   0  0  0  0  0  0  0  0  0  0  0  0
    2.8210    0.3620   -0.2200 C   0  0  0  0  0  0  0  0  0  0  0  0
    2.9020   -0.3970    0.7620 O   0  0  0  0  0  0  0  0  0  0  0  0
    4.0170    1.0160   -0.6310 N   0  0  0  0  0  0  0  0  0  0  0  0
    5.2790    0.8190    0.0530 C   0  0  1  0  0  0  0  0  0  0  0  0
    6.3660    0.3210   -0.8650 C   0  0  0  0  0  0  0  0  0  0  0  0
    7.5500    1.0810   -0.4900 N   0  0  0  0  0  0  0  0  0  0  0  0
    7.0190    2.3090   -0.0130 C   0  0  0  0  0  0  0  0  0  0  0  0
    7.5450    3.4710   -0.0380 O   0  0  0  0  0  0  0  0  0  0  0  0
    5.7230    2.0950    0.5460 N   0  0  0  0  0  0  0  0  0  0  0  0
   -1.1930    0.1020   -1.2790 S   0  0  0  0  0  0  0  0  0  0  0  0
  2  1  1  6
  2  3  1  0
  2  6  1  0
  2 11  1  0
  3  4  1  0
  3  5  2  0
  6  7  1  0
  7  8  2  0
  7  9  1  0
  9 10  1  0
 10 11  1  0
 11 12  1  6
 12 13  2  0
 12 26  1  0
 13 14  1  0
 14 15  2  0
 15 16  1  0
 15 26  1  0
 16 17  1  0
 17 18  2  0
 17 19  1  0
 20 19  1  6
 20 21  1  0
 20 25  1  0
 21 22  1  0
 22 23  1  0
 23 24  2  0
 23 25  1  0
M  CHG  1  22   1
M  END
