
     RDKit          3D

 26 27  0  0  0  0  0  0  0  0999 V2000
    4.3110    2.5920    1.3910 N   0  0  0  0  0  0  0  0  0  0  0  0
    3.5410    1.9650    0.3960 C   0  0  0  0  0  0  0  0  0  0  0  0
    2.7070    2.7540   -0.1950 O   0  0  0  0  0  0  0  0  0  0  0  0
    3.5840    0.5510   -0.0280 C   0  0  2  0  0  0  0  0  0  0  0  0
    2.3950   -0.0730   -0.3870 N   0  0  0  0  0  0  0  0  0  0  0  0
    1.0530    0.3850    0.0370 C   0  0  0  0  0  0  0  0  0  0  0  0
    0.9720    1.2880    0.7700 O   0  0  0  0  0  0  0  0  0  0  0  0
    0.0650   -0.4770   -0.6260 N   0  0  0  0  0  0  0  0  0  0  0  0
   -1.3150    0.3230    0.0630 C   0  0  0  0  0  0  0  0  0  0  0  0
   -1.0770    1.1910    0.8070 O   0  0  0  0  0  0  0  0  0  0  0  0
   -2.4840   -0.2410   -0.4120 N   0  0  0  0  0  0  0  0  0  0  0  0
   -2.5920   -1.2500   -1.4140 C   0  0  0  0  0  0  0  0  0  0  0  0
   -3.8940   -1.1810   -2.1910 C   0  0  0  0  0  0  0  0  0  0  0  0
   -4.7030   -0.1000   -1.8580 O   0  0  0  0  0  0  0  0  0  0  0  0
   -5.6060   -0.5330   -0.8550 C   0  0  2  0  0  0  0  0  0  0  0  0
   -6.6280    0.4920   -0.4940 C   0  0  0  0  0  0  0  0  0  0  0  0
   -7.4910   -0.0740    0.5330 N   0  0  0  0  0  0  0  0  0  0  0  0
   -4.7000   -0.7350    0.3790 C   0  0  0  0  0  0  0  0  0  0  0  0
   -3.6430    0.3440    0.3390 C   0  0  0  0  0  0  0  0  0  0  0  0
    4.5900   -0.3120    0.6480 C   0  0  2  0  0  0  0  0  0  0  0  0
    4.5080   -0.4260    2.0640 N   0  0  0  0  0  0  0  0  0  0  0  0
    5.9550   -0.0860    0.1580 C   0  0  0  0  0  0  0  0  0  0  0  0
    6.9890    0.5740    0.6060 C   0  0  0  0  0  0  0  0  0  0  0  0
    8.1270    0.5660   -0.1310 O   0  0  0  0  0  0  0  0  0  0  0  0
    8.3250   -0.5760   -0.9380 C   0  0  0  0  0  0  0  0  0  0  0  0
    6.5480   -0.7860   -1.4160 S   0  0  0  0  0  0  0  0  0  0  0  0
  1  2  1  0
  2  3  2  0
  2  4  1  0
  4  5  1  1
  4 20  1  0
  5  6  1  0
  6  7  2  0
  6  8  1  0
  8  9  1  0
  9 10  2  0
  9 11  1  0
 11 12  1  0
 11 19  1  0
 12 13  1  0
 13 14  1  0
 14 15  1  0
 15 16  1  1
 15 18  1  0
 16 17  1  0
 18 19  1  0
 20 21  1  1
 20 22  1  0
 22 23  2  0
 22 26  1  0
 23 24  1  0
 24 25  1  0
 25 26  1  0
M  CHG  1  17   1
M  END
