
     RDKit          3D

 35 39  0  0  0  0  0  0  0  0999 V2000
   -9.3280   -1.7690   -0.0590 C   0  0  0  0  0  0  0  0  0  0  0  0
   -7.8880   -1.5940    0.2720 C   0  0  0  0  0  0  0  0  0  0  0  0
   -7.2210   -2.3590    1.1370 N   0  0  0  0  0  0  0  0  0  0  0  0
   -5.9600   -1.9130    1.1800 N   0  0  0  0  0  0  0  0  0  0  0  0
   -5.7670   -0.8810    0.3750 C   0  0  0  0  0  0  0  0  0  0  0  0
   -4.5680   -0.1140    0.1220 C   0  0  0  0  0  0  0  0  0  0  0  0
   -4.6870    0.8420   -0.7060 O   0  0  0  0  0  0  0  0  0  0  0  0
   -3.3120   -0.3570    0.7210 N   0  0  0  0  0  0  0  0  0  0  0  0
   -2.9070   -1.3880    1.6290 C   0  0  0  0  0  0  0  0  0  0  0  0
   -1.4420   -1.2100    1.8120 C   0  0  0  0  0  0  0  0  0  0  0  0
   -1.0510    0.0080    1.0840 C   0  0  0  0  0  0  0  0  0  0  0  0
    0.1950    0.6330    0.9970 C   0  0  0  0  0  0  0  0  0  0  0  0
    0.3490    1.7770    0.2590 C   0  0  0  0  0  0  0  0  0  0  0  0
    1.6490    2.4700    0.1530 C   0  0  0  0  0  0  0  0  0  0  0  0
    2.4590    1.8950   -0.8420 N   0  0  0  0  0  0  0  0  0  0  0  0
    1.9130    1.9920   -2.1860 C   0  0  0  0  0  0  0  0  0  0  0  0
    2.5390    0.9000   -3.0100 C   0  0  0  0  0  0  0  0  0  0  0  0
    3.5180    0.2380   -2.0970 C   0  0  0  0  0  0  0  0  0  0  0  0
    2.9950    0.6100   -0.7020 C   0  0  1  0  0  0  0  0  0  0  0  0
    4.0390    0.3800    0.3110 C   0  0  0  0  0  0  0  0  0  0  0  0
    5.3330   -0.1040    0.0670 C   0  0  0  0  0  0  0  0  0  0  0  0
    6.0150   -0.2190    1.2590 C   0  0  0  0  0  0  0  0  0  0  0  0
    7.3930   -0.6850    1.4610 C   0  0  0  0  0  0  0  0  0  0  0  0
    8.1080   -1.0470    0.4240 C   0  0  0  0  0  0  0  0  0  0  0  0
    9.5040   -1.5230    0.5870 C   0  0  1  0  0  0  0  0  0  0  0  0
    9.9820   -1.1150    1.8270 F   0  0  0  0  0  0  0  0  0  0  0  0
    9.6240   -2.8810    0.5170 F   0  0  0  0  0  0  0  0  0  0  0  0
   10.3500   -0.9610   -0.3540 F   0  0  0  0  0  0  0  0  0  0  0  0
    5.1490    0.1860    2.2010 N   0  0  0  0  0  0  0  0  0  0  0  0
    3.9820    0.5380    1.6290 N   0  0  0  0  0  0  0  0  0  0  0  0
   -0.7500    2.2790   -0.3800 C   0  0  0  0  0  0  0  0  0  0  0  0
   -1.9900    1.6530   -0.2900 C   0  0  0  0  0  0  0  0  0  0  0  0
   -2.1680    0.4900    0.4540 C   0  0  0  0  0  0  0  0  0  0  0  0
   -7.0150   -0.6610   -0.2240 C   0  0  0  0  0  0  0  0  0  0  0  0
   -7.3160    0.3940   -1.2110 C   0  0  0  0  0  0  0  0  0  0  0  0
  1  2  1  0
  2  3  2  0
  2 34  1  0
  3  4  1  0
  4  5  1  0
  5  6  1  0
  5 34  2  0
  6  7  2  0
  6  8  1  0
  8  9  1  0
  8 33  1  0
  9 10  1  0
 10 11  1  0
 11 12  2  0
 11 33  1  0
 12 13  1  0
 13 14  1  0
 13 31  2  0
 14 15  1  0
 15 16  1  0
 15 19  1  0
 16 17  1  0
 17 18  1  0
 18 19  1  0
 19 20  1  1
 20 21  2  0
 20 30  1  0
 21 22  1  0
 22 23  1  0
 22 29  2  0
 23 24  2  3
 24 25  1  0
 25 26  1  1
 25 27  1  0
 25 28  1  0
 29 30  1  0
 31 32  1  0
 32 33  2  0
 34 35  1  0
M  END
