
     RDKit          3D

 35 39  0  0  0  0  0  0  0  0999 V2000
    4.8050    2.0290   -3.6190 C   0  0  0  0  0  0  0  0  0  0  0  0
    4.8580    1.3030   -2.3350 C   0  0  0  0  0  0  0  0  0  0  0  0
    5.8780    1.0470   -1.6050 N   0  0  0  0  0  0  0  0  0  0  0  0
    5.5350    0.3540   -0.4960 N   0  0  0  0  0  0  0  0  0  0  0  0
    4.2180    0.1080   -0.4090 C   0  0  0  0  0  0  0  0  0  0  0  0
    3.7620   -0.6360    0.7310 C   0  0  0  0  0  0  0  0  0  0  0  0
    2.5270   -0.9170    1.0950 C   0  0  0  0  0  0  0  0  0  0  0  0
    1.4930   -0.4590    0.2870 N   0  0  0  0  0  0  0  0  0  0  0  0
    0.1000   -0.5810    0.3120 C   0  0  0  0  0  0  0  0  0  0  0  0
   -0.5000   -1.2310    1.1130 O   0  0  0  0  0  0  0  0  0  0  0  0
   -0.7350    0.1440   -0.7180 C   0  0  0  0  0  0  0  0  0  0  0  0
   -2.1160   -0.2120   -0.5590 N   0  0  0  0  0  0  0  0  0  0  0  0
   -2.3270   -1.4900   -1.1320 C   0  0  0  0  0  0  0  0  0  0  0  0
   -2.5290   -1.3790   -2.6480 C   0  0  0  0  0  0  0  0  0  0  0  0
   -3.9740   -1.3210   -2.9690 C   0  0  0  0  0  0  0  0  0  0  0  0
   -4.7220   -0.3330   -2.1590 C   0  0  0  0  0  0  0  0  0  0  0  0
   -3.9360    0.9210   -1.8840 C   0  0  0  0  0  0  0  0  0  0  0  0
   -3.0780    0.7920   -0.6550 C   0  0  1  0  0  0  0  0  0  0  0  0
   -3.5550    1.4130    0.5830 C   0  0  0  0  0  0  0  0  0  0  0  0
   -3.7740    2.7700    0.8150 C   0  0  0  0  0  0  0  0  0  0  0  0
   -3.9930    3.2500    2.0850 C   0  0  0  0  0  0  0  0  0  0  0  0
   -4.1670    4.5870    2.2590 F   0  0  0  0  0  0  0  0  0  0  0  0
   -4.0150    2.4430    3.1880 C   0  0  0  0  0  0  0  0  0  0  0  0
   -4.2190    2.9130    4.4500 F   0  0  0  0  0  0  0  0  0  0  0  0
   -3.8030    1.0710    2.9900 C   0  0  0  0  0  0  0  0  0  0  0  0
   -3.5870    0.6190    1.7340 C   0  0  0  0  0  0  0  0  0  0  0  0
   -3.4180   -0.7050    1.5590 F   0  0  0  0  0  0  0  0  0  0  0  0
    2.3270   -1.5060    2.4390 C   0  0  0  0  0  0  0  0  0  0  0  0
    1.2270   -2.0220    3.0740 C   0  0  0  0  0  0  0  0  0  0  0  0
    1.6680   -2.5300    4.2550 N   0  0  0  0  0  0  0  0  0  0  0  0
    2.9280   -2.3730    4.3990 N   0  0  0  0  0  0  0  0  0  0  0  0
    3.3690   -1.7270    3.2780 C   0  0  0  0  0  0  0  0  0  0  0  0
    4.7380   -1.2110    2.9320 C   0  0  0  0  0  0  0  0  0  0  0  0
    4.8460   -1.4450    1.4780 C   0  0  0  0  0  0  0  0  0  0  0  0
    3.6950    0.6680   -1.6250 C   0  0  0  0  0  0  0  0  0  0  0  0
  1  2  1  0
  2  3  2  0
  2 35  1  0
  3  4  1  0
  4  5  2  0
  5  6  1  0
  5 35  1  0
  6  7  2  0
  6 34  1  0
  7  8  1  0
  7 28  1  0
  8  9  1  0
  9 10  2  0
  9 11  1  0
 11 12  1  0
 12 13  1  0
 12 18  1  0
 13 14  1  0
 14 15  1  0
 15 16  1  0
 16 17  1  0
 17 18  1  0
 18 19  1  1
 19 20  2  0
 19 26  1  0
 20 21  1  0
 21 22  1  0
 21 23  2  0
 23 24  1  0
 23 25  1  0
 25 26  2  0
 26 27  1  0
 28 29  1  0
 28 32  2  0
 29 30  2  0
 30 31  1  0
 31 32  1  0
 32 33  1  0
 33 34  1  0
M  END
