
     RDKit          3D

 35 39  0  0  0  0  0  0  0  0999 V2000
    1.0730   -1.4220   -3.4430 C   0  0  0  0  0  0  0  0  0  0  0  0
    1.0070   -0.9730   -2.0210 C   0  0  0  0  0  0  0  0  0  0  0  0
   -0.2090   -0.9760   -1.3430 C   0  0  0  0  0  0  0  0  0  0  0  0
   -0.3380   -0.5770   -0.0350 C   0  0  0  0  0  0  0  0  0  0  0  0
   -1.5770   -0.5550    0.7130 C   0  0  0  0  0  0  0  0  0  0  0  0
   -1.5610   -0.3130    1.9470 O   0  0  0  0  0  0  0  0  0  0  0  0
   -2.8380   -0.7970    0.1190 N   0  0  0  0  0  0  0  0  0  0  0  0
   -4.0920   -0.7780    0.8610 C   0  0  2  0  0  0  0  0  0  0  0  0
   -4.5660   -2.2440    0.8640 C   0  0  0  0  0  0  0  0  0  0  0  0
   -4.5290   -2.7410   -0.5550 C   0  0  0  0  0  0  0  0  0  0  0  0
   -5.1800   -1.8550   -1.5580 C   0  0  0  0  0  0  0  0  0  0  0  0
   -5.6730   -0.5790   -0.9960 C   0  0  0  0  0  0  0  0  0  0  0  0
   -6.6480    0.2800   -1.4360 N   0  0  0  0  0  0  0  0  0  0  0  0
   -6.7260    1.2910   -0.5890 N   0  0  0  0  0  0  0  0  0  0  0  0
   -5.8280    1.1240    0.4020 C   0  0  0  0  0  0  0  0  0  0  0  0
   -5.6310    2.0520    1.5250 C   0  0  0  0  0  0  0  0  0  0  0  0
   -4.3930    2.8970    1.2940 C   0  0  2  0  0  0  0  0  0  0  0  0
   -4.4980    3.6380    0.1380 F   0  0  0  0  0  0  0  0  0  0  0  0
   -3.3060    2.0640    1.1840 F   0  0  0  0  0  0  0  0  0  0  0  0
   -5.1610   -0.0410    0.1630 C   0  0  0  0  0  0  0  0  0  0  0  0
    0.8370   -0.1600    0.5890 C   0  0  0  0  0  0  0  0  0  0  0  0
    2.0490   -0.1500   -0.0670 C   0  0  0  0  0  0  0  0  0  0  0  0
    3.2720    0.2980    0.6150 C   0  0  0  0  0  0  0  0  0  0  0  0
    3.4300    0.7410    1.9040 C   0  0  0  0  0  0  0  0  0  0  0  0
    4.7530    1.0430    2.0590 N   0  0  0  0  0  0  0  0  0  0  0  0
    5.4190    0.8150    0.9500 N   0  0  0  0  0  0  0  0  0  0  0  0
    6.7990    0.9830    0.6460 C   0  0  0  0  0  0  0  0  0  0  0  0
    7.6880   -0.0710    0.8370 C   0  0  0  0  0  0  0  0  0  0  0  0
    9.0290    0.0290    0.5620 C   0  0  0  0  0  0  0  0  0  0  0  0
    9.5530    1.2110    0.0750 C   0  0  0  0  0  0  0  0  0  0  0  0
   10.8780    1.3460   -0.2080 F   0  0  0  0  0  0  0  0  0  0  0  0
    8.6950    2.2720   -0.1230 C   0  0  0  0  0  0  0  0  0  0  0  0
    7.3300    2.1590    0.1590 C   0  0  0  0  0  0  0  0  0  0  0  0
    4.5260    0.3570    0.0520 C   0  0  0  0  0  0  0  0  0  0  0  0
    2.0980   -0.5580   -1.3540 N   0  0  0  0  0  0  0  0  0  0  0  0
  1  2  1  0
  2  3  2  0
  2 35  1  0
  3  4  1  0
  4  5  1  0
  4 21  2  0
  5  6  2  0
  5  7  1  0
  8  7  1  6
  8  9  1  0
  8 20  1  0
  9 10  1  0
 10 11  1  0
 11 12  1  0
 12 13  1  0
 12 20  2  0
 13 14  1  0
 14 15  2  0
 15 16  1  0
 15 20  1  0
 16 17  1  0
 17 18  1  6
 17 19  1  0
 21 22  1  0
 22 23  1  0
 22 35  2  0
 23 24  1  0
 23 34  2  0
 24 25  2  0
 25 26  1  0
 26 27  1  0
 26 34  1  0
 27 28  2  0
 27 33  1  0
 28 29  1  0
 29 30  2  0
 30 31  1  0
 30 32  1  0
 32 33  2  0
M  END
