
     RDKit          3D

 34 38  0  0  0  0  0  0  0  0999 V2000
   -4.2560    3.0680   -0.6960 C   0  0  0  0  0  0  0  0  0  0  0  0
   -4.1070    2.1060   -1.5300 C   0  0  0  0  0  0  0  0  0  0  0  0
   -4.2520    0.7180   -1.4030 C   0  0  0  0  0  0  0  0  0  0  0  0
   -4.1640   -0.0160   -2.5510 C   0  0  0  0  0  0  0  0  0  0  0  0
   -4.2690   -1.4490   -2.8740 C   0  0  0  0  0  0  0  0  0  0  0  0
   -5.0150   -2.4180   -2.3020 C   0  0  0  0  0  0  0  0  0  0  0  0
   -5.9830   -2.4190   -1.1660 C   0  0  0  0  0  0  0  0  0  0  0  0
   -6.0610   -1.7340   -0.0280 C   0  0  0  0  0  0  0  0  0  0  0  0
   -7.1900   -2.0530    0.8120 C   0  0  0  0  0  0  0  0  0  0  0  0
   -8.2340   -0.6110    1.0750 Cl  0  0  0  0  0  0  0  0  0  0  0  0
   -5.1410   -0.7120    0.5250 C   0  0  0  0  0  0  0  0  0  0  0  0
   -4.8500   -0.7310    1.8030 N   0  0  0  0  0  0  0  0  0  0  0  0
   -3.8840    0.1720    1.9830 N   0  0  0  0  0  0  0  0  0  0  0  0
   -3.5480    0.7780    0.8200 C   0  0  0  0  0  0  0  0  0  0  0  0
   -2.4130    1.6920    0.5060 C   0  0  0  0  0  0  0  0  0  0  0  0
   -1.1730    0.9030    0.9490 N   0  0  0  0  0  0  0  0  0  0  0  0
   -1.3110    0.6230    2.3210 C   0  0  0  0  0  0  0  0  0  0  0  0
    0.0830    0.7060    2.8680 C   0  0  0  0  0  0  0  0  0  0  0  0
    0.7360    1.7770    2.0340 C   0  0  0  0  0  0  0  0  0  0  0  0
   -0.0280    1.7390    0.7640 C   0  0  1  0  0  0  0  0  0  0  0  0
    0.7790    1.4160   -0.4620 C   0  0  0  0  0  0  0  0  0  0  0  0
    1.3010    0.0520   -0.5000 C   0  0  0  0  0  0  0  0  0  0  0  0
    0.5120   -0.9170   -0.3840 O   0  0  0  0  0  0  0  0  0  0  0  0
    2.6810   -0.2100   -0.6650 N   0  0  0  0  0  0  0  0  0  0  0  0
    3.1550   -1.5970   -0.7360 C   0  0  0  0  0  0  0  0  0  0  0  0
    4.2050   -1.6900    0.3820 C   0  0  0  0  0  0  0  0  0  0  0  0
    5.4020   -0.9150   -0.1390 C   0  0  2  0  0  0  0  0  0  0  0  0
    6.3030   -1.8340   -0.8520 C   0  0  0  0  0  0  0  0  0  0  0  0
    7.5540   -1.4930   -0.6030 C   0  0  0  0  0  0  0  0  0  0  0  0
    7.6070   -0.2980    0.3150 C   0  0  0  0  0  0  0  0  0  0  0  0
    6.2280   -0.3410    0.9630 C   0  0  0  0  0  0  0  0  0  0  0  0
    5.0000    0.1680   -1.1120 C   0  0  0  0  0  0  0  0  0  0  0  0
    3.6910    0.8230   -0.7510 C   0  0  0  0  0  0  0  0  0  0  0  0
   -4.3600    0.2120   -0.0770 N   0  0  0  0  0  0  0  0  0  0  0  0
  1  2  2  0
  2  3  1  0
  3  4  2  0
  3 34  1  0
  4  5  1  0
  5  6  2  0
  6  7  1  0
  7  8  2  0
  8  9  1  0
  8 11  1  0
  9 10  1  0
 11 12  2  0
 11 34  1  0
 12 13  1  0
 13 14  2  0
 14 15  1  0
 14 34  1  0
 15 16  1  0
 16 17  1  0
 16 20  1  0
 17 18  1  0
 18 19  1  0
 19 20  1  0
 20 21  1  6
 21 22  1  0
 22 23  2  0
 22 24  1  0
 24 25  1  0
 24 33  1  0
 25 26  1  0
 27 26  1  1
 27 28  1  0
 27 31  1  0
 27 32  1  0
 28 29  2  0
 29 30  1  0
 30 31  1  0
 32 33  1  0
M  END
