
     RDKit          3D

 34 39  0  0  0  0  0  0  0  0999 V2000
   -3.5220    4.3360    1.2980 O   0  0  0  0  0  0  0  0  0  0  0  0
   -3.5420    2.9470    1.4070 C   0  0  0  0  0  0  0  0  0  0  0  0
   -3.6080    2.3420    0.0210 C   0  0  0  0  0  0  0  0  0  0  0  0
   -3.6330    0.8960    0.0660 N   0  0  0  0  0  0  0  0  0  0  0  0
   -4.7180    0.1040    0.1340 C   0  0  0  0  0  0  0  0  0  0  0  0
   -6.1540    0.5080    0.1790 C   0  0  1  0  0  0  0  0  0  0  0  0
   -6.9320   -0.0800   -0.9790 C   0  0  0  0  0  0  0  0  0  0  0  0
   -7.4930   -1.3480   -0.3700 C   0  0  0  0  0  0  0  0  0  0  0  0
   -8.0200   -0.8240    0.9580 C   0  0  0  0  0  0  0  0  0  0  0  0
   -6.8240    0.0050    1.4420 C   0  0  0  0  0  0  0  0  0  0  0  0
   -4.3130   -1.1780    0.1570 N   0  0  0  0  0  0  0  0  0  0  0  0
   -2.9580   -1.2350    0.1040 C   0  0  0  0  0  0  0  0  0  0  0  0
   -2.0640   -2.2720    0.0990 C   0  0  0  0  0  0  0  0  0  0  0  0
   -0.7180   -1.9800    0.0350 C   0  0  0  0  0  0  0  0  0  0  0  0
    0.2050   -2.9750    0.0270 N   0  0  0  0  0  0  0  0  0  0  0  0
    1.5090   -2.6590   -0.0350 C   0  0  0  0  0  0  0  0  0  0  0  0
    1.9300   -1.3580   -0.0920 C   0  0  0  0  0  0  0  0  0  0  0  0
    3.3500   -1.0120   -0.1600 C   0  0  0  0  0  0  0  0  0  0  0  0
    4.3240   -1.9410   -0.1740 C   0  0  0  0  0  0  0  0  0  0  0  0
    5.6780   -1.5820   -0.2410 C   0  0  0  0  0  0  0  0  0  0  0  0
    6.0760   -0.2640   -0.2960 C   0  0  0  0  0  0  0  0  0  0  0  0
    7.4760    0.1350   -0.3670 C   0  0  0  0  0  0  0  0  0  0  0  0
    8.4680   -0.6190    0.2390 C   0  0  0  0  0  0  0  0  0  0  0  0
    9.7970   -0.2580    0.1820 C   0  0  0  0  0  0  0  0  0  0  0  0
   10.1950    0.8770   -0.4860 C   0  0  0  0  0  0  0  0  0  0  0  0
    9.2170    1.6380   -1.0940 C   0  0  0  0  0  0  0  0  0  0  0  0
    9.6900    3.0910   -1.9550 Cl  0  0  0  0  0  0  0  0  0  0  0  0
    7.8880    1.2720   -1.0340 C   0  0  0  0  0  0  0  0  0  0  0  0
    5.0700    0.6810   -0.2810 C   0  0  0  0  0  0  0  0  0  0  0  0
    3.7370    0.3360   -0.2160 C   0  0  0  0  0  0  0  0  0  0  0  0
    1.0120   -0.3630   -0.0840 N   0  0  0  0  0  0  0  0  0  0  0  0
   -0.3190   -0.6680   -0.0210 C   0  0  0  0  0  0  0  0  0  0  0  0
   -1.2300    0.3260   -0.0140 N   0  0  0  0  0  0  0  0  0  0  0  0
   -2.5420    0.0770    0.0470 C   0  0  0  0  0  0  0  0  0  0  0  0
  1  2  1  0
  2  3  1  0
  3  4  1  0
  4  5  1  0
  4 34  1  0
  6  5  1  1
  5 11  2  0
  6  7  1  0
  6 10  1  0
  7  8  1  0
  8  9  1  0
  9 10  1  0
 11 12  1  0
 12 13  2  0
 12 34  1  0
 13 14  1  0
 14 15  2  0
 14 32  1  0
 15 16  1  0
 16 17  2  0
 17 18  1  0
 17 31  1  0
 18 19  2  0
 18 30  1  0
 19 20  1  0
 20 21  2  0
 21 22  1  0
 21 29  1  0
 22 23  2  0
 22 28  1  0
 23 24  1  0
 24 25  2  0
 25 26  1  0
 26 27  1  0
 26 28  2  0
 29 30  2  0
 31 32  2  0
 32 33  1  0
 33 34  2  0
M  END
