
     RDKit          3D

 35 39  0  0  0  0  0  0  0  0999 V2000
    5.2480    4.2670    1.5350 C   0  0  0  0  0  0  0  0  0  0  0  0
    4.8790    3.2910    0.4770 C   0  0  0  0  0  0  0  0  0  0  0  0
    5.1780    3.3930   -0.8380 N   0  0  0  0  0  0  0  0  0  0  0  0
    4.6880    2.3420   -1.4680 N   0  0  0  0  0  0  0  0  0  0  0  0
    4.0580    1.5230   -0.6000 C   0  0  0  0  0  0  0  0  0  0  0  0
    3.3900    0.3200   -0.7300 C   0  0  0  0  0  0  0  0  0  0  0  0
    2.8240   -0.3120    0.3770 C   0  0  0  0  0  0  0  0  0  0  0  0
    2.1430   -1.5530    0.1980 N   0  0  0  0  0  0  0  0  0  0  0  0
    2.6190   -2.7380    0.6200 C   0  0  0  0  0  0  0  0  0  0  0  0
    3.9060   -3.0030    1.3360 C   0  0  0  0  0  0  0  0  0  0  0  0
    5.0110   -3.2750    0.3500 C   0  0  0  0  0  0  0  0  0  0  0  0
    4.6370   -4.3960   -0.3950 O   0  0  0  0  0  0  0  0  0  0  0  0
    1.7290   -3.6830    0.2870 N   0  0  0  0  0  0  0  0  0  0  0  0
    0.6920   -3.0760   -0.3480 C   0  0  0  0  0  0  0  0  0  0  0  0
   -0.4840   -3.5230   -0.9040 C   0  0  0  0  0  0  0  0  0  0  0  0
   -1.3570   -2.6280   -1.4930 C   0  0  0  0  0  0  0  0  0  0  0  0
   -1.0850   -1.2670   -1.5460 C   0  0  0  0  0  0  0  0  0  0  0  0
   -2.0540   -0.3650   -2.1920 C   0  0  0  0  0  0  0  0  0  0  0  0
   -3.1340    0.0620   -1.3240 N   0  0  0  0  0  0  0  0  0  0  0  0
   -4.0030    0.9190   -2.0460 C   0  0  0  0  0  0  0  0  0  0  0  0
   -4.2430    2.2680   -1.4620 C   0  0  0  0  0  0  0  0  0  0  0  0
   -5.1730    2.1000   -0.2740 C   0  0  0  0  0  0  0  0  0  0  0  0
   -4.3780    1.9090    0.9890 C   0  0  0  0  0  0  0  0  0  0  0  0
   -3.5860    0.6540    1.0230 C   0  0  1  0  0  0  0  0  0  0  0  0
   -4.3570   -0.6160    1.1470 C   0  0  0  0  0  0  0  0  0  0  0  0
   -5.1940   -0.7370    2.3710 C   0  0  1  0  0  0  0  0  0  0  0  0
   -5.8250   -1.9890    2.2950 F   0  0  0  0  0  0  0  0  0  0  0  0
   -4.4870   -0.6870    3.5350 F   0  0  0  0  0  0  0  0  0  0  0  0
   -6.2320    0.1690    2.4430 F   0  0  0  0  0  0  0  0  0  0  0  0
   -2.5890    0.5440   -0.1070 C   0  0  0  0  0  0  0  0  0  0  0  0
    0.0740   -0.8670   -0.9920 N   0  0  0  0  0  0  0  0  0  0  0  0
    0.9510   -1.7230   -0.4060 C   0  0  0  0  0  0  0  0  0  0  0  0
    2.9640    0.3140    1.5860 C   0  0  0  0  0  0  0  0  0  0  0  0
    3.6280    1.5180    1.7420 C   0  0  0  0  0  0  0  0  0  0  0  0
    4.1680    2.1060    0.6360 C   0  0  0  0  0  0  0  0  0  0  0  0
  1  2  1  0
  2  3  2  0
  2 35  1  0
  3  4  1  0
  4  5  1  0
  5  6  2  0
  5 35  1  0
  6  7  1  0
  7  8  1  0
  7 33  2  0
  8  9  1  0
  8 32  1  0
  9 10  1  0
  9 13  2  0
 10 11  1  0
 11 12  1  0
 13 14  1  0
 14 15  2  0
 14 32  1  0
 15 16  1  0
 16 17  2  0
 17 18  1  0
 17 31  1  0
 18 19  1  0
 19 20  1  0
 19 30  1  0
 20 21  1  0
 21 22  1  0
 22 23  1  0
 23 24  1  0
 24 25  1  6
 24 30  1  0
 25 26  1  0
 26 27  1  6
 26 28  1  0
 26 29  1  0
 31 32  2  0
 33 34  1  0
 34 35  2  0
M  END
