
     RDKit          3D

 34 39  0  0  0  0  0  0  0  0999 V2000
   -1.1940   -1.8590    1.7580 C   0  0  0  0  0  0  0  0  0  0  0  0
   -1.3110   -1.3570    0.2930 C   0  0  1  0  0  0  0  0  0  0  0  0
   -2.7570   -1.3030    0.0170 C   0  0  0  0  0  0  0  0  0  0  0  0
   -3.4510   -2.4630   -0.1660 C   0  0  0  0  0  0  0  0  0  0  0  0
   -4.8440   -2.4420   -0.3120 C   0  0  0  0  0  0  0  0  0  0  0  0
   -5.5210   -1.2330   -0.2730 C   0  0  0  0  0  0  0  0  0  0  0  0
   -6.8580   -0.9520   -0.3530 N   0  0  0  0  0  0  0  0  0  0  0  0
   -6.9770    0.3680   -0.2190 C   0  0  0  0  0  0  0  0  0  0  0  0
   -8.0790    1.1770   -0.2050 C   0  0  0  0  0  0  0  0  0  0  0  0
   -7.9310    2.5370   -0.0400 C   0  0  0  0  0  0  0  0  0  0  0  0
   -6.6430    3.0840    0.1150 C   0  0  0  0  0  0  0  0  0  0  0  0
   -5.5780    2.2890    0.1040 N   0  0  0  0  0  0  0  0  0  0  0  0
   -5.7430    0.9680   -0.0590 C   0  0  0  0  0  0  0  0  0  0  0  0
   -4.8210   -0.0700   -0.0940 C   0  0  0  0  0  0  0  0  0  0  0  0
   -3.4460   -0.1140    0.0470 C   0  0  0  0  0  0  0  0  0  0  0  0
   -0.7030    0.0570    0.3370 C   0  0  0  0  0  0  0  0  0  0  0  0
    0.7620   -0.2030    0.6530 C   0  0  0  0  0  0  0  0  0  0  0  0
    1.3940   -0.6750   -0.5330 N   0  0  0  0  0  0  0  0  0  0  0  0
    2.6110   -0.2530   -1.0660 C   0  0  0  0  0  0  0  0  0  0  0  0
    3.0820   -0.8620   -2.1190 O   0  0  0  0  0  0  0  0  0  0  0  0
    3.4730    0.8020   -0.5890 C   0  0  0  0  0  0  0  0  0  0  0  0
    3.0610    1.9380    0.0560 C   0  0  0  0  0  0  0  0  0  0  0  0
    3.9710    2.8130    0.6260 C   0  0  0  0  0  0  0  0  0  0  0  0
    5.2760    2.5650    0.5570 N   0  0  0  0  0  0  0  0  0  0  0  0
    5.7610    1.4600   -0.0680 C   0  0  0  0  0  0  0  0  0  0  0  0
    7.1550    1.1730   -0.0490 N   0  0  0  0  0  0  0  0  0  0  0  0
    8.2090    1.8940   -0.3920 C   0  0  0  0  0  0  0  0  0  0  0  0
    9.3810    1.1740   -0.1640 C   0  0  0  0  0  0  0  0  0  0  0  0
    8.9890   -0.0580    0.3490 C   0  0  0  0  0  0  0  0  0  0  0  0
   10.0830   -1.3540    0.8250 Cl  0  0  0  0  0  0  0  0  0  0  0  0
    7.6270   -0.0330    0.4080 C   0  0  0  0  0  0  0  0  0  0  0  0
    4.8610    0.5890   -0.6380 C   0  0  0  0  0  0  0  0  0  0  0  0
    0.6420   -1.7150   -1.2640 C   0  0  0  0  0  0  0  0  0  0  0  0
   -0.4890   -2.2960   -0.5080 C   0  0  0  0  0  0  0  0  0  0  0  0
  2  1  1  1
  2  3  1  0
  2 16  1  0
  2 34  1  0
  3  4  2  0
  3 15  1  0
  4  5  1  0
  5  6  2  0
  6  7  1  0
  6 14  1  0
  7  8  1  0
  8  9  2  0
  8 13  1  0
  9 10  1  0
 10 11  2  0
 11 12  1  0
 12 13  2  0
 13 14  1  0
 14 15  2  0
 16 17  1  0
 17 18  1  0
 18 19  1  0
 18 33  1  0
 19 20  2  0
 19 21  1  0
 21 22  2  0
 21 32  1  0
 22 23  1  0
 23 24  2  0
 24 25  1  0
 25 26  1  0
 25 32  2  0
 26 27  1  0
 26 31  1  0
 27 28  2  0
 28 29  1  0
 29 30  1  0
 29 31  2  0
 33 34  1  0
M  END
