
     RDKit          3D

 34 39  0  0  0  0  0  0  0  0999 V2000
   -3.5430    3.7900   -2.1810 C   0  0  0  0  0  0  0  0  0  0  0  0
   -3.2830    2.4960   -1.5020 C   0  0  0  0  0  0  0  0  0  0  0  0
   -2.3080    1.6270   -1.9520 C   0  0  0  0  0  0  0  0  0  0  0  0
   -2.0680    0.4130   -1.3100 C   0  0  0  0  0  0  0  0  0  0  0  0
   -2.8250    0.0890   -0.2110 C   0  0  0  0  0  0  0  0  0  0  0  0
   -3.7940    0.9640    0.2270 C   0  0  0  0  0  0  0  0  0  0  0  0
   -4.0360    2.1740   -0.4100 C   0  0  0  0  0  0  0  0  0  0  0  0
   -4.5660    0.5980    1.3720 N   0  0  0  0  0  0  0  0  0  0  0  0
   -4.2950   -0.6380    1.9910 C   0  0  0  0  0  0  0  0  0  0  0  0
   -5.1790   -1.2170    2.6470 O   0  0  0  0  0  0  0  0  0  0  0  0
   -2.9550   -1.2440    1.8590 C   0  0  0  0  0  0  0  0  0  0  0  0
   -2.5850   -1.1680    0.4600 N   0  0  0  0  0  0  0  0  0  0  0  0
   -2.0150   -2.2640   -0.2460 C   0  0  0  0  0  0  0  0  0  0  0  0
   -2.7210   -2.8010   -1.3300 C   0  0  0  0  0  0  0  0  0  0  0  0
   -2.2520   -3.8600   -2.0720 C   0  0  0  0  0  0  0  0  0  0  0  0
   -1.0410   -4.4460   -1.7700 C   0  0  0  0  0  0  0  0  0  0  0  0
   -0.4290   -5.8010   -2.7100 Cl  0  0  0  0  0  0  0  0  0  0  0  0
   -0.3480   -3.9200   -0.7080 C   0  0  0  0  0  0  0  0  0  0  0  0
   -0.8110   -2.8470    0.0540 C   0  0  0  0  0  0  0  0  0  0  0  0
    0.0150   -2.3510    1.1780 C   0  0  0  0  0  0  0  0  0  0  0  0
    0.7110   -1.0640    0.8090 C   0  0  0  0  0  0  0  0  0  0  0  0
    1.5220   -0.5880    1.9030 N   0  0  0  0  0  0  0  0  0  0  0  0
    2.6650   -1.4300    2.1750 C   0  0  0  0  0  0  0  0  0  0  0  0
    3.4950   -1.6430    0.9430 C   0  0  0  0  0  0  0  0  0  0  0  0
    3.9090   -0.3080    0.4280 C   0  0  0  0  0  0  0  0  0  0  0  0
    4.9200    0.1000   -0.3830 N   0  0  0  0  0  0  0  0  0  0  0  0
    4.8010    1.4310   -0.5090 C   0  0  0  0  0  0  0  0  0  0  0  0
    5.5840    2.3100   -1.2280 C   0  0  0  0  0  0  0  0  0  0  0  0
    5.2950    3.6680   -1.2320 C   0  0  0  0  0  0  0  0  0  0  0  0
    4.2160    4.1150   -0.5070 C   0  0  0  0  0  0  0  0  0  0  0  0
    3.4760    3.1860    0.1890 C   0  0  0  0  0  0  0  0  0  0  0  0
    3.7340    1.8680    0.2100 N   0  0  0  0  0  0  0  0  0  0  0  0
    3.1810    0.7880    0.7910 C   0  0  0  0  0  0  0  0  0  0  0  0
    1.9870    0.7640    1.6750 C   0  0  0  0  0  0  0  0  0  0  0  0
  1  2  1  0
  2  3  2  0
  2  7  1  0
  3  4  1  0
  4  5  2  0
  5  6  1  0
  5 12  1  0
  6  7  2  0
  6  8  1  0
  8  9  1  0
  9 10  2  0
  9 11  1  0
 11 12  1  0
 12 13  1  0
 13 14  2  0
 13 19  1  0
 14 15  1  0
 15 16  2  0
 16 17  1  0
 16 18  1  0
 18 19  2  0
 19 20  1  0
 20 21  1  0
 21 22  1  0
 22 23  1  0
 22 34  1  0
 23 24  1  0
 24 25  1  0
 25 26  1  0
 25 33  2  0
 26 27  2  0
 27 28  1  0
 27 32  1  0
 28 29  2  0
 29 30  1  0
 30 31  2  0
 31 32  1  0
 32 33  1  0
 33 34  1  0
M  END
