
     RDKit          3D

 26 27  0  0  0  0  0  0  0  0999 V2000
    1.7900   -3.8170   -1.8590 C   0  0  0  0  0  0  0  0  0  0  0  0
    1.5500   -2.4720   -1.4600 O   0  0  0  0  0  0  0  0  0  0  0  0
    0.8670   -2.2280   -0.2510 C   0  0  0  0  0  0  0  0  0  0  0  0
    0.5100   -3.2070    0.4190 O   0  0  0  0  0  0  0  0  0  0  0  0
    0.6040   -0.9100    0.1780 N   0  0  0  0  0  0  0  0  0  0  0  0
   -0.1150   -0.8140    1.4630 C   0  0  0  0  0  0  0  0  0  0  0  0
   -1.5590   -0.6660    1.0930 C   0  0  0  0  0  0  0  0  0  0  0  0
   -2.5790   -1.1860    1.7360 C   0  0  0  0  0  0  0  0  0  0  0  0
   -2.5450   -1.9700    2.8730 O   0  0  0  0  0  0  0  0  0  0  0  0
   -2.6150   -1.3870    4.1110 C   0  0  0  0  0  0  0  0  0  0  0  0
   -2.7130   -0.1360    4.2090 O   0  0  0  0  0  0  0  0  0  0  0  0
   -3.7790   -0.7700    1.0090 C   0  0  0  0  0  0  0  0  0  0  0  0
   -3.3680   -0.0580   -0.0710 O   0  0  0  0  0  0  0  0  0  0  0  0
   -2.0020    0.0620   -0.0450 N   0  0  0  0  0  0  0  0  0  0  0  0
   -1.3980    0.7930   -1.0410 N   0  0  0  0  0  0  0  0  0  0  0  0
   -2.2380    1.9480   -1.2750 C   0  0  0  0  0  0  0  0  0  0  0  0
   -2.0320    2.6220   -2.5830 C   0  0  0  0  0  0  0  0  0  0  0  0
   -2.8900    3.7430   -2.7220 O   0  0  0  0  0  0  0  0  0  0  0  0
   -0.0700    1.2220   -0.8680 C   0  0  1  0  0  0  0  0  0  0  0  0
    0.0390    2.2900    0.0360 F   0  0  0  0  0  0  0  0  0  0  0  0
    1.0030    0.2160   -0.6220 C   0  0  1  0  0  0  0  0  0  0  0  0
    2.3550    1.0880    0.3590 P   0  0  0  0  0  0  0  0  0  0  0  0
    2.0280    2.7620    0.5640 O   0  0  0  0  0  0  0  0  0  0  0  0
    4.0080    0.9070   -0.4130 C   0  0  0  0  0  0  0  0  0  0  0  0
    4.9560    0.8000    0.6250 O   0  0  0  0  0  0  0  0  0  0  0  0
    4.6800   -0.2890    1.3900 N   0  0  0  0  0  0  0  0  0  0  0  0
  1  2  1  0
  2  3  1  0
  3  4  2  0
  3  5  1  0
  5  6  1  0
  5 21  1  0
  6  7  1  0
  7  8  2  0
  7 14  1  0
  8  9  1  0
  8 12  1  0
  9 10  1  0
 10 11  2  0
 12 13  1  0
 13 14  1  0
 14 15  1  0
 15 16  1  0
 15 19  1  0
 16 17  1  0
 17 18  1  0
 19 20  1  1
 19 21  1  0
 21 22  1  1
 22 23  1  0
 22 24  1  0
 24 25  1  0
 25 26  1  0
M  END
