
     RDKit          3D

 26 27  0  0  0  0  0  0  0  0999 V2000
   -6.3110    0.9980   -1.6920 N   0  0  0  0  0  0  0  0  0  0  0  0
   -7.2910    1.2820   -0.7730 O   0  0  0  0  0  0  0  0  0  0  0  0
   -7.2660    0.8080    0.5090 C   0  0  0  0  0  0  0  0  0  0  0  0
   -8.5470    1.3030    1.7420 P   0  0  0  0  0  0  0  0  0  0  0  0
   -6.3590    0.0010    0.9170 N   0  0  0  0  0  0  0  0  0  0  0  0
   -5.2910   -0.5060    0.1540 C   0  0  0  0  0  0  0  0  0  0  0  0
   -5.4390   -1.5950   -0.4540 O   0  0  0  0  0  0  0  0  0  0  0  0
   -4.0220    0.2770    0.1040 C   0  0  0  0  0  0  0  0  0  0  0  0
   -3.0160   -0.2160    1.5670 P   0  0  0  0  0  0  0  0  0  0  0  0
   -2.9070   -1.9430    1.6300 O   0  0  0  0  0  0  0  0  0  0  0  0
   -1.5980   -2.1900    1.7820 O   0  0  0  0  0  0  0  0  0  0  0  0
   -0.9130   -1.7840    0.6300 C   0  0  0  0  0  0  0  0  0  0  0  0
   -0.7090   -0.3030    0.5400 C   0  0  2  0  0  0  0  0  0  0  0  0
    0.6790    0.0940    0.5400 N   0  0  0  0  0  0  0  0  0  0  0  0
    1.4790   -0.3840   -0.3320 C   0  0  0  0  0  0  0  0  0  0  0  0
    1.3380   -1.2410   -1.3400 N   0  0  0  0  0  0  0  0  0  0  0  0
    2.5210   -1.3910   -1.9390 N   0  0  0  0  0  0  0  0  0  0  0  0
    3.4110   -0.6170   -1.2960 C   0  0  0  0  0  0  0  0  0  0  0  0
    4.8300   -0.4380   -1.5700 C   0  0  0  0  0  0  0  0  0  0  0  0
    5.5700    0.3810   -0.8490 C   0  0  0  0  0  0  0  0  0  0  0  0
    7.0100    0.5550   -1.1350 C   0  0  0  0  0  0  0  0  0  0  0  0
    7.8330    0.2160   -0.0810 O   0  0  0  0  0  0  0  0  0  0  0  0
    7.5700    1.0030    1.0240 C   0  0  0  0  0  0  0  0  0  0  0  0
    8.4160    0.6450    2.0790 O   0  0  0  0  0  0  0  0  0  0  0  0
    2.7610   -0.0200   -0.3320 O   0  0  0  0  0  0  0  0  0  0  0  0
   -1.4100    0.4100    1.5430 O   0  0  0  0  0  0  0  0  0  0  0  0
  1  2  1  0
  2  3  1  0
  3  4  1  0
  3  5  2  3
  5  6  1  0
  6  7  2  0
  6  8  1  0
  8  9  1  0
  9 10  1  0
  9 26  1  0
 10 11  1  0
 11 12  1  0
 12 13  1  0
 13 14  1  1
 13 26  1  0
 14 15  2  3
 15 16  1  0
 15 25  1  0
 16 17  1  0
 17 18  2  0
 18 19  1  0
 18 25  1  0
 19 20  2  3
 20 21  1  0
 21 22  1  0
 22 23  1  0
 23 24  1  0
M  END
