
     RDKit          3D

 26 27  0  0  0  0  0  0  0  0999 V2000
   -3.9200   -0.2020    1.1540 C   0  0  0  0  0  0  0  0  0  0  0  0
   -2.7960   -0.4840    0.1980 C   0  0  0  0  0  0  0  0  0  0  0  0
   -1.6010    0.1210    0.6000 O   0  0  0  0  0  0  0  0  0  0  0  0
   -0.6530   -0.2520   -0.4000 C   0  0  1  0  0  0  0  0  0  0  0  0
   -0.5050   -2.0560   -0.3260 P   0  0  0  0  0  0  0  0  0  0  0  0
    0.9670   -2.6960   -0.9100 F   0  0  0  0  0  0  0  0  0  0  0  0
   -0.6440   -2.5960    1.4660 C   0  0  0  0  0  0  0  0  0  0  0  0
   -0.7200   -3.9860    1.4830 O   0  0  0  0  0  0  0  0  0  0  0  0
   -1.2040    0.2720   -1.5690 O   0  0  0  0  0  0  0  0  0  0  0  0
   -1.5020    1.5640   -1.5280 N   0  0  0  0  0  0  0  0  0  0  0  0
   -2.0140    2.0830   -2.8180 C   0  0  0  0  0  0  0  0  0  0  0  0
   -1.4480    2.5690   -0.5310 C   0  0  0  0  0  0  0  0  0  0  0  0
   -2.3610    3.4220   -0.5390 O   0  0  0  0  0  0  0  0  0  0  0  0
   -0.4340    2.7490    0.5370 C   0  0  0  0  0  0  0  0  0  0  0  0
    0.6740    1.7390    0.4150 C   0  0  0  0  0  0  0  0  0  0  0  0
    1.7870    1.9880    0.9220 O   0  0  0  0  0  0  0  0  0  0  0  0
    0.5920    0.4780   -0.2430 N   0  0  0  0  0  0  0  0  0  0  0  0
    1.7080   -0.0980   -0.7960 N   0  0  0  0  0  0  0  0  0  0  0  0
    1.6810   -0.5520   -2.1160 N   0  0  0  0  0  0  0  0  0  0  0  0
    2.9080   -0.2250   -0.0630 C   0  0  0  0  0  0  0  0  0  0  0  0
    3.1560   -1.1810    0.8800 C   0  0  0  0  0  0  0  0  0  0  0  0
    4.4080   -0.9620    1.3240 N   0  0  0  0  0  0  0  0  0  0  0  0
    4.9950   -1.7500    2.2900 O   0  0  0  0  0  0  0  0  0  0  0  0
    4.9120    0.0600    0.7040 O   0  0  0  0  0  0  0  0  0  0  0  0
    4.0550    0.5420   -0.1420 C   0  0  0  0  0  0  0  0  0  0  0  0
    4.2010    1.5170   -0.9060 O   0  0  0  0  0  0  0  0  0  0  0  0
  1  2  1  0
  2  3  1  0
  4  3  1  1
  4  5  1  0
  4  9  1  0
  4 17  1  0
  5  6  1  0
  5  7  1  0
  7  8  1  0
  9 10  1  0
 10 11  1  0
 10 12  1  0
 12 13  2  0
 12 14  1  0
 14 15  1  0
 15 16  2  0
 15 17  1  0
 17 18  1  0
 18 19  1  0
 18 20  1  0
 20 21  2  0
 20 25  1  0
 21 22  1  0
 22 23  1  0
 22 24  1  0
 24 25  1  0
 25 26  2  0
M  END
