
     RDKit          3D

 26 28  0  0  0  0  0  0  0  0999 V2000
   -7.3400    1.7980    0.0500 C   0  0  0  0  0  0  0  0  0  0  0  0
   -6.5980    0.5940   -0.2570 N   0  0  0  0  0  0  0  0  0  0  0  0
   -6.6110    0.0070   -1.4780 O   0  0  0  0  0  0  0  0  0  0  0  0
   -5.7360   -1.0550   -1.4740 C   0  0  0  0  0  0  0  0  0  0  0  0
   -4.7950   -0.7990   -0.3340 C   0  0  2  0  0  0  0  0  0  0  0  0
   -3.7590    0.1360   -0.5830 N   0  0  0  0  0  0  0  0  0  0  0  0
   -2.7410   -0.1850    0.1550 C   0  0  0  0  0  0  0  0  0  0  0  0
   -1.4380    0.5130    0.2240 C   0  0  0  0  0  0  0  0  0  0  0  0
   -0.4220   -0.4920   -0.0620 O   0  0  0  0  0  0  0  0  0  0  0  0
    0.8660   -0.1220   -0.1010 C   0  0  0  0  0  0  0  0  0  0  0  0
    1.3900    0.9010    0.0540 O   0  0  0  0  0  0  0  0  0  0  0  0
    1.9560   -1.4230   -0.4560 N   0  0  0  0  0  0  0  0  0  0  0  0
    3.1040   -0.6990   -0.4730 C   0  0  0  0  0  0  0  0  0  0  0  0
    3.4050    0.4700   -0.3820 O   0  0  0  0  0  0  0  0  0  0  0  0
    4.3070   -1.5840   -0.6600 N   0  0  0  0  0  0  0  0  0  0  0  0
    5.9210   -0.9530   -0.7250 P   0  0  0  0  0  0  0  0  0  0  0  0
    5.9270    0.7460   -1.1990 O   0  0  0  0  0  0  0  0  0  0  0  0
    6.2990    1.4220   -0.0160 C   0  0  0  0  0  0  0  0  0  0  0  0
    7.7230    0.9920    0.2390 C   0  0  0  0  0  0  0  0  0  0  0  0
    7.7070   -0.2610    0.9480 N   0  0  0  0  0  0  0  0  0  0  0  0
    6.6050   -0.9850    0.8770 O   0  0  0  0  0  0  0  0  0  0  0  0
   -3.1440   -1.3500    0.8710 N   0  0  0  0  0  0  0  0  0  0  0  0
   -2.4430   -2.0010    2.3000 Cl  0  0  0  0  0  0  0  0  0  0  0  0
   -4.2150   -1.9080    0.2210 O   0  0  0  0  0  0  0  0  0  0  0  0
   -5.7550   -0.1340    0.6190 C   0  0  0  0  0  0  0  0  0  0  0  0
   -5.8320   -0.1770    1.8540 O   0  0  0  0  0  0  0  0  0  0  0  0
  1  2  1  0
  2  3  1  0
  2 25  1  0
  3  4  1  0
  5  4  1  6
  5  6  1  0
  5 24  1  0
  5 25  1  0
  6  7  2  0
  7  8  1  0
  7 22  1  0
  8  9  1  0
  9 10  1  0
 10 11  2  0
 10 12  1  0
 12 13  1  0
 13 14  2  0
 13 15  1  0
 15 16  1  0
 16 17  1  0
 16 21  1  0
 17 18  1  0
 18 19  1  0
 19 20  1  0
 20 21  1  0
 22 23  1  0
 22 24  1  0
 25 26  2  0
M  END
