
     RDKit          3D

 26 28  0  0  0  0  0  0  0  0999 V2000
   -3.8310   -2.2920    1.4250 N   0  0  0  0  0  0  0  0  0  0  0  0
   -2.9130   -1.2540    1.0130 C   0  0  0  0  0  0  0  0  0  0  0  0
   -1.6650   -1.5650    0.6920 C   0  0  0  0  0  0  0  0  0  0  0  0
   -1.2920   -2.9220    0.7720 O   0  0  0  0  0  0  0  0  0  0  0  0
   -0.7170   -0.5500    0.2740 C   0  0  0  0  0  0  0  0  0  0  0  0
    0.5260   -0.8330   -0.0490 C   0  0  0  0  0  0  0  0  0  0  0  0
    1.0610   -2.1680   -0.0190 N   0  0  0  0  0  0  0  0  0  0  0  0
    2.2700   -2.1480   -0.3750 N   0  0  0  0  0  0  0  0  0  0  0  0
    2.6590   -0.8130   -0.6740 C   0  0  0  0  0  0  0  0  0  0  0  0
    3.8220   -0.4280   -1.0670 N   0  0  0  0  0  0  0  0  0  0  0  0
    4.8630   -1.3660   -1.2400 C   0  0  0  0  0  0  0  0  0  0  0  0
    6.3530   -1.0580   -0.5840 P   0  0  0  0  0  0  0  0  0  0  0  0
    6.6470    0.5060    0.3700 C   0  0  0  0  0  0  0  0  0  0  0  0
    5.8210    1.9440   -0.4730 P   0  0  0  0  0  0  0  0  0  0  0  0
    1.5530   -0.0150   -0.4620 O   0  0  0  0  0  0  0  0  0  0  0  0
   -1.1660    0.8270    0.2140 C   0  0  0  0  0  0  0  0  0  0  0  0
   -0.3660    1.7730   -0.0560 O   0  0  0  0  0  0  0  0  0  0  0  0
   -2.5720    1.2040    0.4610 C   0  0  1  0  0  0  0  0  0  0  0  0
   -2.5450    2.2600    1.3890 O   0  0  0  0  0  0  0  0  0  0  0  0
   -3.2690    1.7020   -0.8000 C   0  0  1  0  0  0  0  0  0  0  0  0
   -2.8170    1.0330   -1.9250 O   0  0  0  0  0  0  0  0  0  0  0  0
   -4.7410    1.4660   -0.6710 C   0  0  0  0  0  0  0  0  0  0  0  0
   -5.4540    1.6240   -1.6800 O   0  0  0  0  0  0  0  0  0  0  0  0
   -5.3090    1.0820    0.5320 O   0  0  0  0  0  0  0  0  0  0  0  0
   -4.6170    0.3390    1.4010 O   0  0  0  0  0  0  0  0  0  0  0  0
   -3.3570    0.0950    0.9550 N   0  0  0  0  0  0  0  0  0  0  0  0
  1  2  1  0
  2  3  2  0
  2 26  1  0
  3  4  1  0
  3  5  1  0
  5  6  2  3
  5 16  1  0
  6  7  1  0
  6 15  1  0
  7  8  2  0
  8  9  1  0
  9 10  2  3
  9 15  1  0
 10 11  1  0
 11 12  2  3
 12 13  1  0
 13 14  1  0
 16 17  2  0
 16 18  1  0
 18 19  1  1
 18 20  1  0
 18 26  1  0
 20 21  1  6
 20 22  1  0
 22 23  2  0
 22 24  1  0
 24 25  1  0
 25 26  1  0
M  END
