
     RDKit          3D

 26 26  0  0  0  0  0  0  0  0999 V2000
   -1.2320    4.7270    0.7260 O   0  0  0  0  0  0  0  0  0  0  0  0
   -2.2730    4.1700    0.2850 C   0  0  0  0  0  0  0  0  0  0  0  0
   -3.4630    4.4930    0.9430 O   0  0  0  0  0  0  0  0  0  0  0  0
   -2.2550    3.2790   -0.7960 N   0  0  0  0  0  0  0  0  0  0  0  0
   -3.4010    2.7210   -1.2140 F   0  0  0  0  0  0  0  0  0  0  0  0
   -1.0100    2.9640   -1.4550 C   0  0  0  0  0  0  0  0  0  0  0  0
   -0.3280    1.7830   -0.8380 C   0  0  0  0  0  0  0  0  0  0  0  0
    0.8480    1.8620   -0.3230 N   0  0  0  0  0  0  0  0  0  0  0  0
    1.4990    0.7540    0.2620 N   0  0  0  0  0  0  0  0  0  0  0  0
    2.4770    0.9780    1.3030 C   0  0  0  0  0  0  0  0  0  0  0  0
    3.1070   -0.1510    1.7930 O   0  0  0  0  0  0  0  0  0  0  0  0
    3.8940   -1.0510    1.0900 C   0  0  0  0  0  0  0  0  0  0  0  0
    4.0030   -2.2990    1.5140 C   0  0  0  0  0  0  0  0  0  0  0  0
    4.7810   -3.1930    0.8200 O   0  0  0  0  0  0  0  0  0  0  0  0
    4.6330   -0.6710   -0.1380 C   0  0  0  0  0  0  0  0  0  0  0  0
    5.3510   -1.7430   -0.6610 O   0  0  0  0  0  0  0  0  0  0  0  0
    1.1150   -0.5460   -0.2410 C   0  0  0  0  0  0  0  0  0  0  0  0
   -0.3330   -0.6150   -0.2210 N   0  0  0  0  0  0  0  0  0  0  0  0
   -1.0190    0.4920   -0.8190 C   0  0  0  0  0  0  0  0  0  0  0  0
   -2.1930    0.3830   -1.3260 N   0  0  0  0  0  0  0  0  0  0  0  0
   -2.8840   -0.8480   -1.3220 C   0  0  0  0  0  0  0  0  0  0  0  0
   -3.4800   -1.2820   -0.2380 C   0  0  0  0  0  0  0  0  0  0  0  0
   -3.4290   -0.5110    0.9360 O   0  0  0  0  0  0  0  0  0  0  0  0
   -4.3850   -2.8520   -0.1580 P   0  0  0  0  0  0  0  0  0  0  0  0
   -5.0550   -3.3200   -1.6800 O   0  0  0  0  0  0  0  0  0  0  0  0
   -5.5290   -2.8950    1.1230 O   0  0  0  0  0  0  0  0  0  0  0  0
  1  2  2  0
  2  3  1  0
  2  4  1  0
  4  5  1  0
  4  6  1  0
  6  7  1  0
  7  8  2  0
  7 19  1  0
  8  9  1  0
  9 10  1  0
  9 17  1  0
 10 11  1  0
 11 12  1  0
 12 13  2  3
 12 15  1  0
 13 14  1  0
 15 16  1  0
 17 18  1  0
 18 19  1  0
 19 20  2  3
 20 21  1  0
 21 22  2  3
 22 23  1  0
 22 24  1  0
 24 25  1  0
 24 26  1  0
M  END
