
     RDKit          3D

 26 27  0  0  0  0  0  0  0  0999 V2000
   -2.4010   -2.0800   -2.1090 C   0  0  0  0  0  0  0  0  0  0  0  0
   -2.5630   -0.6710   -2.0910 N   0  0  0  0  0  0  0  0  0  0  0  0
   -2.0780    0.1960   -1.3040 C   0  0  0  0  0  0  0  0  0  0  0  0
   -1.2260    0.0120   -0.2020 N   0  0  0  0  0  0  0  0  0  0  0  0
   -1.7590   -0.3960    1.0420 C   0  0  0  0  0  0  0  0  0  0  0  0
   -2.0200   -2.0310    1.2600 P   0  0  0  0  0  0  0  0  0  0  0  0
   -2.6850   -2.7010    2.7710 N   0  0  0  0  0  0  0  0  0  0  0  0
   -2.0980    0.4920    2.1410 C   0  0  0  0  0  0  0  0  0  0  0  0
   -2.5670    0.0150    3.2040 O   0  0  0  0  0  0  0  0  0  0  0  0
   -1.9270    1.8670    2.0800 O   0  0  0  0  0  0  0  0  0  0  0  0
    0.1870    0.2410   -0.3640 C   0  0  1  0  0  0  0  0  0  0  0  0
    0.9070    0.1250    0.8210 O   0  0  0  0  0  0  0  0  0  0  0  0
    0.7720   -1.0680    1.3070 O   0  0  0  0  0  0  0  0  0  0  0  0
    2.1080   -1.5460    2.3110 P   0  0  0  0  0  0  0  0  0  0  0  0
    3.1630   -2.7150    1.3520 C   0  0  0  0  0  0  0  0  0  0  0  0
    2.9850   -0.1530    2.8300 O   0  0  0  0  0  0  0  0  0  0  0  0
    0.7120   -0.7580   -1.2850 N   0  0  0  0  0  0  0  0  0  0  0  0
    2.0840   -0.4530   -1.6430 C   0  0  0  0  0  0  0  0  0  0  0  0
    2.2400    0.8870   -2.1370 N   0  0  0  0  0  0  0  0  0  0  0  0
    1.4520    1.8270   -1.7880 C   0  0  0  0  0  0  0  0  0  0  0  0
    1.6020    3.1350   -2.2680 O   0  0  0  0  0  0  0  0  0  0  0  0
    0.9900    4.2430   -1.6550 C   0  0  0  0  0  0  0  0  0  0  0  0
   -0.2980    3.8520   -0.9950 C   0  0  0  0  0  0  0  0  0  0  0  0
   -1.1960    4.7430   -0.9110 O   0  0  0  0  0  0  0  0  0  0  0  0
   -0.4560    2.5700   -0.5150 O   0  0  0  0  0  0  0  0  0  0  0  0
    0.3940    1.5700   -0.8950 N   0  0  0  0  0  0  0  0  0  0  0  0
  1  2  1  0
  2  3  2  3
  3  4  1  0
  4  5  1  0
  4 11  1  0
  5  6  2  3
  5  8  1  0
  6  7  1  0
  8  9  2  0
  8 10  1  0
 11 12  1  1
 11 17  1  0
 11 26  1  0
 12 13  1  0
 13 14  1  0
 14 15  1  0
 14 16  1  0
 17 18  1  0
 18 19  1  0
 19 20  2  0
 20 21  1  0
 20 26  1  0
 21 22  1  0
 22 23  1  0
 23 24  2  0
 23 25  1  0
 25 26  1  0
M  END
