
     RDKit          3D

 25 26  0  0  0  0  0  0  0  0999 V2000
    8.6600    1.5110    0.0850 C   0  0  0  0  0  0  0  0  0  0  0  0
    7.2060    1.3210   -0.2520 C   0  0  0  0  0  0  0  0  0  0  0  0
    6.6660    1.2920   -1.4820 N   0  0  0  0  0  0  0  0  0  0  0  0
    5.3410    1.1030   -1.3390 C   0  0  0  0  0  0  0  0  0  0  0  0
    5.0340    1.0110   -0.0290 N   0  0  0  0  0  0  0  0  0  0  0  0
    3.7050    0.8050    0.5420 C   0  0  0  0  0  0  0  0  0  0  0  0
    3.4050   -1.0010    0.7100 P   0  0  0  0  0  0  0  0  0  0  0  0
    4.3180   -1.5840    2.0670 O   0  0  0  0  0  0  0  0  0  0  0  0
    1.7600   -1.4120    0.9510 O   0  0  0  0  0  0  0  0  0  0  0  0
    0.8750   -0.7210    0.1630 C   0  0  0  0  0  0  0  0  0  0  0  0
   -0.5240   -1.1810    0.4790 C   0  0  0  0  0  0  0  0  0  0  0  0
   -1.4530   -0.4570   -0.3450 N   0  0  0  0  0  0  0  0  0  0  0  0
   -2.8480   -0.7100   -0.2370 C   0  0  0  0  0  0  0  0  0  0  0  0
   -3.5980   -0.0170    0.6250 C   0  0  0  0  0  0  0  0  0  0  0  0
   -5.0280   -0.2810    0.7320 C   0  0  0  0  0  0  0  0  0  0  0  0
   -5.8670    0.0500    2.1320 P   0  0  0  0  0  0  0  0  0  0  0  0
   -5.7020   -0.8550   -0.4600 C   0  0  2  0  0  0  0  0  0  0  0  0
   -7.0650   -1.2450   -0.1960 N   0  0  0  0  0  0  0  0  0  0  0  0
   -7.7360   -0.1450    0.1940 O   0  0  0  0  0  0  0  0  0  0  0  0
   -7.2160    0.8740   -0.4830 O   0  0  0  0  0  0  0  0  0  0  0  0
   -7.7760    2.0120   -0.1790 O   0  0  0  0  0  0  0  0  0  0  0  0
   -4.9090   -1.9360   -0.9010 O   0  0  0  0  0  0  0  0  0  0  0  0
   -3.5420   -1.7150   -1.0340 C   0  0  0  0  0  0  0  0  0  0  0  0
   -2.8730   -2.4040   -1.8720 O   0  0  0  0  0  0  0  0  0  0  0  0
    6.1850    1.1470    0.6050 N   0  0  0  0  0  0  0  0  0  0  0  0
  1  2  1  0
  2  3  1  0
  2 25  2  0
  3  4  2  0
  4  5  1  0
  5  6  1  0
  5 25  1  0
  6  7  1  0
  7  8  1  0
  7  9  1  0
  9 10  1  0
 10 11  1  0
 11 12  1  0
 12 13  1  0
 13 14  2  0
 13 23  1  0
 14 15  1  0
 15 16  2  0
 15 17  1  0
 17 18  1  1
 17 22  1  0
 18 19  1  0
 19 20  1  0
 20 21  1  0
 22 23  1  0
 23 24  2  0
M  END
