
     RDKit          3D

 13 14  0  0  0  0  0  0  0  0999 V2000
   -2.3580   -0.9800    1.2800 C   0  0  0  0  0  0  0  0  0  0  0  0
   -2.1550    0.0560    0.2290 C   0  0  0  0  0  0  0  0  0  0  0  0
   -3.1400    0.8350   -0.2680 C   0  0  0  0  0  0  0  0  0  0  0  0
   -2.5560    1.7120   -1.2620 C   0  0  0  0  0  0  0  0  0  0  0  0
   -1.2710    1.4920   -1.3800 C   0  0  0  0  0  0  0  0  0  0  0  0
   -0.9070    0.4030   -0.4250 C   0  0  0  0  0  0  0  0  0  0  0  0
    0.3100   -0.0800   -0.2930 C   0  0  0  0  0  0  0  0  0  0  0  0
    1.4430    0.4540   -1.0870 C   0  0  0  0  0  0  0  0  0  0  0  0
    2.7490   -0.1520   -0.6780 C   0  0  0  0  0  0  0  0  0  0  0  0
    2.9080   -0.2600    0.8190 C   0  0  0  0  0  0  0  0  0  0  0  0
    1.8120   -1.1420    1.3480 C   0  0  0  0  0  0  0  0  0  0  0  0
    2.0230   -1.8120    2.3690 O   0  0  0  0  0  0  0  0  0  0  0  0
    0.5810   -1.1330    0.6060 N   0  0  0  0  0  0  0  0  0  0  0  0
  1  2  1  0
  2  3  2  0
  2  6  1  0
  3  4  1  0
  4  5  2  0
  5  6  1  0
  6  7  2  3
  7  8  1  0
  7 13  1  0
  8  9  1  0
  9 10  1  0
 10 11  1  0
 11 12  2  0
 11 13  1  0
M  END
