
     RDKit          3D

 13 13  0  0  0  0  0  0  0  0999 V2000
   -4.3420   -0.8320   -0.6060 C   0  0  0  0  0  0  0  0  0  0  0  0
   -3.1010   -0.3670    0.0330 C   0  0  0  0  0  0  0  0  0  0  0  0
   -2.0240   -0.1490   -0.6840 C   0  0  0  0  0  0  0  0  0  0  0  0
   -0.8450    0.3000   -0.0330 N   0  0  0  0  0  0  0  0  0  0  0  0
   -0.7120    1.5810    0.5970 C   0  0  0  0  0  0  0  0  0  0  0  0
    0.5070    2.2770    0.0430 C   0  0  0  0  0  0  0  0  0  0  0  0
    1.7320    1.4500    0.0520 C   0  0  0  0  0  0  0  0  0  0  0  0
    1.4920   -0.0130    0.0450 C   0  0  0  0  0  0  0  0  0  0  0  0
    2.6790   -0.8520    0.0880 C   0  0  0  0  0  0  0  0  0  0  0  0
    4.0620   -0.3080    0.1340 C   0  0  0  0  0  0  0  0  0  0  0  0
    2.5910   -2.1040    0.0890 O   0  0  0  0  0  0  0  0  0  0  0  0
    0.3010   -0.5800    0.0050 C   0  0  0  0  0  0  0  0  0  0  0  0
    0.1040   -2.0630   -0.0060 C   0  0  0  0  0  0  0  0  0  0  0  0
  1  2  1  0
  2  3  2  3
  3  4  1  0
  4  5  1  0
  4 12  1  0
  5  6  1  0
  6  7  1  0
  7  8  1  0
  8  9  1  0
  8 12  2  0
  9 10  1  0
  9 11  2  0
 12 13  1  0
M  END
