
     RDKit          3D

 13 14  0  0  0  0  0  0  0  0999 V2000
   -3.4570   -0.5760    1.1610 C   0  0  0  0  0  0  0  0  0  0  0  0
   -2.6290    0.5660    0.6770 C   0  0  0  0  0  0  0  0  0  0  0  0
   -2.0720    0.2940   -0.6690 C   0  0  0  0  0  0  0  0  0  0  0  0
   -0.8390    0.1280   -0.9940 C   0  0  0  0  0  0  0  0  0  0  0  0
   -0.3260   -0.1410   -2.3960 C   0  0  0  0  0  0  0  0  0  0  0  0
    0.9170    0.7300   -2.2980 C   0  0  0  0  0  0  0  0  0  0  0  0
    1.3770    1.4670   -3.1760 O   0  0  0  0  0  0  0  0  0  0  0  0
    1.4400    0.5070   -0.9560 N   0  0  0  0  0  0  0  0  0  0  0  0
    2.7670    0.6320   -0.4240 C   0  0  0  0  0  0  0  0  0  0  0  0
    2.9820   -0.2860    0.7310 C   0  0  0  0  0  0  0  0  0  0  0  0
    1.9020   -0.1090    1.7920 C   0  0  0  0  0  0  0  0  0  0  0  0
    0.5580   -0.1930    1.1210 C   0  0  0  0  0  0  0  0  0  0  0  0
    0.3510    0.1260   -0.1390 C   0  0  0  0  0  0  0  0  0  0  0  0
  1  2  1  0
  2  3  1  0
  3  4  2  3
  4  5  1  0
  4 13  1  0
  5  6  1  0
  6  7  2  0
  6  8  1  0
  8  9  1  0
  8 13  1  0
  9 10  1  0
 10 11  1  0
 11 12  1  0
 12 13  2  0
M  END
