
     RDKit          3D

 13 14  0  0  0  0  0  0  0  0999 V2000
   -3.1320    1.4790   -0.1030 C   0  0  0  0  0  0  0  0  0  0  0  0
   -1.6660    1.4610   -0.2660 C   0  0  0  0  0  0  0  0  0  0  0  0
   -0.9680    0.3290   -0.0800 C   0  0  0  0  0  0  0  0  0  0  0  0
   -1.6710   -0.9280    0.2950 C   0  0  0  0  0  0  0  0  0  0  0  0
   -0.7840   -2.1260    0.2110 C   0  0  0  0  0  0  0  0  0  0  0  0
    0.2710   -2.0490   -0.8400 C   0  0  0  0  0  0  0  0  0  0  0  0
    1.1170   -0.8510   -0.6170 C   0  0  0  0  0  0  0  0  0  0  0  0
    2.4620   -0.5380   -0.6810 C   0  0  0  0  0  0  0  0  0  0  0  0
    2.6380    0.7890   -0.3510 C   0  0  0  0  0  0  0  0  0  0  0  0
    3.8860    1.5370   -0.2910 C   0  0  0  0  0  0  0  0  0  0  0  0
    4.9900    0.9720   -0.5600 O   0  0  0  0  0  0  0  0  0  0  0  0
    1.4150    1.2800   -0.0890 N   0  0  0  0  0  0  0  0  0  0  0  0
    0.4810    0.3130   -0.2410 C   0  0  0  0  0  0  0  0  0  0  0  0
  1  2  1  0
  2  3  2  3
  3  4  1  0
  3 13  1  0
  4  5  1  0
  5  6  1  0
  6  7  1  0
  7  8  1  0
  7 13  2  0
  8  9  2  0
  9 10  1  0
  9 12  1  0
 10 11  2  0
 12 13  1  0
M  END
