
     RDKit          3D

 13 14  0  0  0  0  0  0  0  0999 V2000
    3.5890   -2.0140    0.8110 C   0  0  0  0  0  0  0  0  0  0  0  0
    3.1100   -1.1410    1.0480 C   0  0  0  0  0  0  0  0  0  0  0  0
    2.3580    0.2730    1.4420 C   0  0  0  0  0  0  0  0  0  0  0  0
    1.0090    0.1130    1.0530 N   0  0  0  0  0  0  0  0  0  0  0  0
    0.0050   -0.5580    1.4240 C   0  0  0  0  0  0  0  0  0  0  0  0
   -1.1100   -0.6230    0.8460 C   0  0  0  0  0  0  0  0  0  0  0  0
   -0.8540    0.2230   -0.3010 C   0  0  0  0  0  0  0  0  0  0  0  0
    0.4910    0.6600   -0.1130 C   0  0  0  0  0  0  0  0  0  0  0  0
    1.2470    1.5080   -1.0380 C   0  0  0  0  0  0  0  0  0  0  0  0
    1.0530    2.8120   -0.6420 O   0  0  0  0  0  0  0  0  0  0  0  0
   -2.0890    0.4330   -1.1130 C   0  0  0  0  0  0  0  0  0  0  0  0
   -2.7970   -0.8010   -0.7870 C   0  0  0  0  0  0  0  0  0  0  0  0
   -2.5250   -1.0310    0.6630 C   0  0  0  0  0  0  0  0  0  0  0  0
  1  2  3  0
  2  3  1  0
  3  4  1  0
  4  5  1  0
  4  8  1  0
  5  6  2  0
  6  7  1  0
  6 13  1  0
  7  8  2  0
  7 11  1  0
  8  9  1  0
  9 10  1  0
 11 12  1  0
 12 13  1  0
M  END
