
     RDKit          3D

 13 13  0  0  0  0  0  0  0  0999 V2000
   -2.9930   -1.6490   -0.4140 O   0  0  0  0  0  0  0  0  0  0  0  0
   -1.7650   -1.9100    0.1930 C   0  0  0  0  0  0  0  0  0  0  0  0
   -0.7630   -0.8340   -0.2520 C   0  0  2  0  0  0  0  0  0  0  0  0
    0.4850   -1.0960    0.3610 N   0  0  0  0  0  0  0  0  0  0  0  0
    1.3370    0.0060    0.5920 C   0  0  1  0  0  0  0  0  0  0  0  0
    2.7820   -0.2300    0.2420 C   0  0  0  0  0  0  0  0  0  0  0  0
    2.9780   -0.5460   -1.0850 O   0  0  0  0  0  0  0  0  0  0  0  0
    0.8950    1.2770   -0.1310 C   0  0  1  0  0  0  0  0  0  0  0  0
    0.8120    0.9960   -1.4880 O   0  0  0  0  0  0  0  0  0  0  0  0
   -0.4900    1.5620    0.4610 C   0  0  1  0  0  0  0  0  0  0  0  0
   -0.8780    2.8270    0.1000 O   0  0  0  0  0  0  0  0  0  0  0  0
   -1.3920    0.4730    0.0100 C   0  0  2  0  0  0  0  0  0  0  0  0
   -2.4490    0.3790    0.9470 O   0  0  0  0  0  0  0  0  0  0  0  0
  1  2  1  0
  3  2  1  1
  3  4  1  0
  3 12  1  0
  4  5  1  0
  5  6  1  6
  5  8  1  0
  6  7  1  0
  8  9  1  6
  8 10  1  0
 10 11  1  6
 10 12  1  0
 12 13  1  1
M  CHG  1   4   1
M  END
