
     RDKit          3D

 11 11  0  0  0  0  0  0  0  0999 V2000
    1.7790    2.4540    0.5090 O   0  0  0  0  0  0  0  0  0  0  0  0
    0.9260    1.6270   -0.2130 C   0  0  0  0  0  0  0  0  0  0  0  0
    0.4980    0.5080    0.7030 C   0  0  2  0  0  0  0  0  0  0  0  0
    1.6030   -0.1950    1.1250 O   0  0  0  0  0  0  0  0  0  0  0  0
    1.7890   -1.3940    0.4580 C   0  0  0  0  0  0  0  0  0  0  0  0
    0.7660   -2.2930    0.6490 O   0  0  0  0  0  0  0  0  0  0  0  0
   -0.4860   -1.7170    0.7480 C   0  0  0  0  0  0  0  0  0  0  0  0
   -0.5010   -0.4100    0.0050 C   0  0  2  0  0  0  0  0  0  0  0  0
   -0.1310   -0.5940   -1.3420 O   0  0  0  0  0  0  0  0  0  0  0  0
   -1.8540    0.2330   -0.0090 C   0  0  0  0  0  0  0  0  0  0  0  0
   -2.3700    0.4860    1.2380 O   0  0  0  0  0  0  0  0  0  0  0  0
  1  2  1  0
  3  2  1  6
  3  4  1  0
  3  8  1  0
  4  5  1  0
  5  6  1  0
  6  7  1  0
  7  8  1  0
  8  9  1  6
  8 10  1  0
 10 11  1  0
M  END
