
     RDKit          3D

 12 13  0  0  0  0  0  0  0  0999 V2000
   -1.1580    1.8360   -1.4860 O   0  0  0  0  0  0  0  0  0  0  0  0
   -1.4100    0.9180   -0.4910 C   0  0  1  0  0  0  0  0  0  0  0  0
   -2.6530    0.2970   -0.6270 O   0  0  0  0  0  0  0  0  0  0  0  0
   -2.5550   -0.9640   -0.1010 C   0  0  0  0  0  0  0  0  0  0  0  0
   -1.2070   -1.2320    0.1300 O   0  0  0  0  0  0  0  0  0  0  0  0
   -0.4870   -0.2970   -0.5740 C   0  0  1  0  0  0  0  0  0  0  0  0
   -0.3020   -0.6030   -1.9060 O   0  0  0  0  0  0  0  0  0  0  0  0
    0.8200    0.0650    0.0310 C   0  0  2  0  0  0  0  0  0  0  0  0
    1.7320   -1.1040    0.2600 C   0  0  0  0  0  0  0  0  0  0  0  0
    2.5850   -0.6340    1.2530 O   0  0  0  0  0  0  0  0  0  0  0  0
    2.0850    0.5820    1.6850 C   0  0  0  0  0  0  0  0  0  0  0  0
    0.7230    0.6050    1.3120 O   0  0  0  0  0  0  0  0  0  0  0  0
  2  1  1  6
  2  3  1  0
  2  6  1  0
  3  4  1  0
  4  5  1  0
  5  6  1  0
  6  7  1  6
  6  8  1  0
  8  9  1  1
  8 12  1  0
  9 10  1  0
 10 11  1  0
 11 12  1  0
M  END
