
     RDKit          3D

 11 11  0  0  0  0  0  0  0  0999 V2000
   -2.4550    1.4730    0.0210 O   0  0  0  0  0  0  0  0  0  0  0  0
   -2.6160    0.1540    0.4410 C   0  0  0  0  0  0  0  0  0  0  0  0
   -1.2800   -0.5920    0.4640 C   0  0  2  0  0  0  0  0  0  0  0  0
   -0.4510    0.0430    1.3170 O   0  0  0  0  0  0  0  0  0  0  0  0
    0.7800    0.3970    0.9060 C   0  0  0  0  0  0  0  0  0  0  0  0
    1.2620   -0.1230   -0.3870 C   0  0  1  0  0  0  0  0  0  0  0  0
    2.6720   -0.6700   -0.1960 C   0  0  0  0  0  0  0  0  0  0  0  0
    3.4640    0.3480    0.3790 O   0  0  0  0  0  0  0  0  0  0  0  0
    0.5120   -1.1350   -0.9480 O   0  0  0  0  0  0  0  0  0  0  0  0
   -0.8100   -0.7580   -0.9360 C   0  0  2  0  0  0  0  0  0  0  0  0
   -1.0700    0.3810   -1.6930 O   0  0  0  0  0  0  0  0  0  0  0  0
  1  2  1  0
  3  2  1  6
  3  4  1  0
  3 10  1  0
  4  5  1  0
  5  6  1  0
  6  7  1  1
  6  9  1  0
  7  8  1  0
  9 10  1  0
 10 11  1  6
M  END
