
     RDKit          3D

 11 11  0  0  0  0  0  0  0  0999 V2000
   -0.3790    1.9380   -0.6050 C   0  0  0  0  0  0  0  0  0  0  0  0
   -0.6000    0.7430    0.2690 C   0  0  1  0  0  0  0  0  0  0  0  0
   -0.7100    1.0790    1.6160 O   0  0  0  0  0  0  0  0  0  0  0  0
   -1.8480   -0.0390   -0.1560 C   0  0  0  0  0  0  0  0  0  0  0  0
   -1.4060   -1.4550   -0.0020 C   0  0  2  0  0  0  0  0  0  0  0  0
   -2.3650   -2.1840    0.6940 O   0  0  0  0  0  0  0  0  0  0  0  0
   -0.1720   -1.4490    0.6160 O   0  0  0  0  0  0  0  0  0  0  0  0
    0.4700   -0.3090    0.0820 C   0  0  2  0  0  0  0  0  0  0  0  0
    1.6390   -0.0270    0.7460 O   0  0  0  0  0  0  0  0  0  0  0  0
    2.7500    0.0220   -0.0620 C   0  0  0  0  0  0  0  0  0  0  0  0
    2.9600   -1.1950   -0.7070 O   0  0  0  0  0  0  0  0  0  0  0  0
  2  1  1  6
  2  3  1  0
  2  4  1  0
  2  8  1  0
  4  5  1  0
  5  6  1  1
  5  7  1  0
  7  8  1  0
  8  9  1  1
  9 10  1  0
 10 11  1  0
M  END
