
     RDKit          3D

 18 20  0  0  0  0  0  0  0  0999 V2000
    5.1080    1.0380    0.9960 C   0  0  0  0  0  0  0  0  0  0  0  0
    4.6970    0.2980   -0.2500 C   0  0  0  0  0  0  0  0  0  0  0  0
    3.2200    0.1150   -0.3080 C   0  0  0  0  0  0  0  0  0  0  0  0
    2.6320   -0.5250   -1.3420 C   0  0  0  0  0  0  0  0  0  0  0  0
    1.2400   -0.6800   -1.3660 C   0  0  0  0  0  0  0  0  0  0  0  0
    0.5200   -0.1700   -0.3240 C   0  0  0  0  0  0  0  0  0  0  0  0
   -0.9200   -0.2050   -0.1790 C   0  0  0  0  0  0  0  0  0  0  0  0
   -1.5160    0.5990    0.8080 C   0  0  0  0  0  0  0  0  0  0  0  0
   -2.8810    0.5860    1.0020 C   0  0  0  0  0  0  0  0  0  0  0  0
   -3.6760    1.2550    1.8680 N   0  0  0  0  0  0  0  0  0  0  0  0
   -4.9610    0.9140    1.6850 C   0  0  0  0  0  0  0  0  0  0  0  0
   -5.0410   -0.0070    0.6700 C   0  0  0  0  0  0  0  0  0  0  0  0
   -3.7210   -0.2060    0.2480 C   0  0  0  0  0  0  0  0  0  0  0  0
   -3.1500   -0.9930   -0.7150 C   0  0  0  0  0  0  0  0  0  0  0  0
   -1.7490   -0.9880   -0.9230 C   0  0  0  0  0  0  0  0  0  0  0  0
   -1.2880   -1.8730   -1.9350 N   0  0  0  0  0  0  0  0  0  0  0  0
    1.1930    0.4630    0.6820 N   0  0  0  0  0  0  0  0  0  0  0  0
    2.4840    0.6020    0.6940 N   0  0  0  0  0  0  0  0  0  0  0  0
  1  2  1  0
  2  3  1  0
  3  4  2  0
  3 18  1  0
  4  5  1  0
  5  6  2  0
  6  7  1  0
  6 17  1  0
  7  8  2  0
  7 15  1  0
  8  9  1  0
  9 10  1  0
  9 13  2  0
 10 11  1  0
 11 12  2  0
 12 13  1  0
 13 14  1  0
 14 15  2  0
 15 16  1  0
 17 18  2  0
M  END
