
     RDKit          3D

 12 12  0  0  0  0  0  0  0  0999 V2000
    3.1760   -0.6130    1.7420 O   0  0  0  0  0  0  0  0  0  0  0  0
    2.2250   -0.0710    0.8700 C   0  0  0  0  0  0  0  0  0  0  0  0
    1.5470   -1.1570    0.0830 C   0  0  0  0  0  0  0  0  0  0  0  0
    0.5320   -0.7220   -0.8600 C   0  0  1  0  0  0  0  0  0  0  0  0
    0.0660   -1.9200   -1.5280 O   0  0  0  0  0  0  0  0  0  0  0  0
   -0.6500    0.0140   -0.5510 C   0  0  1  0  0  0  0  0  0  0  0  0
   -1.2680    0.3510   -1.8090 O   0  0  0  0  0  0  0  0  0  0  0  0
   -1.7190   -0.7240    0.0520 O   0  0  0  0  0  0  0  0  0  0  0  0
   -2.7280    0.2640   -0.0490 C   0  0  0  0  0  0  0  0  0  0  0  0
   -2.1000    1.5190   -0.0450 O   0  0  0  0  0  0  0  0  0  0  0  0
   -0.7430    1.1870    0.3260 C   0  0  1  0  0  0  0  0  0  0  0  0
   -0.9810    0.8680    1.7000 O   0  0  0  0  0  0  0  0  0  0  0  0
  1  2  1  0
  2  3  1  0
  3  4  1  0
  4  5  1  1
  4  6  1  0
  6  7  1  6
  6  8  1  0
  6 11  1  0
  8  9  1  0
  9 10  1  0
 10 11  1  0
 11 12  1  1
M  END
