
     RDKit          3D

 11 11  0  0  0  0  0  0  0  0999 V2000
    1.0670   -1.2870    1.5330 O   0  0  0  0  0  0  0  0  0  0  0  0
    0.9830   -1.4980    0.1600 C   0  0  0  0  0  0  0  0  0  0  0  0
    0.3440   -0.2700   -0.4690 C   0  0  2  0  0  0  0  0  0  0  0  0
    1.2730    0.8990   -0.1230 C   0  0  1  0  0  0  0  0  0  0  0  0
    2.5690    0.6530   -0.5080 O   0  0  0  0  0  0  0  0  0  0  0  0
    0.7020    2.0020   -0.7530 O   0  0  0  0  0  0  0  0  0  0  0  0
   -0.4500    2.3210   -0.0510 C   0  0  0  0  0  0  0  0  0  0  0  0
   -1.3710    1.3500    0.0580 O   0  0  0  0  0  0  0  0  0  0  0  0
   -0.9880    0.0590    0.0960 C   0  0  1  0  0  0  0  0  0  0  0  0
   -2.0820   -0.7790   -0.5810 C   0  0  0  0  0  0  0  0  0  0  0  0
   -1.7710   -2.1220   -0.5870 O   0  0  0  0  0  0  0  0  0  0  0  0
  1  2  1  0
  3  2  1  1
  3  4  1  0
  3  9  1  0
  4  5  1  6
  4  6  1  0
  6  7  1  0
  7  8  1  0
  8  9  1  0
  9 10  1  6
 10 11  1  0
M  END
