
     RDKit          3D

 18 20  0  0  0  0  0  0  0  0999 V2000
    5.3580    0.8120   -0.8440 C   0  0  0  0  0  0  0  0  0  0  0  0
    3.9690    0.5080   -0.4070 C   0  0  0  0  0  0  0  0  0  0  0  0
    3.1180    1.3580    0.2690 C   0  0  0  0  0  0  0  0  0  0  0  0
    1.9030    0.7140    0.5020 C   0  0  0  0  0  0  0  0  0  0  0  0
    0.7390    1.1190    1.1280 C   0  0  0  0  0  0  0  0  0  0  0  0
   -0.2940    0.2070    1.1830 C   0  0  0  0  0  0  0  0  0  0  0  0
   -0.1280   -1.0520    0.6190 C   0  0  0  0  0  0  0  0  0  0  0  0
   -1.2880   -2.0030    0.7090 C   0  0  0  0  0  0  0  0  0  0  0  0
   -2.1440   -1.8460   -0.4510 N   0  0  0  0  0  0  0  0  0  0  0  0
   -2.7560   -0.5880   -0.7160 C   0  0  0  0  0  0  0  0  0  0  0  0
   -2.3400    0.4320   -1.4270 C   0  0  0  0  0  0  0  0  0  0  0  0
   -3.3260    1.5150   -1.4080 C   0  0  0  0  0  0  0  0  0  0  0  0
   -4.3610    1.1280   -0.6620 C   0  0  0  0  0  0  0  0  0  0  0  0
   -4.0640   -0.2220   -0.1810 C   0  0  0  0  0  0  0  0  0  0  0  0
   -4.8290   -0.9430    0.5780 N   0  0  0  0  0  0  0  0  0  0  0  0
    1.0240   -1.3950    0.0220 N   0  0  0  0  0  0  0  0  0  0  0  0
    2.0620   -0.5380   -0.0560 C   0  0  0  0  0  0  0  0  0  0  0  0
    3.3060   -0.6490   -0.5980 N   0  0  0  0  0  0  0  0  0  0  0  0
  1  2  1  0
  2  3  2  0
  2 18  1  0
  3  4  1  0
  4  5  2  0
  4 17  1  0
  5  6  1  0
  6  7  2  0
  7  8  1  0
  7 16  1  0
  8  9  1  0
  9 10  1  0
 10 11  2  0
 10 14  1  0
 11 12  1  0
 12 13  2  0
 13 14  1  0
 14 15  2  0
 16 17  2  0
 17 18  1  0
M  END
