
     RDKit          3D

 16 16  0  0  0  0  0  0  0  0999 V2000
    4.7170    1.3360    0.2820 N   0  0  0  0  0  0  0  0  0  0  0  0
    3.7170    0.6570   -0.4320 C   0  0  0  0  0  0  0  0  0  0  0  0
    3.8990    0.3960   -1.6440 O   0  0  0  0  0  0  0  0  0  0  0  0
    2.4700    0.2400    0.1850 C   0  0  0  0  0  0  0  0  0  0  0  0
    2.2950    0.5090    1.4110 O   0  0  0  0  0  0  0  0  0  0  0  0
    1.4620   -0.4240   -0.4600 O   0  0  0  0  0  0  0  0  0  0  0  0
    0.2540   -0.8420    0.0830 C   0  0  2  0  0  0  0  0  0  0  0  0
    0.1670   -2.3180   -0.0070 C   0  0  0  0  0  0  0  0  0  0  0  0
   -0.9570   -3.0520    0.4670 N   0  0  0  0  0  0  0  0  0  0  0  0
    1.1180   -2.9530   -0.5190 O   0  0  0  0  0  0  0  0  0  0  0  0
   -0.9490   -0.2480   -0.6430 C   0  0  2  0  0  0  0  0  0  0  0  0
   -0.8520    1.2340   -0.7790 C   0  0  0  0  0  0  0  0  0  0  0  0
   -2.1180    1.7040   -1.1730 O   0  0  0  0  0  0  0  0  0  0  0  0
   -3.0020    1.5290   -0.1180 C   0  0  0  0  0  0  0  0  0  0  0  0
   -2.8620    0.2210    0.5770 C   0  0  0  0  0  0  0  0  0  0  0  0
   -2.0910   -0.7080   -0.0500 O   0  0  0  0  0  0  0  0  0  0  0  0
  1  2  1  0
  2  3  2  0
  2  4  1  0
  4  5  2  0
  4  6  1  0
  7  6  1  6
  7  8  1  0
  7 11  1  0
  8  9  1  0
  8 10  2  0
 11 12  1  1
 11 16  1  0
 12 13  1  0
 13 14  1  0
 14 15  1  0
 15 16  1  0
M  END
