
     RDKit          3D

 16 16  0  0  0  0  0  0  0  0999 V2000
   -0.2670    1.6430   -0.8260 C   0  0  0  0  0  0  0  0  0  0  0  0
   -0.3730    0.3060   -0.0450 C   0  0  2  0  0  0  0  0  0  0  0  0
    1.0410   -0.1180    0.2960 C   0  0  1  0  0  0  0  0  0  0  0  0
    1.5490    0.8210    1.2250 O   0  0  0  0  0  0  0  0  0  0  0  0
    1.1730   -1.4510    0.9280 C   0  0  0  0  0  0  0  0  0  0  0  0
    0.5010   -1.6310    2.1170 O   0  0  0  0  0  0  0  0  0  0  0  0
    1.9320    0.0270   -0.8880 C   0  0  0  0  0  0  0  0  0  0  0  0
    2.9940    0.9620   -0.9330 N   0  0  0  0  0  0  0  0  0  0  0  0
    1.7450   -0.6990   -1.8910 O   0  0  0  0  0  0  0  0  0  0  0  0
   -1.0290   -0.5810   -0.9480 N   0  0  0  0  0  0  0  0  0  0  0  0
   -2.4360   -0.6640   -1.0020 C   0  0  0  0  0  0  0  0  0  0  0  0
   -3.0520   -1.1900   -1.9880 O   0  0  0  0  0  0  0  0  0  0  0  0
   -3.3170   -0.1490    0.0790 C   0  0  0  0  0  0  0  0  0  0  0  0
   -2.5800    0.6250    1.0040 O   0  0  0  0  0  0  0  0  0  0  0  0
   -1.2050    0.5390    1.1550 C   0  0  0  0  0  0  0  0  0  0  0  0
   -0.6850    0.6630    2.3220 O   0  0  0  0  0  0  0  0  0  0  0  0
  2  1  1  6
  2  3  1  0
  2 10  1  0
  2 15  1  0
  3  4  1  1
  3  5  1  0
  3  7  1  0
  5  6  1  0
  7  8  1  0
  7  9  2  0
 10 11  1  0
 11 12  2  0
 11 13  1  0
 13 14  1  0
 14 15  1  0
 15 16  2  0
M  END
