
     RDKit          3D

 15 16  0  0  0  0  0  0  0  0999 V2000
   -3.0550    1.2960   -0.3310 C   0  0  0  0  0  0  0  0  0  0  0  0
   -2.1530    0.3810    0.4790 C   0  0  2  0  0  0  0  0  0  0  0  0
   -2.6770    0.2960    1.7880 O   0  0  0  0  0  0  0  0  0  0  0  0
   -0.8810    0.9350    0.6200 O   0  0  0  0  0  0  0  0  0  0  0  0
    0.0270   -0.0820    0.6460 C   0  0  2  0  0  0  0  0  0  0  0  0
    1.2930    0.2110    1.0200 O   0  0  0  0  0  0  0  0  0  0  0  0
    2.1770   -0.6140    0.3810 C   0  0  2  0  0  0  0  0  0  0  0  0
    3.3000    0.2110   -0.1260 C   0  0  0  0  0  0  0  0  0  0  0  0
    3.3260    1.6130    0.0880 N   0  0  0  0  0  0  0  0  0  0  0  0
    4.2630   -0.2940   -0.7580 O   0  0  0  0  0  0  0  0  0  0  0  0
    1.4390   -1.3110   -0.7510 C   0  0  0  0  0  0  0  0  0  0  0  0
    0.1550   -0.5730   -0.8060 C   0  0  1  0  0  0  0  0  0  0  0  0
   -1.0200   -1.4160   -0.9510 N   0  0  0  0  0  0  0  0  0  0  0  0
   -2.1270   -0.9720   -0.1320 C   0  0  0  0  0  0  0  0  0  0  0  0
   -3.1070   -1.7410    0.0810 O   0  0  0  0  0  0  0  0  0  0  0  0
  2  1  1  6
  2  3  1  0
  2  4  1  0
  2 14  1  0
  5  4  1  6
  5  6  1  0
  5 12  1  0
  6  7  1  0
  7  8  1  6
  7 11  1  0
  8  9  1  0
  8 10  2  0
 12 11  1  1
 12 13  1  0
 13 14  1  0
 14 15  2  0
M  END
