
     RDKit          3D

 16 17  0  0  0  0  0  0  0  0999 V2000
    3.4110    2.6500   -0.6620 O   0  0  0  0  0  0  0  0  0  0  0  0
    2.4280    1.8680   -0.4020 C   0  0  0  0  0  0  0  0  0  0  0  0
    2.5040    0.6970    0.3880 N   0  0  0  0  0  0  0  0  0  0  0  0
    1.1580    0.2200    0.5810 C   0  0  2  0  0  0  0  0  0  0  0  0
    1.1160   -1.2540    0.1790 C   0  0  1  0  0  0  0  0  0  0  0  0
    1.9290   -2.0170    1.0110 O   0  0  0  0  0  0  0  0  0  0  0  0
   -0.2970   -1.7210    0.3610 C   0  0  1  0  0  0  0  0  0  0  0  0
   -0.6350   -1.5600    1.7100 O   0  0  0  0  0  0  0  0  0  0  0  0
   -1.2850   -0.9630   -0.4790 C   0  0  2  0  0  0  0  0  0  0  0  0
   -1.2950   -1.5270   -1.7750 O   0  0  0  0  0  0  0  0  0  0  0  0
   -1.0310    0.4960   -0.5680 C   0  0  1  0  0  0  0  0  0  0  0  0
   -2.0020    1.1980    0.3830 C   0  0  0  0  0  0  0  0  0  0  0  0
   -1.9770    2.5680    0.2360 O   0  0  0  0  0  0  0  0  0  0  0  0
    0.3070    0.9250   -0.3310 N   0  0  0  0  0  0  0  0  0  0  0  0
    1.0610    2.0130   -0.8510 C   0  0  0  0  0  0  0  0  0  0  0  0
    0.6730    2.9740   -1.5840 O   0  0  0  0  0  0  0  0  0  0  0  0
  1  2  2  0
  2  3  1  0
  2 15  1  0
  4  3  1  6
  4  5  1  0
  4 14  1  0
  5  6  1  1
  5  7  1  0
  7  8  1  1
  7  9  1  0
  9 10  1  6
  9 11  1  0
 11 12  1  1
 11 14  1  0
 12 13  1  0
 14 15  1  0
 15 16  2  0
M  END
