
     RDKit          3D

 16 16  0  0  0  0  0  0  0  0999 V2000
   -3.3640    1.8730   -1.0420 N   0  0  0  0  0  0  0  0  0  0  0  0
   -3.5860    1.1830    0.1730 C   0  0  0  0  0  0  0  0  0  0  0  0
   -4.5740    1.5430    0.8560 O   0  0  0  0  0  0  0  0  0  0  0  0
   -2.7130    0.0980    0.6270 C   0  0  0  0  0  0  0  0  0  0  0  0
   -1.6700   -0.2970   -0.0720 C   0  0  0  0  0  0  0  0  0  0  0  0
   -1.2660    0.2330   -1.2840 O   0  0  0  0  0  0  0  0  0  0  0  0
   -0.1880   -0.5430   -1.8110 C   0  0  0  0  0  0  0  0  0  0  0  0
    0.4640   -1.0550   -0.5440 C   0  0  1  0  0  0  0  0  0  0  0  0
    1.2080    0.0210   -0.0030 O   0  0  0  0  0  0  0  0  0  0  0  0
    2.5740   -0.1380    0.2110 C   0  0  0  0  0  0  0  0  0  0  0  0
    3.0740   -1.2510   -0.0950 O   0  0  0  0  0  0  0  0  0  0  0  0
    3.4060    0.9220    0.7650 C   0  0  0  0  0  0  0  0  0  0  0  0
    4.7920    0.6810    0.9530 N   0  0  0  0  0  0  0  0  0  0  0  0
    2.9480    2.0460    1.0840 O   0  0  0  0  0  0  0  0  0  0  0  0
   -0.7410   -1.3810    0.3140 C   0  0  1  0  0  0  0  0  0  0  0  0
   -0.4450   -1.3880    1.6690 O   0  0  0  0  0  0  0  0  0  0  0  0
  1  2  1  0
  2  3  2  0
  2  4  1  0
  4  5  2  3
  5  6  1  0
  5 15  1  0
  6  7  1  0
  7  8  1  0
  8  9  1  1
  8 15  1  0
  9 10  1  0
 10 11  2  0
 10 12  1  0
 12 13  1  0
 12 14  2  0
 15 16  1  1
M  END
