
     RDKit          3D

 16 16  0  0  0  0  0  0  0  0999 V2000
    2.7290    0.9840    1.5290 C   0  0  0  0  0  0  0  0  0  0  0  0
    1.6650    0.9020    0.6160 O   0  0  0  0  0  0  0  0  0  0  0  0
    1.3490   -0.4320    0.3430 C   0  0  0  0  0  0  0  0  0  0  0  0
    0.2150   -0.5490   -0.6300 C   0  0  1  0  0  0  0  0  0  0  0  0
    0.6810    0.1330   -1.8560 N   0  0  0  0  0  0  0  0  0  0  0  0
    0.0930   -1.9670   -1.0010 C   0  0  0  0  0  0  0  0  0  0  0  0
    1.0970   -2.7110   -1.0160 O   0  0  0  0  0  0  0  0  0  0  0  0
   -1.1410   -2.5340   -1.3510 O   0  0  0  0  0  0  0  0  0  0  0  0
   -2.2610   -1.7730   -0.8610 C   0  0  0  0  0  0  0  0  0  0  0  0
   -2.0890   -0.4240   -0.9820 O   0  0  0  0  0  0  0  0  0  0  0  0
   -1.0490    0.1150   -0.2420 C   0  0  2  0  0  0  0  0  0  0  0  0
   -0.9880    1.6110   -0.5910 C   0  0  0  0  0  0  0  0  0  0  0  0
   -0.7590    1.8260   -1.9230 O   0  0  0  0  0  0  0  0  0  0  0  0
   -1.3950    0.0880    1.1830 C   0  0  0  0  0  0  0  0  0  0  0  0
   -0.5730    0.5310    2.2510 N   0  0  0  0  0  0  0  0  0  0  0  0
   -2.5090   -0.3610    1.5270 O   0  0  0  0  0  0  0  0  0  0  0  0
  1  2  1  0
  2  3  1  0
  3  4  1  0
  4  5  1  6
  4  6  1  0
  4 11  1  0
  6  7  2  0
  6  8  1  0
  8  9  1  0
  9 10  1  0
 10 11  1  0
 11 12  1  6
 11 14  1  0
 12 13  1  0
 14 15  1  0
 14 16  2  0
M  END
