
     RDKit          3D

 16 16  0  0  0  0  0  0  0  0999 V2000
    6.2990   -0.4300    0.0230 C   0  0  0  0  0  0  0  0  0  0  0  0
    5.0120   -0.2900    0.5980 O   0  0  0  0  0  0  0  0  0  0  0  0
    3.8420   -0.2930   -0.1480 C   0  0  0  0  0  0  0  0  0  0  0  0
    3.9310   -0.4260   -1.3860 O   0  0  0  0  0  0  0  0  0  0  0  0
    2.5690   -0.1380    0.5930 C   0  0  0  0  0  0  0  0  0  0  0  0
    1.4170   -0.1560   -0.2880 N   0  0  0  0  0  0  0  0  0  0  0  0
    0.1300   -0.0190    0.2590 C   0  0  0  0  0  0  0  0  0  0  0  0
    0.0220    0.1160    1.5160 O   0  0  0  0  0  0  0  0  0  0  0  0
   -1.0650   -0.0270   -0.5450 N   0  0  0  0  0  0  0  0  0  0  0  0
   -2.3150    0.1200    0.1230 C   0  0  1  0  0  0  0  0  0  0  0  0
   -3.1540    1.2600   -0.4690 C   0  0  2  0  0  0  0  0  0  0  0  0
   -2.7800    2.4860    0.0220 O   0  0  0  0  0  0  0  0  0  0  0  0
   -4.5230    0.8200   -0.0370 C   0  0  0  0  0  0  0  0  0  0  0  0
   -4.4880   -0.5210    0.2280 O   0  0  0  0  0  0  0  0  0  0  0  0
   -3.2710   -1.0320   -0.1280 C   0  0  1  0  0  0  0  0  0  0  0  0
   -3.3120   -1.3910   -1.4680 O   0  0  0  0  0  0  0  0  0  0  0  0
  1  2  1  0
  2  3  1  0
  3  4  2  0
  3  5  1  0
  5  6  1  0
  6  7  1  0
  7  8  2  0
  7  9  1  0
 10  9  1  6
 10 11  1  0
 10 15  1  0
 11 12  1  1
 11 13  1  0
 13 14  1  0
 14 15  1  0
 15 16  1  6
M  END
