
     RDKit          3D

 15 15  0  0  0  0  0  0  0  0999 V2000
    2.9460   -1.3690   -0.9350 O   0  0  0  0  0  0  0  0  0  0  0  0
    2.7620   -0.4810   -0.0500 C   0  0  0  0  0  0  0  0  0  0  0  0
    1.4240   -0.0510    0.2520 N   0  0  0  0  0  0  0  0  0  0  0  0
    0.3530   -0.6710   -0.4880 C   0  0  0  0  0  0  0  0  0  0  0  0
   -0.9610   -0.0980   -0.0390 C   0  0  1  0  0  0  0  0  0  0  0  0
   -1.0910   -0.3690    1.3410 O   0  0  0  0  0  0  0  0  0  0  0  0
   -1.0180    1.4080   -0.1830 C   0  0  0  0  0  0  0  0  0  0  0  0
   -2.2200    1.8660    0.4820 N   0  0  0  0  0  0  0  0  0  0  0  0
   -3.4200    1.2810   -0.0600 C   0  0  0  0  0  0  0  0  0  0  0  0
   -3.3650   -0.2510    0.0330 C   0  0  0  0  0  0  0  0  0  0  0  0
   -2.1390   -0.6510   -0.7640 C   0  0  2  0  0  0  0  0  0  0  0  0
   -2.0770   -2.0150   -0.9930 O   0  0  0  0  0  0  0  0  0  0  0  0
    3.8350    0.0790    0.6290 O   0  0  0  0  0  0  0  0  0  0  0  0
    5.1660   -0.3380    0.3400 C   0  0  0  0  0  0  0  0  0  0  0  0
    6.0440    0.3580    1.1370 O   0  0  0  0  0  0  0  0  0  0  0  0
  1  2  2  0
  2  3  1  0
  2 13  1  0
  3  4  1  0
  4  5  1  0
  5  6  1  1
  5  7  1  0
  5 11  1  0
  7  8  1  0
  8  9  1  0
  9 10  1  0
 10 11  1  0
 11 12  1  1
 13 14  1  0
 14 15  1  0
M  END
