
     RDKit          3D

 16 16  0  0  0  0  0  0  0  0999 V2000
   -1.8070    3.4440    1.2780 O   0  0  0  0  0  0  0  0  0  0  0  0
   -1.4640    2.4860    0.4820 C   0  0  0  0  0  0  0  0  0  0  0  0
   -2.2610    1.3240    0.5050 N   0  0  0  0  0  0  0  0  0  0  0  0
   -1.8210   -0.0430    0.6700 C   0  0  0  0  0  0  0  0  0  0  0  0
   -1.8180   -0.7720   -0.6350 C   0  0  2  0  0  0  0  0  0  0  0  0
   -2.9990   -1.5020   -0.7750 O   0  0  0  0  0  0  0  0  0  0  0  0
   -0.6680   -1.7480   -0.6580 C   0  0  0  0  0  0  0  0  0  0  0  0
    0.2070   -1.4390    0.3560 O   0  0  0  0  0  0  0  0  0  0  0  0
    1.5340   -1.6990    0.0790 C   0  0  0  0  0  0  0  0  0  0  0  0
    2.4390   -0.7450    0.8170 C   0  0  1  0  0  0  0  0  0  0  0  0
    3.7320   -0.8120    0.2690 O   0  0  0  0  0  0  0  0  0  0  0  0
    1.8590    0.6480    0.6960 C   0  0  0  0  0  0  0  0  0  0  0  0
    1.0810    0.6740   -0.4730 O   0  0  0  0  0  0  0  0  0  0  0  0
    0.4560    1.7850   -1.0240 C   0  0  0  0  0  0  0  0  0  0  0  0
    0.6410    1.9140   -2.2980 O   0  0  0  0  0  0  0  0  0  0  0  0
   -0.3220    2.7280   -0.3190 N   0  0  0  0  0  0  0  0  0  0  0  0
  1  2  2  0
  2  3  1  0
  2 16  1  0
  3  4  1  0
  4  5  1  0
  5  6  1  1
  5  7  1  0
  7  8  1  0
  8  9  1  0
  9 10  1  0
 10 11  1  6
 10 12  1  0
 12 13  1  0
 13 14  1  0
 14 15  2  0
 14 16  1  0
M  END
