
     RDKit          3D

 23 24  0  0  0  0  0  0  0  0999 V2000
    5.1710    0.0110    1.0740 C   0  0  0  0  0  0  0  0  0  0  0  0
    3.9840    0.7080    1.2470 O   0  0  0  0  0  0  0  0  0  0  0  0
    3.4930    1.2470    0.0750 C   0  0  1  0  0  0  0  0  0  0  0  0
    4.3430    2.1420   -0.5350 O   0  0  0  0  0  0  0  0  0  0  0  0
    3.1260    0.1900   -0.9450 C   0  0  0  0  0  0  0  0  0  0  0  0
    2.0470   -0.7400   -0.3790 C   0  0  2  0  0  0  0  0  0  0  0  0
    1.7420   -1.7470   -1.4380 C   0  0  0  0  0  0  0  0  0  0  0  0
    1.1350   -2.9020   -0.9550 O   0  0  0  0  0  0  0  0  0  0  0  0
   -0.2580   -2.7290   -0.9060 C   0  0  0  0  0  0  0  0  0  0  0  0
   -0.4980   -1.7420    0.2260 C   0  0  2  0  0  0  0  0  0  0  0  0
    0.4030   -2.0780    1.2440 O   0  0  0  0  0  0  0  0  0  0  0  0
   -1.7700   -1.8700    0.7610 O   0  0  0  0  0  0  0  0  0  0  0  0
   -2.7410   -1.3500   -0.0590 C   0  0  0  0  0  0  0  0  0  0  0  0
   -2.6580    0.1450   -0.1190 C   0  0  1  0  0  0  0  0  0  0  0  0
   -3.5390    0.7610    0.7610 O   0  0  0  0  0  0  0  0  0  0  0  0
   -4.4880    1.5230    0.0810 C   0  0  0  0  0  0  0  0  0  0  0  0
   -5.3910    2.1450    1.1530 C   0  0  0  0  0  0  0  0  0  0  0  0
   -5.9850    1.0880    1.8760 O   0  0  0  0  0  0  0  0  0  0  0  0
   -1.2630    0.6410    0.1980 C   0  0  0  0  0  0  0  0  0  0  0  0
   -0.2390   -0.3680   -0.3360 C   0  0  1  0  0  0  0  0  0  0  0  0
    1.0130    0.0310    0.0330 O   0  0  0  0  0  0  0  0  0  0  0  0
    2.3200    1.9420    0.4040 O   0  0  0  0  0  0  0  0  0  0  0  0
    2.6450    2.8780    1.2700 O   0  0  0  0  0  0  0  0  0  0  0  0
  1  2  1  0
  2  3  1  0
  3  4  1  6
  3  5  1  0
  3 22  1  0
  6  5  1  6
  6  7  1  0
  6 21  1  0
  7  8  1  0
  8  9  1  0
  9 10  1  0
 10 11  1  1
 10 12  1  0
 10 20  1  0
 12 13  1  0
 13 14  1  0
 14 15  1  1
 14 19  1  0
 15 16  1  0
 16 17  1  0
 17 18  1  0
 20 19  1  1
 20 21  1  0
 22 23  1  0
M  END
