
     RDKit          3D

 23 23  0  0  0  0  0  0  0  0999 V2000
   -6.1630   -0.8720    0.1220 C   0  0  0  0  0  0  0  0  0  0  0  0
   -5.7320    0.3020    0.6470 O   0  0  0  0  0  0  0  0  0  0  0  0
   -4.3980    0.5290    0.7740 C   0  0  0  0  0  0  0  0  0  0  0  0
   -3.4730    0.3760   -0.3910 C   0  0  1  0  0  0  0  0  0  0  0  0
   -4.2170    0.4160   -1.5640 O   0  0  0  0  0  0  0  0  0  0  0  0
   -2.6500    1.6900   -0.4880 C   0  0  0  0  0  0  0  0  0  0  0  0
   -1.1790    1.4280   -0.5220 C   0  0  2  0  0  0  0  0  0  0  0  0
   -0.8310    0.8760   -1.7100 O   0  0  0  0  0  0  0  0  0  0  0  0
   -0.9310    0.4920    0.6920 C   0  0  2  0  0  0  0  0  0  0  0  0
    0.5280    0.4140    0.9340 C   0  0  0  0  0  0  0  0  0  0  0  0
    1.4060    0.3860   -0.1620 O   0  0  0  0  0  0  0  0  0  0  0  0
    2.6240   -0.0640    0.5080 C   0  0  1  0  0  0  0  0  0  0  0  0
    2.9400   -1.3640   -0.2320 C   0  0  0  0  0  0  0  0  0  0  0  0
    3.9800   -2.1290    0.4950 C   0  0  0  0  0  0  0  0  0  0  0  0
    3.2410   -2.9270    1.4950 O   0  0  0  0  0  0  0  0  0  0  0  0
    3.6840    0.9430    0.2620 C   0  0  2  0  0  0  0  0  0  0  0  0
    3.2680    2.2340    0.6270 O   0  0  0  0  0  0  0  0  0  0  0  0
    4.4280    0.9780   -1.0180 C   0  0  0  0  0  0  0  0  0  0  0  0
    5.0450   -0.2790   -1.1890 O   0  0  0  0  0  0  0  0  0  0  0  0
    6.4010    0.0050   -1.2150 O   0  0  0  0  0  0  0  0  0  0  0  0
   -1.4110   -0.7520    0.2880 O   0  0  0  0  0  0  0  0  0  0  0  0
   -2.6040   -0.8090   -0.3600 C   0  0  2  0  0  0  0  0  0  0  0  0
   -2.3540   -1.3250   -1.6790 O   0  0  0  0  0  0  0  0  0  0  0  0
  1  2  1  0
  2  3  1  0
  3  4  1  0
  4  5  1  6
  4  6  1  0
  4 22  1  0
  6  7  1  0
  7  8  1  6
  7  9  1  0
  9 10  1  6
  9 21  1  0
 10 11  1  0
 11 12  1  0
 12 13  1  6
 12 16  1  0
 13 14  1  0
 14 15  1  0
 16 17  1  6
 16 18  1  0
 18 19  1  0
 19 20  1  0
 21 22  1  0
 22 23  1  6
M  END
