
     RDKit          3D

 23 23  0  0  0  0  0  0  0  0999 V2000
   -4.3680   -1.4090   -1.0670 C   0  0  0  0  0  0  0  0  0  0  0  0
   -3.4250   -0.2310   -0.9790 C   0  0  1  0  0  0  0  0  0  0  0  0
   -4.1500    0.8800   -0.6700 O   0  0  0  0  0  0  0  0  0  0  0  0
   -3.4900    2.0600   -0.6220 C   0  0  0  0  0  0  0  0  0  0  0  0
   -2.1280    2.0910   -1.2180 C   0  0  0  0  0  0  0  0  0  0  0  0
   -1.1540    1.5450   -0.3520 O   0  0  0  0  0  0  0  0  0  0  0  0
   -1.0750    0.1650   -0.5550 C   0  0  1  0  0  0  0  0  0  0  0  0
    0.1770   -0.3440    0.0530 C   0  0  0  0  0  0  0  0  0  0  0  0
    0.4270   -1.5660   -0.0340 O   0  0  0  0  0  0  0  0  0  0  0  0
    1.0720    0.4650    0.7070 O   0  0  0  0  0  0  0  0  0  0  0  0
    2.2470   -0.1000    1.2520 C   0  0  2  0  0  0  0  0  0  0  0  0
    2.0380    0.0100    2.7860 C   0  0  0  0  0  0  0  0  0  0  0  0
    1.8840    1.3320    3.1630 O   0  0  0  0  0  0  0  0  0  0  0  0
    3.4020    0.7410    0.8380 C   0  0  1  0  0  0  0  0  0  0  0  0
    4.6350    0.3290    1.3290 O   0  0  0  0  0  0  0  0  0  0  0  0
    3.4910    0.8370   -0.6560 C   0  0  1  0  0  0  0  0  0  0  0  0
    4.4350    1.8460   -0.9510 O   0  0  0  0  0  0  0  0  0  0  0  0
    4.0270   -0.4360   -1.2780 C   0  0  0  0  0  0  0  0  0  0  0  0
    3.2560   -1.5430   -1.0980 O   0  0  0  0  0  0  0  0  0  0  0  0
   -2.3240   -0.4290    0.0290 C   0  0  1  0  0  0  0  0  0  0  0  0
   -2.6310    0.3380    1.1770 O   0  0  0  0  0  0  0  0  0  0  0  0
   -2.1810   -1.8430    0.4890 C   0  0  0  0  0  0  0  0  0  0  0  0
   -1.8790   -2.7460   -0.5000 O   0  0  0  0  0  0  0  0  0  0  0  0
  2  1  1  1
  2  3  1  0
  2 20  1  0
  3  4  1  0
  4  5  1  0
  5  6  1  0
  6  7  1  0
  7  8  1  1
  7 20  1  0
  8  9  2  0
  8 10  1  0
 10 11  1  0
 11 12  1  1
 11 14  1  0
 12 13  1  0
 14 15  1  6
 14 16  1  0
 16 17  1  1
 16 18  1  0
 18 19  1  0
 20 21  1  1
 20 22  1  0
 22 23  1  0
M  END
