
     RDKit          3D

 24 25  0  0  0  0  0  0  0  0999 V2000
   -3.3720    0.5810   -2.2970 C   0  0  0  0  0  0  0  0  0  0  0  0
   -3.1180    0.3780   -0.9660 O   0  0  0  0  0  0  0  0  0  0  0  0
   -2.0250   -0.4030   -0.6990 C   0  0  2  0  0  0  0  0  0  0  0  0
   -2.3960   -1.4490    0.1100 O   0  0  0  0  0  0  0  0  0  0  0  0
   -3.1170   -1.0600    1.2050 C   0  0  2  0  0  0  0  0  0  0  0  0
   -4.6050   -1.2780    0.8990 C   0  0  0  0  0  0  0  0  0  0  0  0
   -4.8600   -2.6200    0.6250 O   0  0  0  0  0  0  0  0  0  0  0  0
   -2.8720    0.2970    1.7270 C   0  0  2  0  0  0  0  0  0  0  0  0
   -3.9790    1.1200    1.4070 O   0  0  0  0  0  0  0  0  0  0  0  0
   -1.5930    0.9440    1.3350 C   0  0  2  0  0  0  0  0  0  0  0  0
   -1.8240    2.3200    1.2370 O   0  0  0  0  0  0  0  0  0  0  0  0
   -0.9710    0.3950    0.0770 C   0  0  1  0  0  0  0  0  0  0  0  0
    0.1410   -0.3290    0.3460 O   0  0  0  0  0  0  0  0  0  0  0  0
    1.3230    0.1160   -0.2060 C   0  0  1  0  0  0  0  0  0  0  0  0
    2.2130    0.5630    0.7310 O   0  0  0  0  0  0  0  0  0  0  0  0
    3.3450   -0.1850    0.9160 C   0  0  2  0  0  0  0  0  0  0  0  0
    4.2440    0.3360    2.0020 C   0  0  0  0  0  0  0  0  0  0  0  0
    4.6900    1.6310    1.7530 O   0  0  0  0  0  0  0  0  0  0  0  0
    4.1460   -0.3710   -0.3550 C   0  0  2  0  0  0  0  0  0  0  0  0
    5.1970    0.5300   -0.3700 O   0  0  0  0  0  0  0  0  0  0  0  0
    3.2910   -0.2580   -1.5880 C   0  0  2  0  0  0  0  0  0  0  0  0
    3.2620    0.9980   -2.1390 O   0  0  0  0  0  0  0  0  0  0  0  0
    1.9160   -0.7870   -1.2300 C   0  0  1  0  0  0  0  0  0  0  0  0
    2.1580   -2.0860   -0.7510 O   0  0  0  0  0  0  0  0  0  0  0  0
  1  2  1  0
  3  2  1  1
  3  4  1  0
  3 12  1  0
  4  5  1  0
  5  6  1  6
  5  8  1  0
  6  7  1  0
  8  9  1  6
  8 10  1  0
 10 11  1  6
 10 12  1  0
 12 13  1  1
 14 13  1  1
 14 15  1  0
 14 23  1  0
 15 16  1  0
 16 17  1  1
 16 19  1  0
 17 18  1  0
 19 20  1  6
 19 21  1  0
 21 22  1  1
 21 23  1  0
 23 24  1  1
M  END
