
     RDKit          3D

 23 23  0  0  0  0  0  0  0  0999 V2000
    3.3200    0.9440   -1.6700 C   0  0  0  0  0  0  0  0  0  0  0  0
    3.8020    0.9420   -0.4130 O   0  0  0  0  0  0  0  0  0  0  0  0
    2.9570    1.2520    0.6350 C   0  0  1  0  0  0  0  0  0  0  0  0
    2.4380    2.5020    0.4590 O   0  0  0  0  0  0  0  0  0  0  0  0
    2.1290    0.1780    1.1960 C   0  0  0  0  0  0  0  0  0  0  0  0
    1.1340   -0.5880    0.4090 C   0  0  1  0  0  0  0  0  0  0  0  0
    0.7000   -1.6500    1.5650 C   0  0  0  0  0  0  0  0  0  0  0  0
    1.9400   -2.2710    1.8530 O   0  0  0  0  0  0  0  0  0  0  0  0
   -0.1780    0.0630    0.0690 C   0  0  1  0  0  0  0  0  0  0  0  0
   -0.7820    0.2900    1.3430 O   0  0  0  0  0  0  0  0  0  0  0  0
   -0.1150    1.4480   -0.5090 C   0  0  0  0  0  0  0  0  0  0  0  0
   -1.4630    1.8710   -1.1380 C   0  0  0  0  0  0  0  0  0  0  0  0
   -1.7100    1.0070   -2.3090 C   0  0  2  0  0  0  0  0  0  0  0  0
   -3.0940    1.0570   -2.5940 O   0  0  0  0  0  0  0  0  0  0  0  0
   -1.2200   -0.3810   -2.1820 C   0  0  0  0  0  0  0  0  0  0  0  0
   -1.0610   -0.8460   -0.7400 C   0  0  1  0  0  0  0  0  0  0  0  0
   -0.4160   -2.0720   -0.8800 O   0  0  0  0  0  0  0  0  0  0  0  0
   -2.4240   -1.0870   -0.1820 C   0  0  0  0  0  0  0  0  0  0  0  0
   -2.4860   -1.6810    1.0500 O   0  0  0  0  0  0  0  0  0  0  0  0
   -3.7600   -1.8800    1.5160 C   0  0  0  0  0  0  0  0  0  0  0  0
   -4.4630   -0.6930    1.6440 O   0  0  0  0  0  0  0  0  0  0  0  0
    3.9980    1.4640    1.7030 O   0  0  0  0  0  0  0  0  0  0  0  0
    4.5850    0.2980    1.7340 O   0  0  0  0  0  0  0  0  0  0  0  0
  1  2  1  0
  2  3  1  0
  3  4  1  6
  3  5  1  0
  3 22  1  0
  6  5  1  1
  6  7  1  0
  6  9  1  0
  7  8  1  0
  9 10  1  1
  9 11  1  0
  9 16  1  0
 11 12  1  0
 12 13  1  0
 13 14  1  1
 13 15  1  0
 15 16  1  0
 16 17  1  6
 16 18  1  0
 18 19  1  0
 19 20  1  0
 20 21  1  0
 22 23  1  0
M  END
