
     RDKit          3D

 23 24  0  0  0  0  0  0  0  0999 V2000
   -2.3880   -0.8420   -1.1260 C   0  0  0  0  0  0  0  0  0  0  0  0
   -2.0360   -0.7900    0.3180 C   0  0  1  0  0  0  0  0  0  0  0  0
   -1.9180   -2.0770    1.0140 C   0  0  0  0  0  0  0  0  0  0  0  0
   -0.5800   -2.4810    1.1460 O   0  0  0  0  0  0  0  0  0  0  0  0
    0.1690   -2.1090    0.0180 C   0  0  2  0  0  0  0  0  0  0  0  0
    1.3670   -3.0080   -0.0660 C   0  0  0  0  0  0  0  0  0  0  0  0
    2.2940   -2.9800    1.0940 C   0  0  2  0  0  0  0  0  0  0  0  0
    1.6000   -3.3470    2.2450 O   0  0  0  0  0  0  0  0  0  0  0  0
    3.0310   -1.8440    1.2680 O   0  0  0  0  0  0  0  0  0  0  0  0
    0.4840   -0.6450    0.1760 C   0  0  1  0  0  0  0  0  0  0  0  0
    1.0910   -0.0510   -1.0280 C   0  0  0  0  0  0  0  0  0  0  0  0
    1.3220   -0.6940   -2.0790 O   0  0  0  0  0  0  0  0  0  0  0  0
    1.4230    1.2850   -1.0040 O   0  0  0  0  0  0  0  0  0  0  0  0
    2.0080    1.9820   -2.0820 C   0  0  0  0  0  0  0  0  0  0  0  0
    2.2000    3.4210   -1.6110 C   0  0  0  0  0  0  0  0  0  0  0  0
    2.7690    4.2200   -2.5800 O   0  0  0  0  0  0  0  0  0  0  0  0
   -0.7690    0.0170    0.6190 C   0  0  2  0  0  0  0  0  0  0  0  0
   -0.7940    0.1820    2.0250 O   0  0  0  0  0  0  0  0  0  0  0  0
   -1.1260    1.1980    0.0610 O   0  0  0  0  0  0  0  0  0  0  0  0
   -2.4720    1.3430    0.4030 C   0  0  2  0  0  0  0  0  0  0  0  0
   -2.5700    2.4420    1.4360 C   0  0  0  0  0  0  0  0  0  0  0  0
   -2.0820    3.6400    0.9230 O   0  0  0  0  0  0  0  0  0  0  0  0
   -2.9280    0.1300    0.9110 O   0  0  0  0  0  0  0  0  0  0  0  0
  2  1  1  6
  2  3  1  0
  2 17  1  0
  2 23  1  0
  3  4  1  0
  4  5  1  0
  5  6  1  1
  5 10  1  0
  6  7  1  0
  7  8  1  1
  7  9  1  0
 10 11  1  6
 10 17  1  0
 11 12  2  0
 11 13  1  0
 13 14  1  0
 14 15  1  0
 15 16  1  0
 17 18  1  1
 17 19  1  0
 19 20  1  0
 20 21  1  1
 20 23  1  0
 21 22  1  0
M  END
