
     RDKit          3D

 31 34  0  0  0  0  0  0  0  0999 V2000
   -7.9320    1.6500    1.2260 C   0  0  0  0  0  0  0  0  0  0  0  0
   -6.6280    0.9440    1.1340 C   0  0  0  0  0  0  0  0  0  0  0  0
   -5.4510    1.6170    0.8640 C   0  0  0  0  0  0  0  0  0  0  0  0
   -4.2360    0.9900    0.7740 C   0  0  0  0  0  0  0  0  0  0  0  0
   -2.9900    1.7170    0.4850 C   0  0  2  0  0  0  0  0  0  0  0  0
   -3.2640    3.2190    0.3180 C   0  0  0  0  0  0  0  0  0  0  0  0
   -2.3940    1.2860   -0.7630 N   0  0  0  0  0  0  0  0  0  0  0  0
   -1.0350    0.8270   -0.7620 C   0  0  0  0  0  0  0  0  0  0  0  0
   -0.4200    0.8180    0.3190 O   0  0  0  0  0  0  0  0  0  0  0  0
   -0.3880    0.3910   -1.9370 N   0  0  0  0  0  0  0  0  0  0  0  0
    0.9450   -0.0800   -2.0470 C   0  0  0  0  0  0  0  0  0  0  0  0
    1.8530   -0.2040   -1.0330 C   0  0  0  0  0  0  0  0  0  0  0  0
    3.1380   -0.6840   -1.2780 C   0  0  0  0  0  0  0  0  0  0  0  0
    4.0550   -0.7890   -0.1400 C   0  0  0  0  0  0  0  0  0  0  0  0
    3.8140   -0.4750    1.1380 N   0  0  0  0  0  0  0  0  0  0  0  0
    4.9100   -0.7090    1.8920 C   0  0  0  0  0  0  0  0  0  0  0  0
    5.8850   -1.1940    1.0460 C   0  0  0  0  0  0  0  0  0  0  0  0
    5.3250   -1.2270   -0.1790 N   0  0  0  0  0  0  0  0  0  0  0  0
    7.1390   -1.4840    1.7880 C   0  0  0  0  0  0  0  0  0  0  0  0
    6.9240   -0.7680    3.1040 C   0  0  0  0  0  0  0  0  0  0  0  0
    5.4250   -0.6340    3.2650 C   0  0  0  0  0  0  0  0  0  0  0  0
    3.5680   -1.0560   -2.5270 C   0  0  0  0  0  0  0  0  0  0  0  0
    2.6640   -0.9360   -3.5560 C   0  0  0  0  0  0  0  0  0  0  0  0
    3.0890   -1.3020   -4.7880 F   0  0  0  0  0  0  0  0  0  0  0  0
    1.3990   -0.4630   -3.3160 C   0  0  0  0  0  0  0  0  0  0  0  0
    0.4590   -0.3510   -4.4580 C   0  0  0  0  0  0  0  0  0  0  0  0
   -4.2130   -0.3740    0.9660 C   0  0  0  0  0  0  0  0  0  0  0  0
   -3.0480   -1.0600    0.8930 F   0  0  0  0  0  0  0  0  0  0  0  0
   -5.3630   -1.0940    1.2400 C   0  0  0  0  0  0  0  0  0  0  0  0
   -6.5810   -0.4210    1.3230 C   0  0  0  0  0  0  0  0  0  0  0  0
   -7.7450   -1.0590    1.5870 F   0  0  0  0  0  0  0  0  0  0  0  0
  1  2  1  0
  2  3  2  0
  2 30  1  0
  3  4  1  0
  4  5  1  0
  4 27  2  0
  5  6  1  6
  5  7  1  0
  7  8  1  0
  8  9  2  0
  8 10  1  0
 10 11  1  0
 11 12  2  0
 11 25  1  0
 12 13  1  0
 13 14  1  0
 13 22  2  0
 14 15  2  0
 14 18  1  0
 15 16  1  0
 16 17  2  0
 16 21  1  0
 17 18  1  0
 17 19  1  0
 19 20  1  0
 20 21  1  0
 22 23  1  0
 23 24  1  0
 23 25  2  0
 25 26  1  0
 27 28  1  0
 27 29  1  0
 29 30  2  0
 30 31  1  0
M  END
