
     RDKit          3D

 31 33  0  0  0  0  0  0  0  0999 V2000
   -4.8070    2.2660   -1.5660 N   0  0  0  0  0  0  0  0  0  0  0  0
   -5.7160    1.8740   -0.5930 C   0  0  0  0  0  0  0  0  0  0  0  0
   -6.5100    2.7970   -0.1720 O   0  0  0  0  0  0  0  0  0  0  0  0
   -5.8980    0.5800   -0.0010 C   0  0  0  0  0  0  0  0  0  0  0  0
   -7.1830    0.2740    0.5070 C   0  0  0  0  0  0  0  0  0  0  0  0
   -7.4990   -0.9160    1.0950 C   0  0  0  0  0  0  0  0  0  0  0  0
   -8.7280   -1.2040    1.5790 F   0  0  0  0  0  0  0  0  0  0  0  0
   -6.5160   -1.8750    1.2030 C   0  0  0  0  0  0  0  0  0  0  0  0
   -5.2720   -1.5920    0.7200 C   0  0  0  0  0  0  0  0  0  0  0  0
   -4.9320   -0.3780    0.1160 C   0  0  0  0  0  0  0  0  0  0  0  0
   -3.5260   -0.1690   -0.2800 C   0  0  0  0  0  0  0  0  0  0  0  0
   -2.9930    0.8410   -0.7030 O   0  0  0  0  0  0  0  0  0  0  0  0
   -2.6610   -1.2810   -0.1600 O   0  0  0  0  0  0  0  0  0  0  0  0
   -1.2950   -1.1770   -0.5160 C   0  0  0  0  0  0  0  0  0  0  0  0
   -0.5850   -0.1520    0.2830 C   0  0  0  0  0  0  0  0  0  0  0  0
   -1.0820    0.7060    1.1670 N   0  0  0  0  0  0  0  0  0  0  0  0
   -0.0970    1.4470    1.6560 C   0  0  0  0  0  0  0  0  0  0  0  0
    1.0730    1.0520    1.0660 C   0  0  0  0  0  0  0  0  0  0  0  0
    0.7480    0.0630    0.2210 N   0  0  0  0  0  0  0  0  0  0  0  0
    1.6550   -0.6600   -0.6340 C   0  0  0  0  0  0  0  0  0  0  0  0
    1.2020   -1.5920   -1.3770 O   0  0  0  0  0  0  0  0  0  0  0  0
    3.0730   -0.3960   -0.7050 C   0  0  0  0  0  0  0  0  0  0  0  0
    3.6470    0.8500   -0.7710 C   0  0  0  0  0  0  0  0  0  0  0  0
    5.0140    1.0540   -0.8180 C   0  0  0  0  0  0  0  0  0  0  0  0
    5.8350   -0.0480   -0.7990 C   0  0  0  0  0  0  0  0  0  0  0  0
    7.3100    0.0830   -0.8440 C   0  0  0  0  0  0  0  0  0  0  0  0
    7.8300    0.1750    0.5790 C   0  0  0  0  0  0  0  0  0  0  0  0
    7.4000   -1.2720    1.4910 Cl  0  0  0  0  0  0  0  0  0  0  0  0
    5.2890   -1.3330   -0.7330 C   0  0  0  0  0  0  0  0  0  0  0  0
    3.9420   -1.4920   -0.6880 C   0  0  0  0  0  0  0  0  0  0  0  0
    3.4120   -2.7450   -0.6240 F   0  0  0  0  0  0  0  0  0  0  0  0
  1  2  1  0
  2  3  2  0
  2  4  1  0
  4  5  2  0
  4 10  1  0
  5  6  1  0
  6  7  1  0
  6  8  2  0
  8  9  1  0
  9 10  2  0
 10 11  1  0
 11 12  2  0
 11 13  1  0
 13 14  1  0
 14 15  1  0
 15 16  2  0
 15 19  1  0
 16 17  1  0
 17 18  2  0
 18 19  1  0
 19 20  1  0
 20 21  2  0
 20 22  1  0
 22 23  2  0
 22 30  1  0
 23 24  1  0
 24 25  2  0
 25 26  1  0
 25 29  1  0
 26 27  1  0
 27 28  1  0
 29 30  2  0
 30 31  1  0
M  END
