
     RDKit          3D

 31 34  0  0  0  0  0  0  0  0999 V2000
    1.4480   -1.9690    0.7020 O   0  0  0  0  0  0  0  0  0  0  0  0
    2.2010   -0.9720    0.4250 C   0  0  0  0  0  0  0  0  0  0  0  0
    3.0760   -0.5530    1.4590 N   0  0  0  0  0  0  0  0  0  0  0  0
    4.2670    0.2280    1.2110 C   0  0  0  0  0  0  0  0  0  0  0  0
    4.8390    0.7990    2.2440 C   0  0  0  0  0  0  0  0  0  0  0  0
    6.0570    1.6300    2.1800 C   0  0  0  0  0  0  0  0  0  0  0  0
    5.8320    2.9160    2.6430 F   0  0  0  0  0  0  0  0  0  0  0  0
    4.9290    0.4660   -0.1040 C   0  0  0  0  0  0  0  0  0  0  0  0
    4.4280   -0.4020   -1.1190 N   0  0  0  0  0  0  0  0  0  0  0  0
    3.2330   -0.0560   -1.7700 C   0  0  0  0  0  0  0  0  0  0  0  0
    2.0210   -0.4460   -0.9190 C   0  0  0  0  0  0  0  0  0  0  0  0
    0.8690   -0.2390   -1.4430 C   0  0  0  0  0  0  0  0  0  0  0  0
   -0.4980   -0.3440   -1.1240 C   0  0  0  0  0  0  0  0  0  0  0  0
   -1.4090   -0.0850   -2.1050 C   0  0  0  0  0  0  0  0  0  0  0  0
   -2.8250   -0.1250   -2.0060 C   0  0  0  0  0  0  0  0  0  0  0  0
   -3.6200   -0.8730   -2.8890 C   0  0  0  0  0  0  0  0  0  0  0  0
   -4.9010   -0.6770   -2.5570 N   0  0  0  0  0  0  0  0  0  0  0  0
   -4.9940    0.1520   -1.5150 C   0  0  0  0  0  0  0  0  0  0  0  0
   -6.0630    0.6610   -0.8300 C   0  0  0  0  0  0  0  0  0  0  0  0
   -5.8820    1.5090    0.1920 N   0  0  0  0  0  0  0  0  0  0  0  0
   -4.6510    1.8820    0.5680 C   0  0  0  0  0  0  0  0  0  0  0  0
   -3.5640    1.3670   -0.1260 C   0  0  0  0  0  0  0  0  0  0  0  0
   -3.6930    0.5010   -1.1670 C   0  0  0  0  0  0  0  0  0  0  0  0
   -1.0760   -0.7380    0.1260 C   0  0  0  0  0  0  0  0  0  0  0  0
   -2.1220   -1.6760    0.1790 C   0  0  0  0  0  0  0  0  0  0  0  0
   -2.8120   -1.9820    1.3220 C   0  0  0  0  0  0  0  0  0  0  0  0
   -3.8120   -2.8970    1.3080 F   0  0  0  0  0  0  0  0  0  0  0  0
   -2.4890   -1.3550    2.5020 C   0  0  0  0  0  0  0  0  0  0  0  0
   -1.4790   -0.4340    2.5010 C   0  0  0  0  0  0  0  0  0  0  0  0
   -0.7910   -0.1320    1.3420 C   0  0  0  0  0  0  0  0  0  0  0  0
    0.1370    0.8450    1.4180 F   0  0  0  0  0  0  0  0  0  0  0  0
  1  2  2  0
  2  3  1  0
  2 11  1  0
  3  4  1  0
  4  5  2  3
  4  8  1  0
  5  6  1  0
  6  7  1  0
  8  9  1  0
  9 10  1  0
 10 11  1  0
 11 12  2  3
 12 13  1  0
 13 14  2  3
 13 24  1  0
 14 15  1  0
 15 16  2  0
 15 23  1  0
 16 17  1  0
 17 18  1  0
 18 19  2  0
 18 23  1  0
 19 20  1  0
 20 21  2  0
 21 22  1  0
 22 23  2  0
 24 25  2  0
 24 30  1  0
 25 26  1  0
 26 27  1  0
 26 28  2  0
 28 29  1  0
 29 30  2  0
 30 31  1  0
M  END
