
     RDKit          3D

 31 34  0  0  0  0  0  0  0  0999 V2000
   -7.0590    2.3900    2.5130 C   0  0  0  0  0  0  0  0  0  0  0  0
   -6.2000    2.5940    1.2930 C   0  0  0  0  0  0  0  0  0  0  0  0
   -5.5900    1.5500    0.7990 C   0  0  0  0  0  0  0  0  0  0  0  0
   -5.6250    0.2080    1.2660 N   0  0  0  0  0  0  0  0  0  0  0  0
   -4.8920   -0.5220    0.5090 C   0  0  0  0  0  0  0  0  0  0  0  0
   -4.7080   -1.9230    0.7000 N   0  0  0  0  0  0  0  0  0  0  0  0
   -5.1110   -2.5350    1.9440 C   0  0  0  0  0  0  0  0  0  0  0  0
   -4.3080    0.3250   -0.5430 C   0  0  0  0  0  0  0  0  0  0  0  0
   -3.4390   -0.1030   -1.5790 N   0  0  0  0  0  0  0  0  0  0  0  0
   -2.0390   -0.2310   -1.3440 C   0  0  0  0  0  0  0  0  0  0  0  0
   -1.5370    0.0650   -0.0940 C   0  0  0  0  0  0  0  0  0  0  0  0
   -0.1680   -0.0740    0.0910 C   0  0  0  0  0  0  0  0  0  0  0  0
    0.3150    0.2220    1.3300 F   0  0  0  0  0  0  0  0  0  0  0  0
    0.6730   -0.4870   -0.9130 C   0  0  0  0  0  0  0  0  0  0  0  0
    2.0630   -0.6040   -0.6420 N   0  0  0  0  0  0  0  0  0  0  0  0
    2.9770    0.4630   -0.8280 C   0  0  0  0  0  0  0  0  0  0  0  0
    2.5250    1.5530   -1.2490 O   0  0  0  0  0  0  0  0  0  0  0  0
    4.4150    0.2910   -0.5310 C   0  0  0  0  0  0  0  0  0  0  0  0
    5.4150    1.2090   -0.6540 C   0  0  0  0  0  0  0  0  0  0  0  0
    6.6200    0.6410   -0.2720 C   0  0  0  0  0  0  0  0  0  0  0  0
    7.9220    1.0390   -0.1790 C   0  0  0  0  0  0  0  0  0  0  0  0
    8.8940    0.1660    0.2610 C   0  0  0  0  0  0  0  0  0  0  0  0
    8.5730   -1.1320    0.6190 C   0  0  0  0  0  0  0  0  0  0  0  0
    7.2600   -1.5520    0.5320 C   0  0  0  0  0  0  0  0  0  0  0  0
    6.3140   -0.6520    0.0870 C   0  0  0  0  0  0  0  0  0  0  0  0
    4.9940   -0.8320   -0.0780 N   0  0  0  0  0  0  0  0  0  0  0  0
    0.1110   -0.7690   -2.1410 C   0  0  0  0  0  0  0  0  0  0  0  0
    0.8990   -1.1840   -3.1760 F   0  0  0  0  0  0  0  0  0  0  0  0
   -1.2390   -0.6490   -2.3830 C   0  0  0  0  0  0  0  0  0  0  0  0
   -4.7210    1.5670   -0.3770 C   0  0  0  0  0  0  0  0  0  0  0  0
   -4.4150    2.6380   -1.1240 F   0  0  0  0  0  0  0  0  0  0  0  0
  1  2  1  0
  2  3  2  3
  3  4  1  0
  3 30  1  0
  4  5  2  0
  5  6  1  0
  5  8  1  0
  6  7  1  0
  8  9  1  0
  8 30  2  0
  9 10  1  0
 10 11  2  0
 10 29  1  0
 11 12  1  0
 12 13  1  0
 12 14  2  0
 14 15  1  0
 14 27  1  0
 15 16  1  0
 16 17  2  0
 16 18  1  0
 18 19  2  0
 18 26  1  0
 19 20  1  0
 20 21  2  0
 20 25  1  0
 21 22  1  0
 22 23  2  0
 23 24  1  0
 24 25  2  0
 25 26  1  0
 27 28  1  0
 27 29  2  0
 30 31  1  0
M  END
