
     RDKit          3D

 31 33  0  0  0  0  0  0  0  0999 V2000
   -4.9490   -0.8360    2.0020 C   0  0  0  0  0  0  0  0  0  0  0  0
   -4.9600   -0.3970    0.5570 C   0  0  0  0  0  0  0  0  0  0  0  0
   -4.6020    0.9400    0.3210 N   0  0  0  0  0  0  0  0  0  0  0  0
   -5.7970    1.8810    0.3330 C   0  0  0  0  0  0  0  0  0  0  0  0
   -6.2440    1.8980   -1.1100 C   0  0  0  0  0  0  0  0  0  0  0  0
   -7.3500    2.7240   -1.2970 O   0  0  0  0  0  0  0  0  0  0  0  0
   -3.3870    1.5380    0.0960 C   0  0  0  0  0  0  0  0  0  0  0  0
   -3.5250    2.8970   -0.1680 O   0  0  0  0  0  0  0  0  0  0  0  0
   -2.0550    1.1340    0.0660 C   0  0  0  0  0  0  0  0  0  0  0  0
   -1.2820    0.0760    0.2380 C   0  0  0  0  0  0  0  0  0  0  0  0
   -1.9280   -1.4680    0.6560 Cl  0  0  0  0  0  0  0  0  0  0  0  0
    0.1280    0.2530   -0.0310 C   0  0  0  0  0  0  0  0  0  0  0  0
    1.1310   -0.5310    0.0650 C   0  0  0  0  0  0  0  0  0  0  0  0
    2.4950   -0.0700   -0.3050 N   0  0  0  0  0  0  0  0  0  0  0  0
    3.2940   -1.0340   -0.1180 C   0  0  0  0  0  0  0  0  0  0  0  0
    4.6770   -0.9750   -0.3590 C   0  0  0  0  0  0  0  0  0  0  0  0
    5.3280    0.2280   -0.8590 C   0  0  0  0  0  0  0  0  0  0  0  0
    6.6640    0.4100   -1.1340 C   0  0  0  0  0  0  0  0  0  0  0  0
    6.8200    1.6370   -1.5610 O   0  0  0  0  0  0  0  0  0  0  0  0
    5.6830    2.2810   -1.5900 C   0  0  0  0  0  0  0  0  0  0  0  0
    5.4770    3.7030   -2.0240 C   0  0  0  0  0  0  0  0  0  0  0  0
    4.7490    1.4120   -1.1550 N   0  0  0  0  0  0  0  0  0  0  0  0
    5.3930   -2.1140   -0.1000 C   0  0  0  0  0  0  0  0  0  0  0  0
    4.7830   -3.2530    0.3710 C   0  0  0  0  0  0  0  0  0  0  0  0
    3.4010   -3.2720    0.5990 C   0  0  0  0  0  0  0  0  0  0  0  0
    2.6540   -2.1500    0.3530 C   0  0  0  0  0  0  0  0  0  0  0  0
    1.3380   -1.8940    0.4900 C   0  0  0  0  0  0  0  0  0  0  0  0
    0.4250   -2.8180    0.9690 O   0  0  0  0  0  0  0  0  0  0  0  0
    0.3090   -3.1730    2.3530 C   0  0  1  0  0  0  0  0  0  0  0  0
    1.4500   -3.7090    2.8260 F   0  0  0  0  0  0  0  0  0  0  0  0
   -0.0660   -2.0760    3.1320 F   0  0  0  0  0  0  0  0  0  0  0  0
  1  2  1  0
  2  3  1  0
  3  4  1  0
  3  7  1  0
  4  5  1  0
  5  6  1  0
  7  8  2  0
  7  9  1  0
  9 10  2  3
 10 11  1  0
 10 12  1  0
 12 13  2  3
 13 14  1  0
 13 27  1  0
 14 15  2  0
 15 16  1  0
 15 26  1  0
 16 17  1  0
 16 23  2  0
 17 18  2  0
 17 22  1  0
 18 19  1  0
 19 20  1  0
 20 21  1  0
 20 22  2  0
 23 24  1  0
 24 25  2  0
 25 26  1  0
 26 27  2  0
 27 28  1  0
 28 29  1  0
 29 30  1  1
 29 31  1  0
M  END
