
     RDKit          3D

 31 34  0  0  0  0  0  0  0  0999 V2000
    3.6640    3.5880   -0.6590 C   0  0  0  0  0  0  0  0  0  0  0  0
    2.7600    2.4130   -0.4560 C   0  0  0  0  0  0  0  0  0  0  0  0
    1.5590    2.3800   -0.8310 N   0  0  0  0  0  0  0  0  0  0  0  0
    3.3690    1.2070    0.1490 C   0  0  0  0  0  0  0  0  0  0  0  0
    4.6430    1.2240    0.6910 C   0  0  0  0  0  0  0  0  0  0  0  0
    5.2460    0.0930    1.1570 C   0  0  0  0  0  0  0  0  0  0  0  0
    4.5630   -1.0990    1.0830 C   0  0  0  0  0  0  0  0  0  0  0  0
    5.1940   -2.2660    1.4980 C   0  0  0  0  0  0  0  0  0  0  0  0
    4.5810   -3.4780    1.3850 C   0  0  0  0  0  0  0  0  0  0  0  0
    3.3060   -3.5380    0.8560 C   0  0  0  0  0  0  0  0  0  0  0  0
    2.6620   -2.3610    0.4410 C   0  0  0  0  0  0  0  0  0  0  0  0
    1.2520   -2.4710    0.0040 C   0  0  0  0  0  0  0  0  0  0  0  0
    0.9670   -3.5270   -0.6040 O   0  0  0  0  0  0  0  0  0  0  0  0
    0.2710   -1.5260    0.2290 N   0  0  0  0  0  0  0  0  0  0  0  0
   -0.8760   -1.2640   -0.1890 C   0  0  0  0  0  0  0  0  0  0  0  0
   -1.5380   -2.0210   -1.1680 N   0  0  0  0  0  0  0  0  0  0  0  0
   -2.8550   -1.8620   -1.7610 C   0  0  0  0  0  0  0  0  0  0  0  0
   -3.9020   -1.6810   -0.6660 C   0  0  0  0  0  0  0  0  0  0  0  0
   -3.8410   -0.2540   -0.2300 C   0  0  0  0  0  0  0  0  0  0  0  0
   -5.0530    0.3790   -0.3620 C   0  0  0  0  0  0  0  0  0  0  0  0
   -5.1540    1.6850    0.0080 C   0  0  0  0  0  0  0  0  0  0  0  0
   -6.4990    2.3350   -0.1630 C   0  0  2  0  0  0  0  0  0  0  0  0
   -7.4760    1.4230    0.1620 F   0  0  0  0  0  0  0  0  0  0  0  0
   -6.5940    2.6320   -1.5130 F   0  0  0  0  0  0  0  0  0  0  0  0
   -6.6280    3.4610    0.6040 F   0  0  0  0  0  0  0  0  0  0  0  0
   -4.0840    2.4100    0.5170 C   0  0  0  0  0  0  0  0  0  0  0  0
   -2.8870    1.7750    0.6450 C   0  0  0  0  0  0  0  0  0  0  0  0
   -2.7500    0.4510    0.2790 C   0  0  0  0  0  0  0  0  0  0  0  0
   -1.4550   -0.0980    0.4520 N   0  0  0  0  0  0  0  0  0  0  0  0
    3.2740   -1.1370    0.5420 C   0  0  0  0  0  0  0  0  0  0  0  0
    2.6880    0.0240    0.0770 C   0  0  0  0  0  0  0  0  0  0  0  0
  1  2  1  0
  2  3  2  0
  2  4  1  0
  4  5  2  0
  4 31  1  0
  5  6  1  0
  6  7  2  0
  7  8  1  0
  7 30  1  0
  8  9  2  0
  9 10  1  0
 10 11  2  0
 11 12  1  0
 11 30  1  0
 12 13  2  0
 12 14  1  0
 14 15  2  3
 15 16  1  0
 15 29  1  0
 16 17  1  0
 17 18  1  0
 18 19  1  0
 19 20  2  0
 19 28  1  0
 20 21  1  0
 21 22  1  0
 21 26  2  0
 22 23  1  1
 22 24  1  0
 22 25  1  0
 26 27  1  0
 27 28  2  0
 28 29  1  0
 30 31  2  0
M  END
