
     RDKit          3D

 30 32  0  0  0  0  0  0  0  0999 V2000
   -5.7320    0.2470   -0.2360 C   0  0  0  0  0  0  0  0  0  0  0  0
   -4.8100   -0.0920    0.9060 C   0  0  2  0  0  0  0  0  0  0  0  0
   -3.4460    0.3550    0.6210 C   0  0  0  0  0  0  0  0  0  0  0  0
   -3.1780    1.0660   -0.5180 C   0  0  0  0  0  0  0  0  0  0  0  0
   -1.9160    1.5070   -0.8520 C   0  0  0  0  0  0  0  0  0  0  0  0
   -0.8250    1.2390   -0.0150 C   0  0  0  0  0  0  0  0  0  0  0  0
    0.4640    1.6900   -0.3740 N   0  0  0  0  0  0  0  0  0  0  0  0
    0.7830    3.0710   -0.8180 C   0  0  0  0  0  0  0  0  0  0  0  0
    1.7620    2.7860   -1.9310 C   0  0  0  0  0  0  0  0  0  0  0  0
    2.5060    1.5700   -1.4860 C   0  0  2  0  0  0  0  0  0  0  0  0
    2.6890    0.6170   -2.5680 N   0  0  0  0  0  0  0  0  0  0  0  0
    4.3150    0.2620   -2.9120 S   0  0  1  0  0  0  0  0  0  0  0  0
    4.3120   -0.7090   -4.0870 O   0  0  0  0  0  0  0  0  0  0  0  0
    4.9910    1.5110   -3.4290 O   0  0  0  0  0  0  0  0  0  0  0  0
    5.2070   -0.4570   -1.6170 C   0  0  0  0  0  0  0  0  0  0  0  0
    4.6960   -1.3330   -0.7850 C   0  0  0  0  0  0  0  0  0  0  0  0
    5.5130   -1.9140    0.3070 C   0  0  0  0  0  0  0  0  0  0  0  0
    6.8090   -1.6860    0.6080 C   0  0  0  0  0  0  0  0  0  0  0  0
    7.3620   -2.3200    1.6520 C   0  0  0  0  0  0  0  0  0  0  0  0
    6.5590   -3.1890    2.3750 C   0  0  0  0  0  0  0  0  0  0  0  0
    6.9170   -4.1890    3.7890 Cl  0  0  0  0  0  0  0  0  0  0  0  0
    4.9870   -3.0600    1.5020 S   0  0  0  0  0  0  0  0  0  0  0  0
    1.6910    0.9740   -0.4190 C   0  0  0  0  0  0  0  0  0  0  0  0
    1.9180    0.0140    0.3750 O   0  0  0  0  0  0  0  0  0  0  0  0
   -1.1060    0.5230    1.1310 C   0  0  0  0  0  0  0  0  0  0  0  0
   -0.0830    0.2310    1.9880 F   0  0  0  0  0  0  0  0  0  0  0  0
   -2.3750    0.0820    1.4610 C   0  0  0  0  0  0  0  0  0  0  0  0
   -4.8950   -1.4560    1.3360 N   0  0  2  0  0  0  0  0  0  0  0  0
   -5.8840   -2.1510    0.5370 C   0  0  0  0  0  0  0  0  0  0  0  0
   -5.3380   -1.5320    2.7120 C   0  0  0  0  0  0  0  0  0  0  0  0
  2  1  1  6
  2  3  1  0
  2 28  1  0
  3  4  2  0
  3 27  1  0
  4  5  1  0
  5  6  2  0
  6  7  1  0
  6 25  1  0
  7  8  1  0
  7 23  1  0
  8  9  1  0
  9 10  1  0
 10 11  1  6
 10 23  1  0
 12 11  1  1
 12 13  2  0
 12 14  2  0
 12 15  1  0
 15 16  2  3
 16 17  1  0
 17 18  2  0
 17 22  1  0
 18 19  1  0
 19 20  2  0
 20 21  1  0
 20 22  1  0
 23 24  2  0
 25 26  1  0
 25 27  2  0
 28 29  1  6
 28 30  1  0
M  CHG  1  28   1
M  END
