
     RDKit          3D

 30 30  0  0  0  0  0  0  0  0999 V2000
    5.0820    1.4120    1.2370 C   0  0  0  0  0  0  0  0  0  0  0  0
    4.6820    0.8210    0.1690 N   0  0  0  0  0  0  0  0  0  0  0  0
    3.6550    1.3200   -0.6690 C   0  0  0  0  0  0  0  0  0  0  0  0
    3.8040    2.5980   -1.0450 C   0  0  0  0  0  0  0  0  0  0  0  0
    2.5070    0.5780   -1.1740 C   0  0  0  0  0  0  0  0  0  0  0  0
    1.6030    0.0970   -0.1890 N   0  0  0  0  0  0  0  0  0  0  0  0
    2.1910   -0.9470    0.6110 C   0  0  0  0  0  0  0  0  0  0  0  0
    2.4800   -2.2180   -0.1820 C   0  0  0  0  0  0  0  0  0  0  0  0
    0.3080   -0.2640   -0.7160 C   0  0  1  0  0  0  0  0  0  0  0  0
    0.4800   -0.2510   -2.1190 F   0  0  0  0  0  0  0  0  0  0  0  0
   -0.1550   -1.6230   -0.3610 C   0  0  0  0  0  0  0  0  0  0  0  0
   -0.6530   -1.9410    0.7660 C   0  0  0  0  0  0  0  0  0  0  0  0
   -1.8140   -1.9910    1.1930 N   0  0  0  0  0  0  0  0  0  0  0  0
   -2.7280   -3.1030    1.1200 C   0  0  0  0  0  0  0  0  0  0  0  0
   -3.0860   -3.7420    2.2470 C   0  0  0  0  0  0  0  0  0  0  0  0
   -3.2960   -3.5640   -0.1490 C   0  0  0  0  0  0  0  0  0  0  0  0
   -4.0530   -2.8790   -0.9870 C   0  0  0  0  0  0  0  0  0  0  0  0
   -4.5330   -1.5270   -0.9160 C   0  0  0  0  0  0  0  0  0  0  0  0
   -3.9350   -0.3960   -1.2060 C   0  0  0  0  0  0  0  0  0  0  0  0
   -2.5250   -0.2440   -1.7140 C   0  0  0  0  0  0  0  0  0  0  0  0
   -1.8940    0.8080   -0.8840 C   0  0  0  0  0  0  0  0  0  0  0  0
   -0.6540    0.8130   -0.4410 C   0  0  0  0  0  0  0  0  0  0  0  0
   -0.2310    1.9850    0.3660 C   0  0  0  0  0  0  0  0  0  0  0  0
    0.9200    2.0810    0.8410 O   0  0  0  0  0  0  0  0  0  0  0  0
   -1.1060    3.0230    0.6230 O   0  0  0  0  0  0  0  0  0  0  0  0
   -0.7840    4.1470    1.3610 C   0  0  0  0  0  0  0  0  0  0  0  0
    0.3820    4.2520    1.8450 O   0  0  0  0  0  0  0  0  0  0  0  0
   -1.6670    5.1780    1.6030 O   0  0  0  0  0  0  0  0  0  0  0  0
   -1.3930    6.2710    2.3100 O   0  0  0  0  0  0  0  0  0  0  0  0
   -2.8700    7.0590    2.6510 Cl  0  0  0  0  0  0  0  0  0  0  0  0
  1  2  2  0
  2  3  1  0
  3  4  2  0
  3  5  1  0
  5  6  1  0
  6  7  1  0
  6  9  1  0
  7  8  1  0
  9 10  1  6
  9 11  1  0
  9 22  1  0
 11 12  2  0
 12 13  2  0
 13 14  1  0
 14 15  2  0
 14 16  1  0
 16 17  2  0
 17 18  1  0
 18 19  2  0
 19 20  1  0
 20 21  1  0
 21 22  2  0
 22 23  1  0
 23 24  2  0
 23 25  1  0
 25 26  1  0
 26 27  2  0
 26 28  1  0
 28 29  1  0
 29 30  1  0
M  CHG  1   2   1
M  END
