
     RDKit          3D

 30 33  0  0  0  0  0  0  0  0999 V2000
   -3.2030    3.3720   -2.0980 C   0  0  0  0  0  0  0  0  0  0  0  0
   -2.2930    2.4280   -2.1660 C   0  0  0  0  0  0  0  0  0  0  0  0
   -1.1430    2.4950   -3.4750 Cl  0  0  0  0  0  0  0  0  0  0  0  0
   -2.2790    1.3760   -1.1590 C   0  0  0  0  0  0  0  0  0  0  0  0
   -1.3890    0.3940   -1.1700 C   0  0  0  0  0  0  0  0  0  0  0  0
   -1.2530   -0.6790   -0.2850 N   0  0  0  0  0  0  0  0  0  0  0  0
   -2.0760   -1.1650    0.6250 C   0  0  0  0  0  0  0  0  0  0  0  0
   -3.4910   -0.9630    0.8590 C   0  0  0  0  0  0  0  0  0  0  0  0
   -3.9570   -1.1360    2.1630 C   0  0  0  0  0  0  0  0  0  0  0  0
   -5.2920   -1.0740    2.4610 C   0  0  0  0  0  0  0  0  0  0  0  0
   -6.2030   -0.8370    1.4610 C   0  0  0  0  0  0  0  0  0  0  0  0
   -7.5720   -0.7720    1.7630 O   0  0  0  0  0  0  0  0  0  0  0  0
   -5.7370   -0.6740    0.2170 N   0  0  0  0  0  0  0  0  0  0  0  0
   -4.4460   -0.7270   -0.1160 C   0  0  0  0  0  0  0  0  0  0  0  0
   -1.3520   -2.0330    1.4400 N   0  0  0  0  0  0  0  0  0  0  0  0
   -0.1180   -2.0500    0.9880 N   0  0  0  0  0  0  0  0  0  0  0  0
   -0.0160   -1.2350   -0.0750 C   0  0  0  0  0  0  0  0  0  0  0  0
    1.2000   -0.9820   -0.7950 C   0  0  0  0  0  0  0  0  0  0  0  0
    2.3380   -0.5400   -0.0990 C   0  0  0  0  0  0  0  0  0  0  0  0
    3.5530   -0.3370   -0.7080 C   0  0  0  0  0  0  0  0  0  0  0  0
    4.7200    0.1310    0.0760 C   0  0  0  0  0  0  0  0  0  0  0  0
    5.9390    0.3690   -0.3640 C   0  0  0  0  0  0  0  0  0  0  0  0
    6.8170    0.8240    0.7400 C   0  0  0  0  0  0  0  0  0  0  0  0
    5.9000    0.8120    1.9060 C   0  0  0  0  0  0  0  0  0  0  0  0
    4.7180    0.4130    1.4880 C   0  0  0  0  0  0  0  0  0  0  0  0
    3.7130   -0.5580   -2.0250 N   0  0  0  0  0  0  0  0  0  0  0  0
    2.6530   -0.9820   -2.7250 C   0  0  0  0  0  0  0  0  0  0  0  0
    2.8180   -1.1860   -3.9630 O   0  0  0  0  0  0  0  0  0  0  0  0
    1.4220   -1.1950   -2.1350 C   0  0  0  0  0  0  0  0  0  0  0  0
    0.1250   -1.8650   -3.1230 Cl  0  0  0  0  0  0  0  0  0  0  0  0
  1  2  2  0
  2  3  1  0
  2  4  1  0
  4  5  2  3
  5  6  1  0
  6  7  1  0
  6 17  1  0
  7  8  1  0
  7 15  2  0
  8  9  2  0
  8 14  1  0
  9 10  1  0
 10 11  2  0
 11 12  1  0
 11 13  1  0
 13 14  2  0
 15 16  1  0
 16 17  2  0
 17 18  1  0
 18 19  1  0
 18 29  2  0
 19 20  2  0
 20 21  1  0
 20 26  1  0
 21 22  2  0
 21 25  1  0
 22 23  1  0
 23 24  1  0
 24 25  2  0
 26 27  1  0
 27 28  2  0
 27 29  1  0
 29 30  1  0
M  END
