
     RDKit          3D

 30 31  0  0  0  0  0  0  0  0999 V2000
   -1.6060    5.8720   -1.0530 C   0  0  0  0  0  0  0  0  0  0  0  0
   -1.0450    4.5720   -0.4700 C   0  0  0  0  0  0  0  0  0  0  0  0
   -1.6350    3.5360   -1.1490 O   0  0  0  0  0  0  0  0  0  0  0  0
   -1.2880    2.3440   -0.8010 O   0  0  0  0  0  0  0  0  0  0  0  0
   -2.2690    1.6310   -0.0970 C   0  0  1  0  0  0  0  0  0  0  0  0
   -2.5960    2.6100    1.3880 Cl  0  0  0  0  0  0  0  0  0  0  0  0
   -3.5680    1.6810   -0.8750 C   0  0  0  0  0  0  0  0  0  0  0  0
   -3.5010    1.1610   -2.1310 F   0  0  0  0  0  0  0  0  0  0  0  0
   -1.8090    0.2910    0.2720 C   0  0  0  0  0  0  0  0  0  0  0  0
   -0.6110    0.0300    1.0980 C   0  0  0  0  0  0  0  0  0  0  0  0
    0.6670    0.3720    0.6630 N   0  0  0  0  0  0  0  0  0  0  0  0
    1.0470    1.7250    0.7080 C   0  0  0  0  0  0  0  0  0  0  0  0
    0.9720   -0.2820   -0.5970 C   0  0  0  0  0  0  0  0  0  0  0  0
    2.3230    0.0340   -1.1550 C   0  0  0  0  0  0  0  0  0  0  0  0
    3.3990   -0.3530   -0.2650 N   0  0  1  0  0  0  0  0  0  0  0  0
    3.6210   -1.7730   -0.4420 C   0  0  0  0  0  0  0  0  0  0  0  0
    4.5700    0.4330   -0.5540 C   0  0  2  0  0  0  0  0  0  0  0  0
    5.6380   -0.3270   -1.2860 C   0  0  0  0  0  0  0  0  0  0  0  0
    5.1880    1.0270    0.6930 C   0  0  0  0  0  0  0  0  0  0  0  0
   -2.5290   -0.7810   -0.1070 C   0  0  0  0  0  0  0  0  0  0  0  0
   -3.7110   -0.8720   -0.8300 O   0  0  0  0  0  0  0  0  0  0  0  0
   -4.4070   -1.9030   -0.3650 O   0  0  0  0  0  0  0  0  0  0  0  0
   -3.5620   -2.7550    0.2870 C   0  0  1  0  0  0  0  0  0  0  0  0
   -3.9370   -2.8600    1.7120 C   0  0  0  0  0  0  0  0  0  0  0  0
   -3.2470   -3.7260    2.6920 C   0  0  0  0  0  0  0  0  0  0  0  0
   -4.8750   -2.1900    2.1030 O   0  0  0  0  0  0  0  0  0  0  0  0
   -3.2880   -4.0620   -0.3590 C   0  0  0  0  0  0  0  0  0  0  0  0
   -1.9010   -4.3550    0.0590 C   0  0  0  0  0  0  0  0  0  0  0  0
   -1.3160   -3.1960    0.3510 C   0  0  0  0  0  0  0  0  0  0  0  0
   -2.2220   -2.1330    0.1580 N   0  0  0  0  0  0  0  0  0  0  0  0
  1  2  1  0
  2  3  1  0
  3  4  1  0
  4  5  1  0
  5  6  1  1
  5  7  1  0
  5  9  1  0
  7  8  1  0
  9 10  1  0
  9 20  2  3
 10 11  1  0
 11 12  1  0
 11 13  1  0
 13 14  1  0
 14 15  1  0
 15 16  1  6
 15 17  1  0
 17 18  1  1
 17 19  1  0
 20 21  1  0
 20 30  1  0
 21 22  1  0
 22 23  1  0
 23 24  1  1
 23 27  1  0
 23 30  1  0
 24 25  1  0
 24 26  2  0
 27 28  1  0
 28 29  2  0
 29 30  1  0
M  CHG  1  15   1
M  END
