
     RDKit          3D

 30 32  0  0  0  0  0  0  0  0999 V2000
   -4.4210   -2.7340   -0.3160 C   0  0  0  0  0  0  0  0  0  0  0  0
   -5.0210   -1.7970    0.6060 C   0  0  0  0  0  0  0  0  0  0  0  0
   -4.8370   -0.4310    0.5580 C   0  0  0  0  0  0  0  0  0  0  0  0
   -5.5420    0.2280    1.5950 C   0  0  0  0  0  0  0  0  0  0  0  0
   -5.6350    1.4500    1.9350 C   0  0  0  0  0  0  0  0  0  0  0  0
   -6.6590    1.9150    3.3410 Cl  0  0  0  0  0  0  0  0  0  0  0  0
   -3.9900    0.0650   -0.5580 C   0  0  1  0  0  0  0  0  0  0  0  0
   -4.7160    0.9550   -1.5230 C   0  0  0  0  0  0  0  0  0  0  0  0
   -5.3460    2.2230   -1.2780 C   0  0  0  0  0  0  0  0  0  0  0  0
   -2.6930    0.7050   -0.1420 C   0  0  0  0  0  0  0  0  0  0  0  0
   -2.3870    1.8700    0.4740 C   0  0  0  0  0  0  0  0  0  0  0  0
   -1.0340    1.9160    0.6920 N   0  0  0  0  0  0  0  0  0  0  0  0
   -0.4860    0.8400    0.2340 N   0  0  0  0  0  0  0  0  0  0  0  0
   -1.4380    0.0770   -0.2750 C   0  0  0  0  0  0  0  0  0  0  0  0
   -1.1140   -1.0840   -0.9320 N   0  0  0  0  0  0  0  0  0  0  0  0
    0.1640   -1.4670   -1.0780 C   0  0  0  0  0  0  0  0  0  0  0  0
    0.4600   -2.5350   -1.6830 O   0  0  0  0  0  0  0  0  0  0  0  0
    1.1400   -0.6600   -0.5480 C   0  0  0  0  0  0  0  0  0  0  0  0
    2.4950   -0.7410   -0.5770 N   0  0  0  0  0  0  0  0  0  0  0  0
    3.0470    0.3130    0.0440 C   0  0  0  0  0  0  0  0  0  0  0  0
    4.4890    0.6350    0.1920 C   0  0  0  0  0  0  0  0  0  0  0  0
    5.3700   -0.3250    0.2630 C   0  0  0  0  0  0  0  0  0  0  0  0
    4.9700   -2.0380    0.1940 Cl  0  0  0  0  0  0  0  0  0  0  0  0
    6.8090    0.0060    0.3830 C   0  0  0  0  0  0  0  0  0  0  0  0
    7.6570   -0.9970    0.4370 C   0  0  0  0  0  0  0  0  0  0  0  0
    9.0650   -0.7800    0.5590 C   0  0  0  0  0  0  0  0  0  0  0  0
    9.6660    0.5660    0.6380 C   0  0  0  0  0  0  0  0  0  0  0  0
    9.8880   -1.7600    0.5980 O   0  0  0  0  0  0  0  0  0  0  0  0
    1.9870    1.0740    0.4730 N   0  0  0  0  0  0  0  0  0  0  0  0
    0.8350    0.5030    0.1230 C   0  0  0  0  0  0  0  0  0  0  0  0
  1  2  1  0
  2  3  2  3
  3  4  1  0
  3  7  1  0
  4  5  2  3
  5  6  1  0
  7  8  1  1
  7 10  1  0
  8  9  1  0
 10 11  1  0
 10 14  2  0
 11 12  2  0
 12 13  1  0
 13 14  1  0
 13 30  1  0
 14 15  1  0
 15 16  1  0
 16 17  2  0
 16 18  1  0
 18 19  1  0
 18 30  2  0
 19 20  1  0
 20 21  1  0
 20 29  2  0
 21 22  2  3
 22 23  1  0
 22 24  1  0
 24 25  2  3
 25 26  1  0
 26 27  1  0
 26 28  2  0
 29 30  1  0
M  END
