
     RDKit          3D

 30 32  0  0  0  0  0  0  0  0999 V2000
   -4.9740   -2.1180    0.7450 C   0  0  0  0  0  0  0  0  0  0  0  0
   -3.8060   -1.7370   -0.1100 C   0  0  0  0  0  0  0  0  0  0  0  0
   -3.6160   -2.1960   -1.3100 C   0  0  0  0  0  0  0  0  0  0  0  0
   -2.4080   -1.6440   -1.8400 C   0  0  0  0  0  0  0  0  0  0  0  0
   -1.9180   -1.8770   -3.0370 N   0  0  0  0  0  0  0  0  0  0  0  0
   -1.7890   -0.7530   -0.8300 C   0  0  0  0  0  0  0  0  0  0  0  0
   -0.6080   -0.1790   -0.9320 C   0  0  0  0  0  0  0  0  0  0  0  0
    0.2530   -0.3880   -2.1410 C   0  0  0  0  0  0  0  0  0  0  0  0
    0.9940    0.6990   -2.3200 C   0  0  0  0  0  0  0  0  0  0  0  0
    0.6670    1.6030   -1.3030 C   0  0  2  0  0  0  0  0  0  0  0  0
   -0.8200    2.4850   -1.7530 Cl  0  0  0  0  0  0  0  0  0  0  0  0
    1.5780    2.5320   -0.6760 C   0  0  0  0  0  0  0  0  0  0  0  0
    0.8090    2.8440    0.5920 C   0  0  2  0  0  0  0  0  0  0  0  0
    0.0550    4.1360    0.4860 C   0  0  0  0  0  0  0  0  0  0  0  0
    1.6600    2.8800    1.6930 F   0  0  0  0  0  0  0  0  0  0  0  0
   -0.1400    1.6680    0.7820 C   0  0  0  0  0  0  0  0  0  0  0  0
   -0.9830    1.8170    1.6300 O   0  0  0  0  0  0  0  0  0  0  0  0
    0.2570    0.6730   -0.1390 C   0  0  1  0  0  0  0  0  0  0  0  0
    1.4300   -0.0590    0.4030 C   0  0  0  0  0  0  0  0  0  0  0  0
    1.5140   -0.0730    1.6160 O   0  0  0  0  0  0  0  0  0  0  0  0
    2.4620   -0.7440   -0.3600 C   0  0  0  0  0  0  0  0  0  0  0  0
    3.4830   -1.3470    0.5420 C   0  0  0  0  0  0  0  0  0  0  0  0
    3.2600   -2.4510    1.1330 O   0  0  0  0  0  0  0  0  0  0  0  0
    4.7030   -0.7470    0.7790 O   0  0  0  0  0  0  0  0  0  0  0  0
    5.6720   -1.2760    1.6080 N   0  0  0  0  0  0  0  0  0  0  0  0
    6.8830   -1.1470    1.1940 N   0  0  0  0  0  0  0  0  0  0  0  0
    8.1360   -1.8200    2.2470 S   0  0  0  0  0  0  0  0  0  0  0  0
   -2.7840   -0.7230    0.2700 C   0  0  1  0  0  0  0  0  0  0  0  0
   -3.5400    0.5840    0.3690 C   0  0  0  0  0  0  0  0  0  0  0  0
   -2.2510   -1.1340    1.5970 C   0  0  0  0  0  0  0  0  0  0  0  0
  1  2  1  0
  2  3  2  0
  2 28  1  0
  3  4  1  0
  4  5  2  0
  4  6  1  0
  6  7  2  3
  6 28  1  0
  7  8  1  0
  7 18  1  0
  8  9  2  0
  9 10  1  0
 10 11  1  6
 10 12  1  0
 10 18  1  0
 12 13  1  0
 13 14  1  6
 13 15  1  0
 13 16  1  0
 16 17  2  0
 16 18  1  0
 18 19  1  1
 19 20  2  0
 19 21  1  0
 21 22  1  0
 22 23  2  0
 22 24  1  0
 24 25  1  0
 25 26  2  3
 26 27  1  0
 28 29  1  1
 28 30  1  0
M  CHG  1  26   1
M  END
