
     RDKit          3D

 30 32  0  0  0  0  0  0  0  0999 V2000
   -3.8550    0.5970   -3.3030 C   0  0  0  0  0  0  0  0  0  0  0  0
   -4.3590    0.0480   -1.9820 C   0  0  1  0  0  0  0  0  0  0  0  0
   -3.2130   -0.2930   -1.1050 C   0  0  0  0  0  0  0  0  0  0  0  0
   -2.7570   -1.5930   -1.0270 C   0  0  0  0  0  0  0  0  0  0  0  0
   -1.6800   -1.9050   -0.2090 C   0  0  0  0  0  0  0  0  0  0  0  0
   -1.0470   -0.9390    0.5370 C   0  0  0  0  0  0  0  0  0  0  0  0
    0.0570   -1.3530    1.3480 N   0  0  0  0  0  0  0  0  0  0  0  0
   -0.1010   -2.0700    2.5890 C   0  0  0  0  0  0  0  0  0  0  0  0
    1.2750   -2.3540    3.1000 C   0  0  0  0  0  0  0  0  0  0  0  0
    2.1970   -1.4130    2.3500 C   0  0  2  0  0  0  0  0  0  0  0  0
    2.5400   -0.2540    3.0930 N   0  0  0  0  0  0  0  0  0  0  0  0
    4.2190   -0.0660    3.3630 S   0  0  1  0  0  0  0  0  0  0  0  0
    4.5270    1.1110    4.2380 O   0  0  0  0  0  0  0  0  0  0  0  0
    4.7450   -1.3070    4.0240 O   0  0  0  0  0  0  0  0  0  0  0  0
    5.0120    0.0880    1.8110 C   0  0  0  0  0  0  0  0  0  0  0  0
    4.7140    1.1130    1.0390 C   0  0  0  0  0  0  0  0  0  0  0  0
    5.3770    1.2330   -0.2480 C   0  0  0  0  0  0  0  0  0  0  0  0
    6.3040    0.4630   -0.8710 C   0  0  0  0  0  0  0  0  0  0  0  0
    6.7430    0.8260   -2.0810 C   0  0  0  0  0  0  0  0  0  0  0  0
    6.2770    1.9420   -2.6870 C   0  0  0  0  0  0  0  0  0  0  0  0
    6.6000    2.6960   -4.1910 Cl  0  0  0  0  0  0  0  0  0  0  0  0
    5.0830    2.5670   -1.4220 S   0  0  0  0  0  0  0  0  0  0  0  0
    1.4370   -1.1630    1.1230 C   0  0  0  0  0  0  0  0  0  0  0  0
    1.9230   -0.8240    0.0120 O   0  0  0  0  0  0  0  0  0  0  0  0
   -1.5000    0.3550    0.4610 C   0  0  0  0  0  0  0  0  0  0  0  0
   -0.8700    1.3130    1.2030 F   0  0  0  0  0  0  0  0  0  0  0  0
   -2.5660    0.6570   -0.3520 C   0  0  0  0  0  0  0  0  0  0  0  0
   -5.3400    0.8920   -1.3740 N   0  0  2  0  0  0  0  0  0  0  0  0
   -5.0930    2.3010   -1.5350 C   0  0  0  0  0  0  0  0  0  0  0  0
   -5.5110    0.5600    0.0210 C   0  0  0  0  0  0  0  0  0  0  0  0
  2  1  1  6
  2  3  1  0
  2 28  1  0
  3  4  2  0
  3 27  1  0
  4  5  1  0
  5  6  2  0
  6  7  1  0
  6 25  1  0
  7  8  1  0
  7 23  1  0
  8  9  1  0
  9 10  1  0
 10 11  1  1
 10 23  1  0
 12 11  1  6
 12 13  2  0
 12 14  2  0
 12 15  1  0
 15 16  2  3
 16 17  1  0
 17 18  2  0
 17 22  1  0
 18 19  1  0
 19 20  2  0
 20 21  1  0
 20 22  1  0
 23 24  2  0
 25 26  1  0
 25 27  2  0
 28 29  1  1
 28 30  1  0
M  CHG  1  28   1
M  END
