
     RDKit          3D

 29 33  0  0  0  0  0  0  0  0999 V2000
   -4.5870   -0.2780   -1.1980 C   0  0  0  0  0  0  0  0  0  0  0  0
   -3.4600    0.1400   -0.3260 C   0  0  0  0  0  0  0  0  0  0  0  0
   -3.5770    1.2460    0.3510 C   0  0  0  0  0  0  0  0  0  0  0  0
   -2.5080    1.7010    1.2240 C   0  0  0  0  0  0  0  0  0  0  0  0
   -2.6390    2.9170    1.9570 N   0  0  0  0  0  0  0  0  0  0  0  0
   -1.4170    0.9620    1.3190 C   0  0  0  0  0  0  0  0  0  0  0  0
   -0.4340    1.4170    2.1400 F   0  0  0  0  0  0  0  0  0  0  0  0
   -1.2060   -0.3150    0.6480 C   0  0  2  0  0  0  0  0  0  0  0  0
   -1.0600   -1.3600    1.7780 C   0  0  0  0  0  0  0  0  0  0  0  0
    0.0480   -0.4350   -0.1290 C   0  0  0  0  0  0  0  0  0  0  0  0
    1.4600   -0.4450    0.4270 C   0  0  0  0  0  0  0  0  0  0  0  0
    2.4230   -0.5740   -0.6080 N   0  0  0  0  0  0  0  0  0  0  0  0
    2.5280    0.5560   -1.4770 C   0  0  0  0  0  0  0  0  0  0  0  0
    3.2760    0.0390   -2.7170 C   0  0  0  0  0  0  0  0  0  0  0  0
    4.6070   -0.8650   -1.8160 S   0  0  0  0  0  0  0  0  0  0  0  0
    3.7330   -0.9370   -0.1960 C   0  0  2  0  0  0  0  0  0  0  0  0
    3.8720   -2.2560    0.3850 C   0  0  0  0  0  0  0  0  0  0  0  0
    3.4960   -3.3440   -0.0840 O   0  0  0  0  0  0  0  0  0  0  0  0
    4.5200   -2.0940    1.5970 O   0  0  0  0  0  0  0  0  0  0  0  0
    4.7870   -0.7370    1.7930 C   0  0  0  0  0  0  0  0  0  0  0  0
    4.3480   -0.0200    0.7740 C   0  0  0  0  0  0  0  0  0  0  0  0
    4.9890    0.7340    1.8350 C   0  0  2  0  0  0  0  0  0  0  0  0
    6.3050    1.1470    1.6370 O   0  0  0  0  0  0  0  0  0  0  0  0
    6.7050    2.4440    2.6550 Cl  0  0  0  0  0  0  0  0  0  0  0  0
   -0.1970   -0.5320   -1.3570 N   0  0  0  0  0  0  0  0  0  0  0  0
   -1.5740   -0.5000   -1.6540 C   0  0  2  0  0  0  0  0  0  0  0  0
   -1.8670    0.9030   -2.1820 C   0  0  0  0  0  0  0  0  0  0  0  0
   -2.2530   -0.7210   -0.3230 C   0  0  2  0  0  0  0  0  0  0  0  0
   -2.6570   -2.1580   -0.2270 C   0  0  0  0  0  0  0  0  0  0  0  0
  1  2  1  0
  2  3  2  0
  2 28  1  0
  3  4  1  0
  4  5  1  0
  4  6  2  0
  6  7  1  0
  6  8  1  0
  8  9  1  1
  8 10  1  0
  8 28  1  0
 10 11  1  0
 10 25  2  0
 11 12  1  0
 12 13  1  0
 12 16  1  0
 13 14  1  0
 14 15  1  0
 16 15  1  6
 16 17  1  0
 16 21  1  0
 17 18  2  0
 17 19  1  0
 19 20  1  0
 20 21  2  0
 20 22  1  0
 21 22  1  0
 22 23  1  6
 23 24  1  0
 25 26  1  0
 26 27  1  1
 26 28  1  0
 28 29  1  1
M  CHG  1   5   1
M  END
