
     RDKit          3D

 30 32  0  0  0  0  0  0  0  0999 V2000
   -3.9090   -5.5500   -1.9950 C   0  0  0  0  0  0  0  0  0  0  0  0
   -4.0120   -4.5630   -1.1320 C   0  0  0  0  0  0  0  0  0  0  0  0
   -2.8030   -3.8090   -0.7870 C   0  0  0  0  0  0  0  0  0  0  0  0
   -1.2840   -4.2540   -1.5650 Cl  0  0  0  0  0  0  0  0  0  0  0  0
   -2.8390   -2.8060    0.0730 C   0  0  0  0  0  0  0  0  0  0  0  0
   -1.6210   -2.0910    0.3850 C   0  0  0  0  0  0  0  0  0  0  0  0
   -0.4480   -2.7730    0.7050 C   0  0  0  0  0  0  0  0  0  0  0  0
    0.6880   -2.1110    0.9770 N   0  0  0  0  0  0  0  0  0  0  0  0
    0.7160   -0.7740    0.9470 C   0  0  0  0  0  0  0  0  0  0  0  0
    1.9210   -0.0440    1.2310 N   0  0  0  0  0  0  0  0  0  0  0  0
    3.1360   -0.7490    1.5600 C   0  0  0  0  0  0  0  0  0  0  0  0
    4.3000    0.1890    1.7750 C   0  0  1  0  0  0  0  0  0  0  0  0
    5.4610   -0.5190    2.1080 O   0  0  0  0  0  0  0  0  0  0  0  0
    4.5160    1.0200    0.5280 C   0  0  0  0  0  0  0  0  0  0  0  0
    5.6090    1.9480    0.6390 N   0  0  0  0  0  0  0  0  0  0  0  0
    6.9080    1.8090    0.3420 C   0  0  0  0  0  0  0  0  0  0  0  0
    7.6140    2.9630    0.6070 C   0  0  0  0  0  0  0  0  0  0  0  0
    9.3290    3.2340    0.3730 Cl  0  0  0  0  0  0  0  0  0  0  0  0
    6.6560    3.8370    1.0920 C   0  0  0  0  0  0  0  0  0  0  0  0
    5.4730    3.1970    1.0970 N   0  0  0  0  0  0  0  0  0  0  0  0
   -0.3960   -0.1160    0.6440 N   0  0  0  0  0  0  0  0  0  0  0  0
   -1.5930   -0.7100    0.3540 C   0  0  0  0  0  0  0  0  0  0  0  0
   -2.7460    0.1130    0.0160 C   0  0  0  0  0  0  0  0  0  0  0  0
   -2.5160    1.4160    0.0720 C   0  0  0  0  0  0  0  0  0  0  0  0
   -3.4290    2.5330   -0.1990 C   0  0  0  0  0  0  0  0  0  0  0  0
   -4.6700    2.5150   -0.6510 C   0  0  0  0  0  0  0  0  0  0  0  0
   -5.3520    3.8170   -0.8290 C   0  0  0  0  0  0  0  0  0  0  0  0
   -5.4510    1.3270   -1.0010 C   0  0  0  0  0  0  0  0  0  0  0  0
   -5.1180    0.0530   -0.8510 C   0  0  0  0  0  0  0  0  0  0  0  0
   -3.9400   -0.4620   -0.3240 O   0  0  0  0  0  0  0  0  0  0  0  0
  1  2  2  0
  2  3  1  0
  3  4  1  0
  3  5  2  3
  5  6  1  0
  6  7  2  0
  6 22  1  0
  7  8  1  0
  8  9  2  0
  9 10  1  0
  9 21  1  0
 10 11  1  0
 11 12  1  0
 12 13  1  6
 12 14  1  0
 14 15  1  0
 15 16  1  0
 15 20  1  0
 16 17  2  0
 17 18  1  0
 17 19  1  0
 19 20  2  0
 21 22  2  0
 22 23  1  0
 23 24  2  0
 23 30  1  0
 24 25  1  0
 25 26  2  0
 26 27  1  0
 26 28  1  0
 28 29  2  0
 29 30  1  0
M  END
