
     RDKit          3D

 30 32  0  0  0  0  0  0  0  0999 V2000
    3.0230    2.6340    0.9810 C   0  0  0  0  0  0  0  0  0  0  0  0
    2.9130    3.0130   -0.4000 N   0  0  0  0  0  0  0  0  0  0  0  0
    2.7540    2.0220   -1.3740 C   0  0  0  0  0  0  0  0  0  0  0  0
    1.9060    1.0620   -1.2930 N   0  0  0  0  0  0  0  0  0  0  0  0
    0.9630    0.8100   -0.2110 C   0  0  0  0  0  0  0  0  0  0  0  0
    0.2860   -0.3310   -0.4700 C   0  0  0  0  0  0  0  0  0  0  0  0
   -0.7880   -0.8980    0.3610 C   0  0  1  0  0  0  0  0  0  0  0  0
   -1.2450   -2.0860   -0.2440 O   0  0  0  0  0  0  0  0  0  0  0  0
   -2.4200   -2.9280    0.5480 Cl  0  0  0  0  0  0  0  0  0  0  0  0
   -0.2730   -1.3420    1.6890 C   0  0  0  0  0  0  0  0  0  0  0  0
    0.9390   -1.3230    1.9880 O   0  0  0  0  0  0  0  0  0  0  0  0
   -1.2440   -1.7880    2.6040 O   0  0  0  0  0  0  0  0  0  0  0  0
   -2.4280   -0.9500    2.6880 C   0  0  2  0  0  0  0  0  0  0  0  0
   -3.3740   -1.7050    3.3420 F   0  0  0  0  0  0  0  0  0  0  0  0
   -2.8710   -0.7130    1.4010 O   0  0  0  0  0  0  0  0  0  0  0  0
   -1.9460   -0.0060    0.6030 C   0  0  1  0  0  0  0  0  0  0  0  0
   -1.5680    1.1880    1.5150 C   0  0  0  0  0  0  0  0  0  0  0  0
   -2.6930    0.5120   -0.5670 C   0  0  1  0  0  0  0  0  0  0  0  0
   -3.8400    1.4220   -0.0750 C   0  0  0  0  0  0  0  0  0  0  0  0
   -1.8930    1.3640   -1.5190 C   0  0  0  0  0  0  0  0  0  0  0  0
   -3.3870   -0.5110   -1.4290 C   0  0  0  0  0  0  0  0  0  0  0  0
    1.1490   -1.0840   -1.3920 C   0  0  1  0  0  0  0  0  0  0  0  0
    2.0260   -2.1610   -0.8050 C   0  0  0  0  0  0  0  0  0  0  0  0
    1.6300   -3.4430   -0.2870 C   0  0  0  0  0  0  0  0  0  0  0  0
    3.3120   -1.8410   -0.7820 C   0  0  0  0  0  0  0  0  0  0  0  0
    4.5000   -1.4730   -0.5040 N   0  0  0  0  0  0  0  0  0  0  0  0
    4.6880   -0.8560    0.7740 C   0  0  0  0  0  0  0  0  0  0  0  0
    4.3950   -1.5550    1.7820 O   0  0  0  0  0  0  0  0  0  0  0  0
    1.3200   -1.1340   -2.8410 C   0  0  0  0  0  0  0  0  0  0  0  0
    1.6440    0.0120   -2.1670 C   0  0  0  0  0  0  0  0  0  0  0  0
  1  2  1  0
  2  3  1  0
  3  4  2  3
  4  5  1  0
  4 30  1  0
  5  6  2  0
  6  7  1  0
  6 22  1  0
  7  8  1  6
  7 10  1  0
  7 16  1  0
  8  9  1  0
 10 11  2  0
 10 12  1  0
 12 13  1  0
 13 14  1  1
 13 15  1  0
 15 16  1  0
 16 17  1  1
 16 18  1  0
 18 19  1  1
 18 20  1  0
 18 21  1  0
 22 23  1  1
 22 29  1  0
 22 30  1  0
 23 24  1  0
 23 25  2  0
 25 26  2  0
 26 27  1  0
 27 28  2  0
 29 30  2  0
M  CHG  1   4   1
M  END
