
     RDKit          3D

 23 24  0  0  0  0  0  0  0  0999 V2000
   -3.5340    2.2990    1.9440 O   0  0  0  0  0  0  0  0  0  0  0  0
   -3.6710    1.7500    0.8300 C   0  0  0  0  0  0  0  0  0  0  0  0
   -2.4410    1.1810    0.2460 C   0  0  0  0  0  0  0  0  0  0  0  0
   -2.6690   -0.3290    0.0910 C   0  0  2  0  0  0  0  0  0  0  0  0
   -4.0730   -0.6000   -0.3830 C   0  0  0  0  0  0  0  0  0  0  0  0
   -4.4820    0.3310   -1.5040 C   0  0  0  0  0  0  0  0  0  0  0  0
   -5.3560    1.4670   -1.0110 C   0  0  0  0  0  0  0  0  0  0  0  0
   -4.9430    1.7600    0.3190 O   0  0  0  0  0  0  0  0  0  0  0  0
   -2.5500   -0.8570    1.3830 O   0  0  0  0  0  0  0  0  0  0  0  0
   -1.1880   -1.2210    1.4870 C   0  0  0  0  0  0  0  0  0  0  0  0
   -0.9570   -1.7700    0.0860 C   0  0  2  0  0  0  0  0  0  0  0  0
    0.4740   -1.7810   -0.2360 C   0  0  0  0  0  0  0  0  0  0  0  0
    1.2190   -2.5070    0.3960 O   0  0  0  0  0  0  0  0  0  0  0  0
    1.0070   -0.9310   -1.3050 C   0  0  0  0  0  0  0  0  0  0  0  0
    2.3860   -1.0600   -1.4840 O   0  0  0  0  0  0  0  0  0  0  0  0
    3.2630   -0.7690   -0.4540 C   0  0  0  0  0  0  0  0  0  0  0  0
    2.8230   -0.3860    0.6520 O   0  0  0  0  0  0  0  0  0  0  0  0
    4.6630   -0.9310   -0.7300 N   0  0  0  0  0  0  0  0  0  0  0  0
    5.6020   -0.6430    0.3020 C   0  0  0  0  0  0  0  0  0  0  0  0
    5.5280    0.7910    0.7850 C   0  0  0  0  0  0  0  0  0  0  0  0
    5.7890    1.6620   -0.2800 O   0  0  0  0  0  0  0  0  0  0  0  0
    5.7340    2.9150    0.0970 O   0  0  0  0  0  0  0  0  0  0  0  0
   -1.7030   -0.9170   -0.6870 O   0  0  0  0  0  0  0  0  0  0  0  0
  1  2  2  0
  2  3  1  0
  2  8  1  0
  4  3  1  1
  4  5  1  0
  4  9  1  0
  4 23  1  0
  5  6  1  0
  6  7  1  0
  7  8  1  0
  9 10  1  0
 10 11  1  0
 11 12  1  6
 11 23  1  0
 12 13  2  0
 12 14  1  0
 14 15  1  0
 15 16  1  0
 16 17  2  0
 16 18  1  0
 18 19  1  0
 19 20  1  0
 20 21  1  0
 21 22  1  0
M  END
