
     RDKit          3D

 23 23  0  0  0  0  0  0  0  0999 V2000
   -1.0450    3.2100    1.2650 C   0  0  0  0  0  0  0  0  0  0  0  0
   -2.3090    2.5350    0.7830 C   0  0  0  0  0  0  0  0  0  0  0  0
   -1.9620    1.2830    0.2190 O   0  0  0  0  0  0  0  0  0  0  0  0
   -1.3280    0.2770    0.9330 C   0  0  0  0  0  0  0  0  0  0  0  0
   -1.0500    0.4890    2.1340 O   0  0  0  0  0  0  0  0  0  0  0  0
   -0.9990   -1.0220    0.2460 C   0  0  2  0  0  0  0  0  0  0  0  0
   -0.3790   -1.8670    1.1270 O   0  0  0  0  0  0  0  0  0  0  0  0
   -0.0110   -0.6930   -0.8690 C   0  0  0  0  0  0  0  0  0  0  0  0
    1.1330   -0.0630   -0.2720 O   0  0  0  0  0  0  0  0  0  0  0  0
    2.2140    0.3600   -1.0210 C   0  0  0  0  0  0  0  0  0  0  0  0
    2.1750    0.1770   -2.2640 O   0  0  0  0  0  0  0  0  0  0  0  0
    3.3770    1.0040   -0.3930 C   0  0  0  0  0  0  0  0  0  0  0  0
    3.5760    1.2750    0.9410 C   0  0  0  0  0  0  0  0  0  0  0  0
    4.7470    1.8550    1.0540 O   0  0  0  0  0  0  0  0  0  0  0  0
    5.3260    1.9800   -0.1150 C   0  0  0  0  0  0  0  0  0  0  0  0
    4.4880    1.4500   -1.0730 C   0  0  0  0  0  0  0  0  0  0  0  0
    4.6900    1.3660   -2.4460 O   0  0  0  0  0  0  0  0  0  0  0  0
    4.3890    2.4080   -3.2500 O   0  0  0  0  0  0  0  0  0  0  0  0
   -2.2240   -1.5670   -0.3830 C   0  0  0  0  0  0  0  0  0  0  0  0
   -2.8100   -0.8050   -1.1970 O   0  0  0  0  0  0  0  0  0  0  0  0
   -2.7660   -2.8420   -0.1430 N   0  0  0  0  0  0  0  0  0  0  0  0
   -3.9630   -3.2700   -0.8090 C   0  0  0  0  0  0  0  0  0  0  0  0
   -2.1070   -3.7200    0.7820 C   0  0  0  0  0  0  0  0  0  0  0  0
  1  2  1  0
  2  3  1  0
  3  4  1  0
  4  5  2  0
  4  6  1  0
  6  7  1  1
  6  8  1  0
  6 19  1  0
  8  9  1  0
  9 10  1  0
 10 11  2  0
 10 12  1  0
 12 13  2  0
 12 16  1  0
 13 14  1  0
 14 15  1  0
 15 16  2  0
 16 17  1  0
 17 18  1  0
 19 20  2  0
 19 21  1  0
 21 22  1  0
 21 23  1  0
M  END
