
     RDKit          3D

 23 24  0  0  0  0  0  0  0  0999 V2000
   -1.1940   -0.9790   -3.5650 O   0  0  0  0  0  0  0  0  0  0  0  0
   -1.0080   -0.3910   -2.4830 C   0  0  0  0  0  0  0  0  0  0  0  0
   -0.8520    0.9700   -2.3960 O   0  0  0  0  0  0  0  0  0  0  0  0
   -0.9580   -1.2340   -1.2480 C   0  0  0  0  0  0  0  0  0  0  0  0
   -0.7440   -0.5120   -0.0480 N   0  0  0  0  0  0  0  0  0  0  0  0
    0.6710   -0.3800    0.3250 C   0  0  0  0  0  0  0  0  0  0  0  0
    0.9250    0.2440    1.3710 O   0  0  0  0  0  0  0  0  0  0  0  0
    1.6850   -0.9060   -0.4210 O   0  0  0  0  0  0  0  0  0  0  0  0
    2.9640   -0.7780   -0.0700 O   0  0  0  0  0  0  0  0  0  0  0  0
    3.4050    0.5370   -0.1940 C   0  0  0  0  0  0  0  0  0  0  0  0
    4.8380    0.6660    0.2020 C   0  0  2  0  0  0  0  0  0  0  0  0
    5.7860   -0.1870   -0.6410 C   0  0  0  0  0  0  0  0  0  0  0  0
    5.5020   -1.2410    0.2250 O   0  0  0  0  0  0  0  0  0  0  0  0
    5.3290   -0.3050    1.2460 C   0  0  0  0  0  0  0  0  0  0  0  0
   -1.6530    0.1030    0.8010 C   0  0  0  0  0  0  0  0  0  0  0  0
   -1.1240    0.6670    1.8910 O   0  0  0  0  0  0  0  0  0  0  0  0
   -3.0770    0.2800    0.7790 C   0  0  0  0  0  0  0  0  0  0  0  0
   -3.8520   -0.1550   -0.2000 C   0  0  0  0  0  0  0  0  0  0  0  0
   -5.3440   -0.0470   -0.3600 C   0  0  0  0  0  0  0  0  0  0  0  0
   -5.9840   -0.5450    0.7890 O   0  0  0  0  0  0  0  0  0  0  0  0
   -6.0250    0.3760    1.7560 O   0  0  0  0  0  0  0  0  0  0  0  0
   -4.9420    1.0200    2.3350 C   0  0  0  0  0  0  0  0  0  0  0  0
   -3.6740    1.0050    1.9510 C   0  0  0  0  0  0  0  0  0  0  0  0
  1  2  2  0
  2  3  1  0
  2  4  1  0
  4  5  1  0
  5  6  1  0
  5 15  1  0
  6  7  2  0
  6  8  1  0
  8  9  1  0
  9 10  1  0
 11 10  1  6
 11 12  1  0
 11 14  1  0
 12 13  1  0
 13 14  1  0
 15 16  2  0
 15 17  1  0
 17 18  2  0
 17 23  1  0
 18 19  1  0
 19 20  1  0
 20 21  1  0
 21 22  1  0
 22 23  2  0
M  END
