
     RDKit          3D

 23 24  0  0  0  0  0  0  0  0999 V2000
   -5.2860    1.1810    0.1050 C   0  0  0  0  0  0  0  0  0  0  0  0
   -3.8330    1.5900    0.2830 C   0  0  0  0  0  0  0  0  0  0  0  0
   -3.0930    0.4220    0.3560 O   0  0  0  0  0  0  0  0  0  0  0  0
   -2.8530   -0.4980   -0.6470 C   0  0  0  0  0  0  0  0  0  0  0  0
   -3.3650   -0.2160   -1.8170 O   0  0  0  0  0  0  0  0  0  0  0  0
   -2.1110   -1.7570   -0.5240 C   0  0  1  0  0  0  0  0  0  0  0  0
   -0.6510   -1.8770   -0.3960 C   0  0  0  0  0  0  0  0  0  0  0  0
   -0.2710   -3.1470   -0.4400 O   0  0  0  0  0  0  0  0  0  0  0  0
    0.3240   -0.9050   -0.2890 N   0  0  0  0  0  0  0  0  0  0  0  0
    0.0390    0.5080   -0.1020 C   0  0  0  0  0  0  0  0  0  0  0  0
    1.2870    1.2000    0.3150 C   0  0  1  0  0  0  0  0  0  0  0  0
    1.2440    1.7230    1.5850 O   0  0  0  0  0  0  0  0  0  0  0  0
    2.3920    0.1230    0.3420 C   0  0  2  0  0  0  0  0  0  0  0  0
    3.4580    0.7830   -0.2480 O   0  0  0  0  0  0  0  0  0  0  0  0
    4.6100    0.9830    0.5930 C   0  0  0  0  0  0  0  0  0  0  0  0
    4.6200    0.5050    1.7140 O   0  0  0  0  0  0  0  0  0  0  0  0
    5.7020    1.7570   -0.0400 C   0  0  0  0  0  0  0  0  0  0  0  0
    6.7620    0.7670   -0.1040 O   0  0  0  0  0  0  0  0  0  0  0  0
    6.9550    0.5740   -1.4360 O   0  0  0  0  0  0  0  0  0  0  0  0
    1.7510   -0.9850   -0.3130 C   0  0  0  0  0  0  0  0  0  0  0  0
    2.3530   -1.9830   -0.8970 O   0  0  0  0  0  0  0  0  0  0  0  0
   -2.8190   -2.7080    0.5270 C   0  0  0  0  0  0  0  0  0  0  0  0
   -2.9400   -2.9690   -0.9060 C   0  0  0  0  0  0  0  0  0  0  0  0
  1  2  1  0
  2  3  1  0
  3  4  1  0
  4  5  2  0
  6  4  1  6
  6  7  1  0
  6 22  1  0
  6 23  1  0
  7  8  2  0
  7  9  1  0
  9 10  1  0
  9 20  1  0
 10 11  1  0
 11 12  1  1
 11 13  1  0
 13 14  1  6
 13 20  1  0
 14 15  1  0
 15 16  2  0
 15 17  1  0
 17 18  1  0
 18 19  1  0
 20 21  2  0
 22 23  1  0
M  END
