
     RDKit          3D

 23 23  0  0  0  0  0  0  0  0999 V2000
   -3.7290    1.4400    3.0900 C   0  0  0  0  0  0  0  0  0  0  0  0
   -3.5420    1.1250    1.7800 C   0  0  0  0  0  0  0  0  0  0  0  0
   -4.7590    0.9330    1.0280 C   0  0  0  0  0  0  0  0  0  0  0  0
   -5.8760    1.0300    1.6780 O   0  0  0  0  0  0  0  0  0  0  0  0
   -4.8610    0.6630   -0.3160 O   0  0  0  0  0  0  0  0  0  0  0  0
   -2.2050    1.1450    1.2800 C   0  0  0  0  0  0  0  0  0  0  0  0
   -1.2690    1.5960    2.0640 O   0  0  0  0  0  0  0  0  0  0  0  0
   -1.7450    0.7410    0.0230 N   0  0  0  0  0  0  0  0  0  0  0  0
   -0.4150    1.2370   -0.4360 C   0  0  0  0  0  0  0  0  0  0  0  0
    0.6190    0.2340    0.0080 C   0  0  0  0  0  0  0  0  0  0  0  0
    1.8970    0.5800   -0.3570 O   0  0  0  0  0  0  0  0  0  0  0  0
    2.7880   -0.3930    0.0890 C   0  0  0  0  0  0  0  0  0  0  0  0
    4.1910   -0.0120   -0.3130 C   0  0  1  0  0  0  0  0  0  0  0  0
    5.1940   -1.0900    0.0460 C   0  0  0  0  0  0  0  0  0  0  0  0
    6.2540   -0.7600   -0.9850 C   0  0  0  0  0  0  0  0  0  0  0  0
    5.5510   -0.2090   -2.0070 O   0  0  0  0  0  0  0  0  0  0  0  0
    4.3670    0.1100   -1.6590 O   0  0  0  0  0  0  0  0  0  0  0  0
   -2.3330   -0.3190   -0.6880 C   0  0  0  0  0  0  0  0  0  0  0  0
   -2.3470   -0.3970   -1.9840 C   0  0  0  0  0  0  0  0  0  0  0  0
   -1.8070    0.5200   -2.8560 O   0  0  0  0  0  0  0  0  0  0  0  0
   -2.8480   -1.5060    0.0460 C   0  0  0  0  0  0  0  0  0  0  0  0
   -2.8240   -1.4800    1.2870 O   0  0  0  0  0  0  0  0  0  0  0  0
   -3.3430   -2.6200   -0.6160 O   0  0  0  0  0  0  0  0  0  0  0  0
  1  2  2  0
  2  3  1  0
  2  6  1  0
  3  4  2  0
  3  5  1  0
  6  7  2  0
  6  8  1  0
  8  9  1  0
  8 18  1  0
  9 10  1  0
 10 11  1  0
 11 12  1  0
 13 12  1  6
 13 14  1  0
 13 17  1  0
 14 15  1  0
 15 16  1  0
 16 17  1  0
 18 19  2  3
 18 21  1  0
 19 20  1  0
 21 22  2  0
 21 23  1  0
M  END
