
     RDKit          3D

 23 24  0  0  0  0  0  0  0  0999 V2000
   -1.2720    0.8260    1.3770 O   0  0  0  0  0  0  0  0  0  0  0  0
   -1.1270    0.8910    0.1310 C   0  0  0  0  0  0  0  0  0  0  0  0
   -0.2550    1.8520   -0.3650 O   0  0  0  0  0  0  0  0  0  0  0  0
    0.4600    2.7400    0.4690 C   0  0  0  0  0  0  0  0  0  0  0  0
    1.3110    2.1820    1.3600 O   0  0  0  0  0  0  0  0  0  0  0  0
    2.3490    1.4270    0.9250 C   0  0  0  0  0  0  0  0  0  0  0  0
    2.0350    0.2210    0.1080 C   0  0  0  0  0  0  0  0  0  0  0  0
    3.1680   -0.4870   -0.2840 O   0  0  0  0  0  0  0  0  0  0  0  0
    3.9300   -0.9620    0.7580 C   0  0  0  0  0  0  0  0  0  0  0  0
    5.1420   -1.7470    0.2310 C   0  0  0  0  0  0  0  0  0  0  0  0
    5.9130   -0.8910   -0.5560 O   0  0  0  0  0  0  0  0  0  0  0  0
    6.9540   -1.5050   -1.0290 O   0  0  0  0  0  0  0  0  0  0  0  0
    8.0160   -0.7260   -1.0280 O   0  0  0  0  0  0  0  0  0  0  0  0
   -1.8410   -0.0070   -0.8250 C   0  0  2  0  0  0  0  0  0  0  0  0
   -2.7810    0.9120   -1.6190 C   0  0  0  0  0  0  0  0  0  0  0  0
   -3.7900    1.3920   -0.5910 C   0  0  0  0  0  0  0  0  0  0  0  0
   -4.8190    0.2960   -0.4500 C   0  0  0  0  0  0  0  0  0  0  0  0
   -4.0840   -1.0320   -0.5070 C   0  0  2  0  0  0  0  0  0  0  0  0
   -4.7190   -1.9190    0.5220 C   0  0  0  0  0  0  0  0  0  0  0  0
   -3.6630   -2.6690    1.0330 O   0  0  0  0  0  0  0  0  0  0  0  0
   -2.5250   -1.8510    0.9580 C   0  0  0  0  0  0  0  0  0  0  0  0
   -1.5350   -1.9290    1.7150 O   0  0  0  0  0  0  0  0  0  0  0  0
   -2.6970   -0.9310   -0.1140 N   0  0  0  0  0  0  0  0  0  0  0  0
  1  2  2  0
  2  3  1  0
 14  2  1  1
  3  4  1  0
  4  5  1  0
  5  6  1  0
  6  7  1  0
  7  8  1  0
  8  9  1  0
  9 10  1  0
 10 11  1  0
 11 12  1  0
 12 13  1  0
 14 15  1  0
 14 23  1  0
 15 16  1  0
 16 17  1  0
 18 17  1  1
 18 19  1  0
 18 23  1  0
 19 20  1  0
 20 21  1  0
 21 22  2  0
 21 23  1  0
M  END
