
     RDKit          3D

 23 22  0  0  0  0  0  0  0  0999 V2000
   -2.8880    2.5520    1.4800 C   0  0  0  0  0  0  0  0  0  0  0  0
   -2.7670    1.3720    0.8040 C   0  0  0  0  0  0  0  0  0  0  0  0
   -3.8150    0.4120    1.0140 C   0  0  0  0  0  0  0  0  0  0  0  0
   -4.7580    0.7240    1.8430 O   0  0  0  0  0  0  0  0  0  0  0  0
   -3.9030   -0.7960    0.4110 O   0  0  0  0  0  0  0  0  0  0  0  0
   -1.6520    1.2440   -0.0780 C   0  0  0  0  0  0  0  0  0  0  0  0
   -0.9440    2.3630   -0.1550 O   0  0  0  0  0  0  0  0  0  0  0  0
   -1.1500    0.2300   -0.8620 N   0  0  0  0  0  0  0  0  0  0  0  0
   -0.0500    0.5930   -1.7990 C   0  0  0  0  0  0  0  0  0  0  0  0
    1.2400    0.4330   -1.1080 C   0  0  0  0  0  0  0  0  0  0  0  0
    2.3090    0.6390   -1.7910 O   0  0  0  0  0  0  0  0  0  0  0  0
    1.3660    0.0810    0.2150 O   0  0  0  0  0  0  0  0  0  0  0  0
    2.5330   -0.0570    0.8190 O   0  0  0  0  0  0  0  0  0  0  0  0
    3.3150    1.0880    0.7510 C   0  0  1  0  0  0  0  0  0  0  0  0
    3.3560    1.6450    2.1890 C   0  0  0  0  0  0  0  0  0  0  0  0
    4.7450    0.7740    0.3570 C   0  0  0  0  0  0  0  0  0  0  0  0
    5.3400   -0.0820    1.2890 O   0  0  0  0  0  0  0  0  0  0  0  0
   -1.4490   -1.1520   -0.8760 C   0  0  0  0  0  0  0  0  0  0  0  0
   -1.1660   -1.8910    0.1630 C   0  0  0  0  0  0  0  0  0  0  0  0
   -1.4590   -3.3430    0.1950 C   0  0  0  0  0  0  0  0  0  0  0  0
   -2.0650   -1.7400   -2.0600 C   0  0  0  0  0  0  0  0  0  0  0  0
   -2.3270   -0.9940   -3.0510 O   0  0  0  0  0  0  0  0  0  0  0  0
   -2.3820   -3.0740   -2.1640 O   0  0  0  0  0  0  0  0  0  0  0  0
  1  2  2  0
  2  3  1  0
  2  6  1  0
  3  4  2  0
  3  5  1  0
  6  7  2  0
  6  8  1  0
  8  9  1  0
  8 18  1  0
  9 10  1  0
 10 11  2  0
 10 12  1  0
 12 13  1  0
 13 14  1  0
 14 15  1  1
 14 16  1  0
 16 17  1  0
 18 19  2  3
 18 21  1  0
 19 20  1  0
 21 22  2  0
 21 23  1  0
M  END
