
     RDKit          3D

 25 26  0  0  0  0  0  0  0  0999 V2000
    7.2810    1.6040    1.3330 O   0  0  0  0  0  0  0  0  0  0  0  0
    6.1730    1.1410    0.8960 C   0  0  0  0  0  0  0  0  0  0  0  0
    4.9740    1.6450    1.3540 C   0  0  0  0  0  0  0  0  0  0  0  0
    3.7870    1.1150    0.8530 C   0  0  0  0  0  0  0  0  0  0  0  0
    3.7710    0.1360   -0.0540 N   0  0  0  0  0  0  0  0  0  0  0  0
    2.5670   -0.4150   -0.5740 C   0  0  2  0  0  0  0  0  0  0  0  0
    1.5010    0.4490   -0.5960 O   0  0  0  0  0  0  0  0  0  0  0  0
    0.3870   -0.3160   -0.8370 C   0  0  2  0  0  0  0  0  0  0  0  0
   -0.8040    0.2780   -0.1140 C   0  0  0  0  0  0  0  0  0  0  0  0
   -1.8910   -0.5040   -0.3740 O   0  0  0  0  0  0  0  0  0  0  0  0
   -3.3290   -0.1440    0.2470 P   0  0  0  0  0  0  0  0  0  0  0  0
   -2.8310    0.6000    1.4810 O   0  0  0  0  0  0  0  0  0  0  0  0
   -4.1670   -1.2360    1.2020 O   0  0  0  0  0  0  0  0  0  0  0  0
   -4.1660    1.2350   -0.2250 O   0  0  0  0  0  0  0  0  0  0  0  0
   -5.6780    1.1070   -0.0300 P   0  0  0  0  0  0  0  0  0  0  0  0
   -5.7230   -0.1530   -1.0790 O   0  0  0  0  0  0  0  0  0  0  0  0
   -5.9730    2.6380   -0.5550 O   0  0  0  0  0  0  0  0  0  0  0  0
   -5.4550    0.7970    1.5850 O   0  0  0  0  0  0  0  0  0  0  0  0
    0.6330   -1.6870   -0.2750 C   0  0  1  0  0  0  0  0  0  0  0  0
    0.7220   -2.5790   -1.3500 O   0  0  0  0  0  0  0  0  0  0  0  0
    2.0350   -1.5520    0.2860 C   0  0  1  0  0  0  0  0  0  0  0  0
    2.7690   -2.7210    0.0860 O   0  0  0  0  0  0  0  0  0  0  0  0
    4.9540   -0.3360   -0.4830 C   0  0  0  0  0  0  0  0  0  0  0  0
    5.0370   -1.2560   -1.3350 O   0  0  0  0  0  0  0  0  0  0  0  0
    6.1290    0.1600   -0.0140 N   0  0  0  0  0  0  0  0  0  0  0  0
  1  2  2  0
  2  3  1  0
  2 25  1  0
  3  4  2  0
  4  5  1  0
  6  5  1  1
  5 23  1  0
  6  7  1  0
  6 21  1  0
  7  8  1  0
  8  9  1  1
  8 19  1  0
  9 10  1  0
 10 11  1  0
 11 12  1  0
 11 13  1  0
 11 14  1  0
 14 15  1  0
 15 16  1  0
 15 17  1  0
 15 18  1  0
 19 20  1  6
 19 21  1  0
 21 22  1  6
 23 24  2  0
 23 25  1  0
M  END
