
     RDKit          3D

 22 22  0  0  0  0  0  0  0  0999 V2000
    2.3880   -3.5940    0.2470 C   0  0  0  0  0  0  0  0  0  0  0  0
    0.9660   -3.9260    0.5130 C   0  0  0  0  0  0  0  0  0  0  0  0
   -0.0330   -2.9050    0.2120 C   0  0  0  0  0  0  0  0  0  0  0  0
    0.1130   -1.7070   -0.2690 C   0  0  0  0  0  0  0  0  0  0  0  0
    1.3760   -1.1610   -0.6040 N   0  0  0  0  0  0  0  0  0  0  0  0
    1.9020    0.0150    0.0660 C   0  0  0  0  0  0  0  0  0  0  0  0
    3.2630    0.3790   -0.4860 C   0  0  0  0  0  0  0  0  0  0  0  0
    3.7650    1.5040    0.1540 O   0  0  0  0  0  0  0  0  0  0  0  0
    5.3130    1.9660   -0.4320 P   0  0  0  0  0  0  0  0  0  0  0  0
    6.1790    2.9150    0.7340 O   0  0  0  0  0  0  0  0  0  0  0  0
    5.1350    2.9310   -1.8660 O   0  0  0  0  0  0  0  0  0  0  0  0
   -1.0520   -0.9370   -0.4570 O   0  0  0  0  0  0  0  0  0  0  0  0
   -1.6520   -0.2760    0.6390 C   0  0  0  0  0  0  0  0  0  0  0  0
   -2.8940    0.4910    0.1940 C   0  0  1  0  0  0  0  0  0  0  0  0
   -3.9510   -0.4160   -0.3290 C   0  0  0  0  0  0  0  0  0  0  0  0
   -5.1060    0.2490   -0.6770 O   0  0  0  0  0  0  0  0  0  0  0  0
   -5.2510    1.1420   -1.6790 C   0  0  0  0  0  0  0  0  0  0  0  0
   -4.3020    1.4530   -2.4290 O   0  0  0  0  0  0  0  0  0  0  0  0
   -3.4550    1.1330    1.3260 O   0  0  0  0  0  0  0  0  0  0  0  0
   -3.0840    2.4530    1.2500 C   0  0  0  0  0  0  0  0  0  0  0  0
   -2.1060    2.5470    0.0720 C   0  0  0  0  0  0  0  0  0  0  0  0
   -2.5480    1.4640   -0.7010 O   0  0  0  0  0  0  0  0  0  0  0  0
  1  2  1  0
  2  3  1  0
  3  4  2  3
  4  5  1  0
  4 12  1  0
  5  6  1  0
  6  7  1  0
  7  8  1  0
  8  9  1  0
  9 10  1  0
  9 11  1  0
 12 13  1  0
 14 13  1  1
 14 15  1  0
 14 19  1  0
 14 22  1  0
 15 16  1  0
 16 17  1  0
 17 18  2  0
 19 20  1  0
 20 21  1  0
 21 22  1  0
M  END
