
     RDKit          3D

 23 23  0  0  0  0  0  0  0  0999 V2000
    7.9900    0.6760   -1.1640 C   0  0  0  0  0  0  0  0  0  0  0  0
    6.8320    0.4110   -0.4080 O   0  0  0  0  0  0  0  0  0  0  0  0
    5.6130    0.3510   -1.0250 C   0  0  0  0  0  0  0  0  0  0  0  0
    5.5790    0.5430   -2.2850 O   0  0  0  0  0  0  0  0  0  0  0  0
    4.4030    0.0900   -0.3370 N   0  0  0  0  0  0  0  0  0  0  0  0
    3.1590    0.0400   -1.0360 C   0  0  0  0  0  0  0  0  0  0  0  0
    2.0130   -0.2470   -0.1230 C   0  0  0  0  0  0  0  0  0  0  0  0
    2.1880   -0.4190    1.1150 O   0  0  0  0  0  0  0  0  0  0  0  0
    0.7210   -0.3340   -0.6050 O   0  0  0  0  0  0  0  0  0  0  0  0
   -0.4150   -0.6110    0.2490 C   0  0  2  0  0  0  0  0  0  0  0  0
   -1.0450   -1.7790   -0.1680 O   0  0  0  0  0  0  0  0  0  0  0  0
   -1.0160   -2.9720    0.5550 C   0  0  0  0  0  0  0  0  0  0  0  0
   -0.3950   -2.9930    1.6260 O   0  0  0  0  0  0  0  0  0  0  0  0
   -1.6820   -4.0630    0.0340 O   0  0  0  0  0  0  0  0  0  0  0  0
   -1.3300    0.5330    0.2570 C   0  0  0  0  0  0  0  0  0  0  0  0
   -0.9800    1.4930   -0.4620 O   0  0  0  0  0  0  0  0  0  0  0  0
   -2.5940    0.6380    1.0300 C   0  0  2  0  0  0  0  0  0  0  0  0
   -2.2500    0.5130    2.4940 C   0  0  0  0  0  0  0  0  0  0  0  0
   -3.6060   -0.4040    0.7030 C   0  0  0  0  0  0  0  0  0  0  0  0
   -4.2060   -0.2360   -0.6740 C   0  0  0  0  0  0  0  0  0  0  0  0
   -4.8570    1.1560   -0.6340 C   0  0  0  0  0  0  0  0  0  0  0  0
   -3.7340    2.1200   -0.3400 C   0  0  0  0  0  0  0  0  0  0  0  0
   -3.1270    1.9300    0.8820 O   0  0  0  0  0  0  0  0  0  0  0  0
  1  2  1  0
  2  3  1  0
  3  4  2  0
  3  5  1  0
  5  6  1  0
  6  7  1  0
  7  8  2  0
  7  9  1  0
 10  9  1  6
 10 11  1  0
 10 15  1  0
 11 12  1  0
 12 13  2  0
 12 14  1  0
 15 16  2  0
 15 17  1  0
 17 18  1  1
 17 19  1  0
 17 23  1  0
 19 20  1  0
 20 21  1  0
 21 22  1  0
 22 23  1  0
M  END
