
     RDKit          3D

 23 24  0  0  0  0  0  0  0  0999 V2000
    0.9330   -1.2760   -0.1190 O   0  0  0  0  0  0  0  0  0  0  0  0
    1.4010   -0.1990    0.3240 C   0  0  0  0  0  0  0  0  0  0  0  0
    0.4940    0.7650    0.9730 C   0  0  0  0  0  0  0  0  0  0  0  0
   -0.8030    0.2270    0.9960 O   0  0  0  0  0  0  0  0  0  0  0  0
   -1.1260   -0.9340    1.6420 C   0  0  0  0  0  0  0  0  0  0  0  0
   -0.3100   -1.7740    2.3740 C   0  0  0  0  0  0  0  0  0  0  0  0
   -1.0360   -2.7730    2.8160 O   0  0  0  0  0  0  0  0  0  0  0  0
   -2.2780   -2.6430    2.4210 C   0  0  0  0  0  0  0  0  0  0  0  0
   -2.4040   -1.4820    1.6630 C   0  0  0  0  0  0  0  0  0  0  0  0
   -3.5700   -1.0530    1.1000 O   0  0  0  0  0  0  0  0  0  0  0  0
   -3.7920    0.0850    0.3320 C   0  0  2  0  0  0  0  0  0  0  0  0
   -4.8400    0.9510    1.0060 C   0  0  0  0  0  0  0  0  0  0  0  0
   -6.0800    0.9290    0.2770 O   0  0  0  0  0  0  0  0  0  0  0  0
   -5.9570    1.1290   -1.0860 C   0  0  0  0  0  0  0  0  0  0  0  0
   -6.8510    1.5900   -1.8260 O   0  0  0  0  0  0  0  0  0  0  0  0
   -4.6560    0.7600   -1.6880 C   0  0  0  0  0  0  0  0  0  0  0  0
   -4.1950   -0.3440   -0.9330 O   0  0  0  0  0  0  0  0  0  0  0  0
    2.8140    0.0670    0.1880 N   0  0  0  0  0  0  0  0  0  0  0  0
    3.5970   -0.9420   -0.4600 C   0  0  0  0  0  0  0  0  0  0  0  0
    5.0440   -0.6130   -0.5720 C   0  0  0  0  0  0  0  0  0  0  0  0
    5.3020    0.6530   -1.3600 C   0  0  0  0  0  0  0  0  0  0  0  0
    6.6580    0.9360   -1.4480 O   0  0  0  0  0  0  0  0  0  0  0  0
    6.9070    2.0170   -2.1180 O   0  0  0  0  0  0  0  0  0  0  0  0
  1  2  2  0
  2  3  1  0
  2 18  1  0
  3  4  1  0
  4  5  1  0
  5  6  2  0
  5  9  1  0
  6  7  1  0
  7  8  1  0
  8  9  2  0
  9 10  1  0
 11 10  1  1
 11 12  1  0
 11 17  1  0
 12 13  1  0
 13 14  1  0
 14 15  2  0
 14 16  1  0
 16 17  1  0
 18 19  1  0
 19 20  1  0
 20 21  1  0
 21 22  1  0
 22 23  1  0
M  END
