
     RDKit          3D

 34 35  0  0  0  0  0  0  0  0999 V2000
    3.1440    1.4240    1.4500 C   0  0  0  0  0  0  0  0  0  0  0  0
    2.3040    1.5290    0.4060 O   0  0  0  0  0  0  0  0  0  0  0  0
    2.7950    1.4520   -0.8310 C   0  0  0  0  0  0  0  0  0  0  0  0
    3.5030    0.2410   -1.1310 N   0  0  0  0  0  0  0  0  0  0  0  0
    4.8870    0.0430   -0.8350 C   0  0  0  0  0  0  0  0  0  0  0  0
    5.7220    0.9320   -0.3380 C   0  0  0  0  0  0  0  0  0  0  0  0
    7.1590    0.5640   -0.0800 C   0  0  0  0  0  0  0  0  0  0  0  0
    7.4650    0.7380    1.3710 C   0  0  2  0  0  0  0  0  0  0  0  0
    7.2760    2.1270    1.8840 C   0  0  0  0  0  0  0  0  0  0  0  0
    8.8790    0.2890    1.6440 C   0  0  0  0  0  0  0  0  0  0  0  0
    5.2480   -1.3100   -1.2640 C   0  0  0  0  0  0  0  0  0  0  0  0
    3.9960   -1.8230   -1.8400 C   0  0  0  0  0  0  0  0  0  0  0  0
    3.0050   -0.9220   -1.7500 C   0  0  0  0  0  0  0  0  0  0  0  0
    1.6820   -1.1650   -2.3400 C   0  0  0  0  0  0  0  0  0  0  0  0
    0.5920   -1.2240   -1.6370 O   0  0  0  0  0  0  0  0  0  0  0  0
    0.0110   -0.3780   -0.8160 C   0  0  0  0  0  0  0  0  0  0  0  0
   -1.3350   -0.9130   -0.3220 C   0  0  0  0  0  0  0  0  0  0  0  0
   -1.7970   -2.1520   -0.6680 C   0  0  0  0  0  0  0  0  0  0  0  0
   -3.0130   -2.6130   -0.2150 C   0  0  0  0  0  0  0  0  0  0  0  0
   -3.8030   -1.8090    0.6150 C   0  0  0  0  0  0  0  0  0  0  0  0
   -4.9630   -2.2850    1.0300 C   0  0  0  0  0  0  0  0  0  0  0  0
   -5.4610   -3.6460    0.6450 C   0  0  0  0  0  0  0  0  0  0  0  0
   -6.1330   -3.6300   -0.7090 C   0  0  0  0  0  0  0  0  0  0  0  0
   -6.5750   -4.9140   -1.0320 O   0  0  0  0  0  0  0  0  0  0  0  0
   -3.3280   -0.5730    0.9520 C   0  0  0  0  0  0  0  0  0  0  0  0
   -3.9240    0.2890    1.7000 C   0  0  0  0  0  0  0  0  0  0  0  0
   -5.4910    0.3040    2.5730 P   0  0  0  0  0  0  0  0  0  0  0  0
   -6.6920    1.3890    2.1690 C   0  0  0  0  0  0  0  0  0  0  0  0
   -7.3500    2.3570    1.5860 C   0  0  0  0  0  0  0  0  0  0  0  0
   -8.1060    2.0550    0.3620 C   0  0  0  0  0  0  0  0  0  0  0  0
   -7.3020    2.2950   -0.7450 O   0  0  0  0  0  0  0  0  0  0  0  0
   -6.9330    3.6350   -0.7230 C   0  0  0  0  0  0  0  0  0  0  0  0
   -6.1170    3.9590   -1.8120 O   0  0  0  0  0  0  0  0  0  0  0  0
   -2.1040   -0.1750    0.4650 N   0  0  0  0  0  0  0  0  0  0  0  0
  1  2  1  0
  2  3  1  0
  3  4  1  0
  4  5  1  0
  4 13  1  0
  5  6  2  3
  5 11  1  0
  6  7  1  0
  7  8  1  0
  8  9  1  6
  8 10  1  0
 11 12  1  0
 12 13  2  0
 13 14  1  0
 14 15  1  0
 15 16  1  0
 16 17  1  0
 17 18  1  0
 17 34  2  0
 18 19  2  0
 19 20  1  0
 20 21  2  3
 20 25  1  0
 21 22  1  0
 22 23  1  0
 23 24  1  0
 25 26  2  3
 25 34  1  0
 26 27  1  0
 27 28  2  0
 28 29  2  0
 29 30  1  0
 30 31  1  0
 31 32  1  0
 32 33  1  0
M  END
