
     RDKit          3D

 35 38  0  0  0  0  0  0  0  0999 V2000
   -2.2410   -3.6840   -3.3240 C   0  0  0  0  0  0  0  0  0  0  0  0
   -2.9140   -2.6340   -2.4340 C   0  0  0  0  0  0  0  0  0  0  0  0
   -1.8250   -1.9600   -1.6550 C   0  0  2  0  0  0  0  0  0  0  0  0
   -1.1840   -2.9570   -0.8950 O   0  0  0  0  0  0  0  0  0  0  0  0
   -2.2760   -3.7290    0.1860 P   0  0  0  0  0  0  0  0  0  0  0  0
   -2.4680   -1.0060   -0.6800 C   0  0  0  0  0  0  0  0  0  0  0  0
   -1.3880   -0.0890   -0.0880 C   0  0  1  0  0  0  0  0  0  0  0  0
   -2.1970    0.9560    1.1620 P   0  0  0  0  0  0  0  0  0  0  0  0
   -1.4250    1.0180    2.6730 O   0  0  0  0  0  0  0  0  0  0  0  0
   -2.3230    0.7470    3.6200 O   0  0  0  0  0  0  0  0  0  0  0  0
   -2.8070    2.5380    0.5560 C   0  0  0  0  0  0  0  0  0  0  0  0
   -3.6620    2.5600   -0.3610 O   0  0  0  0  0  0  0  0  0  0  0  0
   -2.3590    3.7440    1.0750 O   0  0  0  0  0  0  0  0  0  0  0  0
   -2.8750    4.9150    0.5570 N   0  0  0  0  0  0  0  0  0  0  0  0
   -4.3020    4.9590    0.7040 C   0  0  0  0  0  0  0  0  0  0  0  0
   -0.3710   -0.8880    0.3920 O   0  0  0  0  0  0  0  0  0  0  0  0
    0.7790   -0.6000   -0.2990 C   0  0  1  0  0  0  0  0  0  0  0  0
    0.5760    0.6620   -0.9100 N   0  0  0  0  0  0  0  0  0  0  0  0
    0.9530    1.8040   -0.1760 C   0  0  0  0  0  0  0  0  0  0  0  0
    1.6700    1.6040    1.0960 C   0  0  1  0  0  0  0  0  0  0  0  0
    1.6430    0.3500    1.6290 O   0  0  0  0  0  0  0  0  0  0  0  0
    1.9810   -0.5910    0.6540 C   0  0  1  0  0  0  0  0  0  0  0  0
    2.1450   -1.8650    1.1730 O   0  0  0  0  0  0  0  0  0  0  0  0
    3.2140   -0.1180   -0.0410 C   0  0  2  0  0  0  0  0  0  0  0  0
    4.1090   -1.2580   -0.4830 C   0  0  2  0  0  0  0  0  0  0  0  0
    5.2410   -0.7630   -1.1230 O   0  0  0  0  0  0  0  0  0  0  0  0
    3.4550   -2.0810   -1.3870 O   0  0  0  0  0  0  0  0  0  0  0  0
    4.5130   -2.0430    0.5890 O   0  0  0  0  0  0  0  0  0  0  0  0
    3.9390    0.8640    0.8270 C   0  0  2  0  0  0  0  0  0  0  0  0
    4.1960    0.3450    2.1580 N   0  0  0  0  0  0  0  0  0  0  0  0
    3.0760    2.0230    0.9930 N   0  0  0  0  0  0  0  0  0  0  0  0
    3.4780    2.6250    2.1500 O   0  0  0  0  0  0  0  0  0  0  0  0
   -0.8150    0.6350   -1.1960 N   0  0  0  0  0  0  0  0  0  0  0  0
   -1.0820    0.1140   -2.3890 O   0  0  0  0  0  0  0  0  0  0  0  0
   -0.9050   -1.2220   -2.4630 N   0  0  0  0  0  0  0  0  0  0  0  0
  1  2  1  0
  3  2  1  6
  3  4  1  0
  3  6  1  0
  3 35  1  0
  4  5  1  0
  6  7  1  0
  7  8  1  1
  7 16  1  0
  7 33  1  0
  8  9  1  0
  8 11  1  0
  9 10  1  0
 11 12  2  0
 11 13  1  0
 13 14  1  0
 14 15  1  0
 17 16  1  1
 17 18  1  0
 17 22  1  0
 18 19  1  0
 18 33  1  0
 20 19  1  6
 20 21  1  0
 20 31  1  0
 21 22  1  0
 22 23  1  1
 22 24  1  0
 24 25  1  1
 24 29  1  0
 25 26  1  6
 25 27  1  0
 25 28  1  0
 29 30  1  1
 29 31  1  0
 31 32  1  0
 33 34  1  0
 34 35  1  0
M  END
