
     RDKit          3D

 35 38  0  0  0  0  0  0  0  0999 V2000
   -3.1240    4.9790    1.0250 C   0  0  0  0  0  0  0  0  0  0  0  0
   -3.5060    3.7410    0.2550 C   0  0  0  0  0  0  0  0  0  0  0  0
   -2.3230    2.7980    0.2770 C   0  0  0  0  0  0  0  0  0  0  0  0
   -2.5360    1.5800   -0.4130 N   0  0  0  0  0  0  0  0  0  0  0  0
   -3.4480    0.5400   -0.0140 C   0  0  0  0  0  0  0  0  0  0  0  0
   -4.6950    0.8560    0.2280 N   0  0  0  0  0  0  0  0  0  0  0  0
   -5.3490   -0.3470    0.5820 C   0  0  0  0  0  0  0  0  0  0  0  0
   -6.5550   -0.5280    0.8990 O   0  0  0  0  0  0  0  0  0  0  0  0
   -4.3840   -1.4350    0.5340 C   0  0  0  0  0  0  0  0  0  0  0  0
   -4.5710   -2.8540    0.8220 C   0  0  0  0  0  0  0  0  0  0  0  0
   -5.5590   -3.5200   -0.1080 C   0  0  0  0  0  0  0  0  0  0  0  0
   -3.2110   -0.8720    0.1660 C   0  0  0  0  0  0  0  0  0  0  0  0
   -1.9820   -1.6020   -0.0520 C   0  0  0  0  0  0  0  0  0  0  0  0
   -0.7870   -1.1900   -0.3470 C   0  0  0  0  0  0  0  0  0  0  0  0
   -0.2910    0.0690   -0.5440 O   0  0  0  0  0  0  0  0  0  0  0  0
    1.0630    0.0250   -0.8250 C   0  0  1  0  0  0  0  0  0  0  0  0
    1.7550    0.7310    0.1650 O   0  0  0  0  0  0  0  0  0  0  0  0
    2.6120    1.7860   -0.0120 C   0  0  0  0  0  0  0  0  0  0  0  0
    2.9390    2.3080   -1.2170 C   0  0  0  0  0  0  0  0  0  0  0  0
    3.8150    3.3770   -1.3130 C   0  0  0  0  0  0  0  0  0  0  0  0
    4.3620    3.9170   -0.1560 C   0  0  0  0  0  0  0  0  0  0  0  0
    4.0520    3.4130    1.0820 C   0  0  0  0  0  0  0  0  0  0  0  0
    4.5620    3.9030    2.2720 O   0  0  0  0  0  0  0  0  0  0  0  0
    5.4560    4.9700    2.3840 C   0  0  0  0  0  0  0  0  0  0  0  0
    5.7230    5.1510    3.7400 O   0  0  0  0  0  0  0  0  0  0  0  0
    3.1800    2.3520    1.1370 C   0  0  0  0  0  0  0  0  0  0  0  0
    1.4530   -1.3990   -0.8290 C   0  0  0  0  0  0  0  0  0  0  0  0
    2.6700   -2.0040   -1.0640 C   0  0  0  0  0  0  0  0  0  0  0  0
    2.8020   -3.3700   -1.0080 C   0  0  0  0  0  0  0  0  0  0  0  0
    1.6870   -4.1290   -0.7090 C   0  0  0  0  0  0  0  0  0  0  0  0
    1.8040   -5.9530   -0.6200 P   0  0  0  0  0  0  0  0  0  0  0  0
    2.6660   -6.6030   -2.1350 C   0  0  0  0  0  0  0  0  0  0  0  0
    0.2140   -6.6130   -0.5440 O   0  0  0  0  0  0  0  0  0  0  0  0
    0.4800   -3.4970   -0.4770 C   0  0  0  0  0  0  0  0  0  0  0  0
    0.3530   -2.1350   -0.5350 C   0  0  0  0  0  0  0  0  0  0  0  0
  1  2  1  0
  2  3  1  0
  3  4  1  0
  4  5  1  0
  5  6  2  0
  5 12  1  0
  6  7  1  0
  7  8  2  0
  7  9  1  0
  9 10  1  0
  9 12  2  0
 10 11  1  0
 12 13  1  0
 13 14  2  3
 14 15  1  0
 14 35  1  0
 15 16  1  0
 16 17  1  1
 16 27  1  0
 17 18  1  0
 18 19  2  0
 18 26  1  0
 19 20  1  0
 20 21  2  0
 21 22  1  0
 22 23  1  0
 22 26  2  0
 23 24  1  0
 24 25  1  0
 27 28  2  0
 27 35  1  0
 28 29  1  0
 29 30  2  0
 30 31  1  0
 30 34  1  0
 31 32  1  0
 31 33  1  0
 34 35  2  0
M  END
