
     RDKit          3D

 35 36  0  0  0  0  0  0  0  0999 V2000
    5.5080    0.0810   -2.4030 C   0  0  0  0  0  0  0  0  0  0  0  0
    5.0920   -0.9070   -1.6370 C   0  0  0  0  0  0  0  0  0  0  0  0
    5.8590   -1.3630   -0.6080 O   0  0  0  0  0  0  0  0  0  0  0  0
    6.1990   -0.8060    0.6080 C   0  0  0  0  0  0  0  0  0  0  0  0
    6.9420    0.4860    0.5280 C   0  0  0  0  0  0  0  0  0  0  0  0
    8.1220    0.3180   -0.1610 O   0  0  0  0  0  0  0  0  0  0  0  0
    9.0100   -0.5810    0.3930 C   0  0  0  0  0  0  0  0  0  0  0  0
    3.7820   -1.5230   -1.9020 C   0  0  2  0  0  0  0  0  0  0  0  0
    3.3470   -1.3360   -3.2370 O   0  0  0  0  0  0  0  0  0  0  0  0
    2.6750   -0.9800   -1.0580 C   0  0  0  0  0  0  0  0  0  0  0  0
    2.8240    0.0330   -0.1460 C   0  0  0  0  0  0  0  0  0  0  0  0
    1.7460    0.4670    0.6230 C   0  0  0  0  0  0  0  0  0  0  0  0
    0.4790   -0.0800    0.5220 C   0  0  0  0  0  0  0  0  0  0  0  0
   -0.8240    0.5340    1.5530 P   0  0  0  0  0  0  0  0  0  0  0  0
   -0.4800    0.9610    3.2590 C   0  0  0  0  0  0  0  0  0  0  0  0
   -2.2410    1.3140    0.7490 C   0  0  0  0  0  0  0  0  0  0  0  0
   -3.4300    0.5720    0.4620 C   0  0  0  0  0  0  0  0  0  0  0  0
   -4.3980    1.2070   -0.1280 O   0  0  0  0  0  0  0  0  0  0  0  0
   -3.7020   -0.8280    0.7500 C   0  0  0  0  0  0  0  0  0  0  0  0
   -2.8810   -1.7290    1.3650 C   0  0  0  0  0  0  0  0  0  0  0  0
   -3.2180   -3.0370    1.5920 N   0  0  0  0  0  0  0  0  0  0  0  0
   -4.4020   -3.5000    1.2070 C   0  0  0  0  0  0  0  0  0  0  0  0
   -5.2720   -2.6420    0.5830 C   0  0  0  0  0  0  0  0  0  0  0  0
   -6.5380   -3.1060    0.1610 O   0  0  0  0  0  0  0  0  0  0  0  0
   -6.9830   -4.4100    0.3280 C   0  0  0  0  0  0  0  0  0  0  0  0
   -6.1810   -5.4690   -0.3510 C   0  0  0  0  0  0  0  0  0  0  0  0
   -4.9630   -1.3340    0.3440 C   0  0  0  0  0  0  0  0  0  0  0  0
   -2.1730    2.6130    0.4070 C   0  0  0  0  0  0  0  0  0  0  0  0
   -0.8460    3.2790    0.7610 C   0  0  0  0  0  0  0  0  0  0  0  0
   -3.1640    3.4270   -0.2170 C   0  0  0  0  0  0  0  0  0  0  0  0
   -2.8720    4.7220   -0.4720 C   0  0  0  0  0  0  0  0  0  0  0  0
   -3.8120    5.6400   -1.1050 C   0  0  0  0  0  0  0  0  0  0  0  0
   -3.2340    6.1430   -2.3530 N   0  0  0  0  0  0  0  0  0  0  0  0
    0.3340   -1.1100   -0.4100 C   0  0  0  0  0  0  0  0  0  0  0  0
    1.4010   -1.5290   -1.1600 C   0  0  0  0  0  0  0  0  0  0  0  0
  1  2  2  0
  2  3  1  0
  2  8  1  0
  3  4  1  0
  4  5  1  0
  5  6  1  0
  6  7  1  0
  8  9  1  6
  8 10  1  0
 10 11  2  0
 10 35  1  0
 11 12  1  0
 12 13  2  0
 13 14  1  0
 13 34  1  0
 14 15  1  0
 14 16  1  0
 16 17  1  0
 16 28  2  3
 17 18  2  0
 17 19  1  0
 19 20  2  0
 19 27  1  0
 20 21  1  0
 21 22  2  0
 22 23  1  0
 23 24  1  0
 23 27  2  0
 24 25  1  0
 25 26  1  0
 28 29  1  0
 28 30  1  0
 30 31  2  3
 31 32  1  0
 32 33  1  0
 34 35  2  0
M  END
