
     RDKit          3D

 39 42  0  0  0  0  0  0  0  0999 V2000
   -7.9230   -4.1060   -1.2400 N   0  0  0  0  0  0  0  0  0  0  0  0
   -7.1310   -2.9590   -1.4510 C   0  0  0  0  0  0  0  0  0  0  0  0
   -7.4460   -2.1410   -2.4950 N   0  0  0  0  0  0  0  0  0  0  0  0
   -6.7220   -1.0410   -2.6980 C   0  0  0  0  0  0  0  0  0  0  0  0
   -5.7280   -0.7890   -1.8630 N   0  0  0  0  0  0  0  0  0  0  0  0
   -5.3470   -1.5390   -0.8100 C   0  0  0  0  0  0  0  0  0  0  0  0
   -6.0830   -2.7050   -0.5730 C   0  0  0  0  0  0  0  0  0  0  0  0
   -5.5100   -3.2530    0.4870 N   0  0  0  0  0  0  0  0  0  0  0  0
   -4.5000   -2.4900    0.8780 C   0  0  0  0  0  0  0  0  0  0  0  0
   -4.3730   -1.4250    0.1050 N   0  0  0  0  0  0  0  0  0  0  0  0
   -3.4670   -0.3330    0.1130 C   0  0  2  0  0  0  0  0  0  0  0  0
   -2.1920   -0.6320    0.6880 O   0  0  0  0  0  0  0  0  0  0  0  0
   -1.6260    0.6380    0.3270 C   0  0  2  0  0  0  0  0  0  0  0  0
   -0.1890    0.7690    0.5560 C   0  0  0  0  0  0  0  0  0  0  0  0
    0.1780    2.0130    0.0490 O   0  0  0  0  0  0  0  0  0  0  0  0
    1.7720    2.1050   -0.2410 P   0  0  0  0  0  0  0  0  0  0  0  0
    1.5030    3.0460   -1.4450 O   0  0  0  0  0  0  0  0  0  0  0  0
    2.3640    0.8960   -1.2370 O   0  0  0  0  0  0  0  0  0  0  0  0
    2.1910    1.3380    0.9990 O   0  0  0  0  0  0  0  0  0  0  0  0
    3.6830    0.6980    1.2040 P   0  0  0  0  0  0  0  0  0  0  0  0
    4.5510    1.2390    2.5860 O   0  0  0  0  0  0  0  0  0  0  0  0
    4.3320    1.7560    0.3570 O   0  0  0  0  0  0  0  0  0  0  0  0
    4.3840   -0.5820    0.4940 O   0  0  0  0  0  0  0  0  0  0  0  0
    5.2990   -0.3060   -0.5260 C   0  0  0  0  0  0  0  0  0  0  0  0
    6.6370   -0.7870   -0.1000 C   0  0  1  0  0  0  0  0  0  0  0  0
    6.8340   -2.0970    0.1630 O   0  0  0  0  0  0  0  0  0  0  0  0
    8.2170   -2.1300    0.4840 C   0  0  0  0  0  0  0  0  0  0  0  0
    8.8320   -1.2920   -0.6350 C   0  0  2  0  0  0  0  0  0  0  0  0
    9.9240   -0.6090   -0.1850 O   0  0  0  0  0  0  0  0  0  0  0  0
    7.7360   -0.2640   -0.9610 C   0  0  2  0  0  0  0  0  0  0  0  0
    8.1520    1.0290   -0.5400 O   0  0  0  0  0  0  0  0  0  0  0  0
   -2.5330    1.6550    0.9170 C   0  0  1  0  0  0  0  0  0  0  0  0
   -2.8310    2.5990   -0.0720 O   0  0  0  0  0  0  0  0  0  0  0  0
   -3.8450    0.8000    1.0290 C   0  0  1  0  0  0  0  0  0  0  0  0
   -4.9380    1.4670    0.5490 O   0  0  0  0  0  0  0  0  0  0  0  0
   -5.8960    1.7090    1.9160 P   0  0  0  0  0  0  0  0  0  0  0  0
   -6.5760    0.3710    1.6630 O   0  0  0  0  0  0  0  0  0  0  0  0
   -7.3260    2.5310    1.7180 O   0  0  0  0  0  0  0  0  0  0  0  0
   -5.2860    1.4010    3.3810 O   0  0  0  0  0  0  0  0  0  0  0  0
  1  2  1  0
  2  3  2  0
  2  7  1  0
  3  4  1  0
  4  5  2  0
  5  6  1  0
  6  7  2  0
  6 10  1  0
  7  8  1  0
  8  9  2  0
  9 10  1  0
 11 10  1  1
 11 12  1  0
 11 34  1  0
 12 13  1  0
 13 14  1  1
 13 32  1  0
 14 15  1  0
 15 16  1  0
 16 17  1  0
 16 18  1  0
 16 19  1  0
 19 20  1  0
 20 21  1  0
 20 22  1  0
 20 23  1  0
 23 24  1  0
 25 24  1  6
 25 26  1  0
 25 30  1  0
 26 27  1  0
 27 28  1  0
 28 29  1  1
 28 30  1  0
 30 31  1  1
 32 33  1  6
 32 34  1  0
 34 35  1  6
 35 36  1  0
 36 37  1  0
 36 38  1  0
 36 39  1  0
M  END
