
     RDKit          3D

 34 36  0  0  0  0  0  0  0  0999 V2000
    6.7720    0.6320    1.0190 C   0  0  0  0  0  0  0  0  0  0  0  0
    7.4130    1.9520    0.7840 C   0  0  0  0  0  0  0  0  0  0  0  0
    7.5050    2.4360   -0.4640 O   0  0  0  0  0  0  0  0  0  0  0  0
    6.4090    2.7160   -1.1990 C   0  0  0  0  0  0  0  0  0  0  0  0
    5.5370    1.5770   -1.5170 C   0  0  0  0  0  0  0  0  0  0  0  0
    4.1560    1.6340   -1.3000 C   0  0  0  0  0  0  0  0  0  0  0  0
    3.3190    0.5850   -1.6080 C   0  0  0  0  0  0  0  0  0  0  0  0
    1.9460    0.6280   -1.3970 O   0  0  0  0  0  0  0  0  0  0  0  0
    1.3940    1.8070   -0.8410 C   0  0  0  0  0  0  0  0  0  0  0  0
   -0.0650    1.7170   -0.6730 C   0  0  0  0  0  0  0  0  0  0  0  0
   -0.6590    0.7210   -0.1320 N   0  0  0  0  0  0  0  0  0  0  0  0
    0.0460   -0.4190    0.3670 C   0  0  0  0  0  0  0  0  0  0  0  0
   -0.8100   -1.1130    1.3550 C   0  0  0  0  0  0  0  0  0  0  0  0
   -0.3870   -2.1470    1.8960 O   0  0  0  0  0  0  0  0  0  0  0  0
   -2.4670   -0.4640    1.7750 P   0  0  0  0  0  0  0  0  0  0  0  0
   -3.7780   -1.4600    1.6360 C   0  0  0  0  0  0  0  0  0  0  0  0
   -3.5950   -2.8400    1.1820 C   0  0  0  0  0  0  0  0  0  0  0  0
   -4.7100   -3.7080    1.2710 N   0  0  0  0  0  0  0  0  0  0  0  0
   -5.9870   -3.1280    1.4890 C   0  0  0  0  0  0  0  0  0  0  0  0
   -5.9060   -2.0720    2.5720 C   0  0  0  0  0  0  0  0  0  0  0  0
   -5.1120   -0.9190    1.9860 C   0  0  2  0  0  0  0  0  0  0  0  0
   -5.7720   -0.3490    0.9020 O   0  0  0  0  0  0  0  0  0  0  0  0
   -6.1230    0.9560    1.1640 C   0  0  2  0  0  0  0  0  0  0  0  0
   -7.6360    1.0840    1.1680 C   0  0  0  0  0  0  0  0  0  0  0  0
   -5.5090    1.9020    0.1480 C   0  0  0  0  0  0  0  0  0  0  0  0
   -5.9080    3.3010    0.4630 C   0  0  0  0  0  0  0  0  0  0  0  0
   -5.3720    3.8730    1.3700 O   0  0  0  0  0  0  0  0  0  0  0  0
    3.9150   -0.5490   -2.1520 C   0  0  0  0  0  0  0  0  0  0  0  0
    3.1030   -1.6040   -2.4660 C   0  0  0  0  0  0  0  0  0  0  0  0
    3.6700   -2.7440   -3.0100 C   0  0  0  0  0  0  0  0  0  0  0  0
    5.0230   -2.7940   -3.2210 C   0  0  0  0  0  0  0  0  0  0  0  0
    5.8590   -1.7460   -2.9120 C   0  0  0  0  0  0  0  0  0  0  0  0
    5.2770   -0.6110   -2.3680 C   0  0  0  0  0  0  0  0  0  0  0  0
    6.1140    0.4380   -2.0610 C   0  0  0  0  0  0  0  0  0  0  0  0
  1  2  1  0
  2  3  1  0
  3  4  1  0
  4  5  1  0
  5  6  2  0
  5 34  1  0
  6  7  1  0
  7  8  1  0
  7 28  2  0
  8  9  1  0
  9 10  1  0
 10 11  2  3
 11 12  1  0
 12 13  1  0
 13 14  2  0
 13 15  1  0
 15 16  2  3
 16 17  1  0
 16 21  1  0
 17 18  1  0
 18 19  1  0
 19 20  1  0
 20 21  1  0
 21 22  1  6
 22 23  1  0
 23 24  1  6
 23 25  1  0
 25 26  1  0
 26 27  2  0
 28 29  1  0
 28 33  1  0
 29 30  2  0
 30 31  1  0
 31 32  2  0
 32 33  1  0
 33 34  2  0
M  END
