
     RDKit          3D

 35 37  0  0  0  0  0  0  0  0999 V2000
    3.5050    2.6560   -0.4080 C   0  0  0  0  0  0  0  0  0  0  0  0
    4.2060    2.0370    0.4740 N   0  0  0  0  0  0  0  0  0  0  0  0
    5.3540    1.2250    0.0990 C   0  0  0  0  0  0  0  0  0  0  0  0
    5.0730    0.0510   -0.3940 C   0  0  0  0  0  0  0  0  0  0  0  0
    3.6710   -0.4030   -0.5510 C   0  0  0  0  0  0  0  0  0  0  0  0
    3.3990   -1.5620   -1.0310 C   0  0  0  0  0  0  0  0  0  0  0  0
    2.1510   -2.1750   -1.2610 C   0  0  0  0  0  0  0  0  0  0  0  0
    0.9200   -1.7510   -1.0280 C   0  0  0  0  0  0  0  0  0  0  0  0
    0.4300   -0.5960   -0.4870 C   0  0  0  0  0  0  0  0  0  0  0  0
   -0.9710   -0.6790   -0.4800 C   0  0  0  0  0  0  0  0  0  0  0  0
   -1.8010    0.3170    0.0020 O   0  0  0  0  0  0  0  0  0  0  0  0
   -1.2840    1.4640    0.4960 O   0  0  0  0  0  0  0  0  0  0  0  0
   -1.8530    2.7090    0.4870 C   0  0  0  0  0  0  0  0  0  0  0  0
   -2.4450    3.1560   -0.5980 C   0  0  0  0  0  0  0  0  0  0  0  0
   -3.0520    4.5040   -0.5830 C   0  0  0  0  0  0  0  0  0  0  0  0
   -2.9920    5.2030    0.4930 N   0  0  0  0  0  0  0  0  0  0  0  0
   -3.5790    6.5340    0.5350 C   0  0  0  0  0  0  0  0  0  0  0  0
   -1.2760   -1.8860   -1.0180 C   0  0  0  0  0  0  0  0  0  0  0  0
   -2.4840   -2.4200   -1.2200 C   0  0  0  0  0  0  0  0  0  0  0  0
   -2.5760   -3.7800   -1.8350 C   0  0  0  0  0  0  0  0  0  0  0  0
   -3.7690   -1.7630   -0.8910 C   0  0  0  0  0  0  0  0  0  0  0  0
   -4.6120   -2.5990   -0.2890 O   0  0  0  0  0  0  0  0  0  0  0  0
   -5.6240   -3.1290    0.2780 C   0  0  0  0  0  0  0  0  0  0  0  0
   -6.8110   -2.4360    0.5060 C   0  0  0  0  0  0  0  0  0  0  0  0
   -7.8930   -3.0110    1.1060 C   0  0  0  0  0  0  0  0  0  0  0  0
   -7.8520   -4.3280    1.5220 C   0  0  0  0  0  0  0  0  0  0  0  0
   -8.9480   -4.9150    2.1280 O   0  0  0  0  0  0  0  0  0  0  0  0
   -6.6960   -5.0500    1.3180 C   0  0  0  0  0  0  0  0  0  0  0  0
   -5.6200   -4.4710    0.7180 C   0  0  0  0  0  0  0  0  0  0  0  0
   -0.1620   -2.4800   -1.3240 O   0  0  0  0  0  0  0  0  0  0  0  0
    6.7050    1.7820    0.2920 C   0  0  2  0  0  0  0  0  0  0  0  0
    7.0470    2.1110    1.7310 C   0  0  0  0  0  0  0  0  0  0  0  0
    6.9740    0.8350    2.5440 C   0  0  0  0  0  0  0  0  0  0  0  0
    7.3390    2.5580   -0.8010 C   0  0  0  0  0  0  0  0  0  0  0  0
    7.8270    1.1810   -0.4950 C   0  0  0  0  0  0  0  0  0  0  0  0
  1  2  2  0
  2  3  1  0
  3  4  2  3
  3 31  1  0
  4  5  1  0
  5  6  2  3
  6  7  1  0
  7  8  2  3
  8  9  1  0
  8 30  1  0
  9 10  2  0
 10 11  1  0
 10 18  1  0
 11 12  1  0
 12 13  1  0
 13 14  2  3
 14 15  1  0
 15 16  2  3
 16 17  1  0
 18 19  2  3
 18 30  1  0
 19 20  1  0
 19 21  1  0
 21 22  1  0
 22 23  1  0
 23 24  2  0
 23 29  1  0
 24 25  1  0
 25 26  2  0
 26 27  1  0
 26 28  1  0
 28 29  2  0
 31 32  1  1
 31 34  1  0
 31 35  1  0
 32 33  1  0
 34 35  1  0
M  END
