
     RDKit          3D

 35 38  0  0  0  0  0  0  0  0999 V2000
   -4.9200   -3.1890   -0.0850 C   0  0  0  0  0  0  0  0  0  0  0  0
   -4.1290   -2.6140   -0.9210 C   0  0  0  0  0  0  0  0  0  0  0  0
   -3.7100   -1.2790   -1.0620 C   0  0  0  0  0  0  0  0  0  0  0  0
   -2.8510   -1.0300   -2.0790 C   0  0  0  0  0  0  0  0  0  0  0  0
   -2.3910   -2.1080   -2.9740 C   0  0  0  0  0  0  0  0  0  0  0  0
   -4.0540   -0.0840   -0.2440 C   0  0  0  0  0  0  0  0  0  0  0  0
   -4.8560    0.0230    0.7840 C   0  0  0  0  0  0  0  0  0  0  0  0
   -4.8870    1.4050    1.2740 C   0  0  0  0  0  0  0  0  0  0  0  0
   -4.1030    2.1280    0.5460 C   0  0  0  0  0  0  0  0  0  0  0  0
   -3.8840    3.5090    0.7200 O   0  0  0  0  0  0  0  0  0  0  0  0
   -4.7540    4.3120    1.2990 O   0  0  0  0  0  0  0  0  0  0  0  0
   -4.4000    4.6110    2.6160 C   0  0  0  0  0  0  0  0  0  0  0  0
   -3.4760    1.2700   -0.4830 C   0  0  1  0  0  0  0  0  0  0  0  0
   -2.0760    1.2850   -0.3420 O   0  0  0  0  0  0  0  0  0  0  0  0
   -1.2290    2.0820   -1.0420 C   0  0  0  0  0  0  0  0  0  0  0  0
   -1.6240    3.0070   -1.9680 C   0  0  0  0  0  0  0  0  0  0  0  0
   -0.6630    3.7520   -2.6100 C   0  0  0  0  0  0  0  0  0  0  0  0
    0.6730    3.5800   -2.3350 C   0  0  0  0  0  0  0  0  0  0  0  0
    1.0890    2.6590   -1.4110 C   0  0  0  0  0  0  0  0  0  0  0  0
    0.1500    1.8690   -0.7240 C   0  0  0  0  0  0  0  0  0  0  0  0
    0.5100    0.9880    0.1550 O   0  0  0  0  0  0  0  0  0  0  0  0
    0.8980    0.1180    1.0270 C   0  0  0  0  0  0  0  0  0  0  0  0
    1.8320   -1.0110    0.4930 C   0  0  1  0  0  0  0  0  0  0  0  0
    3.0880   -0.3590    0.0540 C   0  0  0  0  0  0  0  0  0  0  0  0
    4.0890   -0.7740    1.1330 C   0  0  1  0  0  0  0  0  0  0  0  0
    4.9840    0.3720    1.5190 C   0  0  0  0  0  0  0  0  0  0  0  0
    5.9710   -0.0500    2.5880 C   0  0  0  0  0  0  0  0  0  0  0  0
    6.8060    1.0030    2.9540 O   0  0  0  0  0  0  0  0  0  0  0  0
    3.1900   -1.2030    2.2980 C   0  0  0  0  0  0  0  0  0  0  0  0
    2.1140   -1.8440    1.5800 N   0  0  0  0  0  0  0  0  0  0  0  0
    2.5030   -3.1890    1.3520 C   0  0  0  0  0  0  0  0  0  0  0  0
    3.0240   -3.4050   -0.4290 P   0  0  0  0  0  0  0  0  0  0  0  0
    1.7370   -2.6040   -1.3870 N   0  0  0  0  0  0  0  0  0  0  0  0
    2.1580   -2.1860   -2.6800 C   0  0  0  0  0  0  0  0  0  0  0  0
    1.0320   -1.6190   -0.6230 C   0  0  0  0  0  0  0  0  0  0  0  0
  1  2  2  0
  2  3  1  0
  3  4  2  3
  3  6  1  0
  4  5  1  0
  6  7  2  0
  6 13  1  0
  7  8  1  0
  8  9  2  0
  9 10  1  0
  9 13  1  0
 10 11  1  0
 11 12  1  0
 13 14  1  1
 14 15  1  0
 15 16  2  0
 15 20  1  0
 16 17  1  0
 17 18  2  0
 18 19  1  0
 19 20  2  0
 20 21  1  0
 21 22  1  0
 23 22  1  1
 23 24  1  0
 23 30  1  0
 23 35  1  0
 24 25  1  0
 25 26  1  1
 25 29  1  0
 26 27  1  0
 27 28  1  0
 29 30  1  0
 30 31  1  0
 31 32  1  0
 32 33  1  0
 33 34  1  0
 33 35  1  0
M  END
