
     RDKit          3D

 14 15  0  0  0  0  0  0  0  0999 V2000
   -4.1330   -1.3290   -0.0880 O   0  0  0  0  0  0  0  0  0  0  0  0
   -3.1060   -0.6140   -0.1050 C   0  0  0  0  0  0  0  0  0  0  0  0
   -3.2550    0.8360    0.1310 C   0  0  0  0  0  0  0  0  0  0  0  0
   -2.0840    1.5640   -0.0620 O   0  0  0  0  0  0  0  0  0  0  0  0
   -0.8010    1.0420   -0.0470 C   0  0  0  0  0  0  0  0  0  0  0  0
    0.2890    1.8050   -0.1740 C   0  0  0  0  0  0  0  0  0  0  0  0
    1.6210    1.1590   -0.1460 C   0  0  0  0  0  0  0  0  0  0  0  0
    2.6280    1.8450   -0.3800 O   0  0  0  0  0  0  0  0  0  0  0  0
    1.6380   -0.2730    0.1620 C   0  0  2  0  0  0  0  0  0  0  0  0
    2.9130   -0.9670   -0.1570 C   0  0  0  0  0  0  0  0  0  0  0  0
    3.9500   -0.3680    0.5660 O   0  0  0  0  0  0  0  0  0  0  0  0
    0.5350   -0.8860   -0.5860 N   0  0  0  0  0  0  0  0  0  0  0  0
   -0.6710   -0.4300    0.1180 C   0  0  2  0  0  0  0  0  0  0  0  0
   -1.8180   -1.1440   -0.3410 N   0  0  0  0  0  0  0  0  0  0  0  0
  1  2  2  0
  2  3  1  0
  2 14  1  0
  3  4  1  0
  4  5  1  0
  5  6  2  0
  5 13  1  0
  6  7  1  0
  7  8  2  0
  7  9  1  0
  9 10  1  6
  9 12  1  0
 10 11  1  0
 13 12  1  6
 13 14  1  0
M  END
