
     RDKit          3D

 26 27  0  0  0  0  0  0  0  0999 V2000
   -1.2040   -0.2040    1.4770 C   0  0  0  0  0  0  0  0  0  0  0  0
   -0.6070   -0.3370    0.3690 C   0  0  0  0  0  0  0  0  0  0  0  0
    0.5260    0.5770    0.0140 C   0  0  0  0  0  0  0  0  0  0  0  0
    0.2760    1.8300    0.0560 C   0  0  0  0  0  0  0  0  0  0  0  0
    1.3380    3.2120   -0.3150 S   0  0  0  0  0  0  0  0  0  0  0  0
    0.3720    4.5010   -1.1780 C   0  0  0  0  0  0  0  0  0  0  0  0
    1.8340    0.0080   -0.3190 C   0  0  0  0  0  0  0  0  0  0  0  0
    2.9870    0.6470    0.2040 C   0  0  0  0  0  0  0  0  0  0  0  0
    4.1090    0.2810   -0.2580 O   0  0  0  0  0  0  0  0  0  0  0  0
    3.0110    1.6360    1.2040 N   0  0  0  0  0  0  0  0  0  0  0  0
    4.2500    2.2210    1.6270 C   0  0  0  0  0  0  0  0  0  0  0  0
    4.2950    3.3710    2.7880 S   0  0  0  0  0  0  0  0  0  0  0  0
    5.4230    1.7890    1.0290 O   0  0  0  0  0  0  0  0  0  0  0  0
    6.3270    1.0030    1.7660 C   0  0  0  0  0  0  0  0  0  0  0  0
    2.0380   -1.0900   -1.0930 C   0  0  0  0  0  0  0  0  0  0  0  0
    1.0180   -1.9140   -1.7260 C   0  0  0  0  0  0  0  0  0  0  0  0
   -0.2880   -2.0780   -1.4760 C   0  0  0  0  0  0  0  0  0  0  0  0
   -0.8910   -2.9960   -2.3680 N   0  0  0  0  0  0  0  0  0  0  0  0
   -2.1540   -3.1220   -2.3140 C   0  0  0  0  0  0  0  0  0  0  0  0
   -2.9740   -2.3830   -1.3980 C   0  0  0  0  0  0  0  0  0  0  0  0
   -4.4400   -2.6460   -1.4010 C   0  0  0  0  0  0  0  0  0  0  0  0
   -5.1240   -2.1580   -2.9930 Cl  0  0  0  0  0  0  0  0  0  0  0  0
   -2.5170   -1.4800   -0.4690 C   0  0  0  0  0  0  0  0  0  0  0  0
   -3.4230   -0.7710    0.3740 C   0  0  0  0  0  0  0  0  0  0  0  0
   -3.9430   -1.1970    1.6130 N   0  0  0  0  0  0  0  0  0  0  0  0
   -1.1200   -1.3400   -0.5370 N   0  0  0  0  0  0  0  0  0  0  0  0
  1  2  2  0
  2  3  1  0
  2 26  1  0
  3  4  2  3
  3  7  1  0
  4  5  1  0
  5  6  1  0
  7  8  1  0
  7 15  2  0
  8  9  2  0
  8 10  1  0
 10 11  1  0
 11 12  2  0
 11 13  1  0
 13 14  1  0
 15 16  1  0
 16 17  2  0
 17 18  1  0
 17 26  1  0
 18 19  2  0
 19 20  1  0
 20 21  1  0
 20 23  2  0
 21 22  1  0
 23 24  1  0
 23 26  1  0
 24 25  1  0
M  CHG  1  25   1
M  END
