
     RDKit          3D

 13 13  0  0  0  0  0  0  0  0999 V2000
    3.5440    1.7740    0.1950 N   0  0  0  0  0  0  0  0  0  0  0  0
    2.7400    0.6570    0.5620 C   0  0  0  0  0  0  0  0  0  0  0  0
    2.2230   -0.1240   -0.3730 C   0  0  0  0  0  0  0  0  0  0  0  0
    2.4560    0.1350   -1.7000 O   0  0  0  0  0  0  0  0  0  0  0  0
    1.3870   -1.2860   -0.0060 C   0  0  0  0  0  0  0  0  0  0  0  0
    0.0720   -1.1670   -0.5620 N   0  0  0  0  0  0  0  0  0  0  0  0
   -0.7850   -2.2500   -0.2490 C   0  0  0  0  0  0  0  0  0  0  0  0
   -1.9090   -1.7070    0.6220 C   0  0  0  0  0  0  0  0  0  0  0  0
   -2.6670   -0.9140   -0.2300 O   0  0  0  0  0  0  0  0  0  0  0  0
   -1.9570    0.2450   -0.4930 C   0  0  1  0  0  0  0  0  0  0  0  0
   -2.4940    1.3160    0.4440 C   0  0  0  0  0  0  0  0  0  0  0  0
   -1.8050    2.5020    0.2130 O   0  0  0  0  0  0  0  0  0  0  0  0
   -0.4950    0.1340   -0.4520 C   0  0  0  0  0  0  0  0  0  0  0  0
  1  2  1  0
  2  3  2  3
  3  4  1  0
  3  5  1  0
  5  6  1  0
  6  7  1  0
  6 13  1  0
  7  8  1  0
  8  9  1  0
  9 10  1  0
 10 11  1  1
 10 13  1  0
 11 12  1  0
M  END
