
     RDKit          3D

 14 15  0  0  0  0  0  0  0  0999 V2000
   -0.8850   -1.6740    1.6820 N   0  0  0  0  0  0  0  0  0  0  0  0
   -1.4040   -0.7540    0.7490 C   0  0  0  0  0  0  0  0  0  0  0  0
   -2.7510   -0.8230    0.5740 C   0  0  0  0  0  0  0  0  0  0  0  0
   -3.4230    0.0550   -0.3470 C   0  0  0  0  0  0  0  0  0  0  0  0
   -2.7020    0.9360   -1.0250 C   0  0  0  0  0  0  0  0  0  0  0  0
   -1.3390    1.0230   -0.8630 O   0  0  0  0  0  0  0  0  0  0  0  0
   -0.6070    0.1900    0.0280 C   0  0  0  0  0  0  0  0  0  0  0  0
    0.6940    0.3650    0.0980 C   0  0  0  0  0  0  0  0  0  0  0  0
    1.3960    1.3450   -0.6740 O   0  0  0  0  0  0  0  0  0  0  0  0
    2.7170    0.8610   -0.8300 C   0  0  1  0  0  0  0  0  0  0  0  0
    3.6050    1.8290   -1.2170 O   0  0  0  0  0  0  0  0  0  0  0  0
    2.9640    0.3610    0.5060 N   0  0  0  0  0  0  0  0  0  0  0  0
    1.7120   -0.2870    0.8760 C   0  0  0  0  0  0  0  0  0  0  0  0
    1.6160   -1.2160    1.7100 O   0  0  0  0  0  0  0  0  0  0  0  0
  1  2  1  0
  2  3  2  0
  2  7  1  0
  3  4  1  0
  4  5  2  0
  5  6  1  0
  6  7  1  0
  7  8  2  3
  8  9  1  0
  8 13  1  0
  9 10  1  0
 10 11  1  1
 10 12  1  0
 12 13  1  0
 13 14  2  0
M  END
