
     RDKit          3D

 14 15  0  0  0  0  0  0  0  0999 V2000
    3.4210    1.1170   -1.2400 N   0  0  0  0  0  0  0  0  0  0  0  0
    2.3230    0.2630   -1.2380 N   0  0  0  0  0  0  0  0  0  0  0  0
    1.5920    0.2240   -0.1860 C   0  0  0  0  0  0  0  0  0  0  0  0
    1.8260    0.9810    0.9540 O   0  0  0  0  0  0  0  0  0  0  0  0
    0.4170   -0.6820   -0.1690 C   0  0  1  0  0  0  0  0  0  0  0  0
    0.2790   -1.3840   -1.3460 O   0  0  0  0  0  0  0  0  0  0  0  0
    0.5190   -1.6400    1.0180 C   0  0  0  0  0  0  0  0  0  0  0  0
   -0.4660   -1.0880    2.0310 C   0  0  0  0  0  0  0  0  0  0  0  0
   -0.8690    0.1510    1.5600 O   0  0  0  0  0  0  0  0  0  0  0  0
   -0.7900    0.1200    0.1860 C   0  0  2  0  0  0  0  0  0  0  0  0
   -2.0260   -0.4420   -0.4740 C   0  0  0  0  0  0  0  0  0  0  0  0
   -2.8450    0.7810   -0.7320 C   0  0  0  0  0  0  0  0  0  0  0  0
   -2.0410    1.8810   -0.6930 O   0  0  0  0  0  0  0  0  0  0  0  0
   -0.7670    1.5260   -0.3640 C   0  0  0  0  0  0  0  0  0  0  0  0
  1  2  1  0
  2  3  2  3
  3  4  1  0
  3  5  1  0
  5  6  1  6
  5  7  1  0
  5 10  1  0
  7  8  1  0
  8  9  1  0
  9 10  1  0
 10 11  1  6
 10 14  1  0
 11 12  1  0
 12 13  1  0
 13 14  1  0
M  END
