
     RDKit          3D

 14 15  0  0  0  0  0  0  0  0999 V2000
    3.1590   -1.8670    0.2900 C   0  0  0  0  0  0  0  0  0  0  0  0
    2.5880   -0.5390    0.7390 C   0  0  1  0  0  0  0  0  0  0  0  0
    2.9470    0.5440   -0.1480 N   0  0  0  0  0  0  0  0  0  0  0  0
    1.7830    1.3360   -0.3450 C   0  0  0  0  0  0  0  0  0  0  0  0
    0.7470    0.6510    0.1080 C   0  0  0  0  0  0  0  0  0  0  0  0
   -0.6460    1.1450    0.0770 C   0  0  1  0  0  0  0  0  0  0  0  0
   -0.7290    2.4050   -0.4820 O   0  0  0  0  0  0  0  0  0  0  0  0
   -1.5720    0.2140   -0.6850 C   0  0  2  0  0  0  0  0  0  0  0  0
   -2.9870    0.6720   -0.4750 C   0  0  0  0  0  0  0  0  0  0  0  0
   -3.6890   -0.5340   -0.0810 N   0  0  0  0  0  0  0  0  0  0  0  0
   -2.7940   -1.6550   -0.1120 C   0  0  0  0  0  0  0  0  0  0  0  0
   -3.1140   -2.8710   -0.1060 O   0  0  0  0  0  0  0  0  0  0  0  0
   -1.5250   -1.0990   -0.1500 O   0  0  0  0  0  0  0  0  0  0  0  0
    1.1710   -0.5760    0.6050 O   0  0  0  0  0  0  0  0  0  0  0  0
  2  1  1  6
  2  3  1  0
  2 14  1  0
  3  4  1  0
  4  5  2  0
  5  6  1  0
  5 14  1  0
  6  7  1  6
  6  8  1  0
  8  9  1  1
  8 13  1  0
  9 10  1  0
 10 11  1  0
 11 12  2  0
 11 13  1  0
M  END
