
     RDKit          3D

 37 41  0  0  0  0  0  0  0  0999 V2000
   -7.4680   -1.6330   -4.5270 C   0  0  0  0  0  0  0  0  0  0  0  0
   -6.7300   -1.1080   -3.3580 C   0  0  0  0  0  0  0  0  0  0  0  0
   -7.3720   -0.4120   -2.3580 C   0  0  0  0  0  0  0  0  0  0  0  0
   -6.7080    0.0790   -1.2660 C   0  0  0  0  0  0  0  0  0  0  0  0
   -5.3270   -0.1320   -1.1570 C   0  0  0  0  0  0  0  0  0  0  0  0
   -4.6560   -0.8200   -2.1350 C   0  0  0  0  0  0  0  0  0  0  0  0
   -5.3910   -1.2950   -3.2230 C   0  0  0  0  0  0  0  0  0  0  0  0
   -3.3270   -1.0420   -2.0690 O   0  0  0  0  0  0  0  0  0  0  0  0
   -2.5590   -0.5440   -0.9350 C   0  0  0  0  0  0  0  0  0  0  0  0
   -1.2120   -0.8790   -1.0470 N   0  0  0  0  0  0  0  0  0  0  0  0
   -0.0980   -0.6810   -0.2880 C   0  0  0  0  0  0  0  0  0  0  0  0
   -0.1470   -0.0910    0.7620 O   0  0  0  0  0  0  0  0  0  0  0  0
    1.2630   -1.1970   -0.7250 C   0  0  0  0  0  0  0  0  0  0  0  0
    2.2100   -0.8510    0.2870 N   0  0  0  0  0  0  0  0  0  0  0  0
    2.0790   -1.3430    1.6130 C   0  0  0  0  0  0  0  0  0  0  0  0
    1.0730   -2.1020    1.8350 O   0  0  0  0  0  0  0  0  0  0  0  0
    3.0240   -1.0260    2.7160 C   0  0  0  0  0  0  0  0  0  0  0  0
    4.1290   -0.2920    2.2970 O   0  0  0  0  0  0  0  0  0  0  0  0
    5.0340   -0.7950    1.3990 C   0  0  0  0  0  0  0  0  0  0  0  0
    4.8920   -1.9430    0.9320 O   0  0  0  0  0  0  0  0  0  0  0  0
    6.1720    0.0000    0.9770 C   0  0  0  0  0  0  0  0  0  0  0  0
    7.1090   -0.4820    0.0780 C   0  0  0  0  0  0  0  0  0  0  0  0
    8.1530    0.3350   -0.2700 C   0  0  0  0  0  0  0  0  0  0  0  0
    8.3260    1.6070    0.2200 C   0  0  0  0  0  0  0  0  0  0  0  0
    9.2420    2.5850    0.0410 N   0  0  0  0  0  0  0  0  0  0  0  0
    8.8980    3.6400    0.7930 C   0  0  0  0  0  0  0  0  0  0  0  0
    7.7670    3.3190    1.4430 N   0  0  0  0  0  0  0  0  0  0  0  0
    7.3760    2.0560    1.1120 C   0  0  0  0  0  0  0  0  0  0  0  0
    6.3110    1.2690    1.4890 C   0  0  0  0  0  0  0  0  0  0  0  0
   -3.1450    0.0980   -0.0100 C   0  0  0  0  0  0  0  0  0  0  0  0
   -2.5520    0.6890    1.2160 C   0  0  0  0  0  0  0  0  0  0  0  0
   -2.4840    0.1350    2.4700 C   0  0  0  0  0  0  0  0  0  0  0  0
   -1.8620    1.0640    3.2910 C   0  0  0  0  0  0  0  0  0  0  0  0
   -1.5790    2.1440    2.4880 C   0  0  0  0  0  0  0  0  0  0  0  0
   -2.0060    1.8720    1.2730 O   0  0  0  0  0  0  0  0  0  0  0  0
   -4.6350    0.3770   -0.0030 C   0  0  2  0  0  0  0  0  0  0  0  0
   -5.2210   -0.1090    1.3160 C   0  0  0  0  0  0  0  0  0  0  0  0
  1  2  1  0
  2  3  2  0
  2  7  1  0
  3  4  1  0
  4  5  2  0
  5  6  1  0
  5 36  1  0
  6  7  2  0
  6  8  1  0
  8  9  1  0
  9 10  1  0
  9 30  2  0
 10 11  1  0
 11 12  2  0
 11 13  1  0
 13 14  1  0
 14 15  1  0
 15 16  2  0
 15 17  1  0
 17 18  1  0
 18 19  1  0
 19 20  2  0
 19 21  1  0
 21 22  2  0
 21 29  1  0
 22 23  1  0
 23 24  2  0
 24 25  1  0
 24 28  1  0
 25 26  1  0
 26 27  2  0
 27 28  1  0
 28 29  2  0
 30 31  1  0
 30 36  1  0
 31 32  2  0
 31 35  1  0
 32 33  1  0
 33 34  2  0
 34 35  1  0
 36 37  1  1
M  END
