
     RDKit          3D

 37 41  0  0  0  0  0  0  0  0999 V2000
   -0.0470    2.7400   -3.6250 C   0  0  0  0  0  0  0  0  0  0  0  0
    0.1780    1.5520   -2.7620 C   0  0  0  0  0  0  0  0  0  0  0  0
   -0.8480    0.8750   -2.4650 O   0  0  0  0  0  0  0  0  0  0  0  0
    1.5280    1.2190   -2.2980 C   0  0  0  0  0  0  0  0  0  0  0  0
    2.7220    1.6390   -2.8520 C   0  0  0  0  0  0  0  0  0  0  0  0
    2.9120    2.6740   -3.8950 C   0  0  0  0  0  0  0  0  0  0  0  0
    3.6980    0.9150   -2.2570 N   0  0  0  0  0  0  0  0  0  0  0  0
    3.2260    0.0770   -1.3730 N   0  0  0  0  0  0  0  0  0  0  0  0
    3.9410   -0.8500   -0.5640 C   0  0  0  0  0  0  0  0  0  0  0  0
    3.9470   -2.2140   -0.7660 C   0  0  0  0  0  0  0  0  0  0  0  0
    4.6630   -3.0710    0.0430 C   0  0  0  0  0  0  0  0  0  0  0  0
    5.4190   -2.5900    1.1080 C   0  0  0  0  0  0  0  0  0  0  0  0
    6.1800   -3.5010    1.9610 C   0  0  0  0  0  0  0  0  0  0  0  0
    7.0270   -3.0800    3.0170 N   0  0  0  0  0  0  0  0  0  0  0  0
    6.0750   -4.7340    1.7430 O   0  0  0  0  0  0  0  0  0  0  0  0
    5.4160   -1.2300    1.3130 C   0  0  0  0  0  0  0  0  0  0  0  0
    4.6920   -0.3960    0.4920 C   0  0  0  0  0  0  0  0  0  0  0  0
    1.8380    0.2560   -1.3750 C   0  0  0  0  0  0  0  0  0  0  0  0
    1.1050   -0.3820   -0.3520 N   0  0  0  0  0  0  0  0  0  0  0  0
   -0.0470    0.0140    0.3280 C   0  0  0  0  0  0  0  0  0  0  0  0
   -0.5320    1.1470    0.1480 O   0  0  0  0  0  0  0  0  0  0  0  0
   -0.7580   -0.8840    1.3030 C   0  0  0  0  0  0  0  0  0  0  0  0
   -1.9480   -0.1990    1.8490 C   0  0  0  0  0  0  0  0  0  0  0  0
   -1.9270    0.3760    3.1040 C   0  0  0  0  0  0  0  0  0  0  0  0
   -3.0710    1.0260    3.5850 C   0  0  0  0  0  0  0  0  0  0  0  0
   -4.2130    1.0980    2.8200 C   0  0  0  0  0  0  0  0  0  0  0  0
   -4.2120    0.5170    1.5680 C   0  0  0  0  0  0  0  0  0  0  0  0
   -3.0850   -0.1300    1.0820 C   0  0  0  0  0  0  0  0  0  0  0  0
   -3.0540   -0.7210   -0.1650 O   0  0  0  0  0  0  0  0  0  0  0  0
   -4.2010   -0.6620   -0.9460 C   0  0  0  0  0  0  0  0  0  0  0  0
   -4.3340   -0.0570   -2.1300 C   0  0  0  0  0  0  0  0  0  0  0  0
   -5.6930   -0.2150   -2.6390 C   0  0  0  0  0  0  0  0  0  0  0  0
   -6.3790   -1.0060   -1.5930 C   0  0  0  0  0  0  0  0  0  0  0  0
   -5.5020   -1.2430   -0.6450 C   0  0  0  0  0  0  0  0  0  0  0  0
   -5.2270    1.7940    3.5020 O   0  0  0  0  0  0  0  0  0  0  0  0
   -4.5450    2.4730    4.5440 C   0  0  0  0  0  0  0  0  0  0  0  0
   -3.3650    1.6890    4.7740 O   0  0  0  0  0  0  0  0  0  0  0  0
  1  2  1  0
  2  3  2  0
  2  4  1  0
  4  5  1  0
  4 18  2  0
  5  6  1  0
  5  7  2  0
  7  8  1  0
  8  9  1  0
  8 18  1  0
  9 10  2  0
  9 17  1  0
 10 11  1  0
 11 12  2  0
 12 13  1  0
 12 16  1  0
 13 14  1  0
 13 15  2  0
 16 17  2  0
 18 19  1  0
 19 20  1  0
 20 21  2  0
 20 22  1  0
 22 23  1  0
 23 24  2  0
 23 28  1  0
 24 25  1  0
 25 26  2  0
 25 37  1  0
 26 27  1  0
 26 35  1  0
 27 28  2  0
 28 29  1  0
 29 30  1  0
 30 31  2  0
 30 34  1  0
 31 32  1  0
 32 33  1  0
 33 34  2  0
 35 36  1  0
 36 37  1  0
M  END
