
     RDKit          3D

 36 40  0  0  0  0  0  0  0  0999 V2000
   -7.9850    1.7260    0.5140 O   0  0  0  0  0  0  0  0  0  0  0  0
   -6.8630    1.3560    0.1260 C   0  0  0  0  0  0  0  0  0  0  0  0
   -5.6920    2.0880    0.6580 C   0  0  0  0  0  0  0  0  0  0  0  0
   -4.4580    1.8070    0.3380 C   0  0  0  0  0  0  0  0  0  0  0  0
   -3.3410    2.5860    0.9130 C   0  0  0  0  0  0  0  0  0  0  0  0
   -2.3660    1.5680    1.4720 C   0  0  0  0  0  0  0  0  0  0  0  0
   -1.8030    0.7200    0.3860 C   0  0  2  0  0  0  0  0  0  0  0  0
   -0.4680    1.1990    0.0690 N   0  0  0  0  0  0  0  0  0  0  0  0
    0.6880    0.4100    0.3060 C   0  0  0  0  0  0  0  0  0  0  0  0
    0.4890   -0.7380    0.8090 O   0  0  0  0  0  0  0  0  0  0  0  0
    2.0330    0.8770   -0.0070 C   0  0  0  0  0  0  0  0  0  0  0  0
    3.1710    0.1650    0.1970 C   0  0  0  0  0  0  0  0  0  0  0  0
    4.2460    0.9270   -0.2160 C   0  0  0  0  0  0  0  0  0  0  0  0
    5.6700    0.5500   -0.1780 C   0  0  0  0  0  0  0  0  0  0  0  0
    6.6520    1.4090   -0.6200 C   0  0  0  0  0  0  0  0  0  0  0  0
    7.9800    1.0340   -0.5750 C   0  0  0  0  0  0  0  0  0  0  0  0
    8.3850   -0.2000   -0.0930 C   0  0  0  0  0  0  0  0  0  0  0  0
    9.5910   -0.8000    0.0560 N   0  0  0  0  0  0  0  0  0  0  0  0
    9.4390   -2.0290    0.5830 C   0  0  0  0  0  0  0  0  0  0  0  0
   10.5310   -3.0120    0.9020 C   0  0  1  0  0  0  0  0  0  0  0  0
   11.8310   -2.9410    0.2340 C   0  0  0  0  0  0  0  0  0  0  0  0
   11.7010   -2.4320    1.6120 C   0  0  0  0  0  0  0  0  0  0  0  0
    8.0820   -2.1950    0.7670 C   0  0  0  0  0  0  0  0  0  0  0  0
    7.4020   -1.0610    0.3500 C   0  0  0  0  0  0  0  0  0  0  0  0
    6.0750   -0.6780    0.3020 C   0  0  0  0  0  0  0  0  0  0  0  0
    3.7450    2.0730   -0.6560 N   0  0  0  0  0  0  0  0  0  0  0  0
    2.4080    2.0520   -0.5340 N   0  0  0  0  0  0  0  0  0  0  0  0
   -2.6500    0.6050   -0.8490 C   0  0  0  0  0  0  0  0  0  0  0  0
   -4.1350    0.7270   -0.5880 C   0  0  0  0  0  0  0  0  0  0  0  0
   -6.6710    0.3350   -0.7430 O   0  0  0  0  0  0  0  0  0  0  0  0
   -7.6520   -0.4390   -1.3200 C   0  0  0  0  0  0  0  0  0  0  0  0
   -8.4490   -1.1690   -0.2630 C   0  0  0  0  0  0  0  0  0  0  0  0
   -9.3880   -1.9620   -0.7880 O   0  0  0  0  0  0  0  0  0  0  0  0
  -10.3570   -1.4280   -1.5490 C   0  0  0  0  0  0  0  0  0  0  0  0
  -11.2770   -0.4520   -0.8860 C   0  0  0  0  0  0  0  0  0  0  0  0
  -10.6220    0.6390   -0.3960 O   0  0  0  0  0  0  0  0  0  0  0  0
  1  2  2  0
  2  3  1  0
  2 30  1  0
  3  4  2  3
  4  5  1  0
  4 29  1  0
  5  6  1  0
  6  7  1  0
  7  8  1  6
  7 28  1  0
  8  9  1  0
  9 10  2  0
  9 11  1  0
 11 12  1  0
 11 27  2  0
 12 13  2  0
 13 14  1  0
 13 26  1  0
 14 15  2  0
 14 25  1  0
 15 16  1  0
 16 17  2  0
 17 18  1  0
 17 24  1  0
 18 19  1  0
 20 19  1  6
 19 23  2  0
 20 21  1  0
 20 22  1  0
 21 22  1  0
 23 24  1  0
 24 25  2  0
 26 27  1  0
 28 29  1  0
 30 31  1  0
 31 32  1  0
 32 33  1  0
 33 34  1  0
 34 35  1  0
 35 36  1  0
M  END
