
     RDKit          3D

 37 41  0  0  0  0  0  0  0  0999 V2000
   -4.1270    0.9220   -4.0940 C   0  0  0  0  0  0  0  0  0  0  0  0
   -3.4040    0.7590   -2.8040 C   0  0  0  0  0  0  0  0  0  0  0  0
   -2.1220    1.2040   -2.6960 C   0  0  0  0  0  0  0  0  0  0  0  0
   -1.4570    1.0490   -1.4920 C   0  0  0  0  0  0  0  0  0  0  0  0
   -2.0890    0.4540   -0.4290 C   0  0  0  0  0  0  0  0  0  0  0  0
   -1.4500    0.2980    0.7560 O   0  0  0  0  0  0  0  0  0  0  0  0
   -0.0850    0.7160    0.9420 C   0  0  0  0  0  0  0  0  0  0  0  0
    0.8280   -0.0470    0.0960 C   0  0  0  0  0  0  0  0  0  0  0  0
    0.2690   -0.9400   -0.6370 O   0  0  0  0  0  0  0  0  0  0  0  0
    2.2650    0.1050    0.0090 C   0  0  0  0  0  0  0  0  0  0  0  0
    3.1330   -0.6100   -0.7560 C   0  0  0  0  0  0  0  0  0  0  0  0
    2.9030   -1.8180   -1.5240 C   0  0  0  0  0  0  0  0  0  0  0  0
    3.4870   -1.9030   -2.6720 O   0  0  0  0  0  0  0  0  0  0  0  0
    2.1130   -2.9140   -1.1370 N   0  0  0  0  0  0  0  0  0  0  0  0
    1.9760   -4.0430   -2.0340 C   0  0  0  0  0  0  0  0  0  0  0  0
    3.3290   -4.6010   -2.2730 C   0  0  0  0  0  0  0  0  0  0  0  0
    4.2880   -4.3600   -1.4630 N   0  0  0  0  0  0  0  0  0  0  0  0
    4.4020   -0.0980   -0.6400 N   0  0  0  0  0  0  0  0  0  0  0  0
    4.3210    0.9390    0.2080 C   0  0  0  0  0  0  0  0  0  0  0  0
    5.3270    1.7890    0.6660 C   0  0  0  0  0  0  0  0  0  0  0  0
    4.9890    2.7800    1.5470 C   0  0  0  0  0  0  0  0  0  0  0  0
    3.7130    2.9560    1.9820 C   0  0  0  0  0  0  0  0  0  0  0  0
    2.7270    2.1070    1.5200 C   0  0  0  0  0  0  0  0  0  0  0  0
    3.0250    1.1020    0.6360 C   0  0  0  0  0  0  0  0  0  0  0  0
    3.4270    4.0330    2.9210 C   0  0  0  0  0  0  0  0  0  0  0  0
    2.2400    4.1720    3.3060 O   0  0  0  0  0  0  0  0  0  0  0  0
    4.4690    4.8510    3.3460 O   0  0  0  0  0  0  0  0  0  0  0  0
    5.6800    4.8980    2.6080 C   0  0  0  0  0  0  0  0  0  0  0  0
    5.9740    3.6410    2.0190 O   0  0  0  0  0  0  0  0  0  0  0  0
   -3.3970   -0.0090   -0.5110 C   0  0  0  0  0  0  0  0  0  0  0  0
   -4.1050   -0.6400    0.5750 C   0  0  1  0  0  0  0  0  0  0  0  0
   -5.4500   -1.0070    0.1670 N   0  0  0  0  0  0  0  0  0  0  0  0
   -3.4560   -1.9270    1.0730 C   0  0  0  0  0  0  0  0  0  0  0  0
   -4.4140   -2.2440    2.2310 C   0  0  0  0  0  0  0  0  0  0  0  0
   -4.7720   -0.8990    2.8080 C   0  0  0  0  0  0  0  0  0  0  0  0
   -4.2240    0.1440    1.8440 C   0  0  0  0  0  0  0  0  0  0  0  0
   -4.0170    0.1680   -1.7280 C   0  0  0  0  0  0  0  0  0  0  0  0
  1  2  1  0
  2  3  2  0
  2 37  1  0
  3  4  1  0
  4  5  2  0
  5  6  1  0
  5 30  1  0
  6  7  1  0
  7  8  1  0
  8  9  2  0
  8 10  1  0
 10 11  2  0
 10 24  1  0
 11 12  1  0
 11 18  1  0
 12 13  2  0
 12 14  1  0
 14 15  1  0
 15 16  1  0
 16 17  2  0
 18 19  1  0
 19 20  2  0
 19 24  1  0
 20 21  1  0
 21 22  2  0
 21 29  1  0
 22 23  1  0
 22 25  1  0
 23 24  2  0
 25 26  2  0
 25 27  1  0
 27 28  1  0
 28 29  1  0
 30 31  1  0
 30 37  2  0
 31 32  1  6
 31 33  1  0
 31 36  1  0
 33 34  1  0
 34 35  1  0
 35 36  1  0
M  END
