
     RDKit          3D

 37 41  0  0  0  0  0  0  0  0999 V2000
   -7.7970   -2.1950    1.2110 C   0  0  0  0  0  0  0  0  0  0  0  0
   -6.6160   -1.3120    1.3440 C   0  0  0  0  0  0  0  0  0  0  0  0
   -5.3020   -1.7940    1.3140 C   0  0  0  0  0  0  0  0  0  0  0  0
   -4.2430   -0.9240    1.4420 C   0  0  0  0  0  0  0  0  0  0  0  0
   -2.8760   -1.3560    1.4200 C   0  0  0  0  0  0  0  0  0  0  0  0
   -2.5500   -2.2560    2.2700 O   0  0  0  0  0  0  0  0  0  0  0  0
   -1.8710   -0.8260    0.4950 C   0  0  0  0  0  0  0  0  0  0  0  0
   -0.6720   -0.2680    0.8840 C   0  0  0  0  0  0  0  0  0  0  0  0
    0.0370    0.1300   -0.2520 C   0  0  0  0  0  0  0  0  0  0  0  0
    1.3480    0.7630   -0.3020 C   0  0  0  0  0  0  0  0  0  0  0  0
    1.8590    1.0620   -1.3950 O   0  0  0  0  0  0  0  0  0  0  0  0
    2.0390    1.0370    0.9190 N   0  0  0  0  0  0  0  0  0  0  0  0
    3.3230    1.6440    0.9890 C   0  0  0  0  0  0  0  0  0  0  0  0
    4.4340    0.8960    0.4200 C   0  0  0  0  0  0  0  0  0  0  0  0
    4.2600   -0.3590   -0.1100 C   0  0  0  0  0  0  0  0  0  0  0  0
    5.3440   -1.0350   -0.6210 C   0  0  0  0  0  0  0  0  0  0  0  0
    5.1600   -2.3530   -1.1770 C   0  0  0  0  0  0  0  0  0  0  0  0
    6.2250   -3.1150   -1.7270 N   0  0  0  0  0  0  0  0  0  0  0  0
    4.0210   -2.8810   -1.1930 O   0  0  0  0  0  0  0  0  0  0  0  0
    6.5840   -0.4640   -0.6010 C   0  0  0  0  0  0  0  0  0  0  0  0
    6.8000    0.8000   -0.0750 C   0  0  0  0  0  0  0  0  0  0  0  0
    5.6950    1.4530    0.4290 C   0  0  0  0  0  0  0  0  0  0  0  0
    5.9100    2.7220    0.9570 O   0  0  0  0  0  0  0  0  0  0  0  0
    7.0980    3.4310    0.5810 C   0  0  0  0  0  0  0  0  0  0  0  0
    8.2650    2.4780    0.7990 C   0  0  0  0  0  0  0  0  0  0  0  0
    8.0700    1.3710   -0.0610 O   0  0  0  0  0  0  0  0  0  0  0  0
   -0.7340   -0.1900   -1.3050 N   0  0  0  0  0  0  0  0  0  0  0  0
   -1.8840   -0.7660   -0.8620 C   0  0  0  0  0  0  0  0  0  0  0  0
   -2.8550   -1.1820   -1.8960 C   0  0  0  0  0  0  0  0  0  0  0  0
   -3.1040    0.0130   -2.7840 C   0  0  0  0  0  0  0  0  0  0  0  0
   -1.8300    0.4770   -3.4080 C   0  0  0  0  0  0  0  0  0  0  0  0
   -0.5830   -0.0470   -2.7380 C   0  0  0  0  0  0  0  0  0  0  0  0
   -4.5490    0.4010    1.5960 C   0  0  0  0  0  0  0  0  0  0  0  0
   -3.5940    1.2190    1.7150 O   0  0  0  0  0  0  0  0  0  0  0  0
   -5.8000    0.8590    1.6230 N   0  0  0  0  0  0  0  0  0  0  0  0
   -6.8400    0.0360    1.5010 C   0  0  0  0  0  0  0  0  0  0  0  0
   -8.2580    0.5610    1.5340 C   0  0  0  0  0  0  0  0  0  0  0  0
  1  2  1  0
  2  3  1  0
  2 36  2  0
  3  4  2  0
  4  5  1  0
  4 33  1  0
  5  6  2  0
  5  7  1  0
  7  8  1  0
  7 28  2  0
  8  9  2  0
  9 10  1  0
  9 27  1  0
 10 11  2  0
 10 12  1  0
 12 13  1  0
 13 14  1  0
 14 15  2  0
 14 22  1  0
 15 16  1  0
 16 17  1  0
 16 20  2  0
 17 18  1  0
 17 19  2  0
 20 21  1  0
 21 22  2  0
 21 26  1  0
 22 23  1  0
 23 24  1  0
 24 25  1  0
 25 26  1  0
 27 28  1  0
 27 32  1  0
 28 29  1  0
 29 30  1  0
 30 31  1  0
 31 32  1  0
 33 34  2  0
 33 35  1  0
 35 36  1  0
 36 37  1  0
M  END
