
     RDKit          3D

 22 24  0  0  0  0  0  0  0  0999 V2000
   -3.0380    2.3590   -0.6540 C   0  0  0  0  0  0  0  0  0  0  0  0
   -2.8440    1.0530   -1.0970 O   0  0  0  0  0  0  0  0  0  0  0  0
   -2.9330    0.1320   -0.0570 C   0  0  1  0  0  0  0  0  0  0  0  0
   -4.1310   -0.7900   -0.2400 C   0  0  0  0  0  0  0  0  0  0  0  0
   -1.6940   -0.6280    0.1460 C   0  0  0  0  0  0  0  0  0  0  0  0
   -1.7870   -1.9940    0.3320 C   0  0  0  0  0  0  0  0  0  0  0  0
   -0.6130   -2.7290    0.5260 C   0  0  0  0  0  0  0  0  0  0  0  0
   -0.6470   -3.9550    0.6960 O   0  0  0  0  0  0  0  0  0  0  0  0
    0.5680   -2.0400    0.5210 C   0  0  0  0  0  0  0  0  0  0  0  0
    0.6060   -0.6470    0.3290 C   0  0  0  0  0  0  0  0  0  0  0  0
   -0.5300    0.0360    0.1430 N   0  0  0  0  0  0  0  0  0  0  0  0
    1.7590    0.2390    0.3130 C   0  0  0  0  0  0  0  0  0  0  0  0
    1.4380    1.4610    0.8450 C   0  0  0  0  0  0  0  0  0  0  0  0
    2.4380    2.4420    0.8660 C   0  0  0  0  0  0  0  0  0  0  0  0
    3.7000    2.2040    0.3750 C   0  0  0  0  0  0  0  0  0  0  0  0
    4.9650    3.4140    0.3890 Cl  0  0  0  0  0  0  0  0  0  0  0  0
    4.0030    0.9670   -0.1540 C   0  0  0  0  0  0  0  0  0  0  0  0
    3.0320   -0.0390   -0.1920 C   0  0  0  0  0  0  0  0  0  0  0  0
    3.5630   -1.2390   -0.7350 N   0  0  0  0  0  0  0  0  0  0  0  0
    3.2750   -2.5830   -0.4000 C   0  0  0  0  0  0  0  0  0  0  0  0
    3.9420   -3.5040   -0.8940 O   0  0  0  0  0  0  0  0  0  0  0  0
    1.9840   -3.1260    0.7180 S   0  0  0  0  0  0  0  0  0  0  0  0
  1  2  1  0
  2  3  1  0
  3  4  1  6
  3  5  1  0
  5  6  2  0
  5 11  1  0
  6  7  1  0
  7  8  2  0
  7  9  1  0
  9 10  2  0
  9 22  1  0
 10 11  1  0
 10 12  1  0
 12 13  2  0
 12 18  1  0
 13 14  1  0
 14 15  2  0
 15 16  1  0
 15 17  1  0
 17 18  2  0
 18 19  1  0
 19 20  1  0
 20 21  2  0
 20 22  1  0
M  END
