
     RDKit          3D

 22 24  0  0  0  0  0  0  0  0999 V2000
    3.0460    1.5700    1.7100 O   0  0  0  0  0  0  0  0  0  0  0  0
    3.2780    0.7780    0.7710 C   0  0  0  0  0  0  0  0  0  0  0  0
    2.2760    0.0640    0.0990 N   0  0  0  0  0  0  0  0  0  0  0  0
    0.9010    0.1450    0.4010 C   0  0  0  0  0  0  0  0  0  0  0  0
    0.3970    0.7020    1.5400 C   0  0  0  0  0  0  0  0  0  0  0  0
   -0.9870    0.7400    1.7140 C   0  0  0  0  0  0  0  0  0  0  0  0
   -1.8620    0.2370    0.7810 C   0  0  0  0  0  0  0  0  0  0  0  0
   -3.2320    0.2990    1.0030 C   0  0  0  0  0  0  0  0  0  0  0  0
   -4.1310   -0.2040    0.0710 C   0  0  0  0  0  0  0  0  0  0  0  0
   -5.8640   -0.1070    0.4010 S   0  0  0  0  0  0  0  0  0  0  0  0
   -6.8780   -0.7700   -0.9160 C   0  0  0  0  0  0  0  0  0  0  0  0
   -6.6890    0.3030   -2.3490 Cl  0  0  0  0  0  0  0  0  0  0  0  0
   -3.5640   -0.7550   -1.0590 C   0  0  0  0  0  0  0  0  0  0  0  0
   -4.3490   -1.2250   -1.9300 O   0  0  0  0  0  0  0  0  0  0  0  0
   -2.2340   -0.8030   -1.2510 N   0  0  0  0  0  0  0  0  0  0  0  0
   -1.3390   -0.3230   -0.3640 C   0  0  0  0  0  0  0  0  0  0  0  0
    0.0120   -0.3740   -0.5640 C   0  0  0  0  0  0  0  0  0  0  0  0
    4.6910    0.5850    0.3470 C   0  0  0  0  0  0  0  0  0  0  0  0
    5.1380   -0.2360   -0.6590 C   0  0  0  0  0  0  0  0  0  0  0  0
    6.5260   -0.0990   -0.7000 C   0  0  0  0  0  0  0  0  0  0  0  0
    6.8400    0.8150    0.3030 C   0  0  0  0  0  0  0  0  0  0  0  0
    5.7190    1.1790    0.8820 O   0  0  0  0  0  0  0  0  0  0  0  0
  1  2  2  0
  2  3  1  0
  2 18  1  0
  3  4  1  0
  4  5  2  0
  4 17  1  0
  5  6  1  0
  6  7  2  0
  7  8  1  0
  7 16  1  0
  8  9  2  0
  9 10  1  0
  9 13  1  0
 10 11  1  0
 11 12  1  0
 13 14  2  0
 13 15  1  0
 15 16  1  0
 16 17  2  0
 18 19  2  0
 18 22  1  0
 19 20  1  0
 20 21  2  0
 21 22  1  0
M  END
