
     RDKit          3D

 22 24  0  0  0  0  0  0  0  0999 V2000
   -4.8830    1.8740    1.3990 C   0  0  0  0  0  0  0  0  0  0  0  0
   -4.3020    0.9100    0.4400 C   0  0  0  0  0  0  0  0  0  0  0  0
   -2.9220    0.6890    0.3730 C   0  0  0  0  0  0  0  0  0  0  0  0
   -2.4620   -0.2160   -0.5400 C   0  0  0  0  0  0  0  0  0  0  0  0
   -1.0920   -0.5070   -0.6830 N   0  0  0  0  0  0  0  0  0  0  0  0
   -0.0120    0.0440    0.0410 C   0  0  0  0  0  0  0  0  0  0  0  0
   -0.2150    0.8860    0.9170 O   0  0  0  0  0  0  0  0  0  0  0  0
    1.3830   -0.3760   -0.2370 C   0  0  0  0  0  0  0  0  0  0  0  0
    2.4980    0.1120    0.4240 C   0  0  0  0  0  0  0  0  0  0  0  0
    3.5920   -0.5020   -0.0990 C   0  0  0  0  0  0  0  0  0  0  0  0
    5.0250   -0.3300    0.2610 C   0  0  0  0  0  0  0  0  0  0  0  0
    6.1090   -0.6710    0.0300 N   0  0  0  0  0  0  0  0  0  0  0  0
    7.2550   -0.3050    0.5630 C   0  0  0  0  0  0  0  0  0  0  0  0
    7.1620    0.6030    1.5250 C   0  0  0  0  0  0  0  0  0  0  0  0
    5.3970    0.9260    1.6530 S   0  0  0  0  0  0  0  0  0  0  0  0
    3.1110   -1.3540   -1.0720 C   0  0  0  0  0  0  0  0  0  0  0  0
    1.8090   -1.2340   -1.1040 O   0  0  0  0  0  0  0  0  0  0  0  0
   -3.3470   -0.8980   -1.3790 C   0  0  0  0  0  0  0  0  0  0  0  0
   -2.8090   -1.8000   -2.2800 O   0  0  0  0  0  0  0  0  0  0  0  0
   -4.7100   -0.6790   -1.3130 C   0  0  0  0  0  0  0  0  0  0  0  0
   -5.1640    0.2330   -0.3920 C   0  0  0  0  0  0  0  0  0  0  0  0
   -6.8920    0.5290   -0.2890 Cl  0  0  0  0  0  0  0  0  0  0  0  0
  1  2  1  0
  2  3  2  0
  2 21  1  0
  3  4  1  0
  4  5  1  0
  4 18  2  0
  5  6  1  0
  6  7  2  0
  6  8  1  0
  8  9  2  0
  8 17  1  0
  9 10  1  0
 10 11  1  0
 10 16  2  0
 11 12  2  0
 11 15  1  0
 12 13  1  0
 13 14  2  0
 14 15  1  0
 16 17  1  0
 18 19  1  0
 18 20  1  0
 20 21  2  0
 21 22  1  0
M  END
