
     RDKit          3D

 22 24  0  0  0  0  0  0  0  0999 V2000
    6.3380    1.1390    0.8480 C   0  0  0  0  0  0  0  0  0  0  0  0
    5.1500    0.3810    0.3700 C   0  0  0  0  0  0  0  0  0  0  0  0
    3.8450    0.7590    0.5800 C   0  0  0  0  0  0  0  0  0  0  0  0
    3.0760   -0.2080   -0.0190 C   0  0  0  0  0  0  0  0  0  0  0  0
    1.6230   -0.2940   -0.0940 C   0  0  0  0  0  0  0  0  0  0  0  0
    0.8580    0.8370   -0.1440 C   0  0  0  0  0  0  0  0  0  0  0  0
   -0.5390    0.7490   -0.2150 C   0  0  0  0  0  0  0  0  0  0  0  0
   -1.1770   -0.4470   -0.2360 C   0  0  0  0  0  0  0  0  0  0  0  0
   -2.5840   -0.6040   -0.3060 N   0  0  0  0  0  0  0  0  0  0  0  0
   -3.5070    0.4480   -0.3670 C   0  0  0  0  0  0  0  0  0  0  0  0
   -3.1730    1.6300   -0.3650 O   0  0  0  0  0  0  0  0  0  0  0  0
   -4.9570    0.0720   -0.4370 C   0  0  1  0  0  0  0  0  0  0  0  0
   -5.3520   -0.8630    0.6760 C   0  0  0  0  0  0  0  0  0  0  0  0
   -6.0510    0.3590    1.8670 S   0  0  0  0  0  0  0  0  0  0  0  0
   -6.1680    1.7040    0.7050 C   0  0  0  0  0  0  0  0  0  0  0  0
   -6.5000    2.8660    0.9620 O   0  0  0  0  0  0  0  0  0  0  0  0
   -5.8130    1.1540   -0.4980 O   0  0  0  0  0  0  0  0  0  0  0  0
   -0.3790   -1.5940   -0.1840 C   0  0  0  0  0  0  0  0  0  0  0  0
   -1.1360   -3.1830   -0.2080 Cl  0  0  0  0  0  0  0  0  0  0  0  0
    0.9700   -1.5070   -0.1150 C   0  0  0  0  0  0  0  0  0  0  0  0
    3.9380   -1.1320   -0.5680 C   0  0  0  0  0  0  0  0  0  0  0  0
    5.2080   -0.7600   -0.3230 N   0  0  0  0  0  0  0  0  0  0  0  0
  1  2  1  0
  2  3  2  0
  2 22  1  0
  3  4  1  0
  4  5  1  0
  4 21  2  0
  5  6  2  0
  5 20  1  0
  6  7  1  0
  7  8  2  0
  8  9  1  0
  8 18  1  0
  9 10  1  0
 10 11  2  0
 12 10  1  1
 12 13  1  0
 12 17  1  0
 13 14  1  0
 14 15  1  0
 15 16  2  0
 15 17  1  0
 18 19  1  0
 18 20  2  0
 21 22  1  0
M  END
