
     RDKit          3D

 22 24  0  0  0  0  0  0  0  0999 V2000
    3.9460   -0.8790   -1.4700 C   0  0  0  0  0  0  0  0  0  0  0  0
    4.0050   -0.4140   -0.0660 C   0  0  0  0  0  0  0  0  0  0  0  0
    2.8570   -0.0480    0.5970 C   0  0  0  0  0  0  0  0  0  0  0  0
    1.5990   -0.5340    0.0680 C   0  0  0  0  0  0  0  0  0  0  0  0
    0.5060    0.9090   -0.4100 S   0  0  0  0  0  0  0  0  0  0  0  0
   -1.1690    0.2330   -0.6420 C   0  0  0  0  0  0  0  0  0  0  0  0
   -1.3650   -1.1170   -0.5030 C   0  0  0  0  0  0  0  0  0  0  0  0
   -2.6350   -1.5950   -0.4700 C   0  0  0  0  0  0  0  0  0  0  0  0
   -3.7510   -0.7450   -0.5800 C   0  0  0  0  0  0  0  0  0  0  0  0
   -3.5340    0.5990   -0.7310 C   0  0  0  0  0  0  0  0  0  0  0  0
   -2.2080    1.0880   -0.7650 C   0  0  0  0  0  0  0  0  0  0  0  0
   -4.6640    1.4560   -0.7680 N   0  0  0  0  0  0  0  0  0  0  0  0
   -5.9470    0.9000   -0.6470 C   0  0  0  0  0  0  0  0  0  0  0  0
   -7.0010    1.3970   -1.1230 O   0  0  0  0  0  0  0  0  0  0  0  0
   -6.0450   -0.4060    0.0980 C   0  0  0  0  0  0  0  0  0  0  0  0
   -5.0720   -1.2560   -0.5390 O   0  0  0  0  0  0  0  0  0  0  0  0
    2.9120    0.5670    1.8560 C   0  0  0  0  0  0  0  0  0  0  0  0
    4.1140    0.7860    2.3790 O   0  0  0  0  0  0  0  0  0  0  0  0
    5.2310    0.4500    1.7810 C   0  0  0  0  0  0  0  0  0  0  0  0
    6.3330    0.7220    2.4220 N   0  0  0  0  0  0  0  0  0  0  0  0
    5.1910   -0.1670    0.5470 C   0  0  0  0  0  0  0  0  0  0  0  0
    6.6700   -0.6440   -0.2580 Cl  0  0  0  0  0  0  0  0  0  0  0  0
  1  2  1  0
  2  3  1  0
  2 21  2  0
  3  4  1  0
  3 17  2  0
  4  5  1  0
  5  6  1  0
  6  7  2  0
  6 11  1  0
  7  8  1  0
  8  9  2  0
  9 10  1  0
  9 16  1  0
 10 11  2  0
 10 12  1  0
 12 13  1  0
 13 14  2  0
 13 15  1  0
 15 16  1  0
 17 18  1  0
 18 19  1  0
 19 20  2  0
 19 21  1  0
 21 22  1  0
M  END
