
     RDKit          3D

 13 14  0  0  0  0  0  0  0  0999 V2000
    4.4360   -0.1510    1.3270 N   0  0  0  0  0  0  0  0  0  0  0  0
    3.2970   -0.1240    0.4090 C   0  0  0  0  0  0  0  0  0  0  0  0
    2.5810    1.0360    0.5560 O   0  0  0  0  0  0  0  0  0  0  0  0
    1.4880    1.1730   -0.2880 C   0  0  0  0  0  0  0  0  0  0  0  0
    0.5010    0.1020   -0.0940 C   0  0  1  0  0  0  0  0  0  0  0  0
   -0.0550   -0.0280    1.1510 O   0  0  0  0  0  0  0  0  0  0  0  0
   -1.3150   -0.6360    0.9930 C   0  0  1  0  0  0  0  0  0  0  0  0
   -2.2630    0.5180    0.7720 C   0  0  0  0  0  0  0  0  0  0  0  0
   -1.7260    1.0620   -0.5610 C   0  0  1  0  0  0  0  0  0  0  0  0
   -1.2090    2.3210   -0.3140 O   0  0  0  0  0  0  0  0  0  0  0  0
   -0.6930    0.1080   -1.0150 C   0  0  2  0  0  0  0  0  0  0  0  0
   -1.2700   -1.2090   -0.4340 C   0  0  2  0  0  0  0  0  0  0  0  0
   -2.5400   -1.5200   -0.9530 N   0  0  0  0  0  0  0  0  0  0  0  0
  1  2  1  0
  2  3  1  0
  3  4  1  0
  5  4  1  1
  5  6  1  0
 11  5  1  1
  6  7  1  0
  7  8  1  6
  7 12  1  0
  8  9  1  0
  9 10  1  1
  9 11  1  0
 11 12  1  0
 12 13  1  6
M  CHG  1  13   1
M  END
