
     RDKit          3D

 13 13  0  0  0  0  0  0  0  0999 V2000
   -3.2760   -1.0710    0.0760 C   0  0  0  0  0  0  0  0  0  0  0  0
   -2.2900   -0.0280    0.3770 N   0  0  0  0  0  0  0  0  0  0  0  0
   -1.9060    0.5990   -0.8290 C   0  0  0  0  0  0  0  0  0  0  0  0
   -0.4050    0.8680   -0.9390 C   0  0  1  0  0  0  0  0  0  0  0  0
   -0.2910    1.4890   -2.2130 O   0  0  0  0  0  0  0  0  0  0  0  0
    0.0680    1.8750    0.0420 C   0  0  0  0  0  0  0  0  0  0  0  0
    0.7710    1.3670    1.1690 N   0  0  0  0  0  0  0  0  0  0  0  0
    1.8750    0.5470    0.6660 C   0  0  0  0  0  0  0  0  0  0  0  0
    1.2310   -0.7100    0.1430 C   0  0  2  0  0  0  0  0  0  0  0  0
    2.2950   -1.7170   -0.3190 C   0  0  1  0  0  0  0  0  0  0  0  0
    3.0780   -1.1980   -1.3240 O   0  0  0  0  0  0  0  0  0  0  0  0
    3.0310   -2.1870    0.7690 O   0  0  0  0  0  0  0  0  0  0  0  0
    0.3750   -0.3870   -1.0170 C   0  0  0  0  0  0  0  0  0  0  0  0
  1  2  1  0
  2  3  1  0
  3  4  1  0
  4  5  1  6
  4  6  1  0
  4 13  1  0
  6  7  1  0
  7  8  1  0
  9  8  1  6
  9 10  1  0
  9 13  1  0
 10 11  1  6
 10 12  1  0
M  CHG  2   2   1   7   1
M  END
