
     RDKit          3D

 28 32  0  0  0  0  0  0  0  0999 V2000
    7.6990   -0.1450   -1.0000 C   0  0  0  0  0  0  0  0  0  0  0  0
    6.4660   -0.0080   -0.1840 C   0  0  0  0  0  0  0  0  0  0  0  0
    6.5040   -0.0020    1.1360 C   0  0  0  0  0  0  0  0  0  0  0  0
    5.3410    0.1270    1.8380 O   0  0  0  0  0  0  0  0  0  0  0  0
    4.0410    0.2410    1.3360 C   0  0  0  0  0  0  0  0  0  0  0  0
    4.0280    0.2340   -0.1190 C   0  0  0  0  0  0  0  0  0  0  0  0
    2.8500    0.3480   -0.9110 N   0  0  0  0  0  0  0  0  0  0  0  0
    1.6800    0.3510   -0.3860 C   0  0  0  0  0  0  0  0  0  0  0  0
    1.2000    0.2280    1.3210 S   0  0  0  0  0  0  0  0  0  0  0  0
   -0.5660    0.3120    1.0130 C   0  0  0  0  0  0  0  0  0  0  0  0
   -0.7430    0.4240   -0.2680 C   0  0  0  0  0  0  0  0  0  0  0  0
    0.4450    0.4530   -1.1000 C   0  0  0  0  0  0  0  0  0  0  0  0
    0.4100    0.5610   -2.3890 O   0  0  0  0  0  0  0  0  0  0  0  0
   -2.1520    0.5170   -0.7980 C   0  0  1  0  0  0  0  0  0  0  0  0
   -2.2990   -0.6280   -1.7720 C   0  0  0  0  0  0  0  0  0  0  0  0
   -2.2120   -1.9500   -1.3880 C   0  0  0  0  0  0  0  0  0  0  0  0
   -2.3960   -2.7100   -2.5450 C   0  0  0  0  0  0  0  0  0  0  0  0
   -2.5840   -1.7890   -3.5600 C   0  0  0  0  0  0  0  0  0  0  0  0
   -2.5200   -0.5600   -3.0620 O   0  0  0  0  0  0  0  0  0  0  0  0
   -3.1490    0.4480    0.2480 C   0  0  0  0  0  0  0  0  0  0  0  0
   -2.9360    0.3330    1.5470 C   0  0  0  0  0  0  0  0  0  0  0  0
   -4.0680    0.2720    2.5190 C   0  0  0  0  0  0  0  0  0  0  0  0
   -5.1230    1.3040    2.1820 C   0  0  0  0  0  0  0  0  0  0  0  0
   -5.5330    1.2060    0.7360 C   0  0  0  0  0  0  0  0  0  0  0  0
   -4.5820    0.4930   -0.1210 C   0  0  0  0  0  0  0  0  0  0  0  0
   -4.9680   -0.0780   -1.1630 O   0  0  0  0  0  0  0  0  0  0  0  0
   -1.5970    0.2590    1.9860 N   0  0  0  0  0  0  0  0  0  0  0  0
    5.1500    0.1190   -0.7970 C   0  0  0  0  0  0  0  0  0  0  0  0
  1  2  1  0
  2  3  2  0
  2 28  1  0
  3  4  1  0
  4  5  1  0
  5  6  1  0
  6  7  1  0
  6 28  2  0
  7  8  2  3
  8  9  1  0
  8 12  1  0
  9 10  1  0
 10 11  2  0
 10 27  1  0
 11 12  1  0
 11 14  1  0
 12 13  2  0
 14 15  1  6
 14 20  1  0
 15 16  2  0
 15 19  1  0
 16 17  1  0
 17 18  2  0
 18 19  1  0
 20 21  2  0
 20 25  1  0
 21 22  1  0
 21 27  1  0
 22 23  1  0
 23 24  1  0
 24 25  1  0
 25 26  2  0
M  END
