
     RDKit          3D

 13 13  0  0  0  0  0  0  0  0999 V2000
   -0.5960    2.7780    0.9320 C   0  0  0  0  0  0  0  0  0  0  0  0
   -0.9120    1.3300    0.8100 C   0  0  0  0  0  0  0  0  0  0  0  0
   -1.7350    0.8820    1.5880 O   0  0  0  0  0  0  0  0  0  0  0  0
   -0.2400    0.4660   -0.2310 C   0  0  1  0  0  0  0  0  0  0  0  0
    1.2440    0.4440   -0.0470 C   0  0  2  0  0  0  0  0  0  0  0  0
    1.9540    0.6020   -1.3040 N   0  0  0  0  0  0  0  0  0  0  0  0
    1.7630   -0.7500    0.6950 C   0  0  1  0  0  0  0  0  0  0  0  0
    1.8700   -0.5130    2.0780 O   0  0  0  0  0  0  0  0  0  0  0  0
    1.0820   -1.9140    0.4540 O   0  0  0  0  0  0  0  0  0  0  0  0
   -0.2630   -1.7630    0.7870 C   0  0  0  0  0  0  0  0  0  0  0  0
   -0.8660   -0.8890   -0.2870 C   0  0  2  0  0  0  0  0  0  0  0  0
   -0.5900   -1.4980   -1.6670 C   0  0  0  0  0  0  0  0  0  0  0  0
   -2.2880   -0.8550   -0.1260 N   0  0  0  0  0  0  0  0  0  0  0  0
  1  2  1  0
  2  3  2  0
  4  2  1  1
  4  5  1  0
  4 11  1  0
  5  6  1  6
  5  7  1  0
  7  8  1  1
  7  9  1  0
  9 10  1  0
 10 11  1  0
 11 12  1  6
 11 13  1  0
M  CHG  2   6   1  13   1
M  END
