
     RDKit          3D

 12 13  0  0  0  0  0  0  0  0999 V2000
   -3.3510    0.5370   -0.4390 N   0  0  0  0  0  0  0  0  0  0  0  0
   -1.9830    0.2240   -0.8010 C   0  0  2  0  0  0  0  0  0  0  0  0
   -1.6430   -1.2240   -0.6360 C   0  0  0  0  0  0  0  0  0  0  0  0
   -0.5130   -1.3030    0.2770 N   0  0  0  0  0  0  0  0  0  0  0  0
    0.1870   -0.0520    0.0060 C   0  0  2  0  0  0  0  0  0  0  0  0
    0.7900   -0.1530   -1.3510 C   0  0  0  0  0  0  0  0  0  0  0  0
    1.9650    0.5600   -1.4970 O   0  0  0  0  0  0  0  0  0  0  0  0
    2.9910    0.1380   -0.6910 C   0  0  0  0  0  0  0  0  0  0  0  0
    2.5860   -0.1970    0.7100 C   0  0  0  0  0  0  0  0  0  0  0  0
    1.1860    0.3070    1.0420 C   0  0  1  0  0  0  0  0  0  0  0  0
    1.2930    1.7160    1.0580 O   0  0  0  0  0  0  0  0  0  0  0  0
   -0.9750    0.9220    0.0790 C   0  0  0  0  0  0  0  0  0  0  0  0
  2  1  1  1
  2  3  1  0
  2 12  1  0
  3  4  1  0
  4  5  1  0
  5  6  1  6
  5 10  1  0
  5 12  1  0
  6  7  1  0
  7  8  1  0
  8  9  1  0
  9 10  1  0
 10 11  1  6
M  CHG  2   1   1   4   1
M  END
