
     RDKit          3D

 13 14  0  0  0  0  0  0  0  0999 V2000
    2.6790   -0.9490    1.0440 N   0  0  0  0  0  0  0  0  0  0  0  0
    2.3850   -0.7240   -0.3400 C   0  0  0  0  0  0  0  0  0  0  0  0
    1.0540   -0.0610   -0.5770 C   0  0  2  0  0  0  0  0  0  0  0  0
    0.9600    1.2950    0.0880 C   0  0  1  0  0  0  0  0  0  0  0  0
    1.4920    2.3120   -0.6600 O   0  0  0  0  0  0  0  0  0  0  0  0
   -0.5610    1.4030    0.2110 C   0  0  2  0  0  0  0  0  0  0  0  0
   -0.9370    2.4030    1.0810 O   0  0  0  0  0  0  0  0  0  0  0  0
   -0.8610    0.0120    0.7380 C   0  0  1  0  0  0  0  0  0  0  0  0
   -2.3000   -0.3610    0.4960 C   0  0  1  0  0  0  0  0  0  0  0  0
   -3.1530    0.7250    0.7260 O   0  0  0  0  0  0  0  0  0  0  0  0
   -2.2780   -0.7650   -0.9630 C   0  0  0  0  0  0  0  0  0  0  0  0
   -0.8810   -1.2160   -1.2390 C   0  0  0  0  0  0  0  0  0  0  0  0
   -0.0570   -0.8410   -0.1170 N   0  0  1  0  0  0  0  0  0  0  0  0
  1  2  1  0
  3  2  1  1
  3  4  1  0
  3 13  1  0
  4  5  1  6
  4  6  1  0
  6  7  1  1
  6  8  1  0
  8  9  1  6
  8 13  1  0
  9 10  1  6
  9 11  1  0
 11 12  1  0
 13 12  1  6
M  CHG  2   1   1  13   1
M  END
