
     RDKit          3D

 12 12  0  0  0  0  0  0  0  0999 V2000
    2.9270   -0.7230    0.7050 N   0  0  0  0  0  0  0  0  0  0  0  0
    2.0510    0.4090    0.4320 C   0  0  0  0  0  0  0  0  0  0  0  0
    0.6860   -0.1600    0.1180 C   0  0  2  0  0  0  0  0  0  0  0  0
    0.7840   -1.0330   -1.0460 N   0  0  0  0  0  0  0  0  0  0  0  0
   -0.4170   -1.7180   -1.3510 C   0  0  0  0  0  0  0  0  0  0  0  0
   -1.3940   -1.8570   -0.2300 C   0  0  0  0  0  0  0  0  0  0  0  0
   -2.3000   -0.6740   -0.0560 C   0  0  0  0  0  0  0  0  0  0  0  0
   -1.6690    0.5700    0.4070 C   0  0  1  0  0  0  0  0  0  0  0  0
   -1.6150    0.6770    1.8120 O   0  0  0  0  0  0  0  0  0  0  0  0
   -0.3290    0.8800   -0.2080 C   0  0  1  0  0  0  0  0  0  0  0  0
    0.0680    2.2660    0.2550 C   0  0  0  0  0  0  0  0  0  0  0  0
   -0.9030    3.2120   -0.0660 O   0  0  0  0  0  0  0  0  0  0  0  0
  1  2  1  0
  3  2  1  6
  3  4  1  0
  3 10  1  0
  4  5  1  0
  5  6  1  0
  6  7  1  0
  7  8  1  0
  8  9  1  1
  8 10  1  0
 10 11  1  1
 11 12  1  0
M  CHG  2   1   1   4   1
M  END
