
     RDKit          3D

 13 13  0  0  0  0  0  0  0  0999 V2000
    4.3520    0.0350    0.8450 N   0  0  0  0  0  0  0  0  0  0  0  0
    2.9730   -0.4630    0.7200 C   0  0  0  0  0  0  0  0  0  0  0  0
    2.1760    0.4250   -0.1890 C   0  0  0  0  0  0  0  0  0  0  0  0
    0.7400   -0.0090   -0.3710 C   0  0  1  0  0  0  0  0  0  0  0  0
    0.6240   -1.3950   -0.9650 C   0  0  0  0  0  0  0  0  0  0  0  0
   -0.6950   -1.8280   -0.8010 O   0  0  0  0  0  0  0  0  0  0  0  0
   -1.6180   -1.0980   -1.5090 C   0  0  0  0  0  0  0  0  0  0  0  0
   -2.5700   -0.4760   -0.4880 C   0  0  1  0  0  0  0  0  0  0  0  0
   -2.6560   -1.3180    0.6430 O   0  0  0  0  0  0  0  0  0  0  0  0
   -1.9620    0.8430   -0.0670 C   0  0  1  0  0  0  0  0  0  0  0  0
   -3.0520    1.6990    0.4400 N   0  0  0  0  0  0  0  0  0  0  0  0
   -0.9900    0.6760    1.0400 C   0  0  0  0  0  0  0  0  0  0  0  0
    0.1280   -0.0110    0.8380 O   0  0  0  0  0  0  0  0  0  0  0  0
  1  2  1  0
  2  3  1  0
  4  3  1  1
  4  5  1  0
  4 13  1  0
  5  6  1  0
  6  7  1  0
  7  8  1  0
  8  9  1  1
  8 10  1  0
 10 11  1  1
 10 12  1  0
 12 13  1  0
M  CHG  2   1   1  11   1
M  END
