
     RDKit          3D

 28 32  0  0  0  0  0  0  0  0999 V2000
    7.4120    1.0400    0.6770 C   0  0  0  0  0  0  0  0  0  0  0  0
    6.0890    0.4650    0.7110 N   0  0  0  0  0  0  0  0  0  0  0  0
    5.5700   -0.3690   -0.3160 C   0  0  0  0  0  0  0  0  0  0  0  0
    6.3030   -0.6920   -1.4220 N   0  0  0  0  0  0  0  0  0  0  0  0
    5.5870   -1.4760   -2.2080 N   0  0  0  0  0  0  0  0  0  0  0  0
    4.3710   -1.6660   -1.6040 C   0  0  0  0  0  0  0  0  0  0  0  0
    4.3620   -0.9780   -0.4310 C   0  0  0  0  0  0  0  0  0  0  0  0
    3.2320   -0.9010    0.5510 C   0  0  2  0  0  0  0  0  0  0  0  0
    3.7380   -1.4300    1.8030 O   0  0  0  0  0  0  0  0  0  0  0  0
    2.1800   -1.8460    0.1940 C   0  0  0  0  0  0  0  0  0  0  0  0
    0.9240   -1.5140    0.0880 C   0  0  0  0  0  0  0  0  0  0  0  0
    0.4520   -0.1590    0.3210 C   0  0  0  0  0  0  0  0  0  0  0  0
    1.3940    0.7730    0.6640 C   0  0  0  0  0  0  0  0  0  0  0  0
    0.7540    1.9470    0.8210 O   0  0  0  0  0  0  0  0  0  0  0  0
   -0.5220    1.8210    0.6030 C   0  0  0  0  0  0  0  0  0  0  0  0
   -1.5780    2.7280    0.6400 C   0  0  0  0  0  0  0  0  0  0  0  0
   -2.8460    2.2840    0.3540 C   0  0  0  0  0  0  0  0  0  0  0  0
   -3.1090    0.9490    0.0270 C   0  0  0  0  0  0  0  0  0  0  0  0
   -4.4570    0.4950   -0.2740 C   0  0  0  0  0  0  0  0  0  0  0  0
   -4.7770   -0.7660   -0.5930 N   0  0  0  0  0  0  0  0  0  0  0  0
   -6.1220   -0.8430   -0.8120 C   0  0  0  0  0  0  0  0  0  0  0  0
   -6.8960   -2.0520   -1.1890 C   0  0  0  0  0  0  0  0  0  0  0  0
   -6.6160    0.3920   -0.6190 N   0  0  0  0  0  0  0  0  0  0  0  0
   -8.0180    0.7410   -0.7540 C   0  0  0  0  0  0  0  0  0  0  0  0
   -5.5930    1.1980   -0.2920 N   0  0  0  0  0  0  0  0  0  0  0  0
   -2.0350    0.0780   -0.0000 C   0  0  0  0  0  0  0  0  0  0  0  0
   -0.7520    0.4930    0.2810 C   0  0  0  0  0  0  0  0  0  0  0  0
    2.8270    0.4750    0.8160 C   0  0  0  0  0  0  0  0  0  0  0  0
  1  2  1  0
  2  3  1  0
  3  4  1  0
  3  7  2  0
  4  5  1  0
  5  6  2  0
  6  7  1  0
  7  8  1  0
  8  9  1  1
  8 10  1  0
  8 28  1  0
 10 11  2  0
 11 12  1  0
 12 13  2  0
 12 27  1  0
 13 14  1  0
 13 28  1  0
 14 15  1  0
 15 16  2  0
 15 27  1  0
 16 17  1  0
 17 18  2  0
 18 19  1  0
 18 26  1  0
 19 20  1  0
 19 25  2  0
 20 21  2  0
 21 22  1  0
 21 23  1  0
 23 24  1  0
 23 25  1  0
 26 27  2  0
M  END
