
     RDKit          3D

 28 32  0  0  0  0  0  0  0  0999 V2000
   -7.1130   -0.2490    0.1970 C   0  0  0  0  0  0  0  0  0  0  0  0
   -5.8760   -0.6740    0.2800 C   0  0  0  0  0  0  0  0  0  0  0  0
   -5.5490   -1.9580    0.6370 N   0  0  0  0  0  0  0  0  0  0  0  0
   -4.2140   -2.1010    0.6360 C   0  0  0  0  0  0  0  0  0  0  0  0
   -3.5180   -3.3890    0.9830 C   0  0  0  0  0  0  0  0  0  0  0  0
   -3.6120   -0.9240    0.2800 C   0  0  0  0  0  0  0  0  0  0  0  0
   -2.1890   -0.6280    0.1500 C   0  0  0  0  0  0  0  0  0  0  0  0
   -1.1390   -1.5070    0.3640 C   0  0  0  0  0  0  0  0  0  0  0  0
    0.0580   -0.8180    0.1300 C   0  0  0  0  0  0  0  0  0  0  0  0
   -0.3360    0.4540   -0.2170 C   0  0  0  0  0  0  0  0  0  0  0  0
    0.5950    1.5470   -0.5570 C   0  0  0  0  0  0  0  0  0  0  0  0
    0.2950    2.8060   -0.9030 N   0  0  0  0  0  0  0  0  0  0  0  0
    1.4280    3.4850   -1.1330 N   0  0  0  0  0  0  0  0  0  0  0  0
    2.4550    2.6670   -0.9350 C   0  0  0  0  0  0  0  0  0  0  0  0
    3.7920    2.5460   -0.9450 N   0  0  0  0  0  0  0  0  0  0  0  0
    4.1330    1.2950   -0.6020 C   0  0  0  0  0  0  0  0  0  0  0  0
    5.4930    0.7970   -0.5060 C   0  0  0  0  0  0  0  0  0  0  0  0
    6.6570    1.4840   -0.7380 C   0  0  0  0  0  0  0  0  0  0  0  0
    7.6750    0.5880   -0.5180 C   0  0  0  0  0  0  0  0  0  0  0  0
    7.0880   -0.6150   -0.1590 C   0  0  0  0  0  0  0  0  0  0  0  0
    7.8620   -1.8400    0.1620 C   0  0  0  0  0  0  0  0  0  0  0  0
    5.7840   -0.4470   -0.1630 O   0  0  0  0  0  0  0  0  0  0  0  0
    2.9720    0.6660   -0.3860 N   0  0  0  0  0  0  0  0  0  0  0  0
    1.9400    1.4780   -0.5820 N   0  0  0  0  0  0  0  0  0  0  0  0
   -1.6290    0.4980   -0.1870 O   0  0  0  0  0  0  0  0  0  0  0  0
   -4.6700   -0.0180    0.0550 C   0  0  0  0  0  0  0  0  0  0  0  0
   -4.4830    1.2060   -0.3010 C   0  0  0  0  0  0  0  0  0  0  0  0
   -5.5090    2.2290   -0.5600 C   0  0  0  0  0  0  0  0  0  0  0  0
  1  2  2  0
  2  3  1  0
  2 26  1  0
  3  4  1  0
  4  5  1  0
  4  6  2  0
  6  7  1  0
  6 26  1  0
  7  8  2  0
  7 25  1  0
  8  9  1  0
  9 10  2  0
 10 11  1  0
 10 25  1  0
 11 12  2  0
 11 24  1  0
 12 13  1  0
 13 14  2  0
 14 15  1  0
 14 24  1  0
 15 16  1  0
 16 17  1  0
 16 23  2  0
 17 18  2  0
 17 22  1  0
 18 19  1  0
 19 20  2  0
 20 21  1  0
 20 22  1  0
 23 24  1  0
 26 27  2  3
 27 28  1  0
M  END
