
     RDKit          3D

 18 19  0  0  0  0  0  0  0  0999 V2000
   -2.8540    2.5430    0.6720 C   0  0  0  0  0  0  0  0  0  0  0  0
   -2.2450    1.2740    0.3270 N   0  0  0  0  0  0  0  0  0  0  0  0
   -0.9560    1.1850   -0.0230 C   0  0  0  0  0  0  0  0  0  0  0  0
   -0.2310    2.1970   -0.0660 O   0  0  0  0  0  0  0  0  0  0  0  0
   -0.3920   -0.0330   -0.3490 C   0  0  0  0  0  0  0  0  0  0  0  0
   -1.1890   -1.1600   -0.3040 C   0  0  0  0  0  0  0  0  0  0  0  0
   -0.4560   -2.2150   -0.6500 N   0  0  0  0  0  0  0  0  0  0  0  0
    0.7950   -1.7540   -0.9110 C   0  0  0  0  0  0  0  0  0  0  0  0
    0.8470   -0.4330   -0.7320 N   0  0  0  0  0  0  0  0  0  0  0  0
    1.9570    0.4510   -0.8930 C   0  0  0  0  0  0  0  0  0  0  0  0
    2.7530    0.6020    0.4050 C   0  0  2  0  0  0  0  0  0  0  0  0
    3.8240    1.4700    0.2030 O   0  0  0  0  0  0  0  0  0  0  0  0
    3.3730   -0.7650    0.7080 C   0  0  0  0  0  0  0  0  0  0  0  0
    4.1650   -0.6630    1.8460 O   0  0  0  0  0  0  0  0  0  0  0  0
   -2.4820   -1.0580    0.0490 N   0  0  0  0  0  0  0  0  0  0  0  0
   -3.2870   -2.2360    0.0880 C   0  0  0  0  0  0  0  0  0  0  0  0
   -2.9800    0.1510    0.3560 C   0  0  0  0  0  0  0  0  0  0  0  0
   -4.2050    0.2400    0.6900 O   0  0  0  0  0  0  0  0  0  0  0  0
  1  2  1  0
  2  3  1  0
  2 17  1  0
  3  4  2  0
  3  5  1  0
  5  6  2  0
  5  9  1  0
  6  7  1  0
  6 15  1  0
  7  8  2  0
  8  9  1  0
  9 10  1  0
 10 11  1  0
 11 12  1  6
 11 13  1  0
 13 14  1  0
 15 16  1  0
 15 17  1  0
 17 18  2  0
M  END
