
     RDKit          3D

 28 32  0  0  0  0  0  0  0  0999 V2000
   -5.6050   -1.5600    2.2220 C   0  0  0  0  0  0  0  0  0  0  0  0
   -4.5790   -0.8910    1.6600 C   0  0  0  0  0  0  0  0  0  0  0  0
   -4.6650   -0.5810    0.2460 C   0  0  0  0  0  0  0  0  0  0  0  0
   -5.9320   -0.3080   -0.2970 C   0  0  0  0  0  0  0  0  0  0  0  0
   -6.0210   -0.0100   -1.6260 C   0  0  0  0  0  0  0  0  0  0  0  0
   -4.9320    0.0250   -2.4080 N   0  0  0  0  0  0  0  0  0  0  0  0
   -3.7030   -0.2310   -1.9310 C   0  0  0  0  0  0  0  0  0  0  0  0
   -2.5150   -0.2630   -2.4780 O   0  0  0  0  0  0  0  0  0  0  0  0
   -1.6110   -0.5740   -1.5830 C   0  0  0  0  0  0  0  0  0  0  0  0
   -0.2360   -0.7400   -1.6430 C   0  0  0  0  0  0  0  0  0  0  0  0
    0.5290   -1.0800   -0.5600 C   0  0  0  0  0  0  0  0  0  0  0  0
    1.8920   -1.2500   -0.5970 O   0  0  0  0  0  0  0  0  0  0  0  0
    2.7850   -0.2220   -0.3470 C   0  0  0  0  0  0  0  0  0  0  0  0
    2.3800    1.0290   -0.0470 N   0  0  0  0  0  0  0  0  0  0  0  0
    3.2620    2.0200    0.1940 C   0  0  0  0  0  0  0  0  0  0  0  0
    3.1190    3.3350    0.5110 N   0  0  0  0  0  0  0  0  0  0  0  0
    4.3240    3.9150    0.6560 C   0  0  0  0  0  0  0  0  0  0  0  0
    5.2650    2.9330    0.4220 C   0  0  0  0  0  0  0  0  0  0  0  0
    4.5890    1.8030    0.1470 N   0  0  0  0  0  0  0  0  0  0  0  0
    5.0520    0.5740   -0.1470 C   0  0  0  0  0  0  0  0  0  0  0  0
    6.4540    0.2940   -0.2100 N   0  0  0  0  0  0  0  0  0  0  0  0
    4.1450   -0.4520   -0.3980 C   0  0  0  0  0  0  0  0  0  0  0  0
    4.5620   -1.7980   -0.7190 C   0  0  0  0  0  0  0  0  0  0  0  0
    4.9090   -2.8630   -0.9650 N   0  0  0  0  0  0  0  0  0  0  0  0
   -0.1320   -1.2590    0.6390 C   0  0  0  0  0  0  0  0  0  0  0  0
   -1.4950   -1.1070    0.7610 C   0  0  0  0  0  0  0  0  0  0  0  0
   -2.2330   -0.7640   -0.3490 C   0  0  0  0  0  0  0  0  0  0  0  0
   -3.5730   -0.5420   -0.5680 C   0  0  0  0  0  0  0  0  0  0  0  0
  1  2  2  0
  2  3  1  0
  3  4  2  0
  3 28  1  0
  4  5  1  0
  5  6  2  0
  6  7  1  0
  7  8  1  0
  7 28  2  0
  8  9  1  0
  9 10  2  0
  9 27  1  0
 10 11  1  0
 11 12  1  0
 11 25  2  0
 12 13  1  0
 13 14  2  0
 13 22  1  0
 14 15  1  0
 15 16  2  0
 15 19  1  0
 16 17  1  0
 17 18  2  0
 18 19  1  0
 19 20  1  0
 20 21  1  0
 20 22  2  0
 22 23  1  0
 23 24  3  0
 25 26  1  0
 26 27  2  0
 27 28  1  0
M  END
