
     RDKit          3D

 28 32  0  0  0  0  0  0  0  0999 V2000
   -9.5810    0.1390    1.1800 N   0  0  0  0  0  0  0  0  0  0  0  0
   -8.8810    1.0760    0.3400 C   0  0  0  0  0  0  0  0  0  0  0  0
   -7.4080    0.7690    0.3920 C   0  0  0  0  0  0  0  0  0  0  0  0
   -6.8220   -0.2140    1.0990 N   0  0  0  0  0  0  0  0  0  0  0  0
   -5.5010   -0.1720    0.8920 C   0  0  0  0  0  0  0  0  0  0  0  0
   -4.4630   -0.9380    1.3670 C   0  0  0  0  0  0  0  0  0  0  0  0
   -3.1730   -0.6590    0.9760 C   0  0  0  0  0  0  0  0  0  0  0  0
   -2.1580   -1.3910    1.4260 N   0  0  0  0  0  0  0  0  0  0  0  0
   -0.8860   -1.1000    1.0280 C   0  0  0  0  0  0  0  0  0  0  0  0
   -0.5770   -0.0720    0.1680 C   0  0  0  0  0  0  0  0  0  0  0  0
    0.6010    0.3040   -0.2860 O   0  0  0  0  0  0  0  0  0  0  0  0
    1.8990    0.1490   -0.3320 C   0  0  0  0  0  0  0  0  0  0  0  0
    2.6040   -0.8160    0.3450 C   0  0  0  0  0  0  0  0  0  0  0  0
    3.9780   -0.8770    0.2140 C   0  0  0  0  0  0  0  0  0  0  0  0
    4.7000   -0.0180   -0.5660 C   0  0  0  0  0  0  0  0  0  0  0  0
    6.1550   -0.1270   -0.6700 C   0  0  0  0  0  0  0  0  0  0  0  0
    6.8860    0.6730   -1.4040 C   0  0  0  0  0  0  0  0  0  0  0  0
    8.3640    0.5770   -1.5200 C   0  0  0  0  0  0  0  0  0  0  0  0
    8.9150   -0.4710   -0.7570 O   0  0  0  0  0  0  0  0  0  0  0  0
    8.1660   -1.3140    0.0130 C   0  0  0  0  0  0  0  0  0  0  0  0
    6.8310   -1.1740    0.0770 C   0  0  0  0  0  0  0  0  0  0  0  0
    3.9750    0.9520   -1.2450 C   0  0  0  0  0  0  0  0  0  0  0  0
    2.6250    1.0560   -1.1510 C   0  0  0  0  0  0  0  0  0  0  0  0
   -1.6640    0.6640   -0.2770 N   0  0  0  0  0  0  0  0  0  0  0  0
   -2.9090    0.3790    0.1130 C   0  0  0  0  0  0  0  0  0  0  0  0
   -3.9720    1.1000   -0.3220 N   0  0  0  0  0  0  0  0  0  0  0  0
   -5.2330    0.8630    0.0320 C   0  0  0  0  0  0  0  0  0  0  0  0
   -6.4240    1.4170   -0.2540 N   0  0  0  0  0  0  0  0  0  0  0  0
  1  2  1  0
  2  3  1  0
  3  4  2  0
  3 28  1  0
  4  5  1  0
  5  6  2  0
  5 27  1  0
  6  7  1  0
  7  8  2  0
  7 25  1  0
  8  9  1  0
  9 10  2  0
 10 11  1  0
 10 24  1  0
 11 12  1  0
 12 13  2  0
 12 23  1  0
 13 14  1  0
 14 15  2  0
 15 16  1  0
 15 22  1  0
 16 17  2  0
 16 21  1  0
 17 18  1  0
 18 19  1  0
 19 20  1  0
 20 21  2  0
 22 23  2  0
 24 25  2  0
 25 26  1  0
 26 27  2  0
 27 28  1  0
M  END
