
     RDKit          3D

 28 32  0  0  0  0  0  0  0  0999 V2000
    6.3870   -1.2610    1.9860 C   0  0  0  0  0  0  0  0  0  0  0  0
    6.3420    0.0690    1.2620 C   0  0  0  0  0  0  0  0  0  0  0  0
    5.0090    0.1710    0.6190 C   0  0  0  0  0  0  0  0  0  0  0  0
    4.8790   -0.0320   -0.7560 C   0  0  0  0  0  0  0  0  0  0  0  0
    3.6750    0.0470   -1.4110 C   0  0  0  0  0  0  0  0  0  0  0  0
    2.5270    0.3350   -0.7260 C   0  0  0  0  0  0  0  0  0  0  0  0
    1.2340    0.4260   -1.3830 C   0  0  0  0  0  0  0  0  0  0  0  0
    1.1950    0.2100   -2.7370 N   0  0  0  0  0  0  0  0  0  0  0  0
    0.0110    0.2810   -3.4040 C   0  0  0  0  0  0  0  0  0  0  0  0
   -0.5610    0.1710   -4.6080 N   0  0  0  0  0  0  0  0  0  0  0  0
   -1.8970    0.3900   -4.5190 N   0  0  0  0  0  0  0  0  0  0  0  0
   -2.2350    0.6540   -3.2300 C   0  0  0  0  0  0  0  0  0  0  0  0
   -3.1860    0.9680   -2.2090 N   0  0  0  0  0  0  0  0  0  0  0  0
   -2.4430    1.0540   -0.9960 N   0  0  0  0  0  0  0  0  0  0  0  0
   -2.9310    1.3480    0.3340 C   0  0  0  0  0  0  0  0  0  0  0  0
   -3.9250    0.3300    0.7510 C   0  0  0  0  0  0  0  0  0  0  0  0
   -3.6360   -0.8280    1.4400 C   0  0  0  0  0  0  0  0  0  0  0  0
   -4.8390   -1.4910    1.6280 C   0  0  0  0  0  0  0  0  0  0  0  0
   -5.7970   -0.6940    1.0390 C   0  0  0  0  0  0  0  0  0  0  0  0
   -7.2570   -0.9890    0.9830 C   0  0  0  0  0  0  0  0  0  0  0  0
   -7.5130   -2.1970    1.6300 O   0  0  0  0  0  0  0  0  0  0  0  0
   -5.2140    0.3520    0.5440 O   0  0  0  0  0  0  0  0  0  0  0  0
   -1.0640    0.7990   -1.2600 C   0  0  0  0  0  0  0  0  0  0  0  0
    0.1380    0.7190   -0.6250 N   0  0  0  0  0  0  0  0  0  0  0  0
   -1.0390    0.5760   -2.5930 C   0  0  0  0  0  0  0  0  0  0  0  0
    2.6270    0.5410    0.6340 C   0  0  0  0  0  0  0  0  0  0  0  0
    3.8480    0.4610    1.3040 C   0  0  0  0  0  0  0  0  0  0  0  0
    3.9400    0.6850    2.7690 C   0  0  0  0  0  0  0  0  0  0  0  0
  1  2  1  0
  2  3  1  0
  3  4  2  0
  3 27  1  0
  4  5  1  0
  5  6  2  0
  6  7  1  0
  6 26  1  0
  7  8  2  0
  7 24  1  0
  8  9  1  0
  9 10  2  0
  9 25  1  0
 10 11  1  0
 11 12  1  0
 12 13  1  0
 12 25  2  0
 13 14  1  0
 14 15  1  0
 14 23  1  0
 15 16  1  0
 16 17  2  0
 16 22  1  0
 17 18  1  0
 18 19  2  0
 19 20  1  0
 19 22  1  0
 20 21  1  0
 23 24  2  0
 23 25  1  0
 26 27  2  0
 27 28  1  0
M  END
