
     RDKit          3D

 18 20  0  0  0  0  0  0  0  0999 V2000
   -3.2610    2.1710   -1.6710 C   0  0  0  0  0  0  0  0  0  0  0  0
   -2.7160    1.0920   -0.7730 C   0  0  0  0  0  0  0  0  0  0  0  0
   -3.2840   -0.1270   -0.4770 C   0  0  0  0  0  0  0  0  0  0  0  0
   -2.4450   -0.7940    0.3840 C   0  0  0  0  0  0  0  0  0  0  0  0
   -2.6430   -2.1420    0.9730 C   0  0  0  0  0  0  0  0  0  0  0  0
   -1.3320    0.0340    0.6240 C   0  0  0  0  0  0  0  0  0  0  0  0
   -0.2560   -0.2960    1.5420 C   0  0  0  0  0  0  0  0  0  0  0  0
    1.0310   -0.3290    1.3570 C   0  0  0  0  0  0  0  0  0  0  0  0
    2.0630   -0.6740    2.3700 C   0  0  0  0  0  0  0  0  0  0  0  0
    1.7560   -0.9480    3.5580 O   0  0  0  0  0  0  0  0  0  0  0  0
    3.3430   -0.6340    1.7790 N   0  0  0  0  0  0  0  0  0  0  0  0
    3.1740   -0.2760    0.4170 C   0  0  0  0  0  0  0  0  0  0  0  0
    4.1460   -0.1260   -0.5530 C   0  0  0  0  0  0  0  0  0  0  0  0
    3.7510    0.2150   -1.8260 C   0  0  0  0  0  0  0  0  0  0  0  0
    2.4340    0.4070   -2.1530 C   0  0  0  0  0  0  0  0  0  0  0  0
    1.4960    0.2410   -1.1270 C   0  0  0  0  0  0  0  0  0  0  0  0
    1.8100   -0.0930    0.1520 C   0  0  0  0  0  0  0  0  0  0  0  0
   -1.5710    1.1380   -0.1030 N   0  0  0  0  0  0  0  0  0  0  0  0
  1  2  1  0
  2  3  2  0
  2 18  1  0
  3  4  1  0
  4  5  1  0
  4  6  2  0
  6  7  1  0
  6 18  1  0
  7  8  2  3
  8  9  1  0
  8 17  1  0
  9 10  2  0
  9 11  1  0
 11 12  1  0
 12 13  2  0
 12 17  1  0
 13 14  1  0
 14 15  2  0
 15 16  1  0
 16 17  2  0
M  END
