
     RDKit          3D

 17 17  0  0  0  0  0  0  0  0999 V2000
    4.7820   -0.3000   -0.3380 C   0  0  0  0  0  0  0  0  0  0  0  0
    4.5500    0.0690    0.9270 O   0  0  0  0  0  0  0  0  0  0  0  0
    3.4110    0.0250    1.5750 C   0  0  0  0  0  0  0  0  0  0  0  0
    2.1910    0.7890    1.1440 C   0  0  2  0  0  0  0  0  0  0  0  0
    1.2410    0.5500    2.2030 O   0  0  0  0  0  0  0  0  0  0  0  0
    1.5980    0.1780   -0.0960 C   0  0  1  0  0  0  0  0  0  0  0  0
    1.4970   -1.1940    0.1090 O   0  0  0  0  0  0  0  0  0  0  0  0
    0.1110    0.6680   -0.2230 C   0  0  0  0  0  0  0  0  0  0  0  0
   -0.3970    0.0170   -1.4730 C   0  0  0  0  0  0  0  0  0  0  0  0
   -1.7090    0.3070   -1.7940 O   0  0  0  0  0  0  0  0  0  0  0  0
   -2.8230    0.0450   -1.0230 C   0  0  0  0  0  0  0  0  0  0  0  0
   -3.8770    0.8240   -1.1430 C   0  0  0  0  0  0  0  0  0  0  0  0
   -5.1490    0.6980   -0.4060 C   0  0  0  0  0  0  0  0  0  0  0  0
   -5.1050   -0.3780    0.4620 O   0  0  0  0  0  0  0  0  0  0  0  0
   -4.0080   -1.2010    0.5960 C   0  0  0  0  0  0  0  0  0  0  0  0
   -2.8890   -1.0580   -0.0780 C   0  0  0  0  0  0  0  0  0  0  0  0
   -1.7950   -1.8940    0.0680 O   0  0  0  0  0  0  0  0  0  0  0  0
  1  2  1  0
  2  3  1  0
  3  4  1  0
  4  5  1  1
  4  6  1  0
  6  7  1  1
  6  8  1  0
  8  9  1  0
  9 10  1  0
 10 11  1  0
 11 12  2  0
 11 16  1  0
 12 13  1  0
 13 14  1  0
 14 15  1  0
 15 16  2  0
 16 17  1  0
M  END
