
     RDKit          3D

 17 17  0  0  0  0  0  0  0  0999 V2000
    5.3130    0.3200   -0.0540 C   0  0  0  0  0  0  0  0  0  0  0  0
    4.7680   -0.4870   -1.0680 O   0  0  0  0  0  0  0  0  0  0  0  0
    3.4180   -0.7540   -1.1430 C   0  0  0  0  0  0  0  0  0  0  0  0
    2.6360   -0.3970   -0.1460 C   0  0  0  0  0  0  0  0  0  0  0  0
    1.2250   -0.6790   -0.2280 C   0  0  0  0  0  0  0  0  0  0  0  0
    0.3810   -0.3520    0.7290 C   0  0  0  0  0  0  0  0  0  0  0  0
   -1.0740   -0.6480    0.6320 C   0  0  1  0  0  0  0  0  0  0  0  0
   -1.5590   -0.7310    1.9310 O   0  0  0  0  0  0  0  0  0  0  0  0
   -1.6940    0.4770   -0.1560 C   0  0  2  0  0  0  0  0  0  0  0  0
   -1.4490    1.7650    0.5770 C   0  0  0  0  0  0  0  0  0  0  0  0
   -1.9750    1.8000    1.8530 O   0  0  0  0  0  0  0  0  0  0  0  0
   -3.0590    0.2530   -0.6540 C   0  0  0  0  0  0  0  0  0  0  0  0
   -4.1350   -0.0170    0.3260 C   0  0  0  0  0  0  0  0  0  0  0  0
   -4.3560    0.9970    1.2460 O   0  0  0  0  0  0  0  0  0  0  0  0
    0.7600   -1.3210   -1.3750 O   0  0  0  0  0  0  0  0  0  0  0  0
    1.6800   -2.1340   -2.0780 C   0  0  0  0  0  0  0  0  0  0  0  0
    2.8720   -1.3900   -2.2500 O   0  0  0  0  0  0  0  0  0  0  0  0
  1  2  1  0
  2  3  1  0
  3  4  2  0
  3 17  1  0
  4  5  1  0
  5  6  2  3
  5 15  1  0
  6  7  1  0
  7  8  1  1
  7  9  1  0
  9 10  1  1
  9 12  1  0
 10 11  1  0
 12 13  1  0
 13 14  1  0
 15 16  1  0
 16 17  1  0
M  END
