
     RDKit          3D

 17 18  0  0  0  0  0  0  0  0999 V2000
   -3.3820   -2.5940   -1.0930 O   0  0  0  0  0  0  0  0  0  0  0  0
   -2.3700   -2.3900   -0.2030 C   0  0  0  0  0  0  0  0  0  0  0  0
   -1.5320   -1.3630   -0.3490 C   0  0  0  0  0  0  0  0  0  0  0  0
   -0.4690   -1.1530    0.5880 C   0  0  0  0  0  0  0  0  0  0  0  0
    0.4450   -0.2190    0.6110 C   0  0  0  0  0  0  0  0  0  0  0  0
    0.4930    0.8010   -0.4000 C   0  0  0  0  0  0  0  0  0  0  0  0
    1.4180    1.7720   -0.3790 C   0  0  0  0  0  0  0  0  0  0  0  0
    1.6610    2.8580   -1.2400 O   0  0  0  0  0  0  0  0  0  0  0  0
    2.8760    3.4490   -0.8260 C   0  0  0  0  0  0  0  0  0  0  0  0
    3.2050    2.9140    0.4260 O   0  0  0  0  0  0  0  0  0  0  0  0
    2.4020    1.7950    0.6910 C   0  0  0  0  0  0  0  0  0  0  0  0
    2.3950    0.8730    1.6380 C   0  0  0  0  0  0  0  0  0  0  0  0
    1.4640   -0.2250    1.7380 C   0  0  2  0  0  0  0  0  0  0  0  0
    2.1650   -1.4390    1.5770 O   0  0  0  0  0  0  0  0  0  0  0  0
   -1.7880   -0.5660   -1.4460 O   0  0  0  0  0  0  0  0  0  0  0  0
   -2.9680    0.2080   -1.4730 C   0  0  0  0  0  0  0  0  0  0  0  0
   -2.9790    1.0930   -0.3950 O   0  0  0  0  0  0  0  0  0  0  0  0
  1  2  1  0
  2  3  2  3
  3  4  1  0
  3 15  1  0
  4  5  2  3
  5  6  1  0
  5 13  1  0
  6  7  2  0
  7  8  1  0
  7 11  1  0
  8  9  1  0
  9 10  1  0
 10 11  1  0
 11 12  2  0
 12 13  1  0
 13 14  1  6
 15 16  1  0
 16 17  1  0
M  END
