
     RDKit          3D

 17 17  0  0  0  0  0  0  0  0999 V2000
    6.0160   -0.4440    0.2540 C   0  0  0  0  0  0  0  0  0  0  0  0
    4.7520   -0.2880    0.8540 O   0  0  0  0  0  0  0  0  0  0  0  0
    3.5780   -0.2490    0.1180 C   0  0  0  0  0  0  0  0  0  0  0  0
    3.6580   -0.3570   -1.1190 O   0  0  0  0  0  0  0  0  0  0  0  0
    2.2420   -0.0840    0.7470 C   0  0  0  0  0  0  0  0  0  0  0  0
    1.2730   -0.0810   -0.2180 O   0  0  0  0  0  0  0  0  0  0  0  0
   -0.0290    0.0660    0.2470 C   0  0  2  0  0  0  0  0  0  0  0  0
   -0.1550    1.3520    0.9760 C   0  0  0  0  0  0  0  0  0  0  0  0
   -0.2980   -0.9890    1.1110 O   0  0  0  0  0  0  0  0  0  0  0  0
   -0.9440   -0.0580   -0.9410 C   0  0  1  0  0  0  0  0  0  0  0  0
   -0.7170   -1.3330   -1.5360 O   0  0  0  0  0  0  0  0  0  0  0  0
   -2.3740    0.0450   -0.6620 C   0  0  0  0  0  0  0  0  0  0  0  0
   -2.8790    0.1610    0.5420 C   0  0  0  0  0  0  0  0  0  0  0  0
   -4.3420    0.2600    0.7170 C   0  0  0  0  0  0  0  0  0  0  0  0
   -5.0920    0.1770   -0.4440 O   0  0  0  0  0  0  0  0  0  0  0  0
   -4.5780    0.0550   -1.7120 C   0  0  0  0  0  0  0  0  0  0  0  0
   -3.2650   -0.0110   -1.8380 C   0  0  0  0  0  0  0  0  0  0  0  0
  1  2  1  0
  2  3  1  0
  3  4  2  0
  3  5  1  0
  5  6  1  0
  6  7  1  0
  7  8  1  1
  7  9  1  0
  7 10  1  0
 10 11  1  1
 10 12  1  0
 12 13  2  0
 12 17  1  0
 13 14  1  0
 14 15  1  0
 15 16  1  0
 16 17  2  0
M  END
