
     RDKit          3D

 17 17  0  0  0  0  0  0  0  0999 V2000
   -1.5380   -1.0610    3.0260 C   0  0  0  0  0  0  0  0  0  0  0  0
   -0.7340   -0.2250    2.1920 O   0  0  0  0  0  0  0  0  0  0  0  0
   -1.3240    0.2600    1.0430 C   0  0  0  0  0  0  0  0  0  0  0  0
   -2.4790    0.8950    1.1500 C   0  0  0  0  0  0  0  0  0  0  0  0
   -3.1190    1.4190   -0.0790 C   0  0  1  0  0  0  0  0  0  0  0  0
   -2.6020    2.6550   -0.4650 O   0  0  0  0  0  0  0  0  0  0  0  0
   -3.0850    0.4050   -1.1840 C   0  0  0  0  0  0  0  0  0  0  0  0
   -1.8070   -0.3580   -1.2870 C   0  0  0  0  0  0  0  0  0  0  0  0
   -0.7420    0.1150   -0.3140 C   0  0  1  0  0  0  0  0  0  0  0  0
   -0.3200    1.3710   -0.7420 O   0  0  0  0  0  0  0  0  0  0  0  0
    0.3810   -0.8670   -0.3190 C   0  0  0  0  0  0  0  0  0  0  0  0
    0.1460   -2.0330    0.0410 O   0  0  0  0  0  0  0  0  0  0  0  0
    1.6670   -0.5480   -0.7040 O   0  0  0  0  0  0  0  0  0  0  0  0
    2.7280   -1.4940   -0.7040 C   0  0  0  0  0  0  0  0  0  0  0  0
    3.9650   -0.7500   -1.1890 C   0  0  0  0  0  0  0  0  0  0  0  0
    4.2910    0.4140   -0.2650 C   0  0  0  0  0  0  0  0  0  0  0  0
    3.2410    1.3200   -0.2100 O   0  0  0  0  0  0  0  0  0  0  0  0
  1  2  1  0
  2  3  1  0
  3  4  2  0
  3  9  1  0
  4  5  1  0
  5  6  1  6
  5  7  1  0
  7  8  1  0
  8  9  1  0
  9 10  1  6
  9 11  1  0
 11 12  2  0
 11 13  1  0
 13 14  1  0
 14 15  1  0
 15 16  1  0
 16 17  1  0
M  END
