
     RDKit          3D

 16 16  0  0  0  0  0  0  0  0999 V2000
    1.7240    2.8200    0.8950 C   0  0  0  0  0  0  0  0  0  0  0  0
    1.1670    1.6020    1.3970 O   0  0  0  0  0  0  0  0  0  0  0  0
    0.7290    0.6860    0.4210 C   0  0  0  0  0  0  0  0  0  0  0  0
   -0.5670    0.5450    0.2360 C   0  0  0  0  0  0  0  0  0  0  0  0
   -1.0670   -0.3780   -0.7500 C   0  0  0  0  0  0  0  0  0  0  0  0
   -2.3870   -0.5220   -0.9390 C   0  0  0  0  0  0  0  0  0  0  0  0
   -3.3460    0.2620   -0.1400 C   0  0  1  0  0  0  0  0  0  0  0  0
   -3.2650   -0.1740    1.2900 C   0  0  0  0  0  0  0  0  0  0  0  0
   -3.1460    1.6340   -0.2950 O   0  0  0  0  0  0  0  0  0  0  0  0
   -0.1300   -1.1790   -1.5660 C   0  0  2  0  0  0  0  0  0  0  0  0
   -0.4590   -2.5220   -1.3730 O   0  0  0  0  0  0  0  0  0  0  0  0
    1.2740   -0.9230   -1.2570 C   0  0  0  0  0  0  0  0  0  0  0  0
    1.7010   -0.0710   -0.3490 C   0  0  0  0  0  0  0  0  0  0  0  0
    3.0470    0.1170   -0.1130 O   0  0  0  0  0  0  0  0  0  0  0  0
    3.8630   -0.8280    0.5560 C   0  0  0  0  0  0  0  0  0  0  0  0
    3.8820   -2.0300   -0.1100 O   0  0  0  0  0  0  0  0  0  0  0  0
  1  2  1  0
  2  3  1  0
  3  4  2  0
  3 13  1  0
  4  5  1  0
  5  6  2  3
  5 10  1  0
  6  7  1  0
  7  8  1  1
  7  9  1  0
 10 11  1  1
 10 12  1  0
 12 13  2  0
 13 14  1  0
 14 15  1  0
 15 16  1  0
M  END
