
     RDKit          3D

 24 25  0  0  0  0  0  0  0  0999 V2000
   -4.6330    3.0350   -1.4520 C   0  0  0  0  0  0  0  0  0  0  0  0
   -3.7790    1.8070   -1.3630 C   0  0  0  0  0  0  0  0  0  0  0  0
   -2.9740    1.6710   -0.3260 C   0  0  0  0  0  0  0  0  0  0  0  0
   -2.9560    2.7340    0.6930 C   0  0  0  0  0  0  0  0  0  0  0  0
   -2.0960    0.4850   -0.1710 C   0  0  0  0  0  0  0  0  0  0  0  0
   -1.2820    0.3020    0.8290 C   0  0  0  0  0  0  0  0  0  0  0  0
   -1.1900    1.2490    1.8820 N   0  0  0  0  0  0  0  0  0  0  0  0
   -0.3020   -0.8340    0.8230 C   0  0  0  0  0  0  0  0  0  0  0  0
    0.6400   -0.8630    1.9650 C   0  0  0  0  0  0  0  0  0  0  0  0
    1.4000    0.8320    2.1410 S   0  0  0  0  0  0  0  0  0  0  0  0
    2.4070    1.0390    0.6470 C   0  0  2  0  0  0  0  0  0  0  0  0
    3.5470    0.0360    0.7340 C   0  0  0  0  0  0  0  0  0  0  0  0
    4.5580    0.3210   -0.3440 C   0  0  0  0  0  0  0  0  0  0  0  0
    4.9400    1.6410   -0.3900 O   0  0  0  0  0  0  0  0  0  0  0  0
    4.4260    2.4070    0.6440 C   0  0  0  0  0  0  0  0  0  0  0  0
    2.9040    2.4450    0.4860 C   0  0  1  0  0  0  0  0  0  0  0  0
    2.6760    2.8260   -0.8430 O   0  0  0  0  0  0  0  0  0  0  0  0
   -0.1930   -1.6710   -0.1620 C   0  0  0  0  0  0  0  0  0  0  0  0
    0.7170   -2.8370   -0.2550 C   0  0  0  0  0  0  0  0  0  0  0  0
    1.0040   -3.5810    0.9990 C   0  0  0  0  0  0  0  0  0  0  0  0
   -0.9700   -1.3310   -1.3940 C   0  0  1  0  0  0  0  0  0  0  0  0
   -1.1530   -2.5110   -2.3280 C   0  0  0  0  0  0  0  0  0  0  0  0
   -1.8860   -3.6430   -1.7010 C   0  0  0  0  0  0  0  0  0  0  0  0
   -2.2480   -0.6490   -1.1080 C   0  0  0  0  0  0  0  0  0  0  0  0
  1  2  1  0
  2  3  2  3
  3  4  1  0
  3  5  1  0
  5  6  2  0
  5 24  1  0
  6  7  1  0
  6  8  1  0
  8  9  1  0
  8 18  2  0
  9 10  1  0
 11 10  1  1
 11 12  1  0
 11 16  1  0
 12 13  1  0
 13 14  1  0
 14 15  1  0
 15 16  1  0
 16 17  1  6
 18 19  1  0
 18 21  1  0
 19 20  1  0
 21 22  1  1
 21 24  1  0
 22 23  1  0
M  END
