
     RDKit          3D

 24 25  0  0  0  0  0  0  0  0999 V2000
   -5.0540   -2.5240    0.1270 C   0  0  0  0  0  0  0  0  0  0  0  0
   -4.0900   -2.3620   -1.0060 C   0  0  0  0  0  0  0  0  0  0  0  0
   -2.9890   -1.5360   -0.7370 O   0  0  0  0  0  0  0  0  0  0  0  0
   -3.1530   -0.2150   -0.4110 C   0  0  0  0  0  0  0  0  0  0  0  0
   -4.3900    0.3760   -0.3390 C   0  0  0  0  0  0  0  0  0  0  0  0
   -4.5480    1.7050   -0.0120 C   0  0  0  0  0  0  0  0  0  0  0  0
   -5.8820    2.3550    0.0700 C   0  0  0  0  0  0  0  0  0  0  0  0
   -3.4040    2.4140    0.2390 C   0  0  0  0  0  0  0  0  0  0  0  0
   -2.1250    1.8310    0.1710 C   0  0  0  0  0  0  0  0  0  0  0  0
   -0.9340    2.6640    0.4560 C   0  0  0  0  0  0  0  0  0  0  0  0
   -1.9700    0.5170   -0.1530 C   0  0  0  0  0  0  0  0  0  0  0  0
   -0.6970   -0.2060   -0.2570 C   0  0  0  0  0  0  0  0  0  0  0  0
    0.7910    0.6840    0.0600 S   0  0  0  0  0  0  0  0  0  0  0  0
    2.2040   -0.4550   -0.1460 C   0  0  2  0  0  0  0  0  0  0  0  0
    3.4840    0.3330    0.1370 C   0  0  1  0  0  0  0  0  0  0  0  0
    3.5780    1.3920   -0.7640 O   0  0  0  0  0  0  0  0  0  0  0  0
    3.3190    0.9640    1.5260 C   0  0  0  0  0  0  0  0  0  0  0  0
    4.5720    1.7600    1.8540 C   0  0  0  0  0  0  0  0  0  0  0  0
    4.8030    2.8090    0.8980 N   0  0  0  0  0  0  0  0  0  0  0  0
    2.2420   -0.8330   -1.5970 C   0  0  0  0  0  0  0  0  0  0  0  0
    3.1660   -2.0370   -1.7130 C   0  0  0  0  0  0  0  0  0  0  0  0
    2.3940   -3.2000   -1.1280 C   0  0  0  0  0  0  0  0  0  0  0  0
    1.7410   -2.9240    0.1720 C   0  0  0  0  0  0  0  0  0  0  0  0
    2.0220   -1.5910    0.7830 C   0  0  0  0  0  0  0  0  0  0  0  0
  1  2  1  0
  2  3  1  0
  3  4  1  0
  4  5  2  0
  4 11  1  0
  5  6  1  0
  6  7  1  0
  6  8  2  0
  8  9  1  0
  9 10  1  0
  9 11  2  0
 11 12  1  0
 12 13  1  0
 14 13  1  6
 14 15  1  0
 14 20  1  0
 14 24  1  0
 15 16  1  6
 15 17  1  0
 17 18  1  0
 18 19  1  0
 20 21  1  0
 21 22  1  0
 22 23  1  0
 23 24  1  0
M  CHG  1  19   1
M  END
