
     RDKit          3D

 24 25  0  0  0  0  0  0  0  0999 V2000
   -7.0540   -1.8990    0.1250 C   0  0  0  0  0  0  0  0  0  0  0  0
   -6.2790   -0.6360   -0.1860 C   0  0  1  0  0  0  0  0  0  0  0  0
   -7.3050    0.4610   -0.4890 C   0  0  0  0  0  0  0  0  0  0  0  0
   -5.4220   -0.2520    1.0010 C   0  0  0  0  0  0  0  0  0  0  0  0
   -4.6270    0.9870    0.7660 C   0  0  0  0  0  0  0  0  0  0  0  0
   -3.6820    0.9020   -0.3810 C   0  0  0  0  0  0  0  0  0  0  0  0
   -2.6650   -0.2070   -0.1890 C   0  0  1  0  0  0  0  0  0  0  0  0
   -1.7220   -0.2720   -1.3620 C   0  0  0  0  0  0  0  0  0  0  0  0
   -0.3680    0.2120   -1.0280 C   0  0  0  0  0  0  0  0  0  0  0  0
    0.8550    1.1760   -1.9130 S   0  0  0  0  0  0  0  0  0  0  0  0
    2.0820    1.1560   -0.5740 C   0  0  0  0  0  0  0  0  0  0  0  0
    3.3980    1.8080   -0.6560 C   0  0  0  0  0  0  0  0  0  0  0  0
    4.4290    0.9470   -1.1800 N   0  0  0  0  0  0  0  0  0  0  0  0
    4.8790    0.0580   -0.1200 C   0  0  0  0  0  0  0  0  0  0  0  0
    6.3640   -0.2200   -0.2130 C   0  0  2  0  0  0  0  0  0  0  0  0
    6.7100   -1.1500    0.9360 C   0  0  0  0  0  0  0  0  0  0  0  0
    7.1530    1.0490   -0.0120 C   0  0  0  0  0  0  0  0  0  0  0  0
    6.7190   -0.9020   -1.5100 C   0  0  0  0  0  0  0  0  0  0  0  0
    1.4650    0.4490    0.3700 C   0  0  0  0  0  0  0  0  0  0  0  0
    0.2390   -0.0470    0.1980 C   0  0  0  0  0  0  0  0  0  0  0  0
   -0.6920   -0.8760    1.0890 C   0  0  2  0  0  0  0  0  0  0  0  0
   -0.9650   -2.0420    0.3900 O   0  0  0  0  0  0  0  0  0  0  0  0
   -1.9790   -0.0530    1.1240 C   0  0  1  0  0  0  0  0  0  0  0  0
   -1.5750    1.2710    1.3410 O   0  0  0  0  0  0  0  0  0  0  0  0
  2  1  1  1
  2  3  1  0
  2  4  1  0
  4  5  1  0
  5  6  1  0
  7  6  1  6
  7  8  1  0
  7 23  1  0
  8  9  1  0
  9 10  1  0
  9 20  2  0
 10 11  1  0
 11 12  1  0
 11 19  2  0
 12 13  1  0
 13 14  1  0
 14 15  1  0
 15 16  1  1
 15 17  1  0
 15 18  1  0
 19 20  1  0
 20 21  1  0
 21 22  1  6
 21 23  1  0
 23 24  1  6
M  CHG  1  13   1
M  END
