
     RDKit          3D

 24 25  0  0  0  0  0  0  0  0999 V2000
   -2.2030   -1.9130   -2.6590 C   0  0  0  0  0  0  0  0  0  0  0  0
   -2.1490   -0.9790   -1.4500 C   0  0  0  0  0  0  0  0  0  0  0  0
   -0.7150   -0.5760   -1.2480 C   0  0  1  0  0  0  0  0  0  0  0  0
   -0.2870    0.1460   -2.5310 C   0  0  0  0  0  0  0  0  0  0  0  0
   -0.4460    0.2550   -0.0440 C   0  0  1  0  0  0  0  0  0  0  0  0
    1.3190    0.7040    0.0810 S   0  0  0  0  0  0  0  0  0  0  0  0
    2.3470   -0.7570    0.3730 C   0  0  0  0  0  0  0  0  0  0  0  0
    3.7800   -0.2690    0.4610 C   0  0  2  0  0  0  0  0  0  0  0  0
    4.1440    0.3720   -0.7640 N   0  0  0  0  0  0  0  0  0  0  0  0
    4.7080   -1.3530    0.8540 C   0  0  0  0  0  0  0  0  0  0  0  0
    5.6890   -1.5890    0.0940 O   0  0  0  0  0  0  0  0  0  0  0  0
    4.4750   -2.0530    2.0090 O   0  0  0  0  0  0  0  0  0  0  0  0
   -1.2020    1.5290   -0.2060 C   0  0  0  0  0  0  0  0  0  0  0  0
   -2.5330    1.6460    0.0690 C   0  0  0  0  0  0  0  0  0  0  0  0
   -3.1740    2.8520   -0.1130 C   0  0  0  0  0  0  0  0  0  0  0  0
   -2.5320    3.9630   -0.5650 C   0  0  0  0  0  0  0  0  0  0  0  0
   -1.1870    3.8590   -0.8470 C   0  0  0  0  0  0  0  0  0  0  0  0
   -0.5440    2.6530   -0.6650 C   0  0  0  0  0  0  0  0  0  0  0  0
   -0.7460   -0.3940    1.2490 C   0  0  0  0  0  0  0  0  0  0  0  0
   -0.9160    0.3440    2.3940 C   0  0  0  0  0  0  0  0  0  0  0  0
   -1.1830   -0.2610    3.6120 C   0  0  0  0  0  0  0  0  0  0  0  0
   -1.2830   -1.6350    3.6850 C   0  0  0  0  0  0  0  0  0  0  0  0
   -1.1110   -2.3590    2.5340 C   0  0  0  0  0  0  0  0  0  0  0  0
   -0.8420   -1.7540    1.3080 C   0  0  0  0  0  0  0  0  0  0  0  0
  1  2  1  0
  2  3  1  0
  3  4  1  6
  3  5  1  0
  5  6  1  1
  5 13  1  0
  5 19  1  0
  6  7  1  0
  7  8  1  0
  8  9  1  6
  8 10  1  0
 10 11  2  0
 10 12  1  0
 13 14  2  0
 13 18  1  0
 14 15  1  0
 15 16  2  0
 16 17  1  0
 17 18  2  0
 19 20  2  0
 19 24  1  0
 20 21  1  0
 21 22  2  0
 22 23  1  0
 23 24  2  0
M  CHG  1   9   1
M  END
