
     RDKit          3D

 24 25  0  0  0  0  0  0  0  0999 V2000
    5.6650    3.1700   -0.9900 C   0  0  0  0  0  0  0  0  0  0  0  0
    4.9030    2.3420   -1.6840 C   0  0  0  0  0  0  0  0  0  0  0  0
    4.7860    0.9080   -1.3290 C   0  0  0  0  0  0  0  0  0  0  0  0
    3.4150    0.5440   -1.0200 N   0  0  0  0  0  0  0  0  0  0  0  0
    3.3160   -0.9140   -1.0000 C   0  0  0  0  0  0  0  0  0  0  0  0
    1.9440   -1.3690   -1.3870 C   0  0  0  0  0  0  0  0  0  0  0  0
    0.9220   -0.8500   -0.4520 C   0  0  1  0  0  0  0  0  0  0  0  0
   -0.5140   -1.2160   -0.8220 C   0  0  0  0  0  0  0  0  0  0  0  0
   -1.4000    0.0070   -0.4690 C   0  0  1  0  0  0  0  0  0  0  0  0
   -2.7520   -0.5290   -0.2500 C   0  0  0  0  0  0  0  0  0  0  0  0
   -3.8500    0.3990    0.1240 C   0  0  1  0  0  0  0  0  0  0  0  0
   -5.0840   -0.5350    0.2760 C   0  0  0  0  0  0  0  0  0  0  0  0
   -3.6700    0.9820    1.5110 C   0  0  0  0  0  0  0  0  0  0  0  0
   -4.2700    1.4080   -0.8810 C   0  0  1  0  0  0  0  0  0  0  0  0
   -3.2760    2.3970   -1.3430 C   0  0  0  0  0  0  0  0  0  0  0  0
   -4.7630    0.7480   -2.0380 O   0  0  0  0  0  0  0  0  0  0  0  0
   -0.7960    0.7790    1.0930 S   0  0  0  0  0  0  0  0  0  0  0  0
    0.2640   -0.4680    1.8290 C   0  0  0  0  0  0  0  0  0  0  0  0
    0.2630   -0.6850    3.1740 C   0  0  0  0  0  0  0  0  0  0  0  0
    1.0800   -1.7140    3.6400 C   0  0  0  0  0  0  0  0  0  0  0  0
    1.8600   -2.4950    2.8210 C   0  0  0  0  0  0  0  0  0  0  0  0
    2.6340   -3.4880    3.3600 O   0  0  0  0  0  0  0  0  0  0  0  0
    1.8330   -2.2400    1.4380 C   0  0  0  0  0  0  0  0  0  0  0  0
    1.0490   -1.2420    0.9580 C   0  0  0  0  0  0  0  0  0  0  0  0
  1  2  2  0
  2  3  1  0
  3  4  1  0
  4  5  1  0
  5  6  1  0
  7  6  1  6
  7  8  1  0
  7 24  1  0
  8  9  1  0
  9 10  1  1
  9 17  1  0
 10 11  1  0
 11 12  1  1
 11 13  1  0
 11 14  1  0
 14 15  1  6
 14 16  1  0
 17 18  1  0
 18 19  2  0
 18 24  1  0
 19 20  1  0
 20 21  2  0
 21 22  1  0
 21 23  1  0
 23 24  2  0
M  CHG  1   4   1
M  END
