
     RDKit          3D

 24 25  0  0  0  0  0  0  0  0999 V2000
    7.8970   -0.1040    0.4320 C   0  0  0  0  0  0  0  0  0  0  0  0
    6.3950    0.0170    0.8000 C   0  0  0  0  0  0  0  0  0  0  0  0
    5.6660   -0.3980   -0.4230 C   0  0  0  0  0  0  0  0  0  0  0  0
    4.2010   -0.4400   -0.4130 C   0  0  0  0  0  0  0  0  0  0  0  0
    3.4610    0.8150   -0.1300 C   0  0  1  0  0  0  0  0  0  0  0  0
    3.7830    1.3470    1.2480 C   0  0  0  0  0  0  0  0  0  0  0  0
    3.7320    1.8580   -1.1960 C   0  0  0  0  0  0  0  0  0  0  0  0
    2.0130    0.4870   -0.2580 C   0  0  0  0  0  0  0  0  0  0  0  0
    1.0170    0.9430   -1.0850 C   0  0  0  0  0  0  0  0  0  0  0  0
   -0.2090    0.4190   -0.9350 C   0  0  0  0  0  0  0  0  0  0  0  0
   -0.4570   -0.5080   -0.0220 C   0  0  0  0  0  0  0  0  0  0  0  0
   -1.5770   -1.3080    0.4050 C   0  0  2  0  0  0  0  0  0  0  0  0
   -1.4550   -2.7040   -0.1470 C   0  0  0  0  0  0  0  0  0  0  0  0
   -2.3000   -3.5190    0.6080 O   0  0  0  0  0  0  0  0  0  0  0  0
   -2.8820   -0.7440    0.3520 N   0  0  1  0  0  0  0  0  0  0  0  0
   -2.9310    0.5230    1.0320 C   0  0  0  0  0  0  0  0  0  0  0  0
   -4.2160    0.6920    1.7880 C   0  0  0  0  0  0  0  0  0  0  0  0
   -5.3160    1.3710    1.0970 C   0  0  0  0  0  0  0  0  0  0  0  0
   -5.2390    1.5060   -0.3790 C   0  0  0  0  0  0  0  0  0  0  0  0
   -5.7430    0.2970   -1.1380 C   0  0  0  0  0  0  0  0  0  0  0  0
   -4.9810   -0.9550   -0.8280 C   0  0  1  0  0  0  0  0  0  0  0  0
   -5.4160   -1.9110   -1.7820 O   0  0  0  0  0  0  0  0  0  0  0  0
   -3.4830   -0.7270   -0.9540 C   0  0  0  0  0  0  0  0  0  0  0  0
    1.1150   -0.7090    0.7270 S   0  0  0  0  0  0  0  0  0  0  0  0
  1  2  1  0
  2  3  1  0
  3  4  1  0
  4  5  1  0
  5  6  1  1
  5  7  1  0
  5  8  1  0
  8  9  2  0
  8 24  1  0
  9 10  1  0
 10 11  2  0
 11 12  1  0
 11 24  1  0
 12 13  1  6
 12 15  1  0
 13 14  1  0
 15 16  1  6
 15 23  1  0
 16 17  1  0
 17 18  1  0
 18 19  1  0
 19 20  1  0
 20 21  1  0
 21 22  1  6
 21 23  1  0
M  CHG  1  15   1
M  END
