
     RDKit          3D

 34 37  0  0  0  0  0  0  0  0999 V2000
   -2.1580   -1.3560   -1.6420 C   0  0  0  0  0  0  0  0  0  0  0  0
   -0.9220   -0.8930   -0.9380 C   0  0  0  0  0  0  0  0  0  0  0  0
    0.2380   -0.8180   -1.5730 N   0  0  0  0  0  0  0  0  0  0  0  0
    1.2180   -0.3800   -0.7590 N   0  0  0  0  0  0  0  0  0  0  0  0
    0.8280   -0.1430    0.4010 C   0  0  0  0  0  0  0  0  0  0  0  0
    1.5680    0.3350    1.5560 C   0  0  0  0  0  0  0  0  0  0  0  0
    2.8320    0.6050    1.6310 C   0  0  0  0  0  0  0  0  0  0  0  0
    3.2290    1.0720    2.9590 O   0  0  0  0  0  0  0  0  0  0  0  0
    3.8680    0.5280    0.6850 N   0  0  0  0  0  0  0  0  0  0  0  0
    4.3210    1.4600   -0.3210 C   0  0  0  0  0  0  0  0  0  0  0  0
    5.7670    1.0450   -0.6090 C   0  0  0  0  0  0  0  0  0  0  0  0
    6.0820    0.1510    0.5400 C   0  0  2  0  0  0  0  0  0  0  0  0
    7.2960   -0.6890    0.4010 C   0  0  2  0  0  0  0  0  0  0  0  0
    8.6500   -0.1110    0.2220 C   0  0  0  0  0  0  0  0  0  0  0  0
    7.9770   -0.8750   -0.9020 C   0  0  0  0  0  0  0  0  0  0  0  0
    4.7780   -0.6530    0.6250 C   0  0  0  0  0  0  0  0  0  0  0  0
   -0.6670   -0.4630    0.4150 C   0  0  1  0  0  0  0  0  0  0  0  0
   -1.3490    0.7610    0.9080 C   0  0  0  0  0  0  0  0  0  0  0  0
   -2.7690    0.7400    1.0480 C   0  0  0  0  0  0  0  0  0  0  0  0
   -3.1820    1.5430    2.1240 O   0  0  0  0  0  0  0  0  0  0  0  0
   -3.8480    0.1770    0.4350 N   0  0  0  0  0  0  0  0  0  0  0  0
   -4.7230    0.7370   -0.3070 C   0  0  0  0  0  0  0  0  0  0  0  0
   -4.7350    2.0690   -0.6530 N   0  0  0  0  0  0  0  0  0  0  0  0
   -5.7550    2.2930   -1.4420 N   0  0  0  0  0  0  0  0  0  0  0  0
   -6.4140    1.1630   -1.6250 C   0  0  0  0  0  0  0  0  0  0  0  0
   -7.6660    0.9260   -2.3970 C   0  0  1  0  0  0  0  0  0  0  0  0
   -7.5000    1.4160   -3.6720 F   0  0  0  0  0  0  0  0  0  0  0  0
   -8.0170   -0.3950   -2.4230 F   0  0  0  0  0  0  0  0  0  0  0  0
   -8.7270    1.6390   -1.8420 F   0  0  0  0  0  0  0  0  0  0  0  0
   -5.7830    0.1700   -0.9170 N   0  0  0  0  0  0  0  0  0  0  0  0
   -6.2860   -1.1330   -0.7410 C   0  0  0  0  0  0  0  0  0  0  0  0
   -6.5540   -1.8000    0.3510 C   0  0  0  0  0  0  0  0  0  0  0  0
   -6.4320   -1.3820    1.7470 C   0  0  0  0  0  0  0  0  0  0  0  0
   -6.0590   -0.1070    1.9550 F   0  0  0  0  0  0  0  0  0  0  0  0
  1  2  1  0
  2  3  2  0
  2 17  1  0
  3  4  1  0
  4  5  2  0
  5  6  1  0
  5 17  1  0
  6  7  2  3
  7  8  1  0
  7  9  1  0
  9 10  1  0
  9 16  1  0
 10 11  1  0
 12 11  1  6
 12 13  1  0
 12 16  1  0
 13 14  1  1
 13 15  1  0
 14 15  1  0
 17 18  1  6
 18 19  1  0
 19 20  2  0
 19 21  1  0
 21 22  2  3
 22 23  1  0
 22 30  1  0
 23 24  1  0
 24 25  2  0
 25 26  1  0
 25 30  1  0
 26 27  1  6
 26 28  1  0
 26 29  1  0
 30 31  1  0
 31 32  2  3
 32 33  1  0
 33 34  1  0
M  END
