
     RDKit          3D

 33 36  0  0  0  0  0  0  0  0999 V2000
   -6.7490   -0.5930    1.9190 C   0  0  0  0  0  0  0  0  0  0  0  0
   -6.9270   -0.9490    0.4570 C   0  0  2  0  0  0  0  0  0  0  0  0
   -6.0400   -0.1210   -0.4420 C   0  0  0  0  0  0  0  0  0  0  0  0
   -4.6200   -0.3360   -0.0950 N   0  0  0  0  0  0  0  0  0  0  0  0
   -3.6910    0.3810   -0.8630 C   0  0  0  0  0  0  0  0  0  0  0  0
   -4.0630    1.2410   -1.8860 C   0  0  0  0  0  0  0  0  0  0  0  0
   -3.1560    1.9420   -2.6360 C   0  0  0  0  0  0  0  0  0  0  0  0
   -1.8230    1.7790   -2.3570 C   0  0  0  0  0  0  0  0  0  0  0  0
   -1.4600    0.9640   -1.3870 N   0  0  0  0  0  0  0  0  0  0  0  0
   -2.3150    0.2540   -0.6230 C   0  0  0  0  0  0  0  0  0  0  0  0
   -1.8110   -0.5760    0.3730 N   0  0  0  0  0  0  0  0  0  0  0  0
   -0.4690   -0.7870    0.7110 C   0  0  0  0  0  0  0  0  0  0  0  0
    0.5830   -0.1820    0.0850 C   0  0  0  0  0  0  0  0  0  0  0  0
    1.8920   -0.4560    0.4940 C   0  0  0  0  0  0  0  0  0  0  0  0
    3.0140    0.1910   -0.1740 C   0  0  0  0  0  0  0  0  0  0  0  0
    4.3220    0.0270    0.1080 N   0  0  0  0  0  0  0  0  0  0  0  0
    5.0080    0.8140   -0.7530 C   0  0  0  0  0  0  0  0  0  0  0  0
    6.4800    0.9780   -0.8380 C   0  0  2  0  0  0  0  0  0  0  0  0
    7.1730   -0.3050   -1.2060 C   0  0  0  0  0  0  0  0  0  0  0  0
    7.6220   -1.0800   -0.0400 C   0  0  0  0  0  0  0  0  0  0  0  0
    7.5740   -0.6850    1.2150 C   0  0  0  0  0  0  0  0  0  0  0  0
    7.0400    0.6350    1.5820 C   0  0  0  0  0  0  0  0  0  0  0  0
    7.0270    1.5980    0.4270 C   0  0  0  0  0  0  0  0  0  0  0  0
    4.0830    1.4190   -1.5170 N   0  0  0  0  0  0  0  0  0  0  0  0
    2.9100    1.0370   -1.1580 O   0  0  0  0  0  0  0  0  0  0  0  0
    2.0760   -1.3210    1.5060 N   0  0  0  0  0  0  0  0  0  0  0  0
    1.0730   -1.9090    2.1140 N   0  0  0  0  0  0  0  0  0  0  0  0
   -0.1770   -1.6780    1.7600 C   0  0  0  0  0  0  0  0  0  0  0  0
   -1.1240   -2.2500    2.3540 O   0  0  0  0  0  0  0  0  0  0  0  0
   -8.3580   -0.6610    0.0510 C   0  0  2  0  0  0  0  0  0  0  0  0
   -9.2590   -1.4010    0.8020 F   0  0  0  0  0  0  0  0  0  0  0  0
   -8.5200   -0.8620   -1.3040 F   0  0  0  0  0  0  0  0  0  0  0  0
   -8.5560    0.7030    0.2790 F   0  0  0  0  0  0  0  0  0  0  0  0
  2  1  1  1
  2  3  1  0
  2 30  1  0
  3  4  1  0
  4  5  1  0
  5  6  2  0
  5 10  1  0
  6  7  1  0
  7  8  2  0
  8  9  1  0
  9 10  2  0
 10 11  1  0
 11 12  1  0
 12 13  2  0
 12 28  1  0
 13 14  1  0
 14 15  1  0
 14 26  2  0
 15 16  2  0
 15 25  1  0
 16 17  1  0
 18 17  1  1
 17 24  2  0
 18 19  1  0
 18 23  1  0
 19 20  1  0
 20 21  2  0
 21 22  1  0
 22 23  1  0
 24 25  1  0
 26 27  1  0
 27 28  1  0
 28 29  2  0
 30 31  1  1
 30 32  1  0
 30 33  1  0
M  END
