
     RDKit          3D

 33 36  0  0  0  0  0  0  0  0999 V2000
    8.1110   -2.1580    0.3850 C   0  0  0  0  0  0  0  0  0  0  0  0
    8.3120   -0.8770   -0.3710 C   0  0  0  0  0  0  0  0  0  0  0  0
    9.5340   -0.4780   -0.8400 N   0  0  0  0  0  0  0  0  0  0  0  0
    9.3950    0.6680   -1.4520 N   0  0  0  0  0  0  0  0  0  0  0  0
    8.1300    1.0620   -1.4180 C   0  0  0  0  0  0  0  0  0  0  0  0
    7.4230    0.0760   -0.7250 C   0  0  0  0  0  0  0  0  0  0  0  0
    6.0020    0.1170   -0.4600 C   0  0  0  0  0  0  0  0  0  0  0  0
    5.2890   -0.7630    0.1780 C   0  0  0  0  0  0  0  0  0  0  0  0
    3.8380   -0.5480    0.3510 C   0  0  0  0  0  0  0  0  0  0  0  0
    3.1490    0.5130   -0.1060 N   0  0  0  0  0  0  0  0  0  0  0  0
    1.8550    0.3740    0.2340 C   0  0  0  0  0  0  0  0  0  0  0  0
    0.8230    1.3750   -0.1190 C   0  0  0  0  0  0  0  0  0  0  0  0
   -0.4870    1.0690    0.2960 N   0  0  0  0  0  0  0  0  0  0  0  0
   -1.1610    1.3490    1.5120 C   0  0  0  0  0  0  0  0  0  0  0  0
   -0.8400    2.2870    2.2800 O   0  0  0  0  0  0  0  0  0  0  0  0
   -2.2830    0.3470    1.6900 C   0  0  0  0  0  0  0  0  0  0  0  0
   -1.9870   -0.5720    0.5500 C   0  0  1  0  0  0  0  0  0  0  0  0
   -2.8160   -1.6370    0.2710 N   0  0  0  0  0  0  0  0  0  0  0  0
   -4.2800   -1.5680    0.1540 C   0  0  0  0  0  0  0  0  0  0  0  0
   -4.7650   -0.6440    0.7870 N   0  0  0  0  0  0  0  0  0  0  0  0
   -5.9030    0.0330    1.1620 C   0  0  1  0  0  0  0  0  0  0  0  0
   -7.0520    0.4100    0.2860 C   0  0  0  0  0  0  0  0  0  0  0  0
   -7.2440   -0.5130    1.4650 C   0  0  0  0  0  0  0  0  0  0  0  0
   -4.9260   -2.6190   -0.6880 C   0  0  2  0  0  0  0  0  0  0  0  0
   -6.2610   -2.4850   -0.7400 F   0  0  0  0  0  0  0  0  0  0  0  0
   -4.6770   -3.8880   -0.1340 F   0  0  0  0  0  0  0  0  0  0  0  0
   -4.3250   -2.6490   -1.9250 F   0  0  0  0  0  0  0  0  0  0  0  0
   -1.4870    0.3340   -0.5260 C   0  0  1  0  0  0  0  0  0  0  0  0
   -2.4230    1.3680   -1.0270 C   0  0  2  0  0  0  0  0  0  0  0  0
   -3.5210    0.8790   -1.9190 C   0  0  0  0  0  0  0  0  0  0  0  0
   -1.6080    2.3980   -1.8230 C   0  0  0  0  0  0  0  0  0  0  0  0
    1.7820   -0.7880    0.9010 N   0  0  0  0  0  0  0  0  0  0  0  0
    2.9640   -1.3110    0.9560 O   0  0  0  0  0  0  0  0  0  0  0  0
  1  2  1  0
  2  3  2  0
  2  6  1  0
  3  4  1  0
  4  5  1  0
  5  6  2  0
  6  7  1  0
  7  8  2  3
  8  9  1  0
  9 10  2  0
  9 33  1  0
 10 11  1  0
 11 12  1  0
 11 32  2  0
 12 13  1  0
 13 14  1  0
 28 13  1  1
 14 15  2  0
 14 16  1  0
 16 17  1  0
 17 18  1  6
 17 28  1  0
 18 19  1  0
 19 20  2  3
 19 24  1  0
 21 20  1  6
 21 22  1  0
 21 23  1  0
 22 23  1  0
 24 25  1  6
 24 26  1  0
 24 27  1  0
 28 29  1  0
 29 30  1  6
 29 31  1  0
 32 33  1  0
M  END
