
     RDKit          3D

 34 37  0  0  0  0  0  0  0  0999 V2000
   -4.2490   -0.2910   -2.2600 C   0  0  0  0  0  0  0  0  0  0  0  0
   -3.3270   -0.5540   -1.0570 C   0  0  0  0  0  0  0  0  0  0  0  0
   -2.1070   -0.1570   -1.2100 C   0  0  0  0  0  0  0  0  0  0  0  0
   -0.9150   -0.1930   -0.3660 C   0  0  0  0  0  0  0  0  0  0  0  0
    0.2770   -0.7900   -0.6070 N   0  0  0  0  0  0  0  0  0  0  0  0
    1.1300   -0.5960    0.4050 N   0  0  0  0  0  0  0  0  0  0  0  0
    2.3790   -0.8810    0.8270 C   0  0  0  0  0  0  0  0  0  0  0  0
    3.3870   -1.5760    0.2700 O   0  0  0  0  0  0  0  0  0  0  0  0
    4.4680   -1.0880   -0.5450 C   0  0  1  0  0  0  0  0  0  0  0  0
    3.8150   -0.4580   -1.7370 C   0  0  0  0  0  0  0  0  0  0  0  0
    5.1740    0.0030    0.2140 C   0  0  0  0  0  0  0  0  0  0  0  0
    5.2990   -2.2460   -0.8910 C   0  0  0  0  0  0  0  0  0  0  0  0
    6.5180   -2.1660   -1.6820 C   0  0  0  0  0  0  0  0  0  0  0  0
    6.4860   -1.6850   -3.0890 C   0  0  2  0  0  0  0  0  0  0  0  0
    5.6510   -2.5000   -3.8430 F   0  0  0  0  0  0  0  0  0  0  0  0
    7.7620   -1.9400   -3.6970 F   0  0  0  0  0  0  0  0  0  0  0  0
    6.3130   -0.3540   -3.2810 F   0  0  0  0  0  0  0  0  0  0  0  0
    2.4930   -0.2870    2.0550 N   0  0  0  0  0  0  0  0  0  0  0  0
    1.3860    0.3260    2.3750 N   0  0  0  0  0  0  0  0  0  0  0  0
    0.5270    0.1430    1.3590 C   0  0  0  0  0  0  0  0  0  0  0  0
   -0.7420    0.3920    0.8760 C   0  0  0  0  0  0  0  0  0  0  0  0
   -1.8280    1.1320    1.4760 C   0  0  0  0  0  0  0  0  0  0  0  0
   -1.6680    2.4780    1.9620 C   0  0  0  0  0  0  0  0  0  0  0  0
   -0.5510    2.8980    2.3590 O   0  0  0  0  0  0  0  0  0  0  0  0
   -2.8380    3.2970    1.9700 N   0  0  0  0  0  0  0  0  0  0  0  0
   -3.7890    3.1940    0.9330 C   0  0  2  0  0  0  0  0  0  0  0  0
   -5.1920    3.6550    1.0800 C   0  0  0  0  0  0  0  0  0  0  0  0
   -4.7970    2.1860    0.8560 C   0  0  2  0  0  0  0  0  0  0  0  0
   -5.0740    1.2460    1.9320 C   0  0  0  0  0  0  0  0  0  0  0  0
   -4.8430    0.0280    2.0130 N   0  0  0  0  0  0  0  0  0  0  0  0
   -4.3050   -1.0520    1.3350 C   0  0  0  0  0  0  0  0  0  0  0  0
   -4.0400   -2.1160    2.1410 C   0  0  0  0  0  0  0  0  0  0  0  0
   -4.2860   -2.0980    3.4790 F   0  0  0  0  0  0  0  0  0  0  0  0
   -4.0110   -1.2440   -0.0190 N   0  0  0  0  0  0  0  0  0  0  0  0
  1  2  1  0
  2  3  2  0
  2 34  1  0
  3  4  1  0
  4  5  1  0
  4 21  2  0
  5  6  1  0
  6  7  1  0
  6 20  1  0
  7  8  1  0
  7 18  2  0
  8  9  1  0
  9 10  1  6
  9 11  1  0
  9 12  1  0
 12 13  1  0
 13 14  1  0
 14 15  1  6
 14 16  1  0
 14 17  1  0
 18 19  1  0
 19 20  2  0
 20 21  1  0
 21 22  1  0
 22 23  1  0
 23 24  2  0
 23 25  1  0
 25 26  1  0
 26 27  1  1
 26 28  1  0
 28 27  1  1
 28 29  1  0
 29 30  2  0
 30 31  1  0
 31 32  2  3
 31 34  1  0
 32 33  1  0
M  END
