
     RDKit          3D

 34 37  0  0  0  0  0  0  0  0999 V2000
   -0.4780    2.7060   -1.1160 O   0  0  0  0  0  0  0  0  0  0  0  0
   -0.2400    1.4730   -1.1530 C   0  0  0  0  0  0  0  0  0  0  0  0
    0.8990    1.0300   -2.0180 C   0  0  0  0  0  0  0  0  0  0  0  0
    1.5580    2.1700   -2.7160 C   0  0  0  0  0  0  0  0  0  0  0  0
    2.6150    1.7100   -3.5120 O   0  0  0  0  0  0  0  0  0  0  0  0
    3.6920    1.0730   -2.9560 C   0  0  0  0  0  0  0  0  0  0  0  0
    4.7180    0.6240   -3.7940 C   0  0  0  0  0  0  0  0  0  0  0  0
    5.7690    0.0020   -3.2300 N   0  0  0  0  0  0  0  0  0  0  0  0
    5.8580   -0.1950   -1.9160 N   0  0  0  0  0  0  0  0  0  0  0  0
    4.8930    0.2220   -1.0830 C   0  0  0  0  0  0  0  0  0  0  0  0
    4.9840    0.0300    0.1850 N   0  0  0  0  0  0  0  0  0  0  0  0
    6.1110   -0.6240    0.6760 N   0  0  0  0  0  0  0  0  0  0  0  0
    7.4380   -0.0850    0.7940 C   0  0  0  0  0  0  0  0  0  0  0  0
    8.0990   -0.7420    1.7250 C   0  0  0  0  0  0  0  0  0  0  0  0
    9.3810   -0.5140    2.1150 F   0  0  0  0  0  0  0  0  0  0  0  0
    7.2300   -1.7800    2.2960 C   0  0  0  0  0  0  0  0  0  0  0  0
    6.2110   -1.9980    1.1810 C   0  0  0  0  0  0  0  0  0  0  0  0
    3.8460    0.8430   -1.6520 N   0  0  0  0  0  0  0  0  0  0  0  0
   -0.9680    0.5030   -0.4450 N   0  0  0  0  0  0  0  0  0  0  0  0
   -0.5830   -0.8970   -0.5780 C   0  0  0  0  0  0  0  0  0  0  0  0
   -1.7340   -1.7840   -0.1430 C   0  0  0  0  0  0  0  0  0  0  0  0
   -3.0670   -1.1650   -0.4950 C   0  0  0  0  0  0  0  0  0  0  0  0
   -3.3190    0.1890    0.0570 C   0  0  1  0  0  0  0  0  0  0  0  0
   -4.2390    0.1620    1.2530 C   0  0  1  0  0  0  0  0  0  0  0  0
   -4.3890    1.4910    1.8750 N   0  0  0  0  0  0  0  0  0  0  0  0
   -5.3510    1.1070    2.9270 C   0  0  0  0  0  0  0  0  0  0  0  0
   -6.4040    0.3650    2.1170 C   0  0  2  0  0  0  0  0  0  0  0  0
   -7.4140    1.2820    1.8940 F   0  0  0  0  0  0  0  0  0  0  0  0
   -6.7830   -0.7510    2.7910 F   0  0  0  0  0  0  0  0  0  0  0  0
   -5.6950   -0.0030    0.8410 C   0  0  0  0  0  0  0  0  0  0  0  0
   -6.1860   -0.3320   -0.3180 C   0  0  0  0  0  0  0  0  0  0  0  0
   -7.6110   -0.4880   -0.6860 C   0  0  0  0  0  0  0  0  0  0  0  0
   -8.4900   -0.2770    0.3280 F   0  0  0  0  0  0  0  0  0  0  0  0
   -2.0640    0.9000    0.3910 C   0  0  0  0  0  0  0  0  0  0  0  0
  1  2  2  0
  2  3  1  0
  2 19  1  0
  3  4  1  0
  4  5  1  0
  5  6  1  0
  6  7  1  0
  6 18  2  0
  7  8  2  0
  8  9  1  0
  9 10  1  0
 10 11  2  3
 10 18  1  0
 11 12  1  0
 12 13  1  0
 12 17  1  0
 13 14  2  0
 14 15  1  0
 14 16  1  0
 16 17  1  0
 19 20  1  0
 19 34  1  0
 20 21  1  0
 21 22  1  0
 23 22  1  1
 23 24  1  0
 23 34  1  0
 24 25  1  6
 24 30  1  0
 25 26  1  0
 26 27  1  0
 27 28  1  6
 27 29  1  0
 27 30  1  0
 30 31  2  3
 31 32  1  0
 32 33  1  0
M  END
