
     RDKit          3D

 35 39  0  0  0  0  0  0  0  0999 V2000
    8.1000    1.6420   -2.4350 C   0  0  0  0  0  0  0  0  0  0  0  0
    7.6600    0.6040   -1.4280 C   0  0  0  0  0  0  0  0  0  0  0  0
    6.3430    0.4580   -1.1470 N   0  0  0  0  0  0  0  0  0  0  0  0
    6.0370   -0.5020   -0.2260 C   0  0  0  0  0  0  0  0  0  0  0  0
    4.6910   -0.7470    0.1500 N   0  0  0  0  0  0  0  0  0  0  0  0
    3.6490    0.0190   -0.4410 C   0  0  0  0  0  0  0  0  0  0  0  0
    3.7890    0.9940   -1.3560 N   0  0  0  0  0  0  0  0  0  0  0  0
    2.6230    1.5110   -1.7040 N   0  0  0  0  0  0  0  0  0  0  0  0
    1.7030    0.8510   -0.9920 C   0  0  0  0  0  0  0  0  0  0  0  0
    2.3030   -0.0960   -0.1840 C   0  0  0  0  0  0  0  0  0  0  0  0
    1.2890   -0.8150    0.5920 C   0  0  0  0  0  0  0  0  0  0  0  0
    0.0270   -0.2570    0.1860 N   0  0  0  0  0  0  0  0  0  0  0  0
   -1.2690   -0.6410    0.6290 C   0  0  0  0  0  0  0  0  0  0  0  0
   -1.3760   -1.5670    1.4710 O   0  0  0  0  0  0  0  0  0  0  0  0
   -2.4620   -0.0270    0.1670 N   0  0  0  0  0  0  0  0  0  0  0  0
   -3.7820   -0.4570    0.6530 C   0  0  2  0  0  0  0  0  0  0  0  0
   -4.5340   -0.9660   -0.5540 C   0  0  0  0  0  0  0  0  0  0  0  0
   -5.8570   -1.4260   -0.2210 N   0  0  2  0  0  0  0  0  0  0  0  0
   -5.8640   -2.8420    0.1210 C   0  0  0  0  0  0  0  0  0  0  0  0
   -6.6630   -1.3000   -1.4410 C   0  0  0  0  0  0  0  0  0  0  0  0
   -4.4650    0.7100    1.2420 C   0  0  0  0  0  0  0  0  0  0  0  0
   -5.1010    0.5460    2.4500 C   0  0  0  0  0  0  0  0  0  0  0  0
   -5.7340    1.6350    2.9910 C   0  0  0  0  0  0  0  0  0  0  0  0
   -5.7530    2.8590    2.3780 C   0  0  0  0  0  0  0  0  0  0  0  0
   -5.1150    3.0190    1.1700 C   0  0  0  0  0  0  0  0  0  0  0  0
   -4.4750    1.9210    0.6210 C   0  0  0  0  0  0  0  0  0  0  0  0
    0.2360    0.8080   -0.7880 C   0  0  2  0  0  0  0  0  0  0  0  0
   -0.4160    0.4720   -2.1110 C   0  0  0  0  0  0  0  0  0  0  0  0
   -0.2950    2.1270   -0.2700 C   0  0  0  0  0  0  0  0  0  0  0  0
    7.0500   -1.2410    0.3430 C   0  0  0  0  0  0  0  0  0  0  0  0
    7.0610   -2.5670    1.5650 S   0  0  0  0  0  0  0  0  0  0  0  0
    8.9190   -2.8190    1.5910 C   0  0  0  0  0  0  0  0  0  0  0  0
    9.2710   -1.8840    0.6890 C   0  0  0  0  0  0  0  0  0  0  0  0
    8.3860   -1.1070    0.0700 C   0  0  0  0  0  0  0  0  0  0  0  0
    8.6270   -0.1090   -0.8780 N   0  0  0  0  0  0  0  0  0  0  0  0
  1  2  1  0
  2  3  2  0
  2 35  1  0
  3  4  1  0
  4  5  1  0
  4 30  2  0
  5  6  1  0
  6  7  2  0
  6 10  1  0
  7  8  1  0
  8  9  1  0
  9 10  2  0
  9 27  1  0
 10 11  1  0
 11 12  1  0
 12 13  1  0
 12 27  1  0
 13 14  2  0
 13 15  1  0
 15 16  1  0
 16 17  1  6
 16 21  1  0
 17 18  1  0
 18 19  1  6
 18 20  1  0
 21 22  2  0
 21 26  1  0
 22 23  1  0
 23 24  2  0
 24 25  1  0
 25 26  2  0
 27 28  1  6
 27 29  1  0
 30 31  1  0
 30 34  1  0
 31 32  1  0
 32 33  2  0
 33 34  1  0
 34 35  2  0
M  CHG  1  18   1
M  END
