
     RDKit          3D

 35 37  0  0  0  0  0  0  0  0999 V2000
   -8.3220   -0.6850   -1.6360 C   0  0  0  0  0  0  0  0  0  0  0  0
   -6.8520   -1.1050   -1.4740 C   0  0  0  0  0  0  0  0  0  0  0  0
   -6.2830   -0.4900   -0.2590 C   0  0  0  0  0  0  0  0  0  0  0  0
   -4.8940   -0.7400    0.1040 C   0  0  0  0  0  0  0  0  0  0  0  0
   -3.7440   -0.4070   -0.7020 C   0  0  2  0  0  0  0  0  0  0  0  0
   -2.5250   -0.8410    0.0110 N   0  0  0  0  0  0  0  0  0  0  0  0
   -2.2990   -0.2440    1.2670 C   0  0  0  0  0  0  0  0  0  0  0  0
   -2.1260   -1.2670    2.3900 C   0  0  1  0  0  0  0  0  0  0  0  0
   -3.2110   -2.0860    2.5600 O   0  0  0  0  0  0  0  0  0  0  0  0
   -0.8670   -2.0570    2.2600 C   0  0  2  0  0  0  0  0  0  0  0  0
   -0.7860   -2.9820    3.4550 C   0  0  0  0  0  0  0  0  0  0  0  0
    0.3050   -1.2650    2.0830 N   0  0  0  0  0  0  0  0  0  0  0  0
    1.1740   -1.3570    0.9480 C   0  0  0  0  0  0  0  0  0  0  0  0
    0.8730   -2.1780    0.0810 O   0  0  0  0  0  0  0  0  0  0  0  0
    2.3210   -0.5550    0.8120 N   0  0  0  0  0  0  0  0  0  0  0  0
    3.2450   -0.5630   -0.2600 C   0  0  0  0  0  0  0  0  0  0  0  0
    3.1550   -1.3840   -1.3500 C   0  0  0  0  0  0  0  0  0  0  0  0
    4.0800   -1.3770   -2.3980 C   0  0  0  0  0  0  0  0  0  0  0  0
    5.1370   -0.5050   -2.3410 C   0  0  0  0  0  0  0  0  0  0  0  0
    6.0520   -0.4950   -3.3710 O   0  0  0  0  0  0  0  0  0  0  0  0
    5.8770   -1.3790   -4.4560 C   0  0  0  0  0  0  0  0  0  0  0  0
    5.2680    0.3450   -1.2540 C   0  0  0  0  0  0  0  0  0  0  0  0
    4.3470    0.3230   -0.2330 C   0  0  0  0  0  0  0  0  0  0  0  0
    4.4180    1.1940    0.9520 C   0  0  0  0  0  0  0  0  0  0  0  0
    5.5700    2.1120    0.9660 C   0  0  0  0  0  0  0  0  0  0  0  0
    5.7480    2.9950    2.0460 C   0  0  0  0  0  0  0  0  0  0  0  0
    6.8030    3.8700    2.1080 C   0  0  0  0  0  0  0  0  0  0  0  0
    6.9450    4.7310    3.1960 O   0  0  0  0  0  0  0  0  0  0  0  0
    7.7060    3.8600    1.0620 C   0  0  0  0  0  0  0  0  0  0  0  0
    7.5320    2.9940    0.0020 C   0  0  0  0  0  0  0  0  0  0  0  0
    6.4640    2.1010   -0.0730 C   0  0  0  0  0  0  0  0  0  0  0  0
    6.3200    1.2430   -1.1540 O   0  0  0  0  0  0  0  0  0  0  0  0
   -3.5430    0.8920   -1.3370 C   0  0  1  0  0  0  0  0  0  0  0  0
   -4.5760    1.3000   -2.3560 C   0  0  0  0  0  0  0  0  0  0  0  0
   -3.3290    2.0810   -0.4420 C   0  0  0  0  0  0  0  0  0  0  0  0
  1  2  1  0
  2  3  1  0
  3  4  1  0
  5  4  1  1
  5  6  1  0
  5 33  1  0
  6  7  1  0
  7  8  1  0
  8  9  1  6
  8 10  1  0
 10 11  1  1
 10 12  1  0
 12 13  1  0
 13 14  2  0
 13 15  1  0
 15 16  1  0
 16 17  2  0
 16 23  1  0
 17 18  1  0
 18 19  2  0
 19 20  1  0
 19 22  1  0
 20 21  1  0
 22 23  2  0
 22 32  1  0
 23 24  1  0
 24 25  1  0
 25 26  2  0
 25 31  1  0
 26 27  1  0
 27 28  1  0
 27 29  2  0
 29 30  1  0
 30 31  2  0
 31 32  1  0
 33 34  1  1
 33 35  1  0
M  CHG  1   6   1
M  END
