
     RDKit          3D

 35 37  0  0  0  0  0  0  0  0999 V2000
   -4.3700   -2.3360   -1.1290 C   0  0  0  0  0  0  0  0  0  0  0  0
   -4.2580   -0.8730   -1.3230 C   0  0  1  0  0  0  0  0  0  0  0  0
   -4.2160   -0.1540    0.0240 C   0  0  2  0  0  0  0  0  0  0  0  0
   -5.0960   -0.6910    0.9930 N   0  0  0  0  0  0  0  0  0  0  0  0
   -6.4740   -0.4000    0.9280 C   0  0  0  0  0  0  0  0  0  0  0  0
   -7.1120   -0.7020    2.2960 C   0  0  0  0  0  0  0  0  0  0  0  0
   -8.4780   -0.4280    2.2650 O   0  0  0  0  0  0  0  0  0  0  0  0
   -4.1100    1.3240   -0.0860 C   0  0  1  0  0  0  0  0  0  0  0  0
   -5.2350    2.0240   -0.7860 C   0  0  0  0  0  0  0  0  0  0  0  0
   -3.8220    1.9460    1.2480 C   0  0  0  0  0  0  0  0  0  0  0  0
   -4.7540    1.7470    2.2240 O   0  0  0  0  0  0  0  0  0  0  0  0
   -2.8410    1.6130   -0.9260 C   0  0  0  0  0  0  0  0  0  0  0  0
   -3.0460    0.9650   -2.2780 C   0  0  0  0  0  0  0  0  0  0  0  0
   -3.2380   -0.4450   -2.1720 N   0  0  0  0  0  0  0  0  0  0  0  0
   -2.1780   -1.2570   -2.5710 C   0  0  0  0  0  0  0  0  0  0  0  0
   -0.8940   -1.0400   -1.8750 C   0  0  0  0  0  0  0  0  0  0  0  0
    0.1310   -0.2770   -2.3770 C   0  0  0  0  0  0  0  0  0  0  0  0
    1.3230   -0.0800   -1.7110 C   0  0  0  0  0  0  0  0  0  0  0  0
    1.5490   -0.6520   -0.4830 C   0  0  0  0  0  0  0  0  0  0  0  0
    2.7140   -0.5120    0.2500 O   0  0  0  0  0  0  0  0  0  0  0  0
    3.8310    0.1850   -0.1820 C   0  0  0  0  0  0  0  0  0  0  0  0
    4.5170   -0.4460   -1.3690 C   0  0  0  0  0  0  0  0  0  0  0  0
    5.7160    0.3450   -1.8450 C   0  0  0  0  0  0  0  0  0  0  0  0
    6.6750    0.3850   -0.7100 N   0  0  0  0  0  0  0  0  0  0  0  0
    7.8950    1.0520   -0.8320 C   0  0  0  0  0  0  0  0  0  0  0  0
    8.0750    1.6060   -2.0130 O   0  0  0  0  0  0  0  0  0  0  0  0
    8.9480    1.2180    0.1080 C   0  0  0  0  0  0  0  0  0  0  0  0
    9.2470    0.9040    1.3060 C   0  0  0  0  0  0  0  0  0  0  0  0
    8.5710    0.1660    2.3270 C   0  0  0  0  0  0  0  0  0  0  0  0
    9.0750   -0.0740    3.6180 C   0  0  0  0  0  0  0  0  0  0  0  0
    8.1390   -0.8060    4.2820 C   0  0  0  0  0  0  0  0  0  0  0  0
    7.0940   -1.0040    3.4140 C   0  0  0  0  0  0  0  0  0  0  0  0
    7.4090   -0.4130    2.2950 O   0  0  0  0  0  0  0  0  0  0  0  0
    0.5100   -1.4320    0.0420 C   0  0  0  0  0  0  0  0  0  0  0  0
   -0.6570   -1.6070   -0.6420 C   0  0  0  0  0  0  0  0  0  0  0  0
  2  1  1  1
  2  3  1  0
  2 14  1  0
  3  4  1  6
  3  8  1  0
  4  5  1  0
  5  6  1  0
  6  7  1  0
  8  9  1  6
  8 10  1  0
  8 12  1  0
 10 11  1  0
 12 13  1  0
 13 14  1  0
 14 15  1  0
 15 16  1  0
 16 17  2  0
 16 35  1  0
 17 18  1  0
 18 19  2  0
 19 20  1  0
 19 34  1  0
 20 21  1  0
 21 22  1  0
 22 23  1  0
 23 24  1  0
 24 25  1  0
 25 26  2  0
 25 27  1  0
 27 28  2  3
 28 29  1  0
 29 30  2  0
 29 33  1  0
 30 31  1  0
 31 32  2  0
 32 33  1  0
 34 35  2  0
M  CHG  1   4   1
M  END
