
     RDKit          3D

 28 30  0  0  0  0  0  0  0  0999 V2000
   -9.3220   -0.8740   -0.2670 C   0  0  0  0  0  0  0  0  0  0  0  0
   -8.7690    0.4810   -0.4600 C   0  0  0  0  0  0  0  0  0  0  0  0
   -9.6380    1.6110   -0.6800 C   0  0  0  0  0  0  0  0  0  0  0  0
  -10.8680    1.4620   -0.7110 O   0  0  0  0  0  0  0  0  0  0  0  0
   -7.4610    0.6640   -0.4310 C   0  0  0  0  0  0  0  0  0  0  0  0
   -6.5550   -0.4060   -0.2190 N   0  0  0  0  0  0  0  0  0  0  0  0
   -5.1400   -0.1540   -0.1960 C   0  0  0  0  0  0  0  0  0  0  0  0
   -4.7590    1.0100   -0.3660 O   0  0  0  0  0  0  0  0  0  0  0  0
   -4.2060   -1.1820    0.0100 N   0  0  0  0  0  0  0  0  0  0  0  0
   -2.7970   -1.0670    0.0550 C   0  0  0  0  0  0  0  0  0  0  0  0
   -2.0900   -2.2600    0.2770 C   0  0  0  0  0  0  0  0  0  0  0  0
   -0.7340   -2.2460    0.3350 C   0  0  0  0  0  0  0  0  0  0  0  0
   -0.0080   -1.0970    0.1840 C   0  0  0  0  0  0  0  0  0  0  0  0
   -0.7090    0.0670   -0.0340 C   0  0  0  0  0  0  0  0  0  0  0  0
   -2.1010    0.0910   -0.0990 C   0  0  0  0  0  0  0  0  0  0  0  0
    0.3160    1.1080   -0.1540 C   0  0  0  0  0  0  0  0  0  0  0  0
    0.1220    2.3330   -0.3580 O   0  0  0  0  0  0  0  0  0  0  0  0
    1.6470    0.5360   -0.0030 C   0  0  0  0  0  0  0  0  0  0  0  0
    2.9360    1.0260   -0.0240 C   0  0  0  0  0  0  0  0  0  0  0  0
    4.0480    0.2420    0.1510 C   0  0  0  0  0  0  0  0  0  0  0  0
    5.3690    0.7610    0.1270 N   0  0  0  0  0  0  0  0  0  0  0  0
    6.5120   -0.1010    0.3150 C   0  0  0  0  0  0  0  0  0  0  0  0
    7.7970    0.6750    0.2480 C   0  0  1  0  0  0  0  0  0  0  0  0
    7.8880    1.3330   -1.1220 C   0  0  0  0  0  0  0  0  0  0  0  0
    7.7640    1.7450    1.3120 C   0  0  0  0  0  0  0  0  0  0  0  0
    3.8380   -1.1080    0.3570 C   0  0  0  0  0  0  0  0  0  0  0  0
    2.5480   -1.6200    0.3810 C   0  0  0  0  0  0  0  0  0  0  0  0
    1.4390   -0.8190    0.2040 C   0  0  0  0  0  0  0  0  0  0  0  0
  1  2  1  0
  2  3  1  0
  2  5  2  3
  3  4  2  0
  5  6  1  0
  6  7  1  0
  7  8  2  0
  7  9  1  0
  9 10  1  0
 10 11  2  0
 10 15  1  0
 11 12  1  0
 12 13  2  0
 13 14  1  0
 13 28  1  0
 14 15  2  0
 14 16  1  0
 16 17  2  0
 16 18  1  0
 18 19  2  0
 18 28  1  0
 19 20  1  0
 20 21  1  0
 20 26  2  0
 21 22  1  0
 22 23  1  0
 23 24  1  6
 23 25  1  0
 26 27  1  0
 27 28  2  0
M  END
