
     RDKit          3D

 28 31  0  0  0  0  0  0  0  0999 V2000
   -2.6230   -3.8240    1.2990 C   0  0  0  0  0  0  0  0  0  0  0  0
   -3.0040   -2.4010    0.9890 C   0  0  0  0  0  0  0  0  0  0  0  0
   -2.1070   -1.5270    0.5810 C   0  0  0  0  0  0  0  0  0  0  0  0
   -0.7370   -2.0740    0.4750 C   0  0  0  0  0  0  0  0  0  0  0  0
    0.3210   -1.0450    0.4040 C   0  0  0  0  0  0  0  0  0  0  0  0
    1.5540   -1.3330   -0.0840 N   0  0  0  0  0  0  0  0  0  0  0  0
    2.3480   -0.2670   -0.0520 C   0  0  0  0  0  0  0  0  0  0  0  0
    3.7580   -0.1930   -0.5010 C   0  0  0  0  0  0  0  0  0  0  0  0
    4.3660    0.8910   -0.4060 O   0  0  0  0  0  0  0  0  0  0  0  0
    4.4050   -1.2990   -1.0180 O   0  0  0  0  0  0  0  0  0  0  0  0
    5.7650   -1.2260   -1.4500 C   0  0  0  0  0  0  0  0  0  0  0  0
    6.6720   -0.8250   -0.3120 C   0  0  0  0  0  0  0  0  0  0  0  0
    1.6260    0.7710    0.4740 C   0  0  0  0  0  0  0  0  0  0  0  0
    2.1230    2.1510    0.6970 C   0  0  0  0  0  0  0  0  0  0  0  0
    2.1950    2.9020   -0.5690 C   0  0  0  0  0  0  0  0  0  0  0  0
    2.6450    4.2410   -0.5680 N   0  0  0  0  0  0  0  0  0  0  0  0
    1.8690    2.4000   -1.6800 O   0  0  0  0  0  0  0  0  0  0  0  0
    0.3460    0.2780    0.7610 C   0  0  0  0  0  0  0  0  0  0  0  0
   -0.6890    1.1730    1.3450 C   0  0  0  0  0  0  0  0  0  0  0  0
   -1.9830    0.9680    0.6300 C   0  0  0  0  0  0  0  0  0  0  0  0
   -2.7750    1.9970    0.1920 C   0  0  0  0  0  0  0  0  0  0  0  0
   -3.8760    1.4190   -0.4430 C   0  0  0  0  0  0  0  0  0  0  0  0
   -4.9780    1.9560   -1.0680 C   0  0  0  0  0  0  0  0  0  0  0  0
   -5.9040    1.0970   -1.6150 C   0  0  0  0  0  0  0  0  0  0  0  0
   -5.7160   -0.2550   -1.5300 C   0  0  0  0  0  0  0  0  0  0  0  0
   -4.6150   -0.8360   -0.9060 C   0  0  0  0  0  0  0  0  0  0  0  0
   -3.6970    0.0280   -0.3600 C   0  0  0  0  0  0  0  0  0  0  0  0
   -2.5490   -0.2130    0.2950 N   0  0  0  0  0  0  0  0  0  0  0  0
  1  2  1  0
  2  3  2  3
  3  4  1  0
  3 28  1  0
  4  5  1  0
  5  6  1  0
  5 18  2  0
  6  7  1  0
  7  8  1  0
  7 13  2  0
  8  9  2  0
  8 10  1  0
 10 11  1  0
 11 12  1  0
 13 14  1  0
 13 18  1  0
 14 15  1  0
 15 16  1  0
 15 17  2  0
 18 19  1  0
 19 20  1  0
 20 21  2  0
 20 28  1  0
 21 22  1  0
 22 23  2  0
 22 27  1  0
 23 24  1  0
 24 25  2  0
 25 26  1  0
 26 27  2  0
 27 28  1  0
M  END
