
     RDKit          3D

 28 31  0  0  0  0  0  0  0  0999 V2000
   -3.9010    4.4280   -0.3740 C   0  0  0  0  0  0  0  0  0  0  0  0
   -3.9530    3.2900   -1.2500 N   0  0  0  0  0  0  0  0  0  0  0  0
   -4.8540    2.2400   -0.9950 C   0  0  0  0  0  0  0  0  0  0  0  0
   -4.4050    1.0870   -0.5460 C   0  0  0  0  0  0  0  0  0  0  0  0
   -2.9840    0.9000   -0.3150 C   0  0  0  0  0  0  0  0  0  0  0  0
   -2.4850   -0.2410    0.1360 C   0  0  0  0  0  0  0  0  0  0  0  0
   -1.1290   -0.4110    0.3540 O   0  0  0  0  0  0  0  0  0  0  0  0
   -0.3680   -1.0140   -0.6650 C   0  0  0  0  0  0  0  0  0  0  0  0
    1.0400   -1.0830   -0.1960 C   0  0  0  0  0  0  0  0  0  0  0  0
    1.5320   -2.1640    0.5020 C   0  0  0  0  0  0  0  0  0  0  0  0
    2.8410   -2.1770    0.9130 C   0  0  0  0  0  0  0  0  0  0  0  0
    3.7370   -1.1230    0.6580 C   0  0  0  0  0  0  0  0  0  0  0  0
    3.2430   -0.0610   -0.0320 C   0  0  0  0  0  0  0  0  0  0  0  0
    1.9130   -0.0500   -0.4480 C   0  0  0  0  0  0  0  0  0  0  0  0
    4.1120    1.0310   -0.3370 N   0  0  0  0  0  0  0  0  0  0  0  0
    5.3370    1.0510    0.0100 C   0  0  0  0  0  0  0  0  0  0  0  0
    6.1900    2.1710   -0.3110 N   0  0  0  0  0  0  0  0  0  0  0  0
    5.5770    3.4150   -0.6970 C   0  0  0  0  0  0  0  0  0  0  0  0
    5.9690   -0.0440    0.7310 C   0  0  0  0  0  0  0  0  0  0  0  0
    5.1160   -1.1770    1.1310 C   0  0  0  0  0  0  0  0  0  0  0  0
   -3.3960   -1.3330    0.4040 C   0  0  0  0  0  0  0  0  0  0  0  0
   -2.9180   -2.5290    0.8720 C   0  0  0  0  0  0  0  0  0  0  0  0
   -3.7590   -3.6110    1.1450 C   0  0  0  0  0  0  0  0  0  0  0  0
   -3.2130   -4.7880    1.6140 O   0  0  0  0  0  0  0  0  0  0  0  0
   -5.1220   -3.4720    0.9380 C   0  0  0  0  0  0  0  0  0  0  0  0
   -5.5910   -2.2690    0.4690 C   0  0  0  0  0  0  0  0  0  0  0  0
   -4.7690   -1.1980    0.1970 C   0  0  0  0  0  0  0  0  0  0  0  0
   -5.2380    0.0100   -0.2730 O   0  0  0  0  0  0  0  0  0  0  0  0
  1  2  1  0
  2  3  1  0
  3  4  2  3
  4  5  1  0
  4 28  1  0
  5  6  2  0
  6  7  1  0
  6 21  1  0
  7  8  1  0
  8  9  1  0
  9 10  2  0
  9 14  1  0
 10 11  1  0
 11 12  2  0
 12 13  1  0
 12 20  1  0
 13 14  2  0
 13 15  1  0
 15 16  2  0
 16 17  1  0
 16 19  1  0
 17 18  1  0
 19 20  1  0
 21 22  2  0
 21 27  1  0
 22 23  1  0
 23 24  1  0
 23 25  2  0
 25 26  1  0
 26 27  2  0
 27 28  1  0
M  END
