
     RDKit          3D

 28 30  0  0  0  0  0  0  0  0999 V2000
   -6.5210    0.9930    0.9150 C   0  0  0  0  0  0  0  0  0  0  0  0
   -6.1820   -0.2190    0.6830 C   0  0  0  0  0  0  0  0  0  0  0  0
   -5.0670   -0.8010    0.0070 C   0  0  0  0  0  0  0  0  0  0  0  0
   -5.0630   -2.1680   -0.0830 C   0  0  0  0  0  0  0  0  0  0  0  0
   -3.9890   -2.9310   -0.7460 C   0  0  0  0  0  0  0  0  0  0  0  0
   -3.9360   -0.1710   -0.6820 C   0  0  0  0  0  0  0  0  0  0  0  0
   -2.9700    0.3870    0.1340 N   0  0  0  0  0  0  0  0  0  0  0  0
   -3.2620    1.5280    0.8960 C   0  0  0  0  0  0  0  0  0  0  0  0
   -1.9490    2.1760    1.4410 C   0  0  0  0  0  0  0  0  0  0  0  0
   -1.3080    2.7520    0.3720 O   0  0  0  0  0  0  0  0  0  0  0  0
   -1.5570    2.0740   -0.8020 C   0  0  0  0  0  0  0  0  0  0  0  0
   -1.6650    0.5900   -0.4700 C   0  0  2  0  0  0  0  0  0  0  0  0
   -1.3590   -0.2630   -1.6420 C   0  0  0  0  0  0  0  0  0  0  0  0
   -0.0240    0.0500   -2.1430 N   0  0  0  0  0  0  0  0  0  0  0  0
    1.1610   -0.1380   -1.3310 C   0  0  0  0  0  0  0  0  0  0  0  0
    1.0360   -0.5820   -0.1860 O   0  0  0  0  0  0  0  0  0  0  0  0
    2.4180    0.1840   -1.8550 N   0  0  0  0  0  0  0  0  0  0  0  0
    3.6610    0.0530   -1.1900 C   0  0  0  0  0  0  0  0  0  0  0  0
    3.7690   -0.4460    0.0860 C   0  0  0  0  0  0  0  0  0  0  0  0
    5.0170   -0.5700    0.7170 C   0  0  0  0  0  0  0  0  0  0  0  0
    5.1120   -1.0740    2.0020 C   0  0  0  0  0  0  0  0  0  0  0  0
    6.3240   -1.2040    2.6380 C   0  0  0  0  0  0  0  0  0  0  0  0
    7.4660   -0.8140    1.9600 C   0  0  0  0  0  0  0  0  0  0  0  0
    7.3860   -0.3120    0.6840 C   0  0  0  0  0  0  0  0  0  0  0  0
    6.1440   -0.1910    0.0620 C   0  0  0  0  0  0  0  0  0  0  0  0
    6.0730    0.3100   -1.2070 C   0  0  0  0  0  0  0  0  0  0  0  0
    4.8260    0.4380   -1.8520 C   0  0  0  0  0  0  0  0  0  0  0  0
    4.8100    0.9460   -3.1250 O   0  0  0  0  0  0  0  0  0  0  0  0
  1  2  2  0
  2  3  1  0
  3  4  2  3
  3  6  1  0
  4  5  1  0
  6  7  1  0
  7  8  1  0
  7 12  1  0
  8  9  1  0
  9 10  1  0
 10 11  1  0
 11 12  1  0
 12 13  1  6
 13 14  1  0
 14 15  1  0
 15 16  2  0
 15 17  1  0
 17 18  1  0
 18 19  2  0
 18 27  1  0
 19 20  1  0
 20 21  2  0
 20 25  1  0
 21 22  1  0
 22 23  2  0
 23 24  1  0
 24 25  2  0
 25 26  1  0
 26 27  2  0
 27 28  1  0
M  END
