
     RDKit          3D

 28 30  0  0  0  0  0  0  0  0999 V2000
    0.5110    3.2590    2.8400 C   0  0  0  0  0  0  0  0  0  0  0  0
    0.1250    2.0420    2.0600 C   0  0  0  0  0  0  0  0  0  0  0  0
   -1.1490    1.5270    2.1190 C   0  0  0  0  0  0  0  0  0  0  0  0
   -1.4700    0.3930    1.3790 C   0  0  0  0  0  0  0  0  0  0  0  0
   -2.7960   -0.0980    1.4740 N   0  0  0  0  0  0  0  0  0  0  0  0
   -3.1470   -1.2600    0.7450 C   0  0  0  0  0  0  0  0  0  0  0  0
   -4.3480   -1.3840    0.1530 C   0  0  0  0  0  0  0  0  0  0  0  0
   -4.6720   -2.5850   -0.5820 C   0  0  0  0  0  0  0  0  0  0  0  0
   -5.8390   -2.7270   -1.1690 C   0  0  0  0  0  0  0  0  0  0  0  0
   -6.8020   -1.6500   -1.0640 C   0  0  0  0  0  0  0  0  0  0  0  0
   -6.5520   -0.5460   -0.4090 C   0  0  0  0  0  0  0  0  0  0  0  0
   -5.3030   -0.2710    0.2790 C   0  0  2  0  0  0  0  0  0  0  0  0
   -4.6630    1.0190   -0.2480 C   0  0  0  0  0  0  0  0  0  0  0  0
   -0.5250   -0.2080    0.5960 C   0  0  0  0  0  0  0  0  0  0  0  0
    0.7780    0.2720    0.5000 C   0  0  0  0  0  0  0  0  0  0  0  0
    1.7140   -0.3860   -0.3370 N   0  0  0  0  0  0  0  0  0  0  0  0
    3.1010   -0.1560   -0.4210 C   0  0  0  0  0  0  0  0  0  0  0  0
    3.6280    0.7020    0.2960 O   0  0  0  0  0  0  0  0  0  0  0  0
    3.9400   -0.8910   -1.3220 N   0  0  0  0  0  0  0  0  0  0  0  0
    5.3350   -0.6510   -1.3960 C   0  0  0  0  0  0  0  0  0  0  0  0
    6.2270   -1.5740   -1.1480 C   0  0  0  0  0  0  0  0  0  0  0  0
    7.6750   -1.3350   -1.2230 C   0  0  0  0  0  0  0  0  0  0  0  0
    8.5340   -2.2000   -0.9900 O   0  0  0  0  0  0  0  0  0  0  0  0
    8.1210    0.0070   -1.5950 C   0  0  0  0  0  0  0  0  0  0  0  0
    9.3250    0.3430   -1.6960 O   0  0  0  0  0  0  0  0  0  0  0  0
    7.0810    0.9910   -1.8600 C   0  0  0  0  0  0  0  0  0  0  0  0
    5.8070    0.6940   -1.7700 C   0  0  0  0  0  0  0  0  0  0  0  0
    1.0540    1.3900    1.2430 C   0  0  0  0  0  0  0  0  0  0  0  0
  1  2  1  0
  2  3  2  0
  2 28  1  0
  3  4  1  0
  4  5  1  0
  4 14  2  0
  5  6  1  0
  6  7  2  3
  7  8  1  0
  7 12  1  0
  8  9  2  0
  9 10  1  0
 10 11  2  0
 11 12  1  0
 12 13  1  6
 14 15  1  0
 15 16  1  0
 15 28  2  0
 16 17  1  0
 17 18  2  0
 17 19  1  0
 19 20  1  0
 20 21  2  0
 20 27  1  0
 21 22  1  0
 22 23  2  0
 22 24  1  0
 24 25  2  0
 24 26  1  0
 26 27  2  0
M  END
