
     RDKit          3D

 28 31  0  0  0  0  0  0  0  0999 V2000
   -7.2310    0.8870   -0.3950 C   0  0  0  0  0  0  0  0  0  0  0  0
   -6.2520    0.1030    0.4380 C   0  0  2  0  0  0  0  0  0  0  0  0
   -5.6170    1.0750    1.4210 C   0  0  0  0  0  0  0  0  0  0  0  0
   -5.1620   -0.3950   -0.5360 C   0  0  0  0  0  0  0  0  0  0  0  0
   -4.1330   -1.1930    0.2120 C   0  0  0  0  0  0  0  0  0  0  0  0
   -3.0300   -1.7710   -0.5830 C   0  0  0  0  0  0  0  0  0  0  0  0
   -2.1340   -0.9350   -1.3820 C   0  0  1  0  0  0  0  0  0  0  0  0
   -2.8760   -0.1510   -2.4840 C   0  0  0  0  0  0  0  0  0  0  0  0
   -1.1860   -0.0110   -0.7790 C   0  0  1  0  0  0  0  0  0  0  0  0
   -1.6280    1.1120    0.0700 C   0  0  0  0  0  0  0  0  0  0  0  0
   -0.4410    1.4450    1.0020 C   0  0  0  0  0  0  0  0  0  0  0  0
    0.6510    0.6950    0.3410 C   0  0  1  0  0  0  0  0  0  0  0  0
    1.9400    0.5270    1.0050 C   0  0  2  0  0  0  0  0  0  0  0  0
    2.5920    1.8680    1.2740 C   0  0  0  0  0  0  0  0  0  0  0  0
    3.5750    2.2500    0.2080 C   0  0  0  0  0  0  0  0  0  0  0  0
    4.6920    1.2590    0.1570 C   0  0  0  0  0  0  0  0  0  0  0  0
    5.9320    1.5980   -0.0450 C   0  0  0  0  0  0  0  0  0  0  0  0
    6.9370    0.5380   -0.0740 C   0  0  0  0  0  0  0  0  0  0  0  0
    8.1330    0.7850    0.1760 O   0  0  0  0  0  0  0  0  0  0  0  0
    6.5470   -0.8440   -0.3990 C   0  0  0  0  0  0  0  0  0  0  0  0
    5.0560   -0.9850   -0.6210 C   0  0  0  0  0  0  0  0  0  0  0  0
    4.2590   -0.1720    0.3610 C   0  0  1  0  0  0  0  0  0  0  0  0
    4.5740   -0.5370    1.7740 C   0  0  0  0  0  0  0  0  0  0  0  0
    2.8250   -0.2180   -0.0100 C   0  0  1  0  0  0  0  0  0  0  0  0
    2.2470   -1.5880   -0.1960 C   0  0  0  0  0  0  0  0  0  0  0  0
    0.8550   -1.4890   -0.7380 C   0  0  0  0  0  0  0  0  0  0  0  0
   -0.0610   -0.6260    0.0480 C   0  0  2  0  0  0  0  0  0  0  0  0
   -0.5170   -1.3170    1.2770 C   0  0  0  0  0  0  0  0  0  0  0  0
  2  1  1  6
  2  3  1  0
  2  4  1  0
  4  5  1  0
  5  6  1  0
  6  7  1  0
  7  8  1  6
  7  9  1  0
  9 10  1  1
  9 27  1  0
 10 11  1  0
 12 11  1  1
 12 13  1  0
 12 27  1  0
 13 14  1  6
 13 24  1  0
 14 15  1  0
 15 16  1  0
 16 17  2  0
 16 22  1  0
 17 18  1  0
 18 19  2  0
 18 20  1  0
 20 21  1  0
 21 22  1  0
 22 23  1  1
 22 24  1  0
 24 25  1  1
 25 26  1  0
 26 27  1  0
 27 28  1  1
M  END
