
     RDKit          3D

 28 31  0  0  0  0  0  0  0  0999 V2000
   -4.8870    0.6890    2.8390 C   0  0  0  0  0  0  0  0  0  0  0  0
   -5.0700    1.2500    1.4500 C   0  0  0  0  0  0  0  0  0  0  0  0
   -3.9840    0.7070    0.6010 C   0  0  0  0  0  0  0  0  0  0  0  0
   -2.7080    1.1510    0.6580 C   0  0  0  0  0  0  0  0  0  0  0  0
   -2.3470    2.2430    1.6010 C   0  0  0  0  0  0  0  0  0  0  0  0
   -1.6610    0.6450   -0.1430 C   0  0  0  0  0  0  0  0  0  0  0  0
   -0.3740    1.1740    0.0210 N   0  0  0  0  0  0  0  0  0  0  0  0
    0.7950    0.8330   -0.7350 C   0  0  0  0  0  0  0  0  0  0  0  0
    0.6790   -0.0020   -1.6270 O   0  0  0  0  0  0  0  0  0  0  0  0
    2.0630    1.4820   -0.4210 C   0  0  0  0  0  0  0  0  0  0  0  0
    3.2940    1.0970   -1.0980 C   0  0  0  0  0  0  0  0  0  0  0  0
    3.8000   -0.2220   -1.0000 N   0  0  0  0  0  0  0  0  0  0  0  0
    3.2490   -1.3490   -1.6890 C   0  0  0  0  0  0  0  0  0  0  0  0
    4.3340   -2.3170   -2.1000 C   0  0  0  0  0  0  0  0  0  0  0  0
    4.2820   -2.9210   -3.2270 O   0  0  0  0  0  0  0  0  0  0  0  0
    5.3790   -2.5400   -1.2500 O   0  0  0  0  0  0  0  0  0  0  0  0
    5.6710   -1.6250   -0.2580 C   0  0  0  0  0  0  0  0  0  0  0  0
    6.7390   -1.8850    0.5860 C   0  0  0  0  0  0  0  0  0  0  0  0
    7.0320   -0.9740    1.5790 C   0  0  0  0  0  0  0  0  0  0  0  0
    6.2730    0.1720    1.7230 C   0  0  0  0  0  0  0  0  0  0  0  0
    5.2000    0.4360    0.8770 C   0  0  0  0  0  0  0  0  0  0  0  0
    4.9180   -0.4810   -0.1100 C   0  0  0  0  0  0  0  0  0  0  0  0
   -2.0380   -0.3510   -1.0030 C   0  0  0  0  0  0  0  0  0  0  0  0
   -3.3450   -0.8360   -1.0910 C   0  0  0  0  0  0  0  0  0  0  0  0
   -4.3150   -0.2990   -0.2820 C   0  0  0  0  0  0  0  0  0  0  0  0
   -5.6070   -0.9950   -0.5690 C   0  0  0  0  0  0  0  0  0  0  0  0
   -5.3550   -1.5600   -1.9380 C   0  0  0  0  0  0  0  0  0  0  0  0
   -3.9350   -1.8520   -1.9110 N   0  0  0  0  0  0  0  0  0  0  0  0
  1  2  1  0
  2  3  1  0
  3  4  2  0
  3 25  1  0
  4  5  1  0
  4  6  1  0
  6  7  1  0
  6 23  2  0
  7  8  1  0
  8  9  2  0
  8 10  1  0
 10 11  1  0
 11 12  1  0
 12 13  1  0
 12 22  1  0
 13 14  1  0
 14 15  2  0
 14 16  1  0
 16 17  1  0
 17 18  2  0
 17 22  1  0
 18 19  1  0
 19 20  2  0
 20 21  1  0
 21 22  2  0
 23 24  1  0
 24 25  2  0
 24 28  1  0
 25 26  1  0
 26 27  1  0
 27 28  1  0
M  END
