
     RDKit          3D

 28 31  0  0  0  0  0  0  0  0999 V2000
   -3.7940    5.7740    0.2460 O   0  0  0  0  0  0  0  0  0  0  0  0
   -4.6160    4.8610   -0.0620 C   0  0  0  0  0  0  0  0  0  0  0  0
   -4.2450    3.5060    0.1090 N   0  0  0  0  0  0  0  0  0  0  0  0
   -2.9910    3.1690    0.6090 N   0  0  0  0  0  0  0  0  0  0  0  0
   -2.1620    2.2470   -0.0960 C   0  0  0  0  0  0  0  0  0  0  0  0
   -2.6310    1.7730   -1.1580 O   0  0  0  0  0  0  0  0  0  0  0  0
   -0.8360    1.9310    0.4790 C   0  0  0  0  0  0  0  0  0  0  0  0
   -0.1390    0.9250   -0.3390 C   0  0  1  0  0  0  0  0  0  0  0  0
    1.2110    0.5540    0.1480 C   0  0  0  0  0  0  0  0  0  0  0  0
    1.6900    1.0150    1.3480 C   0  0  0  0  0  0  0  0  0  0  0  0
    2.9580    0.6430    1.7650 C   0  0  0  0  0  0  0  0  0  0  0  0
    3.7310   -0.1880    0.9710 C   0  0  0  0  0  0  0  0  0  0  0  0
    3.2520   -0.6510   -0.2300 C   0  0  0  0  0  0  0  0  0  0  0  0
    1.9620   -0.2630   -0.6390 C   0  0  0  0  0  0  0  0  0  0  0  0
    4.0670   -1.5380   -1.0650 C   0  0  0  0  0  0  0  0  0  0  0  0
    5.4030   -1.6730   -0.6520 N   0  0  0  0  0  0  0  0  0  0  0  0
    5.9400   -0.7490    0.2800 C   0  0  0  0  0  0  0  0  0  0  0  0
    5.0210   -0.5880    1.3530 O   0  0  0  0  0  0  0  0  0  0  0  0
   -0.9320   -0.2100   -0.8500 C   0  0  0  0  0  0  0  0  0  0  0  0
   -1.2550   -0.2890   -2.2180 C   0  0  0  0  0  0  0  0  0  0  0  0
   -1.9850   -1.3090   -2.7670 C   0  0  0  0  0  0  0  0  0  0  0  0
   -2.4410   -2.3220   -1.9910 C   0  0  0  0  0  0  0  0  0  0  0  0
   -2.1620   -2.3100   -0.6460 C   0  0  0  0  0  0  0  0  0  0  0  0
   -2.6030   -3.3290    0.1790 C   0  0  0  0  0  0  0  0  0  0  0  0
   -2.3190   -3.3240    1.5250 C   0  0  0  0  0  0  0  0  0  0  0  0
   -1.5850   -2.2970    2.0710 C   0  0  0  0  0  0  0  0  0  0  0  0
   -1.1390   -1.2740    1.2590 C   0  0  0  0  0  0  0  0  0  0  0  0
   -1.4110   -1.2550   -0.0930 C   0  0  0  0  0  0  0  0  0  0  0  0
  1  2  2  0
  2  3  1  0
  3  4  1  0
  4  5  1  0
  5  6  2  0
  5  7  1  0
  8  7  1  1
  8  9  1  0
  8 19  1  0
  9 10  2  0
  9 14  1  0
 10 11  1  0
 11 12  2  0
 12 13  1  0
 12 18  1  0
 13 14  2  0
 13 15  1  0
 15 16  1  0
 16 17  1  0
 17 18  1  0
 19 20  2  0
 19 28  1  0
 20 21  1  0
 21 22  2  0
 22 23  1  0
 23 24  2  0
 23 28  1  0
 24 25  1  0
 25 26  2  0
 26 27  1  0
 27 28  2  0
M  END
