
     RDKit          3D

 28 30  0  0  0  0  0  0  0  0999 V2000
   -5.4040   -3.7540   -0.0880 C   0  0  0  0  0  0  0  0  0  0  0  0
   -4.5380   -3.5030   -1.2910 C   0  0  0  0  0  0  0  0  0  0  0  0
   -3.6260   -2.4000   -1.0020 N   0  0  0  0  0  0  0  0  0  0  0  0
   -4.3950   -1.1760   -0.8920 C   0  0  0  0  0  0  0  0  0  0  0  0
   -3.4650   -0.0680   -0.5620 C   0  0  0  0  0  0  0  0  0  0  0  0
   -2.0910   -0.3020   -0.3860 C   0  0  0  0  0  0  0  0  0  0  0  0
   -1.2050    0.6890   -0.0730 C   0  0  0  0  0  0  0  0  0  0  0  0
    0.1950    0.5460    0.1260 N   0  0  0  0  0  0  0  0  0  0  0  0
    0.9260   -0.6380    0.0450 C   0  0  0  0  0  0  0  0  0  0  0  0
    0.3040   -1.7170   -0.2350 O   0  0  0  0  0  0  0  0  0  0  0  0
    2.3880   -0.7580    0.2590 C   0  0  0  0  0  0  0  0  0  0  0  0
    3.0370   -1.9590    0.1950 N   0  0  0  0  0  0  0  0  0  0  0  0
    4.3250   -1.8010    0.4170 C   0  0  0  0  0  0  0  0  0  0  0  0
    4.5390   -0.4650    0.6330 C   0  0  0  0  0  0  0  0  0  0  0  0
    3.3080    0.2160    0.5350 C   0  0  0  0  0  0  0  0  0  0  0  0
    3.1490    1.6610    0.7100 C   0  0  0  0  0  0  0  0  0  0  0  0
    5.8870   -0.0130    0.9040 C   0  0  0  0  0  0  0  0  0  0  0  0
    6.0760    0.9680    1.6520 O   0  0  0  0  0  0  0  0  0  0  0  0
    7.0320   -0.7200    0.2910 C   0  0  0  0  0  0  0  0  0  0  0  0
    6.7060   -2.0990   -0.1930 C   0  0  0  0  0  0  0  0  0  0  0  0
    5.5180   -2.7060    0.4800 C   0  0  0  0  0  0  0  0  0  0  0  0
   -1.7700    1.9680    0.0610 C   0  0  0  0  0  0  0  0  0  0  0  0
   -0.9070    3.0160    0.3810 O   0  0  0  0  0  0  0  0  0  0  0  0
   -1.3700    4.3420    0.5400 C   0  0  0  0  0  0  0  0  0  0  0  0
   -0.1890    5.2120    0.8770 C   0  0  0  0  0  0  0  0  0  0  0  0
   -3.1120    2.2100   -0.1080 C   0  0  0  0  0  0  0  0  0  0  0  0
   -3.9910    1.2000   -0.4230 C   0  0  0  0  0  0  0  0  0  0  0  0
   -5.4440    1.4270   -0.6070 C   0  0  0  0  0  0  0  0  0  0  0  0
  1  2  1  0
  2  3  1  0
  3  4  1  0
  4  5  1  0
  5  6  2  0
  5 27  1  0
  6  7  1  0
  7  8  1  0
  7 22  2  0
  8  9  1  0
  9 10  2  0
  9 11  1  0
 11 12  1  0
 11 15  2  0
 12 13  1  0
 13 14  2  0
 13 21  1  0
 14 15  1  0
 14 17  1  0
 15 16  1  0
 17 18  2  0
 17 19  1  0
 19 20  1  0
 20 21  1  0
 22 23  1  0
 22 26  1  0
 23 24  1  0
 24 25  1  0
 26 27  2  0
 27 28  1  0
M  END
