
     RDKit          3D

 29 31  0  0  0  0  0  0  0  0999 V2000
   -1.8640   -5.3420    1.6560 C   0  0  0  0  0  0  0  0  0  0  0  0
   -0.9150   -5.0130    0.5620 C   0  0  0  0  0  0  0  0  0  0  0  0
   -1.3610   -4.0320   -0.4610 C   0  0  0  0  0  0  0  0  0  0  0  0
   -1.6970   -2.6930    0.0590 C   0  0  0  0  0  0  0  0  0  0  0  0
   -2.9760   -2.4020    0.5100 C   0  0  0  0  0  0  0  0  0  0  0  0
   -4.1100   -3.3970    0.4360 C   0  0  0  0  0  0  0  0  0  0  0  0
   -3.2030   -1.1790    0.9980 N   0  0  0  0  0  0  0  0  0  0  0  0
   -2.2830   -0.1760    1.0930 C   0  0  0  0  0  0  0  0  0  0  0  0
   -2.6750    1.1040    1.6520 C   0  0  0  0  0  0  0  0  0  0  0  0
   -3.8790    1.2150    2.0280 O   0  0  0  0  0  0  0  0  0  0  0  0
   -1.8120    2.1800    1.7860 N   0  0  0  0  0  0  0  0  0  0  0  0
   -0.4150    2.2530    1.4190 C   0  0  0  0  0  0  0  0  0  0  0  0
   -2.3470    3.4290    2.3720 C   0  0  0  0  0  0  0  0  0  0  0  0
   -2.9080    4.3240    1.2880 C   0  0  0  0  0  0  0  0  0  0  0  0
   -1.0620   -0.5030    0.6440 N   0  0  0  0  0  0  0  0  0  0  0  0
   -0.7150   -1.6950    0.1360 C   0  0  0  0  0  0  0  0  0  0  0  0
    0.5880   -1.9930   -0.2700 N   0  0  0  0  0  0  0  0  0  0  0  0
    1.7280   -1.1420   -0.3060 C   0  0  1  0  0  0  0  0  0  0  0  0
    1.5700    0.0390   -1.2780 C   0  0  0  0  0  0  0  0  0  0  0  0
    2.9660    0.5600   -1.5710 C   0  0  1  0  0  0  0  0  0  0  0  0
    2.9490    1.9920   -1.9630 C   0  0  0  0  0  0  0  0  0  0  0  0
    1.9190    2.8190   -1.9990 C   0  0  0  0  0  0  0  0  0  0  0  0
    2.3050    4.1190   -2.4300 N   0  0  0  0  0  0  0  0  0  0  0  0
    3.6890    4.0390   -2.6660 C   0  0  0  0  0  0  0  0  0  0  0  0
    4.0870    2.8060   -2.4000 C   0  0  0  0  0  0  0  0  0  0  0  0
    3.8910    0.3760   -0.4000 C   0  0  0  0  0  0  0  0  0  0  0  0
    3.1260    0.5830    0.8890 C   0  0  0  0  0  0  0  0  0  0  0  0
    2.1290   -0.5480    0.9780 C   0  0  0  0  0  0  0  0  0  0  0  0
    1.7430   -0.8740    2.0660 O   0  0  0  0  0  0  0  0  0  0  0  0
  1  2  1  0
  2  3  1  0
  3  4  1  0
  4  5  2  0
  4 16  1  0
  5  6  1  0
  5  7  1  0
  7  8  2  0
  8  9  1  0
  8 15  1  0
  9 10  2  0
  9 11  1  0
 11 12  1  0
 11 13  1  0
 13 14  1  0
 15 16  2  0
 16 17  1  0
 18 17  1  1
 18 19  1  0
 18 28  1  0
 19 20  1  0
 20 21  1  1
 20 26  1  0
 21 22  2  0
 21 25  1  0
 22 23  1  0
 23 24  1  0
 24 25  2  0
 26 27  1  0
 27 28  1  0
 28 29  2  0
M  CHG  1  23   1
M  END
