
     RDKit          3D

 29 33  0  0  0  0  0  0  0  0999 V2000
   -2.1190   -1.0390   -3.0800 C   0  0  0  0  0  0  0  0  0  0  0  0
   -2.8210   -0.8490   -1.8440 N   0  0  0  0  0  0  0  0  0  0  0  0
   -4.1580   -0.6520   -1.6930 C   0  0  0  0  0  0  0  0  0  0  0  0
   -4.4610   -0.5110   -0.3690 C   0  0  0  0  0  0  0  0  0  0  0  0
   -3.2660   -0.6240    0.3130 C   0  0  0  0  0  0  0  0  0  0  0  0
   -2.2670   -0.8330   -0.6170 C   0  0  0  0  0  0  0  0  0  0  0  0
   -0.9050   -0.9940   -0.2510 N   0  0  0  0  0  0  0  0  0  0  0  0
   -0.0480   -0.0470   -0.4780 C   0  0  0  0  0  0  0  0  0  0  0  0
   -0.4810    1.0730   -1.0600 N   0  0  0  0  0  0  0  0  0  0  0  0
    0.4260    2.0310   -1.2810 C   0  0  0  0  0  0  0  0  0  0  0  0
    0.1480    3.1310   -1.8210 O   0  0  0  0  0  0  0  0  0  0  0  0
    1.7770    1.8560   -0.9120 C   0  0  0  0  0  0  0  0  0  0  0  0
    3.1650    2.8580   -1.0480 S   0  0  0  0  0  0  0  0  0  0  0  0
    4.3050    1.6350   -0.2670 N   0  0  0  0  0  0  0  0  0  0  0  0
    3.4960    0.5780    0.0180 C   0  0  0  0  0  0  0  0  0  0  0  0
    4.1200   -0.5760    0.6570 N   0  0  0  0  0  0  0  0  0  0  0  0
    5.4980   -0.5090    0.9260 C   0  0  0  0  0  0  0  0  0  0  0  0
    6.2610    0.5650    0.6240 N   0  0  0  0  0  0  0  0  0  0  0  0
    7.5720    0.6080    0.8900 C   0  0  0  0  0  0  0  0  0  0  0  0
    8.1710   -0.4750    1.4920 C   0  0  0  0  0  0  0  0  0  0  0  0
    7.4470   -1.5620    1.8080 N   0  0  0  0  0  0  0  0  0  0  0  0
    6.1300   -1.5690    1.5250 C   0  0  0  0  0  0  0  0  0  0  0  0
    5.1610   -2.9780    1.9290 Cl  0  0  0  0  0  0  0  0  0  0  0  0
    2.1990    0.6950   -0.3140 C   0  0  0  0  0  0  0  0  0  0  0  0
    1.2130   -0.2320   -0.1240 N   0  0  0  0  0  0  0  0  0  0  0  0
   -3.3300   -0.5040    1.7960 C   0  0  0  0  0  0  0  0  0  0  0  0
   -4.1010    0.7480    2.1160 C   0  0  0  0  0  0  0  0  0  0  0  0
   -5.4570    0.7980    1.4880 C   0  0  0  0  0  0  0  0  0  0  0  0
   -5.6790   -0.2800    0.4540 C   0  0  0  0  0  0  0  0  0  0  0  0
  1  2  1  0
  2  3  1  0
  2  6  1  0
  3  4  2  0
  4  5  1  0
  4 29  1  0
  5  6  2  0
  5 26  1  0
  6  7  1  0
  7  8  2  3
  8  9  1  0
  8 25  1  0
  9 10  1  0
 10 11  2  0
 10 12  1  0
 12 13  1  0
 12 24  2  0
 13 14  1  0
 14 15  2  0
 15 16  1  0
 15 24  1  0
 16 17  1  0
 17 18  2  0
 17 22  1  0
 18 19  1  0
 19 20  2  0
 20 21  1  0
 21 22  2  0
 22 23  1  0
 24 25  1  0
 26 27  1  0
 27 28  1  0
 28 29  1  0
M  END
