
     RDKit          3D

 30 33  0  0  0  0  0  0  0  0999 V2000
    5.0240   -0.8730   -2.1260 C   0  0  0  0  0  0  0  0  0  0  0  0
    4.4590    0.4700   -1.6590 C   0  0  0  0  0  0  0  0  0  0  0  0
    3.5070    0.3110   -0.5560 C   0  0  0  0  0  0  0  0  0  0  0  0
    2.1370    0.4300   -0.8120 C   0  0  0  0  0  0  0  0  0  0  0  0
    1.2300    0.2840    0.2190 C   0  0  0  0  0  0  0  0  0  0  0  0
    1.7240    0.0230    1.4810 C   0  0  0  0  0  0  0  0  0  0  0  0
    3.0750   -0.0950    1.7410 C   0  0  0  0  0  0  0  0  0  0  0  0
    3.9880    0.0500    0.7100 C   0  0  0  0  0  0  0  0  0  0  0  0
    5.3600   -0.0550    0.8900 O   0  0  0  0  0  0  0  0  0  0  0  0
    6.3520    1.2810    1.2730 S   0  0  1  0  0  0  0  0  0  0  0  0
    7.6140    1.4880    0.1290 N   0  0  0  0  0  0  0  0  0  0  0  0
    5.4840    2.5080    1.2240 O   0  0  0  0  0  0  0  0  0  0  0  0
    6.8770    1.1810    2.6770 O   0  0  0  0  0  0  0  0  0  0  0  0
    0.7420   -0.1290    2.5670 C   0  0  0  0  0  0  0  0  0  0  0  0
   -0.4790   -0.9040    2.1720 C   0  0  0  0  0  0  0  0  0  0  0  0
   -0.8500   -0.8410    0.7320 C   0  0  2  0  0  0  0  0  0  0  0  0
   -0.2280    0.3900    0.0600 C   0  0  2  0  0  0  0  0  0  0  0  0
   -0.6520    0.4950   -1.3830 C   0  0  0  0  0  0  0  0  0  0  0  0
   -2.1470    0.7500   -1.4020 C   0  0  0  0  0  0  0  0  0  0  0  0
   -2.7970   -0.4690   -0.8210 C   0  0  2  0  0  0  0  0  0  0  0  0
   -2.5150   -1.6510   -1.6920 C   0  0  0  0  0  0  0  0  0  0  0  0
   -4.2720   -0.3090   -0.5360 C   0  0  1  0  0  0  0  0  0  0  0  0
   -5.0530   -0.2870   -1.6510 O   0  0  0  0  0  0  0  0  0  0  0  0
   -5.9230    1.1520   -1.6490 S   0  0  2  0  0  0  0  0  0  0  0  0
   -6.3900    1.4630   -0.0120 N   0  0  0  0  0  0  0  0  0  0  0  0
   -7.1090    1.0880   -2.5600 O   0  0  0  0  0  0  0  0  0  0  0  0
   -4.9910    2.2780   -2.0610 O   0  0  0  0  0  0  0  0  0  0  0  0
   -4.5130   -1.5130    0.3610 C   0  0  0  0  0  0  0  0  0  0  0  0
   -3.1720   -1.7950    1.0560 C   0  0  0  0  0  0  0  0  0  0  0  0
   -2.3250   -0.6620    0.6130 C   0  0  1  0  0  0  0  0  0  0  0  0
  1  2  1  0
  2  3  1  0
  3  4  2  0
  3  8  1  0
  4  5  1  0
  5  6  2  0
  5 17  1  0
  6  7  1  0
  6 14  1  0
  7  8  2  0
  8  9  1  0
  9 10  1  0
 10 11  1  6
 10 12  2  0
 10 13  2  0
 14 15  1  0
 16 15  1  1
 16 17  1  0
 16 30  1  0
 17 18  1  6
 18 19  1  0
 19 20  1  0
 20 21  1  6
 20 22  1  0
 20 30  1  0
 22 23  1  6
 22 28  1  0
 23 24  1  0
 24 25  1  1
 24 26  2  0
 24 27  2  0
 28 29  1  0
 30 29  1  6
M  END
