
     RDKit          3D

 29 31  0  0  0  0  0  0  0  0999 V2000
    8.2000    1.7200   -0.3970 C   0  0  0  0  0  0  0  0  0  0  0  0
    7.7620    0.3330    0.0210 C   0  0  0  0  0  0  0  0  0  0  0  0
    6.3900    0.0850   -0.2840 N   0  0  2  0  0  0  0  0  0  0  0  0
    5.5100    1.2120   -0.0430 C   0  0  0  0  0  0  0  0  0  0  0  0
    4.1960    0.8520   -0.7410 C   0  0  0  0  0  0  0  0  0  0  0  0
    3.6910   -0.4050   -0.4220 N   0  0  0  0  0  0  0  0  0  0  0  0
    2.2570   -0.5330   -0.2510 C   0  0  0  0  0  0  0  0  0  0  0  0
    1.7530    0.1860    0.9640 C   0  0  0  0  0  0  0  0  0  0  0  0
    0.4270    0.1180    1.1930 N   0  0  0  0  0  0  0  0  0  0  0  0
   -0.6590   -0.3350    0.8290 C   0  0  0  0  0  0  0  0  0  0  0  0
   -0.8400   -1.1780   -0.2970 N   0  0  0  0  0  0  0  0  0  0  0  0
   -2.1480   -1.6580   -0.6380 C   0  0  0  0  0  0  0  0  0  0  0  0
   -2.2660   -2.5400   -1.8370 C   0  0  0  0  0  0  0  0  0  0  0  0
   -3.2200   -1.3630    0.0410 C   0  0  0  0  0  0  0  0  0  0  0  0
   -4.5230   -1.8820   -0.3550 C   0  0  0  0  0  0  0  0  0  0  0  0
   -5.6000   -1.6260    0.2710 O   0  0  0  0  0  0  0  0  0  0  0  0
   -4.7190   -2.7130   -1.4640 O   0  0  0  0  0  0  0  0  0  0  0  0
   -5.9900   -3.2110   -1.8390 C   0  0  0  0  0  0  0  0  0  0  0  0
   -3.1440   -0.5060    1.2360 C   0  0  2  0  0  0  0  0  0  0  0  0
   -4.1530    0.6030    1.1680 C   0  0  0  0  0  0  0  0  0  0  0  0
   -3.9920    1.6970    0.3770 C   0  0  0  0  0  0  0  0  0  0  0  0
   -4.9500    2.7060    0.3690 C   0  0  0  0  0  0  0  0  0  0  0  0
   -6.0910    2.6310    1.1610 C   0  0  0  0  0  0  0  0  0  0  0  0
   -7.1250    3.6990    1.1660 C   0  0  0  0  0  0  0  0  0  0  0  0
   -6.2400    1.5170    1.9580 C   0  0  0  0  0  0  0  0  0  0  0  0
   -5.2740    0.5200    1.9530 C   0  0  0  0  0  0  0  0  0  0  0  0
   -1.8620   -0.0190    1.5660 N   0  0  0  0  0  0  0  0  0  0  0  0
    4.4780   -1.3730    0.2110 C   0  0  0  0  0  0  0  0  0  0  0  0
    5.8850   -1.0020    0.5290 C   0  0  0  0  0  0  0  0  0  0  0  0
  1  2  1  0
  3  2  1  1
  3  4  1  0
  3 29  1  0
  4  5  1  0
  5  6  1  0
  6  7  1  0
  6 28  1  0
  7  8  1  0
  8  9  1  0
  9 10  2  3
 10 11  1  0
 10 27  1  0
 11 12  1  0
 12 13  1  0
 12 14  2  0
 14 15  1  0
 14 19  1  0
 15 16  2  0
 15 17  1  0
 17 18  1  0
 19 20  1  6
 19 27  1  0
 20 21  2  0
 20 26  1  0
 21 22  1  0
 22 23  2  0
 23 24  1  0
 23 25  1  0
 25 26  2  0
 28 29  1  0
M  CHG  1   3   1
M  END
