
     RDKit          3D

 29 33  0  0  0  0  0  0  0  0999 V2000
   -6.8730    3.6520    1.7470 N   0  0  0  0  0  0  0  0  0  0  0  0
   -5.6800    2.8840    1.8020 N   0  0  0  0  0  0  0  0  0  0  0  0
   -5.1900    2.8050    0.4390 C   0  0  1  0  0  0  0  0  0  0  0  0
   -3.9510    2.0380    0.3160 C   0  0  0  0  0  0  0  0  0  0  0  0
   -3.8420    0.8680   -0.3560 C   0  0  0  0  0  0  0  0  0  0  0  0
   -2.5580    0.1950   -0.4110 C   0  0  0  0  0  0  0  0  0  0  0  0
   -1.4460    0.9750   -0.1690 N   0  0  0  0  0  0  0  0  0  0  0  0
   -0.1980    0.5200   -0.1530 C   0  0  0  0  0  0  0  0  0  0  0  0
    0.9060    1.3500    0.0970 N   0  0  0  0  0  0  0  0  0  0  0  0
    2.2280    0.6130    0.0640 C   0  0  0  0  0  0  0  0  0  0  0  0
    2.6970   -0.4270   -0.0950 N   0  0  0  0  0  0  0  0  0  0  0  0
    3.9830   -0.6870   -0.0430 N   0  0  0  0  0  0  0  0  0  0  0  0
    4.8190    0.1310    0.1770 C   0  0  0  0  0  0  0  0  0  0  0  0
    6.2430    0.2420    0.3100 N   0  0  0  0  0  0  0  0  0  0  0  0
    6.9960    1.4440    0.5950 C   0  0  0  0  0  0  0  0  0  0  0  0
    8.2510    0.9200    1.3030 C   0  0  0  0  0  0  0  0  0  0  0  0
    8.5270   -0.3300    0.5310 C   0  0  0  0  0  0  0  0  0  0  0  0
    7.1710   -0.8460    0.1770 C   0  0  0  0  0  0  0  0  0  0  0  0
    3.7340    1.6610    0.3800 S   0  0  0  0  0  0  0  0  0  0  0  0
   -0.0500   -0.8080   -0.3970 N   0  0  0  0  0  0  0  0  0  0  0  0
   -1.0750   -1.6310   -0.6390 C   0  0  0  0  0  0  0  0  0  0  0  0
   -2.3780   -1.1380   -0.6480 C   0  0  0  0  0  0  0  0  0  0  0  0
   -3.5220   -2.0700   -0.8040 C   0  0  0  0  0  0  0  0  0  0  0  0
   -3.0460   -3.4140   -0.1670 C   0  0  0  0  0  0  0  0  0  0  0  0
   -1.9570   -3.8920   -1.1040 C   0  0  0  0  0  0  0  0  0  0  0  0
   -0.7330   -3.0640   -0.9130 C   0  0  0  0  0  0  0  0  0  0  0  0
   -5.0160    0.4560   -1.0550 C   0  0  0  0  0  0  0  0  0  0  0  0
   -6.1630    1.1710   -1.0460 C   0  0  0  0  0  0  0  0  0  0  0  0
   -6.2340    2.3350   -0.3540 O   0  0  0  0  0  0  0  0  0  0  0  0
  1  2  1  0
  3  2  1  1
  3  4  1  0
  3 29  1  0
  4  5  2  0
  5  6  1  0
  5 27  1  0
  6  7  2  0
  6 22  1  0
  7  8  1  0
  8  9  1  0
  8 20  2  0
  9 10  1  0
 10 11  2  0
 10 19  1  0
 11 12  1  0
 12 13  2  0
 13 14  1  0
 13 19  1  0
 14 15  1  0
 14 18  1  0
 15 16  1  0
 16 17  1  0
 17 18  1  0
 20 21  1  0
 21 22  2  0
 21 26  1  0
 22 23  1  0
 23 24  1  0
 24 25  1  0
 25 26  1  0
 27 28  2  0
 28 29  1  0
M  END
