
     RDKit          3D

 29 31  0  0  0  0  0  0  0  0999 V2000
   -6.3570    2.4880   -0.2910 C   0  0  0  0  0  0  0  0  0  0  0  0
   -5.0770    1.8810   -0.0110 N   0  0  1  0  0  0  0  0  0  0  0  0
   -4.8590    1.6180    1.3730 C   0  0  0  0  0  0  0  0  0  0  0  0
   -3.5180    1.0140    1.6150 C   0  0  0  0  0  0  0  0  0  0  0  0
   -2.9740    0.2200    0.6000 N   0  0  0  0  0  0  0  0  0  0  0  0
   -2.5490   -1.0920    0.9320 C   0  0  0  0  0  0  0  0  0  0  0  0
   -1.3480   -0.9900    1.8320 C   0  0  0  0  0  0  0  0  0  0  0  0
   -0.8930   -2.3690    2.2120 C   0  0  0  0  0  0  0  0  0  0  0  0
   -0.5130   -3.1320    0.9680 C   0  0  0  0  0  0  0  0  0  0  0  0
    0.5450   -2.3990    0.2980 N   0  0  0  0  0  0  0  0  0  0  0  0
    1.8000   -2.1200    0.8630 C   0  0  0  0  0  0  0  0  0  0  0  0
    2.0500   -2.5240    2.0260 O   0  0  0  0  0  0  0  0  0  0  0  0
    2.8370   -1.3560    0.1110 C   0  0  0  0  0  0  0  0  0  0  0  0
    2.5310   -0.9880   -1.0250 O   0  0  0  0  0  0  0  0  0  0  0  0
    4.0830   -1.0860    0.6880 N   0  0  0  0  0  0  0  0  0  0  0  0
    5.1330   -0.3740    0.0810 C   0  0  0  0  0  0  0  0  0  0  0  0
    4.9920    0.3110   -1.0770 C   0  0  0  0  0  0  0  0  0  0  0  0
    6.0810    0.9860   -1.6320 C   0  0  0  0  0  0  0  0  0  0  0  0
    7.3080    0.9620   -1.0100 C   0  0  0  0  0  0  0  0  0  0  0  0
    8.3920    1.6230   -1.5460 C   0  0  0  0  0  0  0  0  0  0  0  0
    9.6250    1.5810   -0.8910 C   0  0  0  0  0  0  0  0  0  0  0  0
    9.7130    0.8690    0.2850 C   0  0  0  0  0  0  0  0  0  0  0  0
    8.6460    0.2440    0.7710 N   0  0  0  0  0  0  0  0  0  0  0  0
    7.4410    0.2650    0.1640 C   0  0  0  0  0  0  0  0  0  0  0  0
    6.3900   -0.3900    0.7050 C   0  0  0  0  0  0  0  0  0  0  0  0
   -3.3020    0.4850   -0.7330 C   0  0  0  0  0  0  0  0  0  0  0  0
   -4.8210    0.7140   -0.7940 C   0  0  1  0  0  0  0  0  0  0  0  0
   -5.4590   -0.5480   -0.2800 C   0  0  0  0  0  0  0  0  0  0  0  0
   -5.2590    0.8680   -2.2360 C   0  0  0  0  0  0  0  0  0  0  0  0
  2  1  1  1
  2  3  1  0
  2 27  1  0
  3  4  1  0
  4  5  1  0
  5  6  1  0
  5 26  1  0
  6  7  1  0
  7  8  1  0
  8  9  1  0
  9 10  1  0
 10 11  1  0
 11 12  2  0
 11 13  1  0
 13 14  2  0
 13 15  1  0
 15 16  1  0
 16 17  2  0
 16 25  1  0
 17 18  1  0
 18 19  2  0
 19 20  1  0
 19 24  1  0
 20 21  2  0
 21 22  1  0
 22 23  2  0
 23 24  1  0
 24 25  2  0
 26 27  1  0
 27 28  1  1
 27 29  1  0
M  CHG  1   2   1
M  END
