
     RDKit          3D

 29 31  0  0  0  0  0  0  0  0999 V2000
   -5.1090   -5.0540    1.0990 C   0  0  0  0  0  0  0  0  0  0  0  0
   -4.2400   -3.8640    0.9270 C   0  0  0  0  0  0  0  0  0  0  0  0
   -2.8980   -3.9010    1.0770 C   0  0  0  0  0  0  0  0  0  0  0  0
   -2.1540   -2.7150    0.8930 C   0  0  0  0  0  0  0  0  0  0  0  0
   -2.7160   -1.5300    0.5690 C   0  0  0  0  0  0  0  0  0  0  0  0
   -2.0350   -0.3010    0.2830 C   0  0  0  0  0  0  0  0  0  0  0  0
   -2.7950    0.7760    0.2870 O   0  0  0  0  0  0  0  0  0  0  0  0
   -0.6580    0.0070   -0.0160 C   0  0  0  0  0  0  0  0  0  0  0  0
    0.3120   -0.8560   -0.1730 C   0  0  0  0  0  0  0  0  0  0  0  0
    1.7260   -0.5200   -0.4750 C   0  0  0  0  0  0  0  0  0  0  0  0
    2.5970   -1.4600   -0.6090 N   0  0  0  0  0  0  0  0  0  0  0  0
    3.9120   -1.1060   -0.8910 N   0  0  0  0  0  0  0  0  0  0  0  0
    4.9730   -1.3160    0.0510 C   0  0  0  0  0  0  0  0  0  0  0  0
    6.3050   -0.8810   -0.4660 C   0  0  1  0  0  0  0  0  0  0  0  0
    6.3850    0.5730   -0.8210 C   0  0  0  0  0  0  0  0  0  0  0  0
    7.3830   -1.1580    0.5620 C   0  0  0  0  0  0  0  0  0  0  0  0
    2.0360    0.8960   -0.6020 C   0  0  0  0  0  0  0  0  0  0  0  0
    3.2140    1.2400   -0.8560 O   0  0  0  0  0  0  0  0  0  0  0  0
    0.9680    1.7810   -0.4260 N   0  0  0  0  0  0  0  0  0  0  0  0
   -0.2690    1.4280   -0.1590 C   0  0  0  0  0  0  0  0  0  0  0  0
   -1.1750    2.5050   -0.0200 N   0  0  0  0  0  0  0  0  0  0  0  0
   -1.9000    3.1170   -1.1440 C   0  0  0  0  0  0  0  0  0  0  0  0
   -1.4240    4.5610   -1.2830 C   0  0  0  0  0  0  0  0  0  0  0  0
   -0.5310    4.9350   -0.2270 N   0  0  0  0  0  0  0  0  0  0  0  0
   -0.8860    4.5670    1.0940 C   0  0  0  0  0  0  0  0  0  0  0  0
   -1.4510    3.1680    1.2510 C   0  0  0  0  0  0  0  0  0  0  0  0
   -4.1180   -1.5460    0.4260 C   0  0  0  0  0  0  0  0  0  0  0  0
   -4.8450   -2.6710    0.6000 C   0  0  0  0  0  0  0  0  0  0  0  0
   -6.3230   -2.5870    0.4270 C   0  0  0  0  0  0  0  0  0  0  0  0
  1  2  1  0
  2  3  2  0
  2 28  1  0
  3  4  1  0
  4  5  2  0
  5  6  1  0
  5 27  1  0
  6  7  2  0
  6  8  1  0
  8  9  2  0
  8 20  1  0
  9 10  1  0
 10 11  2  3
 10 17  1  0
 11 12  1  0
 12 13  1  0
 13 14  1  0
 14 15  1  1
 14 16  1  0
 17 18  2  0
 17 19  1  0
 19 20  2  0
 20 21  1  0
 21 22  1  0
 21 26  1  0
 22 23  1  0
 23 24  1  0
 24 25  1  0
 25 26  1  0
 27 28  2  0
 28 29  1  0
M  CHG  1  24   1
M  END
