
     RDKit          3D

 15 16  0  0  0  0  0  0  0  0999 V2000
    3.1590   -1.0980    1.4440 C   0  0  0  0  0  0  0  0  0  0  0  0
    3.0130    0.2620    1.0770 O   0  0  0  0  0  0  0  0  0  0  0  0
    1.8980    0.6030    0.3200 C   0  0  0  0  0  0  0  0  0  0  0  0
    0.9470   -0.3140   -0.0780 C   0  0  0  0  0  0  0  0  0  0  0  0
   -0.1430    0.0770   -0.8280 C   0  0  0  0  0  0  0  0  0  0  0  0
   -1.0920   -0.8700   -1.2190 O   0  0  0  0  0  0  0  0  0  0  0  0
   -2.1830   -1.1250   -0.3910 C   0  0  0  0  0  0  0  0  0  0  0  0
   -2.4770   -0.5470    0.8220 C   0  0  0  0  0  0  0  0  0  0  0  0
   -3.6550   -1.1350    1.2360 C   0  0  0  0  0  0  0  0  0  0  0  0
   -4.0350   -2.0020    0.3310 O   0  0  0  0  0  0  0  0  0  0  0  0
   -3.1800   -2.0330   -0.6710 C   0  0  0  0  0  0  0  0  0  0  0  0
   -0.3380    1.3870   -1.2160 C   0  0  0  0  0  0  0  0  0  0  0  0
    0.6110    2.3090   -0.8200 C   0  0  0  0  0  0  0  0  0  0  0  0
    1.6990    1.9110   -0.0690 C   0  0  0  0  0  0  0  0  0  0  0  0
    2.6610    2.8560    0.3310 O   0  0  0  0  0  0  0  0  0  0  0  0
  1  2  1  0
  2  3  1  0
  3  4  2  0
  3 14  1  0
  4  5  1  0
  5  6  1  0
  5 12  2  0
  6  7  1  0
  7  8  1  0
  7 11  2  0
  8  9  2  0
  9 10  1  0
 10 11  1  0
 12 13  1  0
 13 14  2  0
 14 15  1  0
M  END
