
     RDKit          3D

 17 17  0  0  0  0  0  0  0  0999 V2000
    6.1940   -0.1460    0.8870 C   0  0  0  0  0  0  0  0  0  0  0  0
    4.8150    0.3860    0.8490 C   0  0  0  0  0  0  0  0  0  0  0  0
    3.7820   -0.2870    0.4170 C   0  0  0  0  0  0  0  0  0  0  0  0
    3.9260   -1.6630   -0.0780 C   0  0  0  0  0  0  0  0  0  0  0  0
    2.4600    0.3200    0.4180 C   0  0  0  0  0  0  0  0  0  0  0  0
    2.3490    1.9610    1.0140 Cl  0  0  0  0  0  0  0  0  0  0  0  0
    1.3960   -0.3130   -0.0040 C   0  0  0  0  0  0  0  0  0  0  0  0
    0.0770    0.3430    0.0160 C   0  0  0  0  0  0  0  0  0  0  0  0
    0.0580    1.6570    0.5100 N   0  0  0  0  0  0  0  0  0  0  0  0
   -0.9890   -0.3320   -0.4250 C   0  0  0  0  0  0  0  0  0  0  0  0
   -0.6760   -1.7160   -0.8960 C   0  0  0  0  0  0  0  0  0  0  0  0
   -2.3170    0.1690   -0.4640 C   0  0  0  0  0  0  0  0  0  0  0  0
   -3.3090   -0.6250   -0.9390 C   0  0  0  0  0  0  0  0  0  0  0  0
   -4.6760   -0.0040   -0.9400 C   0  0  0  0  0  0  0  0  0  0  0  0
   -4.9720    0.3890    0.4890 C   0  0  0  0  0  0  0  0  0  0  0  0
   -3.8630    1.2570    1.0540 C   0  0  0  0  0  0  0  0  0  0  0  0
   -2.8030    1.5120   -0.0340 C   0  0  0  0  0  0  0  0  0  0  0  0
  1  2  1  0
  2  3  2  3
  3  4  1  0
  3  5  1  0
  5  6  1  0
  5  7  2  3
  7  8  1  0
  8  9  1  0
  8 10  2  3
 10 11  1  0
 10 12  1  0
 12 13  2  0
 12 17  1  0
 13 14  1  0
 14 15  1  0
 15 16  1  0
 16 17  1  0
M  END
