
     RDKit          3D

 17 18  0  0  0  0  0  0  0  0999 V2000
   -1.4590   -0.6260   -2.1900 C   0  0  0  0  0  0  0  0  0  0  0  0
   -1.5180    0.3390   -1.0490 C   0  0  1  0  0  0  0  0  0  0  0  0
   -2.2370    1.6160   -1.4330 C   0  0  0  0  0  0  0  0  0  0  0  0
   -1.8400   -0.3340    0.2470 C   0  0  2  0  0  0  0  0  0  0  0  0
   -1.6950   -1.8400    0.3230 C   0  0  0  0  0  0  0  0  0  0  0  0
   -3.0020    0.1530    1.0890 C   0  0  0  0  0  0  0  0  0  0  0  0
   -0.6120    0.4260    0.1080 C   0  0  2  0  0  0  0  0  0  0  0  0
   -0.6880    1.7330    0.8810 N   0  0  0  0  0  0  0  0  0  0  0  0
    0.7590   -0.0450    0.1490 C   0  0  0  0  0  0  0  0  0  0  0  0
    1.3540   -0.2380   -0.9890 C   0  0  0  0  0  0  0  0  0  0  0  0
    2.7060   -0.7040   -1.3660 C   0  0  0  0  0  0  0  0  0  0  0  0
    3.9110   -0.7090   -0.8330 C   0  0  0  0  0  0  0  0  0  0  0  0
    4.4270   -0.2190    0.4400 C   0  0  0  0  0  0  0  0  0  0  0  0
    3.8350    0.0110    1.6170 C   0  0  0  0  0  0  0  0  0  0  0  0
    2.4550   -0.1310    2.1060 C   0  0  0  0  0  0  0  0  0  0  0  0
    2.4000   -0.3100    3.8650 Cl  0  0  0  0  0  0  0  0  0  0  0  0
    1.2650   -0.1530    1.5400 C   0  0  0  0  0  0  0  0  0  0  0  0
  2  1  1  6
  2  3  1  0
  2  4  1  0
  2  7  1  0
  4  5  1  6
  4  6  1  0
  4  7  1  0
  7  8  1  1
  7  9  1  0
  9 10  2  0
  9 17  1  0
 10 11  1  0
 11 12  2  0
 12 13  1  0
 13 14  2  0
 14 15  1  0
 15 16  1  0
 15 17  2  0
M  CHG  1   8   1
M  END
