
     RDKit          3D

 15 15  0  0  0  0  0  0  0  0999 V2000
   -3.1840    1.4370    1.7020 C   0  0  0  0  0  0  0  0  0  0  0  0
   -3.4420    0.4480    0.8770 C   0  0  0  0  0  0  0  0  0  0  0  0
   -4.7410    0.0650    0.3440 C   0  0  0  0  0  0  0  0  0  0  0  0
   -4.5100   -0.9870   -0.4430 C   0  0  0  0  0  0  0  0  0  0  0  0
   -5.4650   -1.6850   -1.1630 O   0  0  0  0  0  0  0  0  0  0  0  0
   -3.0920   -1.3150   -0.4480 C   0  0  0  0  0  0  0  0  0  0  0  0
   -2.4360   -0.4590    0.3430 C   0  0  0  0  0  0  0  0  0  0  0  0
   -1.0930   -0.5030    0.5490 O   0  0  0  0  0  0  0  0  0  0  0  0
   -0.1090    0.0370   -0.3010 C   0  0  0  0  0  0  0  0  0  0  0  0
    1.2590   -0.1940    0.2340 C   0  0  0  0  0  0  0  0  0  0  0  0
    1.3810   -0.8160    1.3340 O   0  0  0  0  0  0  0  0  0  0  0  0
    2.4030    0.2220   -0.3840 O   0  0  0  0  0  0  0  0  0  0  0  0
    3.7070    0.0050    0.1210 C   0  0  2  0  0  0  0  0  0  0  0  0
    4.3140    1.3770    0.3640 C   0  0  0  0  0  0  0  0  0  0  0  0
    4.5630   -0.7960   -0.8300 C   0  0  0  0  0  0  0  0  0  0  0  0
  1  2  2  0
  2  3  1  0
  2  7  1  0
  3  4  2  0
  4  5  1  0
  4  6  1  0
  6  7  2  0
  7  8  1  0
  8  9  1  0
  9 10  1  0
 10 11  2  0
 10 12  1  0
 12 13  1  0
 13 14  1  6
 13 15  1  0
M  END
