
     RDKit          3D

 15 16  0  0  0  0  0  0  0  0999 V2000
    5.4380   -0.2310    0.0790 C   0  0  0  0  0  0  0  0  0  0  0  0
    4.0980   -0.1210    0.5170 O   0  0  0  0  0  0  0  0  0  0  0  0
    3.0070   -0.2350   -0.2950 C   0  0  0  0  0  0  0  0  0  0  0  0
    3.1740   -0.4520   -1.5200 O   0  0  0  0  0  0  0  0  0  0  0  0
    1.6250   -0.1190    0.1790 C   0  0  0  0  0  0  0  0  0  0  0  0
    1.2290    0.1170    1.4790 C   0  0  0  0  0  0  0  0  0  0  0  0
   -0.1490    0.1570    1.5090 C   0  0  0  0  0  0  0  0  0  0  0  0
   -0.5460   -0.0580    0.2170 C   0  0  0  0  0  0  0  0  0  0  0  0
   -1.9580   -0.0980   -0.2170 C   0  0  0  0  0  0  0  0  0  0  0  0
   -2.9060    0.0820    0.6860 C   0  0  0  0  0  0  0  0  0  0  0  0
   -4.3180    0.0440    0.2640 C   0  0  0  0  0  0  0  0  0  0  0  0
   -4.5220   -0.1880   -1.1000 O   0  0  0  0  0  0  0  0  0  0  0  0
   -3.5160   -0.3740   -2.0300 C   0  0  0  0  0  0  0  0  0  0  0  0
   -2.2730   -0.3340   -1.6190 C   0  0  0  0  0  0  0  0  0  0  0  0
    0.5240   -0.2130   -0.5220 O   0  0  0  0  0  0  0  0  0  0  0  0
  1  2  1  0
  2  3  1  0
  3  4  2  0
  3  5  1  0
  5  6  2  0
  5 15  1  0
  6  7  1  0
  7  8  2  0
  8  9  1  0
  8 15  1  0
  9 10  2  0
  9 14  1  0
 10 11  1  0
 11 12  1  0
 12 13  1  0
 13 14  2  0
M  END
