
     RDKit          3D

 15 16  0  0  0  0  0  0  0  0999 V2000
    4.6860    0.9240    0.2400 C   0  0  0  0  0  0  0  0  0  0  0  0
    3.5790   -0.0260    0.0350 C   0  0  0  0  0  0  0  0  0  0  0  0
    3.7070   -1.3620   -0.2500 C   0  0  0  0  0  0  0  0  0  0  0  0
    2.4250   -1.8490   -0.3560 C   0  0  0  0  0  0  0  0  0  0  0  0
    1.5770   -0.7880   -0.1300 C   0  0  0  0  0  0  0  0  0  0  0  0
    0.1000   -0.8710   -0.1500 C   0  0  0  0  0  0  0  0  0  0  0  0
   -0.4440   -1.9740   -0.3870 O   0  0  0  0  0  0  0  0  0  0  0  0
   -0.6930    0.1960    0.0770 O   0  0  0  0  0  0  0  0  0  0  0  0
   -2.0630    0.2900    0.0940 C   0  0  0  0  0  0  0  0  0  0  0  0
   -2.5940    1.4850    0.3490 C   0  0  0  0  0  0  0  0  0  0  0  0
   -4.0480    1.7650    0.4070 C   0  0  0  0  0  0  0  0  0  0  0  0
   -4.8500    0.6620    0.1700 O   0  0  0  0  0  0  0  0  0  0  0  0
   -4.3090   -0.5810   -0.0950 C   0  0  0  0  0  0  0  0  0  0  0  0
   -3.0030   -0.7890   -0.1380 C   0  0  0  0  0  0  0  0  0  0  0  0
    2.2940    0.2790    0.0990 O   0  0  0  0  0  0  0  0  0  0  0  0
  1  2  1  0
  2  3  2  0
  2 15  1  0
  3  4  1  0
  4  5  2  0
  5  6  1  0
  5 15  1  0
  6  7  2  0
  6  8  1  0
  8  9  1  0
  9 10  2  0
  9 14  1  0
 10 11  1  0
 11 12  1  0
 12 13  1  0
 13 14  2  0
M  END
