
     RDKit          3D

 15 16  0  0  0  0  0  0  0  0999 V2000
    0.1560   -2.1980   -1.9420 O   0  0  0  0  0  0  0  0  0  0  0  0
   -0.4310   -1.8710   -0.9020 C   0  0  0  0  0  0  0  0  0  0  0  0
   -1.7700   -2.1240   -0.5290 O   0  0  0  0  0  0  0  0  0  0  0  0
   -1.9840   -1.5730    0.7860 C   0  0  0  0  0  0  0  0  0  0  0  0
   -1.0890   -0.3510    0.6640 C   0  0  2  0  0  0  0  0  0  0  0  0
   -1.6880    0.4910   -0.3890 C   0  0  0  0  0  0  0  0  0  0  0  0
   -3.0850    0.9250   -0.0320 C   0  0  0  0  0  0  0  0  0  0  0  0
   -3.5900    1.7560   -1.0790 O   0  0  0  0  0  0  0  0  0  0  0  0
    0.1310   -1.1170    0.2370 C   0  0  1  0  0  0  0  0  0  0  0  0
    0.3110   -2.0980    1.2540 O   0  0  0  0  0  0  0  0  0  0  0  0
    1.3830   -0.4820    0.0300 C   0  0  1  0  0  0  0  0  0  0  0  0
    1.6500    0.5430   -0.9850 C   0  0  0  0  0  0  0  0  0  0  0  0
    3.1620    0.7840   -0.7550 C   0  0  0  0  0  0  0  0  0  0  0  0
    3.2260    1.4450    0.6340 C   0  0  0  0  0  0  0  0  0  0  0  0
    1.9910    0.4030    1.5220 S   0  0  0  0  0  0  0  0  0  0  0  0
  1  2  2  0
  2  3  1  0
  2  9  1  0
  3  4  1  0
  4  5  1  0
  5  6  1  6
  5  9  1  0
  6  7  1  0
  7  8  1  0
  9 10  1  1
  9 11  1  0
 11 12  1  6
 11 15  1  0
 12 13  1  0
 13 14  1  0
 14 15  1  0
M  END
