
     RDKit          3D

 12 11  0  0  0  0  0  0  0  0999 V2000
   -0.9020    1.1440    1.6330 N   0  0  0  0  0  0  0  0  0  0  0  0
   -1.2030    0.3640    0.5090 C   0  0  0  0  0  0  0  0  0  0  0  0
   -2.4810    0.1420    0.2520 C   0  0  0  0  0  0  0  0  0  0  0  0
   -2.9340   -0.6300   -0.8530 N   0  0  0  0  0  0  0  0  0  0  0  0
   -3.4130   -1.9270   -0.6330 N   0  0  0  0  0  0  0  0  0  0  0  0
   -3.1620   -2.7740   -1.5250 O   0  0  0  0  0  0  0  0  0  0  0  0
   -0.2120   -0.1870   -0.3490 C   0  0  0  0  0  0  0  0  0  0  0  0
    1.0900   -0.1450   -0.3560 C   0  0  0  0  0  0  0  0  0  0  0  0
    1.7580   -0.8530   -1.4260 O   0  0  0  0  0  0  0  0  0  0  0  0
    2.0160    0.4910    0.5240 C   0  0  0  0  0  0  0  0  0  0  0  0
    3.4420    0.4000    0.3170 N   0  0  0  0  0  0  0  0  0  0  0  0
    1.6650    1.1520    1.5090 O   0  0  0  0  0  0  0  0  0  0  0  0
  1  2  1  0
  2  3  2  3
  2  7  1  0
  3  4  1  0
  4  5  1  0
  5  6  2  0
  7  8  2  3
  8  9  1  0
  8 10  1  0
 10 11  1  0
 10 12  2  0
M  CHG  1  11   1
M  END
