
     RDKit          3D

 12 12  0  0  0  0  0  0  0  0999 V2000
   -1.8190    1.9070    0.9890 N   0  0  0  0  0  0  0  0  0  0  0  0
   -0.9150    0.9030    0.5310 C   0  0  0  0  0  0  0  0  0  0  0  0
   -1.3400   -0.3030    0.2330 C   0  0  0  0  0  0  0  0  0  0  0  0
   -2.7930   -0.6640    0.3660 C   0  0  0  0  0  0  0  0  0  0  0  0
   -3.3120   -1.0560   -0.8490 O   0  0  0  0  0  0  0  0  0  0  0  0
   -0.4270   -1.3250   -0.2320 C   0  0  0  0  0  0  0  0  0  0  0  0
    0.8250   -1.0710   -0.3650 N   0  0  0  0  0  0  0  0  0  0  0  0
    1.4090    0.2030   -0.0730 C   0  0  2  0  0  0  0  0  0  0  0  0
    1.9990    0.6620   -1.2730 O   0  0  0  0  0  0  0  0  0  0  0  0
    2.4410   -0.0100    0.8490 O   0  0  0  0  0  0  0  0  0  0  0  0
    3.3300   -0.8430    0.2620 N   0  0  0  0  0  0  0  0  0  0  0  0
    0.4690    1.1790    0.3830 N   0  0  0  0  0  0  0  0  0  0  0  0
  1  2  1  0
  2  3  2  0
  2 12  1  0
  3  4  1  0
  3  6  1  0
  4  5  1  0
  6  7  2  0
  7  8  1  0
  8  9  1  6
  8 10  1  0
  8 12  1  0
 10 11  1  0
M  CHG  1  11   1
M  END
