
     RDKit          3D

 16 17  0  0  0  0  0  0  0  0999 V2000
    2.7340    0.0820   -1.5840 O   0  0  0  0  0  0  0  0  0  0  0  0
    2.0460    0.4380   -0.5680 C   0  0  0  0  0  0  0  0  0  0  0  0
    2.6460    1.0950    0.4900 O   0  0  0  0  0  0  0  0  0  0  0  0
    4.0160    1.3830    0.4790 C   0  0  0  0  0  0  0  0  0  0  0  0
    4.9000    0.1780    0.4080 C   0  0  0  0  0  0  0  0  0  0  0  0
    4.6860   -0.6600    1.5050 O   0  0  0  0  0  0  0  0  0  0  0  0
    0.6590    0.1470   -0.5460 N   0  0  0  0  0  0  0  0  0  0  0  0
   -0.0680   -0.5350   -1.6000 C   0  0  0  0  0  0  0  0  0  0  0  0
   -1.4820   -0.2040   -1.2660 C   0  0  1  0  0  0  0  0  0  0  0  0
   -2.7180   -1.3530   -1.8320 S   0  0  0  0  0  0  0  0  0  0  0  0
   -4.1890   -1.0160   -0.7860 C   0  0  0  0  0  0  0  0  0  0  0  0
   -3.8320   -0.8240    0.6450 C   0  0  0  0  0  0  0  0  0  0  0  0
   -2.7010    0.1280    0.9010 C   0  0  2  0  0  0  0  0  0  0  0  0
   -3.0420    1.4150    0.5530 O   0  0  0  0  0  0  0  0  0  0  0  0
   -1.4230   -0.3380    0.2630 C   0  0  2  0  0  0  0  0  0  0  0  0
   -0.2330    0.4960    0.5440 C   0  0  0  0  0  0  0  0  0  0  0  0
  1  2  2  0
  2  3  1  0
  2  7  1  0
  3  4  1  0
  4  5  1  0
  5  6  1  0
  7  8  1  0
  7 16  1  0
  9  8  1  6
  9 10  1  0
  9 15  1  0
 10 11  1  0
 11 12  1  0
 12 13  1  0
 13 14  1  6
 13 15  1  0
 15 16  1  1
M  END
