
     RDKit          3D

 11 10  0  0  0  0  0  0  0  0999 V2000
   -0.6620   -2.4870    0.3530 C   0  0  0  0  0  0  0  0  0  0  0  0
   -1.0580   -1.2630    0.0510 C   0  0  0  0  0  0  0  0  0  0  0  0
   -2.4810   -1.0600   -0.1700 C   0  0  0  0  0  0  0  0  0  0  0  0
   -3.1040   -0.0210   -0.4620 N   0  0  0  0  0  0  0  0  0  0  0  0
   -2.8140    1.2720   -0.6910 N   0  0  0  0  0  0  0  0  0  0  0  0
   -0.0490   -0.2210   -0.0360 C   0  0  0  0  0  0  0  0  0  0  0  0
    1.1930   -0.5070    0.1800 N   0  0  0  0  0  0  0  0  0  0  0  0
    2.2650    0.4250    0.1230 C   0  0  2  0  0  0  0  0  0  0  0  0
    2.0870    1.6160    0.8880 N   0  0  0  0  0  0  0  0  0  0  0  0
    2.5780    0.8120   -1.1940 O   0  0  0  0  0  0  0  0  0  0  0  0
    3.4230   -0.2350    0.5940 O   0  0  0  0  0  0  0  0  0  0  0  0
  1  2  2  0
  2  3  1  0
  2  6  1  0
  3  4  2  3
  4  5  1  0
  6  7  2  3
  7  8  1  0
  8  9  1  1
  8 10  1  0
  8 11  1  0
M  CHG  1   5   1
M  END
