
     RDKit          3D

 16 16  0  0  0  0  0  0  0  0999 V2000
    0.2590   -1.1770   -2.4570 C   0  0  0  0  0  0  0  0  0  0  0  0
    0.4980    0.0670   -2.1310 C   0  0  0  0  0  0  0  0  0  0  0  0
    1.6260    0.3880   -1.2180 C   0  0  0  0  0  0  0  0  0  0  0  0
    1.0890    0.9650   -0.0830 O   0  0  0  0  0  0  0  0  0  0  0  0
    1.9720    1.0550    0.9690 C   0  0  1  0  0  0  0  0  0  0  0  0
    1.6410    2.1090    1.9000 N   0  0  0  0  0  0  0  0  0  0  0  0
    2.0600   -0.2850    1.6590 C   0  0  2  0  0  0  0  0  0  0  0  0
    3.1230   -1.0020    1.1130 O   0  0  0  0  0  0  0  0  0  0  0  0
    0.8220   -1.1100    1.5000 C   0  0  0  0  0  0  0  0  0  0  0  0
   -0.3530   -0.4030    1.6670 O   0  0  0  0  0  0  0  0  0  0  0  0
   -1.4060   -1.2990    1.4890 C   0  0  0  0  0  0  0  0  0  0  0  0
   -2.4450   -0.6750    0.5700 C   0  0  0  0  0  0  0  0  0  0  0  0
   -1.8100   -0.4170   -0.6420 O   0  0  0  0  0  0  0  0  0  0  0  0
   -2.6590    0.3520   -1.4550 C   0  0  0  0  0  0  0  0  0  0  0  0
   -1.9790    1.6720   -1.7730 C   0  0  0  0  0  0  0  0  0  0  0  0
   -0.4720    1.4460   -2.7290 S   0  0  0  0  0  0  0  0  0  0  0  0
  1  2  2  0
  2  3  1  0
  2 16  1  0
  3  4  1  0
  4  5  1  0
  5  6  1  1
  5  7  1  0
  7  8  1  6
  7  9  1  0
  9 10  1  0
 10 11  1  0
 11 12  1  0
 12 13  1  0
 13 14  1  0
 14 15  1  0
 15 16  1  0
M  END
