
     RDKit          3D

 12 11  0  0  0  0  0  0  0  0999 V2000
    3.8220   -0.7720   -0.5960 N   0  0  0  0  0  0  0  0  0  0  0  0
    2.6460   -0.0360   -0.8870 C   0  0  0  0  0  0  0  0  0  0  0  0
    2.5920    0.8360   -1.9410 O   0  0  0  0  0  0  0  0  0  0  0  0
    1.5890   -0.2010   -0.1210 C   0  0  0  0  0  0  0  0  0  0  0  0
    1.6260   -1.1160    0.9960 N   0  0  0  0  0  0  0  0  0  0  0  0
    0.3710    0.5350   -0.3910 C   0  0  0  0  0  0  0  0  0  0  0  0
   -0.6690    0.3810    0.3510 N   0  0  0  0  0  0  0  0  0  0  0  0
   -1.9030    1.1020    0.1100 C   0  0  2  0  0  0  0  0  0  0  0  0
   -1.9340    2.2250    0.9360 O   0  0  0  0  0  0  0  0  0  0  0  0
   -3.0820    0.2340    0.3460 C   0  0  0  0  0  0  0  0  0  0  0  0
   -3.2420   -0.9630   -0.3940 N   0  0  0  0  0  0  0  0  0  0  0  0
   -3.9100    0.5480    1.1730 O   0  0  0  0  0  0  0  0  0  0  0  0
  1  2  1  0
  2  3  1  0
  2  4  2  3
  4  5  1  0
  4  6  1  0
  6  7  2  3
  7  8  1  0
  8  9  1  1
  8 10  1  0
 10 11  1  0
 10 12  2  0
M  CHG  1  11   1
M  END
