
     RDKit          3D

 29 30  0  0  0  0  0  0  0  0999 V2000
    8.3150    0.9330    0.1860 C   0  0  0  0  0  0  0  0  0  0  0  0
    7.0640    0.7450   -0.6900 C   0  0  0  0  0  0  0  0  0  0  0  0
    6.3770   -0.4900   -0.3070 C   0  0  0  0  0  0  0  0  0  0  0  0
    5.1540   -0.5550    0.1020 C   0  0  0  0  0  0  0  0  0  0  0  0
    4.2390    0.6300    0.2480 C   0  0  0  0  0  0  0  0  0  0  0  0
    2.9250    0.1700   -0.2880 C   0  0  0  0  0  0  0  0  0  0  0  0
    2.3940    0.7830   -1.2330 O   0  0  0  0  0  0  0  0  0  0  0  0
    2.2460   -1.0020    0.2670 C   0  0  0  0  0  0  0  0  0  0  0  0
    0.8660   -1.2640    0.3770 C   0  0  0  0  0  0  0  0  0  0  0  0
   -0.2740   -0.7280    0.3100 C   0  0  0  0  0  0  0  0  0  0  0  0
   -0.8670    0.5480    0.0890 C   0  0  0  0  0  0  0  0  0  0  0  0
   -2.1830    0.6530   -0.0830 C   0  0  0  0  0  0  0  0  0  0  0  0
   -3.1120   -0.4470   -0.0760 C   0  0  0  0  0  0  0  0  0  0  0  0
   -3.0420   -1.8950   -0.0630 C   0  0  0  0  0  0  0  0  0  0  0  0
   -4.3930   -0.0230   -0.1880 N   0  0  0  0  0  0  0  0  0  0  0  0
   -5.4790   -0.8950   -0.2050 C   0  0  0  0  0  0  0  0  0  0  0  0
   -6.0430   -1.3120   -1.2550 O   0  0  0  0  0  0  0  0  0  0  0  0
   -6.0210   -1.3740    1.1010 C   0  0  0  0  0  0  0  0  0  0  0  0
   -7.1870   -2.3040    0.8900 C   0  0  0  0  0  0  0  0  0  0  0  0
   -2.6880    2.0370   -0.4080 C   0  0  1  0  0  0  0  0  0  0  0  0
   -4.4270    2.1590   -0.6930 S   0  0  0  0  0  0  0  0  0  0  0  0
   -4.8240    3.8900   -1.0640 C   0  0  0  0  0  0  0  0  0  0  0  0
   -2.1420    2.9990    0.5910 C   0  0  0  0  0  0  0  0  0  0  0  0
   -0.6800    3.0170    0.3180 C   0  0  0  0  0  0  0  0  0  0  0  0
   -0.0890    4.0780    0.1280 O   0  0  0  0  0  0  0  0  0  0  0  0
   -0.0610    1.7370    0.2990 N   0  0  0  0  0  0  0  0  0  0  0  0
    3.1370   -2.0080    0.5670 C   0  0  0  0  0  0  0  0  0  0  0  0
    2.6550   -3.2850    1.1250 C   0  0  0  0  0  0  0  0  0  0  0  0
    4.5260   -1.7950    0.4840 N   0  0  0  0  0  0  0  0  0  0  0  0
  1  2  1  0
  2  3  1  0
  3  4  2  3
  4  5  1  0
  4 29  1  0
  5  6  1  0
  6  7  2  0
  6  8  1  0
  8  9  1  0
  8 27  2  0
  9 10  2  3
 10 11  1  0
 11 12  2  0
 11 26  1  0
 12 13  1  0
 12 20  1  0
 13 14  1  0
 13 15  2  3
 15 16  1  0
 16 17  2  0
 16 18  1  0
 18 19  1  0
 20 21  1  1
 20 23  1  0
 21 22  1  0
 23 24  1  0
 24 25  2  0
 24 26  1  0
 27 28  1  0
 27 29  1  0
M  END
