
     RDKit          3D

 31 35  0  0  0  0  0  0  0  0999 V2000
    8.7740   -0.5310    0.0070 C   0  0  0  0  0  0  0  0  0  0  0  0
    7.9430   -1.1650    1.0880 C   0  0  0  0  0  0  0  0  0  0  0  0
    6.6230   -1.4590    0.5410 N   0  0  0  0  0  0  0  0  0  0  0  0
    6.2030   -2.5500   -0.0580 N   0  0  0  0  0  0  0  0  0  0  0  0
    4.9230   -2.4340   -0.4170 N   0  0  0  0  0  0  0  0  0  0  0  0
    4.4790   -1.2220   -0.0400 C   0  0  0  0  0  0  0  0  0  0  0  0
    3.2620   -0.5470   -0.1390 C   0  0  0  0  0  0  0  0  0  0  0  0
    3.1240    0.7210    0.3590 C   0  0  0  0  0  0  0  0  0  0  0  0
    1.8410    1.4710    0.2800 C   0  0  0  0  0  0  0  0  0  0  0  0
    1.8490    2.7130    0.4570 O   0  0  0  0  0  0  0  0  0  0  0  0
    0.6400    0.7950    0.0100 N   0  0  0  0  0  0  0  0  0  0  0  0
   -0.6440    1.3820   -0.0930 C   0  0  0  0  0  0  0  0  0  0  0  0
   -0.8810    2.7050    0.0590 C   0  0  0  0  0  0  0  0  0  0  0  0
   -2.2010    3.1720   -0.0670 C   0  0  0  0  0  0  0  0  0  0  0  0
   -3.1740    2.2710   -0.3340 C   0  0  0  0  0  0  0  0  0  0  0  0
   -2.9160    0.9140   -0.4880 C   0  0  0  0  0  0  0  0  0  0  0  0
   -4.0320    0.0190   -0.7750 C   0  0  0  0  0  0  0  0  0  0  0  0
   -4.3910   -0.2400   -2.0740 C   0  0  0  0  0  0  0  0  0  0  0  0
   -3.6240    0.4060   -3.1600 C   0  0  0  0  0  0  0  0  0  0  0  0
   -5.4560   -1.0930   -2.3860 C   0  0  0  0  0  0  0  0  0  0  0  0
   -6.1740   -1.6970   -1.3790 C   0  0  0  0  0  0  0  0  0  0  0  0
   -5.8190   -1.4410   -0.0770 C   0  0  0  0  0  0  0  0  0  0  0  0
   -4.7620   -0.5940    0.2230 C   0  0  0  0  0  0  0  0  0  0  0  0
   -4.4470   -0.3720    1.5610 O   0  0  0  0  0  0  0  0  0  0  0  0
   -5.4540   -0.6550    2.5460 C   0  0  0  0  0  0  0  0  0  0  0  0
   -6.0910   -1.9830    2.2810 C   0  0  0  0  0  0  0  0  0  0  0  0
   -6.5350   -2.0430    0.9360 O   0  0  0  0  0  0  0  0  0  0  0  0
   -1.6680    0.5120   -0.3640 N   0  0  0  0  0  0  0  0  0  0  0  0
    4.2070    1.3580    0.9760 C   0  0  0  0  0  0  0  0  0  0  0  0
    5.3910    0.6650    1.0570 C   0  0  0  0  0  0  0  0  0  0  0  0
    5.5540   -0.6110    0.5640 C   0  0  0  0  0  0  0  0  0  0  0  0
  1  2  1  0
  2  3  1  0
  3  4  1  0
  3 31  1  0
  4  5  2  0
  5  6  1  0
  6  7  2  0
  6 31  1  0
  7  8  1  0
  8  9  1  0
  8 29  2  0
  9 10  2  0
  9 11  1  0
 11 12  1  0
 12 13  2  0
 12 28  1  0
 13 14  1  0
 14 15  2  0
 15 16  1  0
 16 17  1  0
 16 28  2  0
 17 18  2  0
 17 23  1  0
 18 19  1  0
 18 20  1  0
 20 21  2  0
 21 22  1  0
 22 23  2  0
 22 27  1  0
 23 24  1  0
 24 25  1  0
 25 26  1  0
 26 27  1  0
 29 30  1  0
 30 31  2  0
M  END
