
     RDKit          3D

 29 30  0  0  0  0  0  0  0  0999 V2000
   -2.1080    5.8120    0.8850 N   0  0  0  0  0  0  0  0  0  0  0  0
   -2.1590    4.9220   -0.2680 C   0  0  0  0  0  0  0  0  0  0  0  0
   -2.4290    3.4900    0.1960 C   0  0  0  0  0  0  0  0  0  0  0  0
   -2.4790    2.5870   -0.9950 C   0  0  0  0  0  0  0  0  0  0  0  0
   -2.7270    1.1520   -0.6700 C   0  0  0  0  0  0  0  0  0  0  0  0
   -1.6350    0.5160    0.1890 C   0  0  2  0  0  0  0  0  0  0  0  0
   -0.3490    0.5330   -0.4830 N   0  0  0  0  0  0  0  0  0  0  0  0
    0.6390    1.3680    0.1750 C   0  0  1  0  0  0  0  0  0  0  0  0
    1.7860    0.5210    0.7520 C   0  0  0  0  0  0  0  0  0  0  0  0
    2.5140   -0.2420   -0.2860 C   0  0  0  0  0  0  0  0  0  0  0  0
    3.6250   -1.0640    0.2240 C   0  0  0  0  0  0  0  0  0  0  0  0
    3.3470   -2.3610    0.6030 C   0  0  0  0  0  0  0  0  0  0  0  0
    4.3280   -3.2000    1.0910 C   0  0  0  0  0  0  0  0  0  0  0  0
    5.6250   -2.7460    1.2100 C   0  0  0  0  0  0  0  0  0  0  0  0
    5.8830   -1.4460    0.8270 C   0  0  0  0  0  0  0  0  0  0  0  0
    4.9190   -0.5930    0.3370 C   0  0  0  0  0  0  0  0  0  0  0  0
    1.3010    2.1830   -0.9030 C   0  0  0  0  0  0  0  0  0  0  0  0
    1.0550    2.0540   -2.1220 O   0  0  0  0  0  0  0  0  0  0  0  0
    2.2390    3.1320   -0.5230 O   0  0  0  0  0  0  0  0  0  0  0  0
   -2.0980   -0.8640    0.5270 C   0  0  0  0  0  0  0  0  0  0  0  0
   -2.6080   -1.0220    1.6950 O   0  0  0  0  0  0  0  0  0  0  0  0
   -2.0240   -1.9900   -0.3190 N   0  0  0  0  0  0  0  0  0  0  0  0
   -1.6040   -2.1910   -1.6690 C   0  0  0  0  0  0  0  0  0  0  0  0
   -0.8450   -3.5250   -1.5380 C   0  0  0  0  0  0  0  0  0  0  0  0
   -1.9580   -4.3280   -0.8520 C   0  0  0  0  0  0  0  0  0  0  0  0
   -2.4290   -3.3260    0.1690 C   0  0  1  0  0  0  0  0  0  0  0  0
   -1.7230   -3.6600    1.4320 C   0  0  0  0  0  0  0  0  0  0  0  0
   -2.0100   -4.7380    1.9990 O   0  0  0  0  0  0  0  0  0  0  0  0
   -0.7720   -2.8380    1.9990 O   0  0  0  0  0  0  0  0  0  0  0  0
  1  2  1  0
  2  3  1  0
  3  4  1  0
  4  5  1  0
  6  5  1  6
  6  7  1  0
  6 20  1  0
  7  8  1  0
  8  9  1  6
  8 17  1  0
  9 10  1  0
 10 11  1  0
 11 12  2  0
 11 16  1  0
 12 13  1  0
 13 14  2  0
 14 15  1  0
 15 16  2  0
 17 18  2  0
 17 19  1  0
 20 21  2  0
 20 22  1  0
 22 23  1  0
 22 26  1  0
 23 24  1  0
 24 25  1  0
 25 26  1  0
 26 27  1  1
 27 28  2  0
 27 29  1  0
M  CHG  2   1   1   7   1
M  END
