
     RDKit          3D

 29 31  0  0  0  0  0  0  0  0999 V2000
    9.6030    1.2440    0.5520 C   0  0  0  0  0  0  0  0  0  0  0  0
    8.1210    1.3030    0.8230 C   0  0  0  0  0  0  0  0  0  0  0  0
    7.7040    2.0070    1.7630 O   0  0  0  0  0  0  0  0  0  0  0  0
    7.1990    0.5790    0.0360 N   0  0  0  0  0  0  0  0  0  0  0  0
    5.8020    0.5310    0.1570 C   0  0  0  0  0  0  0  0  0  0  0  0
    5.1100   -0.3580   -0.6390 C   0  0  0  0  0  0  0  0  0  0  0  0
    3.7070   -0.4520   -0.5740 C   0  0  0  0  0  0  0  0  0  0  0  0
    2.9850    0.3250    0.2690 C   0  0  0  0  0  0  0  0  0  0  0  0
    1.6080    0.2770    0.3930 N   0  0  0  0  0  0  0  0  0  0  0  0
    0.7890   -0.7180   -0.1800 C   0  0  0  0  0  0  0  0  0  0  0  0
    1.2440   -1.6480   -0.8480 O   0  0  0  0  0  0  0  0  0  0  0  0
   -0.7140   -0.6540    0.0270 C   0  0  0  0  0  0  0  0  0  0  0  0
   -1.3580   -1.9780   -0.0760 C   0  0  0  0  0  0  0  0  0  0  0  0
   -0.6060   -3.0280    0.1090 C   0  0  0  0  0  0  0  0  0  0  0  0
   -1.1950   -4.6970    0.0150 S   0  0  0  0  0  0  0  0  0  0  0  0
   -2.9200   -4.5860   -0.3730 C   0  0  0  0  0  0  0  0  0  0  0  0
   -3.4550   -3.4030   -0.5120 C   0  0  0  0  0  0  0  0  0  0  0  0
   -2.7910   -2.0840   -0.3870 C   0  0  0  0  0  0  0  0  0  0  0  0
   -3.6070   -1.0720   -0.5180 C   0  0  0  0  0  0  0  0  0  0  0  0
   -3.4370    0.3620   -0.4130 C   0  0  1  0  0  0  0  0  0  0  0  0
   -3.3980    0.9830   -1.8010 C   0  0  0  0  0  0  0  0  0  0  0  0
   -4.5430    1.9420   -1.9210 C   0  0  0  0  0  0  0  0  0  0  0  0
   -4.7810    2.2700   -0.4430 C   0  0  0  0  0  0  0  0  0  0  0  0
   -4.7040    0.9640    0.1240 N   0  0  0  0  0  0  0  0  0  0  0  0
   -5.5930    0.3360    0.9970 C   0  0  0  0  0  0  0  0  0  0  0  0
   -6.8200    0.9820    1.4880 C   0  0  0  0  0  0  0  0  0  0  0  0
   -5.3570   -0.8340    1.3980 O   0  0  0  0  0  0  0  0  0  0  0  0
    3.6790    1.2140    1.0630 C   0  0  0  0  0  0  0  0  0  0  0  0
    5.0760    1.3220    1.0130 C   0  0  0  0  0  0  0  0  0  0  0  0
  1  2  1  0
  2  3  2  0
  2  4  1  0
  4  5  1  0
  5  6  2  0
  5 29  1  0
  6  7  1  0
  7  8  2  0
  8  9  1  0
  8 28  1  0
  9 10  1  0
 10 11  2  0
 10 12  1  0
 12 13  1  0
 13 14  2  0
 13 18  1  0
 14 15  1  0
 15 16  1  0
 16 17  2  0
 17 18  1  0
 18 19  2  3
 20 19  1  6
 20 21  1  0
 20 24  1  0
 21 22  1  0
 22 23  1  0
 23 24  1  0
 24 25  1  0
 25 26  1  0
 25 27  2  0
 28 29  2  0
M  END
