
     RDKit          3D

 28 30  0  0  0  0  0  0  0  0999 V2000
   -6.8690    0.9960   -0.5540 C   0  0  0  0  0  0  0  0  0  0  0  0
   -5.4890    0.8310   -0.0220 C   0  0  0  0  0  0  0  0  0  0  0  0
   -5.3440    0.2590    1.3090 C   0  0  0  0  0  0  0  0  0  0  0  0
   -4.1890    0.1070    1.7670 O   0  0  0  0  0  0  0  0  0  0  0  0
   -4.4490    1.1910   -0.7520 C   0  0  0  0  0  0  0  0  0  0  0  0
   -3.0880    1.0150   -0.1960 N   0  0  0  0  0  0  0  0  0  0  0  0
   -2.3100    0.0060   -0.3560 C   0  0  0  0  0  0  0  0  0  0  0  0
   -2.6410   -1.2150   -1.2020 C   0  0  2  0  0  0  0  0  0  0  0  0
   -3.7500   -1.0060   -2.1780 C   0  0  0  0  0  0  0  0  0  0  0  0
   -2.9960   -2.3780   -0.2900 C   0  0  0  0  0  0  0  0  0  0  0  0
   -1.0670   -0.0120    0.2890 C   0  0  0  0  0  0  0  0  0  0  0  0
   -0.0130   -0.9770    0.2810 C   0  0  0  0  0  0  0  0  0  0  0  0
   -0.1710   -2.0260   -0.4490 O   0  0  0  0  0  0  0  0  0  0  0  0
    1.2040   -0.9420    0.9730 N   0  0  0  0  0  0  0  0  0  0  0  0
    2.1800   -2.0340    0.8120 C   0  0  0  0  0  0  0  0  0  0  0  0
    3.5750   -1.5650    0.6240 C   0  0  0  0  0  0  0  0  0  0  0  0
    3.9160   -0.3040    1.3360 C   0  0  1  0  0  0  0  0  0  0  0  0
    3.9830   -0.6160    2.7150 O   0  0  0  0  0  0  0  0  0  0  0  0
    5.1950    0.3210    0.9470 C   0  0  0  0  0  0  0  0  0  0  0  0
    5.5820    0.2350   -0.4810 C   0  0  0  0  0  0  0  0  0  0  0  0
    4.7740    1.0540   -1.4170 C   0  0  0  0  0  0  0  0  0  0  0  0
    3.6180    1.7850   -0.8290 C   0  0  0  0  0  0  0  0  0  0  0  0
    2.5450    0.9220   -0.2470 C   0  0  0  0  0  0  0  0  0  0  0  0
    2.8160    0.7470    1.2240 C   0  0  1  0  0  0  0  0  0  0  0  0
    1.5910    0.1040    1.8690 C   0  0  0  0  0  0  0  0  0  0  0  0
   -1.0770    1.5390    1.1560 S   0  0  0  0  0  0  0  0  0  0  0  0
   -2.6520    2.0670    0.6240 C   0  0  0  0  0  0  0  0  0  0  0  0
   -3.2840    3.1480    0.8980 N   0  0  0  0  0  0  0  0  0  0  0  0
  1  2  1  0
  2  3  1  0
  2  5  2  3
  3  4  2  0
  5  6  1  0
  6  7  1  0
  6 27  1  0
  7  8  1  0
  7 11  2  0
  8  9  1  6
  8 10  1  0
 11 12  1  0
 11 26  1  0
 12 13  2  0
 12 14  1  0
 14 15  1  0
 14 25  1  0
 15 16  1  0
 16 17  1  0
 17 18  1  1
 17 19  1  0
 17 24  1  0
 19 20  1  0
 20 21  1  0
 21 22  1  0
 22 23  1  0
 24 23  1  6
 24 25  1  0
 26 27  1  0
 27 28  2  0
M  END
