
     RDKit          3D

 36 39  0  0  0  0  0  0  0  0999 V2000
   -6.2790   -1.7320   -2.2670 C   0  0  0  0  0  0  0  0  0  0  0  0
   -5.9250   -0.6530   -1.2690 C   0  0  0  0  0  0  0  0  0  0  0  0
   -4.7610    0.1380   -1.8790 C   0  0  0  0  0  0  0  0  0  0  0  0
   -4.4050    1.1980   -0.9120 C   0  0  0  0  0  0  0  0  0  0  0  0
   -5.2100    2.3540   -0.8540 C   0  0  0  0  0  0  0  0  0  0  0  0
   -6.6180    2.7210   -1.8170 Cl  0  0  0  0  0  0  0  0  0  0  0  0
   -4.6510    3.1300    0.1220 C   0  0  0  0  0  0  0  0  0  0  0  0
   -4.9960    4.3790    0.6320 C   0  0  0  0  0  0  0  0  0  0  0  0
   -4.2970    4.9700    1.6090 N   0  0  0  0  0  0  0  0  0  0  0  0
   -3.2330    4.3640    2.1260 C   0  0  0  0  0  0  0  0  0  0  0  0
   -2.2740    5.0890    3.4110 Cl  0  0  0  0  0  0  0  0  0  0  0  0
   -2.8260    3.1120    1.6670 C   0  0  0  0  0  0  0  0  0  0  0  0
   -3.5520    2.4950    0.6510 C   0  0  0  0  0  0  0  0  0  0  0  0
   -3.4260    1.3040   -0.0080 N   0  0  0  0  0  0  0  0  0  0  0  0
   -2.4140    0.3670    0.2840 C   0  0  0  0  0  0  0  0  0  0  0  0
   -1.5850    0.6610    1.2140 O   0  0  0  0  0  0  0  0  0  0  0  0
   -2.2700   -0.9190   -0.4240 C   0  0  0  0  0  0  0  0  0  0  0  0
   -1.1950   -1.6930    0.3170 N   0  0  0  0  0  0  0  0  0  0  0  0
    0.1160   -1.5030   -0.1450 C   0  0  0  0  0  0  0  0  0  0  0  0
    0.3120   -0.7440   -1.1820 O   0  0  0  0  0  0  0  0  0  0  0  0
    1.3190   -2.0820    0.4310 C   0  0  0  0  0  0  0  0  0  0  0  0
    2.6220   -1.6070   -0.2310 C   0  0  0  0  0  0  0  0  0  0  0  0
    2.8460   -0.1540   -0.0560 C   0  0  0  0  0  0  0  0  0  0  0  0
    4.0800    0.3040   -0.6810 N   0  0  0  0  0  0  0  0  0  0  0  0
    5.2460    0.3540   -0.0220 C   0  0  0  0  0  0  0  0  0  0  0  0
    5.2680   -0.0590    1.4100 C   0  0  0  0  0  0  0  0  0  0  0  0
    6.7090    0.1060    1.9180 C   0  0  0  0  0  0  0  0  0  0  0  0
    6.3920    0.7790   -0.6360 N   0  0  0  0  0  0  0  0  0  0  0  0
    6.4210    1.1680   -1.9200 C   0  0  0  0  0  0  0  0  0  0  0  0
    7.6890    1.6280   -2.5720 C   0  0  0  0  0  0  0  0  0  0  0  0
    5.2280    1.1220   -2.6100 C   0  0  0  0  0  0  0  0  0  0  0  0
    4.0820    0.6900   -1.9730 C   0  0  0  0  0  0  0  0  0  0  0  0
    2.9700    0.6420   -2.5980 O   0  0  0  0  0  0  0  0  0  0  0  0
   -1.6920   -2.5300    1.3580 C   0  0  1  0  0  0  0  0  0  0  0  0
   -1.4000   -4.0290    1.1510 C   0  0  0  0  0  0  0  0  0  0  0  0
   -0.9570   -3.2780    2.3620 C   0  0  0  0  0  0  0  0  0  0  0  0
  1  2  1  0
  2  3  1  0
  3  4  1  0
  4  5  2  0
  4 14  1  0
  5  6  1  0
  5  7  1  0
  7  8  2  0
  7 13  1  0
  8  9  1  0
  9 10  2  0
 10 11  1  0
 10 12  1  0
 12 13  2  0
 13 14  1  0
 14 15  1  0
 15 16  2  0
 15 17  1  0
 17 18  1  0
 18 19  1  0
 34 18  1  6
 19 20  2  0
 19 21  1  0
 21 22  1  0
 22 23  1  0
 23 24  1  0
 24 25  1  0
 24 32  1  0
 25 26  1  0
 25 28  2  0
 26 27  1  0
 28 29  1  0
 29 30  1  0
 29 31  2  0
 31 32  1  0
 32 33  2  0
 34 35  1  0
 34 36  1  0
 35 36  1  0
M  END
