
     RDKit          3D

 36 39  0  0  0  0  0  0  0  0999 V2000
   -6.5490    0.4960    2.2550 C   0  0  0  0  0  0  0  0  0  0  0  0
   -6.3890    0.4020    0.7760 C   0  0  1  0  0  0  0  0  0  0  0  0
   -6.8300    1.6110    0.0230 C   0  0  0  0  0  0  0  0  0  0  0  0
   -5.0070   -0.0320    0.3970 C   0  0  0  0  0  0  0  0  0  0  0  0
   -4.5460   -1.1010   -0.2250 N   0  0  0  0  0  0  0  0  0  0  0  0
   -3.2270   -1.0500   -0.4240 N   0  0  0  0  0  0  0  0  0  0  0  0
   -2.4120   -2.0320   -1.0900 C   0  0  2  0  0  0  0  0  0  0  0  0
   -2.1300   -1.7160   -2.5520 C   0  0  0  0  0  0  0  0  0  0  0  0
   -2.9620   -3.4270   -0.8660 C   0  0  0  0  0  0  0  0  0  0  0  0
   -2.7480    0.0840    0.0490 C   0  0  0  0  0  0  0  0  0  0  0  0
   -1.6050    0.7450   -0.0420 N   0  0  0  0  0  0  0  0  0  0  0  0
   -0.4640    1.2420   -0.6980 C   0  0  0  0  0  0  0  0  0  0  0  0
    0.7700    1.0150   -0.4310 C   0  0  0  0  0  0  0  0  0  0  0  0
    1.5280    0.2560    0.5350 C   0  0  0  0  0  0  0  0  0  0  0  0
    2.8970   -0.1220   -0.0610 N   0  0  0  0  0  0  0  0  0  0  0  0
    3.4790   -0.7540    1.0880 C   0  0  0  0  0  0  0  0  0  0  0  0
    4.4430   -1.8230    0.9380 C   0  0  0  0  0  0  0  0  0  0  0  0
    5.4660   -1.9470    1.8870 C   0  0  0  0  0  0  0  0  0  0  0  0
    6.2990   -3.0160    2.0090 C   0  0  0  0  0  0  0  0  0  0  0  0
    6.1720   -4.0350    1.1730 C   0  0  0  0  0  0  0  0  0  0  0  0
    5.1740   -4.0030    0.1770 C   0  0  0  0  0  0  0  0  0  0  0  0
    4.4000   -2.9140    0.1500 C   0  0  0  0  0  0  0  0  0  0  0  0
    3.4450    1.2640   -0.1380 O   0  0  0  0  0  0  0  0  0  0  0  0
    2.8700    2.1520   -1.0010 C   0  0  0  0  0  0  0  0  0  0  0  0
    3.4910    3.1850   -1.7780 C   0  0  0  0  0  0  0  0  0  0  0  0
    4.5770    3.8080   -1.6650 C   0  0  0  0  0  0  0  0  0  0  0  0
    5.1950    5.0140   -2.7020 Cl  0  0  0  0  0  0  0  0  0  0  0  0
    5.3610    3.6700   -0.2810 C   0  0  0  0  0  0  0  0  0  0  0  0
    5.2760    5.4000    0.3370 Cl  0  0  0  0  0  0  0  0  0  0  0  0
    1.5610    2.0030   -1.1580 C   0  0  0  0  0  0  0  0  0  0  0  0
    0.6800    2.7520   -1.9030 O   0  0  0  0  0  0  0  0  0  0  0  0
   -0.6240    2.3200   -1.6420 C   0  0  0  0  0  0  0  0  0  0  0  0
   -1.6420    2.8330   -2.1630 O   0  0  0  0  0  0  0  0  0  0  0  0
   -3.8980    0.7890    0.5790 C   0  0  0  0  0  0  0  0  0  0  0  0
   -3.8260    2.0870    1.1960 C   0  0  0  0  0  0  0  0  0  0  0  0
   -3.7740    3.2060    1.7060 N   0  0  0  0  0  0  0  0  0  0  0  0
  2  1  1  1
  2  3  1  0
  2  4  1  0
  4  5  2  0
  4 34  1  0
  5  6  1  0
  6  7  1  0
  6 10  1  0
  7  8  1  6
  7  9  1  0
 10 11  1  0
 10 34  2  0
 11 12  1  0
 12 13  2  0
 12 32  1  0
 13 14  1  0
 13 30  1  0
 14 15  1  0
 15 16  1  0
 15 23  1  0
 16 17  1  0
 17 18  2  0
 17 22  1  0
 18 19  1  0
 19 20  2  0
 20 21  1  0
 21 22  2  0
 23 24  1  0
 24 25  1  0
 24 30  2  0
 25 26  2  3
 26 27  1  0
 26 28  1  0
 28 29  1  0
 30 31  1  0
 31 32  1  0
 32 33  2  0
 34 35  1  0
 35 36  3  0
M  END
