
     RDKit          3D

 36 39  0  0  0  0  0  0  0  0999 V2000
   -1.3420   -3.4820    0.2870 C   0  0  0  0  0  0  0  0  0  0  0  0
   -2.3940   -2.7470    0.0140 C   0  0  0  0  0  0  0  0  0  0  0  0
   -2.5520   -1.3910    0.6160 C   0  0  0  0  0  0  0  0  0  0  0  0
   -2.6310   -0.3560   -0.4630 C   0  0  0  0  0  0  0  0  0  0  0  0
   -2.8040    0.9690    0.0690 N   0  0  0  0  0  0  0  0  0  0  0  0
   -1.6420    1.7310    0.3940 C   0  0  0  0  0  0  0  0  0  0  0  0
   -1.7300    2.9060    0.9010 O   0  0  0  0  0  0  0  0  0  0  0  0
   -0.2970    1.1790    0.1480 C   0  0  0  0  0  0  0  0  0  0  0  0
    0.7830    2.2050    0.4890 C   0  0  0  0  0  0  0  0  0  0  0  0
    2.0550    1.5680    0.2130 N   0  0  0  0  0  0  0  0  0  0  0  0
    2.7420    0.8550    1.1240 C   0  0  0  0  0  0  0  0  0  0  0  0
    2.2620    0.7220    2.2980 O   0  0  0  0  0  0  0  0  0  0  0  0
    3.9150    0.3000    0.7790 N   0  0  0  0  0  0  0  0  0  0  0  0
    4.4770    0.3980   -0.4270 C   0  0  0  0  0  0  0  0  0  0  0  0
    3.7850    1.1310   -1.3850 C   0  0  0  0  0  0  0  0  0  0  0  0
    4.5450    1.0910   -2.5230 C   0  0  0  0  0  0  0  0  0  0  0  0
    5.6430    0.3640   -2.2520 N   0  0  0  0  0  0  0  0  0  0  0  0
    5.6120   -0.0580   -0.9920 N   0  0  0  0  0  0  0  0  0  0  0  0
    6.6130   -0.8620   -0.3380 C   0  0  0  0  0  0  0  0  0  0  0  0
    7.0960   -1.9930   -0.9630 C   0  0  0  0  0  0  0  0  0  0  0  0
    8.0520   -2.8120   -0.4020 C   0  0  0  0  0  0  0  0  0  0  0  0
    8.5470   -2.4820    0.8450 C   0  0  0  0  0  0  0  0  0  0  0  0
    8.0640   -1.3510    1.4700 C   0  0  0  0  0  0  0  0  0  0  0  0
    7.1140   -0.5480    0.9000 C   0  0  0  0  0  0  0  0  0  0  0  0
    2.5780    1.6970   -1.0180 C   0  0  0  0  0  0  0  0  0  0  0  0
    1.9810    2.3550   -1.9160 O   0  0  0  0  0  0  0  0  0  0  0  0
   -4.0730    1.6170    0.3020 C   0  0  1  0  0  0  0  0  0  0  0  0
   -4.7480    2.0680   -0.9670 C   0  0  0  0  0  0  0  0  0  0  0  0
   -5.5820    1.1250   -1.7160 C   0  0  0  0  0  0  0  0  0  0  0  0
   -6.5680    0.3470   -0.8740 C   0  0  0  0  0  0  0  0  0  0  0  0
   -5.9090   -0.0960    0.3960 C   0  0  0  0  0  0  0  0  0  0  0  0
   -6.1940   -1.2750    0.8370 C   0  0  0  0  0  0  0  0  0  0  0  0
   -4.9830    0.7970    1.0930 C   0  0  0  0  0  0  0  0  0  0  0  0
   -5.0300    0.8370    2.4290 C   0  0  0  0  0  0  0  0  0  0  0  0
   -6.0740   -0.0930    3.4370 Cl  0  0  0  0  0  0  0  0  0  0  0  0
   -3.9010    1.9650    3.2040 Cl  0  0  0  0  0  0  0  0  0  0  0  0
  1  2  2  0
  2  3  1  0
  3  4  1  0
  4  5  1  0
  5  6  1  0
 27  5  1  6
  6  7  2  0
  6  8  1  0
  8  9  1  0
  9 10  1  0
 10 11  1  0
 10 25  1  0
 11 12  2  0
 11 13  1  0
 13 14  1  0
 14 15  2  0
 14 18  1  0
 15 16  1  0
 15 25  1  0
 16 17  2  0
 17 18  1  0
 18 19  1  0
 19 20  2  0
 19 24  1  0
 20 21  1  0
 21 22  2  0
 22 23  1  0
 23 24  2  0
 25 26  2  0
 27 28  1  0
 27 33  1  0
 28 29  1  0
 29 30  1  0
 30 31  1  0
 31 32  2  0
 31 33  1  0
 33 34  2  3
 34 35  1  0
 34 36  1  0
M  END
