
     RDKit          3D

 36 39  0  0  0  0  0  0  0  0999 V2000
   -6.2310   -3.6410   -0.5940 C   0  0  0  0  0  0  0  0  0  0  0  0
   -6.2910   -2.3420   -0.2610 C   0  0  0  0  0  0  0  0  0  0  0  0
   -5.0560   -1.6110   -0.0300 C   0  0  0  0  0  0  0  0  0  0  0  0
   -5.0490   -0.3490    0.2940 C   0  0  0  0  0  0  0  0  0  0  0  0
   -3.7520    0.3000    0.5050 N   0  0  0  0  0  0  0  0  0  0  0  0
   -3.2490    0.1470    1.8220 C   0  0  0  0  0  0  0  0  0  0  0  0
   -3.2290    0.9370   -0.6000 C   0  0  0  0  0  0  0  0  0  0  0  0
   -2.1030    1.7660   -0.7900 C   0  0  0  0  0  0  0  0  0  0  0  0
   -2.0450    2.1260   -2.1170 O   0  0  0  0  0  0  0  0  0  0  0  0
   -1.0270    2.3620   -0.1370 N   0  0  0  0  0  0  0  0  0  0  0  0
   -0.1570    3.2170   -0.9210 C   0  0  0  0  0  0  0  0  0  0  0  0
    0.9560    2.7550   -1.6690 C   0  0  0  0  0  0  0  0  0  0  0  0
    1.5680    3.7850   -2.2890 O   0  0  0  0  0  0  0  0  0  0  0  0
    1.5940    1.5490   -1.9510 N   0  0  0  0  0  0  0  0  0  0  0  0
    1.2190    0.2870   -1.4120 C   0  0  0  0  0  0  0  0  0  0  0  0
    2.7220    1.5020   -2.9170 C   0  0  0  0  0  0  0  0  0  0  0  0
    4.0500    1.7480   -2.3090 C   0  0  0  0  0  0  0  0  0  0  0  0
    4.4820    0.8080   -1.2650 C   0  0  0  0  0  0  0  0  0  0  0  0
    5.1500   -0.3610   -1.3850 N   0  0  0  0  0  0  0  0  0  0  0  0
    5.3430   -0.9010   -0.1730 C   0  0  0  0  0  0  0  0  0  0  0  0
    5.9970   -2.1290    0.2220 C   0  0  0  0  0  0  0  0  0  0  0  0
    6.1480   -2.6180    1.4380 C   0  0  0  0  0  0  0  0  0  0  0  0
    6.8720   -3.8910    1.3940 C   0  0  0  0  0  0  0  0  0  0  0  0
    7.1370   -4.1000   -0.0390 C   0  0  0  0  0  0  0  0  0  0  0  0
    6.6210   -3.0710   -0.6860 C   0  0  0  0  0  0  0  0  0  0  0  0
    6.7260   -2.9350   -2.4440 Cl  0  0  0  0  0  0  0  0  0  0  0  0
    4.7750   -0.0310    0.7010 N   0  0  0  0  0  0  0  0  0  0  0  0
    4.2880    0.9450    0.0210 O   0  0  0  0  0  0  0  0  0  0  0  0
   -0.7480    2.2960    1.2720 C   0  0  0  0  0  0  0  0  0  0  0  0
    0.1270    1.1440    1.6770 C   0  0  2  0  0  0  0  0  0  0  0  0
    0.4740    0.9710    3.1230 C   0  0  0  0  0  0  0  0  0  0  0  0
    1.5210    1.4290    2.1220 C   0  0  0  0  0  0  0  0  0  0  0  0
   -6.3030    0.3350    0.4250 C   0  0  0  0  0  0  0  0  0  0  0  0
   -7.4680   -0.2470    0.2350 C   0  0  0  0  0  0  0  0  0  0  0  0
   -8.9400    0.7090    0.4270 Cl  0  0  0  0  0  0  0  0  0  0  0  0
   -7.5940   -1.6590   -0.1270 C   0  0  0  0  0  0  0  0  0  0  0  0
  1  2  2  0
  2  3  1  0
  2 36  1  0
  3  4  2  0
  4  5  1  0
  4 33  1  0
  5  6  1  0
  5  7  1  0
  7  8  1  0
  8  9  2  0
  8 10  1  0
 10 11  1  0
 10 29  1  0
 11 12  1  0
 12 13  2  0
 12 14  1  0
 14 15  1  0
 14 16  1  0
 16 17  1  0
 17 18  1  0
 18 19  2  0
 18 28  1  0
 19 20  1  0
 20 21  1  0
 20 27  2  0
 21 22  2  0
 21 25  1  0
 22 23  1  0
 23 24  1  0
 24 25  2  0
 25 26  1  0
 27 28  1  0
 30 29  1  1
 30 31  1  0
 30 32  1  0
 31 32  1  0
 33 34  2  0
 34 35  1  0
 34 36  1  0
M  END
