
     RDKit          3D

 36 39  0  0  0  0  0  0  0  0999 V2000
   -3.2970   -3.2500    1.2910 C   0  0  0  0  0  0  0  0  0  0  0  0
   -2.0260   -2.7660    1.9180 C   0  0  0  0  0  0  0  0  0  0  0  0
   -0.8690   -2.6250    0.9180 C   0  0  0  0  0  0  0  0  0  0  0  0
   -1.2930   -1.7580   -0.2220 C   0  0  0  0  0  0  0  0  0  0  0  0
   -1.5720   -0.4470   -0.2420 C   0  0  0  0  0  0  0  0  0  0  0  0
   -1.1560    0.5470    0.7170 C   0  0  0  0  0  0  0  0  0  0  0  0
    0.2820    1.0160    0.4940 C   0  0  0  0  0  0  0  0  0  0  0  0
    0.4850    2.0150   -0.3020 O   0  0  0  0  0  0  0  0  0  0  0  0
    1.4000    0.4510    1.0760 N   0  0  0  0  0  0  0  0  0  0  0  0
    2.7550    0.9050    0.8960 C   0  0  0  0  0  0  0  0  0  0  0  0
    3.0030    2.2650    0.9680 C   0  0  0  0  0  0  0  0  0  0  0  0
    4.2720    2.7220    0.8000 C   0  0  0  0  0  0  0  0  0  0  0  0
    5.3070    1.8590    0.5640 C   0  0  0  0  0  0  0  0  0  0  0  0
    5.0750    0.4860    0.4910 C   0  0  0  0  0  0  0  0  0  0  0  0
    3.7700    0.0160    0.6580 C   0  0  0  0  0  0  0  0  0  0  0  0
    6.3380   -0.2040    0.2280 C   0  0  0  0  0  0  0  0  0  0  0  0
    6.5450   -1.4910    0.0570 C   0  0  0  0  0  0  0  0  0  0  0  0
    5.3140   -2.7230    0.1100 Cl  0  0  0  0  0  0  0  0  0  0  0  0
    7.3490    0.8860    0.1540 C   0  0  0  0  0  0  0  0  0  0  0  0
    8.5950    0.6570   -0.0630 N   0  0  0  0  0  0  0  0  0  0  0  0
    9.6500    1.6270   -0.1560 C   0  0  0  0  0  0  0  0  0  0  0  0
    9.6760    2.7560    1.2180 Cl  0  0  0  0  0  0  0  0  0  0  0  0
    6.6730    2.0660    0.3630 O   0  0  0  0  0  0  0  0  0  0  0  0
   -2.1550   -0.1340   -1.7930 C   0  0  0  0  0  0  0  0  0  0  0  0
   -2.3980    1.3020   -1.5110 C   0  0  0  0  0  0  0  0  0  0  0  0
   -1.7580    2.1250   -2.2110 O   0  0  0  0  0  0  0  0  0  0  0  0
   -3.3020    1.7860   -0.5520 N   0  0  0  0  0  0  0  0  0  0  0  0
   -4.1880    0.9480    0.1760 C   0  0  0  0  0  0  0  0  0  0  0  0
   -5.3980    1.7820    0.5950 C   0  0  0  0  0  0  0  0  0  0  0  0
   -5.7910    2.7710   -0.4730 C   0  0  0  0  0  0  0  0  0  0  0  0
   -4.6790    3.6850   -0.8770 C   0  0  0  0  0  0  0  0  0  0  0  0
   -3.3770    3.2250   -0.2750 C   0  0  0  0  0  0  0  0  0  0  0  0
   -1.9680   -1.2850   -2.0060 N   0  0  0  0  0  0  0  0  0  0  0  0
   -1.5600   -2.3030   -1.4460 N   0  0  0  0  0  0  0  0  0  0  0  0
   -1.2840   -3.6580   -1.8520 C   0  0  0  0  0  0  0  0  0  0  0  0
   -2.2700   -4.7270   -1.6400 C   0  0  0  0  0  0  0  0  0  0  0  0
  1  2  1  0
  2  3  1  0
  3  4  1  0
  4  5  2  0
  4 34  1  0
  5  6  1  0
  5 24  1  0
  6  7  1  0
  7  8  2  0
  7  9  1  0
  9 10  1  0
 10 11  2  0
 10 15  1  0
 11 12  1  0
 12 13  2  0
 13 14  1  0
 13 23  1  0
 14 15  2  0
 14 16  1  0
 16 17  2  3
 16 19  1  0
 17 18  1  0
 19 20  2  3
 19 23  1  0
 20 21  1  0
 21 22  1  0
 24 25  1  0
 24 33  2  0
 25 26  2  0
 25 27  1  0
 27 28  1  0
 27 32  1  0
 28 29  1  0
 29 30  1  0
 30 31  1  0
 31 32  1  0
 33 34  1  0
 34 35  1  0
 35 36  1  0
M  END
