
     RDKit          3D

 36 39  0  0  0  0  0  0  0  0999 V2000
   -5.6590    2.0770    0.6120 C   0  0  0  0  0  0  0  0  0  0  0  0
   -4.8360    0.9550    0.6480 O   0  0  0  0  0  0  0  0  0  0  0  0
   -4.6060    0.1390   -0.4780 C   0  0  0  0  0  0  0  0  0  0  0  0
   -5.5270   -0.6980   -0.8480 C   0  0  0  0  0  0  0  0  0  0  0  0
   -5.4310   -1.6020   -1.9870 C   0  0  0  0  0  0  0  0  0  0  0  0
   -4.1880   -1.4610   -2.6840 N   0  0  0  0  0  0  0  0  0  0  0  0
   -3.9520   -2.3110   -3.8850 C   0  0  0  0  0  0  0  0  0  0  0  0
   -3.2020   -0.5520   -2.2650 C   0  0  0  0  0  0  0  0  0  0  0  0
   -3.3570    0.2390   -1.2100 C   0  0  0  0  0  0  0  0  0  0  0  0
   -2.2800    1.1790   -0.8640 C   0  0  0  0  0  0  0  0  0  0  0  0
   -1.6460    0.9970    0.3990 N   0  0  0  0  0  0  0  0  0  0  0  0
   -0.5000    0.1510    0.5240 C   0  0  0  0  0  0  0  0  0  0  0  0
    0.0910   -0.0270    1.6310 O   0  0  0  0  0  0  0  0  0  0  0  0
    0.0140   -0.5430   -0.6830 C   0  0  0  0  0  0  0  0  0  0  0  0
    1.1990   -1.3400   -0.3500 N   0  0  0  0  0  0  0  0  0  0  0  0
    1.2560   -2.6100    0.0470 C   0  0  0  0  0  0  0  0  0  0  0  0
    2.6030   -2.9210    0.2430 C   0  0  0  0  0  0  0  0  0  0  0  0
    3.3150   -1.7830   -0.0570 C   0  0  0  0  0  0  0  0  0  0  0  0
    4.7970   -1.7120    0.0320 C   0  0  0  0  0  0  0  0  0  0  0  0
    5.4570   -2.7090    0.3900 O   0  0  0  0  0  0  0  0  0  0  0  0
    5.4770   -0.5120   -0.2890 N   0  0  0  0  0  0  0  0  0  0  0  0
    6.8710   -0.3070   -0.2480 C   0  0  0  0  0  0  0  0  0  0  0  0
    7.3180    0.9620   -0.6550 C   0  0  0  0  0  0  0  0  0  0  0  0
    8.6470    1.3130   -0.6680 C   0  0  0  0  0  0  0  0  0  0  0  0
    9.5850    0.3940   -0.2670 C   0  0  0  0  0  0  0  0  0  0  0  0
    9.1640   -0.8460    0.1320 C   0  0  0  0  0  0  0  0  0  0  0  0
    7.8220   -1.1980    0.1440 C   0  0  0  0  0  0  0  0  0  0  0  0
    2.4380   -0.8550   -0.4090 N   0  0  0  0  0  0  0  0  0  0  0  0
   -2.0740    1.6300    1.5880 C   0  0  0  0  0  0  0  0  0  0  0  0
   -2.4460    0.8280    2.6820 C   0  0  0  0  0  0  0  0  0  0  0  0
   -2.8520    1.4020    3.8520 C   0  0  0  0  0  0  0  0  0  0  0  0
   -3.3010    0.3440    5.1730 Cl  0  0  0  0  0  0  0  0  0  0  0  0
   -2.9010    2.7770    3.9700 C   0  0  0  0  0  0  0  0  0  0  0  0
   -2.5450    3.5740    2.9240 C   0  0  0  0  0  0  0  0  0  0  0  0
   -2.1280    2.9940    1.7230 C   0  0  0  0  0  0  0  0  0  0  0  0
   -1.6480    4.0280    0.3910 Cl  0  0  0  0  0  0  0  0  0  0  0  0
  1  2  1  0
  2  3  1  0
  3  4  2  0
  3  9  1  0
  4  5  1  0
  5  6  1  0
  6  7  1  0
  6  8  1  0
  8  9  2  0
  9 10  1  0
 10 11  1  0
 11 12  1  0
 11 29  1  0
 12 13  2  0
 12 14  1  0
 14 15  1  0
 15 16  1  0
 15 28  1  0
 16 17  2  0
 17 18  1  0
 18 19  1  0
 18 28  2  0
 19 20  2  0
 19 21  1  0
 21 22  1  0
 22 23  2  0
 22 27  1  0
 23 24  1  0
 24 25  2  0
 25 26  1  0
 26 27  2  0
 29 30  2  0
 29 35  1  0
 30 31  1  0
 31 32  1  0
 31 33  2  0
 33 34  1  0
 34 35  2  0
 35 36  1  0
M  END
