
     RDKit          3D

 36 38  0  0  0  0  0  0  0  0999 V2000
   -0.4110    4.2970    2.8250 N   0  0  0  0  0  0  0  0  0  0  0  0
   -1.4780    4.0220    1.9200 C   0  0  0  0  0  0  0  0  0  0  0  0
   -0.9930    3.4250    0.6080 C   0  0  0  0  0  0  0  0  0  0  0  0
   -2.1700    3.1590   -0.3050 C   0  0  0  0  0  0  0  0  0  0  0  0
   -1.8370    2.5720   -1.6160 C   0  0  0  0  0  0  0  0  0  0  0  0
   -1.1500    1.2410   -1.6290 C   0  0  2  0  0  0  0  0  0  0  0  0
   -1.8600    0.1830   -1.0130 N   0  0  0  0  0  0  0  0  0  0  0  0
   -2.7960   -0.4430   -1.9420 C   0  0  1  0  0  0  0  0  0  0  0  0
   -2.4180   -1.8280   -2.3350 C   0  0  0  0  0  0  0  0  0  0  0  0
   -2.3010   -2.8390   -1.2610 C   0  0  0  0  0  0  0  0  0  0  0  0
   -3.5720   -3.0400   -0.5340 C   0  0  0  0  0  0  0  0  0  0  0  0
   -3.9200   -2.3640    0.6120 C   0  0  0  0  0  0  0  0  0  0  0  0
   -5.1280   -2.6040    1.2360 C   0  0  0  0  0  0  0  0  0  0  0  0
   -6.0020   -3.5290    0.7130 C   0  0  0  0  0  0  0  0  0  0  0  0
   -5.6600   -4.2110   -0.4360 C   0  0  0  0  0  0  0  0  0  0  0  0
   -4.4540   -3.9620   -1.0460 C   0  0  0  0  0  0  0  0  0  0  0  0
   -4.2060   -0.2540   -1.5470 C   0  0  0  0  0  0  0  0  0  0  0  0
   -5.1540   -0.8140   -2.1580 O   0  0  0  0  0  0  0  0  0  0  0  0
   -4.6010    0.5600   -0.4670 O   0  0  0  0  0  0  0  0  0  0  0  0
    0.2840    1.3420   -1.2810 C   0  0  0  0  0  0  0  0  0  0  0  0
    1.0050    2.2770   -1.7850 O   0  0  0  0  0  0  0  0  0  0  0  0
    0.9880    0.4770   -0.4110 N   0  0  0  0  0  0  0  0  0  0  0  0
    2.4150    0.6360   -0.1200 C   0  0  2  0  0  0  0  0  0  0  0  0
    3.1550   -0.5240   -0.7260 C   0  0  0  0  0  0  0  0  0  0  0  0
    4.5980   -0.5060   -0.4840 C   0  0  0  0  0  0  0  0  0  0  0  0
    5.5640    0.0610   -1.2980 C   0  0  0  0  0  0  0  0  0  0  0  0
    6.7390   -0.0980   -0.7180 N   0  0  0  0  0  0  0  0  0  0  0  0
    6.6280   -0.7490    0.4560 C   0  0  0  0  0  0  0  0  0  0  0  0
    7.5650   -1.1400    1.3680 C   0  0  0  0  0  0  0  0  0  0  0  0
    7.1670   -1.8250    2.4960 C   0  0  0  0  0  0  0  0  0  0  0  0
    5.8240   -2.1170    2.7040 C   0  0  0  0  0  0  0  0  0  0  0  0
    4.9330   -1.7040    1.7630 C   0  0  0  0  0  0  0  0  0  0  0  0
    5.2980   -1.0070    0.6080 C   0  0  0  0  0  0  0  0  0  0  0  0
    2.6030    0.8440    1.2920 C   0  0  0  0  0  0  0  0  0  0  0  0
    1.6250    0.7350    2.1040 O   0  0  0  0  0  0  0  0  0  0  0  0
    3.8400    1.1740    1.8180 O   0  0  0  0  0  0  0  0  0  0  0  0
  1  2  1  0
  2  3  1  0
  3  4  1  0
  4  5  1  0
  6  5  1  1
  6  7  1  0
  6 20  1  0
  7  8  1  0
  8  9  1  1
  8 17  1  0
  9 10  1  0
 10 11  1  0
 11 12  2  0
 11 16  1  0
 12 13  1  0
 13 14  2  0
 14 15  1  0
 15 16  2  0
 17 18  2  0
 17 19  1  0
 20 21  2  0
 20 22  1  0
 22 23  1  0
 23 24  1  1
 23 34  1  0
 24 25  1  0
 25 26  2  0
 25 33  1  0
 26 27  1  0
 27 28  1  0
 28 29  2  0
 28 33  1  0
 29 30  1  0
 30 31  2  0
 31 32  1  0
 32 33  2  0
 34 35  2  0
 34 36  1  0
M  CHG  2   1   1   7   1
M  END
