
     RDKit          3D

 36 40  0  0  0  0  0  0  0  0999 V2000
    1.9000   -3.5280   -2.6640 C   0  0  0  0  0  0  0  0  0  0  0  0
    1.5380   -2.9190   -1.3250 C   0  0  0  0  0  0  0  0  0  0  0  0
    2.4290   -2.9930   -0.3870 C   0  0  0  0  0  0  0  0  0  0  0  0
    2.4300   -2.5210    1.0140 C   0  0  0  0  0  0  0  0  0  0  0  0
    2.5080   -1.1610    1.3060 N   0  0  1  0  0  0  0  0  0  0  0  0
    2.5740   -1.0300    2.7950 C   0  0  0  0  0  0  0  0  0  0  0  0
    2.0340    0.3010    3.2330 C   0  0  0  0  0  0  0  0  0  0  0  0
    1.9560    1.2190    2.0650 C   0  0  0  0  0  0  0  0  0  0  0  0
    3.1340    1.1700    1.1390 C   0  0  0  0  0  0  0  0  0  0  0  0
    3.4490   -0.2840    0.7220 C   0  0  2  0  0  0  0  0  0  0  0  0
    3.7980   -0.3700   -0.6910 C   0  0  2  0  0  0  0  0  0  0  0  0
    5.1630    0.4220   -0.8800 C   0  0  0  0  0  0  0  0  0  0  0  0
    2.9740   -0.0920   -1.7870 N   0  0  0  0  0  0  0  0  0  0  0  0
    1.9220    0.7920   -2.1580 C   0  0  0  0  0  0  0  0  0  0  0  0
    2.0980    1.8420   -3.0340 N   0  0  0  0  0  0  0  0  0  0  0  0
    0.9650    2.5010   -3.1900 C   0  0  0  0  0  0  0  0  0  0  0  0
    0.7460    3.9370   -4.2390 Cl  0  0  0  0  0  0  0  0  0  0  0  0
    0.0480    1.9230   -2.4540 N   0  0  0  0  0  0  0  0  0  0  0  0
    0.6130    0.8500   -1.7980 C   0  0  0  0  0  0  0  0  0  0  0  0
   -0.1400    0.0060   -0.9430 N   0  0  0  0  0  0  0  0  0  0  0  0
   -0.3520   -1.2130   -0.6980 C   0  0  0  0  0  0  0  0  0  0  0  0
   -1.3710   -1.4740    0.4460 C   0  0  0  0  0  0  0  0  0  0  0  0
   -2.1690   -0.2630    0.7290 C   0  0  0  0  0  0  0  0  0  0  0  0
   -1.8950    0.5290    1.8130 C   0  0  0  0  0  0  0  0  0  0  0  0
   -2.6020    1.6710    2.1170 C   0  0  0  0  0  0  0  0  0  0  0  0
   -3.6300    2.0140    1.2730 C   0  0  0  0  0  0  0  0  0  0  0  0
   -3.9230    1.2160    0.1600 C   0  0  0  0  0  0  0  0  0  0  0  0
   -3.2200    0.0740   -0.1460 C   0  0  0  0  0  0  0  0  0  0  0  0
   -3.4380   -0.7540   -1.2040 O   0  0  0  0  0  0  0  0  0  0  0  0
   -4.3340   -0.7920   -2.2300 C   0  0  0  0  0  0  0  0  0  0  0  0
   -5.7360   -0.9980   -1.7160 C   0  0  0  0  0  0  0  0  0  0  0  0
   -5.6940   -2.2390   -1.0320 O   0  0  0  0  0  0  0  0  0  0  0  0
   -4.2570    3.2640    1.7670 C   0  0  0  0  0  0  0  0  0  0  0  0
   -3.9470    3.2320    3.2370 C   0  0  0  0  0  0  0  0  0  0  0  0
   -2.5130    2.6890    3.2150 C   0  0  0  0  0  0  0  0  0  0  0  0
    0.2250   -2.3620   -1.2980 N   0  0  0  0  0  0  0  0  0  0  0  0
  1  2  1  0
  2  3  2  0
  2 36  1  0
  3  4  1  0
  5  4  1  1
  5  6  1  0
  5 10  1  0
  6  7  1  0
  7  8  1  0
  8  9  1  0
 10  9  1  6
 10 11  1  0
 11 12  1  1
 11 13  1  0
 13 14  1  0
 14 15  1  0
 14 19  2  0
 15 16  2  0
 16 17  1  0
 16 18  1  0
 18 19  1  0
 19 20  1  0
 20 21  2  0
 21 22  1  0
 21 36  1  0
 22 23  1  0
 23 24  2  0
 23 28  1  0
 24 25  1  0
 25 26  2  0
 25 35  1  0
 26 27  1  0
 26 33  1  0
 27 28  2  0
 28 29  1  0
 29 30  1  0
 30 31  1  0
 31 32  1  0
 33 34  1  0
 34 35  1  0
M  CHG  2   5   1  15   1
M  END
