
     RDKit          3D

 30 32  0  0  0  0  0  0  0  0999 V2000
   -1.2090    4.1500    2.6450 O   0  0  0  0  0  0  0  0  0  0  0  0
   -0.9930    3.3210    1.7140 C   0  0  0  0  0  0  0  0  0  0  0  0
   -2.0310    2.7370    0.9610 N   0  0  0  0  0  0  0  0  0  0  0  0
   -1.8620    1.8690   -0.0200 C   0  0  0  0  0  0  0  0  0  0  0  0
   -0.5770    1.4590   -0.4160 N   0  0  0  0  0  0  0  0  0  0  0  0
    0.5280    1.9840    0.3010 C   0  0  0  0  0  0  0  0  0  0  0  0
    1.7800    1.7540    0.2250 N   0  0  0  0  0  0  0  0  0  0  0  0
    2.7100    1.0130   -0.4290 C   0  0  0  0  0  0  0  0  0  0  0  0
    3.9410    1.3620   -0.9700 O   0  0  0  0  0  0  0  0  0  0  0  0
    5.0390    1.5460   -0.2380 O   0  0  0  0  0  0  0  0  0  0  0  0
    4.6640    1.8680    0.9790 O   0  0  0  0  0  0  0  0  0  0  0  0
    2.4440   -0.3150   -0.6200 C   0  0  0  0  0  0  0  0  0  0  0  0
    3.3710   -1.1380   -1.2860 O   0  0  0  0  0  0  0  0  0  0  0  0
    4.6510   -1.2040   -0.9180 O   0  0  0  0  0  0  0  0  0  0  0  0
    1.2300   -1.0160   -0.1890 C   0  0  1  0  0  0  0  0  0  0  0  0
    0.6190   -1.6650   -1.4140 C   0  0  0  0  0  0  0  0  0  0  0  0
   -0.7670   -1.9170   -1.4050 N   0  0  0  0  0  0  0  0  0  0  0  0
   -1.8400   -1.3900   -2.2160 C   0  0  0  0  0  0  0  0  0  0  0  0
   -2.3050   -2.2600   -3.1180 O   0  0  0  0  0  0  0  0  0  0  0  0
   -2.3980   -0.1710   -2.1690 O   0  0  0  0  0  0  0  0  0  0  0  0
   -3.4220    0.5650   -1.6210 C   0  0  0  0  0  0  0  0  0  0  0  0
   -3.1920    1.2530   -0.3370 C   0  0  1  0  0  0  0  0  0  0  0  0
   -3.4740    0.2620    0.7310 N   0  0  0  0  0  0  0  0  0  0  0  0
   -2.6470   -0.8370    1.1100 C   0  0  0  0  0  0  0  0  0  0  0  0
   -3.3670   -1.9510    1.1570 O   0  0  0  0  0  0  0  0  0  0  0  0
   -1.3770   -0.9160    1.3980 O   0  0  0  0  0  0  0  0  0  0  0  0
   -0.2810   -1.2830    2.1020 C   0  0  0  0  0  0  0  0  0  0  0  0
    0.3360   -2.3830    1.4860 O   0  0  0  0  0  0  0  0  0  0  0  0
    1.5660   -2.0350    0.8910 C   0  0  0  0  0  0  0  0  0  0  0  0
    0.2640    2.9160    1.3540 O   0  0  0  0  0  0  0  0  0  0  0  0
  1  2  2  0
  2  3  1  0
  2 30  1  0
  3  4  2  0
  4  5  1  0
  4 22  1  0
  5  6  1  0
  6  7  2  0
  6 30  1  0
  7  8  1  0
  8  9  1  0
  8 12  2  0
  9 10  1  0
 10 11  1  0
 12 13  1  0
 12 15  1  0
 13 14  1  0
 15 16  1  0
 15 29  1  1
 16 17  1  0
 17 18  1  0
 18 19  2  0
 18 20  1  0
 20 21  1  0
 21 22  1  0
 22 23  1  1
 23 24  1  0
 24 25  2  0
 24 26  1  0
 26 27  1  0
 27 28  1  0
 28 29  1  0
M  END
