
     RDKit          3D

 31 33  0  0  0  0  0  0  0  0999 V2000
    4.5120    2.5930   -2.0060 N   0  0  0  0  0  0  0  0  0  0  0  0
    4.8810    1.6730   -0.9870 C   0  0  0  0  0  0  0  0  0  0  0  0
    5.3150    2.0180    0.1280 O   0  0  0  0  0  0  0  0  0  0  0  0
    4.7380    0.2260   -1.2790 C   0  0  0  0  0  0  0  0  0  0  0  0
    5.1670   -0.6100   -0.1110 C   0  0  0  0  0  0  0  0  0  0  0  0
    4.4410   -0.3650    1.0380 O   0  0  0  0  0  0  0  0  0  0  0  0
    3.1150   -0.6350    0.8190 C   0  0  0  0  0  0  0  0  0  0  0  0
    2.3970   -0.3450    2.1440 C   0  0  0  0  0  0  0  0  0  0  0  0
    1.0020   -0.6260    1.9230 N   0  0  0  0  0  0  0  0  0  0  0  0
    0.1060    0.2710    1.4920 O   0  0  0  0  0  0  0  0  0  0  0  0
   -0.9960   -0.3940    0.9630 C   0  0  2  0  0  0  0  0  0  0  0  0
   -0.9800   -0.5290   -0.4880 C   0  0  0  0  0  0  0  0  0  0  0  0
   -1.1400   -1.8690   -1.2060 C   0  0  0  0  0  0  0  0  0  0  0  0
   -2.2140   -2.5720   -0.4130 N   0  0  0  0  0  0  0  0  0  0  0  0
   -3.0910   -3.5130   -0.8930 C   0  0  0  0  0  0  0  0  0  0  0  0
   -3.9410   -4.0330   -0.1230 O   0  0  0  0  0  0  0  0  0  0  0  0
   -2.1700   -2.0370    0.8750 C   0  0  0  0  0  0  0  0  0  0  0  0
   -2.9860   -1.4470    1.6720 N   0  0  0  0  0  0  0  0  0  0  0  0
   -2.2510   -0.0390    1.7220 C   0  0  1  0  0  0  0  0  0  0  0  0
   -1.9490    0.0580    3.0660 O   0  0  0  0  0  0  0  0  0  0  0  0
   -3.1370    0.8530    1.2370 O   0  0  0  0  0  0  0  0  0  0  0  0
   -3.9890    0.8960    0.1990 C   0  0  0  0  0  0  0  0  0  0  0  0
   -4.0980   -0.0710   -0.5610 O   0  0  0  0  0  0  0  0  0  0  0  0
   -4.7540    2.0280   -0.0290 O   0  0  0  0  0  0  0  0  0  0  0  0
   -5.5960    2.0210   -1.0870 O   0  0  0  0  0  0  0  0  0  0  0  0
   -6.4180    3.0530   -0.8790 O   0  0  0  0  0  0  0  0  0  0  0  0
   -5.8070    4.1710   -1.2790 O   0  0  0  0  0  0  0  0  0  0  0  0
   -6.2900    5.2000   -0.5940 O   0  0  0  0  0  0  0  0  0  0  0  0
   -0.8740   -1.8240    1.4710 N   0  0  0  0  0  0  0  0  0  0  0  0
    0.3670   -1.8890    2.1280 C   0  0  0  0  0  0  0  0  0  0  0  0
    0.8180   -2.8820    2.7700 O   0  0  0  0  0  0  0  0  0  0  0  0
  1  2  1  0
  2  3  2  0
  2  4  1  0
  4  5  1  0
  5  6  1  0
  6  7  1  0
  7  8  1  0
  8  9  1  0
  9 10  1  0
  9 30  1  0
 10 11  1  0
 11 12  1  6
 11 19  1  0
 11 29  1  0
 12 13  1  0
 13 14  1  0
 14 15  1  0
 14 17  1  0
 15 16  2  0
 17 18  2  0
 17 29  1  0
 18 19  1  0
 19 20  1  1
 19 21  1  0
 21 22  1  0
 22 23  2  0
 22 24  1  0
 24 25  1  0
 25 26  1  0
 26 27  1  0
 27 28  1  0
 29 30  1  0
 30 31  2  0
M  END
