
     RDKit          3D

 31 32  0  0  0  0  0  0  0  0999 V2000
   -1.0590   -4.2110    1.1310 O   0  0  0  0  0  0  0  0  0  0  0  0
   -1.0440   -3.0090    1.5420 C   0  0  0  0  0  0  0  0  0  0  0  0
   -1.3930   -1.9890    0.6790 N   0  0  0  0  0  0  0  0  0  0  0  0
   -0.7160   -1.3950   -0.2120 C   0  0  0  0  0  0  0  0  0  0  0  0
   -1.5010   -0.3130   -0.9450 C   0  0  0  0  0  0  0  0  0  0  0  0
   -2.5040    0.3440   -0.0630 C   0  0  2  0  0  0  0  0  0  0  0  0
   -3.8290   -0.3540   -0.2430 C   0  0  0  0  0  0  0  0  0  0  0  0
   -3.9510   -1.5680    0.0370 O   0  0  0  0  0  0  0  0  0  0  0  0
   -4.9520    0.3580   -0.7300 N   0  0  0  0  0  0  0  0  0  0  0  0
   -6.2320   -0.2320   -0.9260 C   0  0  0  0  0  0  0  0  0  0  0  0
   -6.3880   -1.4480   -0.6550 O   0  0  0  0  0  0  0  0  0  0  0  0
   -7.3020    0.4760   -1.3980 O   0  0  0  0  0  0  0  0  0  0  0  0
   -2.6190    1.6830   -0.4380 O   0  0  0  0  0  0  0  0  0  0  0  0
   -2.2830    2.5470    0.5250 N   0  0  0  0  0  0  0  0  0  0  0  0
   -1.0070    3.1540    0.6850 C   0  0  0  0  0  0  0  0  0  0  0  0
   -0.9640    4.3690    1.0320 O   0  0  0  0  0  0  0  0  0  0  0  0
    0.2840    2.4520    0.4690 C   0  0  0  0  0  0  0  0  0  0  0  0
    0.2470    1.2930    1.2390 O   0  0  0  0  0  0  0  0  0  0  0  0
    1.2330    0.4200    1.5670 C   0  0  0  0  0  0  0  0  0  0  0  0
    1.4130    0.1900    2.8290 O   0  0  0  0  0  0  0  0  0  0  0  0
    2.1010   -0.2790    0.6880 N   0  0  0  0  0  0  0  0  0  0  0  0
    3.5000   -0.1800    0.6470 O   0  0  0  0  0  0  0  0  0  0  0  0
    3.9360   -1.0260   -0.3400 C   0  0  0  0  0  0  0  0  0  0  0  0
    5.3770   -1.2130   -0.7030 C   0  0  1  0  0  0  0  0  0  0  0  0
    5.4760   -2.1360   -1.7390 O   0  0  0  0  0  0  0  0  0  0  0  0
    5.8700   -0.0010   -1.1860 O   0  0  0  0  0  0  0  0  0  0  0  0
    6.8630    0.3620   -0.4110 O   0  0  0  0  0  0  0  0  0  0  0  0
    7.2080    1.6120   -0.7310 O   0  0  0  0  0  0  0  0  0  0  0  0
    2.9750   -1.6370   -0.9140 N   0  0  0  0  0  0  0  0  0  0  0  0
    1.7220   -1.2110   -0.3060 C   0  0  0  0  0  0  0  0  0  0  0  0
    0.5550   -1.6100   -0.5920 N   0  0  0  0  0  0  0  0  0  0  0  0
  1  2  2  0
  2  3  1  0
  3  4  2  3
  4  5  1  0
  4 31  1  0
  5  6  1  0
  6  7  1  6
  6 13  1  0
  7  8  2  0
  7  9  1  0
  9 10  1  0
 10 11  2  0
 10 12  1  0
 13 14  1  0
 14 15  1  0
 15 16  2  0
 15 17  1  0
 17 18  1  0
 18 19  1  0
 19 20  2  0
 19 21  1  0
 21 22  1  0
 21 30  1  0
 22 23  1  0
 23 24  1  0
 23 29  2  0
 24 25  1  6
 24 26  1  0
 26 27  1  0
 27 28  1  0
 29 30  1  0
 30 31  2  0
M  END
