
     RDKit          3D

 30 32  0  0  0  0  0  0  0  0999 V2000
    3.7190   -1.6200    3.1680 O   0  0  0  0  0  0  0  0  0  0  0  0
    2.4890   -1.8610    2.9660 C   0  0  0  0  0  0  0  0  0  0  0  0
    1.8620   -2.7010    3.8480 O   0  0  0  0  0  0  0  0  0  0  0  0
    1.8500   -1.2500    1.8520 N   0  0  0  0  0  0  0  0  0  0  0  0
    2.6060   -0.3840    0.9900 C   0  0  0  0  0  0  0  0  0  0  0  0
    3.8040   -0.2000    1.2560 O   0  0  0  0  0  0  0  0  0  0  0  0
    1.9460    0.2480   -0.1620 C   0  0  1  0  0  0  0  0  0  0  0  0
    2.8090    0.9730   -0.9370 O   0  0  0  0  0  0  0  0  0  0  0  0
    3.7710    0.1930   -1.5320 C   0  0  0  0  0  0  0  0  0  0  0  0
    4.7210    1.0220   -2.3840 C   0  0  0  0  0  0  0  0  0  0  0  0
    5.3760    1.9790   -1.6160 O   0  0  0  0  0  0  0  0  0  0  0  0
    6.1960    2.7100   -2.2980 O   0  0  0  0  0  0  0  0  0  0  0  0
    1.1820   -0.7610   -0.9590 C   0  0  0  0  0  0  0  0  0  0  0  0
   -0.0820   -0.5660   -0.9000 N   0  0  0  0  0  0  0  0  0  0  0  0
   -0.3640    0.5320   -0.1060 N   0  0  0  0  0  0  0  0  0  0  0  0
   -1.6290    1.0940    0.2250 C   0  0  0  0  0  0  0  0  0  0  0  0
   -2.8890    0.5550   -0.2590 C   0  0  2  0  0  0  0  0  0  0  0  0
   -4.0180    1.2710    0.2020 O   0  0  0  0  0  0  0  0  0  0  0  0
   -4.2870    1.3880    1.5480 C   0  0  0  0  0  0  0  0  0  0  0  0
   -3.5150    0.8490    2.3780 O   0  0  0  0  0  0  0  0  0  0  0  0
   -5.4020    2.0940    2.0060 O   0  0  0  0  0  0  0  0  0  0  0  0
   -3.1130   -0.9060    0.1500 C   0  0  0  0  0  0  0  0  0  0  0  0
   -4.5820   -1.1740   -0.1370 C   0  0  0  0  0  0  0  0  0  0  0  0
   -5.0370   -0.3220   -1.1400 O   0  0  0  0  0  0  0  0  0  0  0  0
   -4.0790   -0.0960   -2.1220 C   0  0  0  0  0  0  0  0  0  0  0  0
   -2.9570    0.5650   -1.6500 O   0  0  0  0  0  0  0  0  0  0  0  0
   -1.6180    2.1280    0.9920 N   0  0  0  0  0  0  0  0  0  0  0  0
   -0.4650    2.6880    1.4840 O   0  0  0  0  0  0  0  0  0  0  0  0
    0.7400    2.1200    1.1440 N   0  0  0  0  0  0  0  0  0  0  0  0
    0.8480    1.0920    0.3900 C   0  0  0  0  0  0  0  0  0  0  0  0
  1  2  2  0
  2  3  1  0
  2  4  1  0
  4  5  1  0
  5  6  2  0
  5  7  1  0
  7  8  1  6
  7 13  1  0
  7 30  1  0
  8  9  1  0
  9 10  1  0
 10 11  1  0
 11 12  1  0
 13 14  2  0
 14 15  1  0
 15 16  1  0
 15 30  1  0
 16 17  1  0
 16 27  2  0
 17 18  1  1
 17 22  1  0
 17 26  1  0
 18 19  1  0
 19 20  2  0
 19 21  1  0
 22 23  1  0
 23 24  1  0
 24 25  1  0
 25 26  1  0
 27 28  1  0
 28 29  1  0
 29 30  2  0
M  END
