
     RDKit          3D

 44 48  0  0  0  0  0  0  0  0999 V2000
   -4.7040    0.2660   -0.4540 O   0  0  0  0  0  0  0  0  0  0  0  0
   -4.0700    0.9530    0.3410 C   0  0  0  0  0  0  0  0  0  0  0  0
   -3.2050    0.1920    1.2030 N   0  0  0  0  0  0  0  0  0  0  0  0
   -3.0780   -1.2190    1.1470 C   0  0  2  0  0  0  0  0  0  0  0  0
   -4.2260   -1.9750    1.7980 C   0  0  0  0  0  0  0  0  0  0  0  0
   -4.1210   -3.4480    1.7880 C   0  0  0  0  0  0  0  0  0  0  0  0
   -3.7460   -4.1040    2.9400 C   0  0  0  0  0  0  0  0  0  0  0  0
   -3.6130   -5.4640    3.0150 C   0  0  0  0  0  0  0  0  0  0  0  0
   -3.8680   -6.2450    1.8650 C   0  0  0  0  0  0  0  0  0  0  0  0
   -4.2350   -5.5830    0.7360 C   0  0  0  0  0  0  0  0  0  0  0  0
   -4.3640   -4.2240    0.6790 C   0  0  0  0  0  0  0  0  0  0  0  0
   -1.5080   -1.8520    1.3510 P   0  0  0  0  0  0  0  0  0  0  0  0
   -0.5620   -1.8860   -0.0920 O   0  0  0  0  0  0  0  0  0  0  0  0
   -1.3020   -2.8880    2.6120 O   0  0  0  0  0  0  0  0  0  0  0  0
   -0.3310   -0.8360    1.9820 C   0  0  2  0  0  0  0  0  0  0  0  0
   -0.6750   -0.3010    3.3630 C   0  0  0  0  0  0  0  0  0  0  0  0
   -0.2710    1.1120    3.4120 C   0  0  0  0  0  0  0  0  0  0  0  0
    0.0230    1.5160    2.0260 C   0  0  0  0  0  0  0  0  0  0  0  0
    0.1360    0.3300    1.1440 C   0  0  1  0  0  0  0  0  0  0  0  0
    1.5700    0.1710    0.7990 C   0  0  0  0  0  0  0  0  0  0  0  0
    2.1560   -0.8830    1.2540 O   0  0  0  0  0  0  0  0  0  0  0  0
    2.3650    1.0220    0.0410 N   0  0  0  0  0  0  0  0  0  0  0  0
    3.7920    0.7340   -0.2180 C   0  0  1  0  0  0  0  0  0  0  0  0
    4.0460    0.4020   -1.6400 C   0  0  0  0  0  0  0  0  0  0  0  0
    5.4430    0.1030   -1.9990 C   0  0  0  0  0  0  0  0  0  0  0  0
    6.0020   -1.1940   -1.9580 C   0  0  0  0  0  0  0  0  0  0  0  0
    7.2990   -1.1280   -2.2750 N   0  0  0  0  0  0  0  0  0  0  0  0
    7.6460    0.1290   -2.5350 C   0  0  0  0  0  0  0  0  0  0  0  0
    8.8670    0.6810   -2.9190 C   0  0  0  0  0  0  0  0  0  0  0  0
    8.9530    2.0330   -3.1460 C   0  0  0  0  0  0  0  0  0  0  0  0
    7.8110    2.7840   -2.9790 C   0  0  0  0  0  0  0  0  0  0  0  0
    6.6030    2.2460   -2.6000 C   0  0  0  0  0  0  0  0  0  0  0  0
    6.5050    0.8910   -2.3660 C   0  0  0  0  0  0  0  0  0  0  0  0
    4.6020    1.7960    0.3740 C   0  0  0  0  0  0  0  0  0  0  0  0
    4.0860    2.8470    0.9070 O   0  0  0  0  0  0  0  0  0  0  0  0
    6.0060    1.7470    0.4110 O   0  0  0  0  0  0  0  0  0  0  0  0
   -4.1800    2.3100    0.4090 O   0  0  0  0  0  0  0  0  0  0  0  0
   -5.0450    3.0470   -0.3960 C   0  0  0  0  0  0  0  0  0  0  0  0
   -4.8410    2.9850   -1.8420 C   0  0  0  0  0  0  0  0  0  0  0  0
   -3.9060    3.7790   -2.4500 C   0  0  0  0  0  0  0  0  0  0  0  0
   -3.7780    3.7070   -3.8310 C   0  0  0  0  0  0  0  0  0  0  0  0
   -4.5650    2.8660   -4.5820 C   0  0  0  0  0  0  0  0  0  0  0  0
   -5.5170    2.0570   -3.9750 C   0  0  0  0  0  0  0  0  0  0  0  0
   -5.6340    2.1340   -2.6200 C   0  0  0  0  0  0  0  0  0  0  0  0
  1  2  2  0
  2  3  1  0
  2 37  1  0
  3  4  1  0
  4  5  1  1
  4 12  1  0
  5  6  1  0
  6  7  2  0
  6 11  1  0
  7  8  1  0
  8  9  2  0
  9 10  1  0
 10 11  2  0
 12 13  1  0
 12 14  1  0
 15 12  1  6
 15 16  1  0
 15 19  1  0
 16 17  1  0
 17 18  1  0
 18 19  1  0
 19 20  1  1
 20 21  2  0
 20 22  1  0
 22 23  1  0
 23 24  1  6
 23 34  1  0
 24 25  1  0
 25 26  2  0
 25 33  1  0
 26 27  1  0
 27 28  1  0
 28 29  2  0
 28 33  1  0
 29 30  1  0
 30 31  2  0
 31 32  1  0
 32 33  2  0
 34 35  2  0
 34 36  1  0
 37 38  1  0
 38 39  1  0
 39 40  2  0
 39 44  1  0
 40 41  1  0
 41 42  2  0
 42 43  1  0
 43 44  2  0
M  END
