
     RDKit          3D

 31 32  0  0  0  0  0  0  0  0999 V2000
   -0.2030    4.2860    0.7800 O   0  0  0  0  0  0  0  0  0  0  0  0
   -1.3680    4.7450    0.6620 C   0  0  0  0  0  0  0  0  0  0  0  0
   -1.6290    5.8400   -0.1740 O   0  0  0  0  0  0  0  0  0  0  0  0
   -2.4290    4.1880    1.3510 O   0  0  0  0  0  0  0  0  0  0  0  0
   -2.2330    3.0900    2.2030 C   0  0  0  0  0  0  0  0  0  0  0  0
   -1.6850    1.9120    1.4830 C   0  0  0  0  0  0  0  0  0  0  0  0
   -0.3770    1.6760    1.3470 N   0  0  0  0  0  0  0  0  0  0  0  0
    0.0890    0.6020    0.6890 C   0  0  0  0  0  0  0  0  0  0  0  0
    1.4870    0.3490    0.5430 N   0  0  0  0  0  0  0  0  0  0  0  0
    1.9410   -0.7960   -0.1590 C   0  0  0  0  0  0  0  0  0  0  0  0
    1.0740   -1.5930   -0.6550 O   0  0  0  0  0  0  0  0  0  0  0  0
    3.3540   -1.1160   -0.3450 C   0  0  1  0  0  0  0  0  0  0  0  0
    3.7850   -1.1480   -1.7830 C   0  0  0  0  0  0  0  0  0  0  0  0
    3.1230   -2.0900   -2.5390 O   0  0  0  0  0  0  0  0  0  0  0  0
    3.5880   -2.0150   -3.7660 O   0  0  0  0  0  0  0  0  0  0  0  0
    3.2740   -0.9160   -4.3800 O   0  0  0  0  0  0  0  0  0  0  0  0
    4.1330   -0.0920    0.2910 O   0  0  0  0  0  0  0  0  0  0  0  0
    5.0040   -0.4130    1.3210 C   0  0  0  0  0  0  0  0  0  0  0  0
    5.1240   -1.6160    1.7160 O   0  0  0  0  0  0  0  0  0  0  0  0
    5.7580    0.5950    1.9330 O   0  0  0  0  0  0  0  0  0  0  0  0
    6.6100    0.3210    2.9330 O   0  0  0  0  0  0  0  0  0  0  0  0
   -0.7930   -0.2570    0.1540 N   0  0  0  0  0  0  0  0  0  0  0  0
   -2.1220   -0.0630    0.2630 C   0  0  0  0  0  0  0  0  0  0  0  0
   -3.0520   -0.9860   -0.3110 N   0  0  0  0  0  0  0  0  0  0  0  0
   -4.4650   -0.7350   -0.1670 C   0  0  0  0  0  0  0  0  0  0  0  0
   -5.2520   -2.0130    0.0000 C   0  0  0  0  0  0  0  0  0  0  0  0
   -4.4210   -3.0950    0.3830 O   0  0  0  0  0  0  0  0  0  0  0  0
   -3.2990   -3.3320   -0.3980 C   0  0  0  0  0  0  0  0  0  0  0  0
   -2.8100   -4.4720   -0.5990 O   0  0  0  0  0  0  0  0  0  0  0  0
   -2.6410   -2.1590   -1.0300 C   0  0  0  0  0  0  0  0  0  0  0  0
   -2.5380    1.0100    0.9210 N   0  0  0  0  0  0  0  0  0  0  0  0
  1  2  2  0
  2  3  1  0
  2  4  1  0
  4  5  1  0
  5  6  1  0
  6  7  2  0
  6 31  1  0
  7  8  1  0
  8  9  1  0
  8 22  2  0
  9 10  1  0
 10 11  2  0
 10 12  1  0
 12 13  1  6
 12 17  1  0
 13 14  1  0
 14 15  1  0
 15 16  1  0
 17 18  1  0
 18 19  2  0
 18 20  1  0
 20 21  1  0
 22 23  1  0
 23 24  1  0
 23 31  2  0
 24 25  1  0
 24 30  1  0
 25 26  1  0
 26 27  1  0
 27 28  1  0
 28 29  2  0
 28 30  1  0
M  END
