
     RDKit          3D

 13 13  0  0  0  0  0  0  0  0999 V2000
   -1.6260    2.2220    0.4580 C   0  0  0  0  0  0  0  0  0  0  0  0
   -1.3680    0.7560    0.3010 C   0  0  0  0  0  0  0  0  0  0  0  0
   -2.3180   -0.1360    0.6340 N   0  0  0  0  0  0  0  0  0  0  0  0
   -2.1140   -1.4770    0.4960 C   0  0  0  0  0  0  0  0  0  0  0  0
   -3.1310   -2.4060    0.8510 N   0  0  0  0  0  0  0  0  0  0  0  0
   -0.9180   -1.8600    0.0110 N   0  0  0  0  0  0  0  0  0  0  0  0
    0.0600   -1.0110   -0.3350 C   0  0  0  0  0  0  0  0  0  0  0  0
    1.6230   -1.5800   -0.9840 S   0  0  0  0  0  0  0  0  0  0  0  0
    2.7280   -0.1930   -1.3460 C   0  0  0  0  0  0  0  0  0  0  0  0
    3.2000    0.6140    0.1880 S   0  0  1  0  0  0  0  0  0  0  0  0
    4.1220   -0.2970    0.9600 O   0  0  0  0  0  0  0  0  0  0  0  0
    3.9870    1.8460   -0.1730 O   0  0  0  0  0  0  0  0  0  0  0  0
   -0.1890    0.3180   -0.1790 N   0  0  0  0  0  0  0  0  0  0  0  0
  1  2  1  0
  2  3  2  0
  2 13  1  0
  3  4  1  0
  4  5  1  0
  4  6  2  0
  6  7  1  0
  7  8  1  0
  7 13  2  0
  8  9  1  0
 10  9  1  6
 10 11  2  0
 10 12  2  0
M  END
