
     RDKit          3D

 12 12  0  0  0  0  0  0  0  0999 V2000
   -2.0740   -1.2400   -0.8930 C   0  0  0  0  0  0  0  0  0  0  0  0
   -1.4010   -0.8180    0.3960 C   0  0  0  0  0  0  0  0  0  0  0  0
   -0.9540    0.5740    0.3310 N   0  0  0  0  0  0  0  0  0  0  0  0
    0.2580    1.0050   -0.1010 C   0  0  0  0  0  0  0  0  0  0  0  0
    1.3800    0.1800   -0.5960 C   0  0  0  0  0  0  0  0  0  0  0  0
    2.2240   -0.1700    0.5300 N   0  0  0  0  0  0  0  0  0  0  0  0
    3.5630   -1.1420    0.0090 S   0  0  0  0  0  0  0  0  0  0  0  0
    3.1460   -2.5370   -0.3950 O   0  0  0  0  0  0  0  0  0  0  0  0
    0.2760    2.3420   -0.0040 N   0  0  0  0  0  0  0  0  0  0  0  0
   -0.8780    2.7870    0.4740 N   0  0  0  0  0  0  0  0  0  0  0  0
   -1.6170    1.6810    0.6720 C   0  0  0  0  0  0  0  0  0  0  0  0
   -2.7900    1.7120    1.1250 O   0  0  0  0  0  0  0  0  0  0  0  0
  1  2  1  0
  2  3  1  0
  3  4  1  0
  3 11  1  0
  4  5  1  0
  4  9  2  0
  5  6  1  0
  6  7  1  0
  7  8  2  0
  9 10  1  0
 10 11  1  0
 11 12  2  0
M  END
