
     RDKit          3D

 13 13  0  0  0  0  0  0  0  0999 V2000
   -2.2150   -1.5350    0.0980 C   0  0  0  0  0  0  0  0  0  0  0  0
   -1.6330   -0.2090    0.0870 N   0  0  0  0  0  0  0  0  0  0  0  0
   -2.4060    0.8790    0.1960 C   0  0  0  0  0  0  0  0  0  0  0  0
   -3.6380    0.7050    0.3050 O   0  0  0  0  0  0  0  0  0  0  0  0
   -1.8130    2.0840    0.1800 N   0  0  0  0  0  0  0  0  0  0  0  0
   -0.5220    2.2270    0.0640 N   0  0  0  0  0  0  0  0  0  0  0  0
    0.3490    1.1570   -0.0530 C   0  0  0  0  0  0  0  0  0  0  0  0
    2.0570    1.4680   -0.2030 S   0  0  0  0  0  0  0  0  0  0  0  0
    3.2100    0.2230   -0.3520 C   0  0  0  0  0  0  0  0  0  0  0  0
    4.4780    0.6210   -0.4580 N   0  0  0  0  0  0  0  0  0  0  0  0
    2.9570   -1.5420   -0.3870 S   0  0  0  0  0  0  0  0  0  0  0  0
   -0.2700   -0.0620   -0.0360 C   0  0  0  0  0  0  0  0  0  0  0  0
    0.4050   -1.1010   -0.1330 O   0  0  0  0  0  0  0  0  0  0  0  0
  1  2  1  0
  2  3  1  0
  2 12  1  0
  3  4  2  0
  3  5  1  0
  5  6  1  0
  6  7  2  0
  7  8  1  0
  7 12  1  0
  8  9  1  0
  9 10  2  0
  9 11  1  0
 12 13  2  0
M  END
