
     RDKit          3D

 22 24  0  0  0  0  0  0  0  0999 V2000
    2.9580    3.4020    1.4380 C   0  0  0  0  0  0  0  0  0  0  0  0
    1.5470    3.3460    1.0180 C   0  0  0  0  0  0  0  0  0  0  0  0
    0.9830    2.2070    0.5750 C   0  0  0  0  0  0  0  0  0  0  0  0
    1.7900    1.0410    0.5200 C   0  0  0  0  0  0  0  0  0  0  0  0
    1.5900   -0.1920    0.1780 C   0  0  0  0  0  0  0  0  0  0  0  0
    2.7010   -1.1800    0.2220 C   0  0  0  0  0  0  0  0  0  0  0  0
    2.9230   -2.1940   -0.6120 C   0  0  0  0  0  0  0  0  0  0  0  0
    4.1090   -3.0470   -0.3570 C   0  0  0  0  0  0  0  0  0  0  0  0
    2.1230   -2.5290   -1.7530 N   0  0  0  0  0  0  0  0  0  0  0  0
    0.7860   -2.1670   -2.1230 C   0  0  0  0  0  0  0  0  0  0  0  0
    0.3010   -2.4690   -3.2130 O   0  0  0  0  0  0  0  0  0  0  0  0
   -0.1470   -1.4080   -1.2590 C   0  0  0  0  0  0  0  0  0  0  0  0
   -1.4670   -1.6320   -1.5070 C   0  0  0  0  0  0  0  0  0  0  0  0
   -2.4010   -1.0050   -0.6750 C   0  0  0  0  0  0  0  0  0  0  0  0
   -2.0360   -0.1840    0.3710 C   0  0  0  0  0  0  0  0  0  0  0  0
   -0.7030    0.0180    0.5900 C   0  0  0  0  0  0  0  0  0  0  0  0
    0.2380   -0.5700   -0.2010 C   0  0  0  0  0  0  0  0  0  0  0  0
   -3.0960    0.4320    1.1950 C   0  0  0  0  0  0  0  0  0  0  0  0
   -4.3340    0.7800    0.4250 C   0  0  1  0  0  0  0  0  0  0  0  0
   -4.2200    2.1180    0.0150 O   0  0  0  0  0  0  0  0  0  0  0  0
   -4.6330   -0.1000   -0.7350 C   0  0  0  0  0  0  0  0  0  0  0  0
   -3.7480   -1.1990   -0.8850 O   0  0  0  0  0  0  0  0  0  0  0  0
  1  2  1  0
  2  3  2  3
  3  4  1  0
  4  5  2  3
  5  6  1  0
  5 17  1  0
  6  7  2  0
  7  8  1  0
  7  9  1  0
  9 10  1  0
 10 11  2  0
 10 12  1  0
 12 13  2  0
 12 17  1  0
 13 14  1  0
 14 15  2  0
 14 22  1  0
 15 16  1  0
 15 18  1  0
 16 17  2  0
 18 19  1  0
 19 20  1  6
 19 21  1  0
 21 22  1  0
M  END
