
     RDKit          3D

 13 13  0  0  0  0  0  0  0  0999 V2000
    3.3650   -1.6410    0.1550 C   0  0  0  0  0  0  0  0  0  0  0  0
    3.1890   -0.3120    0.6220 N   0  0  0  0  0  0  0  0  0  0  0  0
    2.0830    0.3270    0.5940 C   0  0  0  0  0  0  0  0  0  0  0  0
    2.0880    1.9950    1.2350 S   0  0  0  0  0  0  0  0  0  0  0  0
    3.6420    2.4550    1.7950 O   0  0  0  0  0  0  0  0  0  0  0  0
    0.5690   -0.3590   -0.0440 S   0  0  0  0  0  0  0  0  0  0  0  0
   -0.7450    0.8490    0.0950 C   0  0  0  0  0  0  0  0  0  0  0  0
   -2.0380    0.3490   -0.4160 C   0  0  0  0  0  0  0  0  0  0  0  0
   -2.5520    0.4240   -1.6600 N   0  0  0  0  0  0  0  0  0  0  0  0
   -3.7420   -0.1450   -1.7120 N   0  0  0  0  0  0  0  0  0  0  0  0
   -4.0340   -0.6090   -0.4890 C   0  0  0  0  0  0  0  0  0  0  0  0
   -5.0570   -1.2160   -0.0890 O   0  0  0  0  0  0  0  0  0  0  0  0
   -2.9800   -0.3010    0.3040 N   0  0  0  0  0  0  0  0  0  0  0  0
  1  2  1  0
  2  3  2  3
  3  4  1  0
  3  6  1  0
  4  5  1  0
  6  7  1  0
  7  8  1  0
  8  9  2  0
  8 13  1  0
  9 10  1  0
 10 11  1  0
 11 12  2  0
 11 13  1  0
M  END
