
     RDKit          3D

 22 24  0  0  0  0  0  0  0  0999 V2000
   -4.0400    1.3200    0.8820 C   0  0  0  0  0  0  0  0  0  0  0  0
   -3.1250    0.1980    1.3600 C   0  0  2  0  0  0  0  0  0  0  0  0
   -1.8970    1.0820    1.8890 C   0  0  0  0  0  0  0  0  0  0  0  0
   -2.5790   -0.5880    0.2530 C   0  0  0  0  0  0  0  0  0  0  0  0
   -1.2570   -0.4900   -0.1180 C   0  0  0  0  0  0  0  0  0  0  0  0
   -0.6620   -1.2720   -1.1170 C   0  0  0  0  0  0  0  0  0  0  0  0
    0.6810   -1.0930   -1.5460 C   0  0  0  0  0  0  0  0  0  0  0  0
    1.0030   -1.7180   -2.6490 O   0  0  0  0  0  0  0  0  0  0  0  0
    1.7310   -0.3510   -0.9710 N   0  0  0  0  0  0  0  0  0  0  0  0
    2.9540   -0.1540   -1.5450 C   0  0  0  0  0  0  0  0  0  0  0  0
    3.8080    0.5110   -0.6830 C   0  0  0  0  0  0  0  0  0  0  0  0
    5.1060    0.9970   -0.7180 C   0  0  0  0  0  0  0  0  0  0  0  0
    5.6790    1.6670    0.3270 C   0  0  0  0  0  0  0  0  0  0  0  0
    4.9300    1.8690    1.4780 C   0  0  0  0  0  0  0  0  0  0  0  0
    3.6260    1.3760    1.5110 C   0  0  0  0  0  0  0  0  0  0  0  0
    3.0570    0.7110    0.4650 C   0  0  0  0  0  0  0  0  0  0  0  0
    1.7840    0.1740    0.2660 C   0  0  0  0  0  0  0  0  0  0  0  0
   -1.4920   -2.1910   -1.7610 C   0  0  0  0  0  0  0  0  0  0  0  0
   -0.9590   -2.9870   -2.7730 O   0  0  0  0  0  0  0  0  0  0  0  0
   -2.7850   -2.2750   -1.3820 C   0  0  0  0  0  0  0  0  0  0  0  0
   -3.3500   -1.5150   -0.4040 C   0  0  0  0  0  0  0  0  0  0  0  0
   -4.6660   -1.6010   -0.0170 O   0  0  0  0  0  0  0  0  0  0  0  0
  2  1  1  6
  2  3  1  0
  2  4  1  0
  4  5  2  0
  4 21  1  0
  5  6  1  0
  6  7  1  0
  6 18  2  0
  7  8  2  0
  7  9  1  0
  9 10  1  0
  9 17  1  0
 10 11  2  0
 11 12  1  0
 11 16  1  0
 12 13  2  0
 13 14  1  0
 14 15  2  0
 15 16  1  0
 16 17  2  0
 18 19  1  0
 18 20  1  0
 20 21  2  0
 21 22  1  0
M  END
