
     RDKit          3D

 22 24  0  0  0  0  0  0  0  0999 V2000
   -4.1450   -0.3490   -1.6770 C   0  0  0  0  0  0  0  0  0  0  0  0
   -4.2440    0.2060   -0.3070 C   0  0  0  0  0  0  0  0  0  0  0  0
   -5.4440    0.3600    0.3070 C   0  0  0  0  0  0  0  0  0  0  0  0
   -5.2790    0.9060    1.6500 C   0  0  0  0  0  0  0  0  0  0  0  0
   -3.8390    1.0260    1.7760 C   0  0  0  0  0  0  0  0  0  0  0  0
   -3.1990    0.6270    0.6270 C   0  0  0  0  0  0  0  0  0  0  0  0
   -1.7860    0.4590    0.6230 C   0  0  0  0  0  0  0  0  0  0  0  0
   -0.8120    0.2490   -0.2490 C   0  0  0  0  0  0  0  0  0  0  0  0
    0.5330    0.0930    0.3080 C   0  0  0  0  0  0  0  0  0  0  0  0
    1.7260   -0.1530   -0.1030 C   0  0  0  0  0  0  0  0  0  0  0  0
    2.1660   -0.3970   -1.4750 C   0  0  0  0  0  0  0  0  0  0  0  0
    3.4550   -0.9700   -1.5330 O   0  0  0  0  0  0  0  0  0  0  0  0
    4.3870   -0.9830   -0.5410 C   0  0  0  0  0  0  0  0  0  0  0  0
    5.6940   -1.3880   -0.7440 C   0  0  0  0  0  0  0  0  0  0  0  0
    6.5990   -1.3840    0.2930 C   0  0  0  0  0  0  0  0  0  0  0  0
    6.2330   -0.9790    1.5570 C   0  0  0  0  0  0  0  0  0  0  0  0
    4.9470   -0.5760    1.7760 C   0  0  0  0  0  0  0  0  0  0  0  0
    4.0180   -0.5790    0.7200 C   0  0  0  0  0  0  0  0  0  0  0  0
    2.7400   -0.1850    0.9090 O   0  0  0  0  0  0  0  0  0  0  0  0
   -0.9120    0.6710   -1.6320 C   0  0  0  0  0  0  0  0  0  0  0  0
   -2.0280    1.5850   -1.9380 N   0  0  0  0  0  0  0  0  0  0  0  0
   -0.2130    0.4230   -2.5960 O   0  0  0  0  0  0  0  0  0  0  0  0
  1  2  1  0
  2  3  2  0
  2  6  1  0
  3  4  1  0
  4  5  1  0
  5  6  2  0
  6  7  1  0
  7  8  2  3
  8  9  1  0
  8 20  1  0
  9 10  2  3
 10 11  1  0
 10 19  1  0
 11 12  1  0
 12 13  1  0
 13 14  2  0
 13 18  1  0
 14 15  1  0
 15 16  2  0
 16 17  1  0
 17 18  2  0
 18 19  1  0
 20 21  1  0
 20 22  2  0
M  END
