
     RDKit          3D

 13 13  0  0  0  0  0  0  0  0999 V2000
   -2.7510    1.7680   -1.3180 N   0  0  0  0  0  0  0  0  0  0  0  0
   -2.8300    0.7440   -0.5440 C   0  0  0  0  0  0  0  0  0  0  0  0
   -4.3440    0.4990    0.3850 S   0  0  0  0  0  0  0  0  0  0  0  0
   -1.7410   -0.1570   -0.4390 N   0  0  0  0  0  0  0  0  0  0  0  0
   -0.4430    0.1000   -0.4270 N   0  0  0  0  0  0  0  0  0  0  0  0
    0.2360   -1.0460   -0.3110 C   0  0  0  0  0  0  0  0  0  0  0  0
    1.5870   -1.2970   -0.2540 O   0  0  0  0  0  0  0  0  0  0  0  0
    2.6070   -0.3530   -0.3080 C   0  0  0  0  0  0  0  0  0  0  0  0
    2.5640    0.6680    0.7970 C   0  0  0  0  0  0  0  0  0  0  0  0
    3.9860    1.7790    0.5090 S   0  0  0  0  0  0  0  0  0  0  0  0
   -0.6910   -2.0200   -0.2520 N   0  0  0  0  0  0  0  0  0  0  0  0
   -1.9120   -1.4860   -0.3300 C   0  0  0  0  0  0  0  0  0  0  0  0
   -2.9810   -2.1490   -0.3020 O   0  0  0  0  0  0  0  0  0  0  0  0
  1  2  2  0
  2  3  1  0
  2  4  1  0
  4  5  1  0
  4 12  1  0
  5  6  2  0
  6  7  1  0
  6 11  1  0
  7  8  1  0
  8  9  1  0
  9 10  1  0
 11 12  1  0
 12 13  2  0
M  END
