
     RDKit          3D

 42 46  0  0  0  0  0  0  0  0999 V2000
    0.3690    0.3710   -3.7430 C   0  0  0  0  0  0  0  0  0  0  0  0
   -0.3970    0.4120   -2.5730 O   0  0  0  0  0  0  0  0  0  0  0  0
    0.2270    0.7340   -1.3690 C   0  0  0  0  0  0  0  0  0  0  0  0
    1.5620    1.0040   -1.3440 C   0  0  0  0  0  0  0  0  0  0  0  0
    2.2580    1.3330   -0.1890 C   0  0  0  0  0  0  0  0  0  0  0  0
    3.6410    1.5930   -0.2650 N   0  0  0  0  0  0  0  0  0  0  0  0
    4.3280    1.3980   -1.5310 C   0  0  0  0  0  0  0  0  0  0  0  0
    5.8280    1.2750   -1.2850 C   0  0  0  0  0  0  0  0  0  0  0  0
    5.9970    0.3260   -0.1240 C   0  0  1  0  0  0  0  0  0  0  0  0
    7.2980   -0.2320   -0.0080 N   0  0  1  0  0  0  0  0  0  0  0  0
    8.2880    0.4170   -0.8260 C   0  0  0  0  0  0  0  0  0  0  0  0
    9.6890    0.2180   -0.4210 C   0  0  0  0  0  0  0  0  0  0  0  0
    9.9700   -0.9570    0.3540 N   0  0  2  0  0  0  0  0  0  0  0  0
   10.2590   -2.1160   -0.4710 C   0  0  0  0  0  0  0  0  0  0  0  0
    9.0000   -1.2270    1.3820 C   0  0  0  0  0  0  0  0  0  0  0  0
    7.8140   -0.3000    1.3370 C   0  0  0  0  0  0  0  0  0  0  0  0
    5.5880    1.0530    1.1390 C   0  0  0  0  0  0  0  0  0  0  0  0
    4.4620    2.0520    0.8300 C   0  0  0  0  0  0  0  0  0  0  0  0
    1.5470    1.3840    0.9820 C   0  0  0  0  0  0  0  0  0  0  0  0
    0.1830    1.1090    0.9590 C   0  0  0  0  0  0  0  0  0  0  0  0
   -0.5080    0.7840   -0.1800 C   0  0  0  0  0  0  0  0  0  0  0  0
   -1.8790    0.5020   -0.2660 N   0  0  0  0  0  0  0  0  0  0  0  0
   -2.8230    0.4810    0.7980 C   0  0  0  0  0  0  0  0  0  0  0  0
   -2.5070    0.7360    2.0650 N   0  0  0  0  0  0  0  0  0  0  0  0
   -3.4050    0.7160    3.0610 C   0  0  0  0  0  0  0  0  0  0  0  0
   -4.7280    0.4160    2.7670 C   0  0  0  0  0  0  0  0  0  0  0  0
   -5.9320    0.3770    4.0260 Cl  0  0  0  0  0  0  0  0  0  0  0  0
   -5.1020    0.1430    1.4500 C   0  0  0  0  0  0  0  0  0  0  0  0
   -6.4520   -0.1570    1.1830 N   0  0  0  0  0  0  0  0  0  0  0  0
   -7.0290   -0.4590   -0.0740 C   0  0  0  0  0  0  0  0  0  0  0  0
   -6.3600   -0.4870   -1.2630 C   0  0  0  0  0  0  0  0  0  0  0  0
   -7.0210   -0.7850   -2.4530 C   0  0  0  0  0  0  0  0  0  0  0  0
   -8.3500   -1.0630   -2.5080 C   0  0  0  0  0  0  0  0  0  0  0  0
   -9.0430   -1.0380   -1.3030 C   0  0  0  0  0  0  0  0  0  0  0  0
   -8.4110   -0.7460   -0.1140 C   0  0  0  0  0  0  0  0  0  0  0  0
   -9.3080   -0.7300    1.3740 S   0  0  2  0  0  0  0  0  0  0  0  0
   -9.2650    0.6630    1.9630 O   0  0  0  0  0  0  0  0  0  0  0  0
   -8.7100   -1.7440    2.3280 O   0  0  0  0  0  0  0  0  0  0  0  0
  -10.9990   -1.1200    1.0910 C   0  0  1  0  0  0  0  0  0  0  0  0
  -11.6660   -0.0890    0.2160 C   0  0  0  0  0  0  0  0  0  0  0  0
  -11.1610   -2.5060    0.5120 C   0  0  0  0  0  0  0  0  0  0  0  0
   -4.1230    0.1930    0.5500 N   0  0  0  0  0  0  0  0  0  0  0  0
  1  2  1  0
  2  3  1  0
  3  4  2  0
  3 21  1  0
  4  5  1  0
  5  6  1  0
  5 19  2  0
  6  7  1  0
  6 18  1  0
  7  8  1  0
  9  8  1  6
  9 10  1  0
  9 17  1  0
 10 11  1  6
 10 16  1  0
 11 12  1  0
 12 13  1  0
 13 14  1  6
 13 15  1  0
 15 16  1  0
 17 18  1  0
 19 20  1  0
 20 21  2  0
 21 22  1  0
 22 23  1  0
 23 24  2  0
 23 42  1  0
 24 25  1  0
 25 26  2  0
 26 27  1  0
 26 28  1  0
 28 29  1  0
 28 42  2  0
 29 30  1  0
 30 31  2  0
 30 35  1  0
 31 32  1  0
 32 33  2  0
 33 34  1  0
 34 35  2  0
 36 35  1  6
 36 37  2  0
 36 38  2  0
 36 39  1  0
 39 40  1  6
 39 41  1  0
M  CHG  2  10   1  13   1
M  END
