
     RDKit          3D

 41 42  0  0  0  0  0  0  0  0999 V2000
    7.3040    2.3500    0.8270 C   0  0  0  0  0  0  0  0  0  0  0  0
    6.8430    2.9990   -0.2190 C   0  0  0  0  0  0  0  0  0  0  0  0
    6.9570    4.4580   -0.4380 C   0  0  0  0  0  0  0  0  0  0  0  0
    6.8210    4.5380   -1.8770 N   0  0  0  0  0  0  0  0  0  0  0  0
    6.1430    3.3580   -2.3130 C   0  0  0  0  0  0  0  0  0  0  0  0
    5.5460    3.2730   -3.6650 C   0  0  0  0  0  0  0  0  0  0  0  0
    6.1310    2.4410   -1.3910 C   0  0  0  0  0  0  0  0  0  0  0  0
    5.5690    1.0820   -1.4120 C   0  0  0  0  0  0  0  0  0  0  0  0
    4.4650    0.8930   -0.4320 C   0  0  0  0  0  0  0  0  0  0  0  0
    3.9560    1.8440    0.2180 O   0  0  0  0  0  0  0  0  0  0  0  0
    3.9050   -0.3820   -0.1600 N   0  0  0  0  0  0  0  0  0  0  0  0
    2.7990   -0.5430    0.8140 C   0  0  1  0  0  0  0  0  0  0  0  0
    1.7560   -1.3570    0.2600 C   0  0  0  0  0  0  0  0  0  0  0  0
    2.1470   -2.2300   -0.6230 O   0  0  0  0  0  0  0  0  0  0  0  0
    0.3640   -1.4070    0.4790 N   0  0  0  0  0  0  0  0  0  0  0  0
   -0.1670   -0.4100    1.3790 C   0  0  0  0  0  0  0  0  0  0  0  0
   -1.2870   -0.8950    2.2510 C   0  0  0  0  0  0  0  0  0  0  0  0
   -2.3490   -1.4240    1.3330 C   0  0  2  0  0  0  0  0  0  0  0  0
   -2.8670   -0.3740    0.4770 N   0  0  0  0  0  0  0  0  0  0  0  0
   -3.8200   -0.6340   -0.5320 C   0  0  0  0  0  0  0  0  0  0  0  0
   -4.4220    0.2720   -1.3020 C   0  0  0  0  0  0  0  0  0  0  0  0
   -5.4010   -0.2500   -2.3080 C   0  0  0  0  0  0  0  0  0  0  0  0
   -4.1680    1.6810   -1.2140 C   0  0  0  0  0  0  0  0  0  0  0  0
   -4.6450    2.6900   -1.8550 C   0  0  0  0  0  0  0  0  0  0  0  0
   -5.6490    2.6300   -2.9160 C   0  0  0  0  0  0  0  0  0  0  0  0
   -4.1380    4.0890   -1.5150 C   0  0  0  0  0  0  0  0  0  0  0  0
   -5.2360    4.9130   -1.0720 N   0  0  0  0  0  0  0  0  0  0  0  0
   -3.5140   -1.9600    2.1120 C   0  0  0  0  0  0  0  0  0  0  0  0
   -4.6390   -1.4600    1.9010 O   0  0  0  0  0  0  0  0  0  0  0  0
   -3.4070   -2.9740    3.0470 O   0  0  0  0  0  0  0  0  0  0  0  0
   -4.5100   -3.4760    3.7770 C   0  0  0  0  0  0  0  0  0  0  0  0
   -5.5810   -4.0500    2.8550 C   0  0  0  0  0  0  0  0  0  0  0  0
   -1.7900   -2.5880    0.5840 C   0  0  0  0  0  0  0  0  0  0  0  0
   -0.4940   -2.3880   -0.1240 C   0  0  2  0  0  0  0  0  0  0  0  0
    0.2560   -3.7300   -0.0290 C   0  0  0  0  0  0  0  0  0  0  0  0
   -0.7030   -2.1320   -1.5750 C   0  0  0  0  0  0  0  0  0  0  0  0
   -1.5740   -3.0860   -2.3100 C   0  0  0  0  0  0  0  0  0  0  0  0
   -1.1450   -4.4050   -2.3080 O   0  0  0  0  0  0  0  0  0  0  0  0
    3.4940   -1.0640    2.0410 C   0  0  2  0  0  0  0  0  0  0  0  0
    2.6770   -1.3460    3.2360 C   0  0  0  0  0  0  0  0  0  0  0  0
    4.6380   -0.1580    2.4680 C   0  0  0  0  0  0  0  0  0  0  0  0
  1  2  2  0
  2  3  1  0
  2  7  1  0
  3  4  1  0
  4  5  1  0
  5  6  1  0
  5  7  2  0
  7  8  1  0
  8  9  1  0
  9 10  2  0
  9 11  1  0
 12 11  1  6
 12 13  1  0
 12 39  1  0
 13 14  2  0
 13 15  1  0
 15 16  1  0
 15 34  1  0
 16 17  1  0
 17 18  1  0
 18 19  1  6
 18 28  1  0
 18 33  1  0
 19 20  1  0
 20 21  2  3
 21 22  1  0
 21 23  1  0
 23 24  2  3
 24 25  1  0
 24 26  1  0
 26 27  1  0
 28 29  2  0
 28 30  1  0
 30 31  1  0
 31 32  1  0
 33 34  1  0
 34 35  1  6
 34 36  1  0
 36 37  1  0
 37 38  1  0
 39 40  1  1
 39 41  1  0
M  CHG  1  27   1
M  END
