
     RDKit          3D

 42 45  0  0  0  0  0  0  0  0999 V2000
    9.4580    1.0090    2.8090 C   0  0  0  0  0  0  0  0  0  0  0  0
    9.1420   -0.4150    3.1400 C   0  0  0  0  0  0  0  0  0  0  0  0
    7.7350   -0.7280    2.8320 C   0  0  0  0  0  0  0  0  0  0  0  0
    7.1820   -0.6100    1.5050 C   0  0  0  0  0  0  0  0  0  0  0  0
    7.6140   -0.3820    0.3100 C   0  0  0  0  0  0  0  0  0  0  0  0
    6.5080   -0.3620   -0.7870 C   0  0  0  0  0  0  0  0  0  0  0  0
    5.2790   -0.5950   -0.2380 O   0  0  0  0  0  0  0  0  0  0  0  0
    4.2430   -0.5840   -1.1500 C   0  0  2  0  0  0  0  0  0  0  0  0
    4.2460    0.6930   -1.7340 O   0  0  0  0  0  0  0  0  0  0  0  0
    2.9110   -0.6810   -0.4220 C   0  0  0  0  0  0  0  0  0  0  0  0
    1.8500   -0.5560   -1.4880 C   0  0  0  0  0  0  0  0  0  0  0  0
    0.7570    0.2260   -1.2710 C   0  0  0  0  0  0  0  0  0  0  0  0
   -0.2210    0.3830   -2.2650 C   0  0  0  0  0  0  0  0  0  0  0  0
   -1.3960    1.2160   -2.0770 C   0  0  0  0  0  0  0  0  0  0  0  0
   -2.0000    1.8830   -3.1270 C   0  0  0  0  0  0  0  0  0  0  0  0
   -3.1070    2.6800   -2.9500 C   0  0  0  0  0  0  0  0  0  0  0  0
   -3.6300    2.8110   -1.6530 C   0  0  0  0  0  0  0  0  0  0  0  0
   -3.0730    2.1710   -0.5710 C   0  0  0  0  0  0  0  0  0  0  0  0
   -3.6280    2.3300    0.7920 C   0  0  0  0  0  0  0  0  0  0  0  0
   -4.7130    1.4190    1.0110 N   0  0  0  0  0  0  0  0  0  0  0  0
   -4.4690    0.1850    1.4680 C   0  0  0  0  0  0  0  0  0  0  0  0
   -3.2900   -0.2090    1.7050 O   0  0  0  0  0  0  0  0  0  0  0  0
   -5.4670   -0.7130    1.7040 N   0  0  0  0  0  0  0  0  0  0  0  0
   -6.7460   -0.3510    1.4710 C   0  0  0  0  0  0  0  0  0  0  0  0
   -7.8320   -1.3550    1.7550 C   0  0  1  0  0  0  0  0  0  0  0  0
   -7.2050   -2.7270    2.0090 C   0  0  0  0  0  0  0  0  0  0  0  0
   -8.5500   -0.9560    3.0220 C   0  0  0  0  0  0  0  0  0  0  0  0
   -7.0450    0.9040    1.0020 C   0  0  0  0  0  0  0  0  0  0  0  0
   -8.4430    1.2710    0.7430 C   0  0  0  0  0  0  0  0  0  0  0  0
   -8.9940    0.6930   -0.5170 C   0  0  0  0  0  0  0  0  0  0  0  0
   -5.9850    1.7710    0.7820 C   0  0  0  0  0  0  0  0  0  0  0  0
   -6.2970    2.9020    0.3590 O   0  0  0  0  0  0  0  0  0  0  0  0
   -1.9560    1.3800   -0.8110 C   0  0  0  0  0  0  0  0  0  0  0  0
   -0.0050   -0.2900   -3.4400 C   0  0  0  0  0  0  0  0  0  0  0  0
    1.1060   -1.0850   -3.6580 C   0  0  0  0  0  0  0  0  0  0  0  0
    2.0690   -1.2410   -2.6830 C   0  0  0  0  0  0  0  0  0  0  0  0
    3.2380   -2.0970   -2.8750 C   0  0  1  0  0  0  0  0  0  0  0  0
    3.5870   -2.1800   -4.2460 O   0  0  0  0  0  0  0  0  0  0  0  0
    4.4520   -1.6560   -2.1570 C   0  0  0  0  0  0  0  0  0  0  0  0
    8.9860   -0.1420   -0.1820 C   0  0  1  0  0  0  0  0  0  0  0  0
    9.2320    1.2030   -0.3370 F   0  0  0  0  0  0  0  0  0  0  0  0
    9.9820   -0.8730    0.3660 F   0  0  0  0  0  0  0  0  0  0  0  0
  1  2  1  0
  2  3  1  0
  3  4  1  0
  4  5  2  3
  5  6  1  0
  5 40  1  0
  6  7  1  0
  7  8  1  0
  8  9  1  6
  8 10  1  0
  8 39  1  0
 10 11  1  0
 11 12  2  0
 11 36  1  0
 12 13  1  0
 13 14  1  0
 13 34  2  0
 14 15  2  0
 14 33  1  0
 15 16  1  0
 16 17  2  0
 17 18  1  0
 18 19  1  0
 18 33  2  0
 19 20  1  0
 20 21  1  0
 20 31  1  0
 21 22  2  0
 21 23  1  0
 23 24  1  0
 24 25  1  0
 24 28  2  0
 25 26  1  1
 25 27  1  0
 28 29  1  0
 28 31  1  0
 29 30  1  0
 31 32  2  0
 34 35  1  0
 35 36  2  0
 36 37  1  0
 37 38  1  6
 37 39  1  0
 40 41  1  1
 40 42  1  0
M  END
