
     RDKit          3D

 42 45  0  0  0  0  0  0  0  0999 V2000
   -0.5810   -6.2540   -1.0700 C   0  0  0  0  0  0  0  0  0  0  0  0
   -1.6840   -5.5250   -0.3940 C   0  0  0  0  0  0  0  0  0  0  0  0
   -2.4330   -4.5190   -1.1930 C   0  0  0  0  0  0  0  0  0  0  0  0
   -1.6660   -3.3980   -1.7280 C   0  0  0  0  0  0  0  0  0  0  0  0
   -1.6750   -2.1840   -1.0530 C   0  0  0  0  0  0  0  0  0  0  0  0
   -0.9700   -1.0840   -1.4720 C   0  0  0  0  0  0  0  0  0  0  0  0
   -1.0160    0.2100   -0.7250 C   0  0  0  0  0  0  0  0  0  0  0  0
   -0.5770    1.3260   -1.5140 N   0  0  0  0  0  0  0  0  0  0  0  0
   -1.6550    2.0430   -2.2190 C   0  0  0  0  0  0  0  0  0  0  0  0
   -2.2150    3.1070   -1.3780 C   0  0  0  0  0  0  0  0  0  0  0  0
   -1.6920    3.2790   -0.1060 C   0  0  0  0  0  0  0  0  0  0  0  0
   -2.1610    4.2560    0.7610 C   0  0  0  0  0  0  0  0  0  0  0  0
   -1.6180    4.4040    2.0280 C   0  0  0  0  0  0  0  0  0  0  0  0
   -0.6170    3.5770    2.4140 F   0  0  0  0  0  0  0  0  0  0  0  0
   -2.0910    5.3680    2.8700 C   0  0  0  0  0  0  0  0  0  0  0  0
   -3.1170    6.1840    2.4200 C   0  0  0  0  0  0  0  0  0  0  0  0
   -3.5840    7.1480    3.2720 O   0  0  0  0  0  0  0  0  0  0  0  0
   -3.6450    6.0250    1.1590 C   0  0  0  0  0  0  0  0  0  0  0  0
   -4.7380    6.9010    0.6840 C   0  0  0  0  0  0  0  0  0  0  0  0
   -3.1810    5.0580    0.2970 C   0  0  0  0  0  0  0  0  0  0  0  0
   -3.7080    4.8880   -0.9770 C   0  0  0  0  0  0  0  0  0  0  0  0
   -3.2320    3.9140   -1.8280 C   0  0  0  0  0  0  0  0  0  0  0  0
   -3.7740    3.7730   -3.0750 F   0  0  0  0  0  0  0  0  0  0  0  0
    0.7490    1.7260   -1.6090 C   0  0  0  0  0  0  0  0  0  0  0  0
    0.9730    2.7710   -2.3690 O   0  0  0  0  0  0  0  0  0  0  0  0
    1.9060    1.1320   -0.9730 C   0  0  0  0  0  0  0  0  0  0  0  0
    1.7340    0.0040   -0.1890 O   0  0  0  0  0  0  0  0  0  0  0  0
    2.8470   -0.5340    0.4310 C   0  0  0  0  0  0  0  0  0  0  0  0
    4.0980    0.0210    0.2850 C   0  0  0  0  0  0  0  0  0  0  0  0
    5.1580   -0.5570    0.9260 C   0  0  0  0  0  0  0  0  0  0  0  0
    5.0560   -1.6860    1.7290 C   0  0  0  0  0  0  0  0  0  0  0  0
    6.2230   -2.2470    2.3890 C   0  0  0  0  0  0  0  0  0  0  0  0
    6.2120   -3.3080    3.1630 C   0  0  0  0  0  0  0  0  0  0  0  0
    7.4360   -3.7940    3.7820 C   0  0  0  0  0  0  0  0  0  0  0  0
    8.5110   -3.1480    3.5460 O   0  0  0  0  0  0  0  0  0  0  0  0
    3.7910   -2.2140    1.8520 C   0  0  0  0  0  0  0  0  0  0  0  0
    2.6880   -1.6460    1.2100 C   0  0  0  0  0  0  0  0  0  0  0  0
    1.4670   -2.2280    1.3820 O   0  0  0  0  0  0  0  0  0  0  0  0
   -0.1990   -1.1400   -2.6130 C   0  0  0  0  0  0  0  0  0  0  0  0
   -0.1760   -2.3360   -3.3000 C   0  0  0  0  0  0  0  0  0  0  0  0
   -0.9010   -3.4540   -2.8630 C   0  0  0  0  0  0  0  0  0  0  0  0
   -0.8610   -4.6420   -3.6350 N   0  0  0  0  0  0  0  0  0  0  0  0
  1  2  1  0
  2  3  1  0
  3  4  1  0
  4  5  2  0
  4 41  1  0
  5  6  1  0
  6  7  1  0
  6 39  2  0
  7  8  1  0
  8  9  1  0
  8 24  1  0
  9 10  1  0
 10 11  2  0
 10 22  1  0
 11 12  1  0
 12 13  2  0
 12 20  1  0
 13 14  1  0
 13 15  1  0
 15 16  2  0
 16 17  1  0
 16 18  1  0
 18 19  1  0
 18 20  2  0
 20 21  1  0
 21 22  2  0
 22 23  1  0
 24 25  2  0
 24 26  1  0
 26 27  1  0
 27 28  1  0
 28 29  2  0
 28 37  1  0
 29 30  1  0
 30 31  2  0
 31 32  1  0
 31 36  1  0
 32 33  2  3
 33 34  1  0
 34 35  2  0
 36 37  2  0
 37 38  1  0
 39 40  1  0
 40 41  2  0
 41 42  1  0
M  END
