
     RDKit          3D

 42 45  0  0  0  0  0  0  0  0999 V2000
   -3.3550    5.1160   -2.9830 C   0  0  0  0  0  0  0  0  0  0  0  0
   -3.1090    3.8690   -2.5990 C   0  0  0  0  0  0  0  0  0  0  0  0
   -4.0850    3.2430   -1.7020 C   0  0  1  0  0  0  0  0  0  0  0  0
   -5.3260    2.9550   -2.5710 C   0  0  0  0  0  0  0  0  0  0  0  0
   -3.6750    1.9060   -1.2440 N   0  0  0  0  0  0  0  0  0  0  0  0
   -3.8930    1.4400    0.0740 C   0  0  0  0  0  0  0  0  0  0  0  0
   -4.5050    2.3110    0.8110 O   0  0  0  0  0  0  0  0  0  0  0  0
   -3.5220    0.1570    0.6220 C   0  0  0  0  0  0  0  0  0  0  0  0
   -4.4840   -0.6150    1.3130 C   0  0  0  0  0  0  0  0  0  0  0  0
   -4.2540   -1.8600    1.7980 C   0  0  0  0  0  0  0  0  0  0  0  0
   -3.0060   -2.4260    1.6130 C   0  0  0  0  0  0  0  0  0  0  0  0
   -2.0330   -1.7150    0.9470 C   0  0  0  0  0  0  0  0  0  0  0  0
   -2.3050   -0.4190    0.4560 C   0  0  0  0  0  0  0  0  0  0  0  0
   -1.1830    0.3320   -0.1630 C   0  0  0  0  0  0  0  0  0  0  0  0
    0.0410   -0.4940   -0.2270 N   0  0  0  0  0  0  0  0  0  0  0  0
    0.3350   -1.2850   -1.3800 C   0  0  0  0  0  0  0  0  0  0  0  0
    1.1330   -0.5310   -2.4410 C   0  0  0  0  0  0  0  0  0  0  0  0
    0.3720    0.5720   -2.8380 O   0  0  0  0  0  0  0  0  0  0  0  0
    0.9330   -0.4900    0.8710 C   0  0  0  0  0  0  0  0  0  0  0  0
    0.7090    0.1680    1.9100 O   0  0  0  0  0  0  0  0  0  0  0  0
    2.1870   -1.2720    0.8440 C   0  0  0  0  0  0  0  0  0  0  0  0
    2.2370   -2.6020    1.1650 C   0  0  0  0  0  0  0  0  0  0  0  0
    3.4260   -3.2990    1.0910 C   0  0  0  0  0  0  0  0  0  0  0  0
    4.5900   -2.6770    0.6930 C   0  0  0  0  0  0  0  0  0  0  0  0
    5.9070   -3.3900    0.5840 C   0  0  0  0  0  0  0  0  0  0  0  0
    4.5350   -1.3510    0.3750 C   0  0  0  0  0  0  0  0  0  0  0  0
    3.3460   -0.6350    0.4450 C   0  0  0  0  0  0  0  0  0  0  0  0
    3.2940    0.7300    0.1200 O   0  0  0  0  0  0  0  0  0  0  0  0
    4.4110    1.4200   -0.2500 C   0  0  0  0  0  0  0  0  0  0  0  0
    5.1460    2.0350    0.7500 C   0  0  0  0  0  0  0  0  0  0  0  0
    6.2840    2.7580    0.5200 C   0  0  0  0  0  0  0  0  0  0  0  0
    6.7430    2.8930   -0.7920 C   0  0  0  0  0  0  0  0  0  0  0  0
    7.9770    3.6750   -1.0630 C   0  0  1  0  0  0  0  0  0  0  0  0
    7.7780    4.9730   -0.6360 F   0  0  0  0  0  0  0  0  0  0  0  0
    9.0720    3.1410   -0.4110 F   0  0  0  0  0  0  0  0  0  0  0  0
    6.0140    2.2830   -1.7830 C   0  0  0  0  0  0  0  0  0  0  0  0
    4.8590    1.5510   -1.5390 C   0  0  0  0  0  0  0  0  0  0  0  0
   -3.0000   -3.7980    2.2280 C   0  0  0  0  0  0  0  0  0  0  0  0
   -4.1300   -3.7060    3.2220 C   0  0  0  0  0  0  0  0  0  0  0  0
   -5.1200   -2.8040    2.5350 C   0  0  1  0  0  0  0  0  0  0  0  0
   -6.0340   -2.1220    3.5410 C   0  0  0  0  0  0  0  0  0  0  0  0
   -6.8460   -1.2450    2.8630 O   0  0  0  0  0  0  0  0  0  0  0  0
  1  2  2  0
  2  3  1  0
  3  4  1  6
  3  5  1  0
  5  6  1  0
  6  7  2  0
  6  8  1  0
  8  9  2  0
  8 13  1  0
  9 10  1  0
 10 11  2  0
 10 40  1  0
 11 12  1  0
 11 38  1  0
 12 13  2  0
 13 14  1  0
 14 15  1  0
 15 16  1  0
 15 19  1  0
 16 17  1  0
 17 18  1  0
 19 20  2  0
 19 21  1  0
 21 22  2  0
 21 27  1  0
 22 23  1  0
 23 24  2  0
 24 25  1  0
 24 26  1  0
 26 27  2  0
 27 28  1  0
 28 29  1  0
 29 30  2  0
 29 37  1  0
 30 31  1  0
 31 32  2  0
 32 33  1  0
 32 36  1  0
 33 34  1  1
 33 35  1  0
 36 37  2  0
 38 39  1  0
 39 40  1  0
 40 41  1  1
 41 42  1  0
M  END
