
     RDKit          3D

 42 45  0  0  0  0  0  0  0  0999 V2000
    4.4040    0.6790    2.9990 C   0  0  0  0  0  0  0  0  0  0  0  0
    4.9430    0.8700    1.8050 C   0  0  0  0  0  0  0  0  0  0  0  0
    6.2650    0.2690    1.4300 C   0  0  1  0  0  0  0  0  0  0  0  0
    7.2830    0.6230    2.5090 C   0  0  0  0  0  0  0  0  0  0  0  0
    6.1840   -1.1930    1.2370 C   0  0  0  0  0  0  0  0  0  0  0  0
    6.9020   -2.0210    2.1040 C   0  0  0  0  0  0  0  0  0  0  0  0
    6.8710   -3.4000    1.9650 C   0  0  0  0  0  0  0  0  0  0  0  0
    6.1220   -3.9450    0.9610 C   0  0  0  0  0  0  0  0  0  0  0  0
    5.4190   -3.1170    0.1150 C   0  0  0  0  0  0  0  0  0  0  0  0
    4.6600   -3.6820   -0.9030 O   0  0  0  0  0  0  0  0  0  0  0  0
    5.4300   -1.7470    0.2270 C   0  0  0  0  0  0  0  0  0  0  0  0
    4.6670   -0.9690   -0.6820 N   0  0  0  0  0  0  0  0  0  0  0  0
    3.3100   -0.6390   -0.5360 C   0  0  0  0  0  0  0  0  0  0  0  0
    2.7180   -1.0870    0.5080 O   0  0  0  0  0  0  0  0  0  0  0  0
    2.5330    0.1630   -1.4680 C   0  0  0  0  0  0  0  0  0  0  0  0
    3.1340    0.9030   -2.4540 C   0  0  0  0  0  0  0  0  0  0  0  0
    2.4310    1.6600   -3.3380 N   0  0  0  0  0  0  0  0  0  0  0  0
    1.0840    1.6760   -3.2290 C   0  0  0  0  0  0  0  0  0  0  0  0
    0.3930    2.3780   -4.0440 O   0  0  0  0  0  0  0  0  0  0  0  0
    0.3930    0.9620   -2.2670 C   0  0  0  0  0  0  0  0  0  0  0  0
   -1.0590    1.0040   -2.1750 C   0  0  0  0  0  0  0  0  0  0  0  0
   -1.7580    2.2090   -2.2160 C   0  0  0  0  0  0  0  0  0  0  0  0
   -3.1290    2.2760   -2.1280 C   0  0  0  0  0  0  0  0  0  0  0  0
   -3.8830    3.5230   -2.2100 C   0  0  0  0  0  0  0  0  0  0  0  0
   -3.2250    4.7000   -2.2580 O   0  0  0  0  0  0  0  0  0  0  0  0
   -2.5390    5.1150   -1.1560 C   0  0  0  0  0  0  0  0  0  0  0  0
   -3.8960    1.1100   -1.9920 C   0  0  0  0  0  0  0  0  0  0  0  0
   -5.2910    1.2070   -1.9090 O   0  0  0  0  0  0  0  0  0  0  0  0
   -6.1770    0.1600   -1.7550 C   0  0  0  0  0  0  0  0  0  0  0  0
   -5.9940   -0.5100   -0.4610 C   0  0  0  0  0  0  0  0  0  0  0  0
   -5.1200   -0.0490    0.4850 C   0  0  0  0  0  0  0  0  0  0  0  0
   -5.0070   -0.7010    1.7220 C   0  0  0  0  0  0  0  0  0  0  0  0
   -5.7850   -1.8080    1.9770 C   0  0  0  0  0  0  0  0  0  0  0  0
   -5.6730   -2.5110    3.2810 C   0  0  0  0  0  0  0  0  0  0  0  0
   -4.6090   -3.5980    3.1610 C   0  0  0  0  0  0  0  0  0  0  0  0
   -6.6860   -2.2950    1.0250 C   0  0  0  0  0  0  0  0  0  0  0  0
   -6.7620   -1.6240   -0.1750 C   0  0  0  0  0  0  0  0  0  0  0  0
   -7.6180   -2.0570   -1.1280 F   0  0  0  0  0  0  0  0  0  0  0  0
   -3.2070   -0.0770   -1.9530 C   0  0  0  0  0  0  0  0  0  0  0  0
   -1.8230   -0.1300   -2.0410 C   0  0  0  0  0  0  0  0  0  0  0  0
   -1.1890   -1.3240   -1.9960 F   0  0  0  0  0  0  0  0  0  0  0  0
    1.1440    0.2090   -1.3930 C   0  0  0  0  0  0  0  0  0  0  0  0
  1  2  2  0
  2  3  1  0
  3  4  1  1
  3  5  1  0
  5  6  2  0
  5 11  1  0
  6  7  1  0
  7  8  2  0
  8  9  1  0
  9 10  1  0
  9 11  2  0
 11 12  1  0
 12 13  1  0
 13 14  2  0
 13 15  1  0
 15 16  2  0
 15 42  1  0
 16 17  1  0
 17 18  1  0
 18 19  2  0
 18 20  1  0
 20 21  1  0
 20 42  2  0
 21 22  2  0
 21 40  1  0
 22 23  1  0
 23 24  1  0
 23 27  2  0
 24 25  1  0
 25 26  1  0
 27 28  1  0
 27 39  1  0
 28 29  1  0
 29 30  1  0
 30 31  2  0
 30 37  1  0
 31 32  1  0
 32 33  2  0
 33 34  1  0
 33 36  1  0
 34 35  1  0
 36 37  2  0
 37 38  1  0
 39 40  2  0
 40 41  1  0
M  END
