
     RDKit          3D

 42 45  0  0  0  0  0  0  0  0999 V2000
    1.5170    3.3980    2.7940 C   0  0  0  0  0  0  0  0  0  0  0  0
    0.5280    2.2740    3.0290 C   0  0  0  0  0  0  0  0  0  0  0  0
    0.0780    1.7400    1.7260 C   0  0  0  0  0  0  0  0  0  0  0  0
   -1.1890    1.7900    1.3720 C   0  0  0  0  0  0  0  0  0  0  0  0
   -2.2870    2.3390    2.1390 C   0  0  0  0  0  0  0  0  0  0  0  0
   -3.5230    2.3350    1.6820 C   0  0  0  0  0  0  0  0  0  0  0  0
   -4.5860    2.8880    2.4720 C   0  0  0  0  0  0  0  0  0  0  0  0
   -5.7900    2.9280    2.1210 O   0  0  0  0  0  0  0  0  0  0  0  0
   -3.7820    1.7790    0.4060 N   0  0  0  0  0  0  0  0  0  0  0  0
   -4.4300    0.5160    0.3840 C   0  0  0  0  0  0  0  0  0  0  0  0
   -4.7910   -0.1450    1.5370 C   0  0  0  0  0  0  0  0  0  0  0  0
   -5.4230   -1.3770    1.5710 C   0  0  0  0  0  0  0  0  0  0  0  0
   -5.7020   -1.9640    0.3650 C   0  0  0  0  0  0  0  0  0  0  0  0
   -5.3450   -1.3130   -0.8280 C   0  0  0  0  0  0  0  0  0  0  0  0
   -5.6360   -1.9240   -2.0300 C   0  0  0  0  0  0  0  0  0  0  0  0
   -5.3210   -1.3560   -3.2520 C   0  0  0  0  0  0  0  0  0  0  0  0
   -4.6990   -0.1430   -3.2530 C   0  0  0  0  0  0  0  0  0  0  0  0
   -4.3380    0.5120   -4.5360 C   0  0  0  0  0  0  0  0  0  0  0  0
   -4.4090    0.4690   -2.0370 C   0  0  0  0  0  0  0  0  0  0  0  0
   -4.7150   -0.0830   -0.8160 C   0  0  0  0  0  0  0  0  0  0  0  0
   -6.3730   -3.2670    0.5900 C   0  0  0  0  0  0  0  0  0  0  0  0
   -6.8110   -3.2110    2.0160 C   0  0  0  0  0  0  0  0  0  0  0  0
   -5.8840   -2.2350    2.7050 C   0  0  0  0  0  0  0  0  0  0  0  0
    1.0290    1.1330    0.7930 C   0  0  0  0  0  0  0  0  0  0  0  0
    2.3130    1.0110    1.0230 C   0  0  0  0  0  0  0  0  0  0  0  0
    3.2320    0.4030    0.0750 C   0  0  0  0  0  0  0  0  0  0  0  0
    4.5180    0.2890    0.3240 C   0  0  0  0  0  0  0  0  0  0  0  0
    5.0350    0.7690    1.5490 N   0  0  0  0  0  0  0  0  0  0  0  0
    5.4050   -0.3240   -0.6560 C   0  0  0  0  0  0  0  0  0  0  0  0
    6.7860   -0.5180   -0.5190 C   0  0  0  0  0  0  0  0  0  0  0  0
    7.2570   -1.1240   -1.6500 C   0  0  0  0  0  0  0  0  0  0  0  0
    8.5180   -1.5150   -1.9980 O   0  0  0  0  0  0  0  0  0  0  0  0
    9.7240   -1.4720   -1.3780 C   0  0  0  0  0  0  0  0  0  0  0  0
    9.9210   -2.2490   -0.1220 C   0  0  1  0  0  0  0  0  0  0  0  0
   11.2480   -2.0130    0.2770 F   0  0  0  0  0  0  0  0  0  0  0  0
    9.1480   -1.9350    0.9370 F   0  0  0  0  0  0  0  0  0  0  0  0
    6.1030   -1.2790   -2.4570 C   0  0  0  0  0  0  0  0  0  0  0  0
    6.1470   -1.8960   -3.7860 C   0  0  0  0  0  0  0  0  0  0  0  0
    7.2050   -2.3190   -4.2810 O   0  0  0  0  0  0  0  0  0  0  0  0
    5.0860   -0.8020   -1.8280 O   0  0  0  0  0  0  0  0  0  0  0  0
    0.5460    0.6540   -0.4120 O   0  0  0  0  0  0  0  0  0  0  0  0
    0.4820    1.5180   -1.5230 C   0  0  0  0  0  0  0  0  0  0  0  0
  1  2  1  0
  2  3  1  0
  3  4  2  3
  3 24  1  0
  4  5  1  0
  5  6  2  3
  6  7  1  0
  6  9  1  0
  7  8  2  0
  9 10  1  0
 10 11  2  0
 10 20  1  0
 11 12  1  0
 12 13  2  0
 12 23  1  0
 13 14  1  0
 13 21  1  0
 14 15  2  0
 14 20  1  0
 15 16  1  0
 16 17  2  0
 17 18  1  0
 17 19  1  0
 19 20  2  0
 21 22  1  0
 22 23  1  0
 24 25  2  3
 24 41  1  0
 25 26  1  0
 26 27  2  3
 27 28  1  0
 27 29  1  0
 29 30  2  0
 29 40  1  0
 30 31  1  0
 31 32  1  0
 31 37  2  0
 32 33  1  0
 33 34  1  0
 34 35  1  1
 34 36  1  0
 37 38  1  0
 37 40  1  0
 38 39  2  0
 41 42  1  0
M  END
