
     RDKit          3D

 19 20  0  0  0  0  0  0  0  0999 V2000
   -0.6600    0.4690    0.8940 N   0  0  0  0  0  0  0  0  0  0  0  0
   -1.4920   -0.3410    0.0750 C   0  0  2  0  0  0  0  0  0  0  0  0
   -0.9900   -0.4820   -1.3260 C   0  0  0  0  0  0  0  0  0  0  0  0
    0.2570   -1.0760   -1.4660 O   0  0  0  0  0  0  0  0  0  0  0  0
    1.4820   -0.6540   -1.0260 C   0  0  0  0  0  0  0  0  0  0  0  0
    1.5660    0.4130   -0.4070 O   0  0  0  0  0  0  0  0  0  0  0  0
    2.6490   -1.5250   -1.3290 C   0  0  0  0  0  0  0  0  0  0  0  0
    3.9340   -0.9600   -0.7980 C   0  0  2  0  0  0  0  0  0  0  0  0
    3.9100   -0.7920    0.6400 N   0  0  0  0  0  0  0  0  0  0  0  0
    4.8740    0.1570    1.0590 C   0  0  0  0  0  0  0  0  0  0  0  0
    5.7390    0.0110    1.9910 O   0  0  0  0  0  0  0  0  0  0  0  0
    4.8040    1.4240    0.2850 C   0  0  0  0  0  0  0  0  0  0  0  0
    4.1370    0.7930   -1.3080 S   0  0  0  0  0  0  0  0  0  0  0  0
   -2.9230    0.0940    0.1030 C   0  0  0  0  0  0  0  0  0  0  0  0
   -3.3260    1.1950    0.6810 C   0  0  0  0  0  0  0  0  0  0  0  0
   -4.7500    1.6410    0.7150 C   0  0  0  0  0  0  0  0  0  0  0  0
   -5.6140    0.7400    0.0610 O   0  0  0  0  0  0  0  0  0  0  0  0
   -5.2090   -0.4150   -0.5480 C   0  0  0  0  0  0  0  0  0  0  0  0
   -3.9340   -0.7410   -0.5410 C   0  0  0  0  0  0  0  0  0  0  0  0
  2  1  1  1
  2  3  1  0
  2 14  1  0
  3  4  1  0
  4  5  1  0
  5  6  2  0
  5  7  1  0
  8  7  1  6
  8  9  1  0
  8 13  1  0
  9 10  1  0
 10 11  2  0
 10 12  1  0
 12 13  1  0
 14 15  2  0
 14 19  1  0
 15 16  1  0
 16 17  1  0
 17 18  1  0
 18 19  2  0
M  END
