
     RDKit          3D

 22 23  0  0  0  0  0  0  0  0999 V2000
    5.6590    0.5460   -0.9830 C   0  0  0  0  0  0  0  0  0  0  0  0
    4.9530    1.2180    0.0270 O   0  0  0  0  0  0  0  0  0  0  0  0
    3.7070    0.7240    0.3940 C   0  0  0  0  0  0  0  0  0  0  0  0
    2.9740    1.3430    1.3760 C   0  0  0  0  0  0  0  0  0  0  0  0
    1.7280    0.8860    1.7740 C   0  0  0  0  0  0  0  0  0  0  0  0
    1.1690   -0.2290    1.1860 C   0  0  0  0  0  0  0  0  0  0  0  0
   -0.1380   -0.7340    1.5650 C   0  0  0  0  0  0  0  0  0  0  0  0
   -1.3200   -0.3170    0.7940 C   0  0  1  0  0  0  0  0  0  0  0  0
   -1.6260    1.1130    0.7210 C   0  0  0  0  0  0  0  0  0  0  0  0
   -0.8270    1.9590    0.9750 O   0  0  0  0  0  0  0  0  0  0  0  0
   -2.9930    1.5140    0.3110 C   0  0  1  0  0  0  0  0  0  0  0  0
   -3.0790    2.9060    0.1530 O   0  0  0  0  0  0  0  0  0  0  0  0
   -3.1830    0.9050   -1.0730 C   0  0  2  0  0  0  0  0  0  0  0  0
   -4.5390    1.0310   -1.3700 O   0  0  0  0  0  0  0  0  0  0  0  0
   -2.8370   -0.5370   -1.1160 C   0  0  0  0  0  0  0  0  0  0  0  0
   -1.4560   -0.8850   -0.5940 C   0  0  1  0  0  0  0  0  0  0  0  0
   -0.5230   -0.3080   -1.4220 O   0  0  0  0  0  0  0  0  0  0  0  0
   -1.4120   -2.3850   -0.6090 C   0  0  0  0  0  0  0  0  0  0  0  0
   -0.6290   -3.0310   -1.3470 O   0  0  0  0  0  0  0  0  0  0  0  0
   -2.2530   -3.1210    0.2110 O   0  0  0  0  0  0  0  0  0  0  0  0
    1.8960   -0.8580    0.2000 C   0  0  0  0  0  0  0  0  0  0  0  0
    3.1410   -0.3890   -0.1870 C   0  0  0  0  0  0  0  0  0  0  0  0
  1  2  1  0
  2  3  1  0
  3  4  2  0
  3 22  1  0
  4  5  1  0
  5  6  2  0
  6  7  1  0
  6 21  1  0
  8  7  1  6
  8  9  1  0
  8 16  1  0
  9 10  2  0
  9 11  1  0
 11 12  1  6
 11 13  1  0
 13 14  1  1
 13 15  1  0
 15 16  1  0
 16 17  1  6
 16 18  1  0
 18 19  2  0
 18 20  1  0
 21 22  2  0
M  END
