
     RDKit          3D

 18 19  0  0  0  0  0  0  0  0999 V2000
   -1.9800    2.2500    1.2600 N   0  0  0  0  0  0  0  0  0  0  0  0
   -3.1530    1.6120    0.9290 C   0  0  0  0  0  0  0  0  0  0  0  0
   -4.2160    2.3590    1.1240 O   0  0  0  0  0  0  0  0  0  0  0  0
   -3.4010    0.3280    0.4320 C   0  0  0  0  0  0  0  0  0  0  0  0
   -2.7160   -0.7270    0.0800 C   0  0  0  0  0  0  0  0  0  0  0  0
   -3.4980   -1.8570   -0.3860 N   0  0  0  0  0  0  0  0  0  0  0  0
   -2.9930   -3.0950   -0.7940 C   0  0  0  0  0  0  0  0  0  0  0  0
   -3.7530   -3.9980   -1.1900 O   0  0  0  0  0  0  0  0  0  0  0  0
   -1.2660   -3.3930   -0.7510 S   0  0  0  0  0  0  0  0  0  0  0  0
   -0.5430   -1.8770   -0.1620 C   0  0  0  0  0  0  0  0  0  0  0  0
   -1.2800   -0.8110    0.1580 C   0  0  0  0  0  0  0  0  0  0  0  0
   -0.5390    0.2610    0.5830 O   0  0  0  0  0  0  0  0  0  0  0  0
    0.5070    0.9370    0.0130 C   0  0  0  0  0  0  0  0  0  0  0  0
    1.7860    0.2680   -0.2850 C   0  0  1  0  0  0  0  0  0  0  0  0
    2.8830    1.3400   -0.6040 C   0  0  0  0  0  0  0  0  0  0  0  0
    4.0990    0.4260   -0.6020 C   0  0  0  0  0  0  0  0  0  0  0  0
    3.6630   -0.6430    0.3790 C   0  0  0  0  0  0  0  0  0  0  0  0
    2.4120   -0.2710    0.8500 O   0  0  0  0  0  0  0  0  0  0  0  0
  1  2  1  0
  2  3  2  0
  2  4  1  0
  4  5  2  3
  5  6  1  0
  5 11  1  0
  6  7  1  0
  7  8  2  0
  7  9  1  0
  9 10  1  0
 10 11  2  0
 11 12  1  0
 12 13  1  0
 14 13  1  1
 14 15  1  0
 14 18  1  0
 15 16  1  0
 16 17  1  0
 17 18  1  0
M  END
