
     RDKit          3D

 19 20  0  0  0  0  0  0  0  0999 V2000
   -3.2680    1.3250   -0.8450 C   0  0  0  0  0  0  0  0  0  0  0  0
   -3.0110    0.2860    0.2240 C   0  0  2  0  0  0  0  0  0  0  0  0
   -1.6610    0.2930    0.6900 N   0  0  0  0  0  0  0  0  0  0  0  0
   -0.5490    0.0570   -0.1610 C   0  0  0  0  0  0  0  0  0  0  0  0
   -0.8210   -0.1670   -1.3820 O   0  0  0  0  0  0  0  0  0  0  0  0
    0.8590    0.0670    0.3400 C   0  0  0  0  0  0  0  0  0  0  0  0
    1.9490   -0.2770   -1.0650 S   0  0  0  0  0  0  0  0  0  0  0  0
    3.6580   -0.2800   -0.5420 C   0  0  0  0  0  0  0  0  0  0  0  0
    4.6840   -0.5020   -1.3430 C   0  0  0  0  0  0  0  0  0  0  0  0
    5.9690   -0.4360   -0.6000 C   0  0  0  0  0  0  0  0  0  0  0  0
    5.5190   -0.1360    0.7810 C   0  0  0  0  0  0  0  0  0  0  0  0
    4.2160   -0.0580    0.7630 C   0  0  0  0  0  0  0  0  0  0  0  0
    3.4520    0.2140    1.9060 O   0  0  0  0  0  0  0  0  0  0  0  0
   -3.4530   -1.0640   -0.3000 C   0  0  0  0  0  0  0  0  0  0  0  0
   -4.9330   -0.9510   -0.2020 C   0  0  0  0  0  0  0  0  0  0  0  0
   -5.8080   -1.4460   -0.9450 O   0  0  0  0  0  0  0  0  0  0  0  0
   -5.1750   -0.1400    0.9460 N   0  0  0  0  0  0  0  0  0  0  0  0
   -3.9600    0.4940    1.3480 C   0  0  0  0  0  0  0  0  0  0  0  0
   -3.7620    1.0970    2.4340 O   0  0  0  0  0  0  0  0  0  0  0  0
  2  1  1  6
  2  3  1  0
  2 14  1  0
  2 18  1  0
  3  4  1  0
  4  5  2  0
  4  6  1  0
  6  7  1  0
  7  8  1  0
  8  9  2  0
  8 12  1  0
  9 10  1  0
 10 11  1  0
 11 12  2  0
 12 13  1  0
 14 15  1  0
 15 16  2  0
 15 17  1  0
 17 18  1  0
 18 19  2  0
M  END
