
     RDKit          3D

 19 20  0  0  0  0  0  0  0  0999 V2000
    1.2110    1.2830    0.5260 O   0  0  0  0  0  0  0  0  0  0  0  0
    2.3670    0.7530    0.3390 C   0  0  0  0  0  0  0  0  0  0  0  0
    3.5340    1.6640    0.3150 C   0  0  0  0  0  0  0  0  0  0  0  0
    4.7800    0.6590   -0.5320 S   0  0  0  0  0  0  0  0  0  0  0  0
    3.8690   -0.8770   -0.5200 C   0  0  0  0  0  0  0  0  0  0  0  0
    4.2620   -1.9720   -1.0240 O   0  0  0  0  0  0  0  0  0  0  0  0
    2.6550   -0.6010    0.1560 N   0  0  0  0  0  0  0  0  0  0  0  0
    1.8040   -1.7020    0.5790 C   0  0  0  0  0  0  0  0  0  0  0  0
    0.9160   -2.0890   -0.5510 C   0  0  0  0  0  0  0  0  0  0  0  0
   -0.0060   -1.1030   -1.0230 N   0  0  0  0  0  0  0  0  0  0  0  0
   -1.1340   -0.6670   -0.2540 C   0  0  0  0  0  0  0  0  0  0  0  0
   -1.5480   -1.3950    0.7740 C   0  0  0  0  0  0  0  0  0  0  0  0
   -2.6900   -0.9410    1.5370 C   0  0  0  0  0  0  0  0  0  0  0  0
   -3.3590    0.1560    1.2780 C   0  0  0  0  0  0  0  0  0  0  0  0
   -3.0150    1.0340    0.1820 C   0  0  1  0  0  0  0  0  0  0  0  0
   -2.8670    2.3660    0.5730 O   0  0  0  0  0  0  0  0  0  0  0  0
   -1.8080    0.5640   -0.5680 C   0  0  0  0  0  0  0  0  0  0  0  0
   -1.3330    1.3310   -1.5640 C   0  0  0  0  0  0  0  0  0  0  0  0
   -2.0080    2.5050   -1.8380 O   0  0  0  0  0  0  0  0  0  0  0  0
  1  2  2  0
  2  3  1  0
  2  7  1  0
  3  4  1  0
  4  5  1  0
  5  6  2  0
  5  7  1  0
  7  8  1  0
  8  9  1  0
  9 10  1  0
 10 11  1  0
 11 12  2  0
 11 17  1  0
 12 13  1  0
 13 14  2  0
 14 15  1  0
 15 16  1  1
 15 17  1  0
 17 18  2  3
 18 19  1  0
M  END
