
     RDKit          3D

 20 20  0  0  0  0  0  0  0  0999 V2000
    2.8520   -0.9320    0.9570 C   0  0  0  0  0  0  0  0  0  0  0  0
    2.6210    0.2280    0.0300 C   0  0  2  0  0  0  0  0  0  0  0  0
    2.9980    1.5500    0.6400 C   0  0  0  0  0  0  0  0  0  0  0  0
    1.2740    0.2290   -0.6120 C   0  0  0  0  0  0  0  0  0  0  0  0
    0.1680    0.4110    0.2780 N   0  0  2  0  0  0  0  0  0  0  0  0
    0.3200    1.8310    1.2610 Cl  0  0  0  0  0  0  0  0  0  0  0  0
    0.1260   -0.6520    1.1040 O   0  0  0  0  0  0  0  0  0  0  0  0
   -0.0220   -1.7200    0.3470 O   0  0  0  0  0  0  0  0  0  0  0  0
   -1.3100   -2.1890    0.5600 C   0  0  0  0  0  0  0  0  0  0  0  0
   -2.1910   -1.0700    1.0170 C   0  0  0  0  0  0  0  0  0  0  0  0
   -2.2780    0.0840    0.0910 C   0  0  2  0  0  0  0  0  0  0  0  0
   -2.8820    1.2410    0.9020 C   0  0  0  0  0  0  0  0  0  0  0  0
   -3.3090   -0.2390   -0.9770 C   0  0  0  0  0  0  0  0  0  0  0  0
   -3.4700    1.1170   -2.1390 Cl  0  0  0  0  0  0  0  0  0  0  0  0
   -1.0200    0.5440   -0.5280 C   0  0  2  0  0  0  0  0  0  0  0  0
   -0.8810   -0.0600   -1.7790 O   0  0  0  0  0  0  0  0  0  0  0  0
   -1.1520    1.9250   -0.8100 O   0  0  0  0  0  0  0  0  0  0  0  0
    3.5660    0.0330   -1.0420 O   0  0  0  0  0  0  0  0  0  0  0  0
    4.8980   -0.0010   -0.7540 N   0  0  0  0  0  0  0  0  0  0  0  0
    5.5610   -1.0580   -0.8000 O   0  0  0  0  0  0  0  0  0  0  0  0
  2  1  1  1
  2  3  1  0
  2  4  1  0
  2 18  1  0
  4  5  1  0
  5  6  1  1
  5  7  1  0
  5 15  1  0
  7  8  1  0
  8  9  1  0
  9 10  1  0
 10 11  1  0
 11 12  1  1
 11 13  1  0
 11 15  1  0
 13 14  1  0
 15 16  1  6
 15 17  1  0
 18 19  1  0
 19 20  2  0
M  CHG  1   5   1
M  END
