
     RDKit          3D

 20 20  0  0  0  0  0  0  0  0999 V2000
    4.2170   -1.2160    0.4830 C   0  0  0  0  0  0  0  0  0  0  0  0
    3.1830   -0.0750    0.4430 C   0  0  0  0  0  0  0  0  0  0  0  0
    1.9750   -0.6340    0.2730 O   0  0  0  0  0  0  0  0  0  0  0  0
    0.8950    0.0700    0.1990 N   0  0  0  0  0  0  0  0  0  0  0  0
   -0.0030   -0.6590   -0.5450 O   0  0  0  0  0  0  0  0  0  0  0  0
   -1.0950   -1.0390    0.2430 C   0  0  1  0  0  0  0  0  0  0  0  0
   -1.8870   -2.0210   -0.6270 C   0  0  0  0  0  0  0  0  0  0  0  0
   -2.3230   -1.2990   -1.9070 C   0  0  0  0  0  0  0  0  0  0  0  0
   -0.7110   -1.5950    1.4350 O   0  0  0  0  0  0  0  0  0  0  0  0
   -1.7700   -1.9730    2.2190 C   0  0  0  0  0  0  0  0  0  0  0  0
   -1.9080    0.1840    0.4700 C   0  0  0  0  0  0  0  0  0  0  0  0
   -1.6120    1.4550    0.2550 C   0  0  0  0  0  0  0  0  0  0  0  0
   -2.5660    2.4080    0.5590 O   0  0  0  0  0  0  0  0  0  0  0  0
   -0.3420    1.9410   -0.2860 C   0  0  0  0  0  0  0  0  0  0  0  0
   -0.4050    3.1610   -0.7830 C   0  0  0  0  0  0  0  0  0  0  0  0
   -1.8680    4.1150   -0.7980 Cl  0  0  0  0  0  0  0  0  0  0  0  0
    0.9430    1.3220   -0.3650 N   0  0  1  0  0  0  0  0  0  0  0  0
    2.0130    2.4040    0.4880 Cl  0  0  0  0  0  0  0  0  0  0  0  0
    1.2390    1.2220   -1.6690 O   0  0  0  0  0  0  0  0  0  0  0  0
    2.0420    2.1240   -2.1280 O   0  0  0  0  0  0  0  0  0  0  0  0
  1  2  1  0
  2  3  1  0
  3  4  1  0
  4  5  1  0
  4 17  1  0
  5  6  1  0
  6  7  1  6
  6  9  1  0
  6 11  1  0
  7  8  1  0
  9 10  1  0
 11 12  2  0
 12 13  1  0
 12 14  1  0
 14 15  2  3
 14 17  1  0
 15 16  1  0
 17 18  1  1
 17 19  1  0
 19 20  1  0
M  CHG  1  17   1
M  END
