
     RDKit          3D

 19 20  0  0  0  0  0  0  0  0999 V2000
    6.1540    1.4130    0.7180 C   0  0  0  0  0  0  0  0  0  0  0  0
    5.5390    0.1950    0.8340 O   0  0  0  0  0  0  0  0  0  0  0  0
    4.5420   -0.0900   -0.0390 C   0  0  0  0  0  0  0  0  0  0  0  0
    3.4140    0.8990    0.0770 C   0  0  0  0  0  0  0  0  0  0  0  0
    2.0860    0.4760   -1.0870 S   0  0  0  0  0  0  0  0  0  0  0  0
    1.3190   -1.1010   -0.6160 C   0  0  2  0  0  0  0  0  0  0  0  0
    0.2520   -1.4570   -1.4840 N   0  0  0  0  0  0  0  0  0  0  0  0
   -1.1150   -1.0250   -1.2700 C   0  0  0  0  0  0  0  0  0  0  0  0
   -1.9040   -1.0830   -2.2160 O   0  0  0  0  0  0  0  0  0  0  0  0
   -1.5130   -0.5430    0.0330 C   0  0  0  0  0  0  0  0  0  0  0  0
   -2.6730   -0.1300    0.4250 C   0  0  0  0  0  0  0  0  0  0  0  0
   -3.9520    0.0170   -0.1930 C   0  0  0  0  0  0  0  0  0  0  0  0
   -5.0400    0.4990    0.4690 C   0  0  0  0  0  0  0  0  0  0  0  0
   -6.1670    0.5190   -0.4420 C   0  0  0  0  0  0  0  0  0  0  0  0
   -5.7930   -0.0310   -1.6190 O   0  0  0  0  0  0  0  0  0  0  0  0
   -4.4100   -0.2900   -1.5450 C   0  0  0  0  0  0  0  0  0  0  0  0
   -0.4050   -0.5480    1.0550 C   0  0  0  0  0  0  0  0  0  0  0  0
   -0.7080   -0.1330    2.2130 O   0  0  0  0  0  0  0  0  0  0  0  0
    0.8800   -0.9860    0.7400 N   0  0  0  0  0  0  0  0  0  0  0  0
  1  2  1  0
  2  3  1  0
  3  4  1  0
  4  5  1  0
  6  5  1  6
  6  7  1  0
  6 19  1  0
  7  8  1  0
  8  9  2  0
  8 10  1  0
 10 11  2  3
 10 17  1  0
 11 12  1  0
 12 13  2  0
 12 16  1  0
 13 14  1  0
 14 15  1  0
 15 16  1  0
 17 18  2  0
 17 19  1  0
M  END
