
     RDKit          3D

 20 20  0  0  0  0  0  0  0  0999 V2000
    0.0770   -2.8620   -0.8470 C   0  0  0  0  0  0  0  0  0  0  0  0
   -0.1810   -1.6540   -0.4090 C   0  0  0  0  0  0  0  0  0  0  0  0
   -1.1940   -1.4110    0.6060 C   0  0  0  0  0  0  0  0  0  0  0  0
   -1.4220   -2.4100    1.5590 O   0  0  0  0  0  0  0  0  0  0  0  0
   -1.8770   -0.2740    0.6220 C   0  0  0  0  0  0  0  0  0  0  0  0
   -1.6000    0.7530   -0.4060 C   0  0  1  0  0  0  0  0  0  0  0  0
   -2.9040    0.9670   -1.1570 C   0  0  0  0  0  0  0  0  0  0  0  0
   -1.2660    1.9580    0.2050 O   0  0  0  0  0  0  0  0  0  0  0  0
   -2.2440    2.4640    1.0130 C   0  0  0  0  0  0  0  0  0  0  0  0
   -0.6010    0.3270   -1.3890 C   0  0  0  0  0  0  0  0  0  0  0  0
   -0.6210    0.6080   -2.5510 O   0  0  0  0  0  0  0  0  0  0  0  0
    0.5050   -0.5070   -0.9020 N   0  0  2  0  0  0  0  0  0  0  0  0
    1.2910   -0.8520   -1.9080 O   0  0  0  0  0  0  0  0  0  0  0  0
    2.5500   -1.2380   -1.5550 C   0  0  0  0  0  0  0  0  0  0  0  0
    1.0660    0.2580    0.0950 N   0  0  0  0  0  0  0  0  0  0  0  0
    1.7230    1.6990   -0.6190 Cl  0  0  0  0  0  0  0  0  0  0  0  0
    2.0480   -0.3170    0.8060 O   0  0  0  0  0  0  0  0  0  0  0  0
    2.1710    0.3800    1.9250 O   0  0  0  0  0  0  0  0  0  0  0  0
    3.3990    1.0250    1.9960 C   0  0  0  0  0  0  0  0  0  0  0  0
    4.7680   -0.0790    1.9490 Cl  0  0  0  0  0  0  0  0  0  0  0  0
  1  2  2  0
  2  3  1  0
  2 12  1  0
  3  4  1  0
  3  5  2  0
  5  6  1  0
  6  7  1  6
  6  8  1  0
  6 10  1  0
  8  9  1  0
 10 11  2  0
 10 12  1  0
 12 13  1  6
 12 15  1  0
 13 14  1  0
 15 16  1  0
 15 17  1  0
 17 18  1  0
 18 19  1  0
 19 20  1  0
M  CHG  1  12   1
M  END
