
     RDKit          3D

 37 40  0  0  0  0  0  0  0  0999 V2000
    6.0080    0.1280    2.2010 C   0  0  0  0  0  0  0  0  0  0  0  0
    6.2950   -0.1000    0.7320 C   0  0  2  0  0  0  0  0  0  0  0  0
    6.3990   -1.5870    0.5200 C   0  0  0  0  0  0  0  0  0  0  0  0
    7.6260    0.5220    0.4200 C   0  0  0  0  0  0  0  0  0  0  0  0
    5.2480    0.5200   -0.1400 C   0  0  0  0  0  0  0  0  0  0  0  0
    5.5870    1.4060   -0.9560 O   0  0  0  0  0  0  0  0  0  0  0  0
    3.8950    0.1390   -0.0710 N   0  0  0  0  0  0  0  0  0  0  0  0
    2.8170    0.6550   -0.8400 C   0  0  0  0  0  0  0  0  0  0  0  0
    2.8700    1.7490   -1.6610 C   0  0  0  0  0  0  0  0  0  0  0  0
    1.7790    2.1850   -2.3880 C   0  0  0  0  0  0  0  0  0  0  0  0
    0.5560    1.5270   -2.3200 C   0  0  0  0  0  0  0  0  0  0  0  0
    0.4760    0.4320   -1.5070 C   0  0  0  0  0  0  0  0  0  0  0  0
    1.5740    0.0080   -0.7870 C   0  0  0  0  0  0  0  0  0  0  0  0
   -0.8060   -0.3050   -1.3890 C   0  0  1  0  0  0  0  0  0  0  0  0
   -1.6580    0.1750   -0.2630 C   0  0  0  0  0  0  0  0  0  0  0  0
   -1.7990    1.5030    0.0870 C   0  0  0  0  0  0  0  0  0  0  0  0
   -2.6200    1.8260    1.1730 C   0  0  0  0  0  0  0  0  0  0  0  0
   -2.7540    3.1510    1.5150 O   0  0  0  0  0  0  0  0  0  0  0  0
   -2.0950    4.1620    0.8080 C   0  0  0  0  0  0  0  0  0  0  0  0
   -2.3860    5.5300    1.3620 C   0  0  0  0  0  0  0  0  0  0  0  0
   -4.1450    5.9120    1.3020 S   0  0  0  0  0  0  0  0  0  0  0  0
   -4.6990    5.7640   -0.0970 O   0  0  0  0  0  0  0  0  0  0  0  0
   -4.3990    7.4550    1.9370 F   0  0  0  0  0  0  0  0  0  0  0  0
   -3.2870    0.8640    1.8980 C   0  0  0  0  0  0  0  0  0  0  0  0
   -3.1310   -0.4490    1.5310 C   0  0  0  0  0  0  0  0  0  0  0  0
   -2.3320   -0.7890    0.4690 C   0  0  0  0  0  0  0  0  0  0  0  0
   -2.1980   -2.1150    0.1290 O   0  0  0  0  0  0  0  0  0  0  0  0
   -2.8860   -3.0880    0.8780 C   0  0  0  0  0  0  0  0  0  0  0  0
   -2.6170   -4.4780    0.3550 C   0  0  1  0  0  0  0  0  0  0  0  0
   -3.6000   -5.4020    1.0820 C   0  0  0  0  0  0  0  0  0  0  0  0
   -4.8830   -5.1150    0.3280 C   0  0  0  0  0  0  0  0  0  0  0  0
   -4.4170   -4.4170   -0.9250 C   0  0  0  0  0  0  0  0  0  0  0  0
   -3.0380   -4.5360   -0.9600 O   0  0  0  0  0  0  0  0  0  0  0  0
   -1.5940   -0.1670   -2.6570 C   0  0  0  0  0  0  0  0  0  0  0  0
   -1.7770    1.2680   -2.9750 C   0  0  0  0  0  0  0  0  0  0  0  0
   -2.8480    1.8610   -3.1350 O   0  0  0  0  0  0  0  0  0  0  0  0
   -0.5520    2.0200   -3.1050 N   0  0  0  0  0  0  0  0  0  0  0  0
  2  1  1  1
  2  3  1  0
  2  4  1  0
  2  5  1  0
  5  6  2  0
  5  7  1  0
  7  8  1  0
  8  9  2  0
  8 13  1  0
  9 10  1  0
 10 11  2  0
 11 12  1  0
 11 37  1  0
 12 13  2  0
 12 14  1  0
 14 15  1  1
 14 34  1  0
 15 16  2  0
 15 26  1  0
 16 17  1  0
 17 18  1  0
 17 24  2  0
 18 19  1  0
 19 20  1  0
 20 21  1  0
 21 22  2  0
 21 23  1  6
 24 25  1  0
 25 26  2  0
 26 27  1  0
 27 28  1  0
 29 28  1  1
 29 30  1  0
 29 33  1  0
 30 31  1  0
 31 32  1  0
 32 33  1  0
 34 35  1  0
 35 36  2  0
 35 37  1  0
M  END
