
     RDKit          3D

 37 40  0  0  0  0  0  0  0  0999 V2000
    9.1470    2.7970   -0.7440 C   0  0  0  0  0  0  0  0  0  0  0  0
    7.7990    2.5520   -0.5030 O   0  0  0  0  0  0  0  0  0  0  0  0
    7.2390    1.2950   -0.3670 C   0  0  0  0  0  0  0  0  0  0  0  0
    7.9430    0.2900   -0.4590 O   0  0  0  0  0  0  0  0  0  0  0  0
    5.8040    1.1860   -0.1160 C   0  0  0  0  0  0  0  0  0  0  0  0
    4.7170    2.5900    0.0320 S   0  0  0  0  0  0  0  0  0  0  0  0
    3.2250    1.5370    0.3210 C   0  0  0  0  0  0  0  0  0  0  0  0
    3.6810    0.2570    0.2780 C   0  0  0  0  0  0  0  0  0  0  0  0
    5.0060    0.0570    0.0550 C   0  0  0  0  0  0  0  0  0  0  0  0
    5.7410   -1.2870   -0.0230 C   0  0  0  0  0  0  0  0  0  0  0  0
    2.6680   -0.8420    0.4840 C   0  0  0  0  0  0  0  0  0  0  0  0
    3.0890   -1.7930    1.2110 O   0  0  0  0  0  0  0  0  0  0  0  0
    1.4470   -0.7500   -0.0840 O   0  0  0  0  0  0  0  0  0  0  0  0
    0.8940   -1.0150   -1.3230 C   0  0  2  0  0  0  0  0  0  0  0  0
    1.5490   -0.2470   -2.4570 C   0  0  0  0  0  0  0  0  0  0  0  0
   -0.5390   -0.5250   -1.2780 C   0  0  0  0  0  0  0  0  0  0  0  0
   -1.2120   -0.8910    0.0400 C   0  0  2  0  0  0  0  0  0  0  0  0
   -1.6720   -2.2710   -0.1380 C   0  0  0  0  0  0  0  0  0  0  0  0
   -2.9130   -2.6760    0.0020 C   0  0  0  0  0  0  0  0  0  0  0  0
   -3.2840   -4.1270   -0.2050 C   0  0  0  0  0  0  0  0  0  0  0  0
   -3.8800   -4.7090    1.0490 C   0  0  0  0  0  0  0  0  0  0  0  0
   -4.1870   -6.0280    0.7720 F   0  0  0  0  0  0  0  0  0  0  0  0
   -3.9020   -1.7300    0.3480 N   0  0  0  0  0  0  0  0  0  0  0  0
   -3.5190   -0.3720    0.5330 C   0  0  0  0  0  0  0  0  0  0  0  0
   -4.5290    0.6100    0.8910 N   0  0  0  0  0  0  0  0  0  0  0  0
   -5.5760    0.9450   -0.0210 C   0  0  0  0  0  0  0  0  0  0  0  0
   -5.8270    0.4070   -1.1980 C   0  0  0  0  0  0  0  0  0  0  0  0
   -7.0080    1.0800   -1.7660 C   0  0  0  0  0  0  0  0  0  0  0  0
   -7.4050    2.0730   -0.7660 C   0  0  0  0  0  0  0  0  0  0  0  0
   -6.5650    1.9800    0.2370 C   0  0  0  0  0  0  0  0  0  0  0  0
   -2.2810    0.0480    0.3970 C   0  0  0  0  0  0  0  0  0  0  0  0
   -1.9870    1.4960    0.6050 C   0  0  0  0  0  0  0  0  0  0  0  0
   -2.9910    2.2620    0.4170 O   0  0  0  0  0  0  0  0  0  0  0  0
   -0.7400    1.8890    0.9590 O   0  0  0  0  0  0  0  0  0  0  0  0
   -0.0190    1.7750    2.1410 C   0  0  0  0  0  0  0  0  0  0  0  0
    1.4410    2.1350    1.9730 C   0  0  0  0  0  0  0  0  0  0  0  0
    1.9160    2.0600    0.5470 C   0  0  0  0  0  0  0  0  0  0  0  0
  1  2  1  0
  2  3  1  0
  3  4  2  0
  3  5  1  0
  5  6  1  0
  5  9  2  0
  6  7  1  0
  7  8  2  0
  7 37  1  0
  8  9  1  0
  8 11  1  0
  9 10  1  0
 11 12  2  0
 11 13  1  0
 13 14  1  0
 14 15  1  6
 14 16  1  0
 17 16  1  6
 17 18  1  0
 17 31  1  0
 18 19  2  0
 19 20  1  0
 19 23  1  0
 20 21  1  0
 21 22  1  0
 23 24  1  0
 24 25  1  0
 24 31  2  0
 25 26  1  0
 26 27  2  0
 26 30  1  0
 27 28  1  0
 28 29  1  0
 29 30  2  0
 31 32  1  0
 32 33  2  0
 32 34  1  0
 34 35  1  0
 35 36  1  0
 36 37  1  0
M  END
