
     RDKit          3D

 37 40  0  0  0  0  0  0  0  0999 V2000
   -6.6660   -3.1360    0.5550 C   0  0  0  0  0  0  0  0  0  0  0  0
   -7.0070   -1.8790    0.4800 C   0  0  0  0  0  0  0  0  0  0  0  0
   -8.4950   -1.5700    0.5350 C   0  0  0  0  0  0  0  0  0  0  0  0
   -8.8230   -0.9250   -0.6470 F   0  0  0  0  0  0  0  0  0  0  0  0
   -6.1700   -0.8050    0.3560 O   0  0  0  0  0  0  0  0  0  0  0  0
   -4.8070   -0.7680    0.2740 C   0  0  0  0  0  0  0  0  0  0  0  0
   -4.2010   -1.8610    0.3140 O   0  0  0  0  0  0  0  0  0  0  0  0
   -4.0840    0.4800    0.1450 C   0  0  0  0  0  0  0  0  0  0  0  0
   -2.7880    0.6590    0.0460 C   0  0  0  0  0  0  0  0  0  0  0  0
   -2.2860    2.0630   -0.0750 C   0  0  0  0  0  0  0  0  0  0  0  0
   -1.1460    2.1790   -1.0450 C   0  0  0  0  0  0  0  0  0  0  0  0
   -0.0340    1.2280   -0.8010 C   0  0  1  0  0  0  0  0  0  0  0  0
    0.8740    1.2040   -1.9070 N   0  0  0  0  0  0  0  0  0  0  0  0
    0.4780    0.8650   -3.4520 S   0  0  1  0  0  0  0  0  0  0  0  0
   -0.6760    1.9350   -4.2750 C   0  0  0  0  0  0  0  0  0  0  0  0
    1.7840    1.0800   -4.2550 O   0  0  0  0  0  0  0  0  0  0  0  0
    0.1790   -0.5930   -3.7950 O   0  0  0  0  0  0  0  0  0  0  0  0
    0.9110    1.6980    0.3350 C   0  0  1  0  0  0  0  0  0  0  0  0
    1.5450    2.9930   -0.0110 C   0  0  0  0  0  0  0  0  0  0  0  0
    1.3250    4.1610    0.8640 C   0  0  0  0  0  0  0  0  0  0  0  0
    1.4270    3.7480    2.3210 C   0  0  0  0  0  0  0  0  0  0  0  0
    0.3220    2.7480    2.5910 C   0  0  0  0  0  0  0  0  0  0  0  0
    0.4220    1.5660    1.6910 C   0  0  0  0  0  0  0  0  0  0  0  0
   -0.5210   -0.1590   -0.6130 C   0  0  1  0  0  0  0  0  0  0  0  0
    0.5180   -1.0350    0.0500 C   0  0  0  0  0  0  0  0  0  0  0  0
    0.2550   -1.5200    1.1630 O   0  0  0  0  0  0  0  0  0  0  0  0
    1.7620   -1.3130   -0.5490 N   0  0  0  0  0  0  0  0  0  0  0  0
    2.8060   -2.1160   -0.0260 C   0  0  0  0  0  0  0  0  0  0  0  0
    2.6500   -2.9830    1.0170 C   0  0  0  0  0  0  0  0  0  0  0  0
    3.7200   -3.7460    1.5210 C   0  0  0  0  0  0  0  0  0  0  0  0
    4.9590   -3.6080    0.9370 C   0  0  0  0  0  0  0  0  0  0  0  0
    5.1540   -2.7390   -0.1230 C   0  0  0  0  0  0  0  0  0  0  0  0
    4.0870   -2.0250   -0.5710 C   0  0  0  0  0  0  0  0  0  0  0  0
    6.5940   -2.8130   -0.5290 C   0  0  0  0  0  0  0  0  0  0  0  0
    7.2010   -3.7970    0.4230 C   0  0  0  0  0  0  0  0  0  0  0  0
    6.1530   -4.2470    1.2570 O   0  0  0  0  0  0  0  0  0  0  0  0
   -1.8050   -0.4230    0.0490 C   0  0  0  0  0  0  0  0  0  0  0  0
  1  2  2  0
  2  3  1  0
  2  5  1  0
  3  4  1  0
  5  6  1  0
  6  7  2  0
  6  8  1  0
  8  9  2  3
  9 10  1  0
  9 37  1  0
 10 11  1  0
 11 12  1  0
 12 13  1  6
 12 18  1  0
 12 24  1  0
 13 14  1  0
 14 15  1  6
 14 16  2  0
 14 17  2  0
 18 19  1  6
 18 23  1  0
 19 20  1  0
 20 21  1  0
 21 22  1  0
 22 23  1  0
 24 25  1  1
 24 37  1  0
 25 26  2  0
 25 27  1  0
 27 28  1  0
 28 29  2  0
 28 33  1  0
 29 30  1  0
 30 31  2  0
 31 32  1  0
 31 36  1  0
 32 33  2  0
 32 34  1  0
 34 35  1  0
 35 36  1  0
M  END
