
     RDKit          3D

 37 40  0  0  0  0  0  0  0  0999 V2000
   -4.3970    2.4310    3.4810 C   0  0  0  0  0  0  0  0  0  0  0  0
   -4.0510    2.8420    2.0750 C   0  0  0  0  0  0  0  0  0  0  0  0
   -3.2230    1.8560    1.3130 C   0  0  1  0  0  0  0  0  0  0  0  0
   -1.9260    1.6320    2.0380 C   0  0  0  0  0  0  0  0  0  0  0  0
   -2.0770    1.1340    3.3170 F   0  0  0  0  0  0  0  0  0  0  0  0
   -3.9470    0.6830    0.8730 C   0  0  0  0  0  0  0  0  0  0  0  0
   -5.2920    0.5010    1.2300 C   0  0  0  0  0  0  0  0  0  0  0  0
   -5.9900   -0.6160    0.8160 C   0  0  0  0  0  0  0  0  0  0  0  0
   -7.4300   -0.8290    1.1880 C   0  0  0  0  0  0  0  0  0  0  0  0
   -5.3280   -1.5440    0.0450 C   0  0  0  0  0  0  0  0  0  0  0  0
   -6.0270   -2.6670   -0.3720 O   0  0  0  0  0  0  0  0  0  0  0  0
   -6.0670   -3.8670    0.3870 C   0  0  0  0  0  0  0  0  0  0  0  0
   -4.0020   -1.3800   -0.3170 C   0  0  0  0  0  0  0  0  0  0  0  0
   -3.3060   -0.2660    0.0950 C   0  0  0  0  0  0  0  0  0  0  0  0
   -1.9830   -0.0890   -0.2600 O   0  0  0  0  0  0  0  0  0  0  0  0
   -1.5290   -0.8360   -1.3870 C   0  0  1  0  0  0  0  0  0  0  0  0
   -0.0710   -0.6850   -1.6430 C   0  0  0  0  0  0  0  0  0  0  0  0
    0.5540    0.0070   -0.8970 O   0  0  0  0  0  0  0  0  0  0  0  0
    0.5040   -1.3940   -2.7910 C   0  0  2  0  0  0  0  0  0  0  0  0
   -0.3990   -2.0790   -3.5780 O   0  0  0  0  0  0  0  0  0  0  0  0
    1.6380   -2.3200   -2.5200 C   0  0  0  0  0  0  0  0  0  0  0  0
    2.7580   -1.5640   -2.0260 C   0  0  0  0  0  0  0  0  0  0  0  0
    2.8200   -0.2880   -1.8920 O   0  0  0  0  0  0  0  0  0  0  0  0
    4.0060   -2.2020   -1.6300 N   0  0  0  0  0  0  0  0  0  0  0  0
    4.8720   -1.2510   -1.1550 C   0  0  0  0  0  0  0  0  0  0  0  0
    5.9610   -0.9550   -1.2040 N   0  0  0  0  0  0  0  0  0  0  0  0
    6.6290    0.1380   -0.5830 C   0  0  0  0  0  0  0  0  0  0  0  0
    7.9070    0.3690   -1.0430 C   0  0  0  0  0  0  0  0  0  0  0  0
    8.6160    1.4790   -0.7060 C   0  0  0  0  0  0  0  0  0  0  0  0
    8.0420    2.4160    0.1270 C   0  0  0  0  0  0  0  0  0  0  0  0
    8.7630    3.6410    0.5230 C   0  0  0  0  0  0  0  0  0  0  0  0
    6.7570    2.1760    0.5850 C   0  0  0  0  0  0  0  0  0  0  0  0
    6.0640    1.0540    0.2350 C   0  0  0  0  0  0  0  0  0  0  0  0
    4.6980    0.8600    0.8200 C   0  0  0  0  0  0  0  0  0  0  0  0
    4.4890   -0.9760    0.8450 S   0  0  0  0  0  0  0  0  0  0  0  0
   -1.9060   -2.2710   -1.0940 C   0  0  0  0  0  0  0  0  0  0  0  0
   -3.3280   -2.3140   -1.0970 O   0  0  0  0  0  0  0  0  0  0  0  0
  1  2  1  0
  3  2  1  1
  3  4  1  0
  3  6  1  0
  4  5  1  0
  6  7  2  0
  6 14  1  0
  7  8  1  0
  8  9  1  0
  8 10  2  0
 10 11  1  0
 10 13  1  0
 11 12  1  0
 13 14  2  0
 13 37  1  0
 14 15  1  0
 15 16  1  0
 16 17  1  1
 16 36  1  0
 17 18  2  0
 17 19  1  0
 19 20  1  1
 19 21  1  0
 21 22  1  0
 22 23  2  0
 22 24  1  0
 24 25  1  0
 25 26  2  0
 25 35  1  0
 26 27  1  0
 27 28  2  0
 27 33  1  0
 28 29  1  0
 29 30  2  0
 30 31  1  0
 30 32  1  0
 32 33  2  0
 33 34  1  0
 34 35  1  0
 36 37  1  0
M  END
