
     RDKit          3D

 36 39  0  0  0  0  0  0  0  0999 V2000
   -3.3900    1.9770   -1.2820 O   0  0  0  0  0  0  0  0  0  0  0  0
   -3.2050    1.3330   -0.2280 C   0  0  0  0  0  0  0  0  0  0  0  0
   -4.1390    1.4320    0.8080 N   0  0  0  0  0  0  0  0  0  0  0  0
   -5.3330    2.1990    0.8420 C   0  0  0  0  0  0  0  0  0  0  0  0
   -5.7800    2.9960   -0.1750 C   0  0  0  0  0  0  0  0  0  0  0  0
   -6.9520    3.7400   -0.1230 C   0  0  0  0  0  0  0  0  0  0  0  0
   -7.6970    3.6610    1.0250 C   0  0  0  0  0  0  0  0  0  0  0  0
   -9.1730    4.5780    1.1330 Cl  0  0  0  0  0  0  0  0  0  0  0  0
   -7.2500    2.8580    2.0550 C   0  0  0  0  0  0  0  0  0  0  0  0
   -6.1180    2.1660    1.9510 N   0  0  0  0  0  0  0  0  0  0  0  0
   -1.9700    0.4580   -0.0980 C   0  0  1  0  0  0  0  0  0  0  0  0
   -2.4470   -0.9570    0.1250 C   0  0  0  0  0  0  0  0  0  0  0  0
   -2.6050   -1.5520   -1.1830 N   0  0  2  0  0  0  0  0  0  0  0  0
   -2.3560   -2.9600   -1.2210 C   0  0  0  0  0  0  0  0  0  0  0  0
   -3.6690   -3.7050   -1.3260 C   0  0  2  0  0  0  0  0  0  0  0  0
   -3.4720   -5.0650   -1.3660 F   0  0  0  0  0  0  0  0  0  0  0  0
   -4.3650   -3.2540   -2.4390 F   0  0  0  0  0  0  0  0  0  0  0  0
   -1.6460   -0.8960   -2.0480 C   0  0  0  0  0  0  0  0  0  0  0  0
   -1.2710    0.4060   -1.4100 C   0  0  2  0  0  0  0  0  0  0  0  0
    0.2010    0.5910   -1.3010 C   0  0  0  0  0  0  0  0  0  0  0  0
    0.7580    1.5470   -1.8880 O   0  0  0  0  0  0  0  0  0  0  0  0
    0.9680   -0.3100   -0.5380 N   0  0  0  0  0  0  0  0  0  0  0  0
    2.3770   -0.2770   -0.3330 C   0  0  0  0  0  0  0  0  0  0  0  0
    3.2420    0.6440   -0.8480 C   0  0  0  0  0  0  0  0  0  0  0  0
    4.6080    0.6590   -0.6380 C   0  0  0  0  0  0  0  0  0  0  0  0
    5.1540   -0.3280    0.1530 C   0  0  0  0  0  0  0  0  0  0  0  0
    6.5610   -0.3450    0.3930 N   0  0  0  0  0  0  0  0  0  0  0  0
    7.1030   -0.3440    1.6210 C   0  0  0  0  0  0  0  0  0  0  0  0
    8.4670   -0.3600    1.8340 C   0  0  0  0  0  0  0  0  0  0  0  0
    9.3250   -0.3770    0.7650 C   0  0  0  0  0  0  0  0  0  0  0  0
    8.7750   -0.3790   -0.5020 C   0  0  0  0  0  0  0  0  0  0  0  0
    7.4140   -0.3620   -0.6640 C   0  0  0  0  0  0  0  0  0  0  0  0
    6.9770   -0.3650   -1.8600 O   0  0  0  0  0  0  0  0  0  0  0  0
    4.3100   -1.2830    0.6960 C   0  0  0  0  0  0  0  0  0  0  0  0
    2.9560   -1.2730    0.4700 C   0  0  0  0  0  0  0  0  0  0  0  0
    2.1210   -2.2020    0.9970 F   0  0  0  0  0  0  0  0  0  0  0  0
  1  2  2  0
  2  3  1  0
 11  2  1  6
  3  4  1  0
  4  5  2  0
  4 10  1  0
  5  6  1  0
  6  7  2  0
  7  8  1  0
  7  9  1  0
  9 10  2  0
 11 12  1  0
 11 19  1  0
 12 13  1  0
 13 14  1  1
 13 18  1  0
 14 15  1  0
 15 16  1  6
 15 17  1  0
 18 19  1  0
 19 20  1  1
 20 21  2  0
 20 22  1  0
 22 23  1  0
 23 24  2  0
 23 35  1  0
 24 25  1  0
 25 26  2  0
 26 27  1  0
 26 34  1  0
 27 28  1  0
 27 32  1  0
 28 29  2  0
 29 30  1  0
 30 31  2  0
 31 32  1  0
 32 33  2  0
 34 35  2  0
 35 36  1  0
M  CHG  1  13   1
M  END
