
     RDKit          3D

 37 40  0  0  0  0  0  0  0  0999 V2000
  -10.3620    0.1700   -0.2190 C   0  0  0  0  0  0  0  0  0  0  0  0
   -8.8810    0.0180   -0.1720 C   0  0  0  0  0  0  0  0  0  0  0  0
   -8.2970   -1.1650   -0.6300 C   0  0  0  0  0  0  0  0  0  0  0  0
   -6.9300   -1.3120   -0.5900 C   0  0  0  0  0  0  0  0  0  0  0  0
   -6.0830   -0.3210   -0.1050 C   0  0  0  0  0  0  0  0  0  0  0  0
   -4.6360   -0.5020   -0.0720 C   0  0  0  0  0  0  0  0  0  0  0  0
   -4.0970   -1.7520    0.1220 C   0  0  0  0  0  0  0  0  0  0  0  0
   -2.7410   -1.8950    0.1500 C   0  0  0  0  0  0  0  0  0  0  0  0
   -1.8460   -0.8280   -0.0080 C   0  0  0  0  0  0  0  0  0  0  0  0
   -2.4070    0.3890   -0.1950 C   0  0  0  0  0  0  0  0  0  0  0  0
   -3.7560    0.5800   -0.2320 C   0  0  0  0  0  0  0  0  0  0  0  0
   -1.0560    1.5270   -0.3390 S   0  0  0  0  0  0  0  0  0  0  0  0
    0.2110    0.3610    0.3420 C   0  0  0  0  0  0  0  0  0  0  0  0
   -0.4430   -0.8910    0.0040 N   0  0  0  0  0  0  0  0  0  0  0  0
    0.3320   -2.0420   -0.2930 C   0  0  0  0  0  0  0  0  0  0  0  0
   -0.2810   -3.0570   -0.6970 O   0  0  0  0  0  0  0  0  0  0  0  0
    1.7860   -2.1620   -0.1690 C   0  0  1  0  0  0  0  0  0  0  0  0
    2.3490   -2.4680   -1.5660 C   0  0  0  0  0  0  0  0  0  0  0  0
    2.4830   -1.1150    0.3300 O   0  0  0  0  0  0  0  0  0  0  0  0
    3.2890   -1.3410    1.3940 C   0  0  2  0  0  0  0  0  0  0  0  0
    2.6970   -0.7580    2.6930 C   0  0  0  0  0  0  0  0  0  0  0  0
    4.6990   -1.0020    1.2690 C   0  0  0  0  0  0  0  0  0  0  0  0
    5.4340   -1.2880    2.2790 O   0  0  0  0  0  0  0  0  0  0  0  0
    5.2810   -0.4050    0.1640 N   0  0  0  0  0  0  0  0  0  0  0  0
    4.6420   -0.0080   -1.0650 C   0  0  0  0  0  0  0  0  0  0  0  0
    5.4850    1.0660   -1.7530 C   0  0  0  0  0  0  0  0  0  0  0  0
    6.0790    2.0400   -0.7980 C   0  0  0  0  0  0  0  0  0  0  0  0
    6.8000    1.3940    0.3580 C   0  0  2  0  0  0  0  0  0  0  0  0
    6.1780    1.7120    1.5750 O   0  0  0  0  0  0  0  0  0  0  0  0
    8.2370    1.8630    0.4400 C   0  0  0  0  0  0  0  0  0  0  0  0
    8.9570    1.6040   -0.7040 O   0  0  0  0  0  0  0  0  0  0  0  0
    6.7320   -0.1030    0.1840 C   0  0  0  0  0  0  0  0  0  0  0  0
   -6.6930    0.8350    0.3400 C   0  0  0  0  0  0  0  0  0  0  0  0
   -8.0690    1.0160    0.3140 C   0  0  0  0  0  0  0  0  0  0  0  0
   -8.6550    2.1840    0.7660 O   0  0  0  0  0  0  0  0  0  0  0  0
   -7.8860    3.2640    1.2830 C   0  0  0  0  0  0  0  0  0  0  0  0
   -6.9960    3.7620    0.3670 F   0  0  0  0  0  0  0  0  0  0  0  0
  1  2  1  0
  2  3  2  0
  2 34  1  0
  3  4  1  0
  4  5  2  0
  5  6  1  0
  5 33  1  0
  6  7  2  0
  6 11  1  0
  7  8  1  0
  8  9  2  0
  9 10  1  0
  9 14  1  0
 10 11  2  0
 10 12  1  0
 12 13  1  0
 13 14  1  0
 14 15  1  0
 15 16  2  0
 15 17  1  0
 17 18  1  6
 17 19  1  0
 19 20  1  0
 20 21  1  1
 20 22  1  0
 22 23  2  0
 22 24  1  0
 24 25  1  0
 24 32  1  0
 25 26  1  0
 26 27  1  0
 27 28  1  0
 28 29  1  1
 28 30  1  0
 28 32  1  0
 30 31  1  0
 33 34  2  0
 34 35  1  0
 35 36  1  0
 36 37  1  0
M  END
