
     RDKit          3D

 37 40  0  0  0  0  0  0  0  0999 V2000
   -8.1710   -1.0580    2.3280 C   0  0  0  0  0  0  0  0  0  0  0  0
   -7.1110   -2.0130    1.7930 C   0  0  0  0  0  0  0  0  0  0  0  0
   -5.9320   -1.2870    1.2910 C   0  0  0  0  0  0  0  0  0  0  0  0
   -5.0250   -0.7820    2.1930 C   0  0  0  0  0  0  0  0  0  0  0  0
   -5.2310   -0.9870    3.6450 C   0  0  0  0  0  0  0  0  0  0  0  0
   -3.9000   -0.0710    1.7470 C   0  0  0  0  0  0  0  0  0  0  0  0
   -3.6530    0.1520    0.4250 C   0  0  0  0  0  0  0  0  0  0  0  0
   -2.5590    0.8760   -0.0750 N   0  0  0  0  0  0  0  0  0  0  0  0
   -1.5330    1.3690    0.7390 C   0  0  0  0  0  0  0  0  0  0  0  0
   -1.4470    1.2390    1.9730 O   0  0  0  0  0  0  0  0  0  0  0  0
   -0.3950    2.1410    0.1110 C   0  0  0  0  0  0  0  0  0  0  0  0
   -0.5820    2.2420   -1.2440 O   0  0  0  0  0  0  0  0  0  0  0  0
    0.4610    2.9580   -1.8160 C   0  0  0  0  0  0  0  0  0  0  0  0
    1.7840    2.3250   -1.6030 C   0  0  0  0  0  0  0  0  0  0  0  0
    2.2870    1.3910   -2.4770 C   0  0  0  0  0  0  0  0  0  0  0  0
    3.5090    0.7940   -2.3000 C   0  0  0  0  0  0  0  0  0  0  0  0
    4.3220    1.1130   -1.2000 C   0  0  0  0  0  0  0  0  0  0  0  0
    5.6020    0.4540   -1.0350 C   0  0  0  0  0  0  0  0  0  0  0  0
    6.0120   -0.2660   -1.9960 O   0  0  0  0  0  0  0  0  0  0  0  0
    6.4570    0.5140    0.0770 N   0  0  0  0  0  0  0  0  0  0  0  0
    7.7210   -0.1680    0.1710 C   0  0  2  0  0  0  0  0  0  0  0  0
    7.7520   -1.2100    1.2720 C   0  0  0  0  0  0  0  0  0  0  0  0
    9.0570   -1.9600    0.9680 C   0  0  0  0  0  0  0  0  0  0  0  0
   10.1490   -0.5420    0.7510 S   0  0  2  0  0  0  0  0  0  0  0  0
   10.9840   -0.7210   -0.4750 O   0  0  0  0  0  0  0  0  0  0  0  0
   10.9360   -0.2630    1.9770 O   0  0  0  0  0  0  0  0  0  0  0  0
    8.8840    0.7130    0.4700 C   0  0  0  0  0  0  0  0  0  0  0  0
    3.8080    2.0450   -0.3400 C   0  0  0  0  0  0  0  0  0  0  0  0
    4.5260    2.4190    0.7410 F   0  0  0  0  0  0  0  0  0  0  0  0
    2.5570    2.6540   -0.5220 C   0  0  0  0  0  0  0  0  0  0  0  0
   -4.5900   -0.3700   -0.4890 C   0  0  0  0  0  0  0  0  0  0  0  0
   -5.7040   -1.0730   -0.0710 C   0  0  0  0  0  0  0  0  0  0  0  0
   -6.6510   -1.5860   -1.0910 C   0  0  0  0  0  0  0  0  0  0  0  0
   -5.8320   -1.7750   -2.3770 C   0  0  0  0  0  0  0  0  0  0  0  0
   -5.4000   -0.4980   -2.7080 O   0  0  0  0  0  0  0  0  0  0  0  0
   -4.3160   -0.1260   -1.9180 C   0  0  2  0  0  0  0  0  0  0  0  0
   -3.1000   -0.8010   -2.4580 C   0  0  0  0  0  0  0  0  0  0  0  0
  1  2  1  0
  2  3  1  0
  3  4  2  0
  3 32  1  0
  4  5  1  0
  4  6  1  0
  6  7  2  0
  7  8  1  0
  7 31  1  0
  8  9  1  0
  9 10  2  0
  9 11  1  0
 11 12  1  0
 12 13  1  0
 13 14  1  0
 14 15  2  0
 14 30  1  0
 15 16  1  0
 16 17  2  0
 17 18  1  0
 17 28  1  0
 18 19  2  0
 18 20  1  0
 21 20  1  1
 21 22  1  0
 21 27  1  0
 22 23  1  0
 24 23  1  1
 24 25  2  0
 24 26  2  0
 24 27  1  0
 28 29  1  0
 28 30  2  0
 31 32  2  0
 31 36  1  0
 32 33  1  0
 33 34  1  0
 34 35  1  0
 35 36  1  0
 36 37  1  6
M  END
