
     RDKit          3D

 37 40  0  0  0  0  0  0  0  0999 V2000
   -0.2950   -2.7170    1.3490 C   0  0  0  0  0  0  0  0  0  0  0  0
   -0.7050   -2.1940    0.0150 C   0  0  0  0  0  0  0  0  0  0  0  0
   -0.5730   -0.7120   -0.1520 C   0  0  2  0  0  0  0  0  0  0  0  0
   -1.0230   -0.3390   -1.4930 N   0  0  0  0  0  0  0  0  0  0  0  0
   -2.3550   -0.5680   -1.9680 C   0  0  0  0  0  0  0  0  0  0  0  0
   -3.1590   -1.1050   -1.1970 O   0  0  0  0  0  0  0  0  0  0  0  0
   -2.7560   -0.2210   -3.2230 O   0  0  0  0  0  0  0  0  0  0  0  0
   -4.0000   -0.3790   -3.7830 C   0  0  0  0  0  0  0  0  0  0  0  0
   -5.1530    0.3950   -3.2830 C   0  0  0  0  0  0  0  0  0  0  0  0
   -5.5430    0.2570   -1.8910 C   0  0  0  0  0  0  0  0  0  0  0  0
   -6.3830   -0.7170   -1.3330 C   0  0  0  0  0  0  0  0  0  0  0  0
   -6.4840   -0.4670    0.0110 C   0  0  0  0  0  0  0  0  0  0  0  0
   -5.7080    0.6470    0.2410 C   0  0  0  0  0  0  0  0  0  0  0  0
   -5.5780    1.2210    1.6180 C   0  0  0  0  0  0  0  0  0  0  0  0
   -5.1910    1.0230   -0.8790 O   0  0  0  0  0  0  0  0  0  0  0  0
    0.8690   -0.3200   -0.0660 C   0  0  0  0  0  0  0  0  0  0  0  0
    1.2030    0.3180    1.2510 C   0  0  1  0  0  0  0  0  0  0  0  0
    2.6800    0.4340    1.4250 C   0  0  0  0  0  0  0  0  0  0  0  0
    3.2970    1.4920    1.6070 O   0  0  0  0  0  0  0  0  0  0  0  0
    3.4800   -0.7370    1.3840 N   0  0  0  0  0  0  0  0  0  0  0  0
    4.8450   -0.9690    1.4930 C   0  0  0  0  0  0  0  0  0  0  0  0
    5.8020   -0.4500    0.4910 C   0  0  0  0  0  0  0  0  0  0  0  0
    6.4200   -1.3580   -0.2650 C   0  0  0  0  0  0  0  0  0  0  0  0
    7.3960   -1.1910   -1.3200 C   0  0  0  0  0  0  0  0  0  0  0  0
    7.9040    0.4980   -1.5220 S   0  0  0  0  0  0  0  0  0  0  0  0
    9.3860    0.7190   -1.2590 O   0  0  0  0  0  0  0  0  0  0  0  0
    6.9750    1.4910   -0.4320 C   0  0  0  0  0  0  0  0  0  0  0  0
    6.0910    0.9520    0.3940 C   0  0  0  0  0  0  0  0  0  0  0  0
    0.4370    1.5530    1.4200 C   0  0  0  0  0  0  0  0  0  0  0  0
    0.8820    2.7820    1.7810 C   0  0  0  0  0  0  0  0  0  0  0  0
   -0.0290    3.8370    1.9210 C   0  0  0  0  0  0  0  0  0  0  0  0
   -1.3760    3.6780    1.7050 C   0  0  0  0  0  0  0  0  0  0  0  0
   -2.2450    4.7160    1.8470 F   0  0  0  0  0  0  0  0  0  0  0  0
   -1.8440    2.4320    1.3370 C   0  0  0  0  0  0  0  0  0  0  0  0
   -0.9450    1.4010    1.2010 C   0  0  0  0  0  0  0  0  0  0  0  0
   -1.4080    0.0750    0.7990 C   0  0  0  0  0  0  0  0  0  0  0  0
   -2.4980   -0.3360    1.2820 O   0  0  0  0  0  0  0  0  0  0  0  0
  1  2  1  0
  3  2  1  1
  3  4  1  0
  3 16  1  0
  3 36  1  0
  4  5  1  0
  5  6  2  0
  5  7  1  0
  7  8  1  0
  8  9  1  0
  9 10  1  0
 10 11  2  0
 10 15  1  0
 11 12  1  0
 12 13  2  0
 13 14  1  0
 13 15  1  0
 16 17  1  0
 17 18  1  6
 17 29  1  0
 18 19  2  0
 18 20  1  0
 20 21  1  0
 21 22  1  0
 22 23  2  0
 22 28  1  0
 23 24  1  0
 25 24  1  1
 25 26  2  0
 25 27  1  0
 27 28  2  0
 29 30  2  0
 29 35  1  0
 30 31  1  0
 31 32  2  0
 32 33  1  0
 32 34  1  0
 34 35  2  0
 35 36  1  0
 36 37  2  0
M  END
