
     RDKit          3D

 36 40  0  0  0  0  0  0  0  0999 V2000
   -1.2820   -2.5870    1.9670 C   0  0  0  0  0  0  0  0  0  0  0  0
   -1.5090   -2.8050    0.5200 C   0  0  2  0  0  0  0  0  0  0  0  0
   -1.3650   -4.3560    0.3400 C   0  0  0  0  0  0  0  0  0  0  0  0
   -0.5880   -2.2370   -0.4670 C   0  0  0  0  0  0  0  0  0  0  0  0
   -0.3420   -0.7870   -0.5850 C   0  0  2  0  0  0  0  0  0  0  0  0
    0.5880   -0.4560   -1.7150 C   0  0  0  0  0  0  0  0  0  0  0  0
    1.9340   -0.9980   -1.7810 C   0  0  0  0  0  0  0  0  0  0  0  0
    2.9400   -0.6770   -0.8430 N   0  0  0  0  0  0  0  0  0  0  0  0
    3.4790    0.6380   -0.6010 C   0  0  0  0  0  0  0  0  0  0  0  0
    3.0000    1.5720   -1.2860 O   0  0  0  0  0  0  0  0  0  0  0  0
    4.5060    0.8260    0.3790 N   0  0  0  0  0  0  0  0  0  0  0  0
    5.0090    2.1620    0.6020 C   0  0  0  0  0  0  0  0  0  0  0  0
    6.4980    2.2300    0.7870 C   0  0  0  0  0  0  0  0  0  0  0  0
    7.0710    0.9590    0.8750 O   0  0  0  0  0  0  0  0  0  0  0  0
    6.3280    0.2240    1.8140 C   0  0  0  0  0  0  0  0  0  0  0  0
    5.0600   -0.2530    1.1460 C   0  0  0  0  0  0  0  0  0  0  0  0
    0.0550   -0.0520    0.6500 C   0  0  1  0  0  0  0  0  0  0  0  0
    1.2550   -0.5260    1.1860 O   0  0  0  0  0  0  0  0  0  0  0  0
    0.1430    1.4130    0.5180 C   0  0  0  0  0  0  0  0  0  0  0  0
    0.9660    2.1680    1.3580 C   0  0  0  0  0  0  0  0  0  0  0  0
    1.0150    3.5420    1.2750 C   0  0  0  0  0  0  0  0  0  0  0  0
    0.2590    4.2370    0.3620 C   0  0  0  0  0  0  0  0  0  0  0  0
   -0.5620    3.5070   -0.4780 C   0  0  0  0  0  0  0  0  0  0  0  0
   -0.6120    2.1090   -0.3930 C   0  0  0  0  0  0  0  0  0  0  0  0
   -1.2670    4.4480   -1.3650 C   0  0  0  0  0  0  0  0  0  0  0  0
   -0.4560    5.7220   -1.3210 C   0  0  0  0  0  0  0  0  0  0  0  0
    0.1090    5.6900    0.0650 C   0  0  0  0  0  0  0  0  0  0  0  0
   -2.9520   -2.5390    0.2140 C   0  0  0  0  0  0  0  0  0  0  0  0
   -3.4980   -1.3100    0.4870 C   0  0  0  0  0  0  0  0  0  0  0  0
   -4.8250   -1.0310    0.2250 C   0  0  0  0  0  0  0  0  0  0  0  0
   -5.6450   -1.9850   -0.3220 C   0  0  0  0  0  0  0  0  0  0  0  0
   -5.1170   -3.2260   -0.6040 C   0  0  0  0  0  0  0  0  0  0  0  0
   -3.7680   -3.5120   -0.3390 C   0  0  0  0  0  0  0  0  0  0  0  0
   -6.1900   -4.0530   -1.1670 C   0  0  0  0  0  0  0  0  0  0  0  0
   -7.2690   -3.0500   -1.4960 C   0  0  0  0  0  0  0  0  0  0  0  0
   -6.9800   -1.9580   -0.6720 O   0  0  0  0  0  0  0  0  0  0  0  0
  2  1  1  1
  2  3  1  0
  2  4  1  0
  2 28  1  0
  5  4  1  1
  5  6  1  0
  5 17  1  0
  6  7  1  0
  7  8  1  0
  8  9  1  0
  9 10  2  0
  9 11  1  0
 11 12  1  0
 11 16  1  0
 12 13  1  0
 13 14  1  0
 14 15  1  0
 15 16  1  0
 17 18  1  6
 17 19  1  0
 19 20  2  0
 19 24  1  0
 20 21  1  0
 21 22  2  0
 22 23  1  0
 22 27  1  0
 23 24  2  0
 23 25  1  0
 25 26  1  0
 26 27  1  0
 28 29  2  0
 28 33  1  0
 29 30  1  0
 30 31  2  0
 31 32  1  0
 31 36  1  0
 32 33  2  0
 32 34  1  0
 34 35  1  0
 35 36  1  0
M  END
