
     RDKit          3D

 36 39  0  0  0  0  0  0  0  0999 V2000
    3.7820   -4.5840   -1.5130 N   0  0  0  0  0  0  0  0  0  0  0  0
    2.2380   -4.1430   -0.8570 S   0  0  2  0  0  0  0  0  0  0  0  0
    1.4090   -5.3760   -0.7010 O   0  0  0  0  0  0  0  0  0  0  0  0
    1.5640   -3.2150   -1.8380 O   0  0  0  0  0  0  0  0  0  0  0  0
    2.5130   -3.4000    0.6610 N   0  0  0  0  0  0  0  0  0  0  0  0
    3.2950   -2.2110    0.5430 C   0  0  0  0  0  0  0  0  0  0  0  0
    2.2440   -1.1000    0.6180 C   0  0  2  0  0  0  0  0  0  0  0  0
    2.8990    0.1950    0.9710 C   0  0  0  0  0  0  0  0  0  0  0  0
    2.5130    0.7330    2.0120 O   0  0  0  0  0  0  0  0  0  0  0  0
    3.8870    0.7140    0.1280 N   0  0  0  0  0  0  0  0  0  0  0  0
    4.5660    1.9120    0.3540 C   0  0  0  0  0  0  0  0  0  0  0  0
    4.3640    2.7470    1.4120 C   0  0  0  0  0  0  0  0  0  0  0  0
    5.1050    3.9280    1.5430 C   0  0  0  0  0  0  0  0  0  0  0  0
    6.0540    4.2880    0.6200 C   0  0  0  0  0  0  0  0  0  0  0  0
    7.0050    5.7470    0.7350 Cl  0  0  0  0  0  0  0  0  0  0  0  0
    6.2670    3.4530   -0.4520 C   0  0  0  0  0  0  0  0  0  0  0  0
    5.5300    2.2990   -0.5610 C   0  0  0  0  0  0  0  0  0  0  0  0
    1.3710   -1.6260    1.7380 C   0  0  1  0  0  0  0  0  0  0  0  0
    0.0210   -0.9850    1.6420 C   0  0  0  0  0  0  0  0  0  0  0  0
   -0.3880   -0.3240    2.6080 O   0  0  0  0  0  0  0  0  0  0  0  0
   -0.7570   -1.1340    0.4780 N   0  0  0  0  0  0  0  0  0  0  0  0
   -2.0180   -0.5880    0.2770 C   0  0  0  0  0  0  0  0  0  0  0  0
   -2.6820    0.1780    1.1920 C   0  0  0  0  0  0  0  0  0  0  0  0
   -3.9580    0.6990    0.9230 C   0  0  0  0  0  0  0  0  0  0  0  0
   -4.5880    0.4570   -0.2770 C   0  0  0  0  0  0  0  0  0  0  0  0
   -5.8790    0.9820   -0.5550 N   0  0  0  0  0  0  0  0  0  0  0  0
   -6.0960    2.2860   -0.2590 C   0  0  0  0  0  0  0  0  0  0  0  0
   -7.3410    2.8610   -0.5080 C   0  0  0  0  0  0  0  0  0  0  0  0
   -8.3410    2.0630   -1.0610 C   0  0  0  0  0  0  0  0  0  0  0  0
   -8.1170    0.7370   -1.3600 C   0  0  0  0  0  0  0  0  0  0  0  0
   -6.8670    0.2330   -1.0910 C   0  0  0  0  0  0  0  0  0  0  0  0
   -6.6130   -0.9660   -1.3440 O   0  0  0  0  0  0  0  0  0  0  0  0
   -3.9250   -0.3120   -1.2010 C   0  0  0  0  0  0  0  0  0  0  0  0
   -2.6700   -0.8280   -0.9410 C   0  0  0  0  0  0  0  0  0  0  0  0
   -2.0250   -1.5810   -1.8520 F   0  0  0  0  0  0  0  0  0  0  0  0
    1.3220   -3.1050    1.3940 C   0  0  0  0  0  0  0  0  0  0  0  0
  2  1  1  6
  2  3  2  0
  2  4  2  0
  2  5  1  0
  5  6  1  0
  5 36  1  0
  6  7  1  0
  7  8  1  1
  7 18  1  0
  8  9  2  0
  8 10  1  0
 10 11  1  0
 11 12  2  0
 11 17  1  0
 12 13  1  0
 13 14  2  0
 14 15  1  0
 14 16  1  0
 16 17  2  0
 18 19  1  6
 18 36  1  0
 19 20  2  0
 19 21  1  0
 21 22  1  0
 22 23  2  0
 22 34  1  0
 23 24  1  0
 24 25  2  0
 25 26  1  0
 25 33  1  0
 26 27  1  0
 26 31  1  0
 27 28  2  0
 28 29  1  0
 29 30  2  0
 30 31  1  0
 31 32  2  0
 33 34  2  0
 34 35  1  0
M  END
