
     RDKit          3D

 35 39  0  0  0  0  0  0  0  0999 V2000
    7.7160   -1.0240   -1.1450 C   0  0  0  0  0  0  0  0  0  0  0  0
    7.8460   -0.7400    0.3350 C   0  0  0  0  0  0  0  0  0  0  0  0
    6.8010    0.1770    0.8690 C   0  0  1  0  0  0  0  0  0  0  0  0
    6.8560    1.5060    0.1690 C   0  0  0  0  0  0  0  0  0  0  0  0
    5.8730    2.4710    0.8270 C   0  0  1  0  0  0  0  0  0  0  0  0
    5.8200    3.6350    0.0680 O   0  0  0  0  0  0  0  0  0  0  0  0
    4.5290    1.8730    0.8360 C   0  0  0  0  0  0  0  0  0  0  0  0
    3.4330    2.6980    0.8460 C   0  0  0  0  0  0  0  0  0  0  0  0
    2.1530    2.1980    0.8330 C   0  0  0  0  0  0  0  0  0  0  0  0
    1.9210    0.8180    0.8070 C   0  0  0  0  0  0  0  0  0  0  0  0
    0.5280    0.3080    0.7640 C   0  0  0  0  0  0  0  0  0  0  0  0
    0.0920   -0.0490   -0.6150 C   0  0  0  0  0  0  0  0  0  0  0  0
   -1.2710   -0.5650   -0.7070 C   0  0  0  0  0  0  0  0  0  0  0  0
   -1.8070   -0.6370   -1.8000 O   0  0  0  0  0  0  0  0  0  0  0  0
   -2.1100   -1.0330    0.4380 C   0  0  0  0  0  0  0  0  0  0  0  0
   -3.4140   -1.3210    0.1490 N   0  0  0  0  0  0  0  0  0  0  0  0
   -3.7940   -2.4040   -0.6780 C   0  0  0  0  0  0  0  0  0  0  0  0
   -5.0080   -1.8090   -1.4450 C   0  0  1  0  0  0  0  0  0  0  0  0
   -5.7630   -2.8260   -1.9750 O   0  0  0  0  0  0  0  0  0  0  0  0
   -5.6930   -1.0910   -0.2830 C   0  0  2  0  0  0  0  0  0  0  0  0
   -6.5940   -0.0200   -0.7540 C   0  0  0  0  0  0  0  0  0  0  0  0
   -6.5300    0.5110   -2.0220 C   0  0  0  0  0  0  0  0  0  0  0  0
   -7.3400    1.5430   -2.4660 C   0  0  0  0  0  0  0  0  0  0  0  0
   -8.2680    2.0850   -1.6150 C   0  0  0  0  0  0  0  0  0  0  0  0
   -8.3540    1.5730   -0.3400 C   0  0  0  0  0  0  0  0  0  0  0  0
   -7.5240    0.5240    0.0940 C   0  0  0  0  0  0  0  0  0  0  0  0
   -7.7930    0.0700    1.4490 C   0  0  0  0  0  0  0  0  0  0  0  0
   -7.2910   -0.9440    2.0020 O   0  0  0  0  0  0  0  0  0  0  0  0
   -4.5270   -0.5760    0.5300 C   0  0  0  0  0  0  0  0  0  0  0  0
    3.0320    0.0080    0.7980 C   0  0  0  0  0  0  0  0  0  0  0  0
    2.8500   -1.3450    0.7820 C   0  0  0  0  0  0  0  0  0  0  0  0
    3.9270   -2.2000    0.7800 C   0  0  0  0  0  0  0  0  0  0  0  0
    5.2110   -1.7310    0.7950 C   0  0  0  0  0  0  0  0  0  0  0  0
    5.4170   -0.3390    0.8130 C   0  0  0  0  0  0  0  0  0  0  0  0
    4.3510    0.5200    0.8130 C   0  0  0  0  0  0  0  0  0  0  0  0
  1  2  1  0
  3  2  1  6
  3  4  1  0
  3 34  1  0
  4  5  1  0
  5  6  1  6
  5  7  1  0
  7  8  1  0
  7 35  2  0
  8  9  2  0
  9 10  1  0
 10 11  1  0
 10 30  2  0
 11 12  1  0
 12 13  1  0
 13 14  2  0
 13 15  1  0
 15 16  1  0
 16 17  1  0
 16 29  1  0
 17 18  1  0
 18 19  1  1
 18 20  1  0
 20 21  1  6
 20 29  1  0
 21 22  2  0
 21 26  1  0
 22 23  1  0
 23 24  2  0
 24 25  1  0
 25 26  2  0
 26 27  1  0
 27 28  2  0
 30 31  1  0
 30 35  1  0
 31 32  2  0
 32 33  1  0
 33 34  2  0
 34 35  1  0
M  END
