
     RDKit          3D

 36 40  0  0  0  0  0  0  0  0999 V2000
   -5.7710    2.7070   -0.6940 C   0  0  0  0  0  0  0  0  0  0  0  0
   -6.1540    1.7120    0.3420 C   0  0  0  0  0  0  0  0  0  0  0  0
   -5.5690    0.3680    0.1540 C   0  0  0  0  0  0  0  0  0  0  0  0
   -5.9130   -0.5880    1.1090 C   0  0  0  0  0  0  0  0  0  0  0  0
   -6.7670   -0.2390    2.1650 O   0  0  0  0  0  0  0  0  0  0  0  0
   -7.0810   -1.2500    3.1030 C   0  0  0  0  0  0  0  0  0  0  0  0
   -5.3970   -1.8580    0.9840 C   0  0  0  0  0  0  0  0  0  0  0  0
   -4.5480   -2.1950   -0.0700 C   0  0  0  0  0  0  0  0  0  0  0  0
   -4.1970   -1.2650   -1.0210 C   0  0  0  0  0  0  0  0  0  0  0  0
   -4.7410    0.0150   -0.8630 C   0  0  0  0  0  0  0  0  0  0  0  0
   -4.4050    0.9490   -1.8040 O   0  0  0  0  0  0  0  0  0  0  0  0
   -3.5820    0.7220   -2.8810 C   0  0  0  0  0  0  0  0  0  0  0  0
   -2.9920    1.6370   -3.4850 O   0  0  0  0  0  0  0  0  0  0  0  0
   -3.4190   -0.6900   -3.3090 C   0  0  0  0  0  0  0  0  0  0  0  0
   -3.2960   -1.6340   -2.1080 C   0  0  1  0  0  0  0  0  0  0  0  0
   -1.8360   -1.6630   -1.7560 C   0  0  1  0  0  0  0  0  0  0  0  0
   -1.3150   -0.3600   -1.2480 C   0  0  0  0  0  0  0  0  0  0  0  0
   -0.1380   -0.7500   -0.4430 C   0  0  0  0  0  0  0  0  0  0  0  0
    0.9600   -0.0300    0.0300 C   0  0  0  0  0  0  0  0  0  0  0  0
    1.9670   -0.5890    0.7820 C   0  0  0  0  0  0  0  0  0  0  0  0
    3.1230    0.1510    1.2810 C   0  0  0  0  0  0  0  0  0  0  0  0
    3.9040   -0.4370    2.0930 O   0  0  0  0  0  0  0  0  0  0  0  0
    3.3780    1.4860    0.8760 N   0  0  0  0  0  0  0  0  0  0  0  0
    4.5230    2.1600    1.3900 C   0  0  0  0  0  0  0  0  0  0  0  0
    5.7640    1.5340    0.8990 C   0  0  0  0  0  0  0  0  0  0  0  0
    5.7200    0.5090    0.0080 C   0  0  0  0  0  0  0  0  0  0  0  0
    6.8950   -0.0700   -0.4830 C   0  0  0  0  0  0  0  0  0  0  0  0
    6.8170   -1.1840   -1.4500 C   0  0  0  0  0  0  0  0  0  0  0  0
    8.1080    0.4160   -0.0490 C   0  0  0  0  0  0  0  0  0  0  0  0
    8.1450    1.4560    0.8540 C   0  0  0  0  0  0  0  0  0  0  0  0
    7.0010    2.0230    1.3350 C   0  0  0  0  0  0  0  0  0  0  0  0
    7.0040    3.1460    2.3100 C   0  0  0  0  0  0  0  0  0  0  0  0
    1.8420   -1.9570    1.0650 C   0  0  0  0  0  0  0  0  0  0  0  0
    0.7580   -2.6560    0.5950 C   0  0  0  0  0  0  0  0  0  0  0  0
   -0.2450   -2.0870   -0.1580 C   0  0  0  0  0  0  0  0  0  0  0  0
   -1.4540   -2.6040   -0.7530 N   0  0  0  0  0  0  0  0  0  0  0  0
  1  2  1  0
  2  3  1  0
  3  4  2  0
  3 10  1  0
  4  5  1  0
  4  7  1  0
  5  6  1  0
  7  8  2  0
  8  9  1  0
  9 10  2  0
  9 15  1  0
 10 11  1  0
 11 12  1  0
 12 13  2  0
 12 14  1  0
 15 14  1  6
 15 16  1  0
 16 17  1  1
 16 36  1  0
 17 18  1  0
 18 19  2  0
 18 35  1  0
 19 20  1  0
 20 21  1  0
 20 33  2  0
 21 22  2  0
 21 23  1  0
 23 24  1  0
 24 25  1  0
 25 26  2  0
 25 31  1  0
 26 27  1  0
 27 28  1  0
 27 29  2  0
 29 30  1  0
 30 31  2  0
 31 32  1  0
 33 34  1  0
 34 35  2  0
 35 36  1  0
M  END
