
     RDKit          3D

 37 39  0  0  0  0  0  0  0  0999 V2000
   -7.5820    2.4960    1.8800 C   0  0  0  0  0  0  0  0  0  0  0  0
   -8.0900    2.2730    0.6900 C   0  0  0  0  0  0  0  0  0  0  0  0
   -9.2340    2.9650    0.2550 O   0  0  0  0  0  0  0  0  0  0  0  0
   -9.8090    2.7690   -0.9800 C   0  0  0  0  0  0  0  0  0  0  0  0
   -9.2700    1.9000   -1.7920 C   0  0  0  0  0  0  0  0  0  0  0  0
   -8.0840    1.1480   -1.4070 C   0  0  0  0  0  0  0  0  0  0  0  0
   -7.4850    1.3030   -0.2130 C   0  0  0  0  0  0  0  0  0  0  0  0
   -6.3380    0.5460    0.1160 N   0  0  0  0  0  0  0  0  0  0  0  0
   -5.0500    1.0740    0.3660 C   0  0  0  0  0  0  0  0  0  0  0  0
   -4.8700    2.2970    0.2950 O   0  0  0  0  0  0  0  0  0  0  0  0
   -3.9660    0.2730    0.6910 O   0  0  0  0  0  0  0  0  0  0  0  0
   -2.6800    0.7750    0.9430 C   0  0  0  0  0  0  0  0  0  0  0  0
   -1.7760   -0.3760    1.2620 C   0  0  0  0  0  0  0  0  0  0  0  0
   -2.2160   -1.5610    1.2700 O   0  0  0  0  0  0  0  0  0  0  0  0
   -0.4100   -0.1990    1.5640 N   0  0  0  0  0  0  0  0  0  0  0  0
    0.4630   -1.3010    1.8720 C   0  0  2  0  0  0  0  0  0  0  0  0
   -0.0250   -2.0630    3.1020 C   0  0  0  0  0  0  0  0  0  0  0  0
    1.8700   -0.8890    2.1380 C   0  0  0  0  0  0  0  0  0  0  0  0
    2.4710   -0.1910    0.9450 C   0  0  0  0  0  0  0  0  0  0  0  0
    1.8070   -0.0150   -0.0990 O   0  0  0  0  0  0  0  0  0  0  0  0
    3.7830    0.2510    1.0380 N   0  0  0  0  0  0  0  0  0  0  0  0
    4.4550    0.9300   -0.0430 C   0  0  0  0  0  0  0  0  0  0  0  0
    4.0730    1.2850   -1.2740 C   0  0  0  0  0  0  0  0  0  0  0  0
    4.9200    1.9210   -2.0930 C   0  0  0  0  0  0  0  0  0  0  0  0
    6.1920    2.1980   -1.6320 C   0  0  0  0  0  0  0  0  0  0  0  0
    7.3020    2.8400   -2.2280 C   0  0  0  0  0  0  0  0  0  0  0  0
    7.5560    3.4030   -3.4060 C   0  0  0  0  0  0  0  0  0  0  0  0
    8.7200    3.9530   -3.7220 C   0  0  0  0  0  0  0  0  0  0  0  0
    9.7470    3.9410   -2.7570 C   0  0  0  0  0  0  0  0  0  0  0  0
    8.9140    3.0830   -1.3690 S   0  0  0  0  0  0  0  0  0  0  0  0
    6.1130    1.5060    0.0220 S   0  0  0  0  0  0  0  0  0  0  0  0
    0.4990   -2.3160    0.7680 C   0  0  0  0  0  0  0  0  0  0  0  0
   -0.1510   -2.2160   -0.2850 O   0  0  0  0  0  0  0  0  0  0  0  0
    1.3040   -3.4060    0.9580 O   0  0  0  0  0  0  0  0  0  0  0  0
    1.4690   -4.4650    0.0350 C   0  0  1  0  0  0  0  0  0  0  0  0
    2.9060   -4.5240   -0.4540 C   0  0  0  0  0  0  0  0  0  0  0  0
    1.0280   -5.7840    0.6000 C   0  0  0  0  0  0  0  0  0  0  0  0
  1  2  2  0
  2  3  1  0
  2  7  1  0
  3  4  1  0
  4  5  2  0
  5  6  1  0
  6  7  2  0
  7  8  1  0
  8  9  1  0
  9 10  2  0
  9 11  1  0
 11 12  1  0
 12 13  1  0
 13 14  2  0
 13 15  1  0
 15 16  1  0
 16 17  1  1
 16 18  1  0
 16 32  1  0
 18 19  1  0
 19 20  2  0
 19 21  1  0
 21 22  1  0
 22 23  2  0
 22 31  1  0
 23 24  1  0
 24 25  2  0
 25 26  1  0
 25 31  1  0
 26 27  2  0
 26 30  1  0
 27 28  1  0
 28 29  2  0
 29 30  1  0
 32 33  2  0
 32 34  1  0
 34 35  1  0
 35 36  1  1
 35 37  1  0
M  END
