
     RDKit          3D

 37 40  0  0  0  0  0  0  0  0999 V2000
    8.4710    1.3900    1.1570 C   0  0  0  0  0  0  0  0  0  0  0  0
    8.8650    0.5120    0.2880 C   0  0  0  0  0  0  0  0  0  0  0  0
   10.4300   -0.3460    0.2170 S   0  0  0  0  0  0  0  0  0  0  0  0
   10.1280   -1.2650   -1.3500 C   0  0  0  0  0  0  0  0  0  0  0  0
    9.0700   -0.3530   -1.9620 C   0  0  0  0  0  0  0  0  0  0  0  0
    8.0940    0.0040   -0.8730 C   0  0  2  0  0  0  0  0  0  0  0  0
    7.1990    1.0050   -1.3930 N   0  0  0  0  0  0  0  0  0  0  0  0
    5.8040    0.7020   -1.4860 C   0  0  0  0  0  0  0  0  0  0  0  0
    5.4340   -0.4370   -1.1050 O   0  0  0  0  0  0  0  0  0  0  0  0
    4.8330    1.6660   -2.0020 C   0  0  0  0  0  0  0  0  0  0  0  0
    3.5410    1.0920   -1.9750 O   0  0  0  0  0  0  0  0  0  0  0  0
    2.9720    0.6790   -0.7660 C   0  0  0  0  0  0  0  0  0  0  0  0
    3.6120    0.8290    0.2820 O   0  0  0  0  0  0  0  0  0  0  0  0
    1.6810    0.0950   -0.7180 N   0  0  0  0  0  0  0  0  0  0  0  0
    0.9910   -0.3620    0.4110 C   0  0  0  0  0  0  0  0  0  0  0  0
    1.4430   -0.2810    1.6980 C   0  0  0  0  0  0  0  0  0  0  0  0
    0.7100   -0.7550    2.7880 C   0  0  0  0  0  0  0  0  0  0  0  0
   -0.5120   -1.3320    2.6210 C   0  0  0  0  0  0  0  0  0  0  0  0
   -0.9990   -1.4280    1.3110 C   0  0  0  0  0  0  0  0  0  0  0  0
   -0.2710   -0.9580    0.2430 C   0  0  0  0  0  0  0  0  0  0  0  0
   -0.8600   -1.0670   -1.4530 S   0  0  0  0  0  0  0  0  0  0  0  0
   -1.7930    0.3740   -1.9550 C   0  0  0  0  0  0  0  0  0  0  0  0
   -3.1510    0.4310   -1.3330 C   0  0  0  0  0  0  0  0  0  0  0  0
   -3.8050    1.4990   -1.3610 O   0  0  0  0  0  0  0  0  0  0  0  0
   -3.7090   -0.7080   -0.7170 N   0  0  0  0  0  0  0  0  0  0  0  0
   -4.9420   -0.8380   -0.0870 C   0  0  0  0  0  0  0  0  0  0  0  0
   -5.7980    0.2000    0.1420 C   0  0  0  0  0  0  0  0  0  0  0  0
   -7.0400    0.0040    0.7720 C   0  0  0  0  0  0  0  0  0  0  0  0
   -7.9030    1.0560    1.0000 O   0  0  0  0  0  0  0  0  0  0  0  0
   -7.5090    2.3500    0.5830 C   0  0  0  0  0  0  0  0  0  0  0  0
   -8.6020    3.3110    0.9360 C   0  0  0  0  0  0  0  0  0  0  0  0
   -7.3900   -1.2700    1.1630 C   0  0  0  0  0  0  0  0  0  0  0  0
   -6.5340   -2.3360    0.9400 C   0  0  0  0  0  0  0  0  0  0  0  0
   -5.3290   -2.1100    0.3220 C   0  0  0  0  0  0  0  0  0  0  0  0
   -7.1130   -3.5120    1.4250 O   0  0  0  0  0  0  0  0  0  0  0  0
   -8.4830   -3.2360    1.6950 C   0  0  0  0  0  0  0  0  0  0  0  0
   -8.4960   -1.8310    1.7920 O   0  0  0  0  0  0  0  0  0  0  0  0
  1  2  2  0
  2  3  1  0
  2  6  1  0
  3  4  1  0
  4  5  1  0
  5  6  1  0
  6  7  1  6
  7  8  1  0
  8  9  2  0
  8 10  1  0
 10 11  1  0
 11 12  1  0
 12 13  2  0
 12 14  1  0
 14 15  1  0
 15 16  2  0
 15 20  1  0
 16 17  1  0
 17 18  2  0
 18 19  1  0
 19 20  2  0
 20 21  1  0
 21 22  1  0
 22 23  1  0
 23 24  2  0
 23 25  1  0
 25 26  1  0
 26 27  2  0
 26 34  1  0
 27 28  1  0
 28 29  1  0
 28 32  2  0
 29 30  1  0
 30 31  1  0
 32 33  1  0
 32 37  1  0
 33 34  2  0
 33 35  1  0
 35 36  1  0
 36 37  1  0
M  END
