
     RDKit          3D

 36 40  0  0  0  0  0  0  0  0999 V2000
    7.6970   -3.2340    0.4350 O   0  0  0  0  0  0  0  0  0  0  0  0
    7.6440   -2.0120    0.7390 C   0  0  0  0  0  0  0  0  0  0  0  0
    8.9220   -1.4230    0.9520 N   0  0  0  0  0  0  0  0  0  0  0  0
    9.3310   -0.2400    1.6620 C   0  0  0  0  0  0  0  0  0  0  0  0
    8.1910    0.3950    2.4240 C   0  0  0  0  0  0  0  0  0  0  0  0
    7.1120    0.8480    1.4810 C   0  0  0  0  0  0  0  0  0  0  0  0
    5.9940   -0.1990    1.5440 C   0  0  1  0  0  0  0  0  0  0  0  0
    4.8220    0.4040    0.8790 C   0  0  0  0  0  0  0  0  0  0  0  0
    3.7690    0.8420    1.6500 C   0  0  0  0  0  0  0  0  0  0  0  0
    2.6940    1.3990    0.9870 C   0  0  0  0  0  0  0  0  0  0  0  0
    2.6430    1.5290   -0.3850 C   0  0  0  0  0  0  0  0  0  0  0  0
    1.4380    2.1420   -0.9710 C   0  0  0  0  0  0  0  0  0  0  0  0
    0.3900    1.1360   -1.2900 C   0  0  0  0  0  0  0  0  0  0  0  0
   -0.5780    0.7690   -0.3780 C   0  0  0  0  0  0  0  0  0  0  0  0
   -1.5510   -0.1750   -0.6940 C   0  0  0  0  0  0  0  0  0  0  0  0
   -1.5880   -0.7830   -1.9310 C   0  0  0  0  0  0  0  0  0  0  0  0
   -2.6320   -1.7980   -2.2700 C   0  0  0  0  0  0  0  0  0  0  0  0
   -3.8300   -1.0760   -2.8710 C   0  0  0  0  0  0  0  0  0  0  0  0
   -4.3900   -0.0970   -1.9050 C   0  0  0  0  0  0  0  0  0  0  0  0
   -3.9770    1.2050   -1.8390 C   0  0  0  0  0  0  0  0  0  0  0  0
   -4.5480    2.0420   -0.9150 C   0  0  0  0  0  0  0  0  0  0  0  0
   -5.5450    1.5640   -0.0480 C   0  0  0  0  0  0  0  0  0  0  0  0
   -5.9780    0.2630   -0.0920 C   0  0  0  0  0  0  0  0  0  0  0  0
   -7.0130   -0.2620    0.7980 C   0  0  0  0  0  0  0  0  0  0  0  0
   -7.5770    0.5260    1.6970 C   0  0  0  0  0  0  0  0  0  0  0  0
   -8.6060    0.1530    2.6390 C   0  0  0  0  0  0  0  0  0  0  0  0
   -9.1700   -1.3130    2.6800 S   0  0  1  0  0  0  0  0  0  0  0  0
  -10.6410   -1.2210    2.3060 O   0  0  0  0  0  0  0  0  0  0  0  0
   -8.3510   -2.2310    1.4600 C   0  0  0  0  0  0  0  0  0  0  0  0
   -7.4340   -1.6520    0.7110 C   0  0  0  0  0  0  0  0  0  0  0  0
   -5.3880   -0.5520   -1.0280 C   0  0  0  0  0  0  0  0  0  0  0  0
   -0.6210   -0.4170   -2.8430 C   0  0  0  0  0  0  0  0  0  0  0  0
    0.3440    0.5210   -2.5250 C   0  0  0  0  0  0  0  0  0  0  0  0
    3.7140    1.0820   -1.1450 C   0  0  0  0  0  0  0  0  0  0  0  0
    4.7940    0.5230   -0.4960 C   0  0  0  0  0  0  0  0  0  0  0  0
    6.3790   -1.3910    0.8300 N   0  0  0  0  0  0  0  0  0  0  0  0
  1  2  2  0
  2  3  1  0
  2 36  1  0
  3  4  1  0
  4  5  1  0
  5  6  1  0
  6  7  1  0
  7  8  1  6
  7 36  1  0
  8  9  2  0
  8 35  1  0
  9 10  1  0
 10 11  2  0
 11 12  1  0
 11 34  1  0
 12 13  1  0
 13 14  2  0
 13 33  1  0
 14 15  1  0
 15 16  2  0
 16 17  1  0
 16 32  1  0
 17 18  1  0
 18 19  1  0
 19 20  2  0
 19 31  1  0
 20 21  1  0
 21 22  2  0
 22 23  1  0
 23 24  1  0
 23 31  2  0
 24 25  2  0
 24 30  1  0
 25 26  1  0
 26 27  2  0
 27 28  2  0
 27 29  1  6
 29 30  2  0
 32 33  2  0
 34 35  2  0
M  END
