
     RDKit          3D

 36 39  0  0  0  0  0  0  0  0999 V2000
   -2.8200   -4.0380   -0.1080 C   0  0  0  0  0  0  0  0  0  0  0  0
   -2.7390   -2.6630   -1.2290 S   0  0  1  0  0  0  0  0  0  0  0  0
   -2.1320   -3.1630   -2.5070 O   0  0  0  0  0  0  0  0  0  0  0  0
   -4.1240   -2.1820   -1.5470 O   0  0  0  0  0  0  0  0  0  0  0  0
   -1.7370   -1.4660   -0.5770 N   0  0  0  0  0  0  0  0  0  0  0  0
   -2.1680   -0.9140    0.6630 C   0  0  0  0  0  0  0  0  0  0  0  0
   -2.0750    0.5930    0.5550 C   0  0  2  0  0  0  0  0  0  0  0  0
   -3.4070    1.1440    0.0760 C   0  0  0  0  0  0  0  0  0  0  0  0
   -3.4330    1.7900   -0.9960 O   0  0  0  0  0  0  0  0  0  0  0  0
   -4.5140    0.8750    0.8940 N   0  0  0  0  0  0  0  0  0  0  0  0
   -5.8110    1.3230    0.5880 C   0  0  0  0  0  0  0  0  0  0  0  0
   -6.0990    2.2800   -0.3380 C   0  0  0  0  0  0  0  0  0  0  0  0
   -7.4200    2.6820   -0.6200 C   0  0  0  0  0  0  0  0  0  0  0  0
   -8.4870    2.1200    0.0320 C   0  0  0  0  0  0  0  0  0  0  0  0
  -10.1440    2.6130   -0.3120 Cl  0  0  0  0  0  0  0  0  0  0  0  0
   -8.2030    1.1520    0.9690 C   0  0  0  0  0  0  0  0  0  0  0  0
   -6.9180    0.7650    1.2400 C   0  0  0  0  0  0  0  0  0  0  0  0
   -1.0560    0.7520   -0.5510 C   0  0  1  0  0  0  0  0  0  0  0  0
    0.3240    0.5330   -0.0040 C   0  0  0  0  0  0  0  0  0  0  0  0
    0.4370    0.2700    1.1940 O   0  0  0  0  0  0  0  0  0  0  0  0
    1.4060    0.6410   -0.8970 N   0  0  0  0  0  0  0  0  0  0  0  0
    2.7480    0.4600   -0.5200 C   0  0  0  0  0  0  0  0  0  0  0  0
    3.2100    0.1600    0.7290 C   0  0  0  0  0  0  0  0  0  0  0  0
    4.5730   -0.0030    1.0160 C   0  0  0  0  0  0  0  0  0  0  0  0
    5.5090    0.1350    0.0360 C   0  0  0  0  0  0  0  0  0  0  0  0
    6.8680   -0.0240    0.3040 N   0  0  0  0  0  0  0  0  0  0  0  0
    7.7220    0.9210   -0.1060 C   0  0  0  0  0  0  0  0  0  0  0  0
    9.0650    0.7540    0.1640 C   0  0  0  0  0  0  0  0  0  0  0  0
    9.5030   -0.3660    0.8420 C   0  0  0  0  0  0  0  0  0  0  0  0
    8.5950   -1.3150    1.2470 C   0  0  0  0  0  0  0  0  0  0  0  0
    7.2590   -1.1290    0.9670 C   0  0  0  0  0  0  0  0  0  0  0  0
    6.4170   -1.9890    1.3310 O   0  0  0  0  0  0  0  0  0  0  0  0
    5.0740    0.4360   -1.2260 C   0  0  0  0  0  0  0  0  0  0  0  0
    3.7470    0.5950   -1.5050 C   0  0  0  0  0  0  0  0  0  0  0  0
    3.3560    0.8930   -2.7690 F   0  0  0  0  0  0  0  0  0  0  0  0
   -1.4320   -0.3870   -1.4750 C   0  0  0  0  0  0  0  0  0  0  0  0
  2  1  1  1
  2  3  2  0
  2  4  2  0
  2  5  1  0
  5  6  1  0
  5 36  1  0
  6  7  1  0
  7  8  1  6
  7 18  1  0
  8  9  2  0
  8 10  1  0
 10 11  1  0
 11 12  2  0
 11 17  1  0
 12 13  1  0
 13 14  2  0
 14 15  1  0
 14 16  1  0
 16 17  2  0
 18 19  1  1
 18 36  1  0
 19 20  2  0
 19 21  1  0
 21 22  1  0
 22 23  2  0
 22 34  1  0
 23 24  1  0
 24 25  2  0
 25 26  1  0
 25 33  1  0
 26 27  1  0
 26 31  1  0
 27 28  2  0
 28 29  1  0
 29 30  2  0
 30 31  1  0
 31 32  2  0
 33 34  2  0
 34 35  1  0
M  END
