
     RDKit          3D

 36 40  0  0  0  0  0  0  0  0999 V2000
    4.9170   -1.3100    3.7340 C   0  0  0  0  0  0  0  0  0  0  0  0
    5.3660   -0.6680    2.5600 O   0  0  0  0  0  0  0  0  0  0  0  0
    4.4690    0.0700    1.7940 C   0  0  0  0  0  0  0  0  0  0  0  0
    3.2820    0.1350    2.1870 O   0  0  0  0  0  0  0  0  0  0  0  0
    4.8760    0.7610    0.5610 C   0  0  2  0  0  0  0  0  0  0  0  0
    3.7970    1.4420   -0.1240 N   0  0  0  0  0  0  0  0  0  0  0  0
    2.7710    0.5270   -0.6160 C   0  0  0  0  0  0  0  0  0  0  0  0
    1.6970    1.3150   -1.2540 C   0  0  0  0  0  0  0  0  0  0  0  0
    1.7700    2.6820   -1.3170 C   0  0  0  0  0  0  0  0  0  0  0  0
    0.7790    3.4540   -1.8980 C   0  0  0  0  0  0  0  0  0  0  0  0
   -0.3110    2.8080   -2.4260 C   0  0  0  0  0  0  0  0  0  0  0  0
   -0.4190    1.4570   -2.3820 C   0  0  0  0  0  0  0  0  0  0  0  0
    0.5810    0.6560   -1.7930 C   0  0  0  0  0  0  0  0  0  0  0  0
    0.5860   -0.7710   -1.8570 C   0  0  0  0  0  0  0  0  0  0  0  0
   -0.1290   -1.7900   -1.8140 C   0  0  0  0  0  0  0  0  0  0  0  0
   -1.4150   -2.4240   -1.6680 C   0  0  0  0  0  0  0  0  0  0  0  0
   -1.4630   -3.7440   -1.9170 C   0  0  0  0  0  0  0  0  0  0  0  0
   -2.5880   -4.6830   -1.8620 C   0  0  0  0  0  0  0  0  0  0  0  0
   -4.2030   -3.8830   -1.8750 S   0  0  0  0  0  0  0  0  0  0  0  0
   -3.8910   -2.2580   -1.1900 C   0  0  0  0  0  0  0  0  0  0  0  0
   -4.9510   -1.6340   -0.6210 C   0  0  0  0  0  0  0  0  0  0  0  0
   -4.8510   -0.3790   -0.0830 C   0  0  0  0  0  0  0  0  0  0  0  0
   -5.9770    0.3450    0.5370 C   0  0  1  0  0  0  0  0  0  0  0  0
   -7.1550   -0.5880    0.6910 C   0  0  0  0  0  0  0  0  0  0  0  0
   -8.3030    0.1390    1.3980 C   0  0  0  0  0  0  0  0  0  0  0  0
   -7.7780    0.5620    2.7530 C   0  0  0  0  0  0  0  0  0  0  0  0
   -6.6390    1.5240    2.5190 C   0  0  0  0  0  0  0  0  0  0  0  0
   -5.5490    0.9200    1.7710 N   0  0  0  0  0  0  0  0  0  0  0  0
   -3.5920    0.1880   -0.1670 C   0  0  0  0  0  0  0  0  0  0  0  0
   -2.5200   -0.4520   -0.7440 C   0  0  0  0  0  0  0  0  0  0  0  0
   -2.6430   -1.7350   -1.2930 C   0  0  0  0  0  0  0  0  0  0  0  0
    5.5310   -0.1910   -0.4000 C   0  0  0  0  0  0  0  0  0  0  0  0
    6.9590   -0.4840   -0.0290 C   0  0  0  0  0  0  0  0  0  0  0  0
    7.8570    0.7330   -0.1640 C   0  0  0  0  0  0  0  0  0  0  0  0
    6.9680    1.9490   -0.1780 C   0  0  0  0  0  0  0  0  0  0  0  0
    5.9180    1.8220    0.9050 C   0  0  0  0  0  0  0  0  0  0  0  0
  1  2  1  0
  2  3  1  0
  3  4  2  0
  3  5  1  0
  5  6  1  6
  5 32  1  0
  5 36  1  0
  6  7  1  0
  7  8  1  0
  8  9  2  0
  8 13  1  0
  9 10  1  0
 10 11  2  0
 11 12  1  0
 12 13  2  0
 13 14  1  0
 14 15  2  3
 15 16  1  0
 16 17  2  0
 16 31  1  0
 17 18  1  0
 18 19  1  0
 19 20  1  0
 20 21  2  0
 20 31  1  0
 21 22  1  0
 23 22  1  1
 22 29  2  0
 23 24  1  0
 23 28  1  0
 24 25  1  0
 25 26  1  0
 26 27  1  0
 27 28  1  0
 29 30  1  0
 30 31  2  0
 32 33  1  0
 33 34  1  0
 34 35  1  0
 35 36  1  0
M  END
