
     RDKit          3D

 36 40  0  0  0  0  0  0  0  0999 V2000
    5.8870   -3.6780   -1.3710 C   0  0  0  0  0  0  0  0  0  0  0  0
    4.9840   -2.6240   -0.8330 C   0  0  0  0  0  0  0  0  0  0  0  0
    5.4020   -1.4660   -0.3950 C   0  0  0  0  0  0  0  0  0  0  0  0
    6.7980   -0.9910   -0.3470 C   0  0  0  0  0  0  0  0  0  0  0  0
    6.8150   -0.0010    0.8010 C   0  0  0  0  0  0  0  0  0  0  0  0
    5.3990    0.0090    1.3710 C   0  0  0  0  0  0  0  0  0  0  0  0
    4.5680   -0.3770    0.1500 C   0  0  1  0  0  0  0  0  0  0  0  0
    4.5520    0.8370   -0.7550 C   0  0  0  0  0  0  0  0  0  0  0  0
    3.5280    0.7860   -1.7510 N   0  0  0  0  0  0  0  0  0  0  0  0
    2.1940    0.4930   -1.3810 C   0  0  0  0  0  0  0  0  0  0  0  0
    1.2100    0.9260   -2.0410 O   0  0  0  0  0  0  0  0  0  0  0  0
    2.0200   -0.3480   -0.1800 C   0  0  0  0  0  0  0  0  0  0  0  0
    0.8000   -0.6540    0.2170 C   0  0  0  0  0  0  0  0  0  0  0  0
   -0.3620   -0.2160   -0.4510 N   0  0  0  0  0  0  0  0  0  0  0  0
   -1.3200    0.6010    0.2420 C   0  0  0  0  0  0  0  0  0  0  0  0
   -1.4940    1.8500   -0.0550 C   0  0  0  0  0  0  0  0  0  0  0  0
   -2.4070    2.8010    0.5460 C   0  0  0  0  0  0  0  0  0  0  0  0
   -2.5110    2.9950    1.8930 C   0  0  0  0  0  0  0  0  0  0  0  0
   -3.4020    3.8920    2.4110 C   0  0  0  0  0  0  0  0  0  0  0  0
   -4.2160    4.6260    1.6020 C   0  0  0  0  0  0  0  0  0  0  0  0
   -4.1190    4.4390    0.2540 C   0  0  0  0  0  0  0  0  0  0  0  0
   -3.2340    3.5460   -0.2870 C   0  0  0  0  0  0  0  0  0  0  0  0
   -5.1080    5.3490   -0.4200 C   0  0  0  0  0  0  0  0  0  0  0  0
   -5.3450    6.4290    0.6120 C   0  0  0  0  0  0  0  0  0  0  0  0
   -5.2520    5.6560    1.9250 C   0  0  0  0  0  0  0  0  0  0  0  0
   -2.1440   -0.0560    1.2830 C   0  0  0  0  0  0  0  0  0  0  0  0
   -3.0570   -1.4890    0.6260 S   0  0  0  0  0  0  0  0  0  0  0  0
   -1.9820   -2.8480    0.1750 C   0  0  0  0  0  0  0  0  0  0  0  0
   -2.8220   -3.9610   -0.3430 C   0  0  0  0  0  0  0  0  0  0  0  0
   -3.1110   -4.0320   -1.6890 C   0  0  0  0  0  0  0  0  0  0  0  0
   -3.8860   -5.0440   -2.2060 C   0  0  0  0  0  0  0  0  0  0  0  0
   -4.3890   -6.0110   -1.3740 C   0  0  0  0  0  0  0  0  0  0  0  0
   -4.1110   -5.9630   -0.0070 C   0  0  0  0  0  0  0  0  0  0  0  0
   -3.3290   -4.9330    0.4800 C   0  0  0  0  0  0  0  0  0  0  0  0
    3.2160   -0.7990    0.5140 C   0  0  0  0  0  0  0  0  0  0  0  0
    3.0640   -1.6060    1.4900 O   0  0  0  0  0  0  0  0  0  0  0  0
  1  2  1  0
  2  3  2  3
  3  4  1  0
  3  7  1  0
  4  5  1  0
  5  6  1  0
  7  6  1  1
  7  8  1  0
  7 35  1  0
  8  9  1  0
  9 10  1  0
 10 11  2  0
 10 12  1  0
 12 13  2  3
 12 35  1  0
 13 14  1  0
 14 15  1  0
 15 16  2  3
 15 26  1  0
 16 17  1  0
 17 18  2  0
 17 22  1  0
 18 19  1  0
 19 20  2  0
 20 21  1  0
 20 25  1  0
 21 22  2  0
 21 23  1  0
 23 24  1  0
 24 25  1  0
 26 27  1  0
 27 28  1  0
 28 29  1  0
 29 30  2  0
 29 34  1  0
 30 31  1  0
 31 32  2  0
 32 33  1  0
 33 34  2  0
 35 36  2  0
M  END
