
     RDKit          3D

 36 40  0  0  0  0  0  0  0  0999 V2000
   -4.8840    4.9720   -0.9380 C   0  0  0  0  0  0  0  0  0  0  0  0
   -4.1240    4.3450    0.2090 C   0  0  0  0  0  0  0  0  0  0  0  0
   -3.2340    3.2320   -0.3090 C   0  0  0  0  0  0  0  0  0  0  0  0
   -3.4260    2.0330    0.1450 C   0  0  0  0  0  0  0  0  0  0  0  0
   -4.7250    1.8020    1.3430 S   0  0  0  0  0  0  0  0  0  0  0  0
   -4.7330    0.0730    1.7240 C   0  0  0  0  0  0  0  0  0  0  0  0
   -3.8880   -0.7770    1.1780 C   0  0  0  0  0  0  0  0  0  0  0  0
   -4.0300   -2.2040    1.6100 C   0  0  0  0  0  0  0  0  0  0  0  0
   -4.4930   -3.0220    0.4310 C   0  0  0  0  0  0  0  0  0  0  0  0
   -2.8720   -0.4210    0.2190 C   0  0  0  0  0  0  0  0  0  0  0  0
   -2.0600   -1.4230   -0.2410 C   0  0  0  0  0  0  0  0  0  0  0  0
   -1.0440   -1.1950   -1.1550 C   0  0  0  0  0  0  0  0  0  0  0  0
   -0.2100   -2.3270   -1.6370 C   0  0  0  0  0  0  0  0  0  0  0  0
    0.6700   -2.8910   -0.6100 C   0  0  0  0  0  0  0  0  0  0  0  0
    0.2260   -4.0390    0.0740 C   0  0  0  0  0  0  0  0  0  0  0  0
    0.9520   -4.6090    1.0950 C   0  0  0  0  0  0  0  0  0  0  0  0
    0.4980   -5.8200    1.8270 C   0  0  0  0  0  0  0  0  0  0  0  0
    2.1200   -4.0470    1.4450 N   0  0  0  0  0  0  0  0  0  0  0  0
    2.5760   -2.9340    0.7980 C   0  0  0  0  0  0  0  0  0  0  0  0
    3.6710   -2.4490    1.1590 O   0  0  0  0  0  0  0  0  0  0  0  0
    1.8610   -2.3310   -0.2430 C   0  0  0  0  0  0  0  0  0  0  0  0
    2.4600   -1.2020   -0.9410 C   0  0  0  0  0  0  0  0  0  0  0  0
    2.2060   -0.9630   -2.1620 O   0  0  0  0  0  0  0  0  0  0  0  0
    3.3570   -0.2830   -0.3440 N   0  0  0  0  0  0  0  0  0  0  0  0
    3.9350    0.8270   -1.0820 C   0  0  2  0  0  0  0  0  0  0  0  0
    5.4560    0.7010   -1.1790 C   0  0  0  0  0  0  0  0  0  0  0  0
    5.9310    1.4890   -0.0000 C   0  0  0  0  0  0  0  0  0  0  0  0
    4.8710    2.5020    0.2070 C   0  0  0  0  0  0  0  0  0  0  0  0
    4.9110    3.7100    0.9120 C   0  0  0  0  0  0  0  0  0  0  0  0
    3.8000    4.5390    0.9970 C   0  0  0  0  0  0  0  0  0  0  0  0
    2.6490    4.1390    0.3650 C   0  0  0  0  0  0  0  0  0  0  0  0
    2.6150    2.9480   -0.3300 C   0  0  0  0  0  0  0  0  0  0  0  0
    3.7080    2.1160   -0.4220 C   0  0  0  0  0  0  0  0  0  0  0  0
   -0.8310    0.0610   -1.6240 C   0  0  0  0  0  0  0  0  0  0  0  0
   -1.6430    1.1130   -1.1750 C   0  0  0  0  0  0  0  0  0  0  0  0
   -2.6510    0.8780   -0.2650 C   0  0  0  0  0  0  0  0  0  0  0  0
  1  2  1  0
  2  3  1  0
  3  4  2  3
  4  5  1  0
  4 36  1  0
  5  6  1  0
  6  7  2  0
  7  8  1  0
  7 10  1  0
  8  9  1  0
 10 11  2  0
 10 36  1  0
 11 12  1  0
 12 13  1  0
 12 34  2  0
 13 14  1  0
 14 15  1  0
 14 21  2  0
 15 16  2  0
 16 17  1  0
 16 18  1  0
 18 19  1  0
 19 20  2  0
 19 21  1  0
 21 22  1  0
 22 23  2  0
 22 24  1  0
 25 24  1  1
 25 26  1  0
 25 33  1  0
 26 27  1  0
 27 28  1  0
 28 29  2  0
 28 33  1  0
 29 30  1  0
 30 31  2  0
 31 32  1  0
 32 33  2  0
 34 35  1  0
 35 36  2  0
M  END
