
     RDKit          3D

 36 40  0  0  0  0  0  0  0  0999 V2000
   -5.0060   -1.1280    3.7350 C   0  0  0  0  0  0  0  0  0  0  0  0
   -3.4800   -1.0050    2.7640 S   0  0  0  0  0  0  0  0  0  0  0  0
   -3.7490   -1.7640    1.1590 C   0  0  2  0  0  0  0  0  0  0  0  0
   -3.9770   -3.2500    1.2540 C   0  0  0  0  0  0  0  0  0  0  0  0
   -2.6320   -3.8790    1.1010 C   0  0  0  0  0  0  0  0  0  0  0  0
   -1.9230   -2.8820    0.2000 C   0  0  0  0  0  0  0  0  0  0  0  0
   -0.8470   -3.1190   -0.5110 C   0  0  0  0  0  0  0  0  0  0  0  0
   -0.3440   -1.9760   -1.3120 C   0  0  0  0  0  0  0  0  0  0  0  0
    0.6650   -2.2590   -1.9740 O   0  0  0  0  0  0  0  0  0  0  0  0
   -0.9960   -0.6810   -1.2990 C   0  0  0  0  0  0  0  0  0  0  0  0
   -0.5560    0.3010   -2.0110 C   0  0  0  0  0  0  0  0  0  0  0  0
    0.5280    0.5770   -2.9170 C   0  0  0  0  0  0  0  0  0  0  0  0
    1.6050   -0.2420   -3.1750 N   0  0  0  0  0  0  0  0  0  0  0  0
    2.7750   -0.2920   -2.3000 C   0  0  0  0  0  0  0  0  0  0  0  0
    3.8510   -1.0980   -2.6090 C   0  0  0  0  0  0  0  0  0  0  0  0
    4.9690   -1.1670   -1.7950 C   0  0  0  0  0  0  0  0  0  0  0  0
    5.0260   -0.4160   -0.6380 C   0  0  0  0  0  0  0  0  0  0  0  0
    6.1740   -0.4440    0.2660 C   0  0  0  0  0  0  0  0  0  0  0  0
    7.4440   -0.6490   -0.2140 C   0  0  0  0  0  0  0  0  0  0  0  0
    8.5360   -0.6760    0.6520 C   0  0  0  0  0  0  0  0  0  0  0  0
    8.3760   -0.5000    2.0010 C   0  0  0  0  0  0  0  0  0  0  0  0
    7.1010   -0.2940    2.4890 C   0  0  0  0  0  0  0  0  0  0  0  0
    6.0110   -0.2650    1.6430 C   0  0  0  0  0  0  0  0  0  0  0  0
    3.9360    0.4010   -0.3230 C   0  0  0  0  0  0  0  0  0  0  0  0
    2.8380    0.4530   -1.1480 C   0  0  0  0  0  0  0  0  0  0  0  0
   -2.1920   -0.5060   -0.4540 C   0  0  0  0  0  0  0  0  0  0  0  0
   -2.9270    0.7090   -0.2290 C   0  0  0  0  0  0  0  0  0  0  0  0
   -4.0010    0.5730    0.4880 O   0  0  0  0  0  0  0  0  0  0  0  0
   -2.7520    2.0420   -0.5930 N   0  0  0  0  0  0  0  0  0  0  0  0
   -3.6630    3.1120   -0.2840 C   0  0  0  0  0  0  0  0  0  0  0  0
   -3.1440    4.3880   -0.2320 C   0  0  0  0  0  0  0  0  0  0  0  0
   -3.9210    5.4920    0.0270 C   0  0  0  0  0  0  0  0  0  0  0  0
   -5.2550    5.3050    0.2400 C   0  0  0  0  0  0  0  0  0  0  0  0
   -5.8040    4.0640    0.1970 C   0  0  0  0  0  0  0  0  0  0  0  0
   -4.9840    2.9530   -0.0720 C   0  0  0  0  0  0  0  0  0  0  0  0
   -2.5940   -1.6170    0.2380 C   0  0  0  0  0  0  0  0  0  0  0  0
  1  2  1  0
  3  2  1  1
  3  4  1  0
  3 36  1  0
  4  5  1  0
  5  6  1  0
  6  7  2  0
  6 36  1  0
  7  8  1  0
  8  9  2  0
  8 10  1  0
 10 11  2  3
 10 26  1  0
 11 12  1  0
 12 13  1  0
 13 14  1  0
 14 15  2  0
 14 25  1  0
 15 16  1  0
 16 17  2  0
 17 18  1  0
 17 24  1  0
 18 19  2  0
 18 23  1  0
 19 20  1  0
 20 21  2  0
 21 22  1  0
 22 23  2  0
 24 25  2  0
 26 27  1  0
 26 36  2  0
 27 28  2  0
 27 29  1  0
 29 30  1  0
 30 31  2  0
 30 35  1  0
 31 32  1  0
 32 33  2  0
 33 34  1  0
 34 35  2  0
M  END
