
     RDKit          3D

 38 42  0  0  0  0  0  0  0  0999 V2000
    2.4690   -0.7710    3.9040 C   0  0  0  0  0  0  0  0  0  0  0  0
    3.2240   -0.2000    2.8720 O   0  0  0  0  0  0  0  0  0  0  0  0
    2.7780    0.2890    1.6840 C   0  0  0  0  0  0  0  0  0  0  0  0
    1.4760    0.2190    1.2810 C   0  0  0  0  0  0  0  0  0  0  0  0
    1.0410    0.7110    0.0480 C   0  0  0  0  0  0  0  0  0  0  0  0
   -0.3160    0.6180   -0.3230 N   0  0  0  0  0  0  0  0  0  0  0  0
   -0.8340    0.5980   -1.6180 C   0  0  0  0  0  0  0  0  0  0  0  0
    0.0490    0.6790   -2.5660 O   0  0  0  0  0  0  0  0  0  0  0  0
   -2.2460    0.5010   -2.0280 C   0  0  0  0  0  0  0  0  0  0  0  0
   -3.1440    0.3300   -0.9790 N   0  0  0  0  0  0  0  0  0  0  0  0
   -3.2610   -0.8990   -0.3170 C   0  0  0  0  0  0  0  0  0  0  0  0
   -4.5610   -0.8350    0.5170 C   0  0  0  0  0  0  0  0  0  0  0  0
   -5.6280   -0.8340   -0.4590 N   0  0  1  0  0  0  0  0  0  0  0  0
   -6.9120   -1.1930    0.0340 C   0  0  1  0  0  0  0  0  0  0  0  0
   -7.6470   -1.8980   -1.1160 C   0  0  0  0  0  0  0  0  0  0  0  0
   -6.7590   -2.2880    1.0960 C   0  0  0  0  0  0  0  0  0  0  0  0
   -7.7650   -0.1030    0.5010 C   0  0  0  0  0  0  0  0  0  0  0  0
   -9.0860   -0.0100    0.2710 N   0  0  0  0  0  0  0  0  0  0  0  0
   -9.5750    1.0750    0.8160 N   0  0  0  0  0  0  0  0  0  0  0  0
   -8.5860    1.7420    1.4310 C   0  0  0  0  0  0  0  0  0  0  0  0
   -8.7260    2.8160    2.0450 O   0  0  0  0  0  0  0  0  0  0  0  0
   -7.4790    1.0050    1.2290 N   0  0  0  0  0  0  0  0  0  0  0  0
   -5.5940    0.4150   -1.1790 C   0  0  0  0  0  0  0  0  0  0  0  0
   -4.3060    1.1660   -0.9850 C   0  0  0  0  0  0  0  0  0  0  0  0
    1.9930    1.2770   -0.7510 C   0  0  0  0  0  0  0  0  0  0  0  0
    3.3390    1.3590   -0.3540 C   0  0  0  0  0  0  0  0  0  0  0  0
    3.7520    0.8760    0.8520 C   0  0  0  0  0  0  0  0  0  0  0  0
    5.0850    1.0200    1.3140 N   0  0  0  0  0  0  0  0  0  0  0  0
    6.1780    1.6120    0.6260 C   0  0  0  0  0  0  0  0  0  0  0  0
    7.0460    0.7000   -0.1330 C   0  0  0  0  0  0  0  0  0  0  0  0
    6.5380   -0.1330   -1.0890 C   0  0  0  0  0  0  0  0  0  0  0  0
    7.4390   -0.9640   -1.7810 C   0  0  0  0  0  0  0  0  0  0  0  0
    8.7810   -0.9170   -1.4820 C   0  0  0  0  0  0  0  0  0  0  0  0
    9.3060   -0.0900   -0.5270 C   0  0  0  0  0  0  0  0  0  0  0  0
    8.3890    0.7160    0.1350 C   0  0  0  0  0  0  0  0  0  0  0  0
   10.7480   -0.1670   -0.3130 C   0  0  0  0  0  0  0  0  0  0  0  0
   11.4360   -0.5130   -1.6270 C   0  0  0  0  0  0  0  0  0  0  0  0
   10.2100   -1.7940   -2.1760 S   0  0  0  0  0  0  0  0  0  0  0  0
  1  2  1  0
  2  3  1  0
  3  4  2  0
  3 27  1  0
  4  5  1  0
  5  6  1  0
  5 25  2  0
  6  7  1  0
  7  8  2  0
  7  9  1  0
  9 10  1  0
 10 11  1  0
 10 24  1  0
 11 12  1  0
 13 12  1  1
 13 14  1  0
 13 23  1  0
 14 15  1  6
 14 16  1  0
 14 17  1  0
 17 18  2  0
 17 22  1  0
 18 19  1  0
 19 20  1  0
 20 21  2  0
 20 22  1  0
 23 24  1  0
 25 26  1  0
 26 27  2  0
 27 28  1  0
 28 29  1  0
 29 30  1  0
 30 31  2  0
 30 35  1  0
 31 32  1  0
 32 33  2  0
 33 34  1  0
 33 38  1  0
 34 35  2  0
 34 36  1  0
 36 37  1  0
 37 38  1  0
M  CHG  1  13   1
M  END
