
     RDKit          3D

 38 42  0  0  0  0  0  0  0  0999 V2000
    8.0830    1.8780   -2.2140 C   0  0  0  0  0  0  0  0  0  0  0  0
    7.1350    0.8500   -2.7940 C   0  0  0  0  0  0  0  0  0  0  0  0
    6.7550   -0.1170   -1.7530 N   0  0  0  0  0  0  0  0  0  0  0  0
    7.9840   -0.7370   -1.3100 C   0  0  0  0  0  0  0  0  0  0  0  0
    7.8980   -1.4110    0.0100 C   0  0  2  0  0  0  0  0  0  0  0  0
    6.9030   -2.5180    0.0990 C   0  0  0  0  0  0  0  0  0  0  0  0
    6.3610   -2.6610    1.4370 C   0  0  0  0  0  0  0  0  0  0  0  0
    6.3820   -1.6080    2.2190 C   0  0  0  0  0  0  0  0  0  0  0  0
    5.9060   -1.4600    3.6100 C   0  0  0  0  0  0  0  0  0  0  0  0
    4.8750   -0.4520    3.7360 N   0  0  0  0  0  0  0  0  0  0  0  0
    3.6180   -0.5340    3.0320 C   0  0  0  0  0  0  0  0  0  0  0  0
    3.4950   -1.5440    2.3090 O   0  0  0  0  0  0  0  0  0  0  0  0
    2.6330    0.4660    3.1770 N   0  0  0  0  0  0  0  0  0  0  0  0
    1.3910    0.4610    2.5460 C   0  0  0  0  0  0  0  0  0  0  0  0
    0.6390    1.6470    2.5870 C   0  0  0  0  0  0  0  0  0  0  0  0
   -0.5970    1.6820    1.9900 C   0  0  0  0  0  0  0  0  0  0  0  0
   -1.1450    0.5990    1.3450 C   0  0  0  0  0  0  0  0  0  0  0  0
   -0.3970   -0.5560    1.3130 C   0  0  0  0  0  0  0  0  0  0  0  0
    0.8670   -0.6200    1.9140 C   0  0  0  0  0  0  0  0  0  0  0  0
   -1.1380   -1.4420    0.6410 N   0  0  0  0  0  0  0  0  0  0  0  0
   -2.3070   -0.8650    0.2660 C   0  0  0  0  0  0  0  0  0  0  0  0
   -3.3580   -1.3450   -0.4170 N   0  0  0  0  0  0  0  0  0  0  0  0
   -4.4450   -0.6170   -0.6990 C   0  0  0  0  0  0  0  0  0  0  0  0
   -4.4930    0.6960   -0.2680 C   0  0  0  0  0  0  0  0  0  0  0  0
   -5.6860    1.2560   -0.6600 C   0  0  0  0  0  0  0  0  0  0  0  0
   -6.1520    2.6370   -0.4120 C   0  0  0  0  0  0  0  0  0  0  0  0
   -6.3620    0.2770   -1.3320 C   0  0  0  0  0  0  0  0  0  0  0  0
   -7.7150    0.4130   -1.9490 C   0  0  0  0  0  0  0  0  0  0  0  0
   -8.7940    0.3790   -0.9230 C   0  0  0  0  0  0  0  0  0  0  0  0
  -10.1460    0.5140   -1.5540 C   0  0  0  0  0  0  0  0  0  0  0  0
  -10.3450    1.7910   -2.2550 C   0  0  0  0  0  0  0  0  0  0  0  0
   -9.5020    2.6560   -2.2310 O   0  0  0  0  0  0  0  0  0  0  0  0
   -5.6070   -0.8310   -1.3450 N   0  0  0  0  0  0  0  0  0  0  0  0
   -5.9140   -2.1320   -1.9450 C   0  0  0  0  0  0  0  0  0  0  0  0
   -3.3900    1.1690    0.4380 C   0  0  0  0  0  0  0  0  0  0  0  0
   -3.4020    2.3460    0.8400 O   0  0  0  0  0  0  0  0  0  0  0  0
   -2.3120    0.4160    0.7070 N   0  0  0  0  0  0  0  0  0  0  0  0
    7.1490   -0.2920    1.2750 S   0  0  0  0  0  0  0  0  0  0  0  0
  1  2  1  0
  2  3  1  0
  3  4  1  0
  5  4  1  6
  5  6  1  0
  5 38  1  0
  6  7  1  0
  7  8  2  0
  8  9  1  0
  8 38  1  0
  9 10  1  0
 10 11  1  0
 11 12  2  0
 11 13  1  0
 13 14  1  0
 14 15  2  0
 14 19  1  0
 15 16  1  0
 16 17  2  0
 17 18  1  0
 17 37  1  0
 18 19  2  0
 18 20  1  0
 20 21  1  0
 21 22  2  0
 21 37  1  0
 22 23  1  0
 23 24  2  0
 23 33  1  0
 24 25  1  0
 24 35  1  0
 25 26  1  0
 25 27  2  0
 27 28  1  0
 27 33  1  0
 28 29  1  0
 29 30  1  0
 30 31  1  0
 31 32  2  0
 33 34  1  0
 35 36  2  0
 35 37  1  0
M  CHG  1   3   1
M  END
