
     RDKit          3D

 38 42  0  0  0  0  0  0  0  0999 V2000
   -7.8890    3.6010    1.0070 C   0  0  0  0  0  0  0  0  0  0  0  0
   -7.8950    2.2800    0.2610 C   0  0  2  0  0  0  0  0  0  0  0  0
   -8.7850    1.2720    0.8920 C   0  0  0  0  0  0  0  0  0  0  0  0
   -7.9110    0.1310    1.2280 C   0  0  0  0  0  0  0  0  0  0  0  0
   -8.3160   -1.1580    1.8750 C   0  0  0  0  0  0  0  0  0  0  0  0
   -9.3190   -1.8480    1.0820 N   0  0  1  0  0  0  0  0  0  0  0  0
   -9.2230   -1.5970   -0.3260 C   0  0  0  0  0  0  0  0  0  0  0  0
   -9.1630   -3.2690    1.3210 C   0  0  0  0  0  0  0  0  0  0  0  0
   -6.6790    0.4080    0.8620 C   0  0  0  0  0  0  0  0  0  0  0  0
   -5.4730   -0.3540    0.9660 N   0  0  0  0  0  0  0  0  0  0  0  0
   -4.2170    0.1380    0.5060 C   0  0  0  0  0  0  0  0  0  0  0  0
   -4.0750    1.3160   -0.0440 C   0  0  0  0  0  0  0  0  0  0  0  0
   -2.8330    1.9200   -0.5490 C   0  0  0  0  0  0  0  0  0  0  0  0
   -1.6140    1.1480   -0.3150 C   0  0  0  0  0  0  0  0  0  0  0  0
   -1.5080    0.0280    0.2150 O   0  0  0  0  0  0  0  0  0  0  0  0
   -0.3460    1.7200   -0.7330 N   0  0  0  0  0  0  0  0  0  0  0  0
    0.9160    1.1300   -0.5970 C   0  0  0  0  0  0  0  0  0  0  0  0
    2.0620    1.9530   -0.6900 C   0  0  0  0  0  0  0  0  0  0  0  0
    3.3200    1.4090   -0.5820 C   0  0  0  0  0  0  0  0  0  0  0  0
    3.5660    0.0810   -0.3830 C   0  0  0  0  0  0  0  0  0  0  0  0
    4.8560   -0.5030   -0.2880 N   0  0  0  0  0  0  0  0  0  0  0  0
    6.0920    0.0580   -0.6370 C   0  0  0  0  0  0  0  0  0  0  0  0
    6.0980    1.2430   -1.1110 O   0  0  0  0  0  0  0  0  0  0  0  0
    7.3500   -0.6520   -0.4790 C   0  0  0  0  0  0  0  0  0  0  0  0
    7.7350   -1.8530   -0.0300 C   0  0  0  0  0  0  0  0  0  0  0  0
    9.0350   -2.0990   -0.0600 N   0  0  0  0  0  0  0  0  0  0  0  0
    9.8870   -1.4380   -0.4120 C   0  0  0  0  0  0  0  0  0  0  0  0
   11.3560   -1.3450   -0.5850 N   0  0  0  0  0  0  0  0  0  0  0  0
   12.0160   -1.8720   -1.7190 C   0  0  0  0  0  0  0  0  0  0  0  0
   13.1530   -0.9200   -1.9650 C   0  0  0  0  0  0  0  0  0  0  0  0
   13.3170   -0.1430   -0.6780 C   0  0  0  0  0  0  0  0  0  0  0  0
   12.3160   -0.7450    0.2880 C   0  0  0  0  0  0  0  0  0  0  0  0
    8.9620    0.1060   -0.9460 S   0  0  0  0  0  0  0  0  0  0  0  0
    2.4430   -0.7370   -0.2900 C   0  0  0  0  0  0  0  0  0  0  0  0
    1.1850   -0.1960   -0.3980 C   0  0  0  0  0  0  0  0  0  0  0  0
   -5.3170    2.1380   -0.1690 C   0  0  0  0  0  0  0  0  0  0  0  0
   -5.2040    3.2860   -0.7000 O   0  0  0  0  0  0  0  0  0  0  0  0
   -6.5700    1.6710    0.2810 N   0  0  0  0  0  0  0  0  0  0  0  0
  2  1  1  1
  2  3  1  0
  2 38  1  0
  3  4  1  0
  4  5  1  0
  4  9  2  0
  5  6  1  0
  6  7  1  6
  6  8  1  0
  9 10  1  0
  9 38  1  0
 10 11  1  0
 11 12  2  0
 12 13  1  0
 12 36  1  0
 13 14  1  0
 14 15  2  0
 14 16  1  0
 16 17  1  0
 17 18  2  0
 17 35  1  0
 18 19  1  0
 19 20  2  0
 20 21  1  0
 20 34  1  0
 21 22  1  0
 22 23  2  0
 22 24  1  0
 24 25  2  0
 24 33  1  0
 25 26  1  0
 26 27  2  0
 27 28  1  0
 27 33  1  0
 28 29  1  0
 28 32  1  0
 29 30  1  0
 30 31  1  0
 31 32  1  0
 34 35  2  0
 36 37  2  0
 36 38  1  0
M  CHG  1   6   1
M  END
