
     RDKit          3D

 38 42  0  0  0  0  0  0  0  0999 V2000
   12.0010   -0.4980    0.5910 C   0  0  0  0  0  0  0  0  0  0  0  0
   11.0520   -1.5680    0.5120 N   0  0  0  0  0  0  0  0  0  0  0  0
    9.7050   -1.1400    0.2420 C   0  0  0  0  0  0  0  0  0  0  0  0
    9.5260   -0.7630   -1.1980 C   0  0  0  0  0  0  0  0  0  0  0  0
    8.2190   -0.3300   -1.5380 N   0  0  0  0  0  0  0  0  0  0  0  0
    7.7870    0.9080   -0.9950 C   0  0  0  0  0  0  0  0  0  0  0  0
    6.9280    0.7690    0.2360 C   0  0  0  0  0  0  0  0  0  0  0  0
    6.7490   -0.5580    0.6030 O   0  0  0  0  0  0  0  0  0  0  0  0
    6.2580   -1.3280   -0.4540 C   0  0  1  0  0  0  0  0  0  0  0  0
    4.8840   -0.9360   -0.8180 C   0  0  0  0  0  0  0  0  0  0  0  0
    3.8720   -0.6890    0.0820 C   0  0  0  0  0  0  0  0  0  0  0  0
    2.7250   -0.3500   -0.6060 C   0  0  0  0  0  0  0  0  0  0  0  0
    1.4100   -0.0060   -0.1000 C   0  0  0  0  0  0  0  0  0  0  0  0
    1.1960    0.0080    1.1330 O   0  0  0  0  0  0  0  0  0  0  0  0
    0.3500    0.3170   -0.9810 N   0  0  0  0  0  0  0  0  0  0  0  0
   -0.9470    0.6570   -0.5160 C   0  0  0  0  0  0  0  0  0  0  0  0
   -1.2730    0.7000    0.7660 N   0  0  0  0  0  0  0  0  0  0  0  0
   -2.4850    1.0180    1.2620 C   0  0  0  0  0  0  0  0  0  0  0  0
   -2.5960    0.9870    2.7430 C   0  0  0  0  0  0  0  0  0  0  0  0
   -3.5260    1.3390    0.3890 C   0  0  0  0  0  0  0  0  0  0  0  0
   -4.8000    1.6840    0.6510 C   0  0  0  0  0  0  0  0  0  0  0  0
   -5.3750    1.8020    2.0520 C   0  0  0  0  0  0  0  0  0  0  0  0
   -5.6230    1.9520   -0.3970 C   0  0  0  0  0  0  0  0  0  0  0  0
   -7.0750    2.3610   -0.4210 C   0  0  0  0  0  0  0  0  0  0  0  0
   -7.9530    1.1740   -0.1340 C   0  0  1  0  0  0  0  0  0  0  0  0
   -9.4080    1.5030   -0.1420 C   0  0  0  0  0  0  0  0  0  0  0  0
  -10.1640    0.2280    0.1940 C   0  0  0  0  0  0  0  0  0  0  0  0
   -9.3220   -0.7910    0.5820 O   0  0  0  0  0  0  0  0  0  0  0  0
   -8.4160   -1.1900   -0.3760 C   0  0  1  0  0  0  0  0  0  0  0  0
   -7.3580   -2.0240    0.3370 C   0  0  0  0  0  0  0  0  0  0  0  0
   -9.1220   -2.0400   -1.3830 C   0  0  0  0  0  0  0  0  0  0  0  0
   -7.6970    0.0020   -1.0250 C   0  0  0  0  0  0  0  0  0  0  0  0
   -4.6140    1.7240   -1.8200 S   0  0  0  0  0  0  0  0  0  0  0  0
   -3.1790    1.2920   -0.9350 C   0  0  0  0  0  0  0  0  0  0  0  0
   -1.9300    0.9620   -1.3870 N   0  0  0  0  0  0  0  0  0  0  0  0
    3.0750   -0.4010   -1.9010 N   0  0  0  0  0  0  0  0  0  0  0  0
    4.3690   -0.7530   -2.0160 N   0  0  0  0  0  0  0  0  0  0  0  0
    7.2180   -1.3700   -1.5870 C   0  0  0  0  0  0  0  0  0  0  0  0
  1  2  1  0
  2  3  1  0
  3  4  1  0
  4  5  1  0
  5  6  1  0
  5 38  1  0
  6  7  1  0
  7  8  1  0
  8  9  1  0
  9 10  1  6
  9 38  1  0
 10 11  2  0
 10 37  1  0
 11 12  1  0
 12 13  1  0
 12 36  2  0
 13 14  2  0
 13 15  1  0
 15 16  1  0
 16 17  2  0
 16 35  1  0
 17 18  1  0
 18 19  1  0
 18 20  2  0
 20 21  1  0
 20 34  1  0
 21 22  1  0
 21 23  2  0
 23 24  1  0
 23 33  1  0
 25 24  1  6
 25 26  1  0
 25 32  1  0
 26 27  1  0
 27 28  1  0
 28 29  1  0
 29 30  1  1
 29 31  1  0
 29 32  1  0
 33 34  1  0
 34 35  2  0
 36 37  1  0
M  CHG  1   2   1
M  END
