
     RDKit          3D

 38 42  0  0  0  0  0  0  0  0999 V2000
    6.1380   -2.5890    1.2330 C   0  0  0  0  0  0  0  0  0  0  0  0
    5.7580   -1.5170    0.2200 C   0  0  1  0  0  0  0  0  0  0  0  0
    6.5810   -1.7830   -1.0200 C   0  0  0  0  0  0  0  0  0  0  0  0
    4.2810   -1.6810   -0.0510 C   0  0  2  0  0  0  0  0  0  0  0  0
    3.7430   -0.6940   -1.0350 C   0  0  0  0  0  0  0  0  0  0  0  0
    2.6750    0.2110   -0.5150 C   0  0  0  0  0  0  0  0  0  0  0  0
    1.6570   -0.4230    0.2560 N   0  0  0  0  0  0  0  0  0  0  0  0
    0.3500   -0.3940   -0.3140 C   0  0  0  0  0  0  0  0  0  0  0  0
   -0.0810    1.0130   -0.4870 C   0  0  0  0  0  0  0  0  0  0  0  0
    0.7460    2.0240   -0.1120 N   0  0  0  0  0  0  0  0  0  0  0  0
    0.3530    3.2990   -0.2690 C   0  0  0  0  0  0  0  0  0  0  0  0
    1.3950    4.6570    0.2050 S   0  0  0  0  0  0  0  0  0  0  0  0
    0.5850    6.2290   -0.1310 C   0  0  0  0  0  0  0  0  0  0  0  0
    1.4710    7.3510    0.2720 C   0  0  0  0  0  0  0  0  0  0  0  0
    2.3620    7.9360   -0.5290 N   0  0  0  0  0  0  0  0  0  0  0  0
    2.9530    8.8970    0.2080 C   0  0  0  0  0  0  0  0  0  0  0  0
    2.3940    8.8710    1.4610 C   0  0  0  0  0  0  0  0  0  0  0  0
    1.4860    7.9010    1.4510 O   0  0  0  0  0  0  0  0  0  0  0  0
   -0.8610    3.5620   -0.7980 N   0  0  0  0  0  0  0  0  0  0  0  0
   -1.6860    2.5740   -1.1720 C   0  0  0  0  0  0  0  0  0  0  0  0
   -2.8010    2.8740   -1.6580 O   0  0  0  0  0  0  0  0  0  0  0  0
   -1.3210    1.2550   -1.0280 C   0  0  0  0  0  0  0  0  0  0  0  0
   -2.1310    0.1560   -1.3970 N   0  0  0  0  0  0  0  0  0  0  0  0
   -3.0550   -0.4290   -0.4450 C   0  0  0  0  0  0  0  0  0  0  0  0
   -3.0680    0.1070    0.6850 O   0  0  0  0  0  0  0  0  0  0  0  0
   -3.8780   -1.5300   -0.7860 N   0  0  0  0  0  0  0  0  0  0  0  0
   -4.7870   -2.1360    0.0870 C   0  0  0  0  0  0  0  0  0  0  0  0
   -4.9890   -1.7230    1.3640 C   0  0  0  0  0  0  0  0  0  0  0  0
   -5.9180   -2.3830    2.1680 C   0  0  0  0  0  0  0  0  0  0  0  0
   -6.6110   -3.4220    1.6900 N   0  0  0  0  0  0  0  0  0  0  0  0
   -6.4460   -3.8680    0.4310 C   0  0  0  0  0  0  0  0  0  0  0  0
   -7.1960   -4.9440    0.0080 C   0  0  0  0  0  0  0  0  0  0  0  0
   -7.0530   -5.4270   -1.2720 C   0  0  0  0  0  0  0  0  0  0  0  0
   -6.1440   -4.8080   -2.1130 C   0  0  0  0  0  0  0  0  0  0  0  0
   -5.4030   -3.7260   -1.6570 C   0  0  0  0  0  0  0  0  0  0  0  0
   -5.5300   -3.2290   -0.3870 C   0  0  0  0  0  0  0  0  0  0  0  0
    2.0350   -1.6530    0.8770 C   0  0  0  0  0  0  0  0  0  0  0  0
    3.5210   -1.5470    1.2390 C   0  0  0  0  0  0  0  0  0  0  0  0
  2  1  1  1
  2  3  1  0
  2  4  1  0
  4  5  1  6
  4 38  1  0
  5  6  1  0
  6  7  1  0
  7  8  1  0
  7 37  1  0
  8  9  1  0
  9 10  1  0
  9 22  2  0
 10 11  2  0
 11 12  1  0
 11 19  1  0
 12 13  1  0
 13 14  1  0
 14 15  2  0
 14 18  1  0
 15 16  1  0
 16 17  2  0
 17 18  1  0
 19 20  1  0
 20 21  2  0
 20 22  1  0
 22 23  1  0
 23 24  1  0
 24 25  2  0
 24 26  1  0
 26 27  1  0
 27 28  2  0
 27 36  1  0
 28 29  1  0
 29 30  2  0
 30 31  1  0
 31 32  2  0
 31 36  1  0
 32 33  1  0
 33 34  2  0
 34 35  1  0
 35 36  2  0
 37 38  1  0
M  CHG  1  30   1
M  END
