
     RDKit          3D

 38 42  0  0  0  0  0  0  0  0999 V2000
  -10.8720   -0.2710    1.3050 C   0  0  0  0  0  0  0  0  0  0  0  0
   -9.5570   -0.2180    1.2700 C   0  0  0  0  0  0  0  0  0  0  0  0
   -8.7530   -1.3600    1.7420 C   0  0  0  0  0  0  0  0  0  0  0  0
   -7.9030   -1.9190    0.7190 N   0  0  0  0  0  0  0  0  0  0  0  0
   -6.9250   -1.0610    0.1150 C   0  0  0  0  0  0  0  0  0  0  0  0
   -6.0820   -1.5330   -0.8650 C   0  0  0  0  0  0  0  0  0  0  0  0
   -5.1320   -0.7150   -1.4620 C   0  0  0  0  0  0  0  0  0  0  0  0
   -5.0460    0.6170   -1.0420 C   0  0  0  0  0  0  0  0  0  0  0  0
   -4.0570    1.5120   -1.6520 C   0  0  0  0  0  0  0  0  0  0  0  0
   -2.7950    1.6030   -0.9890 N   0  0  0  0  0  0  0  0  0  0  0  0
   -2.5650    2.5240   -0.0410 C   0  0  0  0  0  0  0  0  0  0  0  0
   -3.4370    3.3670    0.3320 O   0  0  0  0  0  0  0  0  0  0  0  0
   -1.3670    2.5860    0.5630 N   0  0  0  0  0  0  0  0  0  0  0  0
   -0.3600    1.7510    0.2580 C   0  0  0  0  0  0  0  0  0  0  0  0
    0.8650    1.8450    0.9040 C   0  0  0  0  0  0  0  0  0  0  0  0
    1.8700    0.9490    0.5440 C   0  0  0  0  0  0  0  0  0  0  0  0
    1.6870   -0.0070   -0.4140 C   0  0  0  0  0  0  0  0  0  0  0  0
    2.7740   -0.9140   -0.7500 C   0  0  0  0  0  0  0  0  0  0  0  0
    2.4670   -1.9810   -1.3340 O   0  0  0  0  0  0  0  0  0  0  0  0
    4.1310   -0.6660   -0.4640 N   0  0  0  0  0  0  0  0  0  0  0  0
    5.2420   -1.4830   -0.7480 C   0  0  0  0  0  0  0  0  0  0  0  0
    5.1810   -2.6530   -1.4530 C   0  0  0  0  0  0  0  0  0  0  0  0
    6.3040   -3.4390   -1.7560 C   0  0  0  0  0  0  0  0  0  0  0  0
    7.5310   -3.0200   -1.3240 C   0  0  0  0  0  0  0  0  0  0  0  0
    7.6220   -1.8580   -0.6160 C   0  0  0  0  0  0  0  0  0  0  0  0
    6.5160   -1.0630   -0.3080 C   0  0  0  0  0  0  0  0  0  0  0  0
    6.6550    0.0680    0.4990 N   0  0  0  0  0  0  0  0  0  0  0  0
    7.7890    0.8690    0.6720 C   0  0  0  0  0  0  0  0  0  0  0  0
    8.9700    0.9990    0.1390 N   0  0  0  0  0  0  0  0  0  0  0  0
    9.8520    1.8410    0.5770 C   0  0  0  0  0  0  0  0  0  0  0  0
    9.5430    2.6400    1.6480 C   0  0  0  0  0  0  0  0  0  0  0  0
    7.8750    2.1170    2.0170 S   0  0  0  0  0  0  0  0  0  0  0  0
    0.4650   -0.0810   -1.0410 C   0  0  0  0  0  0  0  0  0  0  0  0
   -0.5510    0.7880   -0.7110 C   0  0  0  0  0  0  0  0  0  0  0  0
   -1.8080    0.7530   -1.3160 C   0  0  0  0  0  0  0  0  0  0  0  0
   -1.9470   -0.1430   -2.2010 O   0  0  0  0  0  0  0  0  0  0  0  0
   -5.8960    1.0770   -0.0590 C   0  0  0  0  0  0  0  0  0  0  0  0
   -6.7840    0.2180    0.4630 N   0  0  0  0  0  0  0  0  0  0  0  0
  1  2  2  0
  2  3  1  0
  3  4  1  0
  4  5  1  0
  5  6  2  0
  5 38  1  0
  6  7  1  0
  7  8  2  0
  8  9  1  0
  8 37  1  0
  9 10  1  0
 10 11  1  0
 10 35  1  0
 11 12  2  0
 11 13  1  0
 13 14  1  0
 14 15  2  0
 14 34  1  0
 15 16  1  0
 16 17  2  0
 17 18  1  0
 17 33  1  0
 18 19  2  0
 18 20  1  0
 20 21  1  0
 21 22  2  0
 21 26  1  0
 22 23  1  0
 23 24  2  0
 24 25  1  0
 25 26  2  0
 26 27  1  0
 27 28  1  0
 28 29  2  0
 28 32  1  0
 29 30  1  0
 30 31  2  0
 31 32  1  0
 33 34  2  0
 34 35  1  0
 35 36  2  0
 37 38  2  0
M  CHG  1  29   1
M  END
