
     RDKit          3D

 38 41  0  0  0  0  0  0  0  0999 V2000
    8.4770    3.7030   -1.2840 C   0  0  0  0  0  0  0  0  0  0  0  0
    8.3980    2.6590   -0.3400 O   0  0  0  0  0  0  0  0  0  0  0  0
    7.1820    1.9740   -0.2210 C   0  0  0  0  0  0  0  0  0  0  0  0
    6.0970    2.2900   -0.9830 C   0  0  0  0  0  0  0  0  0  0  0  0
    4.8680    1.6270   -0.8910 C   0  0  0  0  0  0  0  0  0  0  0  0
    4.7330    0.6110    0.0030 C   0  0  0  0  0  0  0  0  0  0  0  0
    3.5720   -0.1520    0.1910 N   0  0  0  0  0  0  0  0  0  0  0  0
    2.4740   -0.1310   -0.6930 C   0  0  0  0  0  0  0  0  0  0  0  0
    2.4050    0.5520   -1.7320 O   0  0  0  0  0  0  0  0  0  0  0  0
    1.2970   -0.9900   -0.3680 C   0  0  1  0  0  0  0  0  0  0  0  0
    1.6750   -2.4580   -0.3010 C   0  0  0  0  0  0  0  0  0  0  0  0
    0.5560   -3.0310    0.4640 N   0  0  0  0  0  0  0  0  0  0  0  0
    1.1350   -4.5680    1.0520 S   0  0  2  0  0  0  0  0  0  0  0  0
    1.5450   -5.6440   -0.2890 C   0  0  0  0  0  0  0  0  0  0  0  0
    0.1190   -5.2390    1.9160 O   0  0  0  0  0  0  0  0  0  0  0  0
    2.3740   -4.3440    1.8750 O   0  0  0  0  0  0  0  0  0  0  0  0
    0.4960   -2.1240    1.5940 C   0  0  0  0  0  0  0  0  0  0  0  0
    0.7970   -0.7480    1.0370 C   0  0  2  0  0  0  0  0  0  0  0  0
   -0.5130   -0.0050    1.0090 C   0  0  0  0  0  0  0  0  0  0  0  0
   -0.5620    1.0990    1.5710 O   0  0  0  0  0  0  0  0  0  0  0  0
   -1.5910   -0.5760    0.3660 N   0  0  0  0  0  0  0  0  0  0  0  0
   -2.8780   -0.0220    0.2460 C   0  0  0  0  0  0  0  0  0  0  0  0
   -3.2050    1.1890    0.7760 C   0  0  0  0  0  0  0  0  0  0  0  0
   -4.5010    1.6810    0.6200 C   0  0  0  0  0  0  0  0  0  0  0  0
   -5.4690    0.9850   -0.0540 C   0  0  0  0  0  0  0  0  0  0  0  0
   -6.7690    1.5270   -0.1850 N   0  0  0  0  0  0  0  0  0  0  0  0
   -7.3420    2.1080    0.8870 C   0  0  0  0  0  0  0  0  0  0  0  0
   -8.6090    2.6610    0.8390 C   0  0  0  0  0  0  0  0  0  0  0  0
   -9.2900    2.6030   -0.3610 C   0  0  0  0  0  0  0  0  0  0  0  0
   -8.6730    2.0010   -1.4380 C   0  0  0  0  0  0  0  0  0  0  0  0
   -7.4070    1.4560   -1.3650 C   0  0  0  0  0  0  0  0  0  0  0  0
   -6.9100    0.9230   -2.3910 O   0  0  0  0  0  0  0  0  0  0  0  0
   -5.1530   -0.2390   -0.5950 C   0  0  0  0  0  0  0  0  0  0  0  0
   -3.8790   -0.7070   -0.4330 C   0  0  0  0  0  0  0  0  0  0  0  0
   -3.5690   -1.9150   -0.9680 F   0  0  0  0  0  0  0  0  0  0  0  0
    5.8580    0.2930    0.7850 C   0  0  0  0  0  0  0  0  0  0  0  0
    7.0540    0.9500    0.6840 C   0  0  0  0  0  0  0  0  0  0  0  0
    8.1260    0.6090    1.4640 F   0  0  0  0  0  0  0  0  0  0  0  0
  1  2  1  0
  2  3  1  0
  3  4  2  0
  3 37  1  0
  4  5  1  0
  5  6  2  0
  6  7  1  0
  6 36  1  0
  7  8  1  0
  8  9  2  0
 10  8  1  1
 10 11  1  0
 10 18  1  0
 11 12  1  0
 12 13  1  0
 12 17  1  0
 13 14  1  6
 13 15  2  0
 13 16  2  0
 17 18  1  0
 18 19  1  6
 19 20  2  0
 19 21  1  0
 21 22  1  0
 22 23  2  0
 22 34  1  0
 23 24  1  0
 24 25  2  0
 25 26  1  0
 25 33  1  0
 26 27  1  0
 26 31  1  0
 27 28  2  0
 28 29  1  0
 29 30  2  0
 30 31  1  0
 31 32  2  0
 33 34  2  0
 34 35  1  0
 36 37  2  0
 37 38  1  0
M  END
