
     RDKit          3D

 37 38  0  0  0  0  0  0  0  0999 V2000
   -7.8660   -0.4490    1.5150 C   0  0  0  0  0  0  0  0  0  0  0  0
   -7.6960   -1.6960    0.7130 C   0  0  0  0  0  0  0  0  0  0  0  0
   -6.1640   -1.9550    0.4590 C   0  0  0  0  0  0  0  0  0  0  0  0
   -5.7110   -0.7900   -0.2740 C   0  0  2  0  0  0  0  0  0  0  0  0
   -6.3960   -0.7060   -1.5050 O   0  0  0  0  0  0  0  0  0  0  0  0
   -4.2560   -0.4970   -0.5300 C   0  0  2  0  0  0  0  0  0  0  0  0
   -3.5590   -1.4560   -1.3230 C   0  0  0  0  0  0  0  0  0  0  0  0
   -3.3240   -2.8710   -1.2020 C   0  0  0  0  0  0  0  0  0  0  0  0
   -4.3640   -3.7680   -1.2720 O   0  0  0  0  0  0  0  0  0  0  0  0
   -3.6770    0.1680    0.6770 C   0  0  0  0  0  0  0  0  0  0  0  0
   -2.3010    0.6420    0.7370 C   0  0  0  0  0  0  0  0  0  0  0  0
   -1.1570   -0.2260    0.7210 C   0  0  0  0  0  0  0  0  0  0  0  0
   -1.1790   -1.4800    0.7240 O   0  0  0  0  0  0  0  0  0  0  0  0
    0.1980    0.3470    0.7000 C   0  0  0  0  0  0  0  0  0  0  0  0
    1.2920   -0.4890    0.6080 C   0  0  0  0  0  0  0  0  0  0  0  0
    2.6070   -0.0460    0.5630 C   0  0  0  0  0  0  0  0  0  0  0  0
    3.6180   -0.9850    0.4700 O   0  0  0  0  0  0  0  0  0  0  0  0
    4.9810   -0.7510    0.4160 C   0  0  1  0  0  0  0  0  0  0  0  0
    5.6550   -1.5240    1.5490 C   0  0  0  0  0  0  0  0  0  0  0  0
    6.8810   -2.2480    1.0680 C   0  0  2  0  0  0  0  0  0  0  0  0
    7.6720   -2.7260    2.2620 C   0  0  0  0  0  0  0  0  0  0  0  0
    7.7070   -1.2620    0.2440 C   0  0  0  0  0  0  0  0  0  0  0  0
    6.9860   -1.0480   -1.0520 C   0  0  2  0  0  0  0  0  0  0  0  0
    7.5010   -1.8820   -2.1840 C   0  0  0  0  0  0  0  0  0  0  0  0
    7.1620    0.4160   -1.4390 C   0  0  0  0  0  0  0  0  0  0  0  0
    5.5020   -1.3200   -0.8960 C   0  0  0  0  0  0  0  0  0  0  0  0
    2.8410    1.2970    0.6110 C   0  0  0  0  0  0  0  0  0  0  0  0
    1.7750    2.1700    0.7030 C   0  0  0  0  0  0  0  0  0  0  0  0
    0.4510    1.7280    0.7500 C   0  0  0  0  0  0  0  0  0  0  0  0
   -0.5730    2.5910    0.8420 O   0  0  0  0  0  0  0  0  0  0  0  0
   -0.5220    3.9680    0.9080 C   0  0  2  0  0  0  0  0  0  0  0  0
   -1.1930    4.5040    2.1810 C   0  0  0  0  0  0  0  0  0  0  0  0
   -1.2800    4.6000   -0.2570 C   0  0  0  0  0  0  0  0  0  0  0  0
   -4.4420    0.7680   -1.4500 C   0  0  0  0  0  0  0  0  0  0  0  0
   -3.9930    0.7260   -2.5860 O   0  0  0  0  0  0  0  0  0  0  0  0
   -5.0900    1.8630   -0.9600 O   0  0  0  0  0  0  0  0  0  0  0  0
   -5.3080    3.0490   -1.7050 C   0  0  0  0  0  0  0  0  0  0  0  0
  1  2  1  0
  2  3  1  0
  3  4  1  0
  4  5  1  6
  4  6  1  0
  6  7  1  6
  6 10  1  0
  6 34  1  0
  7  8  1  0
  8  9  1  0
 10 11  1  0
 11 12  1  0
 12 13  2  0
 12 14  1  0
 14 15  2  0
 14 29  1  0
 15 16  1  0
 16 17  1  0
 16 27  2  0
 18 17  1  6
 18 19  1  0
 18 26  1  0
 19 20  1  0
 20 21  1  1
 20 22  1  0
 22 23  1  0
 23 24  1  6
 23 25  1  0
 23 26  1  0
 27 28  1  0
 28 29  2  0
 29 30  1  0
 30 31  1  0
 31 32  1  1
 31 33  1  0
 34 35  2  0
 34 36  1  0
 36 37  1  0
M  END
