
     RDKit          3D

 37 39  0  0  0  0  0  0  0  0999 V2000
    9.1960    1.0700   -0.1000 C   0  0  0  0  0  0  0  0  0  0  0  0
    8.5420   -0.0080    0.6700 C   0  0  0  0  0  0  0  0  0  0  0  0
    7.5370   -0.8440    0.0010 C   0  0  0  0  0  0  0  0  0  0  0  0
    6.2890   -0.1950   -0.4900 C   0  0  1  0  0  0  0  0  0  0  0  0
    6.5240    0.8460   -1.5100 C   0  0  0  0  0  0  0  0  0  0  0  0
    5.4480   -1.2440   -0.9630 O   0  0  0  0  0  0  0  0  0  0  0  0
    4.2420   -1.4570   -0.3210 C   0  0  0  0  0  0  0  0  0  0  0  0
    3.9380   -0.7270    0.6440 O   0  0  0  0  0  0  0  0  0  0  0  0
    3.3040   -2.5430   -0.7630 C   0  0  0  0  0  0  0  0  0  0  0  0
    2.1100   -2.5460    0.1460 C   0  0  0  0  0  0  0  0  0  0  0  0
    1.4380   -1.2300    0.0640 C   0  0  0  0  0  0  0  0  0  0  0  0
    0.9910   -0.7050    1.1080 O   0  0  0  0  0  0  0  0  0  0  0  0
    1.3110   -0.6000   -1.1470 O   0  0  0  0  0  0  0  0  0  0  0  0
    0.6720    0.6400   -1.2630 C   0  0  0  0  0  0  0  0  0  0  0  0
   -0.7510    0.5560   -0.8960 C   0  0  0  0  0  0  0  0  0  0  0  0
   -1.3600   -0.6200   -0.5970 C   0  0  0  0  0  0  0  0  0  0  0  0
   -2.7160   -0.6050   -0.2910 C   0  0  0  0  0  0  0  0  0  0  0  0
   -3.3230   -1.9070    0.0220 C   0  0  0  0  0  0  0  0  0  0  0  0
   -4.5420   -1.9100    0.3110 O   0  0  0  0  0  0  0  0  0  0  0  0
   -2.6120   -3.0760    0.0060 O   0  0  0  0  0  0  0  0  0  0  0  0
   -3.2480   -4.2860    0.3150 C   0  0  2  0  0  0  0  0  0  0  0  0
   -3.8320   -4.3000    1.7090 C   0  0  0  0  0  0  0  0  0  0  0  0
   -2.3290   -5.4740    0.1800 C   0  0  0  0  0  0  0  0  0  0  0  0
   -3.2930   -6.6370    0.1520 C   0  0  0  0  0  0  0  0  0  0  0  0
   -4.6450   -6.0720   -0.2590 C   0  0  0  0  0  0  0  0  0  0  0  0
   -4.3440   -4.6370   -0.7000 C   0  0  0  0  0  0  0  0  0  0  0  0
   -3.4190    0.5640   -0.2910 C   0  0  0  0  0  0  0  0  0  0  0  0
   -2.8190    1.8060   -0.5960 C   0  0  0  0  0  0  0  0  0  0  0  0
   -3.6460    3.0300   -0.4780 C   0  0  0  0  0  0  0  0  0  0  0  0
   -3.6360    3.5900    0.8710 C   0  0  1  0  0  0  0  0  0  0  0  0
   -2.3280    4.0570    1.4780 C   0  0  0  0  0  0  0  0  0  0  0  0
   -3.5900    4.9310    1.3730 C   0  0  1  0  0  0  0  0  0  0  0  0
   -3.5160    6.2100    0.6600 C   0  0  2  0  0  0  0  0  0  0  0  0
   -4.6500    6.5080   -0.2830 C   0  0  0  0  0  0  0  0  0  0  0  0
   -2.2250    6.4420   -0.0960 C   0  0  0  0  0  0  0  0  0  0  0  0
   -1.4840    1.7380   -0.8930 C   0  0  0  0  0  0  0  0  0  0  0  0
   -0.7910    2.8940   -1.2220 O   0  0  0  0  0  0  0  0  0  0  0  0
  1  2  1  0
  2  3  1  0
  3  4  1  0
  4  5  1  6
  4  6  1  0
  6  7  1  0
  7  8  2  0
  7  9  1  0
  9 10  1  0
 10 11  1  0
 11 12  2  0
 11 13  1  0
 13 14  1  0
 14 15  1  0
 15 16  2  0
 15 36  1  0
 16 17  1  0
 17 18  1  0
 17 27  2  0
 18 19  2  0
 18 20  1  0
 20 21  1  0
 21 22  1  1
 21 23  1  0
 21 26  1  0
 23 24  1  0
 24 25  1  0
 25 26  1  0
 27 28  1  0
 28 29  1  0
 28 36  2  0
 30 29  1  6
 30 31  1  0
 30 32  1  0
 32 31  1  1
 32 33  1  0
 33 34  1  6
 33 35  1  0
 36 37  1  0
M  END
