
     RDKit          3D

 37 38  0  0  0  0  0  0  0  0999 V2000
   -3.6640   -0.5550    2.5390 C   0  0  0  0  0  0  0  0  0  0  0  0
   -4.4280    0.4970    1.8030 C   0  0  0  0  0  0  0  0  0  0  0  0
   -5.2810   -0.0480    0.7190 C   0  0  0  0  0  0  0  0  0  0  0  0
   -6.5020   -0.6240    1.0860 C   0  0  0  0  0  0  0  0  0  0  0  0
   -6.9700   -0.7690    2.4500 C   0  0  0  0  0  0  0  0  0  0  0  0
   -6.3220   -0.4920    3.4930 O   0  0  0  0  0  0  0  0  0  0  0  0
   -8.2760   -1.2660    2.6480 O   0  0  0  0  0  0  0  0  0  0  0  0
   -8.7360   -1.4080    3.9680 C   0  0  0  0  0  0  0  0  0  0  0  0
   -7.3310   -1.1190    0.0740 C   0  0  0  0  0  0  0  0  0  0  0  0
   -6.9490   -1.0390   -1.2440 C   0  0  0  0  0  0  0  0  0  0  0  0
   -7.8780   -1.5840   -2.2670 C   0  0  0  0  0  0  0  0  0  0  0  0
   -5.7480   -0.4720   -1.5720 C   0  0  0  0  0  0  0  0  0  0  0  0
   -4.8880    0.0360   -0.5950 C   0  0  0  0  0  0  0  0  0  0  0  0
   -3.6050    0.5740   -1.0260 C   0  0  0  0  0  0  0  0  0  0  0  0
   -3.3830    0.7600   -2.2730 O   0  0  0  0  0  0  0  0  0  0  0  0
   -2.5570    0.9170   -0.2120 O   0  0  0  0  0  0  0  0  0  0  0  0
   -1.3240    1.4220   -0.5810 C   0  0  2  0  0  0  0  0  0  0  0  0
   -0.5340    1.6460    0.7200 C   0  0  0  0  0  0  0  0  0  0  0  0
   -1.4000    2.7740   -1.2560 C   0  0  0  0  0  0  0  0  0  0  0  0
   -0.5700    0.4460   -1.4370 C   0  0  0  0  0  0  0  0  0  0  0  0
    0.7980    1.0210   -1.8170 C   0  0  0  0  0  0  0  0  0  0  0  0
    1.5180    0.0600   -2.6550 C   0  0  0  0  0  0  0  0  0  0  0  0
    2.5950   -0.6120   -2.4530 C   0  0  0  0  0  0  0  0  0  0  0  0
    2.9760   -1.5170   -3.6550 C   0  0  0  0  0  0  0  0  0  0  0  0
    3.6930   -2.7150   -3.1130 C   0  0  0  0  0  0  0  0  0  0  0  0
    5.0210   -2.3150   -2.4800 C   0  0  0  0  0  0  0  0  0  0  0  0
    4.9210   -0.8960   -1.9460 C   0  0  0  0  0  0  0  0  0  0  0  0
    3.4920   -0.7130   -1.3480 C   0  0  1  0  0  0  0  0  0  0  0  0
    3.6110    0.3380   -0.3140 C   0  0  2  0  0  0  0  0  0  0  0  0
    3.9820    1.5830   -0.8150 O   0  0  0  0  0  0  0  0  0  0  0  0
    4.7650   -0.1360    0.6020 C   0  0  0  0  0  0  0  0  0  0  0  0
    4.6370   -1.2540    1.1420 O   0  0  0  0  0  0  0  0  0  0  0  0
    5.8730    0.6180    0.8190 O   0  0  0  0  0  0  0  0  0  0  0  0
    6.9310    0.1550    1.6740 C   0  0  1  0  0  0  0  0  0  0  0  0
    8.2670    0.1710    0.9690 C   0  0  0  0  0  0  0  0  0  0  0  0
    7.0090    1.1020    2.8650 C   0  0  0  0  0  0  0  0  0  0  0  0
    5.6630    1.0540    3.5720 C   0  0  0  0  0  0  0  0  0  0  0  0
  1  2  1  0
  2  3  1  0
  3  4  2  0
  3 13  1  0
  4  5  1  0
  4  9  1  0
  5  6  2  0
  5  7  1  0
  7  8  1  0
  9 10  2  0
 10 11  1  0
 10 12  1  0
 12 13  2  0
 13 14  1  0
 14 15  2  0
 14 16  1  0
 16 17  1  0
 17 18  1  1
 17 19  1  0
 17 20  1  0
 20 21  1  0
 21 22  1  0
 22 23  2  3
 23 24  1  0
 23 28  1  0
 24 25  1  0
 25 26  1  0
 26 27  1  0
 28 27  1  6
 28 29  1  0
 29 30  1  6
 29 31  1  0
 31 32  2  0
 31 33  1  0
 33 34  1  0
 34 35  1  6
 34 36  1  0
 36 37  1  0
M  END
