
     RDKit          3D

 37 38  0  0  0  0  0  0  0  0999 V2000
   -4.3550    3.9560   -1.8850 C   0  0  0  0  0  0  0  0  0  0  0  0
   -3.7720    5.1470   -1.1580 C   0  0  1  0  0  0  0  0  0  0  0  0
   -4.3150    6.4070   -1.7920 C   0  0  0  0  0  0  0  0  0  0  0  0
   -4.1310    5.1370    0.3090 C   0  0  0  0  0  0  0  0  0  0  0  0
   -3.6750    4.0090    0.9790 O   0  0  0  0  0  0  0  0  0  0  0  0
   -2.3820    3.5880    1.1260 C   0  0  0  0  0  0  0  0  0  0  0  0
   -1.4580    4.2480    0.6280 O   0  0  0  0  0  0  0  0  0  0  0  0
   -2.0360    2.3250    1.8850 C   0  0  1  0  0  0  0  0  0  0  0  0
   -2.5800    1.1310    1.2000 C   0  0  0  0  0  0  0  0  0  0  0  0
   -2.3500   -0.1890    1.8670 C   0  0  0  0  0  0  0  0  0  0  0  0
   -2.9530   -1.3150    1.1020 C   0  0  0  0  0  0  0  0  0  0  0  0
   -4.1270   -1.8900    1.5280 C   0  0  0  0  0  0  0  0  0  0  0  0
   -4.6730   -2.9370    0.8150 C   0  0  0  0  0  0  0  0  0  0  0  0
   -4.0840   -3.4390   -0.3220 C   0  0  0  0  0  0  0  0  0  0  0  0
   -2.8880   -2.8570   -0.7600 C   0  0  0  0  0  0  0  0  0  0  0  0
   -2.3440   -1.8210   -0.0580 C   0  0  0  0  0  0  0  0  0  0  0  0
   -1.1670   -1.2160   -0.4530 O   0  0  0  0  0  0  0  0  0  0  0  0
   -0.5480   -1.7110   -1.6100 C   0  0  0  0  0  0  0  0  0  0  0  0
   -1.0280   -2.7030   -2.3180 C   0  0  0  0  0  0  0  0  0  0  0  0
   -2.2620   -3.4000   -1.9690 C   0  0  2  0  0  0  0  0  0  0  0  0
   -3.1970   -3.3550   -3.1650 C   0  0  0  0  0  0  0  0  0  0  0  0
   -0.5620    2.3780    2.0910 C   0  0  1  0  0  0  0  0  0  0  0  0
   -0.2580    3.6340    2.9240 C   0  0  0  0  0  0  0  0  0  0  0  0
    0.0590    1.3030    2.7030 O   0  0  0  0  0  0  0  0  0  0  0  0
    1.2010    0.7080    2.1810 C   0  0  0  0  0  0  0  0  0  0  0  0
    1.6780    1.1790    1.1260 O   0  0  0  0  0  0  0  0  0  0  0  0
    1.8220   -0.4450    2.8640 C   0  0  0  0  0  0  0  0  0  0  0  0
    3.0190   -0.8790    2.3130 O   0  0  0  0  0  0  0  0  0  0  0  0
    3.2600   -1.2950    1.0430 C   0  0  0  0  0  0  0  0  0  0  0  0
    2.3420   -1.3180    0.2020 O   0  0  0  0  0  0  0  0  0  0  0  0
    4.6270   -1.7540    0.5640 C   0  0  2  0  0  0  0  0  0  0  0  0
    4.8260   -3.0770    1.2500 C   0  0  0  0  0  0  0  0  0  0  0  0
    5.6860   -0.7900    1.0800 C   0  0  0  0  0  0  0  0  0  0  0  0
    4.6840   -1.8210   -0.9030 C   0  0  0  0  0  0  0  0  0  0  0  0
    6.0040   -2.2220   -1.4450 C   0  0  2  0  0  0  0  0  0  0  0  0
    5.9410   -2.2010   -3.0120 C   0  0  0  0  0  0  0  0  0  0  0  0
    6.4660   -3.6260   -1.1140 C   0  0  0  0  0  0  0  0  0  0  0  0
  2  1  1  6
  2  3  1  0
  2  4  1  0
  4  5  1  0
  5  6  1  0
  6  7  2  0
  6  8  1  0
  8  9  1  6
  8 22  1  0
  9 10  1  0
 10 11  1  0
 11 12  2  0
 11 16  1  0
 12 13  1  0
 13 14  2  0
 14 15  1  0
 15 16  2  0
 15 20  1  0
 16 17  1  0
 17 18  1  0
 18 19  2  0
 19 20  1  0
 20 21  1  6
 22 23  1  1
 22 24  1  0
 24 25  1  0
 25 26  2  0
 25 27  1  0
 27 28  1  0
 28 29  1  0
 29 30  2  0
 29 31  1  0
 31 32  1  1
 31 33  1  0
 31 34  1  0
 34 35  1  0
 35 36  1  6
 35 37  1  0
M  END
