
     RDKit          3D

 37 38  0  0  0  0  0  0  0  0999 V2000
   -1.1640   -0.3110   -3.5530 C   0  0  0  0  0  0  0  0  0  0  0  0
   -0.4370   -0.7770   -2.5750 C   0  0  0  0  0  0  0  0  0  0  0  0
    1.0050   -0.4950   -2.6060 C   0  0  0  0  0  0  0  0  0  0  0  0
    1.7730   -0.9410   -1.6340 C   0  0  0  0  0  0  0  0  0  0  0  0
    3.1920   -0.6810   -1.6410 C   0  0  0  0  0  0  0  0  0  0  0  0
    3.9540   -1.1050   -0.6660 C   0  0  0  0  0  0  0  0  0  0  0  0
    3.3950   -1.8010    0.3850 O   0  0  0  0  0  0  0  0  0  0  0  0
    5.3820   -0.8590   -0.6750 C   0  0  0  0  0  0  0  0  0  0  0  0
    5.8780   -0.2520   -1.6590 O   0  0  0  0  0  0  0  0  0  0  0  0
    6.2220   -1.2630    0.3540 O   0  0  0  0  0  0  0  0  0  0  0  0
    7.6060   -1.0100    0.2740 C   0  0  2  0  0  0  0  0  0  0  0  0
    8.3750   -2.2760    0.4010 C   0  0  0  0  0  0  0  0  0  0  0  0
    7.9520    0.0270    1.3170 C   0  0  2  0  0  0  0  0  0  0  0  0
    7.1840    1.2790    1.0360 C   0  0  0  0  0  0  0  0  0  0  0  0
    9.3910    0.2030    1.5960 C   0  0  0  0  0  0  0  0  0  0  0  0
   10.2700    0.5960    0.4670 C   0  0  0  0  0  0  0  0  0  0  0  0
    9.9590    1.8970   -0.1980 C   0  0  0  0  0  0  0  0  0  0  0  0
   -0.9250   -1.5910   -1.4550 C   0  0  0  0  0  0  0  0  0  0  0  0
   -2.2500   -1.9030   -1.3980 O   0  0  0  0  0  0  0  0  0  0  0  0
   -3.3040   -1.0830   -1.2370 C   0  0  0  0  0  0  0  0  0  0  0  0
   -3.1890    0.2720   -1.0760 C   0  0  0  0  0  0  0  0  0  0  0  0
   -4.2980    1.0910   -0.9090 C   0  0  0  0  0  0  0  0  0  0  0  0
   -5.5530    0.5780   -0.8970 C   0  0  0  0  0  0  0  0  0  0  0  0
   -6.7800    1.3480   -0.6770 C   0  0  2  0  0  0  0  0  0  0  0  0
   -6.6050    2.7810   -0.3610 C   0  0  0  0  0  0  0  0  0  0  0  0
   -6.0110    2.9760    0.9740 C   0  0  0  0  0  0  0  0  0  0  0  0
   -5.0780    3.7540    1.1690 O   0  0  0  0  0  0  0  0  0  0  0  0
   -6.5270    2.2350    2.1400 C   0  0  0  0  0  0  0  0  0  0  0  0
   -6.8300    0.7890    1.7980 C   0  0  0  0  0  0  0  0  0  0  0  0
   -7.4790    0.6640    0.4920 C   0  0  0  0  0  0  0  0  0  0  0  0
   -8.5770    0.0160    0.2450 C   0  0  0  0  0  0  0  0  0  0  0  0
   -9.3920   -0.6960    1.1860 C   0  0  0  0  0  0  0  0  0  0  0  0
  -10.4650   -1.2950    0.7880 O   0  0  0  0  0  0  0  0  0  0  0  0
   -9.1460   -0.8220    2.5310 O   0  0  0  0  0  0  0  0  0  0  0  0
  -10.0380   -1.5670    3.3710 C   0  0  0  0  0  0  0  0  0  0  0  0
   -5.6740   -0.8010   -1.0630 C   0  0  0  0  0  0  0  0  0  0  0  0
   -4.6050   -1.6180   -1.2290 C   0  0  0  0  0  0  0  0  0  0  0  0
  1  2  2  0
  2  3  1  0
  2 18  1  0
  3  4  2  3
  4  5  1  0
  5  6  2  3
  6  7  1  0
  6  8  1  0
  8  9  2  0
  8 10  1  0
 10 11  1  0
 11 12  1  1
 11 13  1  0
 13 14  1  6
 13 15  1  0
 15 16  1  0
 16 17  1  0
 18 19  1  0
 19 20  1  0
 20 21  2  0
 20 37  1  0
 21 22  1  0
 22 23  2  0
 24 23  1  1
 23 36  1  0
 24 25  1  0
 24 30  1  0
 25 26  1  0
 26 27  2  0
 26 28  1  0
 28 29  1  0
 29 30  1  0
 30 31  2  3
 31 32  1  0
 32 33  2  0
 32 34  1  0
 34 35  1  0
 36 37  2  0
M  END
