
     RDKit          3D

 37 39  0  0  0  0  0  0  0  0999 V2000
    7.7480    0.6580   -3.5940 C   0  0  0  0  0  0  0  0  0  0  0  0
    8.5500    0.0090   -2.5100 C   0  0  0  0  0  0  0  0  0  0  0  0
    8.2900    0.5950   -1.1680 C   0  0  0  0  0  0  0  0  0  0  0  0
    9.2340    1.4540   -0.6240 C   0  0  0  0  0  0  0  0  0  0  0  0
    9.0160    2.0090    0.6190 C   0  0  0  0  0  0  0  0  0  0  0  0
    9.9610    2.9290    1.2740 C   0  0  0  0  0  0  0  0  0  0  0  0
    7.8520    1.6800    1.2730 C   0  0  0  0  0  0  0  0  0  0  0  0
    7.5730    2.2540    2.6190 C   0  0  0  0  0  0  0  0  0  0  0  0
    6.9130    0.8250    0.7310 C   0  0  0  0  0  0  0  0  0  0  0  0
    7.1140    0.2580   -0.5160 C   0  0  0  0  0  0  0  0  0  0  0  0
    6.2120   -0.6090   -1.1190 O   0  0  0  0  0  0  0  0  0  0  0  0
    5.0300   -0.8850   -0.3510 C   0  0  0  0  0  0  0  0  0  0  0  0
    4.1940   -1.8330   -1.1660 C   0  0  0  0  0  0  0  0  0  0  0  0
    3.0350   -2.1340   -0.4610 O   0  0  0  0  0  0  0  0  0  0  0  0
    2.0580   -1.2420   -0.0500 C   0  0  0  0  0  0  0  0  0  0  0  0
    2.2150   -0.0350   -0.3370 O   0  0  0  0  0  0  0  0  0  0  0  0
    0.8520   -1.7200    0.7180 C   0  0  2  0  0  0  0  0  0  0  0  0
    1.2940   -2.5170    1.9330 C   0  0  0  0  0  0  0  0  0  0  0  0
    0.0830   -2.6330   -0.1900 C   0  0  0  0  0  0  0  0  0  0  0  0
   -1.0100   -1.7200   -0.7010 C   0  0  0  0  0  0  0  0  0  0  0  0
   -1.2980   -0.9150    0.5050 C   0  0  0  0  0  0  0  0  0  0  0  0
   -2.4340   -0.5030    0.9930 C   0  0  0  0  0  0  0  0  0  0  0  0
   -3.7290   -0.7720    0.4080 C   0  0  0  0  0  0  0  0  0  0  0  0
   -3.8870   -1.4320   -0.6410 O   0  0  0  0  0  0  0  0  0  0  0  0
   -4.9070   -0.3020    0.9910 O   0  0  0  0  0  0  0  0  0  0  0  0
   -6.1740   -0.5810    0.4060 C   0  0  2  0  0  0  0  0  0  0  0  0
   -6.9460    0.6570    0.1110 C   0  0  0  0  0  0  0  0  0  0  0  0
   -6.2480    1.6100   -0.8520 C   0  0  1  0  0  0  0  0  0  0  0  0
   -5.9770    1.0110   -2.1950 C   0  0  0  0  0  0  0  0  0  0  0  0
   -7.1910    2.7800   -1.0440 C   0  0  0  0  0  0  0  0  0  0  0  0
   -6.6260    3.8170   -1.9890 C   0  0  0  0  0  0  0  0  0  0  0  0
   -6.9750   -1.4760    1.3220 C   0  0  2  0  0  0  0  0  0  0  0  0
   -8.3230   -1.8100    0.7560 C   0  0  0  0  0  0  0  0  0  0  0  0
   -8.9560   -2.3880    2.0510 C   0  0  0  0  0  0  0  0  0  0  0  0
   -8.3430   -1.4800    3.0840 C   0  0  0  0  0  0  0  0  0  0  0  0
   -7.2080   -0.8850    2.5560 O   0  0  0  0  0  0  0  0  0  0  0  0
   -0.0060   -0.6810    1.0400 O   0  0  0  0  0  0  0  0  0  0  0  0
  1  2  1  0
  2  3  1  0
  3  4  2  0
  3 10  1  0
  4  5  1  0
  5  6  1  0
  5  7  2  0
  7  8  1  0
  7  9  1  0
  9 10  2  0
 10 11  1  0
 11 12  1  0
 12 13  1  0
 13 14  1  0
 14 15  1  0
 15 16  2  0
 15 17  1  0
 17 18  1  1
 17 19  1  0
 17 37  1  0
 19 20  1  0
 20 21  1  0
 21 22  2  3
 21 37  1  0
 22 23  1  0
 23 24  2  0
 23 25  1  0
 25 26  1  0
 26 27  1  1
 26 32  1  0
 27 28  1  0
 28 29  1  6
 28 30  1  0
 30 31  1  0
 32 33  1  6
 32 36  1  0
 33 34  1  0
 34 35  1  0
 35 36  1  0
M  END
