
     RDKit          3D

 21 23  0  0  0  0  0  0  0  0999 V2000
    2.8690    2.9090   -0.7250 C   0  0  0  0  0  0  0  0  0  0  0  0
    2.2730    1.6980   -0.0160 C   0  0  0  0  0  0  0  0  0  0  0  0
    2.9050    0.5580   -0.0020 C   0  0  0  0  0  0  0  0  0  0  0  0
    4.0920    0.4950   -0.6300 F   0  0  0  0  0  0  0  0  0  0  0  0
    2.3790   -0.6290    0.6460 C   0  0  0  0  0  0  0  0  0  0  0  0
    3.0740   -1.7570    0.6370 C   0  0  0  0  0  0  0  0  0  0  0  0
    2.3120   -2.7660    1.3540 C   0  0  0  0  0  0  0  0  0  0  0  0
    1.1950   -2.2740    1.7830 C   0  0  0  0  0  0  0  0  0  0  0  0
    0.2440   -3.0130    2.5180 O   0  0  0  0  0  0  0  0  0  0  0  0
    1.1210   -0.8620    1.3650 C   0  0  2  0  0  0  0  0  0  0  0  0
   -0.0880   -0.6300    0.5510 C   0  0  0  0  0  0  0  0  0  0  0  0
   -0.3380   -1.4290   -0.5350 C   0  0  0  0  0  0  0  0  0  0  0  0
   -1.4400   -1.2240   -1.3160 N   0  0  0  0  0  0  0  0  0  0  0  0
   -2.3330   -0.2350   -1.0650 C   0  0  0  0  0  0  0  0  0  0  0  0
   -3.4370   -0.0390   -1.8580 C   0  0  0  0  0  0  0  0  0  0  0  0
   -4.3310    0.9660   -1.5910 C   0  0  0  0  0  0  0  0  0  0  0  0
   -4.0940    1.7770   -0.5040 C   0  0  0  0  0  0  0  0  0  0  0  0
   -2.9880    1.5720    0.2830 C   0  0  0  0  0  0  0  0  0  0  0  0
   -2.0740    0.5690    0.0350 C   0  0  0  0  0  0  0  0  0  0  0  0
   -0.9480    0.3750    0.8500 C   0  0  0  0  0  0  0  0  0  0  0  0
   -0.8330    1.1710    1.8160 O   0  0  0  0  0  0  0  0  0  0  0  0
  1  2  1  0
  2  3  2  3
  3  4  1  0
  3  5  1  0
  5  6  2  0
  5 10  1  0
  6  7  1  0
  7  8  2  0
  8  9  1  0
  8 10  1  0
 10 11  1  6
 11 12  2  0
 11 20  1  0
 12 13  1  0
 13 14  1  0
 14 15  2  0
 14 19  1  0
 15 16  1  0
 16 17  2  0
 17 18  1  0
 18 19  2  0
 19 20  1  0
 20 21  2  0
M  END
