
     RDKit          3D

 14 16  0  0  0  0  0  0  0  0999 V2000
   -3.6890   -0.7280    0.6740 C   0  0  0  0  0  0  0  0  0  0  0  0
   -3.7930    0.4970    0.0430 C   0  0  0  0  0  0  0  0  0  0  0  0
   -2.6740    1.1740   -0.3840 C   0  0  0  0  0  0  0  0  0  0  0  0
   -1.4430    0.6090   -0.1730 C   0  0  0  0  0  0  0  0  0  0  0  0
   -0.2380    1.0260   -0.4700 O   0  0  0  0  0  0  0  0  0  0  0  0
    0.6650    0.1620   -0.0810 C   0  0  0  0  0  0  0  0  0  0  0  0
    2.0900    0.3340   -0.2660 C   0  0  0  0  0  0  0  0  0  0  0  0
    2.6970    1.3820   -0.8530 N   0  0  0  0  0  0  0  0  0  0  0  0
    4.0290    1.2080   -0.8510 C   0  0  0  0  0  0  0  0  0  0  0  0
    4.2230   -0.0090   -0.2310 C   0  0  0  0  0  0  0  0  0  0  0  0
    3.0500   -0.5320    0.1200 N   0  0  0  0  0  0  0  0  0  0  0  0
    0.0410   -0.9120    0.5200 C   0  0  0  0  0  0  0  0  0  0  0  0
   -1.3070   -0.6300    0.4630 C   0  0  0  0  0  0  0  0  0  0  0  0
   -2.4410   -1.2880    0.8820 C   0  0  0  0  0  0  0  0  0  0  0  0
  1  2  2  0
  1 14  1  0
  2  3  1  0
  3  4  2  0
  4  5  1  0
  4 13  1  0
  5  6  1  0
  6  7  1  0
  6 12  2  0
  7  8  2  0
  7 11  1  0
  8  9  1  0
  9 10  2  0
 10 11  1  0
 12 13  1  0
 13 14  2  0
M  END
