
     RDKit          3D

 20 22  0  0  0  0  0  0  0  0999 V2000
    1.8640   -3.0710    0.9070 C   0  0  0  0  0  0  0  0  0  0  0  0
    0.9880   -1.9510    0.5280 C   0  0  0  0  0  0  0  0  0  0  0  0
   -0.3250   -2.1280    0.4530 C   0  0  0  0  0  0  0  0  0  0  0  0
   -1.2310   -1.0530    0.0840 C   0  0  0  0  0  0  0  0  0  0  0  0
   -2.6030   -1.2340    0.0040 C   0  0  0  0  0  0  0  0  0  0  0  0
   -3.4510   -0.1920   -0.3510 C   0  0  0  0  0  0  0  0  0  0  0  0
   -2.9330    1.0540   -0.6330 C   0  0  0  0  0  0  0  0  0  0  0  0
   -1.5650    1.2250   -0.5510 C   0  0  0  0  0  0  0  0  0  0  0  0
   -0.7250    0.1820   -0.1960 C   0  0  0  0  0  0  0  0  0  0  0  0
    0.7120    0.3940   -0.1190 N   0  0  0  0  0  0  0  0  0  0  0  0
    1.5890   -0.6300    0.2340 C   0  0  0  0  0  0  0  0  0  0  0  0
    2.8760   -0.5130    0.3230 C   0  0  0  0  0  0  0  0  0  0  0  0
    3.6210    0.7030    0.0700 C   0  0  0  0  0  0  0  0  0  0  0  0
    3.1340    1.8040   -0.2670 O   0  0  0  0  0  0  0  0  0  0  0  0
    5.0740    0.6750    0.2120 C   0  0  0  0  0  0  0  0  0  0  0  0
    5.7630    1.7690   -0.0130 C   0  0  0  0  0  0  0  0  0  0  0  0
    7.1460    1.8240    0.1010 O   0  0  0  0  0  0  0  0  0  0  0  0
   -4.0120    2.0080   -0.9860 C   0  0  0  0  0  0  0  0  0  0  0  0
   -5.2820    1.2920   -0.5890 C   0  0  0  0  0  0  0  0  0  0  0  0
   -4.9280   -0.1730   -0.4930 C   0  0  0  0  0  0  0  0  0  0  0  0
  1  2  1  0
  2  3  2  0
  2 11  1  0
  3  4  1  0
  4  5  2  0
  4  9  1  0
  5  6  1  0
  6  7  2  0
  6 20  1  0
  7  8  1  0
  7 18  1  0
  8  9  2  0
  9 10  1  0
 10 11  1  0
 11 12  2  3
 12 13  1  0
 13 14  2  0
 13 15  1  0
 15 16  2  3
 16 17  1  0
 18 19  1  0
 19 20  1  0
M  END
