
     RDKit          3D

 21 23  0  0  0  0  0  0  0  0999 V2000
   -3.4330   -1.6620   -1.3240 C   0  0  0  0  0  0  0  0  0  0  0  0
   -2.8270   -1.2110    0.0240 C   0  0  1  0  0  0  0  0  0  0  0  0
   -1.3820   -1.3970   -0.0300 C   0  0  0  0  0  0  0  0  0  0  0  0
   -0.5130   -0.2310    0.2520 C   0  0  0  0  0  0  0  0  0  0  0  0
    0.9260   -0.4590    0.1880 C   0  0  0  0  0  0  0  0  0  0  0  0
    1.3410   -1.5990   -0.0950 O   0  0  0  0  0  0  0  0  0  0  0  0
    1.8550    0.5400    0.4280 O   0  0  0  0  0  0  0  0  0  0  0  0
    3.2040    0.2340    0.3440 C   0  0  0  0  0  0  0  0  0  0  0  0
    3.9460   -0.2120    1.4330 C   0  0  0  0  0  0  0  0  0  0  0  0
    5.2860   -0.5080    1.3180 C   0  0  0  0  0  0  0  0  0  0  0  0
    5.9600   -0.3800    0.1260 C   0  0  0  0  0  0  0  0  0  0  0  0
    5.2410    0.0590   -0.9580 C   0  0  0  0  0  0  0  0  0  0  0  0
    3.8800    0.3630   -0.8530 C   0  0  0  0  0  0  0  0  0  0  0  0
    3.1360    0.8160   -1.9690 N   0  0  0  0  0  0  0  0  0  0  0  0
   -1.0020    0.9660    0.5490 C   0  0  0  0  0  0  0  0  0  0  0  0
   -2.4410    1.2180    0.6190 C   0  0  0  0  0  0  0  0  0  0  0  0
   -3.1650    2.2990    0.8900 C   0  0  0  0  0  0  0  0  0  0  0  0
   -4.6050    1.9850    0.8210 C   0  0  0  0  0  0  0  0  0  0  0  0
   -4.6400    0.5520    0.4680 C   0  0  0  0  0  0  0  0  0  0  0  0
   -5.7170   -0.2570    0.2750 F   0  0  0  0  0  0  0  0  0  0  0  0
   -3.3520    0.1360    0.3580 C   0  0  0  0  0  0  0  0  0  0  0  0
  2  1  1  6
  2  3  1  0
  2 21  1  0
  3  4  1  0
  4  5  1  0
  4 15  2  0
  5  6  2  0
  5  7  1  0
  7  8  1  0
  8  9  2  0
  8 13  1  0
  9 10  1  0
 10 11  2  0
 11 12  1  0
 12 13  2  0
 13 14  1  0
 15 16  1  0
 16 17  2  0
 16 21  1  0
 17 18  1  0
 18 19  1  0
 19 20  1  0
 19 21  2  0
M  END
