
     RDKit          3D

 26 28  0  0  0  0  0  0  0  0999 V2000
    4.1200    1.3020   -1.4470 C   0  0  0  0  0  0  0  0  0  0  0  0
    4.1420    0.1120   -0.5650 C   0  0  0  0  0  0  0  0  0  0  0  0
    5.3130   -0.5680   -0.2990 C   0  0  0  0  0  0  0  0  0  0  0  0
    6.4920   -0.1200   -0.8760 O   0  0  0  0  0  0  0  0  0  0  0  0
    5.3290   -1.6690    0.5180 C   0  0  0  0  0  0  0  0  0  0  0  0
    4.1460   -2.0770    1.0660 C   0  0  0  0  0  0  0  0  0  0  0  0
    4.1320   -3.4750    2.1100 Cl  0  0  0  0  0  0  0  0  0  0  0  0
    2.9540   -1.3870    0.7960 C   0  0  0  0  0  0  0  0  0  0  0  0
    2.9120   -0.2870   -0.0140 C   0  0  0  0  0  0  0  0  0  0  0  0
    1.7520    0.4550   -0.3290 N   0  0  0  0  0  0  0  0  0  0  0  0
    0.4710    0.2020    0.1250 C   0  0  0  0  0  0  0  0  0  0  0  0
    0.2760   -0.7900    0.9120 O   0  0  0  0  0  0  0  0  0  0  0  0
   -0.7720    0.9470   -0.1790 C   0  0  1  0  0  0  0  0  0  0  0  0
   -1.1320    1.1310   -1.6020 C   0  0  1  0  0  0  0  0  0  0  0  0
   -2.4790    1.9070   -1.5830 C   0  0  0  0  0  0  0  0  0  0  0  0
   -0.1700    2.0850   -2.2780 C   0  0  0  0  0  0  0  0  0  0  0  0
   -1.8990    0.4980    0.6310 N   0  0  0  0  0  0  0  0  0  0  0  0
   -2.4950    1.3330    1.6180 C   0  0  0  0  0  0  0  0  0  0  0  0
   -2.5070    2.5720    1.5010 O   0  0  0  0  0  0  0  0  0  0  0  0
   -3.0970    0.6610    2.7900 C   0  0  0  0  0  0  0  0  0  0  0  0
   -4.1540   -0.2630    2.2860 C   0  0  0  0  0  0  0  0  0  0  0  0
   -3.5880   -1.1950    1.2870 C   0  0  0  0  0  0  0  0  0  0  0  0
   -3.9710   -2.4530    0.9870 C   0  0  0  0  0  0  0  0  0  0  0  0
   -3.0700   -2.9200   -0.0820 C   0  0  0  0  0  0  0  0  0  0  0  0
   -2.1390   -1.8260   -0.3560 C   0  0  0  0  0  0  0  0  0  0  0  0
   -2.4570   -0.8210    0.4500 C   0  0  0  0  0  0  0  0  0  0  0  0
  1  2  1  0
  2  3  2  0
  2  9  1  0
  3  4  1  0
  3  5  1  0
  5  6  2  0
  6  7  1  0
  6  8  1  0
  8  9  2  0
  9 10  1  0
 10 11  1  0
 11 12  2  0
 11 13  1  0
 13 14  1  0
 13 17  1  1
 14 15  1  1
 14 16  1  0
 17 18  1  0
 17 26  1  0
 18 19  2  0
 18 20  1  0
 20 21  1  0
 21 22  1  0
 22 23  2  0
 22 26  1  0
 23 24  1  0
 24 25  1  0
 25 26  2  0
M  END
