
     RDKit          3D

 19 21  0  0  0  0  0  0  0  0999 V2000
   -5.0230    0.9400    0.4350 C   0  0  0  0  0  0  0  0  0  0  0  0
   -3.5490    0.8860    0.0780 C   0  0  0  0  0  0  0  0  0  0  0  0
   -2.7970   -0.0450    1.0010 C   0  0  0  0  0  0  0  0  0  0  0  0
   -1.3870   -0.1050    0.6660 C   0  0  0  0  0  0  0  0  0  0  0  0
   -0.4940    0.6240    1.4640 C   0  0  0  0  0  0  0  0  0  0  0  0
    0.8280    0.6170    1.2110 C   0  0  0  0  0  0  0  0  0  0  0  0
    2.2530    1.3840    1.9670 S   0  0  0  0  0  0  0  0  0  0  0  0
    3.5240    0.7200    0.8590 C   0  0  0  0  0  0  0  0  0  0  0  0
    4.8700    0.8650    0.8100 C   0  0  0  0  0  0  0  0  0  0  0  0
    5.4160    1.5940    1.6760 O   0  0  0  0  0  0  0  0  0  0  0  0
    5.5830    0.2340   -0.1500 N   0  0  0  0  0  0  0  0  0  0  0  0
    4.8660   -0.5070   -1.0010 C   0  0  0  0  0  0  0  0  0  0  0  0
    5.5070   -1.1250   -1.9290 O   0  0  0  0  0  0  0  0  0  0  0  0
    3.5410   -0.6580   -0.9630 N   0  0  0  0  0  0  0  0  0  0  0  0
    2.7590   -0.0270    0.0090 C   0  0  0  0  0  0  0  0  0  0  0  0
    1.4360   -0.1000    0.1510 C   0  0  0  0  0  0  0  0  0  0  0  0
    0.4950   -0.8330   -0.6430 C   0  0  0  0  0  0  0  0  0  0  0  0
   -0.8430   -0.8090   -0.3630 C   0  0  0  0  0  0  0  0  0  0  0  0
   -1.7950   -1.5930   -1.2050 C   0  0  0  0  0  0  0  0  0  0  0  0
  1  2  1  0
  2  3  1  0
  3  4  1  0
  4  5  2  0
  4 18  1  0
  5  6  1  0
  6  7  1  0
  6 16  2  0
  7  8  1  0
  8  9  1  0
  8 15  2  0
  9 10  2  0
  9 11  1  0
 11 12  1  0
 12 13  2  0
 12 14  1  0
 14 15  1  0
 15 16  1  0
 16 17  1  0
 17 18  2  0
 18 19  1  0
M  END
