
     RDKit          3D

 19 21  0  0  0  0  0  0  0  0999 V2000
    2.5590    0.1770    3.0340 C   0  0  0  0  0  0  0  0  0  0  0  0
    2.0250   -0.1340    1.6950 C   0  0  0  0  0  0  0  0  0  0  0  0
    0.7820   -0.7470    1.5220 C   0  0  0  0  0  0  0  0  0  0  0  0
    0.2720   -1.0440    0.2800 C   0  0  0  0  0  0  0  0  0  0  0  0
   -1.3230   -1.8290    0.1150 S   0  0  0  0  0  0  0  0  0  0  0  0
   -2.6630   -0.6450    0.0030 C   0  0  1  0  0  0  0  0  0  0  0  0
   -2.6260    0.1910   -1.2540 C   0  0  0  0  0  0  0  0  0  0  0  0
   -4.0290    0.8130   -1.1910 C   0  0  0  0  0  0  0  0  0  0  0  0
   -4.9040   -0.3180   -0.6580 C   0  0  0  0  0  0  0  0  0  0  0  0
   -3.9740   -1.3840   -0.1390 C   0  0  0  0  0  0  0  0  0  0  0  0
    1.0570   -0.7030   -0.8000 C   0  0  0  0  0  0  0  0  0  0  0  0
    2.2940   -0.0960   -0.6750 C   0  0  0  0  0  0  0  0  0  0  0  0
    3.0380    0.2240   -1.7420 N   0  0  0  0  0  0  0  0  0  0  0  0
    4.2380    0.8120   -1.6290 C   0  0  0  0  0  0  0  0  0  0  0  0
    4.9490    1.1190   -2.6200 O   0  0  0  0  0  0  0  0  0  0  0  0
    4.7350    1.1020   -0.4180 N   0  0  0  0  0  0  0  0  0  0  0  0
    4.0130    0.7940    0.6920 C   0  0  0  0  0  0  0  0  0  0  0  0
    4.4850    1.0680    1.8120 O   0  0  0  0  0  0  0  0  0  0  0  0
    2.7930    0.1970    0.5930 C   0  0  0  0  0  0  0  0  0  0  0  0
  1  2  1  0
  2  3  2  0
  2 19  1  0
  3  4  1  0
  4  5  1  0
  4 11  2  0
  6  5  1  6
  6  7  1  0
  6 10  1  0
  7  8  1  0
  8  9  1  0
  9 10  1  0
 11 12  1  0
 12 13  1  0
 12 19  2  0
 13 14  1  0
 14 15  2  0
 14 16  1  0
 16 17  1  0
 17 18  2  0
 17 19  1  0
M  END
