
     RDKit          3D

 19 21  0  0  0  0  0  0  0  0999 V2000
    4.5930    0.9590   -0.0580 C   0  0  0  0  0  0  0  0  0  0  0  0
    4.0180   -0.3230    0.3910 C   0  0  0  0  0  0  0  0  0  0  0  0
    4.7460   -1.1450    0.9620 O   0  0  0  0  0  0  0  0  0  0  0  0
    2.6100   -0.6260    0.1670 C   0  0  0  0  0  0  0  0  0  0  0  0
    2.0820   -1.8320    0.5920 C   0  0  0  0  0  0  0  0  0  0  0  0
    0.7670   -2.1860    0.4150 C   0  0  0  0  0  0  0  0  0  0  0  0
   -0.0780   -1.2830   -0.2240 C   0  0  0  0  0  0  0  0  0  0  0  0
    0.4250   -0.0780   -0.6550 C   0  0  0  0  0  0  0  0  0  0  0  0
    1.7480    0.2350   -0.4580 C   0  0  0  0  0  0  0  0  0  0  0  0
   -0.4740    0.9260   -1.3430 C   0  0  0  0  0  0  0  0  0  0  0  0
   -1.8180    0.8140   -0.7110 C   0  0  0  0  0  0  0  0  0  0  0  0
   -2.3170   -0.3870   -0.2760 C   0  0  0  0  0  0  0  0  0  0  0  0
   -3.5190   -0.4630    0.2960 N   0  0  0  0  0  0  0  0  0  0  0  0
   -4.2520    0.6380    0.4510 C   0  0  0  0  0  0  0  0  0  0  0  0
   -5.7240    0.5920    1.1430 S   0  0  0  0  0  0  0  0  0  0  0  0
   -3.7890    1.8300    0.0340 N   0  0  0  0  0  0  0  0  0  0  0  0
   -2.5740    1.9460   -0.5510 C   0  0  0  0  0  0  0  0  0  0  0  0
   -2.1800    3.0860   -0.9270 O   0  0  0  0  0  0  0  0  0  0  0  0
   -1.5050   -1.5940   -0.4600 C   0  0  0  0  0  0  0  0  0  0  0  0
  1  2  1  0
  2  3  2  0
  2  4  1  0
  4  5  2  0
  4  9  1  0
  5  6  1  0
  6  7  2  0
  7  8  1  0
  7 19  1  0
  8  9  2  0
  8 10  1  0
 10 11  1  0
 11 12  2  0
 11 17  1  0
 12 13  1  0
 12 19  1  0
 13 14  1  0
 14 15  2  0
 14 16  1  0
 16 17  1  0
 17 18  2  0
M  END
