
     RDKit          3D

 19 21  0  0  0  0  0  0  0  0999 V2000
    4.4760    1.3430   -0.6890 N   0  0  0  0  0  0  0  0  0  0  0  0
    4.1910    0.0040   -0.2800 C   0  0  0  0  0  0  0  0  0  0  0  0
    3.3270   -0.1080    0.9440 C   0  0  0  0  0  0  0  0  0  0  0  0
    1.9970    0.5220    0.7830 C   0  0  0  0  0  0  0  0  0  0  0  0
    1.9570    1.7770    0.9750 O   0  0  0  0  0  0  0  0  0  0  0  0
    0.8020   -0.2090    0.4320 C   0  0  0  0  0  0  0  0  0  0  0  0
    0.7780   -1.5500    0.2060 C   0  0  0  0  0  0  0  0  0  0  0  0
   -0.4300   -2.1710   -0.1270 C   0  0  0  0  0  0  0  0  0  0  0  0
   -1.6130   -1.4530   -0.2360 C   0  0  0  0  0  0  0  0  0  0  0  0
   -2.7220   -2.1440   -0.5610 N   0  0  0  0  0  0  0  0  0  0  0  0
   -3.8610   -1.4710   -0.6670 C   0  0  0  0  0  0  0  0  0  0  0  0
   -4.9630   -2.0470   -0.9720 O   0  0  0  0  0  0  0  0  0  0  0  0
   -3.8520   -0.0970   -0.4390 C   0  0  0  0  0  0  0  0  0  0  0  0
   -5.1720    1.1270   -0.4880 S   0  0  0  0  0  0  0  0  0  0  0  0
   -4.1630    2.5020   -0.0690 C   0  0  0  0  0  0  0  0  0  0  0  0
   -2.9120    1.9570    0.0790 C   0  0  0  0  0  0  0  0  0  0  0  0
   -2.7750    0.6420   -0.1120 C   0  0  0  0  0  0  0  0  0  0  0  0
   -1.5820   -0.1110   -0.0090 C   0  0  0  0  0  0  0  0  0  0  0  0
   -0.3920    0.4820    0.3170 C   0  0  0  0  0  0  0  0  0  0  0  0
  1  2  1  0
  2  3  1  0
  3  4  1  0
  4  5  2  0
  4  6  1  0
  6  7  2  0
  6 19  1  0
  7  8  1  0
  8  9  2  0
  9 10  1  0
  9 18  1  0
 10 11  1  0
 11 12  2  0
 11 13  1  0
 13 14  1  0
 13 17  2  0
 14 15  1  0
 15 16  2  0
 16 17  1  0
 17 18  1  0
 18 19  2  0
M  END
