
     RDKit          3D

 19 21  0  0  0  0  0  0  0  0999 V2000
    0.1680   -1.3260    0.1000 O   0  0  0  0  0  0  0  0  0  0  0  0
    0.1080    0.0720   -0.4690 S   0  0  1  0  0  0  0  0  0  0  0  0
    0.2170    1.0260    0.6560 O   0  0  0  0  0  0  0  0  0  0  0  0
    1.5030    0.2080   -1.5870 C   0  0  0  0  0  0  0  0  0  0  0  0
    2.7710    0.0610   -0.8390 C   0  0  0  0  0  0  0  0  0  0  0  0
    3.4940    1.0670   -0.2610 C   0  0  0  0  0  0  0  0  0  0  0  0
    4.6280    0.5630    0.3560 C   0  0  0  0  0  0  0  0  0  0  0  0
    5.7660    0.8160    1.0810 C   0  0  0  0  0  0  0  0  0  0  0  0
    6.3780   -0.3570    1.2890 N   0  0  0  0  0  0  0  0  0  0  0  0
    5.6720   -1.3580    0.7220 C   0  0  0  0  0  0  0  0  0  0  0  0
    4.5510   -0.8150    0.1180 C   0  0  0  0  0  0  0  0  0  0  0  0
    3.4510   -1.0930   -0.5880 N   0  0  0  0  0  0  0  0  0  0  0  0
   -1.3540    0.2560   -1.4280 C   0  0  0  0  0  0  0  0  0  0  0  0
   -2.6120    0.1630   -0.6120 C   0  0  2  0  0  0  0  0  0  0  0  0
   -2.7070    1.2030    0.4570 C   0  0  0  0  0  0  0  0  0  0  0  0
   -4.1790    1.2820    0.8750 C   0  0  0  0  0  0  0  0  0  0  0  0
   -4.9440    0.0610    0.4430 C   0  0  0  0  0  0  0  0  0  0  0  0
   -4.1820   -1.2190    0.6350 C   0  0  0  0  0  0  0  0  0  0  0  0
   -2.8090   -1.1900    0.0230 C   0  0  0  0  0  0  0  0  0  0  0  0
  1  2  2  0
  2  3  2  0
  2  4  1  6
  2 13  1  0
  4  5  1  0
  5  6  2  0
  5 12  1  0
  6  7  1  0
  7  8  2  0
  7 11  1  0
  8  9  1  0
  9 10  1  0
 10 11  2  0
 11 12  1  0
 14 13  1  1
 14 15  1  0
 14 19  1  0
 15 16  1  0
 16 17  1  0
 17 18  1  0
 18 19  1  0
M  END
