
     RDKit          3D

 19 21  0  0  0  0  0  0  0  0999 V2000
    5.2890   -2.0340   -0.5490 N   0  0  0  0  0  0  0  0  0  0  0  0
    4.5220   -0.9100   -0.1420 C   0  0  0  0  0  0  0  0  0  0  0  0
    3.1280   -0.9250   -0.1620 C   0  0  0  0  0  0  0  0  0  0  0  0
    2.3420    0.1230    0.2160 C   0  0  0  0  0  0  0  0  0  0  0  0
    0.9400    0.1880    0.2250 N   0  0  0  0  0  0  0  0  0  0  0  0
    0.0760   -0.8410   -0.1660 C   0  0  0  0  0  0  0  0  0  0  0  0
    0.4860   -1.9450   -0.5730 O   0  0  0  0  0  0  0  0  0  0  0  0
   -1.3650   -0.6420   -0.1080 C   0  0  0  0  0  0  0  0  0  0  0  0
   -2.0940    0.4360    0.2860 C   0  0  0  0  0  0  0  0  0  0  0  0
   -3.4450    0.3440    0.2370 C   0  0  0  0  0  0  0  0  0  0  0  0
   -4.0150   -0.7940   -0.1930 C   0  0  0  0  0  0  0  0  0  0  0  0
   -2.6010   -1.8220   -0.5600 S   0  0  0  0  0  0  0  0  0  0  0  0
   -5.5030   -0.7460   -0.1950 C   0  0  0  0  0  0  0  0  0  0  0  0
   -5.8120    0.7170    0.0210 C   0  0  0  0  0  0  0  0  0  0  0  0
   -4.5730    1.3280    0.5910 C   0  0  0  0  0  0  0  0  0  0  0  0
    3.0320    1.2640    0.6440 C   0  0  0  0  0  0  0  0  0  0  0  0
    4.4020    1.3350    0.6840 C   0  0  0  0  0  0  0  0  0  0  0  0
    5.1340    0.2380    0.2870 C   0  0  0  0  0  0  0  0  0  0  0  0
    6.5150    0.2900    0.3210 O   0  0  0  0  0  0  0  0  0  0  0  0
  1  2  1  0
  2  3  2  0
  2 18  1  0
  3  4  1  0
  4  5  1  0
  4 16  2  0
  5  6  1  0
  6  7  2  0
  6  8  1  0
  8  9  2  0
  8 12  1  0
  9 10  1  0
 10 11  2  0
 10 15  1  0
 11 12  1  0
 11 13  1  0
 13 14  1  0
 14 15  1  0
 16 17  1  0
 17 18  2  0
 18 19  1  0
M  END
