
     RDKit          3D

 17 18  0  0  0  0  0  0  0  0999 V2000
   -3.1680   -0.8300   -1.3040 O   0  0  0  0  0  0  0  0  0  0  0  0
   -1.8480   -1.2700   -1.0420 C   0  0  0  0  0  0  0  0  0  0  0  0
   -1.3800   -0.5250    0.1650 C   0  0  1  0  0  0  0  0  0  0  0  0
   -2.3230   -0.9110    1.3150 C   0  0  0  0  0  0  0  0  0  0  0  0
   -3.6370   -0.6780    1.0120 O   0  0  0  0  0  0  0  0  0  0  0  0
   -0.1230   -0.8030    0.5910 O   0  0  0  0  0  0  0  0  0  0  0  0
    0.9070   -0.5970   -0.2650 C   0  0  2  0  0  0  0  0  0  0  0  0
    1.9600   -1.6630   -0.0060 C   0  0  0  0  0  0  0  0  0  0  0  0
    3.2450   -1.1100    0.5120 C   0  0  0  0  0  0  0  0  0  0  0  0
    2.9640   -0.2270    1.5460 O   0  0  0  0  0  0  0  0  0  0  0  0
    2.3570    0.9360    1.1030 C   0  0  0  0  0  0  0  0  0  0  0  0
    1.5600    0.7580   -0.1490 C   0  0  1  0  0  0  0  0  0  0  0  0
    2.4640    0.8490   -1.2340 O   0  0  0  0  0  0  0  0  0  0  0  0
    0.5980    1.8900   -0.2700 C   0  0  0  0  0  0  0  0  0  0  0  0
   -0.6290    1.5460   -0.9410 N   0  0  0  0  0  0  0  0  0  0  0  0
   -1.5260    0.9760    0.0090 C   0  0  2  0  0  0  0  0  0  0  0  0
   -1.2870    1.5220    1.2870 O   0  0  0  0  0  0  0  0  0  0  0  0
  1  2  1  0
  3  2  1  6
  3  4  1  0
  3  6  1  0
  3 16  1  0
  4  5  1  0
  6  7  1  0
  7  8  1  1
  7 12  1  0
  8  9  1  0
  9 10  1  0
 10 11  1  0
 11 12  1  0
 12 13  1  6
 12 14  1  0
 14 15  1  0
 15 16  1  0
 16 17  1  1
M  CHG  1  15   1
M  END
