
     RDKit          3D

 16 17  0  0  0  0  0  0  0  0999 V2000
   -0.9220    1.0030    1.0780 C   0  0  0  0  0  0  0  0  0  0  0  0
   -1.2320   -0.1990    0.2370 C   0  0  2  0  0  0  0  0  0  0  0  0
   -0.5010   -1.2830    0.5810 O   0  0  0  0  0  0  0  0  0  0  0  0
    0.6060   -1.5630   -0.1660 C   0  0  0  0  0  0  0  0  0  0  0  0
    1.3790   -0.3810   -0.6580 C   0  0  1  0  0  0  0  0  0  0  0  0
    2.7150   -0.7460   -0.7610 O   0  0  0  0  0  0  0  0  0  0  0  0
    3.6020   -0.0510   -0.0120 C   0  0  0  0  0  0  0  0  0  0  0  0
    3.3550   -0.1550    1.4750 C   0  0  0  0  0  0  0  0  0  0  0  0
    4.2870    0.5720    2.2070 O   0  0  0  0  0  0  0  0  0  0  0  0
    0.8550    0.1570   -1.9740 C   0  0  0  0  0  0  0  0  0  0  0  0
   -0.2760    0.9300   -1.6610 O   0  0  0  0  0  0  0  0  0  0  0  0
   -1.2230    0.0310   -1.2570 C   0  0  2  0  0  0  0  0  0  0  0  0
   -2.6370    0.5040   -1.1490 C   0  0  1  0  0  0  0  0  0  0  0  0
   -3.4390    0.0070   -2.1690 O   0  0  0  0  0  0  0  0  0  0  0  0
   -2.7410   -0.4230    0.0730 C   0  0  2  0  0  0  0  0  0  0  0  0
   -3.5440    0.2030    1.0830 N   0  0  0  0  0  0  0  0  0  0  0  0
  2  1  1  1
  2  3  1  0
  2 12  1  0
  2 15  1  0
  3  4  1  0
  4  5  1  0
  5  6  1  6
  5 10  1  0
  6  7  1  0
  7  8  1  0
  8  9  1  0
 10 11  1  0
 12 11  1  1
 12 13  1  0
 13 14  1  6
 13 15  1  0
 15 16  1  1
M  CHG  1  16   1
M  END
