
     RDKit          3D

 16 16  0  0  0  0  0  0  0  0999 V2000
    3.9700   -0.4170   -0.5950 O   0  0  0  0  0  0  0  0  0  0  0  0
    3.2360   -0.4730    0.5890 C   0  0  0  0  0  0  0  0  0  0  0  0
    1.7770   -0.6850    0.3100 C   0  0  2  0  0  0  0  0  0  0  0  0
    1.4950   -2.0440   -0.2190 C   0  0  0  0  0  0  0  0  0  0  0  0
    0.3410   -2.4620   -0.6670 C   0  0  0  0  0  0  0  0  0  0  0  0
   -0.8520   -1.6790   -0.7250 N   0  0  0  0  0  0  0  0  0  0  0  0
   -1.4920   -1.5380    0.5480 C   0  0  0  0  0  0  0  0  0  0  0  0
   -1.7960   -0.1250    0.9420 C   0  0  2  0  0  0  0  0  0  0  0  0
   -2.6270   -0.1990    2.0860 O   0  0  0  0  0  0  0  0  0  0  0  0
   -2.4350    0.6860   -0.1500 C   0  0  2  0  0  0  0  0  0  0  0  0
   -2.9240   -0.0870   -1.1950 O   0  0  0  0  0  0  0  0  0  0  0  0
   -1.5570    1.8240   -0.6290 C   0  0  0  0  0  0  0  0  0  0  0  0
   -0.6700    2.1220    0.3950 O   0  0  0  0  0  0  0  0  0  0  0  0
    0.5410    2.6070   -0.1230 C   0  0  0  0  0  0  0  0  0  0  0  0
    1.5830    1.5350    0.1370 C   0  0  0  0  0  0  0  0  0  0  0  0
    1.2270    0.3270   -0.4580 O   0  0  0  0  0  0  0  0  0  0  0  0
  1  2  1  0
  3  2  1  6
  3  4  1  0
  3 16  1  0
  4  5  2  0
  5  6  1  0
  6  7  1  0
  7  8  1  0
  8  9  1  1
  8 10  1  0
 10 11  1  6
 10 12  1  0
 12 13  1  0
 13 14  1  0
 14 15  1  0
 15 16  1  0
M  CHG  1   6   1
M  END
