
     RDKit          3D

 16 17  0  0  0  0  0  0  0  0999 V2000
   -2.6470   -0.2770   -1.5540 N   0  0  0  0  0  0  0  0  0  0  0  0
   -2.1190   -0.6780   -0.2890 C   0  0  2  0  0  0  0  0  0  0  0  0
   -3.2390   -0.4840    0.7430 C   0  0  0  0  0  0  0  0  0  0  0  0
   -3.1290    0.9800    0.9850 C   0  0  0  0  0  0  0  0  0  0  0  0
   -4.0980    1.7810    1.1220 O   0  0  0  0  0  0  0  0  0  0  0  0
   -1.7660    1.2320    1.0210 O   0  0  0  0  0  0  0  0  0  0  0  0
   -1.0630    0.2440    0.2580 C   0  0  2  0  0  0  0  0  0  0  0  0
   -0.3000    0.9750   -0.7990 C   0  0  0  0  0  0  0  0  0  0  0  0
    1.0790    0.4530   -1.0420 C   0  0  0  0  0  0  0  0  0  0  0  0
    1.9160    0.3060    0.1790 C   0  0  2  0  0  0  0  0  0  0  0  0
    2.8550   -0.6990   -0.0580 O   0  0  0  0  0  0  0  0  0  0  0  0
    4.1610   -0.2320   -0.0100 C   0  0  0  0  0  0  0  0  0  0  0  0
    4.3500    0.7560   -0.9750 O   0  0  0  0  0  0  0  0  0  0  0  0
    1.1380    0.0740    1.4420 C   0  0  0  0  0  0  0  0  0  0  0  0
   -0.2120   -0.5390    1.2000 C   0  0  2  0  0  0  0  0  0  0  0  0
   -0.0850   -1.8860    0.8440 O   0  0  0  0  0  0  0  0  0  0  0  0
  2  1  1  6
  2  3  1  0
  2  7  1  0
  3  4  1  0
  4  5  2  0
  4  6  1  0
  6  7  1  0
  7  8  1  6
  7 15  1  0
  8  9  1  0
  9 10  1  0
 10 11  1  6
 10 14  1  0
 11 12  1  0
 12 13  1  0
 14 15  1  0
 15 16  1  6
M  CHG  1   1   1
M  END
