
     RDKit          3D

 20 22  0  0  0  0  0  0  0  0999 V2000
   -3.0190   -3.1260    0.8570 O   0  0  0  0  0  0  0  0  0  0  0  0
   -2.9640   -1.8770    0.8260 C   0  0  0  0  0  0  0  0  0  0  0  0
   -3.4910   -1.1710    1.8830 O   0  0  0  0  0  0  0  0  0  0  0  0
   -2.3500   -1.2060   -0.3190 C   0  0  1  0  0  0  0  0  0  0  0  0
   -1.8610   -2.1400   -1.2650 O   0  0  0  0  0  0  0  0  0  0  0  0
   -3.2190   -0.2690   -1.0800 C   0  0  0  0  0  0  0  0  0  0  0  0
   -3.8600    0.8070   -0.2760 C   0  0  1  0  0  0  0  0  0  0  0  0
   -5.0160    0.3480    0.3900 O   0  0  0  0  0  0  0  0  0  0  0  0
   -2.8800    1.4720    0.6250 C   0  0  2  0  0  0  0  0  0  0  0  0
   -2.7090    2.8160    0.2130 O   0  0  0  0  0  0  0  0  0  0  0  0
   -1.5350    0.8500    0.6280 C   0  0  0  0  0  0  0  0  0  0  0  0
   -0.0650    1.5390    1.1640 S   0  0  0  0  0  0  0  0  0  0  0  0
    1.0060    0.1380    0.8140 C   0  0  0  0  0  0  0  0  0  0  0  0
    2.4570    0.0460    1.0420 C   0  0  0  0  0  0  0  0  0  0  0  0
    3.2170    0.5180   -0.1780 C   0  0  0  0  0  0  0  0  0  0  0  0
    4.7000    0.4070    0.0980 C   0  0  2  0  0  0  0  0  0  0  0  0
    5.6120    0.8380   -1.0150 C   0  0  0  0  0  0  0  0  0  0  0  0
    5.5220   -0.5960   -0.5970 C   0  0  0  0  0  0  0  0  0  0  0  0
    0.0990   -0.7460    0.3040 C   0  0  0  0  0  0  0  0  0  0  0  0
   -1.1850   -0.3740    0.2150 C   0  0  0  0  0  0  0  0  0  0  0  0
  1  2  2  0
  2  3  1  0
  2  4  1  0
  4  5  1  6
  4  6  1  0
  4 20  1  0
  6  7  1  0
  7  8  1  1
  7  9  1  0
  9 10  1  6
  9 11  1  0
 11 12  1  0
 11 20  2  0
 12 13  1  0
 13 14  1  0
 13 19  2  0
 14 15  1  0
 16 15  1  6
 16 17  1  0
 16 18  1  0
 17 18  1  0
 19 20  1  0
M  END
