
     RDKit          3D

 16 17  0  0  0  0  0  0  0  0999 V2000
   -2.7410   -2.2400    0.0860 N   0  0  0  0  0  0  0  0  0  0  0  0
   -2.3390   -0.8480    0.0140 C   0  0  0  0  0  0  0  0  0  0  0  0
   -0.8600   -0.7270    0.2650 C   0  0  1  0  0  0  0  0  0  0  0  0
   -0.1280   -1.5130   -0.7720 C   0  0  1  0  0  0  0  0  0  0  0  0
   -0.1490   -0.9100   -2.0240 O   0  0  0  0  0  0  0  0  0  0  0  0
    1.3500   -1.5910   -0.3670 C   0  0  0  0  0  0  0  0  0  0  0  0
    1.8520   -0.1450   -0.4660 C   0  0  2  0  0  0  0  0  0  0  0  0
    1.6710    0.3540   -1.7410 O   0  0  0  0  0  0  0  0  0  0  0  0
    3.3230   -0.1050   -0.1520 C   0  0  0  0  0  0  0  0  0  0  0  0
    3.5740   -0.5990    1.1300 O   0  0  0  0  0  0  0  0  0  0  0  0
    1.1260    0.6410    0.5750 C   0  0  0  0  0  0  0  0  0  0  0  0
   -0.3740    0.6770    0.3550 C   0  0  2  0  0  0  0  0  0  0  0  0
   -0.8860    1.2920    1.5230 O   0  0  0  0  0  0  0  0  0  0  0  0
   -0.8740    2.6510    1.2110 C   0  0  0  0  0  0  0  0  0  0  0  0
   -1.3850    2.5860   -0.2340 C   0  0  0  0  0  0  0  0  0  0  0  0
   -0.7380    1.4710   -0.7030 O   0  0  0  0  0  0  0  0  0  0  0  0
  1  2  1  0
  3  2  1  6
  3  4  1  0
  3 12  1  0
  4  5  1  6
  4  6  1  0
  6  7  1  0
  7  8  1  6
  7  9  1  0
  7 11  1  0
  9 10  1  0
 12 11  1  1
 12 13  1  0
 12 16  1  0
 13 14  1  0
 14 15  1  0
 15 16  1  0
M  CHG  1   1   1
M  END
