
     RDKit          3D

 33 33  0  0  0  0  0  0  0  0999 V2000
   -0.8860   -4.2410   -0.5650 C   0  0  0  0  0  0  0  0  0  0  0  0
   -1.5590   -3.0810   -0.3840 C   0  0  0  0  0  0  0  0  0  0  0  0
   -2.0150   -2.3810   -1.5430 C   0  0  0  0  0  0  0  0  0  0  0  0
   -1.8340   -2.7490   -2.7510 N   0  0  0  0  0  0  0  0  0  0  0  0
   -1.7870   -2.6930    0.9900 C   0  0  0  0  0  0  0  0  0  0  0  0
   -2.7960   -1.5280    1.1450 C   0  0  2  0  0  0  0  0  0  0  0  0
   -2.8930   -1.4200    2.6960 C   0  0  0  0  0  0  0  0  0  0  0  0
   -4.0410   -2.0460    0.6300 C   0  0  0  0  0  0  0  0  0  0  0  0
   -5.1100   -1.2010    0.6060 O   0  0  0  0  0  0  0  0  0  0  0  0
   -2.1510   -0.3020    0.7170 C   0  0  0  0  0  0  0  0  0  0  0  0
   -0.8360   -0.3550    0.2610 C   0  0  0  0  0  0  0  0  0  0  0  0
   -0.1220    0.7330   -0.2090 C   0  0  0  0  0  0  0  0  0  0  0  0
    1.2120    0.7180   -0.6520 N   0  0  0  0  0  0  0  0  0  0  0  0
    2.1820   -0.2340   -0.3030 C   0  0  0  0  0  0  0  0  0  0  0  0
    1.9910   -1.1880    0.4510 O   0  0  0  0  0  0  0  0  0  0  0  0
    3.5590   -0.0460   -0.9150 C   0  0  0  0  0  0  0  0  0  0  0  0
    4.5190   -1.0020   -0.3080 C   0  0  0  0  0  0  0  0  0  0  0  0
    5.9160   -0.8500   -0.9600 C   0  0  0  0  0  0  0  0  0  0  0  0
    6.3760    0.5390   -0.7280 C   0  0  0  0  0  0  0  0  0  0  0  0
    7.6800    0.8980   -1.3040 C   0  0  0  0  0  0  0  0  0  0  0  0
    8.8080    0.1710   -0.8820 N   0  0  0  0  0  0  0  0  0  0  0  0
    9.1680   -1.1580   -1.1260 C   0  0  0  0  0  0  0  0  0  0  0  0
   10.3630   -1.7350   -0.5730 N   0  0  0  0  0  0  0  0  0  0  0  0
    8.4540   -1.8920   -1.8380 O   0  0  0  0  0  0  0  0  0  0  0  0
   -0.7690    1.9470   -0.2190 C   0  0  0  0  0  0  0  0  0  0  0  0
   -2.0630    2.0960    0.2170 C   0  0  0  0  0  0  0  0  0  0  0  0
   -2.7360    0.9690    0.6820 C   0  0  0  0  0  0  0  0  0  0  0  0
   -3.9910    1.1200    1.2860 N   0  0  0  0  0  0  0  0  0  0  0  0
   -4.9420    2.1320    1.0310 C   0  0  2  0  0  0  0  0  0  0  0  0
   -5.5210    2.2270   -0.3390 C   0  0  0  0  0  0  0  0  0  0  0  0
   -4.6440    2.4620   -1.4940 C   0  0  0  0  0  0  0  0  0  0  0  0
   -4.7730    3.4250    1.7670 C   0  0  0  0  0  0  0  0  0  0  0  0
   -5.8320    4.3750    1.3930 N   0  0  0  0  0  0  0  0  0  0  0  0
  1  2  2  0
  2  3  1  0
  2  5  1  0
  3  4  2  0
  5  6  1  0
  6  7  1  1
  6  8  1  0
  6 10  1  0
  8  9  1  0
 10 11  2  0
 10 27  1  0
 11 12  1  0
 12 13  1  0
 12 25  2  0
 13 14  1  0
 14 15  2  0
 14 16  1  0
 16 17  1  0
 17 18  1  0
 18 19  1  0
 19 20  1  0
 20 21  1  0
 21 22  1  0
 22 23  1  0
 22 24  2  0
 25 26  1  0
 26 27  2  0
 27 28  1  0
 28 29  1  0
 29 30  1  6
 29 32  1  0
 30 31  1  0
 32 33  1  0
M  CHG  1  33   1
M  END
