
     RDKit          3D

 33 33  0  0  0  0  0  0  0  0999 V2000
    5.3150    1.7650    1.6080 C   0  0  0  0  0  0  0  0  0  0  0  0
    6.5400    1.3290    1.4040 C   0  0  0  0  0  0  0  0  0  0  0  0
    7.5310    1.5660    2.3980 N   0  0  0  0  0  0  0  0  0  0  0  0
    6.8510    0.5990    0.1730 C   0  0  0  0  0  0  0  0  0  0  0  0
    8.1010    0.1900   -0.0030 C   0  0  0  0  0  0  0  0  0  0  0  0
    8.4820   -0.5520   -1.2220 C   0  0  0  0  0  0  0  0  0  0  0  0
    5.8850    0.3230   -0.8180 N   0  0  0  0  0  0  0  0  0  0  0  0
    4.7670   -0.5640   -0.5010 C   0  0  0  0  0  0  0  0  0  0  0  0
    4.7900   -1.0050    0.6530 O   0  0  0  0  0  0  0  0  0  0  0  0
    3.7980   -0.8130   -1.5400 C   0  0  0  0  0  0  0  0  0  0  0  0
    2.4890   -1.4180   -1.3350 C   0  0  0  0  0  0  0  0  0  0  0  0
    1.4320   -0.7200   -0.5390 C   0  0  2  0  0  0  0  0  0  0  0  0
    1.8570   -0.5380    0.8720 C   0  0  0  0  0  0  0  0  0  0  0  0
    0.1290   -1.4240   -0.7080 C   0  0  2  0  0  0  0  0  0  0  0  0
    0.1190   -2.7700   -0.1970 N   0  0  0  0  0  0  0  0  0  0  0  0
   -0.7850   -2.8690    0.9410 C   0  0  0  0  0  0  0  0  0  0  0  0
   -0.1530   -3.7840    1.9790 C   0  0  0  0  0  0  0  0  0  0  0  0
    0.0450   -1.6370   -2.2350 C   0  0  0  0  0  0  0  0  0  0  0  0
    0.0560   -0.4690   -3.0420 N   0  0  0  0  0  0  0  0  0  0  0  0
   -0.0300   -2.7540   -2.7460 O   0  0  0  0  0  0  0  0  0  0  0  0
   -1.0840   -0.6600   -0.3700 C   0  0  0  0  0  0  0  0  0  0  0  0
   -1.1240    0.5140    0.3290 C   0  0  0  0  0  0  0  0  0  0  0  0
   -2.3340    1.1630    0.6230 C   0  0  0  0  0  0  0  0  0  0  0  0
   -3.5350    0.6350    0.2120 C   0  0  0  0  0  0  0  0  0  0  0  0
   -4.6760    1.3380    0.5440 O   0  0  0  0  0  0  0  0  0  0  0  0
   -5.9780    0.9430    0.2030 C   0  0  0  0  0  0  0  0  0  0  0  0
   -6.9560    1.9780    0.7510 C   0  0  1  0  0  0  0  0  0  0  0  0
   -6.5720    3.3740    0.3760 C   0  0  0  0  0  0  0  0  0  0  0  0
   -6.7110    3.6640   -1.0180 N   0  0  0  0  0  0  0  0  0  0  0  0
   -8.2610    1.6700    0.4590 O   0  0  0  0  0  0  0  0  0  0  0  0
   -9.0350    1.3780    1.5530 C   0  0  0  0  0  0  0  0  0  0  0  0
   -3.5120   -0.5290   -0.4850 C   0  0  0  0  0  0  0  0  0  0  0  0
   -2.3300   -1.1650   -0.7720 C   0  0  0  0  0  0  0  0  0  0  0  0
  1  2  2  0
  2  3  1  0
  2  4  1  0
  4  5  2  3
  4  7  1  0
  5  6  1  0
  7  8  1  0
  8  9  2  0
  8 10  1  0
 10 11  1  0
 11 12  1  0
 12 13  1  1
 12 14  1  0
 14 15  1  1
 14 18  1  0
 14 21  1  0
 15 16  1  0
 16 17  1  0
 18 19  1  0
 18 20  2  0
 21 22  2  0
 21 33  1  0
 22 23  1  0
 23 24  2  0
 24 25  1  0
 24 32  1  0
 25 26  1  0
 27 26  1  6
 27 28  1  0
 27 30  1  0
 28 29  1  0
 30 31  1  0
 32 33  2  0
M  CHG  2  15   1  29   1
M  END
