
     RDKit          3D

 33 33  0  0  0  0  0  0  0  0999 V2000
   -6.9210   -4.4970   -1.0490 C   0  0  0  0  0  0  0  0  0  0  0  0
   -6.3460   -3.0880   -0.7410 C   0  0  0  0  0  0  0  0  0  0  0  0
   -7.1930   -2.1390   -1.4910 C   0  0  0  0  0  0  0  0  0  0  0  0
   -6.8980   -0.7030   -1.4560 C   0  0  0  0  0  0  0  0  0  0  0  0
   -6.8820    0.0440   -0.1920 C   0  0  1  0  0  0  0  0  0  0  0  0
   -8.1820   -0.0080    0.5830 C   0  0  0  0  0  0  0  0  0  0  0  0
   -5.6690   -0.1220    0.6830 C   0  0  0  0  0  0  0  0  0  0  0  0
   -4.4700    0.3140   -0.0510 N   0  0  0  0  0  0  0  0  0  0  0  0
   -3.1870    0.2650    0.5180 C   0  0  0  0  0  0  0  0  0  0  0  0
   -3.0240   -0.1650    1.6980 O   0  0  0  0  0  0  0  0  0  0  0  0
   -2.0270    0.7300   -0.3020 C   0  0  0  0  0  0  0  0  0  0  0  0
   -0.7670    0.5460    0.5230 C   0  0  0  0  0  0  0  0  0  0  0  0
    0.4340    1.0140   -0.2820 C   0  0  0  0  0  0  0  0  0  0  0  0
    0.2360    1.4770   -1.4210 O   0  0  0  0  0  0  0  0  0  0  0  0
    1.7260    0.9240    0.2480 N   0  0  0  0  0  0  0  0  0  0  0  0
    2.9040    1.3240   -0.3840 C   0  0  0  0  0  0  0  0  0  0  0  0
    2.9480    2.1130   -1.4910 C   0  0  0  0  0  0  0  0  0  0  0  0
    4.1600    2.4790   -2.1040 C   0  0  0  0  0  0  0  0  0  0  0  0
    5.3410    2.0270   -1.5740 C   0  0  0  0  0  0  0  0  0  0  0  0
    6.6250    2.3860   -2.1860 C   0  0  0  0  0  0  0  0  0  0  0  0
    5.3440    1.2130   -0.4360 C   0  0  0  0  0  0  0  0  0  0  0  0
    6.5920    0.8180    0.0570 N   0  0  0  0  0  0  0  0  0  0  0  0
    6.6730   -0.1750    1.1470 C   0  0  1  0  0  0  0  0  0  0  0  0
    6.3560   -1.4850    0.5160 C   0  0  0  0  0  0  0  0  0  0  0  0
    7.3080   -1.8210   -0.5550 N   0  0  0  0  0  0  0  0  0  0  0  0
    7.9680   -0.0010    1.8220 C   0  0  0  0  0  0  0  0  0  0  0  0
    8.2400   -0.8700    2.9810 C   0  0  0  0  0  0  0  0  0  0  0  0
    8.3040   -2.2570    2.7270 N   0  0  0  0  0  0  0  0  0  0  0  0
    4.1490    0.8880    0.1200 C   0  0  0  0  0  0  0  0  0  0  0  0
   -6.7960    1.5200   -0.6030 C   0  0  0  0  0  0  0  0  0  0  0  0
   -6.7310    1.8350   -1.7940 O   0  0  0  0  0  0  0  0  0  0  0  0
   -6.7940    2.4900    0.4230 N   0  0  0  0  0  0  0  0  0  0  0  0
   -6.7150    3.9150    0.1180 C   0  0  0  0  0  0  0  0  0  0  0  0
  1  2  1  0
  2  3  1  0
  3  4  1  0
  4  5  1  0
  5  6  1  1
  5  7  1  0
  5 30  1  0
  7  8  1  0
  8  9  1  0
  9 10  2  0
  9 11  1  0
 11 12  1  0
 12 13  1  0
 13 14  2  0
 13 15  1  0
 15 16  1  0
 16 17  2  0
 16 29  1  0
 17 18  1  0
 18 19  2  0
 19 20  1  0
 19 21  1  0
 21 22  1  0
 21 29  2  0
 22 23  1  0
 23 24  1  6
 23 26  1  0
 24 25  1  0
 26 27  1  0
 27 28  1  0
 30 31  2  0
 30 32  1  0
 32 33  1  0
M  CHG  2  25   1  28   1
M  END
