
     RDKit          3D

 32 34  0  0  0  0  0  0  0  0999 V2000
    5.2050    0.5770    0.1850 C   0  0  0  0  0  0  0  0  0  0  0  0
    4.2150    1.0070   -0.6900 O   0  0  0  0  0  0  0  0  0  0  0  0
    3.2140    0.1090   -0.8280 N   0  0  0  0  0  0  0  0  0  0  0  0
    3.5890   -1.0320   -1.5260 N   0  0  0  0  0  0  0  0  0  0  0  0
    2.9630   -1.8440   -2.2620 C   0  0  0  0  0  0  0  0  0  0  0  0
    1.6020   -1.8780   -2.6500 N   0  0  0  0  0  0  0  0  0  0  0  0
    0.4340   -0.6200   -2.4100 S   0  0  0  0  0  0  0  0  0  0  0  0
    0.8420    0.6330   -1.2410 C   0  0  1  0  0  0  0  0  0  0  0  0
    1.1580    1.8270   -1.9300 O   0  0  0  0  0  0  0  0  0  0  0  0
    2.2040    1.5540   -2.7230 N   0  0  0  0  0  0  0  0  0  0  0  0
   -0.4250    0.9610   -0.4620 C   0  0  2  0  0  0  0  0  0  0  0  0
   -1.4050    1.0750   -1.4550 F   0  0  0  0  0  0  0  0  0  0  0  0
   -0.3380    2.1710    0.1610 F   0  0  0  0  0  0  0  0  0  0  0  0
   -0.8720   -0.1720    0.4550 C   0  0  2  0  0  0  0  0  0  0  0  0
    0.2040   -1.1370    0.7170 C   0  0  0  0  0  0  0  0  0  0  0  0
    1.6100   -0.6000    0.7940 C   0  0  0  0  0  0  0  0  0  0  0  0
    1.9370    0.3990   -0.2760 C   0  0  1  0  0  0  0  0  0  0  0  0
    2.0980    1.7400    0.4780 C   0  0  0  0  0  0  0  0  0  0  0  0
   -2.0450   -0.9190   -0.1610 C   0  0  0  0  0  0  0  0  0  0  0  0
   -2.0670   -2.2280   -0.1570 C   0  0  0  0  0  0  0  0  0  0  0  0
   -3.1360   -3.0230   -0.7180 C   0  0  0  0  0  0  0  0  0  0  0  0
   -3.0280   -4.2930   -0.6500 O   0  0  0  0  0  0  0  0  0  0  0  0
   -3.2210   -0.2580   -0.7380 C   0  0  0  0  0  0  0  0  0  0  0  0
   -3.7140    0.9110   -0.2920 C   0  0  0  0  0  0  0  0  0  0  0  0
   -4.8300    1.3290   -0.9980 O   0  0  0  0  0  0  0  0  0  0  0  0
   -3.2920    1.8190    0.7910 C   0  0  0  0  0  0  0  0  0  0  0  0
   -2.0380    1.7120    1.2640 O   0  0  0  0  0  0  0  0  0  0  0  0
   -1.5270    0.5080    1.6410 C   0  0  1  0  0  0  0  0  0  0  0  0
   -2.6730   -0.2660    2.0390 O   0  0  0  0  0  0  0  0  0  0  0  0
   -3.1930    0.3790    3.1050 N   0  0  0  0  0  0  0  0  0  0  0  0
   -0.6960    0.5700    2.7130 O   0  0  0  0  0  0  0  0  0  0  0  0
   -0.3140   -0.5190    3.2670 O   0  0  0  0  0  0  0  0  0  0  0  0
  1  2  1  0
  2  3  1  0
  3  4  1  0
  3 17  1  0
  4  5  2  0
  5  6  1  0
  6  7  1  0
  7  8  1  0
  8  9  1  6
  8 11  1  0
  8 17  1  0
  9 10  1  0
 11 12  1  6
 11 13  1  0
 11 14  1  0
 14 15  1  1
 14 19  1  0
 14 28  1  0
 15 16  1  0
 16 17  1  0
 17 18  1  1
 19 20  2  3
 19 23  1  0
 20 21  1  0
 21 22  2  0
 23 24  2  0
 24 25  1  0
 24 26  1  0
 26 27  1  0
 27 28  1  0
 28 29  1  1
 28 31  1  0
 29 30  1  0
 31 32  1  0
M  END
