
     RDKit          3D

 33 33  0  0  0  0  0  0  0  0999 V2000
   -9.6100    1.5240    0.2840 C   0  0  0  0  0  0  0  0  0  0  0  0
   -8.1500    1.7060    0.5360 C   0  0  0  0  0  0  0  0  0  0  0  0
   -7.2600    1.0500   -0.2220 C   0  0  0  0  0  0  0  0  0  0  0  0
   -7.6930    0.1560   -1.2900 C   0  0  0  0  0  0  0  0  0  0  0  0
   -6.6070   -0.6510   -1.8320 C   0  0  0  0  0  0  0  0  0  0  0  0
   -6.9760   -1.6960   -2.7680 N   0  0  0  0  0  0  0  0  0  0  0  0
   -5.3640   -0.4830   -1.5160 C   0  0  0  0  0  0  0  0  0  0  0  0
   -4.3620   -1.3890   -2.1640 C   0  0  0  0  0  0  0  0  0  0  0  0
   -4.8990    0.5290   -0.4970 C   0  0  0  0  0  0  0  0  0  0  0  0
   -3.5620    0.3830   -0.1360 N   0  0  0  0  0  0  0  0  0  0  0  0
   -2.7730    0.8450    0.9310 C   0  0  0  0  0  0  0  0  0  0  0  0
   -3.2500    1.4670    1.8630 O   0  0  0  0  0  0  0  0  0  0  0  0
   -1.3520    0.5930    0.9570 N   0  0  0  0  0  0  0  0  0  0  0  0
   -0.5790    1.0800    2.0650 C   0  0  0  0  0  0  0  0  0  0  0  0
    0.8880    0.7250    1.9320 C   0  0  0  0  0  0  0  0  0  0  0  0
    1.0910   -0.7710    1.8760 C   0  0  2  0  0  0  0  0  0  0  0  0
    0.5280   -1.3520    3.1940 C   0  0  0  0  0  0  0  0  0  0  0  0
    0.6330   -2.7580    3.1560 O   0  0  0  0  0  0  0  0  0  0  0  0
    2.4480   -1.1890    1.8080 N   0  0  0  0  0  0  0  0  0  0  0  0
    3.2120   -0.6380    0.6810 C   0  0  2  0  0  0  0  0  0  0  0  0
    3.8540   -1.6720   -0.1330 C   0  0  0  0  0  0  0  0  0  0  0  0
    2.8480   -2.6760   -0.7260 C   0  0  0  0  0  0  0  0  0  0  0  0
    1.9160   -1.9110   -1.6290 C   0  0  0  0  0  0  0  0  0  0  0  0
    4.1080    0.4480    1.1590 C   0  0  0  0  0  0  0  0  0  0  0  0
    4.9380    1.0330    0.1630 N   0  0  0  0  0  0  0  0  0  0  0  0
    6.0650    0.4990   -0.4710 C   0  0  0  0  0  0  0  0  0  0  0  0
    6.5260   -0.6020   -0.1500 O   0  0  0  0  0  0  0  0  0  0  0  0
    6.7630    1.1830   -1.5310 N   0  0  0  0  0  0  0  0  0  0  0  0
    7.9180    0.6090   -2.1600 C   0  0  0  0  0  0  0  0  0  0  0  0
    9.0530    0.3500   -1.2130 C   0  0  0  0  0  0  0  0  0  0  0  0
    9.4900    1.6480   -0.5730 C   0  0  0  0  0  0  0  0  0  0  0  0
   -5.8220    1.2390    0.0740 C   0  0  0  0  0  0  0  0  0  0  0  0
   -5.4750    2.4430    0.9060 C   0  0  0  0  0  0  0  0  0  0  0  0
  1  2  1  0
  2  3  2  3
  3  4  1  0
  3 32  1  0
  4  5  1  0
  5  6  1  0
  5  7  2  0
  7  8  1  0
  7  9  1  0
  9 10  1  0
  9 32  2  0
 10 11  1  0
 11 12  2  0
 11 13  1  0
 13 14  1  0
 14 15  1  0
 16 15  1  1
 16 17  1  0
 16 19  1  0
 17 18  1  0
 19 20  1  0
 20 21  1  1
 20 24  1  0
 21 22  1  0
 22 23  1  0
 24 25  1  0
 25 26  1  0
 26 27  2  0
 26 28  1  0
 28 29  1  0
 29 30  1  0
 30 31  1  0
 32 33  1  0
M  CHG  1  19   1
M  END
