
     RDKit          3D

 32 35  0  0  0  0  0  0  0  0999 V2000
    2.4540   -2.1920   -1.3100 C   0  0  0  0  0  0  0  0  0  0  0  0
    3.5730   -1.4380   -0.6570 C   0  0  0  0  0  0  0  0  0  0  0  0
    4.6700   -1.9660   -0.1130 N   0  0  0  0  0  0  0  0  0  0  0  0
    5.4400   -0.9540    0.3710 C   0  0  0  0  0  0  0  0  0  0  0  0
    6.6580   -0.9760    1.0170 C   0  0  0  0  0  0  0  0  0  0  0  0
    7.2530    0.1990    1.4220 C   0  0  0  0  0  0  0  0  0  0  0  0
    6.5850    1.3790    1.1550 C   0  0  0  0  0  0  0  0  0  0  0  0
    5.3700    1.4000    0.5090 C   0  0  0  0  0  0  0  0  0  0  0  0
    4.7740    0.2130    0.1030 C   0  0  0  0  0  0  0  0  0  0  0  0
    3.5950   -0.0570   -0.5430 C   0  0  0  0  0  0  0  0  0  0  0  0
    2.5380    0.8530   -1.0400 C   0  0  0  0  0  0  0  0  0  0  0  0
    1.3390    0.8150   -0.1610 C   0  0  0  0  0  0  0  0  0  0  0  0
    1.4360    1.2660    0.9990 O   0  0  0  0  0  0  0  0  0  0  0  0
    0.0940    0.2870   -0.5850 N   0  0  0  0  0  0  0  0  0  0  0  0
   -1.1030    0.2150    0.2050 C   0  0  1  0  0  0  0  0  0  0  0  0
   -2.2870    0.6720   -0.5390 C   0  0  0  0  0  0  0  0  0  0  0  0
   -2.1360    2.1170   -0.9780 C   0  0  0  0  0  0  0  0  0  0  0  0
   -2.4750    3.0770   -0.0570 C   0  0  0  0  0  0  0  0  0  0  0  0
   -2.3930    4.4280   -0.4070 C   0  0  0  0  0  0  0  0  0  0  0  0
   -1.9770    4.8070   -1.6620 C   0  0  0  0  0  0  0  0  0  0  0  0
   -1.6400    3.8370   -2.5770 C   0  0  0  0  0  0  0  0  0  0  0  0
   -1.7200    2.4780   -2.2340 C   0  0  0  0  0  0  0  0  0  0  0  0
   -1.2460   -1.0510    0.9300 C   0  0  0  0  0  0  0  0  0  0  0  0
   -0.1280   -1.4440    1.4780 O   0  0  0  0  0  0  0  0  0  0  0  0
   -2.3190   -1.8890    1.1430 N   0  0  0  0  0  0  0  0  0  0  0  0
   -2.2130   -2.9250    2.1940 C   0  0  0  0  0  0  0  0  0  0  0  0
   -3.5490   -1.8510    0.4690 C   0  0  0  0  0  0  0  0  0  0  0  0
   -3.6260   -2.2740   -0.8650 C   0  0  0  0  0  0  0  0  0  0  0  0
   -4.8050   -2.2730   -1.5230 C   0  0  0  0  0  0  0  0  0  0  0  0
   -5.9990   -1.8600   -0.9380 C   0  0  0  0  0  0  0  0  0  0  0  0
   -5.9510   -1.4420    0.3670 C   0  0  0  0  0  0  0  0  0  0  0  0
   -4.7570   -1.4420    1.0370 C   0  0  0  0  0  0  0  0  0  0  0  0
  1  2  1  0
  2  3  1  0
  2 10  2  0
  3  4  1  0
  4  5  2  0
  4  9  1  0
  5  6  1  0
  6  7  2  0
  7  8  1  0
  8  9  2  0
  9 10  1  0
 10 11  1  0
 11 12  1  0
 12 13  2  0
 12 14  1  0
 14 15  1  0
 15 16  1  6
 15 23  1  0
 16 17  1  0
 17 18  2  0
 17 22  1  0
 18 19  1  0
 19 20  2  0
 20 21  1  0
 21 22  2  0
 23 24  2  0
 23 25  1  0
 25 26  1  0
 25 27  1  0
 27 28  2  0
 27 32  1  0
 28 29  1  0
 29 30  2  0
 30 31  1  0
 31 32  2  0
M  END
