
     RDKit          3D

 30 31  0  0  0  0  0  0  0  0999 V2000
    3.9130    3.4650    0.5610 C   0  0  0  0  0  0  0  0  0  0  0  0
    3.9400    2.1140    0.1380 O   0  0  0  0  0  0  0  0  0  0  0  0
    2.7540    1.4250   -0.1860 C   0  0  0  0  0  0  0  0  0  0  0  0
    1.7220    2.0950   -0.0700 O   0  0  0  0  0  0  0  0  0  0  0  0
    2.7240    0.0450   -0.6230 C   0  0  0  0  0  0  0  0  0  0  0  0
    1.7070   -0.6810   -0.9460 C   0  0  0  0  0  0  0  0  0  0  0  0
    1.9110   -2.0380   -1.3500 N   0  0  0  0  0  0  0  0  0  0  0  0
    2.0490   -3.1780   -2.1770 C   0  0  0  0  0  0  0  0  0  0  0  0
    2.1540   -3.3560   -0.8800 C   0  0  0  0  0  0  0  0  0  0  0  0
    2.3620   -4.2580    0.1630 O   0  0  0  0  0  0  0  0  0  0  0  0
    1.9500   -5.5220    0.1180 O   0  0  0  0  0  0  0  0  0  0  0  0
    0.2810   -0.2590   -0.9510 C   0  0  2  0  0  0  0  0  0  0  0  0
    0.1960    0.9650   -1.7150 N   0  0  0  0  0  0  0  0  0  0  0  0
   -0.2590   -0.0220    0.3990 C   0  0  0  0  0  0  0  0  0  0  0  0
    0.4580   -0.2660    1.4280 N   0  0  0  0  0  0  0  0  0  0  0  0
   -1.6140    0.4690    0.5750 C   0  0  0  0  0  0  0  0  0  0  0  0
   -2.1970    0.6950    1.7540 C   0  0  0  0  0  0  0  0  0  0  0  0
   -3.5560    1.1830    1.5530 C   0  0  0  0  0  0  0  0  0  0  0  0
   -4.4850    1.3460    2.4880 C   0  0  0  0  0  0  0  0  0  0  0  0
   -4.1970    1.0420    3.8080 O   0  0  0  0  0  0  0  0  0  0  0  0
   -3.6560    1.4460    0.0950 C   0  0  2  0  0  0  0  0  0  0  0  0
   -4.9050    1.0490   -0.4750 N   0  0  0  0  0  0  0  0  0  0  0  0
   -2.5380    0.7880   -0.4440 O   0  0  0  0  0  0  0  0  0  0  0  0
   -0.6080   -1.2290   -1.6770 C   0  0  0  0  0  0  0  0  0  0  0  0
   -1.0330   -2.5380   -1.0920 C   0  0  0  0  0  0  0  0  0  0  0  0
   -1.0420   -1.0030   -2.7940 O   0  0  0  0  0  0  0  0  0  0  0  0
    4.1040   -0.5730   -0.6830 C   0  0  2  0  0  0  0  0  0  0  0  0
    4.6190   -0.8080    0.5480 F   0  0  0  0  0  0  0  0  0  0  0  0
    4.9600    0.3750   -1.2930 F   0  0  0  0  0  0  0  0  0  0  0  0
    4.0620   -1.6250   -1.5350 F   0  0  0  0  0  0  0  0  0  0  0  0
  1  2  1  0
  2  3  1  0
  3  4  2  0
  3  5  1  0
  5  6  2  3
  5 27  1  0
  6  7  1  0
  6 12  1  0
  7  8  1  0
  7  9  1  0
  8  9  2  0
  9 10  1  0
 10 11  1  0
 12 13  1  6
 12 14  1  0
 12 24  1  0
 14 15  2  0
 14 16  1  0
 16 17  2  0
 16 23  1  0
 17 18  1  0
 18 19  2  3
 18 21  1  0
 19 20  1  0
 21 22  1  6
 21 23  1  0
 24 25  1  0
 24 26  2  0
 27 28  1  1
 27 29  1  0
 27 30  1  0
M  CHG  1  11  -1
M  END
