
     RDKit          3D

 30 30  0  0  0  0  0  0  0  0999 V2000
   -2.3220   -3.1280   -0.5140 C   0  0  0  0  0  0  0  0  0  0  0  0
   -3.4190   -2.4480   -0.9440 O   0  0  0  0  0  0  0  0  0  0  0  0
   -4.1210   -1.7210   -0.0210 C   0  0  2  0  0  0  0  0  0  0  0  0
   -4.5790   -2.5870    1.1630 C   0  0  0  0  0  0  0  0  0  0  0  0
   -5.3930   -1.3860   -0.7110 N   0  0  0  0  0  0  0  0  0  0  0  0
   -3.4890   -0.5030    0.5200 C   0  0  1  0  0  0  0  0  0  0  0  0
   -2.2580   -0.6010    1.2000 N   0  0  0  0  0  0  0  0  0  0  0  0
   -1.1710    0.2030    0.6390 C   0  0  0  0  0  0  0  0  0  0  0  0
    0.0270   -0.3070    0.6360 C   0  0  0  0  0  0  0  0  0  0  0  0
    1.2610    0.2090    0.1710 N   0  0  0  0  0  0  0  0  0  0  0  0
    2.4690   -0.4870    0.2490 C   0  0  0  0  0  0  0  0  0  0  0  0
    2.4470   -1.6430    0.7680 O   0  0  0  0  0  0  0  0  0  0  0  0
    3.8090   -0.0330   -0.2100 C   0  0  0  0  0  0  0  0  0  0  0  0
    4.8040   -0.8550   -0.0350 C   0  0  0  0  0  0  0  0  0  0  0  0
    6.1700   -0.7710   -0.3340 C   0  0  0  0  0  0  0  0  0  0  0  0
    6.8180    0.2910   -0.9310 O   0  0  0  0  0  0  0  0  0  0  0  0
    6.9840   -1.8170   -0.0250 C   0  0  0  0  0  0  0  0  0  0  0  0
    6.4160   -2.9160    0.5730 O   0  0  0  0  0  0  0  0  0  0  0  0
    3.9830    1.2610   -0.8190 C   0  0  0  0  0  0  0  0  0  0  0  0
    2.9540    2.0410   -0.9690 N   0  0  0  0  0  0  0  0  0  0  0  0
    5.1650    1.7980   -1.2840 O   0  0  0  0  0  0  0  0  0  0  0  0
   -1.7390    1.4720    0.2060 C   0  0  1  0  0  0  0  0  0  0  0  0
   -2.3750    2.1930    1.4170 C   0  0  0  0  0  0  0  0  0  0  0  0
   -1.4190    2.4420    2.3850 O   0  0  0  0  0  0  0  0  0  0  0  0
   -1.0290    2.4580   -0.5850 C   0  0  1  0  0  0  0  0  0  0  0  0
   -2.0020    3.6420   -0.8780 C   0  0  0  0  0  0  0  0  0  0  0  0
   -0.0600    3.0920    0.2100 F   0  0  0  0  0  0  0  0  0  0  0  0
   -0.5240    2.1050   -1.7990 O   0  0  0  0  0  0  0  0  0  0  0  0
    0.0770    3.1850   -2.3180 F   0  0  0  0  0  0  0  0  0  0  0  0
   -3.2060    0.7980   -0.7150 S   0  0  0  0  0  0  0  0  0  0  0  0
  1  2  1  0
  2  3  1  0
  3  4  1  1
  3  5  1  0
  3  6  1  0
  6  7  1  6
  6 30  1  0
  7  8  1  0
  8  9  2  3
  8 22  1  0
  9 10  1  0
 10 11  1  0
 11 12  2  0
 11 13  1  0
 13 14  2  3
 13 19  1  0
 14 15  1  0
 15 16  1  0
 15 17  2  3
 17 18  1  0
 19 20  2  0
 19 21  1  0
 22 23  1  1
 22 25  1  0
 22 30  1  0
 23 24  1  0
 25 26  1  6
 25 27  1  0
 25 28  1  0
 28 29  1  0
M  CHG  1  24  -1
M  END
