
     RDKit          3D

 33 33  0  0  0  0  0  0  0  0999 V2000
   -0.1880    4.0620   -1.4410 C   0  0  0  0  0  0  0  0  0  0  0  0
   -0.7900    2.9510   -0.7900 O   0  0  0  0  0  0  0  0  0  0  0  0
   -0.6970    1.6570   -1.2670 C   0  0  0  0  0  0  0  0  0  0  0  0
   -0.0320    1.5530   -2.3290 O   0  0  0  0  0  0  0  0  0  0  0  0
   -1.3330    0.5550   -0.5600 C   0  0  2  0  0  0  0  0  0  0  0  0
   -2.2060   -0.1620   -1.5630 C   0  0  0  0  0  0  0  0  0  0  0  0
   -2.1740    1.1890    0.4670 N   0  0  0  0  0  0  0  0  0  0  0  0
   -2.7010    2.3320    0.0530 O   0  0  0  0  0  0  0  0  0  0  0  0
   -1.3870    1.2260    1.5600 N   0  0  0  0  0  0  0  0  0  0  0  0
   -1.5030    2.2510    2.5050 C   0  0  1  0  0  0  0  0  0  0  0  0
   -0.5330    2.0480    3.5020 F   0  0  0  0  0  0  0  0  0  0  0  0
   -1.3940    3.5420    2.0850 F   0  0  0  0  0  0  0  0  0  0  0  0
   -2.8090    2.1150    3.2500 C   0  0  0  0  0  0  0  0  0  0  0  0
   -3.0200    1.0160    4.0100 F   0  0  0  0  0  0  0  0  0  0  0  0
   -3.8120    3.1560    3.1410 S   0  0  0  0  0  0  0  0  0  0  0  0
   -0.2100    0.6950    1.3270 O   0  0  0  0  0  0  0  0  0  0  0  0
   -0.5040   -0.3040    0.2910 C   0  0  2  0  0  0  0  0  0  0  0  0
    0.8580   -0.6950   -0.1060 C   0  0  1  0  0  0  0  0  0  0  0  0
    0.9820   -1.5260   -1.3670 C   0  0  0  0  0  0  0  0  0  0  0  0
    1.7010    0.4670   -0.3380 O   0  0  0  0  0  0  0  0  0  0  0  0
    3.0600    0.3220   -0.6840 C   0  0  0  0  0  0  0  0  0  0  0  0
    3.7410   -0.6790   -0.2040 C   0  0  0  0  0  0  0  0  0  0  0  0
    5.1130   -0.9720   -0.4510 C   0  0  0  0  0  0  0  0  0  0  0  0
    5.9220   -0.3360   -1.1680 O   0  0  0  0  0  0  0  0  0  0  0  0
    3.5920    1.3530   -1.5770 C   0  0  0  0  0  0  0  0  0  0  0  0
    2.8950    1.3430   -2.7830 O   0  0  0  0  0  0  0  0  0  0  0  0
   -1.3240   -1.3090    1.0770 C   0  0  1  0  0  0  0  0  0  0  0  0
   -0.6500   -1.5490    2.4470 C   0  0  0  0  0  0  0  0  0  0  0  0
   -2.4970   -0.6300    1.5360 O   0  0  0  0  0  0  0  0  0  0  0  0
   -1.7790   -2.4900    0.5000 N   0  0  0  0  0  0  0  0  0  0  0  0
   -1.0350   -3.6480    0.2210 C   0  0  0  0  0  0  0  0  0  0  0  0
   -1.5910   -4.8050   -0.4060 N   0  0  0  0  0  0  0  0  0  0  0  0
    0.1640   -3.6860    0.5260 O   0  0  0  0  0  0  0  0  0  0  0  0
  1  2  1  0
  2  3  1  0
  3  4  2  0
  3  5  1  0
  5  6  1  6
  5  7  1  0
  5 17  1  0
  7  8  1  0
  7  9  1  0
  9 10  1  0
  9 16  1  0
 10 11  1  1
 10 12  1  0
 10 13  1  0
 13 14  1  0
 13 15  2  0
 17 16  1  1
 17 18  1  0
 17 27  1  0
 18 19  1  6
 18 20  1  0
 20 21  1  0
 21 22  2  3
 21 25  1  0
 22 23  1  0
 23 24  2  0
 25 26  1  0
 27 28  1  1
 27 29  1  0
 27 30  1  0
 30 31  1  0
 31 32  1  0
 31 33  2  0
M  CHG  1   8  -1
M  END
