
     RDKit          3D

 28 30  0  0  0  0  0  0  0  0999 V2000
    6.7700    1.1920    0.9930 C   0  0  0  0  0  0  0  0  0  0  0  0
    6.5530   -0.1120    0.8940 C   0  0  0  0  0  0  0  0  0  0  0  0
    5.3650   -0.7240    0.4160 N   0  0  0  0  0  0  0  0  0  0  0  0
    5.5670   -1.8750   -0.4740 C   0  0  0  0  0  0  0  0  0  0  0  0
    4.0400   -0.3080    0.6860 C   0  0  0  0  0  0  0  0  0  0  0  0
    3.5050    0.4900   -0.4880 C   0  0  0  0  0  0  0  0  0  0  0  0
    4.2430    0.7370   -1.6020 C   0  0  0  0  0  0  0  0  0  0  0  0
    3.6730    1.4440   -2.6510 C   0  0  0  0  0  0  0  0  0  0  0  0
    2.3740    1.8970   -2.5700 C   0  0  0  0  0  0  0  0  0  0  0  0
    1.6170    1.6360   -1.4140 C   0  0  0  0  0  0  0  0  0  0  0  0
    2.1770    0.9460   -0.4000 C   0  0  0  0  0  0  0  0  0  0  0  0
    1.4760    0.6560    0.8580 C   0  0  0  0  0  0  0  0  0  0  0  0
    0.4470   -0.2250    0.7720 N   0  0  0  0  0  0  0  0  0  0  0  0
   -0.3420   -0.4070    1.9370 C   0  0  0  0  0  0  0  0  0  0  0  0
   -1.7290   -0.9130    1.6020 C   0  0  0  0  0  0  0  0  0  0  0  0
   -2.2580   -0.3860    0.3370 N   0  0  0  0  0  0  0  0  0  0  0  0
   -3.6460   -0.2590    0.1990 C   0  0  0  0  0  0  0  0  0  0  0  0
   -4.3280   -1.2600   -0.4290 C   0  0  0  0  0  0  0  0  0  0  0  0
   -3.5570   -2.1940   -1.2790 C   0  0  0  0  0  0  0  0  0  0  0  0
   -5.7270   -1.2930   -0.4920 C   0  0  0  0  0  0  0  0  0  0  0  0
   -6.4090   -0.2380    0.1110 C   0  0  0  0  0  0  0  0  0  0  0  0
   -5.7330    0.7840    0.7330 C   0  0  0  0  0  0  0  0  0  0  0  0
   -6.5070    1.9890    1.1690 C   0  0  0  0  0  0  0  0  0  0  0  0
   -4.3540    0.7840    0.7880 C   0  0  0  0  0  0  0  0  0  0  0  0
   -3.6640    1.8720    1.5040 C   0  0  0  0  0  0  0  0  0  0  0  0
   -1.3150   -0.0740   -0.7200 C   0  0  0  0  0  0  0  0  0  0  0  0
   -0.0650   -0.9000   -0.3190 C   0  0  1  0  0  0  0  0  0  0  0  0
    0.7420   -1.3990   -1.4320 C   0  0  0  0  0  0  0  0  0  0  0  0
  1  2  2  0
  2  3  1  0
  3  4  1  0
  3  5  1  0
  5  6  1  0
  6  7  2  0
  6 11  1  0
  7  8  1  0
  8  9  2  0
  9 10  1  0
 10 11  2  0
 11 12  1  0
 12 13  1  0
 13 14  1  0
 13 27  1  0
 14 15  1  0
 15 16  1  0
 16 17  1  0
 16 26  1  0
 17 18  2  0
 17 24  1  0
 18 19  1  0
 18 20  1  0
 20 21  2  0
 21 22  1  0
 22 23  1  0
 22 24  2  0
 24 25  1  0
 26 27  1  0
 27 28  1  6
M  END
