
     RDKit          3D

 28 30  0  0  0  0  0  0  0  0999 V2000
   -6.1610    2.0680    1.1280 C   0  0  0  0  0  0  0  0  0  0  0  0
   -5.0470    1.7280    0.4700 C   0  0  0  0  0  0  0  0  0  0  0  0
   -4.2500    2.6250   -0.1990 C   0  0  0  0  0  0  0  0  0  0  0  0
   -4.4630    4.1120   -0.3210 C   0  0  0  0  0  0  0  0  0  0  0  0
   -3.2230    1.8920   -0.7320 C   0  0  0  0  0  0  0  0  0  0  0  0
   -2.1250    2.5020   -1.5440 C   0  0  0  0  0  0  0  0  0  0  0  0
   -3.3830    0.6000   -0.4050 N   0  0  0  0  0  0  0  0  0  0  0  0
   -2.4820   -0.4220   -0.8020 C   0  0  0  0  0  0  0  0  0  0  0  0
   -2.7740   -1.2990   -1.8240 C   0  0  0  0  0  0  0  0  0  0  0  0
   -1.9050   -2.2830   -2.2220 C   0  0  0  0  0  0  0  0  0  0  0  0
   -0.6610   -2.4280   -1.5830 C   0  0  0  0  0  0  0  0  0  0  0  0
    0.2530   -3.5240   -1.9930 C   0  0  0  0  0  0  0  0  0  0  0  0
    0.1900   -4.6560   -0.9980 C   0  0  0  0  0  0  0  0  0  0  0  0
   -0.3780   -1.5610   -0.5780 C   0  0  0  0  0  0  0  0  0  0  0  0
    0.9330   -1.6050    0.1250 C   0  0  0  0  0  0  0  0  0  0  0  0
    2.0220   -0.8710   -0.6090 C   0  0  0  0  0  0  0  0  0  0  0  0
    3.2350   -1.0190    0.2090 N   0  0  0  0  0  0  0  0  0  0  0  0
    4.3470   -0.3450   -0.4290 C   0  0  0  0  0  0  0  0  0  0  0  0
    4.2820    1.1480   -0.2670 C   0  0  0  0  0  0  0  0  0  0  0  0
    4.5100    1.5810    1.0870 N   0  0  0  0  0  0  0  0  0  0  0  0
    5.9490    1.8590    1.2200 C   0  0  0  0  0  0  0  0  0  0  0  0
    6.2620    2.3250    2.6100 C   0  0  0  0  0  0  0  0  0  0  0  0
    4.1580    0.4470    1.9470 C   0  0  0  0  0  0  0  0  0  0  0  0
    2.9630   -0.3030    1.4410 C   0  0  0  0  0  0  0  0  0  0  0  0
   -1.2680   -0.5540   -0.1700 C   0  0  0  0  0  0  0  0  0  0  0  0
   -4.4840    0.4590    0.3280 C   0  0  0  0  0  0  0  0  0  0  0  0
   -5.0270   -0.6190    0.8630 C   0  0  0  0  0  0  0  0  0  0  0  0
   -4.5230   -1.9920    0.7780 C   0  0  0  0  0  0  0  0  0  0  0  0
  1  2  2  0
  2  3  1  0
  2 26  1  0
  3  4  1  0
  3  5  2  0
  5  6  1  0
  5  7  1  0
  7  8  1  0
  7 26  1  0
  8  9  2  0
  8 25  1  0
  9 10  1  0
 10 11  2  0
 11 12  1  0
 11 14  1  0
 12 13  1  0
 14 15  1  0
 14 25  2  0
 15 16  1  0
 16 17  1  0
 17 18  1  0
 17 24  1  0
 18 19  1  0
 19 20  1  0
 20 21  1  0
 20 23  1  0
 21 22  1  0
 23 24  1  0
 26 27  2  3
 27 28  1  0
M  END
