
     RDKit          3D

 28 30  0  0  0  0  0  0  0  0999 V2000
   -5.9110   -0.9430   -0.3600 C   0  0  0  0  0  0  0  0  0  0  0  0
   -5.9060    0.3120   -0.8820 C   0  0  0  0  0  0  0  0  0  0  0  0
   -7.2210    0.7480   -1.4070 C   0  0  0  0  0  0  0  0  0  0  0  0
   -4.6840    1.0700   -0.8660 C   0  0  0  0  0  0  0  0  0  0  0  0
   -4.5460    2.2660   -1.3360 C   0  0  0  0  0  0  0  0  0  0  0  0
   -5.5400    3.1190   -1.9760 C   0  0  0  0  0  0  0  0  0  0  0  0
   -3.4950    0.4780   -0.2790 N   0  0  0  0  0  0  0  0  0  0  0  0
   -2.5410   -0.1720   -1.1270 C   0  0  0  0  0  0  0  0  0  0  0  0
   -1.4060   -0.8080   -0.4230 C   0  0  0  0  0  0  0  0  0  0  0  0
   -0.9730   -0.1930    0.8040 N   0  0  0  0  0  0  0  0  0  0  0  0
    0.2300   -0.5830    1.4600 C   0  0  0  0  0  0  0  0  0  0  0  0
    0.3280   -0.5410    2.8190 C   0  0  0  0  0  0  0  0  0  0  0  0
    1.4960   -0.8970    3.4640 C   0  0  0  0  0  0  0  0  0  0  0  0
    2.5860   -1.3050    2.7250 C   0  0  0  0  0  0  0  0  0  0  0  0
    3.8310   -1.6820    3.4400 C   0  0  0  0  0  0  0  0  0  0  0  0
    2.5410   -1.3670    1.3470 C   0  0  0  0  0  0  0  0  0  0  0  0
    3.6410   -1.7820    0.5450 N   0  0  0  0  0  0  0  0  0  0  0  0
    4.1270   -3.1340    0.6700 C   0  0  0  0  0  0  0  0  0  0  0  0
    4.2310   -0.8440   -0.3560 C   0  0  0  0  0  0  0  0  0  0  0  0
    5.2800   -1.1860   -1.1820 C   0  0  0  0  0  0  0  0  0  0  0  0
    5.8590   -0.2680   -2.0530 C   0  0  0  0  0  0  0  0  0  0  0  0
    5.4060    1.0320   -2.1280 C   0  0  0  0  0  0  0  0  0  0  0  0
    6.0070    2.0340   -3.0500 C   0  0  0  0  0  0  0  0  0  0  0  0
    4.3570    1.3720   -1.3010 C   0  0  0  0  0  0  0  0  0  0  0  0
    3.7810    0.4640   -0.4380 C   0  0  0  0  0  0  0  0  0  0  0  0
    1.3520   -1.0010    0.7340 C   0  0  0  0  0  0  0  0  0  0  0  0
   -1.7940    0.8680    1.3370 C   0  0  0  0  0  0  0  0  0  0  0  0
   -3.2730    0.5640    1.1350 C   0  0  0  0  0  0  0  0  0  0  0  0
  1  2  2  0
  2  3  1  0
  2  4  1  0
  4  5  2  3
  4  7  1  0
  5  6  1  0
  7  8  1  0
  7 28  1  0
  8  9  1  0
  9 10  1  0
 10 11  1  0
 10 27  1  0
 11 12  2  0
 11 26  1  0
 12 13  1  0
 13 14  2  0
 14 15  1  0
 14 16  1  0
 16 17  1  0
 16 26  2  0
 17 18  1  0
 17 19  1  0
 19 20  2  0
 19 25  1  0
 20 21  1  0
 21 22  2  0
 22 23  1  0
 22 24  1  0
 24 25  2  0
 27 28  1  0
M  END
