
     RDKit          3D

 27 29  0  0  0  0  0  0  0  0999 V2000
   -6.9920   -3.1660    0.7160 C   0  0  0  0  0  0  0  0  0  0  0  0
   -6.6020   -1.7140    0.7700 C   0  0  0  0  0  0  0  0  0  0  0  0
   -7.5730   -0.7660    1.0010 C   0  0  0  0  0  0  0  0  0  0  0  0
   -7.2220    0.5630    1.0550 C   0  0  0  0  0  0  0  0  0  0  0  0
   -8.3100    1.5670    1.3090 C   0  0  0  0  0  0  0  0  0  0  0  0
   -5.9120    0.9620    0.8790 C   0  0  0  0  0  0  0  0  0  0  0  0
   -5.6170    2.4210    0.9530 C   0  0  0  0  0  0  0  0  0  0  0  0
   -4.8990    0.0320    0.6420 C   0  0  0  0  0  0  0  0  0  0  0  0
   -3.5960    0.3570    0.4620 N   0  0  0  0  0  0  0  0  0  0  0  0
   -2.6760    1.0930    0.6920 C   0  0  0  0  0  0  0  0  0  0  0  0
   -1.3330    0.8570    0.0990 C   0  0  0  0  0  0  0  0  0  0  0  0
   -0.2630    1.6570    0.3880 C   0  0  0  0  0  0  0  0  0  0  0  0
    1.0010    1.4560   -0.1510 C   0  0  0  0  0  0  0  0  0  0  0  0
    1.2050    0.3970   -1.0300 C   0  0  0  0  0  0  0  0  0  0  0  0
    2.5370    0.1620   -1.6140 C   0  0  0  0  0  0  0  0  0  0  0  0
    3.6390    0.5160   -0.7690 N   0  0  0  0  0  0  0  0  0  0  0  0
    3.6890   -0.1950    0.4590 C   0  0  0  0  0  0  0  0  0  0  0  0
    5.0520   -0.1330    1.0940 C   0  0  0  0  0  0  0  0  0  0  0  0
    6.1140   -0.5740    0.2500 N   0  0  0  0  0  0  0  0  0  0  0  0
    7.3850    0.0190    0.5880 C   0  0  0  0  0  0  0  0  0  0  0  0
    5.8290   -0.5640   -1.1590 C   0  0  1  0  0  0  0  0  0  0  0  0
    7.1400   -0.2370   -1.8670 C   0  0  0  0  0  0  0  0  0  0  0  0
    5.4240   -1.9480   -1.6070 C   0  0  0  0  0  0  0  0  0  0  0  0
    4.8510    0.4910   -1.5370 C   0  0  0  0  0  0  0  0  0  0  0  0
    0.1300   -0.4020   -1.3200 C   0  0  0  0  0  0  0  0  0  0  0  0
   -1.1340   -0.1950   -0.7740 C   0  0  0  0  0  0  0  0  0  0  0  0
   -5.3180   -1.3080    0.5990 C   0  0  0  0  0  0  0  0  0  0  0  0
  1  2  1  0
  2  3  2  0
  2 27  1  0
  3  4  1  0
  4  5  1  0
  4  6  2  0
  6  7  1  0
  6  8  1  0
  8  9  1  0
  8 27  2  0
  9 10  2  3
 10 11  1  0
 11 12  2  0
 11 26  1  0
 12 13  1  0
 13 14  2  0
 14 15  1  0
 14 25  1  0
 15 16  1  0
 16 17  1  0
 16 24  1  0
 17 18  1  0
 18 19  1  0
 19 20  1  0
 19 21  1  0
 21 22  1  6
 21 23  1  0
 21 24  1  0
 25 26  2  0
M  END
