
     RDKit          3D

 28 30  0  0  0  0  0  0  0  0999 V2000
   -5.0070    4.3640   -2.7880 C   0  0  0  0  0  0  0  0  0  0  0  0
   -4.0810    3.2670   -2.3610 C   0  0  0  0  0  0  0  0  0  0  0  0
   -4.1610    2.0910   -2.8900 C   0  0  0  0  0  0  0  0  0  0  0  0
   -3.0880    1.1570   -2.3360 C   0  0  0  0  0  0  0  0  0  0  0  0
   -1.7290    1.5060   -2.6380 C   0  0  0  0  0  0  0  0  0  0  0  0
   -0.7250    1.0640   -1.8770 C   0  0  0  0  0  0  0  0  0  0  0  0
   -0.9280    0.2190   -0.7360 C   0  0  0  0  0  0  0  0  0  0  0  0
    0.2500    0.1420    0.1650 C   0  0  0  0  0  0  0  0  0  0  0  0
    1.4740    0.3360   -0.4400 N   0  0  0  0  0  0  0  0  0  0  0  0
    1.9490   -0.4860   -1.4940 C   0  0  0  0  0  0  0  0  0  0  0  0
    2.8250   -1.6330   -1.0330 C   0  0  0  0  0  0  0  0  0  0  0  0
    3.4890   -1.4900    0.2680 C   0  0  0  0  0  0  0  0  0  0  0  0
    3.3020   -0.2610    1.0750 N   0  0  0  0  0  0  0  0  0  0  0  0
    4.1920   -0.4580    2.2400 C   0  0  0  0  0  0  0  0  0  0  0  0
    3.7430   -1.6470    3.0030 C   0  0  0  0  0  0  0  0  0  0  0  0
    4.6970   -1.5560    4.3810 C   0  0  0  0  0  0  0  0  0  0  0  0
    5.1510   -1.5110    5.0340 N   0  0  0  0  0  0  0  0  0  0  0  0
    3.6960    0.9220    0.3700 C   0  0  0  0  0  0  0  0  0  0  0  0
    2.3030    1.4320   -0.1800 C   0  0  0  0  0  0  0  0  0  0  0  0
   -2.2310   -0.1260   -0.4600 C   0  0  0  0  0  0  0  0  0  0  0  0
   -2.4630   -0.9340    0.5850 C   0  0  0  0  0  0  0  0  0  0  0  0
   -1.4690   -1.6190    1.3770 C   0  0  0  0  0  0  0  0  0  0  0  0
   -0.3860   -2.2210    1.3120 C   0  0  0  0  0  0  0  0  0  0  0  0
    0.1030   -2.7390    2.7160 C   0  0  0  0  0  0  0  0  0  0  0  0
   -3.7900   -1.3200    0.8920 C   0  0  0  0  0  0  0  0  0  0  0  0
   -4.8520   -0.8750    0.1100 C   0  0  0  0  0  0  0  0  0  0  0  0
   -4.5980   -0.0410   -0.9600 C   0  0  0  0  0  0  0  0  0  0  0  0
   -3.3050    0.3560   -1.2800 C   0  0  0  0  0  0  0  0  0  0  0  0
  1  2  1  0
  2  3  2  3
  3  4  1  0
  4  5  2  0
  4 28  1  0
  5  6  1  0
  6  7  2  0
  7  8  1  0
  7 20  1  0
  8  9  1  0
  9 10  1  0
  9 19  1  0
 10 11  1  0
 11 12  1  0
 12 13  1  0
 13 14  1  0
 13 18  1  0
 14 15  1  0
 15 16  1  0
 16 17  3  0
 18 19  1  0
 20 21  2  0
 20 28  1  0
 21 22  1  0
 21 25  1  0
 22 23  2  3
 23 24  1  0
 25 26  2  0
 26 27  1  0
 27 28  2  0
M  END
