
     RDKit          3D

 16 16  0  0  0  0  0  0  0  0999 V2000
   -4.6390    0.3860   -0.9910 C   0  0  0  0  0  0  0  0  0  0  0  0
   -4.2220   -0.6920   -0.2800 N   0  0  0  0  0  0  0  0  0  0  0  0
   -3.4110   -1.3880    0.2790 C   0  0  0  0  0  0  0  0  0  0  0  0
   -1.9880   -1.3170    0.5020 C   0  0  0  0  0  0  0  0  0  0  0  0
   -1.2270   -0.3730    0.0670 C   0  0  0  0  0  0  0  0  0  0  0  0
   -1.6830    0.7260   -0.6960 O   0  0  0  0  0  0  0  0  0  0  0  0
   -1.5060    0.6230   -2.1000 C   0  0  0  0  0  0  0  0  0  0  0  0
    0.2340   -0.3350    0.3210 C   0  0  0  0  0  0  0  0  0  0  0  0
    0.9110   -1.3420    0.9550 C   0  0  0  0  0  0  0  0  0  0  0  0
    2.2850   -1.2960    1.2180 C   0  0  0  0  0  0  0  0  0  0  0  0
    2.9270   -2.3380    1.8620 O   0  0  0  0  0  0  0  0  0  0  0  0
    2.9970   -0.1910    0.8250 C   0  0  0  0  0  0  0  0  0  0  0  0
    2.3630    0.8510    0.1840 C   0  0  0  0  0  0  0  0  0  0  0  0
    3.0730    1.9720   -0.2180 O   0  0  0  0  0  0  0  0  0  0  0  0
    4.4630    2.0340    0.0400 C   0  0  0  0  0  0  0  0  0  0  0  0
    0.9940    0.7580   -0.0550 C   0  0  0  0  0  0  0  0  0  0  0  0
  1  2  1  0
  2  3  2  3
  3  4  1  0
  4  5  2  3
  5  6  1  0
  5  8  1  0
  6  7  1  0
  8  9  2  0
  8 16  1  0
  9 10  1  0
 10 11  1  0
 10 12  2  0
 12 13  1  0
 13 14  1  0
 13 16  2  0
 14 15  1  0
M  END
