
     RDKit          3D

 25 26  0  0  0  0  0  0  0  0999 V2000
   -3.8580   -2.8420   -1.6230 N   0  0  0  0  0  0  0  0  0  0  0  0
   -4.5600   -2.1130   -0.8510 C   0  0  0  0  0  0  0  0  0  0  0  0
   -5.9440   -2.3180   -0.8690 O   0  0  0  0  0  0  0  0  0  0  0  0
   -3.9220   -1.1030    0.0160 C   0  0  0  0  0  0  0  0  0  0  0  0
   -2.4350   -1.1250   -0.1900 C   0  0  0  0  0  0  0  0  0  0  0  0
   -1.7980   -0.0670    0.7220 C   0  0  2  0  0  0  0  0  0  0  0  0
   -2.3590    1.2460    0.3470 C   0  0  0  0  0  0  0  0  0  0  0  0
   -1.4230    2.4020    0.3980 C   0  0  2  0  0  0  0  0  0  0  0  0
   -2.0500    3.5430   -0.3880 C   0  0  0  0  0  0  0  0  0  0  0  0
   -1.2510    4.6730   -0.4010 O   0  0  0  0  0  0  0  0  0  0  0  0
   -0.0650    2.1660   -0.1300 C   0  0  0  0  0  0  0  0  0  0  0  0
    0.3560    0.7580   -0.2820 C   0  0  1  0  0  0  0  0  0  0  0  0
    1.8500    0.6600    0.0130 C   0  0  0  0  0  0  0  0  0  0  0  0
    2.4430    1.6810    0.3200 O   0  0  0  0  0  0  0  0  0  0  0  0
    2.5130   -0.5600   -0.0670 N   0  0  0  0  0  0  0  0  0  0  0  0
    3.8420   -0.9140    0.1410 N   0  0  0  0  0  0  0  0  0  0  0  0
    4.1410   -2.2570    0.0410 C   0  0  0  0  0  0  0  0  0  0  0  0
    3.1900   -3.0550   -0.2200 O   0  0  0  0  0  0  0  0  0  0  0  0
    5.3720   -2.7240    0.2070 N   0  0  0  0  0  0  0  0  0  0  0  0
    6.3750   -1.8800    0.4830 C   0  0  0  0  0  0  0  0  0  0  0  0
    7.5700   -2.2860    0.6500 O   0  0  0  0  0  0  0  0  0  0  0  0
    6.1340   -0.5730    0.5890 N   0  0  0  0  0  0  0  0  0  0  0  0
    4.8650   -0.1150    0.4150 C   0  0  0  0  0  0  0  0  0  0  0  0
    4.7210    1.5080    0.5540 S   0  0  0  0  0  0  0  0  0  0  0  0
   -0.3220   -0.1950    0.6590 C   0  0  0  0  0  0  0  0  0  0  0  0
  1  2  2  0
  2  3  1  0
  2  4  1  0
  4  5  1  0
  6  5  1  6
  6  7  1  0
  6 25  1  0
  7  8  1  0
  8  9  1  6
  8 11  1  0
  9 10  1  0
 11 12  1  0
 12 13  1  1
 12 25  1  0
 13 14  2  0
 13 15  1  0
 15 16  1  0
 16 17  1  0
 16 23  1  0
 17 18  2  0
 17 19  1  0
 19 20  1  0
 20 21  2  0
 20 22  1  0
 22 23  1  0
 23 24  2  0
M  END
