
     RDKit          3D

 16 16  0  0  0  0  0  0  0  0999 V2000
    3.5650    0.0590   -0.5210 C   0  0  0  0  0  0  0  0  0  0  0  0
    2.5980   -0.9260    0.0040 O   0  0  0  0  0  0  0  0  0  0  0  0
    1.2750   -0.3660   -0.0420 C   0  0  0  0  0  0  0  0  0  0  0  0
    1.0320    0.8700   -0.6430 C   0  0  0  0  0  0  0  0  0  0  0  0
   -0.2160    1.4870   -0.7550 C   0  0  0  0  0  0  0  0  0  0  0  0
   -0.2610    2.7090   -1.4060 O   0  0  0  0  0  0  0  0  0  0  0  0
    0.9470    3.2610   -1.9430 C   0  0  0  0  0  0  0  0  0  0  0  0
   -1.2980    0.8220   -0.2200 C   0  0  0  0  0  0  0  0  0  0  0  0
   -2.5170    1.3980   -0.3010 O   0  0  0  0  0  0  0  0  0  0  0  0
   -3.6760    1.0390    0.3690 C   0  0  0  0  0  0  0  0  0  0  0  0
   -1.0640   -0.4220    0.3920 C   0  0  0  0  0  0  0  0  0  0  0  0
    0.1650   -0.9970    0.4740 C   0  0  0  0  0  0  0  0  0  0  0  0
    0.3430   -2.2850    1.0660 N   0  0  0  0  0  0  0  0  0  0  0  0
   -0.8620   -3.0170    1.5060 C   0  0  0  0  0  0  0  0  0  0  0  0
   -0.6740   -4.1950    2.2360 C   0  0  0  0  0  0  0  0  0  0  0  0
   -0.5150   -5.2480    2.9020 N   0  0  0  0  0  0  0  0  0  0  0  0
  1  2  1  0
  2  3  1  0
  3  4  2  0
  3 12  1  0
  4  5  1  0
  5  6  1  0
  5  8  2  0
  6  7  1  0
  8  9  1  0
  8 11  1  0
  9 10  1  0
 11 12  2  0
 12 13  1  0
 13 14  1  0
 14 15  1  0
 15 16  3  0
M  END
