
     RDKit          3D

 16 16  0  0  0  0  0  0  0  0999 V2000
    4.5110   -2.2450    1.1530 C   0  0  0  0  0  0  0  0  0  0  0  0
    3.7250   -1.3810    0.5350 C   0  0  0  0  0  0  0  0  0  0  0  0
    2.3690   -1.6430    0.0950 C   0  0  0  0  0  0  0  0  0  0  0  0
    1.8230   -0.6050   -0.4920 C   0  0  0  0  0  0  0  0  0  0  0  0
    0.5020   -0.5480   -1.0320 N   0  0  0  0  0  0  0  0  0  0  0  0
   -0.4140    0.4090   -0.5160 C   0  0  0  0  0  0  0  0  0  0  0  0
   -0.0100    1.1670    0.4030 O   0  0  0  0  0  0  0  0  0  0  0  0
   -1.8230    0.5040   -1.0590 C   0  0  0  0  0  0  0  0  0  0  0  0
   -2.5640    1.5820   -0.3470 C   0  0  0  0  0  0  0  0  0  0  0  0
   -3.8370    1.7060   -0.8200 O   0  0  0  0  0  0  0  0  0  0  0  0
   -4.6040    0.5730   -0.6810 C   0  0  0  0  0  0  0  0  0  0  0  0
   -4.6900    0.2000    0.7930 C   0  0  0  0  0  0  0  0  0  0  0  0
    2.7940    0.4720   -0.4950 C   0  0  0  0  0  0  0  0  0  0  0  0
    2.6710    1.6430   -0.9630 O   0  0  0  0  0  0  0  0  0  0  0  0
    4.0000   -0.0090    0.1520 C   0  0  0  0  0  0  0  0  0  0  0  0
    5.1400    0.6280    0.3720 C   0  0  0  0  0  0  0  0  0  0  0  0
  1  2  2  0
  2  3  1  0
  2 15  1  0
  3  4  2  0
  4  5  1  0
  4 13  1  0
  5  6  1  0
  6  7  2  0
  6  8  1  0
  8  9  1  0
  9 10  1  0
 10 11  1  0
 11 12  1  0
 13 14  2  0
 13 15  1  0
 15 16  2  0
M  END
