
     RDKit          3D

 16 16  0  0  0  0  0  0  0  0999 V2000
    5.1840    1.3550    0.1390 C   0  0  0  0  0  0  0  0  0  0  0  0
    4.9920   -0.0350   -0.3770 C   0  0  0  0  0  0  0  0  0  0  0  0
    3.7650   -0.6160    0.0650 O   0  0  0  0  0  0  0  0  0  0  0  0
    2.5460   -0.0530   -0.2350 C   0  0  0  0  0  0  0  0  0  0  0  0
    2.5360    0.9980   -0.9170 O   0  0  0  0  0  0  0  0  0  0  0  0
    1.2940   -0.5800    0.1730 N   0  0  0  0  0  0  0  0  0  0  0  0
    0.0770    0.0650   -0.1810 C   0  0  0  0  0  0  0  0  0  0  0  0
    0.1350    1.1020   -0.8560 O   0  0  0  0  0  0  0  0  0  0  0  0
   -1.1710   -0.5170    0.2630 C   0  0  2  0  0  0  0  0  0  0  0  0
   -1.1730   -0.5330    1.7990 C   0  0  0  0  0  0  0  0  0  0  0  0
   -1.1290   -1.9990   -0.1280 C   0  0  0  0  0  0  0  0  0  0  0  0
   -2.4140    0.1110   -0.1830 C   0  0  0  0  0  0  0  0  0  0  0  0
   -2.6510    1.1520   -0.9540 C   0  0  0  0  0  0  0  0  0  0  0  0
   -4.1200    1.3590   -1.0840 C   0  0  0  0  0  0  0  0  0  0  0  0
   -4.6790    0.2720   -0.2660 C   0  0  0  0  0  0  0  0  0  0  0  0
   -3.7160   -0.4520    0.2580 C   0  0  0  0  0  0  0  0  0  0  0  0
  1  2  1  0
  2  3  1  0
  3  4  1  0
  4  5  2  0
  4  6  1  0
  6  7  1  0
  7  8  2  0
  7  9  1  0
  9 10  1  1
  9 11  1  0
  9 12  1  0
 12 13  2  0
 12 16  1  0
 13 14  1  0
 14 15  1  0
 15 16  2  0
M  END
