
     RDKit          3D

 16 16  0  0  0  0  0  0  0  0999 V2000
    3.8180   -1.1340    1.9530 C   0  0  0  0  0  0  0  0  0  0  0  0
    3.4630    0.3070    2.2450 C   0  0  0  0  0  0  0  0  0  0  0  0
    2.6060    0.7770    1.2380 O   0  0  0  0  0  0  0  0  0  0  0  0
    1.3560    0.1780    0.9860 C   0  0  0  0  0  0  0  0  0  0  0  0
    1.0750   -0.7850    1.7150 O   0  0  0  0  0  0  0  0  0  0  0  0
    0.5060    0.7010   -0.0680 C   0  0  0  0  0  0  0  0  0  0  0  0
    0.8510    1.7420   -0.8300 C   0  0  0  0  0  0  0  0  0  0  0  0
    2.1380    2.5200   -0.7240 C   0  0  0  0  0  0  0  0  0  0  0  0
   -0.1660    1.9990   -1.7420 N   0  0  0  0  0  0  0  0  0  0  0  0
   -1.2460    1.0580   -1.5590 C   0  0  0  0  0  0  0  0  0  0  0  0
   -2.2950    1.0590   -2.2470 O   0  0  0  0  0  0  0  0  0  0  0  0
   -0.8310    0.1960   -0.4680 C   0  0  0  0  0  0  0  0  0  0  0  0
   -1.4650   -0.8110    0.1020 C   0  0  0  0  0  0  0  0  0  0  0  0
   -2.7240   -1.4480   -0.1190 C   0  0  2  0  0  0  0  0  0  0  0  0
   -3.5170   -1.2800   -1.3390 C   0  0  0  0  0  0  0  0  0  0  0  0
   -3.5580   -1.2740    1.1590 C   0  0  0  0  0  0  0  0  0  0  0  0
  1  2  1  0
  2  3  1  0
  3  4  1  0
  4  5  2  0
  4  6  1  0
  6  7  2  0
  6 12  1  0
  7  8  1  0
  7  9  1  0
  9 10  1  0
 10 11  2  0
 10 12  1  0
 12 13  2  3
 13 14  1  0
 14 15  1  6
 14 16  1  0
M  END
