
     RDKit          3D

 16 16  0  0  0  0  0  0  0  0999 V2000
   -5.1050   -0.6810    1.6420 C   0  0  0  0  0  0  0  0  0  0  0  0
   -3.9170   -0.4600    0.6910 C   0  0  0  0  0  0  0  0  0  0  0  0
   -3.8640    0.9380    0.2130 C   0  0  0  0  0  0  0  0  0  0  0  0
   -2.7830    1.2680   -0.7200 C   0  0  0  0  0  0  0  0  0  0  0  0
   -1.3760    1.2610   -0.3600 C   0  0  0  0  0  0  0  0  0  0  0  0
   -0.7770    0.0050    0.1500 C   0  0  0  0  0  0  0  0  0  0  0  0
    0.6800    0.1660    0.3460 N   0  0  0  0  0  0  0  0  0  0  0  0
    1.1840   -1.1020    0.8430 C   0  0  0  0  0  0  0  0  0  0  0  0
    2.6300   -1.0040    0.5170 C   0  0  0  0  0  0  0  0  0  0  0  0
    3.6980   -1.5840    1.1580 O   0  0  0  0  0  0  0  0  0  0  0  0
    2.7270   -0.2260   -0.5480 C   0  0  0  0  0  0  0  0  0  0  0  0
    3.9640    0.1500   -1.2230 C   0  0  0  0  0  0  0  0  0  0  0  0
    3.9540    0.8940   -2.2270 O   0  0  0  0  0  0  0  0  0  0  0  0
    5.1740   -0.3080   -0.7650 O   0  0  0  0  0  0  0  0  0  0  0  0
    6.4230   -0.0170   -1.3270 C   0  0  0  0  0  0  0  0  0  0  0  0
    1.3500    0.2190   -0.9640 C   0  0  0  0  0  0  0  0  0  0  0  0
  1  2  1  0
  2  3  1  0
  3  4  1  0
  4  5  1  0
  5  6  1  0
  6  7  1  0
  7  8  1  0
  7 16  1  0
  8  9  1  0
  9 10  1  0
  9 11  2  0
 11 12  1  0
 11 16  1  0
 12 13  2  0
 12 14  1  0
 14 15  1  0
M  END
