
     RDKit          3D

 16 16  0  0  0  0  0  0  0  0999 V2000
   -2.8820    1.7510    1.3530 C   0  0  0  0  0  0  0  0  0  0  0  0
   -2.5100    0.3170    1.3120 C   0  0  0  0  0  0  0  0  0  0  0  0
   -1.9860   -0.2020    0.1060 N   0  0  0  0  0  0  0  0  0  0  0  0
   -2.9650   -0.7790   -0.8820 C   0  0  0  0  0  0  0  0  0  0  0  0
   -3.1180   -2.2430   -0.5750 C   0  0  0  0  0  0  0  0  0  0  0  0
   -0.6670   -0.2410   -0.2810 C   0  0  0  0  0  0  0  0  0  0  0  0
   -0.4860   -0.8230   -1.4590 O   0  0  0  0  0  0  0  0  0  0  0  0
    0.5420    0.2300    0.3560 C   0  0  0  0  0  0  0  0  0  0  0  0
    0.6160    0.9650    1.5060 C   0  0  0  0  0  0  0  0  0  0  0  0
    1.8280    1.3460    2.0580 C   0  0  0  0  0  0  0  0  0  0  0  0
    3.0130    0.9840    1.4470 C   0  0  0  0  0  0  0  0  0  0  0  0
    4.2160    1.3640    2.0000 O   0  0  0  0  0  0  0  0  0  0  0  0
    3.0010    0.2430    0.2840 C   0  0  0  0  0  0  0  0  0  0  0  0
    4.1880   -0.1170   -0.3260 O   0  0  0  0  0  0  0  0  0  0  0  0
    4.2790   -0.8630   -1.5000 C   0  0  0  0  0  0  0  0  0  0  0  0
    1.7780   -0.1050   -0.2170 C   0  0  0  0  0  0  0  0  0  0  0  0
  1  2  1  0
  2  3  1  0
  3  4  1  0
  3  6  1  0
  4  5  1  0
  6  7  2  0
  6  8  1  0
  8  9  2  0
  8 16  1  0
  9 10  1  0
 10 11  2  0
 11 12  1  0
 11 13  1  0
 13 14  1  0
 13 16  2  0
 14 15  1  0
M  END
