
     RDKit          3D

 24 26  0  0  0  0  0  0  0  0999 V2000
   -2.1860    0.8690   -1.9690 O   0  0  0  0  0  0  0  0  0  0  0  0
   -2.1680    0.0060   -1.0590 C   0  0  0  0  0  0  0  0  0  0  0  0
   -0.9630   -0.8070   -0.9900 C   0  0  0  0  0  0  0  0  0  0  0  0
   -0.9380   -2.1320    0.1440 S   0  0  1  0  0  0  0  0  0  0  0  0
   -1.0360   -1.7770    1.5740 O   0  0  0  0  0  0  0  0  0  0  0  0
   -2.0330   -3.0970   -0.1800 O   0  0  0  0  0  0  0  0  0  0  0  0
    0.6620   -2.9710   -0.0190 C   0  0  0  0  0  0  0  0  0  0  0  0
    1.7540   -2.0000    0.2920 C   0  0  0  0  0  0  0  0  0  0  0  0
    2.2770   -1.8360    1.5740 C   0  0  0  0  0  0  0  0  0  0  0  0
    3.2470   -0.8630    1.4690 C   0  0  0  0  0  0  0  0  0  0  0  0
    3.2850   -0.4690    0.1430 C   0  0  0  0  0  0  0  0  0  0  0  0
    4.1880    0.5550   -0.3740 C   0  0  0  0  0  0  0  0  0  0  0  0
    5.0840    1.1960    0.4360 C   0  0  0  0  0  0  0  0  0  0  0  0
    5.9070    2.1500   -0.0920 C   0  0  0  0  0  0  0  0  0  0  0  0
    5.8340    2.4640   -1.4410 C   0  0  0  0  0  0  0  0  0  0  0  0
    4.9520    1.8200   -2.1970 N   0  0  0  0  0  0  0  0  0  0  0  0
    4.1200    0.8750   -1.7280 C   0  0  0  0  0  0  0  0  0  0  0  0
    2.3750   -1.1710   -0.5400 N   0  0  0  0  0  0  0  0  0  0  0  0
   -3.3660   -0.0510   -0.1980 C   0  0  1  0  0  0  0  0  0  0  0  0
   -3.1020    0.4190    1.1910 C   0  0  0  0  0  0  0  0  0  0  0  0
   -3.8140    1.6890    1.5570 C   0  0  0  0  0  0  0  0  0  0  0  0
   -5.0190    1.9100    1.0820 C   0  0  0  0  0  0  0  0  0  0  0  0
   -5.5950    0.8500    0.1940 C   0  0  0  0  0  0  0  0  0  0  0  0
   -4.5440    0.6210   -0.8760 C   0  0  0  0  0  0  0  0  0  0  0  0
  1  2  2  0
  2  3  1  0
 19  2  1  6
  4  3  1  6
  4  5  2  0
  4  6  2  0
  4  7  1  0
  7  8  1  0
  8  9  2  0
  8 18  1  0
  9 10  1  0
 10 11  2  0
 11 12  1  0
 11 18  1  0
 12 13  2  0
 12 17  1  0
 13 14  1  0
 14 15  2  0
 15 16  1  0
 16 17  2  0
 19 20  1  0
 19 24  1  0
 20 21  1  0
 21 22  2  0
 22 23  1  0
 23 24  1  0
M  END
