
     RDKit          3D

 16 17  0  0  0  0  0  0  0  0999 V2000
   -2.5350    2.4010   -0.5150 C   0  0  0  0  0  0  0  0  0  0  0  0
   -1.4410    1.5350   -0.3450 O   0  0  0  0  0  0  0  0  0  0  0  0
   -1.5220    0.2220    0.0690 C   0  0  0  0  0  0  0  0  0  0  0  0
   -2.7740   -0.3430    0.3600 C   0  0  0  0  0  0  0  0  0  0  0  0
   -2.9100   -1.6400    0.7750 C   0  0  0  0  0  0  0  0  0  0  0  0
   -1.7620   -2.3930    0.9040 C   0  0  0  0  0  0  0  0  0  0  0  0
   -0.5350   -1.8310    0.6170 C   0  0  0  0  0  0  0  0  0  0  0  0
   -0.3720   -0.5060    0.1900 C   0  0  0  0  0  0  0  0  0  0  0  0
    0.9790   -0.0510   -0.0750 C   0  0  0  0  0  0  0  0  0  0  0  0
    1.2890    1.2100   -0.4940 C   0  0  0  0  0  0  0  0  0  0  0  0
    2.6090    1.6160   -0.7410 C   0  0  0  0  0  0  0  0  0  0  0  0
    2.9120    3.2480   -1.2750 Cl  0  0  0  0  0  0  0  0  0  0  0  0
    3.5830    0.7150   -0.5510 N   0  0  0  0  0  0  0  0  0  0  0  0
    3.3000   -0.5430   -0.1340 C   0  0  0  0  0  0  0  0  0  0  0  0
    4.3930   -1.4380    0.0430 N   0  0  0  0  0  0  0  0  0  0  0  0
    2.0330   -0.9100    0.0960 N   0  0  0  0  0  0  0  0  0  0  0  0
  1  2  1  0
  2  3  1  0
  3  4  2  0
  3  8  1  0
  4  5  1  0
  5  6  2  0
  6  7  1  0
  7  8  2  0
  8  9  1  0
  9 10  2  0
  9 16  1  0
 10 11  1  0
 11 12  1  0
 11 13  2  0
 13 14  1  0
 14 15  1  0
 14 16  2  0
M  END
