
     RDKit          3D

 24 26  0  0  0  0  0  0  0  0999 V2000
    5.5930   -2.7110    0.9430 C   0  0  0  0  0  0  0  0  0  0  0  0
    4.2220   -2.6110    1.2570 O   0  0  0  0  0  0  0  0  0  0  0  0
    3.3960   -1.6450    0.6800 C   0  0  0  0  0  0  0  0  0  0  0  0
    3.9390   -0.7780   -0.2120 C   0  0  0  0  0  0  0  0  0  0  0  0
    3.1530    0.1900   -0.8010 C   0  0  0  0  0  0  0  0  0  0  0  0
    3.7570    1.1350   -1.7710 C   0  0  0  0  0  0  0  0  0  0  0  0
    5.5210    0.7530   -1.9730 S   0  0  0  0  0  0  0  0  0  0  0  0
    6.4840    1.0760   -0.4960 C   0  0  0  0  0  0  0  0  0  0  0  0
    1.7920    0.2690   -0.4730 C   0  0  0  0  0  0  0  0  0  0  0  0
    1.0210    1.3570   -1.1160 C   0  0  0  0  0  0  0  0  0  0  0  0
    1.2090   -0.5860    0.4190 C   0  0  0  0  0  0  0  0  0  0  0  0
   -0.1860   -0.6320    0.7990 C   0  0  0  0  0  0  0  0  0  0  0  0
   -0.4950   -1.1630    1.9410 O   0  0  0  0  0  0  0  0  0  0  0  0
   -1.2940   -0.1690    0.0740 N   0  0  0  0  0  0  0  0  0  0  0  0
   -2.6460   -0.2850    0.6060 C   0  0  0  0  0  0  0  0  0  0  0  0
   -3.6460    0.2610   -0.3270 C   0  0  0  0  0  0  0  0  0  0  0  0
   -3.5250    0.8030   -1.5010 O   0  0  0  0  0  0  0  0  0  0  0  0
   -4.6950    1.1510   -1.9800 N   0  0  0  0  0  0  0  0  0  0  0  0
   -5.6550    0.8330   -1.0960 C   0  0  0  0  0  0  0  0  0  0  0  0
   -5.0100    0.2620   -0.0300 C   0  0  0  0  0  0  0  0  0  0  0  0
   -6.0220   -0.1120    0.9760 C   0  0  0  0  0  0  0  0  0  0  0  0
   -7.1820    0.7950    0.7030 C   0  0  0  0  0  0  0  0  0  0  0  0
   -7.1410    0.8670   -0.8300 C   0  0  0  0  0  0  0  0  0  0  0  0
    2.0640   -1.5440    0.9810 C   0  0  0  0  0  0  0  0  0  0  0  0
  1  2  1  0
  2  3  1  0
  3  4  2  0
  3 24  1  0
  4  5  1  0
  5  6  1  0
  5  9  2  0
  6  7  1  0
  7  8  1  0
  9 10  1  0
  9 11  1  0
 11 12  1  0
 11 24  2  0
 12 13  2  0
 12 14  1  0
 14 15  1  0
 15 16  1  0
 16 17  1  0
 16 20  2  0
 17 18  1  0
 18 19  2  0
 19 20  1  0
 19 23  1  0
 20 21  1  0
 21 22  1  0
 22 23  1  0
M  END
