
     RDKit          3D

 24 26  0  0  0  0  0  0  0  0999 V2000
   -6.9940   -0.6540    1.3090 C   0  0  0  0  0  0  0  0  0  0  0  0
   -5.8660   -0.1540    0.4800 C   0  0  0  0  0  0  0  0  0  0  0  0
   -5.2250   -1.0280   -0.3510 C   0  0  0  0  0  0  0  0  0  0  0  0
   -4.1680   -0.6190   -1.1460 C   0  0  0  0  0  0  0  0  0  0  0  0
   -3.7450    0.6930   -1.1070 C   0  0  0  0  0  0  0  0  0  0  0  0
   -2.4010    1.2690   -2.1010 S   0  0  1  0  0  0  0  0  0  0  0  0
   -2.4170    0.5840   -3.4180 O   0  0  0  0  0  0  0  0  0  0  0  0
   -2.6200    2.7410   -2.3400 O   0  0  0  0  0  0  0  0  0  0  0  0
   -0.9520    1.0800   -1.2360 N   0  0  0  0  0  0  0  0  0  0  0  0
   -0.6190   -0.2600   -0.8860 C   0  0  0  0  0  0  0  0  0  0  0  0
    0.6750   -0.2280   -0.1380 C   0  0  0  0  0  0  0  0  0  0  0  0
    0.6700   -0.0760    1.2290 C   0  0  0  0  0  0  0  0  0  0  0  0
    1.8840   -0.0530    1.8730 C   0  0  0  0  0  0  0  0  0  0  0  0
    3.0660   -0.1750    1.2070 N   0  0  0  0  0  0  0  0  0  0  0  0
    3.0920   -0.3240   -0.1260 C   0  0  0  0  0  0  0  0  0  0  0  0
    4.2790   -0.4510   -0.8330 O   0  0  0  0  0  0  0  0  0  0  0  0
    5.5220   -0.4280   -0.1750 C   0  0  0  0  0  0  0  0  0  0  0  0
    6.5190   -1.2790   -0.3200 C   0  0  0  0  0  0  0  0  0  0  0  0
    7.6680   -0.9260    0.5460 C   0  0  0  0  0  0  0  0  0  0  0  0
    7.1780    0.2930    1.2380 C   0  0  0  0  0  0  0  0  0  0  0  0
    5.9590    0.5510    0.8090 C   0  0  0  0  0  0  0  0  0  0  0  0
    1.8930   -0.3510   -0.8030 C   0  0  0  0  0  0  0  0  0  0  0  0
   -4.4130    1.5590   -0.2550 C   0  0  0  0  0  0  0  0  0  0  0  0
   -5.4590    1.1530    0.5320 C   0  0  0  0  0  0  0  0  0  0  0  0
  1  2  1  0
  2  3  2  0
  2 24  1  0
  3  4  1  0
  4  5  2  0
  5  6  1  0
  5 23  1  0
  6  7  2  0
  6  8  2  0
  6  9  1  1
  9 10  1  0
 10 11  1  0
 11 12  2  0
 11 22  1  0
 12 13  1  0
 13 14  2  0
 14 15  1  0
 15 16  1  0
 15 22  2  0
 16 17  1  0
 17 18  2  0
 17 21  1  0
 18 19  1  0
 19 20  1  0
 20 21  2  0
 23 24  2  0
M  END
