
     RDKit          3D

 24 26  0  0  0  0  0  0  0  0999 V2000
    7.8160   -0.8350    0.0940 C   0  0  0  0  0  0  0  0  0  0  0  0
    6.2850   -0.8600   -0.0120 C   0  0  0  0  0  0  0  0  0  0  0  0
    5.6870   -0.6540    1.3510 C   0  0  0  0  0  0  0  0  0  0  0  0
    4.2930   -0.6720    1.3160 O   0  0  0  0  0  0  0  0  0  0  0  0
    3.5380    0.2150    0.6010 C   0  0  0  0  0  0  0  0  0  0  0  0
    2.1370    0.0940    0.6420 C   0  0  0  0  0  0  0  0  0  0  0  0
    1.3510    0.9660   -0.0620 C   0  0  0  0  0  0  0  0  0  0  0  0
   -0.1200    0.8460   -0.0350 C   0  0  0  0  0  0  0  0  0  0  0  0
   -0.7910    1.8640   -0.3690 O   0  0  0  0  0  0  0  0  0  0  0  0
   -0.7170   -0.3400    0.3440 N   0  0  0  0  0  0  0  0  0  0  0  0
   -2.1190   -0.6510    0.3960 C   0  0  0  0  0  0  0  0  0  0  0  0
   -2.7370   -2.0050    1.3570 S   0  0  0  0  0  0  0  0  0  0  0  0
   -4.4670   -1.8220    0.9040 C   0  0  0  0  0  0  0  0  0  0  0  0
   -5.5660   -2.6700    1.3830 C   0  0  0  0  0  0  0  0  0  0  0  0
   -4.4150   -0.7720    0.0780 C   0  0  0  0  0  0  0  0  0  0  0  0
   -3.2340   -0.1650   -0.1960 C   0  0  0  0  0  0  0  0  0  0  0  0
   -3.3340    0.9050   -1.2440 C   0  0  0  0  0  0  0  0  0  0  0  0
   -2.5100    0.8430   -2.1800 O   0  0  0  0  0  0  0  0  0  0  0  0
   -4.3500    1.9400   -1.1510 C   0  0  0  0  0  0  0  0  0  0  0  0
   -5.5490    1.3850   -0.4370 C   0  0  0  0  0  0  0  0  0  0  0  0
   -5.6020   -0.1100   -0.6250 C   0  0  0  0  0  0  0  0  0  0  0  0
    1.9430    1.9640   -0.8110 C   0  0  0  0  0  0  0  0  0  0  0  0
    3.3370    2.0760   -0.8460 C   0  0  0  0  0  0  0  0  0  0  0  0
    4.0740    1.2000   -0.1400 N   0  0  0  0  0  0  0  0  0  0  0  0
  1  2  1  0
  2  3  1  0
  3  4  1  0
  4  5  1  0
  5  6  2  0
  5 24  1  0
  6  7  1  0
  7  8  1  0
  7 22  2  0
  8  9  2  0
  8 10  1  0
 10 11  1  0
 11 12  1  0
 11 16  2  0
 12 13  1  0
 13 14  1  0
 13 15  2  0
 15 16  1  0
 15 21  1  0
 16 17  1  0
 17 18  2  0
 17 19  1  0
 19 20  1  0
 20 21  1  0
 22 23  1  0
 23 24  2  0
M  END
