
     RDKit          3D

 24 26  0  0  0  0  0  0  0  0999 V2000
   -3.8800    0.3380   -2.9030 C   0  0  0  0  0  0  0  0  0  0  0  0
   -4.0790    0.8610   -1.5090 C   0  0  0  0  0  0  0  0  0  0  0  0
   -4.5730    2.1110   -1.2700 C   0  0  0  0  0  0  0  0  0  0  0  0
   -4.7380    2.5480    0.0240 C   0  0  0  0  0  0  0  0  0  0  0  0
   -4.3940    1.6960    1.0390 C   0  0  0  0  0  0  0  0  0  0  0  0
   -3.8840    0.4050    0.8230 C   0  0  0  0  0  0  0  0  0  0  0  0
   -3.5740   -0.4350    1.9770 C   0  0  0  0  0  0  0  0  0  0  0  0
   -3.7260   -0.0120   -0.4740 C   0  0  0  0  0  0  0  0  0  0  0  0
   -3.1290   -1.5960   -0.8220 S   0  0  2  0  0  0  0  0  0  0  0  0
   -3.9030   -2.1830   -1.9860 O   0  0  0  0  0  0  0  0  0  0  0  0
   -3.3520   -2.5240    0.3680 O   0  0  0  0  0  0  0  0  0  0  0  0
   -1.4540   -1.6540   -1.1920 N   0  0  0  0  0  0  0  0  0  0  0  0
   -0.6660   -1.2040   -0.0890 C   0  0  0  0  0  0  0  0  0  0  0  0
    0.8320   -1.2480   -0.4160 C   0  0  0  0  0  0  0  0  0  0  0  0
    1.5350   -0.7420    0.8460 C   0  0  0  0  0  0  0  0  0  0  0  0
    2.9720   -0.7390    0.6750 N   0  0  0  0  0  0  0  0  0  0  0  0
    3.8570   -1.8750    0.5490 C   0  0  0  0  0  0  0  0  0  0  0  0
    5.1130   -1.4050   -0.1060 C   0  0  0  0  0  0  0  0  0  0  0  0
    5.1420    0.0430    0.1130 C   0  0  0  0  0  0  0  0  0  0  0  0
    6.0850    0.9540   -0.0410 C   0  0  0  0  0  0  0  0  0  0  0  0
    5.7990    2.2580    0.2550 O   0  0  0  0  0  0  0  0  0  0  0  0
    4.5810    2.7290    0.7250 C   0  0  0  0  0  0  0  0  0  0  0  0
    3.5560    1.6880    0.8810 C   0  0  0  0  0  0  0  0  0  0  0  0
    3.8160    0.4250    0.5960 C   0  0  0  0  0  0  0  0  0  0  0  0
  1  2  1  0
  2  3  2  0
  2  8  1  0
  3  4  1  0
  4  5  2  0
  5  6  1  0
  6  7  1  0
  6  8  2  0
  8  9  1  0
  9 10  2  0
  9 11  2  0
  9 12  1  6
 12 13  1  0
 13 14  1  0
 14 15  1  0
 15 16  1  0
 16 17  1  0
 16 24  1  0
 17 18  1  0
 18 19  1  0
 19 20  2  0
 19 24  1  0
 20 21  1  0
 21 22  1  0
 22 23  1  0
 23 24  2  0
M  END
