
     RDKit          3D

 21 21  0  0  0  0  0  0  0  0999 V2000
   -0.9310   -1.1110   -1.3760 C   0  0  0  0  0  0  0  0  0  0  0  0
   -1.1510   -0.0610   -0.3140 C   0  0  1  0  0  0  0  0  0  0  0  0
   -0.1820   -0.3130    0.7950 C   0  0  0  0  0  0  0  0  0  0  0  0
    1.1850   -0.1310    0.4060 N   0  0  0  0  0  0  0  0  0  0  0  0
    2.0380   -1.2400    0.7530 C   0  0  0  0  0  0  0  0  0  0  0  0
    3.4650   -0.6720    0.8270 C   0  0  2  0  0  0  0  0  0  0  0  0
    3.4960    0.3350    1.8160 O   0  0  0  0  0  0  0  0  0  0  0  0
    3.6940   -0.0720   -0.3940 O   0  0  0  0  0  0  0  0  0  0  0  0
    4.7650   -0.5190   -1.1070 C   0  0  0  0  0  0  0  0  0  0  0  0
    6.0370   -0.2610   -0.3380 C   0  0  0  0  0  0  0  0  0  0  0  0
    6.1750    1.1290   -0.1080 O   0  0  0  0  0  0  0  0  0  0  0  0
   -1.0190    1.2230   -0.7560 O   0  0  0  0  0  0  0  0  0  0  0  0
   -1.8440    2.0470   -0.0480 C   0  0  2  0  0  0  0  0  0  0  0  0
   -1.1950    2.9870    0.7310 O   0  0  0  0  0  0  0  0  0  0  0  0
   -2.6700    1.1760    0.8810 C   0  0  0  0  0  0  0  0  0  0  0  0
   -2.6030   -0.1480    0.1560 C   0  0  2  0  0  0  0  0  0  0  0  0
   -2.8150   -1.2240    0.9830 O   0  0  0  0  0  0  0  0  0  0  0  0
   -3.4880   -0.0980   -1.0320 C   0  0  0  0  0  0  0  0  0  0  0  0
   -4.9600   -0.2080   -0.7830 C   0  0  2  0  0  0  0  0  0  0  0  0
   -5.6230   -0.1490   -2.0420 O   0  0  0  0  0  0  0  0  0  0  0  0
   -5.5230    0.7590    0.0090 O   0  0  0  0  0  0  0  0  0  0  0  0
  2  1  1  6
  2  3  1  0
  2 12  1  0
  2 16  1  0
  3  4  1  0
  4  5  1  0
  5  6  1  0
  6  7  1  1
  6  8  1  0
  8  9  1  0
  9 10  1  0
 10 11  1  0
 12 13  1  0
 13 14  1  1
 13 15  1  0
 15 16  1  0
 16 17  1  1
 16 18  1  0
 18 19  1  0
 19 20  1  6
 19 21  1  0
M  CHG  1   4   1
M  END
