
     RDKit          3D

 22 23  0  0  0  0  0  0  0  0999 V2000
    1.9330    3.4870   -1.0920 O   0  0  0  0  0  0  0  0  0  0  0  0
    2.9610    2.5450   -0.9160 C   0  0  0  0  0  0  0  0  0  0  0  0
    2.3390    1.2950   -0.3030 C   0  0  1  0  0  0  0  0  0  0  0  0
    1.3780    0.8470   -1.2000 O   0  0  0  0  0  0  0  0  0  0  0  0
    0.8000   -0.3570   -0.7900 C   0  0  2  0  0  0  0  0  0  0  0  0
    0.0930   -0.2040    0.3990 O   0  0  0  0  0  0  0  0  0  0  0  0
   -1.2360   -0.4310    0.2120 C   0  0  2  0  0  0  0  0  0  0  0  0
   -2.0970    0.7940    0.4800 C   0  0  1  0  0  0  0  0  0  0  0  0
   -1.4470    2.0390   -0.0730 C   0  0  0  0  0  0  0  0  0  0  0  0
   -2.2450    3.1270    0.3000 O   0  0  0  0  0  0  0  0  0  0  0  0
   -3.4110    0.5830   -0.0110 N   0  0  0  0  0  0  0  0  0  0  0  0
   -3.8220   -0.7350   -0.2680 C   0  0  0  0  0  0  0  0  0  0  0  0
   -3.1530   -1.8520    0.4140 C   0  0  2  0  0  0  0  0  0  0  0  0
   -3.9630   -2.4370    1.4110 O   0  0  0  0  0  0  0  0  0  0  0  0
   -1.8530   -1.4870    1.1040 C   0  0  1  0  0  0  0  0  0  0  0  0
   -1.0770   -2.5860    1.3220 O   0  0  0  0  0  0  0  0  0  0  0  0
    1.8610   -1.4190   -0.7390 C   0  0  2  0  0  0  0  0  0  0  0  0
    1.3620   -2.6820   -0.5620 O   0  0  0  0  0  0  0  0  0  0  0  0
    2.9600   -1.0860    0.2420 C   0  0  1  0  0  0  0  0  0  0  0  0
    4.0230   -1.9420    0.0100 O   0  0  0  0  0  0  0  0  0  0  0  0
    3.4400    0.3240   -0.0330 C   0  0  2  0  0  0  0  0  0  0  0  0
    4.1080    0.7500    1.1250 O   0  0  0  0  0  0  0  0  0  0  0  0
  1  2  1  0
  3  2  1  6
  3  4  1  0
  3 21  1  0
  4  5  1  0
  5  6  1  1
  5 17  1  0
  7  6  1  1
  7  8  1  0
  7 15  1  0
  8  9  1  6
  8 11  1  0
  9 10  1  0
 11 12  1  0
 12 13  1  0
 13 14  1  1
 13 15  1  0
 15 16  1  6
 17 18  1  1
 17 19  1  0
 19 20  1  6
 19 21  1  0
 21 22  1  1
M  CHG  1  11   1
M  END
