
     RDKit          3D

 21 21  0  0  0  0  0  0  0  0999 V2000
    5.3460    1.3350    1.3430 O   0  0  0  0  0  0  0  0  0  0  0  0
    4.9920    1.6750    0.0470 C   0  0  0  0  0  0  0  0  0  0  0  0
    4.2590    0.5750   -0.6630 C   0  0  0  0  0  0  0  0  0  0  0  0
    3.0820    0.2110   -0.0380 O   0  0  0  0  0  0  0  0  0  0  0  0
    2.4530   -0.7930   -0.7230 C   0  0  1  0  0  0  0  0  0  0  0  0
    2.4840   -2.1210   -0.0310 C   0  0  0  0  0  0  0  0  0  0  0  0
    1.9500   -2.1310    1.2250 O   0  0  0  0  0  0  0  0  0  0  0  0
    1.1810   -0.4230   -1.4180 C   0  0  2  0  0  0  0  0  0  0  0  0
    1.6220    0.5860   -2.3580 O   0  0  0  0  0  0  0  0  0  0  0  0
    0.1260    0.2360   -0.5890 C   0  0  0  0  0  0  0  0  0  0  0  0
   -0.5330   -0.5200    0.3880 N   0  0  0  0  0  0  0  0  0  0  0  0
   -1.9470   -0.3340    0.5370 C   0  0  1  0  0  0  0  0  0  0  0  0
   -2.4170    0.6520    1.5270 C   0  0  1  0  0  0  0  0  0  0  0  0
   -2.6880    2.0470    1.0190 C   0  0  0  0  0  0  0  0  0  0  0  0
   -1.4920    2.5760    0.5470 O   0  0  0  0  0  0  0  0  0  0  0  0
   -3.6830    0.2100    1.9890 O   0  0  0  0  0  0  0  0  0  0  0  0
   -4.3510   -0.6030    1.1300 C   0  0  0  0  0  0  0  0  0  0  0  0
   -4.1770   -0.3680   -0.3320 C   0  0  2  0  0  0  0  0  0  0  0  0
   -4.6190   -1.5510   -0.9760 O   0  0  0  0  0  0  0  0  0  0  0  0
   -2.7170   -0.1940   -0.7480 C   0  0  2  0  0  0  0  0  0  0  0  0
   -2.2930   -1.2060   -1.6060 O   0  0  0  0  0  0  0  0  0  0  0  0
  1  2  1  0
  2  3  1  0
  3  4  1  0
  4  5  1  0
  5  6  1  1
  5  8  1  0
  6  7  1  0
  8  9  1  6
  8 10  1  0
 10 11  1  0
 12 11  1  6
 12 13  1  0
 12 20  1  0
 13 14  1  6
 13 16  1  0
 14 15  1  0
 16 17  1  0
 17 18  1  0
 18 19  1  6
 18 20  1  0
 20 21  1  6
M  CHG  1  11   1
M  END
