
     RDKit          3D

 21 21  0  0  0  0  0  0  0  0999 V2000
   -3.8760    1.2000   -0.4630 C   0  0  0  0  0  0  0  0  0  0  0  0
   -2.4670    0.6100   -0.3240 C   0  0  1  0  0  0  0  0  0  0  0  0
   -1.8290    0.8620   -1.5360 O   0  0  0  0  0  0  0  0  0  0  0  0
   -1.8180    1.3080    0.8290 C   0  0  0  0  0  0  0  0  0  0  0  0
   -0.4520    1.2150    0.8630 O   0  0  0  0  0  0  0  0  0  0  0  0
    0.1950    2.2800    0.2590 C   0  0  0  0  0  0  0  0  0  0  0  0
    1.6590    2.0220    0.0740 C   0  0  0  0  0  0  0  0  0  0  0  0
    1.9020    0.9210   -0.6900 O   0  0  0  0  0  0  0  0  0  0  0  0
    2.5420   -0.1150   -0.0680 C   0  0  2  0  0  0  0  0  0  0  0  0
    2.2620   -0.2020    1.2940 O   0  0  0  0  0  0  0  0  0  0  0  0
    4.0200   -0.1410   -0.2590 C   0  0  0  0  0  0  0  0  0  0  0  0
    4.6800    1.0510    0.2410 N   0  0  0  0  0  0  0  0  0  0  0  0
    1.9950   -1.4030   -0.6990 C   0  0  1  0  0  0  0  0  0  0  0  0
    2.9020   -2.4500   -0.5700 O   0  0  0  0  0  0  0  0  0  0  0  0
    0.6830   -1.7000   -0.0150 C   0  0  0  0  0  0  0  0  0  0  0  0
   -0.3010   -0.9450   -0.6470 O   0  0  0  0  0  0  0  0  0  0  0  0
   -1.4790   -1.6350   -0.8370 C   0  0  0  0  0  0  0  0  0  0  0  0
   -2.6060   -0.8660   -0.1520 C   0  0  2  0  0  0  0  0  0  0  0  0
   -3.7890   -1.2650   -0.7880 O   0  0  0  0  0  0  0  0  0  0  0  0
   -2.6900   -1.3080    1.2820 C   0  0  0  0  0  0  0  0  0  0  0  0
   -2.8260   -2.7140    1.2590 O   0  0  0  0  0  0  0  0  0  0  0  0
  2  1  1  6
  2  3  1  0
  2  4  1  0
  2 18  1  0
  4  5  1  0
  5  6  1  0
  6  7  1  0
  7  8  1  0
  8  9  1  0
  9 10  1  1
  9 11  1  0
  9 13  1  0
 11 12  1  0
 13 14  1  1
 13 15  1  0
 15 16  1  0
 16 17  1  0
 17 18  1  0
 18 19  1  6
 18 20  1  0
 20 21  1  0
M  CHG  1  12   1
M  END
