
     RDKit          3D

 22 22  0  0  0  0  0  0  0  0999 V2000
    0.8510   -2.7200    0.7040 N   0  0  0  0  0  0  0  0  0  0  0  0
    1.5030   -1.4500    0.9490 C   0  0  2  0  0  0  0  0  0  0  0  0
    1.5090   -1.1130    2.2960 O   0  0  0  0  0  0  0  0  0  0  0  0
    1.2700   -0.3770   -0.0020 C   0  0  2  0  0  0  0  0  0  0  0  0
    1.7810   -0.7380   -1.2490 O   0  0  0  0  0  0  0  0  0  0  0  0
    2.1780    0.8250    0.3610 C   0  0  0  0  0  0  0  0  0  0  0  0
    3.6140    0.4480    0.3170 C   0  0  1  0  0  0  0  0  0  0  0  0
    4.4180    1.6210    0.5990 O   0  0  0  0  0  0  0  0  0  0  0  0
    3.9960   -0.3620    1.4290 O   0  0  0  0  0  0  0  0  0  0  0  0
   -0.1370    0.1670   -0.1590 C   0  0  1  0  0  0  0  0  0  0  0  0
   -1.0680   -0.4730   -1.0940 C   0  0  0  0  0  0  0  0  0  0  0  0
   -1.4680   -1.8830   -1.0010 C   0  0  0  0  0  0  0  0  0  0  0  0
   -2.5410   -2.1130   -2.1250 C   0  0  1  0  0  0  0  0  0  0  0  0
   -1.9870   -1.8380   -3.3610 O   0  0  0  0  0  0  0  0  0  0  0  0
   -3.0090   -3.4200   -2.0070 O   0  0  0  0  0  0  0  0  0  0  0  0
   -0.7980    0.5970    1.0880 C   0  0  0  0  0  0  0  0  0  0  0  0
   -1.0540    2.0680    0.9330 C   0  0  2  0  0  0  0  0  0  0  0  0
   -0.2260    2.8350    1.7480 O   0  0  0  0  0  0  0  0  0  0  0  0
   -2.5240    2.3770    1.2010 C   0  0  0  0  0  0  0  0  0  0  0  0
   -2.8300    3.6900    0.9660 O   0  0  0  0  0  0  0  0  0  0  0  0
   -0.8190    2.2970   -0.5190 C   0  0  0  0  0  0  0  0  0  0  0  0
    0.1510    1.4180   -0.8600 O   0  0  0  0  0  0  0  0  0  0  0  0
  2  1  1  1
  2  3  1  0
  2  4  1  0
  4  5  1  6
  4  6  1  0
  4 10  1  0
  6  7  1  0
  7  8  1  1
  7  9  1  0
 10 11  1  6
 10 16  1  0
 10 22  1  0
 11 12  1  0
 12 13  1  0
 13 14  1  6
 13 15  1  0
 16 17  1  0
 17 18  1  1
 17 19  1  0
 17 21  1  0
 19 20  1  0
 21 22  1  0
M  END
