
     RDKit          3D

 21 21  0  0  0  0  0  0  0  0999 V2000
   -0.7270    3.8250    0.4170 N   0  0  0  0  0  0  0  0  0  0  0  0
   -0.8100    2.5630   -0.3630 C   0  0  1  0  0  0  0  0  0  0  0  0
   -0.5980    2.9040   -1.6680 O   0  0  0  0  0  0  0  0  0  0  0  0
    0.1440    1.5720    0.2060 C   0  0  0  0  0  0  0  0  0  0  0  0
    0.2540    0.2460   -0.4100 C   0  0  1  0  0  0  0  0  0  0  0  0
    1.2690   -0.5960    0.3350 C   0  0  0  0  0  0  0  0  0  0  0  0
    2.6550   -0.1050    0.3940 C   0  0  1  0  0  0  0  0  0  0  0  0
    2.8910    1.0980    1.0010 O   0  0  0  0  0  0  0  0  0  0  0  0
    3.4770   -1.2190    1.0720 C   0  0  0  0  0  0  0  0  0  0  0  0
    3.1660   -2.3960    0.3830 O   0  0  0  0  0  0  0  0  0  0  0  0
    3.1710   -0.0020   -1.0510 C   0  0  0  0  0  0  0  0  0  0  0  0
    4.5380    0.2780   -1.0510 O   0  0  0  0  0  0  0  0  0  0  0  0
   -1.0090   -0.5890   -0.3840 C   0  0  1  0  0  0  0  0  0  0  0  0
   -1.4920   -0.8190    0.8960 O   0  0  0  0  0  0  0  0  0  0  0  0
   -2.7230   -1.4910    0.6950 C   0  0  2  0  0  0  0  0  0  0  0  0
   -2.9060   -2.4110    1.9000 C   0  0  0  0  0  0  0  0  0  0  0  0
   -2.9270   -1.6050    3.0270 O   0  0  0  0  0  0  0  0  0  0  0  0
   -2.6850   -2.3080   -0.4220 O   0  0  0  0  0  0  0  0  0  0  0  0
   -2.7970   -1.6130   -1.6320 C   0  0  0  0  0  0  0  0  0  0  0  0
   -2.0570   -0.2690   -1.3680 C   0  0  2  0  0  0  0  0  0  0  0  0
   -1.5400    0.1210   -2.5810 O   0  0  0  0  0  0  0  0  0  0  0  0
  2  1  1  1
  2  3  1  0
  2  4  1  0
  5  4  1  1
  5  6  1  0
  5 13  1  0
  6  7  1  0
  7  8  1  1
  7  9  1  0
  7 11  1  0
  9 10  1  0
 11 12  1  0
 13 14  1  1
 13 20  1  0
 14 15  1  0
 15 16  1  1
 15 18  1  0
 16 17  1  0
 18 19  1  0
 19 20  1  0
 20 21  1  6
M  CHG  1   1   1
M  END
