
     RDKit          3D

 21 21  0  0  0  0  0  0  0  0999 V2000
    6.3460    0.6280   -1.9850 O   0  0  0  0  0  0  0  0  0  0  0  0
    5.4550   -0.1810   -1.2960 C   0  0  0  0  0  0  0  0  0  0  0  0
    4.1710    0.5680   -0.9480 C   0  0  0  0  0  0  0  0  0  0  0  0
    3.3590   -0.3070   -0.2730 O   0  0  0  0  0  0  0  0  0  0  0  0
    2.1460    0.1890    0.1280 C   0  0  1  0  0  0  0  0  0  0  0  0
    0.9730   -0.4740   -0.5580 C   0  0  0  0  0  0  0  0  0  0  0  0
   -0.2740    0.0910   -0.0940 N   0  0  0  0  0  0  0  0  0  0  0  0
   -1.3330   -0.0080   -1.0410 C   0  0  0  0  0  0  0  0  0  0  0  0
   -2.6940   -0.0960   -0.4000 C   0  0  2  0  0  0  0  0  0  0  0  0
   -2.9770    1.1410    0.4520 C   0  0  0  0  0  0  0  0  0  0  0  0
   -2.0160    1.2190    1.4330 O   0  0  0  0  0  0  0  0  0  0  0  0
   -2.9020   -1.3360    0.4040 C   0  0  0  0  0  0  0  0  0  0  0  0
   -4.0350   -1.9780   -0.0870 O   0  0  0  0  0  0  0  0  0  0  0  0
   -4.8230   -1.0220   -0.6920 C   0  0  2  0  0  0  0  0  0  0  0  0
   -5.7260   -1.6160   -1.5660 O   0  0  0  0  0  0  0  0  0  0  0  0
   -3.8010   -0.1770   -1.4300 C   0  0  1  0  0  0  0  0  0  0  0  0
   -4.2950    1.1030   -1.6720 O   0  0  0  0  0  0  0  0  0  0  0  0
    1.9810    0.2660    1.6190 C   0  0  2  0  0  0  0  0  0  0  0  0
    2.9590    1.0920    2.1230 O   0  0  0  0  0  0  0  0  0  0  0  0
    2.0420   -1.0580    2.3150 C   0  0  0  0  0  0  0  0  0  0  0  0
    1.8320   -0.8150    3.6750 O   0  0  0  0  0  0  0  0  0  0  0  0
  1  2  1  0
  2  3  1  0
  3  4  1  0
  4  5  1  0
  5  6  1  1
  5 18  1  0
  6  7  1  0
  7  8  1  0
  9  8  1  6
  9 10  1  0
  9 12  1  0
  9 16  1  0
 10 11  1  0
 12 13  1  0
 13 14  1  0
 14 15  1  6
 14 16  1  0
 16 17  1  1
 18 19  1  1
 18 20  1  0
 20 21  1  0
M  CHG  1   7   1
M  END
