
     RDKit          3D

 35 37  0  0  0  0  0  0  0  0999 V2000
   -2.1830    1.8700    2.4450 O   0  0  0  0  0  0  0  0  0  0  0  0
   -2.9610    1.2700    1.6700 C   0  0  0  0  0  0  0  0  0  0  0  0
   -4.3610    1.4620    1.8060 N   0  0  0  0  0  0  0  0  0  0  0  0
   -5.4480    0.8820    1.0500 C   0  0  0  0  0  0  0  0  0  0  0  0
   -6.6010    0.9760    1.5110 O   0  0  0  0  0  0  0  0  0  0  0  0
   -5.3240    0.1920   -0.2070 N   0  0  0  0  0  0  0  0  0  0  0  0
   -6.2450    0.4220   -1.2370 C   0  0  0  0  0  0  0  0  0  0  0  0
   -6.1730   -0.1070   -2.3790 O   0  0  0  0  0  0  0  0  0  0  0  0
   -7.3490    1.2930   -1.0570 N   0  0  0  0  0  0  0  0  0  0  0  0
   -8.2230    1.4690   -2.1200 O   0  0  0  0  0  0  0  0  0  0  0  0
   -7.4680    1.9530   -3.0960 O   0  0  0  0  0  0  0  0  0  0  0  0
   -4.2410   -0.7200   -0.4630 C   0  0  0  0  0  0  0  0  0  0  0  0
   -4.6950   -1.7840   -1.2050 C   0  0  0  0  0  0  0  0  0  0  0  0
   -3.7620   -2.7520   -1.5630 C   0  0  0  0  0  0  0  0  0  0  0  0
   -2.4230   -2.6270   -1.1720 C   0  0  0  0  0  0  0  0  0  0  0  0
   -1.9870   -1.5580   -0.4300 C   0  0  0  0  0  0  0  0  0  0  0  0
   -0.6780   -1.4410   -0.0500 O   0  0  0  0  0  0  0  0  0  0  0  0
    0.3410   -2.3420   -0.3480 C   0  0  0  0  0  0  0  0  0  0  0  0
    1.6090   -1.8510    0.2440 C   0  0  0  0  0  0  0  0  0  0  0  0
    2.6940   -2.4820    0.1250 O   0  0  0  0  0  0  0  0  0  0  0  0
    1.6330   -0.6630    0.9580 O   0  0  0  0  0  0  0  0  0  0  0  0
    2.8440   -0.2070    1.5140 C   0  0  0  0  0  0  0  0  0  0  0  0
    3.8850    0.0310    0.4840 C   0  0  0  0  0  0  0  0  0  0  0  0
    3.6070   -0.1710   -0.7250 O   0  0  0  0  0  0  0  0  0  0  0  0
    5.1330    0.4650    0.8490 O   0  0  0  0  0  0  0  0  0  0  0  0
    6.1130    0.6880   -0.1430 C   0  0  2  0  0  0  0  0  0  0  0  0
    7.3010   -0.2360    0.0360 C   0  0  0  0  0  0  0  0  0  0  0  0
    8.5200    0.3700   -0.3600 O   0  0  0  0  0  0  0  0  0  0  0  0
    8.8640    1.6540    0.1060 C   0  0  0  0  0  0  0  0  0  0  0  0
   10.0280    1.9730    0.4240 O   0  0  0  0  0  0  0  0  0  0  0  0
    7.7800    2.5710    0.1890 N   0  0  0  0  0  0  0  0  0  0  0  0
    6.4950    2.1130   -0.1950 C   0  0  0  0  0  0  0  0  0  0  0  0
    5.6400    2.9460   -0.5990 O   0  0  0  0  0  0  0  0  0  0  0  0
   -2.9030   -0.6000   -0.0740 C   0  0  0  0  0  0  0  0  0  0  0  0
   -2.2980    0.4370    0.7140 N   0  0  0  0  0  0  0  0  0  0  0  0
  1  2  2  0
  2  3  1  0
  2 35  1  0
  3  4  1  0
  4  5  2  0
  4  6  1  0
  6  7  1  0
  6 12  1  0
  7  8  2  0
  7  9  1  0
  9 10  1  0
 10 11  1  0
 12 13  2  0
 12 34  1  0
 13 14  1  0
 14 15  2  0
 15 16  1  0
 16 17  1  0
 16 34  2  0
 17 18  1  0
 18 19  1  0
 19 20  2  0
 19 21  1  0
 21 22  1  0
 22 23  1  0
 23 24  2  0
 23 25  1  0
 26 25  1  1
 26 27  1  0
 26 32  1  0
 27 28  1  0
 28 29  1  0
 29 30  2  0
 29 31  1  0
 31 32  1  0
 32 33  2  0
 34 35  1  0
M  END
