
     RDKit          3D

 35 38  0  0  0  0  0  0  0  0999 V2000
    5.6930    1.5750    0.4280 O   0  0  0  0  0  0  0  0  0  0  0  0
    4.9400    1.9910   -0.4630 C   0  0  0  0  0  0  0  0  0  0  0  0
    5.0910    3.3270   -0.8570 O   0  0  0  0  0  0  0  0  0  0  0  0
    6.0060    4.1230   -0.2990 O   0  0  0  0  0  0  0  0  0  0  0  0
    4.0260    1.1490   -1.0010 O   0  0  0  0  0  0  0  0  0  0  0  0
    3.7380   -0.1780   -0.7350 C   0  0  0  0  0  0  0  0  0  0  0  0
    3.2540   -0.3860    0.6530 C   0  0  1  0  0  0  0  0  0  0  0  0
    4.2230   -0.3480    1.7310 C   0  0  0  0  0  0  0  0  0  0  0  0
    4.0140    0.4340    2.7150 O   0  0  0  0  0  0  0  0  0  0  0  0
    5.3790   -1.1100    1.7790 O   0  0  0  0  0  0  0  0  0  0  0  0
    6.2780   -1.0340    2.8480 C   0  0  0  0  0  0  0  0  0  0  0  0
    7.3410   -1.9200    2.6060 O   0  0  0  0  0  0  0  0  0  0  0  0
    7.9590   -1.6010    1.4920 O   0  0  0  0  0  0  0  0  0  0  0  0
    2.1170    0.4520    0.8370 O   0  0  0  0  0  0  0  0  0  0  0  0
    1.1120   -0.0410    0.0050 C   0  0  0  0  0  0  0  0  0  0  0  0
    0.0220    0.5040   -0.6320 C   0  0  0  0  0  0  0  0  0  0  0  0
   -0.8370   -0.2740   -1.4320 C   0  0  0  0  0  0  0  0  0  0  0  0
   -1.9060    0.2650   -2.0570 O   0  0  0  0  0  0  0  0  0  0  0  0
   -2.8890   -0.2440   -2.8600 C   0  0  0  0  0  0  0  0  0  0  0  0
   -3.8060   -1.2690   -2.2970 C   0  0  0  0  0  0  0  0  0  0  0  0
   -4.5540   -0.8000   -1.1440 N   0  0  0  0  0  0  0  0  0  0  0  0
   -5.4280    0.2930   -1.1820 C   0  0  0  0  0  0  0  0  0  0  0  0
   -5.5170    0.8530   -2.3330 O   0  0  0  0  0  0  0  0  0  0  0  0
   -6.2020    0.8080   -0.0630 C   0  0  0  0  0  0  0  0  0  0  0  0
   -7.0560    1.9000   -0.1640 C   0  0  0  0  0  0  0  0  0  0  0  0
   -7.6320    2.1440    1.0250 N   0  0  0  0  0  0  0  0  0  0  0  0
   -7.1550    1.2190    1.8850 C   0  0  0  0  0  0  0  0  0  0  0  0
   -7.2470    0.8430    3.1340 O   0  0  0  0  0  0  0  0  0  0  0  0
   -6.4560   -0.1820    3.2640 N   0  0  0  0  0  0  0  0  0  0  0  0
   -5.8570   -0.4630    2.0960 C   0  0  0  0  0  0  0  0  0  0  0  0
   -6.2970    0.4280    1.2050 N   0  0  0  0  0  0  0  0  0  0  0  0
   -0.4960   -1.6040   -1.5180 C   0  0  0  0  0  0  0  0  0  0  0  0
    0.5890   -2.1200   -0.8780 N   0  0  0  0  0  0  0  0  0  0  0  0
    1.4040   -1.3830   -0.1190 C   0  0  0  0  0  0  0  0  0  0  0  0
    2.5590   -1.6590    0.6300 O   0  0  0  0  0  0  0  0  0  0  0  0
  1  2  2  0
  2  3  1  0
  2  5  1  0
  3  4  1  0
  5  6  1  0
  7  6  1  6
  7  8  1  0
  7 14  1  0
  7 35  1  0
  8  9  2  0
  8 10  1  0
 10 11  1  0
 11 12  1  0
 12 13  1  0
 14 15  1  0
 15 16  2  0
 15 34  1  0
 16 17  1  0
 17 18  1  0
 17 32  2  0
 18 19  1  0
 19 20  1  0
 20 21  1  0
 21 22  1  0
 22 23  2  0
 22 24  1  0
 24 25  2  0
 24 31  1  0
 25 26  1  0
 26 27  2  0
 27 28  1  0
 27 31  1  0
 28 29  1  0
 29 30  2  0
 30 31  1  0
 32 33  1  0
 33 34  2  0
 34 35  1  0
M  END
