
     RDKit          3D

 35 36  0  0  0  0  0  0  0  0999 V2000
    6.1910   -2.1340   -1.4310 O   0  0  0  0  0  0  0  0  0  0  0  0
    6.5980   -2.6450   -0.3580 C   0  0  0  0  0  0  0  0  0  0  0  0
    7.5140   -3.6940   -0.3350 O   0  0  0  0  0  0  0  0  0  0  0  0
    6.1290   -2.1620    0.8450 O   0  0  0  0  0  0  0  0  0  0  0  0
    5.1760   -1.0890    0.9450 C   0  0  0  0  0  0  0  0  0  0  0  0
    3.9090   -1.4430    0.2940 C   0  0  0  0  0  0  0  0  0  0  0  0
    3.9250   -2.6220   -0.2610 O   0  0  0  0  0  0  0  0  0  0  0  0
    2.7230   -0.6660    0.2080 N   0  0  0  0  0  0  0  0  0  0  0  0
    2.6020    0.4990    0.7550 O   0  0  0  0  0  0  0  0  0  0  0  0
    3.3340    1.0260    1.7300 C   0  0  0  0  0  0  0  0  0  0  0  0
    2.7310    2.4310    2.0380 C   0  0  0  0  0  0  0  0  0  0  0  0
    3.4790    2.9970    3.0460 O   0  0  0  0  0  0  0  0  0  0  0  0
    3.0210    4.2010    3.3690 O   0  0  0  0  0  0  0  0  0  0  0  0
    1.6480   -1.2090   -0.5340 C   0  0  0  0  0  0  0  0  0  0  0  0
    1.9640   -2.3760   -1.0150 O   0  0  0  0  0  0  0  0  0  0  0  0
    0.3260   -0.6620   -0.8110 C   0  0  0  0  0  0  0  0  0  0  0  0
    0.0620    0.5510   -0.2500 C   0  0  0  0  0  0  0  0  0  0  0  0
   -1.2020    1.1770   -0.4620 N   0  0  0  0  0  0  0  0  0  0  0  0
   -2.4340    1.0290   -0.0670 C   0  0  0  0  0  0  0  0  0  0  0  0
   -3.2870    2.0770   -0.7250 C   0  0  0  0  0  0  0  0  0  0  0  0
   -4.5020    2.3860   -0.6910 N   0  0  0  0  0  0  0  0  0  0  0  0
   -4.7920    3.4230   -1.4770 O   0  0  0  0  0  0  0  0  0  0  0  0
   -3.7870    3.5320   -2.3750 O   0  0  0  0  0  0  0  0  0  0  0  0
   -2.6800    3.0480   -1.7060 C   0  0  0  0  0  0  0  0  0  0  0  0
   -3.0430    0.0720    0.7370 N   0  0  0  0  0  0  0  0  0  0  0  0
   -3.9540   -0.3050    1.7310 C   0  0  0  0  0  0  0  0  0  0  0  0
   -5.2790   -0.5830    1.5290 C   0  0  0  0  0  0  0  0  0  0  0  0
   -5.8490   -0.4970    0.1460 C   0  0  0  0  0  0  0  0  0  0  0  0
   -7.0670   -0.2750    0.0560 O   0  0  0  0  0  0  0  0  0  0  0  0
   -5.0860   -0.6510   -0.9870 O   0  0  0  0  0  0  0  0  0  0  0  0
   -4.3250   -1.6070   -1.5710 C   0  0  0  0  0  0  0  0  0  0  0  0
   -3.1110   -1.2400   -2.3940 C   0  0  0  0  0  0  0  0  0  0  0  0
   -1.8550   -1.8000   -1.8900 N   0  0  0  0  0  0  0  0  0  0  0  0
   -0.5710   -1.4390   -1.6720 C   0  0  0  0  0  0  0  0  0  0  0  0
    0.2050   -2.0100   -2.6020 O   0  0  0  0  0  0  0  0  0  0  0  0
  1  2  2  0
  2  3  1  0
  2  4  1  0
  4  5  1  0
  5  6  1  0
  6  7  2  0
  6  8  1  0
  8  9  1  0
  8 14  1  0
  9 10  1  0
 10 11  1  0
 11 12  1  0
 12 13  1  0
 14 15  2  0
 14 16  1  0
 16 17  2  0
 16 34  1  0
 17 18  1  0
 18 19  2  0
 19 20  1  0
 19 25  1  0
 20 21  2  0
 20 24  1  0
 21 22  1  0
 22 23  1  0
 23 24  1  0
 25 26  1  0
 26 27  2  0
 27 28  1  0
 28 29  2  0
 28 30  1  0
 30 31  1  0
 31 32  1  0
 32 33  1  0
 33 34  1  0
 34 35  2  0
M  END
