
     RDKit          3D

 35 37  0  0  0  0  0  0  0  0999 V2000
   -0.3190    0.8700    1.2090 C   0  0  0  0  0  0  0  0  0  0  0  0
    0.0800    0.2010   -0.0980 C   0  0  2  0  0  0  0  0  0  0  0  0
    1.1130    0.9750   -0.6260 O   0  0  0  0  0  0  0  0  0  0  0  0
    2.3310    1.2980   -0.1260 C   0  0  0  0  0  0  0  0  0  0  0  0
    2.5610    2.3700    0.7090 N   0  0  0  0  0  0  0  0  0  0  0  0
    3.8070    2.4050    0.9970 O   0  0  0  0  0  0  0  0  0  0  0  0
    4.4660    1.4340    0.4240 C   0  0  0  0  0  0  0  0  0  0  0  0
    5.7800    1.0420    0.4100 C   0  0  0  0  0  0  0  0  0  0  0  0
    6.2230   -0.0540   -0.3050 C   0  0  0  0  0  0  0  0  0  0  0  0
    7.6240   -0.4220   -0.2870 C   0  0  0  0  0  0  0  0  0  0  0  0
    8.5310    0.3510    0.4750 N   0  0  0  0  0  0  0  0  0  0  0  0
    8.0220   -1.4030   -0.9320 O   0  0  0  0  0  0  0  0  0  0  0  0
    5.2760   -0.7600   -1.0230 C   0  0  0  0  0  0  0  0  0  0  0  0
    5.6260   -1.7580   -1.6870 O   0  0  0  0  0  0  0  0  0  0  0  0
    3.9780   -0.3730   -1.0080 N   0  0  0  0  0  0  0  0  0  0  0  0
    3.5460    0.6880   -0.3160 C   0  0  0  0  0  0  0  0  0  0  0  0
   -1.0400    0.2560   -1.1090 C   0  0  0  0  0  0  0  0  0  0  0  0
   -2.2120   -0.2970   -0.7760 O   0  0  0  0  0  0  0  0  0  0  0  0
   -3.0400    0.2860    0.0550 N   0  0  0  0  0  0  0  0  0  0  0  0
   -3.3030    1.7360    0.1360 C   0  0  0  0  0  0  0  0  0  0  0  0
   -4.4690    2.1190   -0.7740 C   0  0  0  0  0  0  0  0  0  0  0  0
   -4.7270    3.4860   -0.6990 O   0  0  0  0  0  0  0  0  0  0  0  0
   -5.7310    3.7790   -1.4920 O   0  0  0  0  0  0  0  0  0  0  0  0
   -3.7660   -0.5410    0.9820 C   0  0  0  0  0  0  0  0  0  0  0  0
   -4.0370   -0.0340    2.1260 O   0  0  0  0  0  0  0  0  0  0  0  0
   -4.2010   -1.8600    0.7290 N   0  0  0  0  0  0  0  0  0  0  0  0
   -5.1550   -2.3840    1.5930 O   0  0  0  0  0  0  0  0  0  0  0  0
   -6.1120   -1.5450    1.8260 O   0  0  0  0  0  0  0  0  0  0  0  0
   -3.7830   -2.7180   -0.3120 C   0  0  0  0  0  0  0  0  0  0  0  0
   -4.6650   -3.2260   -1.0780 O   0  0  0  0  0  0  0  0  0  0  0  0
   -2.3790   -3.1120   -0.6260 C   0  0  0  0  0  0  0  0  0  0  0  0
   -1.3910   -2.7390    0.4270 C   0  0  0  0  0  0  0  0  0  0  0  0
   -0.2300   -2.2330   -0.1480 O   0  0  0  0  0  0  0  0  0  0  0  0
    0.5360   -1.1630    0.1980 C   0  0  0  0  0  0  0  0  0  0  0  0
    1.6570   -1.2480    0.7800 O   0  0  0  0  0  0  0  0  0  0  0  0
  2  1  1  1
  2  3  1  0
  2 17  1  0
  2 34  1  0
  3  4  1  0
  4  5  2  0
  4 16  1  0
  5  6  1  0
  6  7  1  0
  7  8  1  0
  7 16  2  0
  8  9  2  0
  9 10  1  0
  9 13  1  0
 10 11  1  0
 10 12  2  0
 13 14  2  0
 13 15  1  0
 15 16  1  0
 17 18  1  0
 18 19  1  0
 19 20  1  0
 19 24  1  0
 20 21  1  0
 21 22  1  0
 22 23  1  0
 24 25  2  0
 24 26  1  0
 26 27  1  0
 26 29  1  0
 27 28  1  0
 29 30  2  0
 29 31  1  0
 31 32  1  0
 32 33  1  0
 33 34  1  0
 34 35  2  0
M  END
