
     RDKit          3D

 35 37  0  0  0  0  0  0  0  0999 V2000
   -0.2130   -2.9590   -0.3610 C   0  0  0  0  0  0  0  0  0  0  0  0
   -0.4060   -2.1430    0.7820 O   0  0  0  0  0  0  0  0  0  0  0  0
   -1.6110   -2.2560    1.5350 C   0  0  0  0  0  0  0  0  0  0  0  0
   -2.4990   -1.2790    1.5420 C   0  0  0  0  0  0  0  0  0  0  0  0
   -2.5770   -0.0270    0.9440 N   0  0  0  0  0  0  0  0  0  0  0  0
   -1.6800    0.7000    0.4010 C   0  0  0  0  0  0  0  0  0  0  0  0
   -0.3840    0.3790    0.2850 N   0  0  0  0  0  0  0  0  0  0  0  0
    0.5660    1.1300   -0.2740 C   0  0  0  0  0  0  0  0  0  0  0  0
    1.9620    0.7570   -0.4140 C   0  0  0  0  0  0  0  0  0  0  0  0
    2.7670    1.5320   -0.9930 O   0  0  0  0  0  0  0  0  0  0  0  0
    2.5200   -0.4300    0.0520 O   0  0  0  0  0  0  0  0  0  0  0  0
    3.8890   -0.7270   -0.1330 C   0  0  2  0  0  0  0  0  0  0  0  0
    4.1480   -2.0190   -0.8470 C   0  0  0  0  0  0  0  0  0  0  0  0
    3.6550   -3.1310   -0.1290 O   0  0  0  0  0  0  0  0  0  0  0  0
    3.8200   -4.4190   -0.5920 C   0  0  0  0  0  0  0  0  0  0  0  0
    3.3230   -5.5570    0.1330 N   0  0  0  0  0  0  0  0  0  0  0  0
    4.4150   -4.6730   -1.6720 O   0  0  0  0  0  0  0  0  0  0  0  0
    4.6380   -0.7630    1.1680 C   0  0  0  0  0  0  0  0  0  0  0  0
    5.8530   -1.0270    1.0660 O   0  0  0  0  0  0  0  0  0  0  0  0
    4.0450   -0.5250    2.3810 O   0  0  0  0  0  0  0  0  0  0  0  0
    0.1660    2.3410   -0.7690 N   0  0  0  0  0  0  0  0  0  0  0  0
   -1.1220    2.7220   -0.6820 C   0  0  0  0  0  0  0  0  0  0  0  0
   -1.4950    4.0800   -1.2250 C   0  0  2  0  0  0  0  0  0  0  0  0
   -2.3890    3.8760   -2.4270 C   0  0  0  0  0  0  0  0  0  0  0  0
   -1.6610    3.2000   -3.4090 O   0  0  0  0  0  0  0  0  0  0  0  0
   -0.4050    4.8060   -1.5790 O   0  0  0  0  0  0  0  0  0  0  0  0
   -0.2930    5.8680   -0.7190 C   0  0  0  0  0  0  0  0  0  0  0  0
   -1.2470    5.5600    0.4020 C   0  0  0  0  0  0  0  0  0  0  0  0
   -2.1810    4.7710   -0.2230 O   0  0  0  0  0  0  0  0  0  0  0  0
   -2.0220    1.9270   -0.1140 N   0  0  0  0  0  0  0  0  0  0  0  0
   -3.8160   -2.0300    2.6540 P   0  0  0  0  0  0  0  0  0  0  0  0
   -5.2380   -2.1430    1.6210 O   0  0  0  0  0  0  0  0  0  0  0  0
   -6.0310   -3.2230    2.0090 C   0  0  0  0  0  0  0  0  0  0  0  0
   -3.1150   -3.6330    2.5920 O   0  0  0  0  0  0  0  0  0  0  0  0
   -1.8890   -3.3540    2.2620 O   0  0  0  0  0  0  0  0  0  0  0  0
  1  2  1  0
  2  3  1  0
  3  4  2  0
  3 35  1  0
  4  5  1  0
  4 31  1  0
  5  6  2  3
  6  7  1  0
  6 30  1  0
  7  8  2  0
  8  9  1  0
  8 21  1  0
  9 10  2  0
  9 11  1  0
 11 12  1  0
 12 13  1  1
 12 18  1  0
 13 14  1  0
 14 15  1  0
 15 16  1  0
 15 17  2  0
 18 19  2  0
 18 20  1  0
 21 22  1  0
 22 23  1  0
 22 30  2  0
 23 24  1  6
 23 26  1  0
 23 29  1  0
 24 25  1  0
 26 27  1  0
 27 28  1  0
 28 29  1  0
 31 32  1  0
 31 34  1  0
 32 33  1  0
 34 35  1  0
M  END
