
     RDKit          3D

 35 38  0  0  0  0  0  0  0  0999 V2000
   -2.1210    3.4780    1.1960 O   0  0  0  0  0  0  0  0  0  0  0  0
   -2.9570    2.9620    0.5480 C   0  0  0  0  0  0  0  0  0  0  0  0
   -3.8380    3.7880   -0.2080 O   0  0  0  0  0  0  0  0  0  0  0  0
   -3.5650    5.2040   -0.0880 C   0  0  0  0  0  0  0  0  0  0  0  0
   -4.3490    6.0290   -0.8110 O   0  0  0  0  0  0  0  0  0  0  0  0
   -5.6320    5.9350   -0.4570 O   0  0  0  0  0  0  0  0  0  0  0  0
   -3.1350    1.6310    0.4470 O   0  0  0  0  0  0  0  0  0  0  0  0
   -2.5070    0.5650    0.9870 C   0  0  0  0  0  0  0  0  0  0  0  0
   -1.0750    0.3720    0.6320 C   0  0  0  0  0  0  0  0  0  0  0  0
   -0.0620    1.1490    0.8710 C   0  0  0  0  0  0  0  0  0  0  0  0
    1.1780    0.8530    0.5770 N   0  0  0  0  0  0  0  0  0  0  0  0
    1.4480   -0.3310    0.0130 C   0  0  0  0  0  0  0  0  0  0  0  0
    2.8370   -0.6690   -0.2500 C   0  0  0  0  0  0  0  0  0  0  0  0
    3.0980   -1.8340   -0.6530 O   0  0  0  0  0  0  0  0  0  0  0  0
    3.8720    0.3270   -0.0480 N   0  0  0  0  0  0  0  0  0  0  0  0
    3.7210    1.6850    0.2940 C   0  0  0  0  0  0  0  0  0  0  0  0
    5.1000    2.2590    0.4350 C   0  0  0  0  0  0  0  0  0  0  0  0
    5.3820    3.3610    0.8660 O   0  0  0  0  0  0  0  0  0  0  0  0
    6.0560    1.2670   -0.0290 C   0  0  1  0  0  0  0  0  0  0  0  0
    7.1440    1.0100    0.8430 O   0  0  0  0  0  0  0  0  0  0  0  0
    8.2160    0.7090    0.2070 O   0  0  0  0  0  0  0  0  0  0  0  0
    5.2310    0.0120   -0.1440 C   0  0  0  0  0  0  0  0  0  0  0  0
    5.7920   -1.1240   -0.3080 O   0  0  0  0  0  0  0  0  0  0  0  0
    0.4340   -1.2220   -0.2460 N   0  0  0  0  0  0  0  0  0  0  0  0
   -0.8180   -0.9350    0.0340 C   0  0  0  0  0  0  0  0  0  0  0  0
   -1.7930   -1.6650   -0.0970 N   0  0  0  0  0  0  0  0  0  0  0  0
   -2.4240   -2.7790   -0.4480 C   0  0  0  0  0  0  0  0  0  0  0  0
   -3.3980   -2.8160   -1.3880 N   0  0  0  0  0  0  0  0  0  0  0  0
   -3.8440   -4.0640   -1.5530 O   0  0  0  0  0  0  0  0  0  0  0  0
   -3.7070   -4.7350   -0.2780 C   0  0  0  0  0  0  0  0  0  0  0  0
   -2.3010   -4.1660    0.0460 C   0  0  2  0  0  0  0  0  0  0  0  0
   -1.7740   -4.3940    1.3900 C   0  0  0  0  0  0  0  0  0  0  0  0
   -0.6880   -5.0150    0.7780 O   0  0  0  0  0  0  0  0  0  0  0  0
   -1.1920   -4.9950   -0.5040 C   0  0  0  0  0  0  0  0  0  0  0  0
   -0.8050   -5.5050   -1.6360 O   0  0  0  0  0  0  0  0  0  0  0  0
  1  2  2  0
  2  3  1  0
  2  7  1  0
  3  4  1  0
  4  5  1  0
  5  6  1  0
  7  8  1  0
  8  9  1  0
  9 10  2  0
  9 25  1  0
 10 11  1  0
 11 12  2  0
 12 13  1  0
 12 24  1  0
 13 14  2  0
 13 15  1  0
 15 16  1  0
 15 22  1  0
 16 17  1  0
 17 18  2  0
 17 19  1  0
 19 20  1  1
 19 22  1  0
 20 21  1  0
 22 23  2  0
 24 25  1  0
 25 26  2  3
 26 27  1  0
 27 28  2  0
 27 31  1  0
 28 29  1  0
 29 30  1  0
 31 30  1  1
 31 32  1  0
 31 34  1  0
 32 33  1  0
 33 34  1  0
 34 35  2  0
M  END
