
     RDKit          3D

 37 38  0  0  0  0  0  0  0  0999 V2000
   -3.1030    4.0610   -0.6680 C   0  0  0  0  0  0  0  0  0  0  0  0
   -2.8410    3.1840    0.5120 C   0  0  0  0  0  0  0  0  0  0  0  0
   -2.5680    1.7990    0.1520 N   0  0  0  0  0  0  0  0  0  0  0  0
   -1.3680    1.1700    0.2950 O   0  0  0  0  0  0  0  0  0  0  0  0
   -1.4880   -0.1770   -0.1610 C   0  0  0  0  0  0  0  0  0  0  0  0
   -0.4530   -1.0000   -0.1250 C   0  0  0  0  0  0  0  0  0  0  0  0
    0.8250   -0.6200    0.3570 O   0  0  0  0  0  0  0  0  0  0  0  0
    1.7200   -1.6870    0.2740 C   0  0  2  0  0  0  0  0  0  0  0  0
    2.1750   -2.1290    1.6210 C   0  0  0  0  0  0  0  0  0  0  0  0
    3.1540   -2.9970    1.8030 C   0  0  0  0  0  0  0  0  0  0  0  0
    3.8140   -3.5470    0.7550 F   0  0  0  0  0  0  0  0  0  0  0  0
    2.7930   -1.4280   -0.5740 O   0  0  0  0  0  0  0  0  0  0  0  0
    3.5400   -0.3330   -0.1580 C   0  0  0  0  0  0  0  0  0  0  0  0
    4.5830   -0.1520   -1.0600 O   0  0  0  0  0  0  0  0  0  0  0  0
    5.5170    1.2080   -0.5440 P   0  0  0  0  0  0  0  0  0  0  0  0
    5.7230    2.4050   -1.7530 O   0  0  0  0  0  0  0  0  0  0  0  0
    7.1960    0.5960   -0.0380 C   0  0  0  0  0  0  0  0  0  0  0  0
    7.4880   -0.9730   -0.8120 S   0  0  2  0  0  0  0  0  0  0  0  0
    7.3970   -0.8800   -2.3050 O   0  0  0  0  0  0  0  0  0  0  0  0
    6.4140   -1.9150   -0.3190 O   0  0  0  0  0  0  0  0  0  0  0  0
    9.0840   -1.5990   -0.3570 C   0  0  0  0  0  0  0  0  0  0  0  0
   10.2960   -0.4120   -0.9020 Cl  0  0  0  0  0  0  0  0  0  0  0  0
    0.9460   -2.8060   -0.2960 C   0  0  0  0  0  0  0  0  0  0  0  0
   -0.3050   -2.3720   -0.5140 C   0  0  0  0  0  0  0  0  0  0  0  0
   -1.3160   -3.2860   -1.0850 C   0  0  0  0  0  0  0  0  0  0  0  0
   -2.8550   -0.2670   -0.5770 C   0  0  0  0  0  0  0  0  0  0  0  0
   -3.4900   -1.3610   -1.1000 O   0  0  0  0  0  0  0  0  0  0  0  0
   -3.5090    0.9050   -0.3960 C   0  0  0  0  0  0  0  0  0  0  0  0
   -4.9420    1.1480   -0.7340 C   0  0  1  0  0  0  0  0  0  0  0  0
   -5.5530    0.0240   -1.2140 F   0  0  0  0  0  0  0  0  0  0  0  0
   -5.6950    1.6730    0.3130 O   0  0  0  0  0  0  0  0  0  0  0  0
   -5.8660    1.0280    1.5240 C   0  0  0  0  0  0  0  0  0  0  0  0
   -7.0580    0.9490    2.0430 C   0  0  0  0  0  0  0  0  0  0  0  0
   -7.2540    0.3110    3.2500 O   0  0  0  0  0  0  0  0  0  0  0  0
   -8.4820    1.6820    1.1770 P   0  0  0  0  0  0  0  0  0  0  0  0
   -8.9310    0.6650   -0.1570 O   0  0  0  0  0  0  0  0  0  0  0  0
   -8.0190    3.2180    0.5660 F   0  0  0  0  0  0  0  0  0  0  0  0
  1  2  1  0
  2  3  1  0
  3  4  1  0
  3 28  1  0
  4  5  1  0
  5  6  2  3
  5 26  1  0
  6  7  1  0
  6 24  1  0
  7  8  1  0
  8  9  1  0
  8 12  1  6
  8 23  1  0
  9 10  2  3
 10 11  1  0
 12 13  1  0
 13 14  1  0
 14 15  1  0
 15 16  1  0
 15 17  1  0
 18 17  1  1
 18 19  2  0
 18 20  2  0
 18 21  1  0
 21 22  1  0
 23 24  2  0
 24 25  1  0
 26 27  1  0
 26 28  2  0
 28 29  1  0
 29 30  1  1
 29 31  1  0
 31 32  1  0
 32 33  2  3
 33 34  1  0
 33 35  1  0
 35 36  1  0
 35 37  1  0
M  END
