
     RDKit          3D

 35 36  0  0  0  0  0  0  0  0999 V2000
   -3.9170   -2.4770    2.3190 C   0  0  0  0  0  0  0  0  0  0  0  0
   -4.1690   -1.3600    1.4210 C   0  0  0  0  0  0  0  0  0  0  0  0
   -3.1650   -0.8690    0.4910 N   0  0  0  0  0  0  0  0  0  0  0  0
   -3.1690   -1.4760   -0.7960 C   0  0  0  0  0  0  0  0  0  0  0  0
   -4.3450   -1.6130   -1.3840 O   0  0  0  0  0  0  0  0  0  0  0  0
   -2.1030   -1.9750   -1.5700 N   0  0  0  0  0  0  0  0  0  0  0  0
   -1.1560   -2.9810   -1.2010 C   0  0  0  0  0  0  0  0  0  0  0  0
   -0.4030   -3.5250   -2.0870 O   0  0  0  0  0  0  0  0  0  0  0  0
   -1.0190   -3.4220    0.1860 C   0  0  0  0  0  0  0  0  0  0  0  0
    0.4500   -3.6470    0.5710 C   0  0  0  0  0  0  0  0  0  0  0  0
    1.3100   -2.7550   -0.2770 C   0  0  0  0  0  0  0  0  0  0  0  0
    2.3000   -2.1100    0.4830 O   0  0  0  0  0  0  0  0  0  0  0  0
    2.1120   -0.7240    0.2830 C   0  0  2  0  0  0  0  0  0  0  0  0
    3.4060   -0.0660    0.5680 C   0  0  0  0  0  0  0  0  0  0  0  0
    3.4380    1.4430    0.5150 C   0  0  0  0  0  0  0  0  0  0  0  0
    4.8380    1.8750    0.5380 N   0  0  0  0  0  0  0  0  0  0  0  0
    5.5110    2.3380   -0.5610 C   0  0  0  0  0  0  0  0  0  0  0  0
    4.9380    2.5830   -1.6650 O   0  0  0  0  0  0  0  0  0  0  0  0
    6.7750    2.4390   -0.1870 N   0  0  0  0  0  0  0  0  0  0  0  0
    6.8960    2.0780    1.0590 O   0  0  0  0  0  0  0  0  0  0  0  0
    5.7020    1.7260    1.5270 C   0  0  0  0  0  0  0  0  0  0  0  0
    5.5540    1.3390    2.6960 O   0  0  0  0  0  0  0  0  0  0  0  0
    0.8920   -0.2450    0.9120 C   0  0  0  0  0  0  0  0  0  0  0  0
   -0.0040    0.4350   -0.0900 C   0  0  0  0  0  0  0  0  0  0  0  0
    0.4290    0.6130   -1.2480 O   0  0  0  0  0  0  0  0  0  0  0  0
   -1.2970    0.8890    0.1960 N   0  0  0  0  0  0  0  0  0  0  0  0
   -1.6070    2.2670   -0.1390 C   0  0  0  0  0  0  0  0  0  0  0  0
   -1.5280    3.0340    0.8510 O   0  0  0  0  0  0  0  0  0  0  0  0
   -2.0130    2.7700   -1.4510 C   0  0  0  0  0  0  0  0  0  0  0  0
   -2.3290    4.1410   -1.1510 O   0  0  0  0  0  0  0  0  0  0  0  0
   -3.6380    4.3650   -1.5330 O   0  0  0  0  0  0  0  0  0  0  0  0
   -4.1650    4.5190   -0.2130 O   0  0  0  0  0  0  0  0  0  0  0  0
   -4.2510    5.8350   -0.0900 O   0  0  0  0  0  0  0  0  0  0  0  0
   -2.3440    0.2500    0.9070 C   0  0  0  0  0  0  0  0  0  0  0  0
   -2.6180    0.7250    2.0780 O   0  0  0  0  0  0  0  0  0  0  0  0
  1  2  1  0
  2  3  1  0
  3  4  1  0
  3 34  1  0
  4  5  2  0
  4  6  1  0
  6  7  1  0
  7  8  2  0
  7  9  1  0
  9 10  1  0
 10 11  1  0
 11 12  1  0
 12 13  1  0
 13 14  1  1
 13 23  1  0
 14 15  1  0
 15 16  1  0
 16 17  1  0
 16 21  1  0
 17 18  2  0
 17 19  1  0
 19 20  1  0
 20 21  1  0
 21 22  2  0
 23 24  1  0
 24 25  2  0
 24 26  1  0
 26 27  1  0
 26 34  1  0
 27 28  2  0
 27 29  1  0
 29 30  1  0
 30 31  1  0
 31 32  1  0
 32 33  1  0
 34 35  2  0
M  END
