
     RDKit          3D

 37 38  0  0  0  0  0  0  0  0999 V2000
   -4.4750    3.3910    3.2990 C   0  0  0  0  0  0  0  0  0  0  0  0
   -4.3960    3.2250    1.8170 C   0  0  0  0  0  0  0  0  0  0  0  0
   -3.6170    1.9770    1.4540 C   0  0  2  0  0  0  0  0  0  0  0  0
   -2.2300    2.0960    1.9980 C   0  0  0  0  0  0  0  0  0  0  0  0
   -3.6430    1.9290   -0.0900 C   0  0  2  0  0  0  0  0  0  0  0  0
   -5.0440    1.8560   -0.4610 N   0  0  0  0  0  0  0  0  0  0  0  0
   -5.6890    2.9380   -1.0990 C   0  0  0  0  0  0  0  0  0  0  0  0
   -7.1460    2.8600   -1.4880 C   0  0  0  0  0  0  0  0  0  0  0  0
   -5.0090    3.9660   -1.3340 O   0  0  0  0  0  0  0  0  0  0  0  0
   -2.8670    0.7900   -0.5840 C   0  0  0  0  0  0  0  0  0  0  0  0
   -3.4670   -0.3330   -0.7240 O   0  0  0  0  0  0  0  0  0  0  0  0
   -1.5230    0.8630   -0.9120 N   0  0  0  0  0  0  0  0  0  0  0  0
   -0.7210   -0.2660   -1.4100 C   0  0  1  0  0  0  0  0  0  0  0  0
   -0.5670   -0.1070   -2.9170 C   0  0  0  0  0  0  0  0  0  0  0  0
    0.2290   -1.2320   -3.4460 C   0  0  0  0  0  0  0  0  0  0  0  0
    1.5880   -1.2040   -3.5780 C   0  0  0  0  0  0  0  0  0  0  0  0
    2.2790   -2.2710   -4.1030 C   0  0  0  0  0  0  0  0  0  0  0  0
    1.6320   -3.4250   -4.5220 C   0  0  0  0  0  0  0  0  0  0  0  0
    2.2870   -4.5230   -5.0560 O   0  0  0  0  0  0  0  0  0  0  0  0
    0.2700   -3.4690   -4.3950 C   0  0  0  0  0  0  0  0  0  0  0  0
   -0.4170   -2.4020   -3.8700 C   0  0  0  0  0  0  0  0  0  0  0  0
    0.5950   -0.2270   -0.7810 C   0  0  0  0  0  0  0  0  0  0  0  0
    1.1870    0.9100   -0.6940 O   0  0  0  0  0  0  0  0  0  0  0  0
    1.2150   -1.3870   -0.2730 N   0  0  0  0  0  0  0  0  0  0  0  0
    2.5480   -1.2300    0.3400 C   0  0  1  0  0  0  0  0  0  0  0  0
    2.1930   -0.7030    1.7490 C   0  0  0  0  0  0  0  0  0  0  0  0
    3.3840   -0.4410    2.5740 C   0  0  0  0  0  0  0  0  0  0  0  0
    4.0870    0.7670    2.4750 C   0  0  0  0  0  0  0  0  0  0  0  0
    5.1930    1.0060    3.2710 C   0  0  0  0  0  0  0  0  0  0  0  0
    5.6480    0.0730    4.1880 C   0  0  0  0  0  0  0  0  0  0  0  0
    6.7710    0.3490    4.9750 O   0  0  0  0  0  0  0  0  0  0  0  0
    4.9580   -1.1150    4.2850 C   0  0  0  0  0  0  0  0  0  0  0  0
    3.8410   -1.3600    3.4840 C   0  0  0  0  0  0  0  0  0  0  0  0
    3.6710   -2.5070    0.2380 P   0  0  0  0  0  0  0  0  0  0  0  0
    3.8380   -3.6670    1.3810 O   0  0  0  0  0  0  0  0  0  0  0  0
    4.8630   -2.4560   -0.9980 O   0  0  0  0  0  0  0  0  0  0  0  0
    2.8870   -3.4500   -0.6780 O   0  0  0  0  0  0  0  0  0  0  0  0
  1  2  1  0
  2  3  1  0
  3  4  1  6
  3  5  1  0
  5  6  1  1
  5 10  1  0
  6  7  1  0
  7  8  1  0
  7  9  2  0
 10 11  2  0
 10 12  1  0
 12 13  1  0
 13 14  1  6
 13 22  1  0
 14 15  1  0
 15 16  2  0
 15 21  1  0
 16 17  1  0
 17 18  2  0
 18 19  1  0
 18 20  1  0
 20 21  2  0
 22 23  2  0
 22 24  1  0
 24 25  1  0
 25 26  1  1
 25 34  1  0
 26 27  1  0
 27 28  2  0
 27 33  1  0
 28 29  1  0
 29 30  2  0
 30 31  1  0
 30 32  1  0
 32 33  2  0
 34 35  1  0
 34 36  1  0
 34 37  1  0
M  END
