
     RDKit          3D

  6  5  0  0  0  0  0  0  0  0999 V2000
   -1.5480   -0.6030    0.4500 C   0  0  0  0  0  0  0  0  0  0  0  0
   -1.1170    0.1320   -0.7980 C   0  0  0  0  0  0  0  0  0  0  0  0
    0.3360    0.5840   -0.5860 C   0  0  2  0  0  0  0  0  0  0  0  0
    0.7510    1.2650   -1.7300 O   0  0  0  0  0  0  0  0  0  0  0  0
    1.0650   -0.5440   -0.3240 O   0  0  0  0  0  0  0  0  0  0  0  0
    1.6720   -0.5580    0.9230 C   0  0  0  0  0  0  0  0  0  0  0  0
  1  2  1  0
  2  3  1  0
  3  4  1  6
  3  5  1  0
  5  6  1  0
M  END
