
     RDKit          3D

  6  5  0  0  0  0  0  0  0  0999 V2000
   -1.8890    0.1240    0.1510 C   0  0  0  0  0  0  0  0  0  0  0  0
   -0.6050    0.4980   -0.4930 C   0  0  0  0  0  0  0  0  0  0  0  0
   -0.3960    1.6300   -0.8280 O   0  0  0  0  0  0  0  0  0  0  0  0
    0.4170   -0.5680   -0.7120 C   0  0  0  0  0  0  0  0  0  0  0  0
    1.4520   -0.3970    0.3950 C   0  0  0  0  0  0  0  0  0  0  0  0
    1.9810    0.8760    0.2570 O   0  0  0  0  0  0  0  0  0  0  0  0
  1  2  1  0
  2  3  2  0
  2  4  1  0
  4  5  1  0
  5  6  1  0
M  END
