
     RDKit          3D

  6  5  0  0  0  0  0  0  0  0999 V2000
   -1.3400   -0.9280   -0.2530 C   0  0  0  0  0  0  0  0  0  0  0  0
   -0.4660    0.1340    0.3940 C   0  0  1  0  0  0  0  0  0  0  0  0
   -0.9600    0.5100    1.7570 C   0  0  0  0  0  0  0  0  0  0  0  0
    0.8250   -0.2620    0.3180 O   0  0  0  0  0  0  0  0  0  0  0  0
    1.6530    0.4870   -0.4780 C   0  0  0  0  0  0  0  0  0  0  0  0
    2.9320   -0.0900   -0.4150 O   0  0  0  0  0  0  0  0  0  0  0  0
  2  1  1  1
  2  3  1  0
  2  4  1  0
  4  5  1  0
  5  6  1  0
M  END
