
     RDKit          3D

  6  5  0  0  0  0  0  0  0  0999 V2000
   -0.8740   -0.9650   -0.7280 C   0  0  0  0  0  0  0  0  0  0  0  0
   -0.2470   -0.0200    0.2700 C   0  0  1  0  0  0  0  0  0  0  0  0
   -0.7130    1.3790   -0.0990 C   0  0  0  0  0  0  0  0  0  0  0  0
   -0.6390   -0.3910    1.5360 O   0  0  0  0  0  0  0  0  0  0  0  0
    1.2640   -0.0300    0.1730 C   0  0  0  0  0  0  0  0  0  0  0  0
    1.8060   -1.2780    0.4300 O   0  0  0  0  0  0  0  0  0  0  0  0
  2  1  1  6
  2  3  1  0
  2  4  1  0
  2  5  1  0
  5  6  1  0
M  END
