
     RDKit          3D

  6  5  0  0  0  0  0  0  0  0999 V2000
    2.0370    0.9700   -0.2290 C   0  0  0  0  0  0  0  0  0  0  0  0
    0.8000    0.3630   -0.4700 O   0  0  0  0  0  0  0  0  0  0  0  0
    0.5390   -0.4790    0.5780 C   0  0  0  0  0  0  0  0  0  0  0  0
   -0.7540   -1.2220    0.4940 C   0  0  0  0  0  0  0  0  0  0  0  0
   -1.8860   -0.4590    0.4390 O   0  0  0  0  0  0  0  0  0  0  0  0
   -1.9920    0.4050   -0.6190 C   0  0  0  0  0  0  0  0  0  0  0  0
  1  2  1  0
  2  3  1  0
  3  4  1  0
  4  5  1  0
  5  6  1  0
M  END
