
     RDKit          3D

  6  5  0  0  0  0  0  0  0  0999 V2000
   -1.3850   -0.3330    0.5810 C   0  0  0  0  0  0  0  0  0  0  0  0
   -0.1320    0.1540   -0.0780 C   0  0  2  0  0  0  0  0  0  0  0  0
   -0.2780    0.3710   -1.5510 C   0  0  0  0  0  0  0  0  0  0  0  0
    0.9200   -0.7170    0.2630 O   0  0  0  0  0  0  0  0  0  0  0  0
    2.0140   -0.3740    1.0140 C   0  0  0  0  0  0  0  0  0  0  0  0
    2.1310    0.7800    1.4510 O   0  0  0  0  0  0  0  0  0  0  0  0
  2  1  1  6
  2  3  1  0
  2  4  1  0
  4  5  1  0
  5  6  2  0
M  END
