
     RDKit          3D

  5  4  0  0  0  0  0  0  0  0999 V2000
    1.9170    0.3120    0.2340 C   0  0  0  0  0  0  0  0  0  0  0  0
    0.6470    0.5580   -0.2770 O   0  0  0  0  0  0  0  0  0  0  0  0
    0.0560   -0.5970   -0.7860 C   0  0  0  0  0  0  0  0  0  0  0  0
   -1.1920   -0.2450   -1.2650 O   0  0  0  0  0  0  0  0  0  0  0  0
   -2.0220    0.2840   -0.2980 C   0  0  0  0  0  0  0  0  0  0  0  0
  1  2  1  0
  2  3  1  0
  3  4  1  0
  4  5  1  0
M  END
