
     RDKit          3D

 19 20  0  0  0  0  0  0  0  0999 V2000
   -3.4780    1.4710    0.7760 C   0  0  0  0  0  0  0  0  0  0  0  0
   -3.4020    0.1810    0.0150 C   0  0  2  0  0  0  0  0  0  0  0  0
   -4.0780    0.3640   -1.3240 C   0  0  0  0  0  0  0  0  0  0  0  0
   -4.1390   -0.8830    0.7920 C   0  0  0  0  0  0  0  0  0  0  0  0
   -2.0030   -0.2650   -0.1970 C   0  0  0  0  0  0  0  0  0  0  0  0
   -0.9120    0.4060    0.2400 C   0  0  0  0  0  0  0  0  0  0  0  0
    0.4190   -0.0330    0.0300 C   0  0  0  0  0  0  0  0  0  0  0  0
    1.5010    0.7890    0.4850 C   0  0  0  0  0  0  0  0  0  0  0  0
    1.1910    2.0270    0.8390 O   0  0  0  0  0  0  0  0  0  0  0  0
    2.8390    0.5110    0.6240 N   0  0  0  0  0  0  0  0  0  0  0  0
    3.5320   -0.7140    0.4200 C   0  0  0  0  0  0  0  0  0  0  0  0
    4.2580   -0.5830   -0.9040 C   0  0  0  0  0  0  0  0  0  0  0  0
    4.7500    0.7210   -1.0570 O   0  0  0  0  0  0  0  0  0  0  0  0
    5.0020    1.3560    0.1540 C   0  0  0  0  0  0  0  0  0  0  0  0
    3.7900    1.6250    0.9900 C   0  0  0  0  0  0  0  0  0  0  0  0
    0.5380   -1.2020   -0.6600 C   0  0  0  0  0  0  0  0  0  0  0  0
   -0.5660   -1.9350   -1.1340 C   0  0  0  0  0  0  0  0  0  0  0  0
   -1.8320   -1.4560   -0.8970 C   0  0  0  0  0  0  0  0  0  0  0  0
   -2.9280   -2.1600   -1.3530 O   0  0  0  0  0  0  0  0  0  0  0  0
  2  1  1  1
  2  3  1  0
  2  4  1  0
  2  5  1  0
  5  6  2  0
  5 18  1  0
  6  7  1  0
  7  8  1  0
  7 16  2  0
  8  9  2  0
  8 10  1  0
 10 11  1  0
 10 15  1  0
 11 12  1  0
 12 13  1  0
 13 14  1  0
 14 15  1  0
 16 17  1  0
 17 18  2  0
 18 19  1  0
M  END
