
     RDKit          3D

  6  5  0  0  0  0  0  0  0  0999 V2000
    2.0910    0.5290   -0.2980 C   0  0  0  0  0  0  0  0  0  0  0  0
    0.7190    0.5820   -0.0740 O   0  0  0  0  0  0  0  0  0  0  0  0
    0.2530   -0.6880    0.2240 C   0  0  0  0  0  0  0  0  0  0  0  0
   -1.2040   -0.7160    0.4760 C   0  0  0  0  0  0  0  0  0  0  0  0
   -2.0330    0.5030    0.4060 C   0  0  0  0  0  0  0  0  0  0  0  0
   -1.7340   -1.7740    0.7480 O   0  0  0  0  0  0  0  0  0  0  0  0
  1  2  1  0
  2  3  1  0
  3  4  1  0
  4  5  1  0
  4  6  2  0
M  END
