
     RDKit          3D

 10 10  0  0  0  0  0  0  0  0999 V2000
    3.2890   -0.7360    0.5170 O   0  0  0  0  0  0  0  0  0  0  0  0
    1.8970   -0.7220    0.6200 C   0  0  0  0  0  0  0  0  0  0  0  0
    1.3660    0.2500   -0.3690 C   0  0  2  0  0  0  0  0  0  0  0  0
    1.8930    1.5090   -0.0720 O   0  0  0  0  0  0  0  0  0  0  0  0
   -0.1150    0.3720   -0.4160 C   0  0  2  0  0  0  0  0  0  0  0  0
   -0.4510    1.2970   -1.4100 O   0  0  0  0  0  0  0  0  0  0  0  0
   -0.7480    0.8220    0.8560 C   0  0  0  0  0  0  0  0  0  0  0  0
   -2.1650    0.2920    0.7220 C   0  0  0  0  0  0  0  0  0  0  0  0
   -2.2230   -0.4520   -0.5050 N   0  0  0  0  0  0  0  0  0  0  0  0
   -0.8450   -0.8980   -0.7200 C   0  0  0  0  0  0  0  0  0  0  0  0
  1  2  1  0
  2  3  1  0
  3  4  1  1
  3  5  1  0
  5  6  1  6
  5  7  1  0
  5 10  1  0
  7  8  1  0
  8  9  1  0
  9 10  1  0
M  CHG  1   9   1
M  END
