
     RDKit          3D

 10 10  0  0  0  0  0  0  0  0999 V2000
   -2.7610   -0.9250    0.1590 O   0  0  0  0  0  0  0  0  0  0  0  0
   -2.0360    0.2500   -0.0220 C   0  0  1  0  0  0  0  0  0  0  0  0
   -2.0680    0.9330    1.1930 O   0  0  0  0  0  0  0  0  0  0  0  0
   -0.5870   -0.1290   -0.3200 C   0  0  2  0  0  0  0  0  0  0  0  0
   -0.4810   -0.8990   -1.4540 O   0  0  0  0  0  0  0  0  0  0  0  0
   -0.0590   -0.8690    0.8570 C   0  0  0  0  0  0  0  0  0  0  0  0
    1.4090   -0.9960    0.9370 C   0  0  0  0  0  0  0  0  0  0  0  0
    2.2230   -0.0430    0.1680 C   0  0  0  0  0  0  0  0  0  0  0  0
    1.5630    0.7140   -0.8370 N   0  0  0  0  0  0  0  0  0  0  0  0
    0.2280    1.1330   -0.4960 C   0  0  0  0  0  0  0  0  0  0  0  0
  2  1  1  1
  2  3  1  0
  2  4  1  0
  4  5  1  6
  4  6  1  0
  4 10  1  0
  6  7  1  0
  7  8  1  0
  8  9  1  0
  9 10  1  0
M  CHG  1   9   1
M  END
