
     RDKit          3D

 10 10  0  0  0  0  0  0  0  0999 V2000
    2.5400    1.0100   -0.4800 C   0  0  0  0  0  0  0  0  0  0  0  0
    1.2440    0.5670   -0.7220 O   0  0  0  0  0  0  0  0  0  0  0  0
    1.0130   -0.5660    0.0350 C   0  0  2  0  0  0  0  0  0  0  0  0
    0.6170   -1.6730   -0.9550 C   0  0  0  0  0  0  0  0  0  0  0  0
   -0.6860   -1.4110   -1.2810 O   0  0  0  0  0  0  0  0  0  0  0  0
   -1.2850   -0.7040   -0.2590 C   0  0  2  0  0  0  0  0  0  0  0  0
   -1.8690    0.5910   -0.7990 C   0  0  0  0  0  0  0  0  0  0  0  0
   -2.4810    1.3250    0.2060 O   0  0  0  0  0  0  0  0  0  0  0  0
   -0.2760   -0.5090    0.8140 C   0  0  2  0  0  0  0  0  0  0  0  0
   -0.4250    0.6540    1.6130 N   0  0  0  0  0  0  0  0  0  0  0  0
  1  2  1  0
  3  2  1  6
  3  4  1  0
  3  9  1  0
  4  5  1  0
  5  6  1  0
  6  7  1  6
  6  9  1  0
  7  8  1  0
  9 10  1  6
M  CHG  1  10   1
M  END
