
     RDKit          3D

 10 10  0  0  0  0  0  0  0  0999 V2000
   -1.9650    1.3740    0.9850 C   0  0  0  0  0  0  0  0  0  0  0  0
   -0.8200    0.7820    0.2000 C   0  0  1  0  0  0  0  0  0  0  0  0
    0.3940    1.0170    0.7950 O   0  0  0  0  0  0  0  0  0  0  0  0
    1.2810    0.0410    0.4330 C   0  0  2  0  0  0  0  0  0  0  0  0
    1.7040   -0.6690    1.5550 O   0  0  0  0  0  0  0  0  0  0  0  0
    2.4580    0.6200   -0.3170 C   0  0  0  0  0  0  0  0  0  0  0  0
    2.0490    1.2670   -1.4790 O   0  0  0  0  0  0  0  0  0  0  0  0
    0.5210   -0.9640   -0.4360 C   0  0  0  0  0  0  0  0  0  0  0  0
   -0.8750   -0.7290    0.1600 C   0  0  2  0  0  0  0  0  0  0  0  0
   -1.9130   -1.2530   -0.6490 N   0  0  0  0  0  0  0  0  0  0  0  0
  2  1  1  1
  2  3  1  0
  2  9  1  0
  3  4  1  0
  4  5  1  1
  4  6  1  0
  4  8  1  0
  6  7  1  0
  8  9  1  0
  9 10  1  6
M  CHG  1  10   1
M  END
