
     RDKit          3D

 10 10  0  0  0  0  0  0  0  0999 V2000
   -1.6730   -1.1250   -0.9970 N   0  0  0  0  0  0  0  0  0  0  0  0
   -1.1730   -0.6300    0.2500 C   0  0  1  0  0  0  0  0  0  0  0  0
    0.2620   -0.9800    0.5080 C   0  0  0  0  0  0  0  0  0  0  0  0
    1.1290   -0.1560   -0.4110 C   0  0  2  0  0  0  0  0  0  0  0  0
    2.5660   -0.4960   -0.1140 C   0  0  0  0  0  0  0  0  0  0  0  0
    3.4200    0.2890   -0.9140 O   0  0  0  0  0  0  0  0  0  0  0  0
    0.9280    1.1930   -0.1300 O   0  0  0  0  0  0  0  0  0  0  0  0
   -0.3710    1.5590   -0.5460 C   0  0  0  0  0  0  0  0  0  0  0  0
   -1.3230    0.8590    0.4030 C   0  0  1  0  0  0  0  0  0  0  0  0
   -2.6200    1.2870    0.2820 O   0  0  0  0  0  0  0  0  0  0  0  0
  2  1  1  6
  2  3  1  0
  2  9  1  0
  3  4  1  0
  4  5  1  1
  4  7  1  0
  5  6  1  0
  7  8  1  0
  8  9  1  0
  9 10  1  6
M  CHG  1   1   1
M  END
