
     RDKit          3D

 10 10  0  0  0  0  0  0  0  0999 V2000
   -1.5900   -0.5020    0.8430 N   0  0  0  0  0  0  0  0  0  0  0  0
   -0.6040   -0.0850   -0.1230 C   0  0  2  0  0  0  0  0  0  0  0  0
   -1.2950    0.6740   -1.2410 C   0  0  0  0  0  0  0  0  0  0  0  0
   -1.9510    1.7930   -0.7850 O   0  0  0  0  0  0  0  0  0  0  0  0
    0.0630   -1.3210   -0.6750 C   0  0  0  0  0  0  0  0  0  0  0  0
    1.3680   -1.4980    0.1000 C   0  0  0  0  0  0  0  0  0  0  0  0
    2.2840   -0.5590   -0.3800 O   0  0  0  0  0  0  0  0  0  0  0  0
    1.7090    0.6850   -0.3630 C   0  0  2  0  0  0  0  0  0  0  0  0
    2.6080    1.6790    0.0440 O   0  0  0  0  0  0  0  0  0  0  0  0
    0.4690    0.7790    0.4830 C   0  0  0  0  0  0  0  0  0  0  0  0
  2  1  1  1
  2  3  1  0
  2  5  1  0
  2 10  1  0
  3  4  1  0
  5  6  1  0
  6  7  1  0
  7  8  1  0
  8  9  1  1
  8 10  1  0
M  CHG  1   1   1
M  END
