
     RDKit          3D

 10 10  0  0  0  0  0  0  0  0999 V2000
   -2.9070    0.7150    0.7140 N   0  0  0  0  0  0  0  0  0  0  0  0
   -2.0170   -0.1350   -0.0480 C   0  0  0  0  0  0  0  0  0  0  0  0
   -0.6020   -0.1030    0.5280 C   0  0  2  0  0  0  0  0  0  0  0  0
   -0.1060    1.1620    0.5010 O   0  0  0  0  0  0  0  0  0  0  0  0
    0.9690    1.3760   -0.3180 C   0  0  0  0  0  0  0  0  0  0  0  0
    2.0950    0.4580    0.1630 C   0  0  2  0  0  0  0  0  0  0  0  0
    3.2410    0.7830   -0.5870 O   0  0  0  0  0  0  0  0  0  0  0  0
    1.6630   -0.9480   -0.1590 C   0  0  0  0  0  0  0  0  0  0  0  0
    0.1900   -1.1450   -0.1570 C   0  0  1  0  0  0  0  0  0  0  0  0
   -0.0910   -2.3810    0.4670 O   0  0  0  0  0  0  0  0  0  0  0  0
  1  2  1  0
  3  2  1  6
  3  4  1  0
  3  9  1  0
  4  5  1  0
  5  6  1  0
  6  7  1  6
  6  8  1  0
  8  9  1  0
  9 10  1  1
M  CHG  1   1   1
M  END
