
     RDKit          3D

 10 10  0  0  0  0  0  0  0  0999 V2000
   -2.4410    0.4150   -0.5820 C   0  0  0  0  0  0  0  0  0  0  0  0
   -0.9730    0.1600   -0.5570 C   0  0  2  0  0  0  0  0  0  0  0  0
   -0.7080   -1.2140   -0.2240 N   0  0  0  0  0  0  0  0  0  0  0  0
    0.6740   -1.5640   -0.2080 C   0  0  0  0  0  0  0  0  0  0  0  0
    1.5760   -0.5730    0.4350 C   0  0  1  0  0  0  0  0  0  0  0  0
    2.8770   -0.8050   -0.0430 O   0  0  0  0  0  0  0  0  0  0  0  0
    1.2480    0.8660    0.0730 C   0  0  2  0  0  0  0  0  0  0  0  0
    2.0120    1.7050    0.8520 O   0  0  0  0  0  0  0  0  0  0  0  0
   -0.2320    1.0450    0.4360 C   0  0  2  0  0  0  0  0  0  0  0  0
   -0.3530    0.5250    1.7360 O   0  0  0  0  0  0  0  0  0  0  0  0
  2  1  1  1
  2  3  1  0
  2  9  1  0
  3  4  1  0
  4  5  1  0
  5  6  1  6
  5  7  1  0
  7  8  1  1
  7  9  1  0
  9 10  1  1
M  CHG  1   3   1
M  END
