
     RDKit          3D

 28 31  0  0  0  0  0  0  0  0999 V2000
   -4.0510   -2.2610   -1.1740 C   0  0  0  0  0  0  0  0  0  0  0  0
   -3.9280   -0.8790   -0.5740 C   0  0  2  0  0  0  0  0  0  0  0  0
   -2.6310   -0.6780    0.0420 N   0  0  0  0  0  0  0  0  0  0  0  0
   -2.4030    0.7560    0.0980 C   0  0  2  0  0  0  0  0  0  0  0  0
   -1.2750    1.0940    1.0350 C   0  0  0  0  0  0  0  0  0  0  0  0
   -0.0380    0.4760    0.5910 N   0  0  0  0  0  0  0  0  0  0  0  0
    0.5390    0.8320   -0.6430 C   0  0  0  0  0  0  0  0  0  0  0  0
   -0.0900    1.7190   -1.3540 O   0  0  0  0  0  0  0  0  0  0  0  0
    1.7540    0.3140   -1.2160 C   0  0  0  0  0  0  0  0  0  0  0  0
    1.7470   -0.0310   -2.5830 C   0  0  0  0  0  0  0  0  0  0  0  0
    2.8500   -0.6010   -3.1940 C   0  0  0  0  0  0  0  0  0  0  0  0
    3.9710   -0.8260   -2.4310 C   0  0  0  0  0  0  0  0  0  0  0  0
    4.0160   -0.5010   -1.0960 C   0  0  0  0  0  0  0  0  0  0  0  0
    2.8850    0.0730   -0.5040 C   0  0  0  0  0  0  0  0  0  0  0  0
    3.2530    0.3330    0.8940 C   0  0  0  0  0  0  0  0  0  0  0  0
    2.5900    0.8340    1.8080 O   0  0  0  0  0  0  0  0  0  0  0  0
    4.6410   -0.1260    1.0640 C   0  0  0  0  0  0  0  0  0  0  0  0
    5.4520   -0.1070    2.1850 C   0  0  0  0  0  0  0  0  0  0  0  0
    6.7340   -0.6070    2.0630 C   0  0  0  0  0  0  0  0  0  0  0  0
    7.1920   -1.1100    0.8610 C   0  0  0  0  0  0  0  0  0  0  0  0
    6.3980   -1.1300   -0.2420 C   0  0  0  0  0  0  0  0  0  0  0  0
    5.0990   -0.6270   -0.1330 C   0  0  0  0  0  0  0  0  0  0  0  0
   -3.6620    1.4960    0.4100 C   0  0  1  0  0  0  0  0  0  0  0  0
   -4.2710    2.0430   -0.7440 O   0  0  0  0  0  0  0  0  0  0  0  0
   -4.7120    0.7080    1.1270 C   0  0  2  0  0  0  0  0  0  0  0  0
   -4.4540    0.5930    2.4970 O   0  0  0  0  0  0  0  0  0  0  0  0
   -4.9790   -0.6300    0.4850 C   0  0  2  0  0  0  0  0  0  0  0  0
   -4.9460   -1.5840    1.4960 O   0  0  0  0  0  0  0  0  0  0  0  0
  2  1  1  1
  2  3  1  0
  2 27  1  0
  3  4  1  0
  4  5  1  1
  4 23  1  0
  5  6  1  0
  6  7  1  0
  7  8  2  0
  7  9  1  0
  9 10  2  0
  9 14  1  0
 10 11  1  0
 11 12  2  0
 12 13  1  0
 13 14  2  0
 13 22  1  0
 14 15  1  0
 15 16  2  0
 15 17  1  0
 17 18  2  0
 17 22  1  0
 18 19  1  0
 19 20  2  0
 20 21  1  0
 21 22  2  0
 23 24  1  6
 23 25  1  0
 25 26  1  1
 25 27  1  0
 27 28  1  1
M  CHG  1   3   1
M  END
