
     RDKit          3D

 14 14  0  0  0  0  0  0  0  0999 V2000
   -2.6170    1.3400   -0.6560 C   0  0  0  0  0  0  0  0  0  0  0  0
   -2.2270    0.4130   -1.2330 C   0  0  0  0  0  0  0  0  0  0  0  0
   -1.6940   -0.7900   -1.9770 C   0  0  0  0  0  0  0  0  0  0  0  0
   -2.4400   -1.1660   -3.0000 C   0  0  0  0  0  0  0  0  0  0  0  0
   -0.5700   -1.4550   -1.4720 C   0  0  0  0  0  0  0  0  0  0  0  0
    0.2620   -1.2200   -0.5480 C   0  0  0  0  0  0  0  0  0  0  0  0
    1.3080   -1.2700    0.3450 C   0  0  0  0  0  0  0  0  0  0  0  0
    1.4000   -0.2250    1.2220 C   0  0  0  0  0  0  0  0  0  0  0  0
    0.5870    0.8820    1.3260 O   0  0  0  0  0  0  0  0  0  0  0  0
    1.0160    1.7540    2.3790 C   0  0  0  0  0  0  0  0  0  0  0  0
    0.1670    3.2680    2.7450 S   0  0  0  0  0  0  0  0  0  0  0  0
    2.0820    1.1770    2.9060 C   0  0  0  0  0  0  0  0  0  0  0  0
    2.3990   -0.0610    2.2570 C   0  0  0  0  0  0  0  0  0  0  0  0
    3.3360   -0.8950    2.4830 O   0  0  0  0  0  0  0  0  0  0  0  0
  1  2  3  0
  2  3  1  0
  3  4  2  0
  3  5  1  0
  5  6  2  3
  6  7  1  0
  7  8  2  3
  8  9  1  0
  8 13  1  0
  9 10  1  0
 10 11  1  0
 10 12  2  0
 12 13  1  0
 13 14  2  0
M  END
