
     RDKit          3D

 22 23  0  0  0  0  0  0  0  0999 V2000
    0.6110    0.3470    1.2190 O   0  0  0  0  0  0  0  0  0  0  0  0
    1.3500   -0.1170    0.3380 C   0  0  0  0  0  0  0  0  0  0  0  0
    0.8180   -1.0250   -0.5040 O   0  0  0  0  0  0  0  0  0  0  0  0
   -0.4370   -1.5830   -0.6200 C   0  0  1  0  0  0  0  0  0  0  0  0
   -0.0730   -2.5040   -1.7940 O   0  0  0  0  0  0  0  0  0  0  0  0
   -0.8560   -2.6050    0.3540 C   0  0  0  0  0  0  0  0  0  0  0  0
   -0.8740   -2.2910    1.8000 C   0  0  0  0  0  0  0  0  0  0  0  0
   -1.3140   -3.4840    2.4570 O   0  0  0  0  0  0  0  0  0  0  0  0
   -1.4560   -0.7640   -1.3170 C   0  0  0  0  0  0  0  0  0  0  0  0
   -1.7920    0.5620   -0.7610 C   0  0  1  0  0  0  0  0  0  0  0  0
   -2.8490    1.2380   -1.7250 C   0  0  0  0  0  0  0  0  0  0  0  0
   -3.0900    2.5020   -0.9300 C   0  0  0  0  0  0  0  0  0  0  0  0
   -3.4450    1.9100    0.4170 C   0  0  0  0  0  0  0  0  0  0  0  0
   -2.6450    0.5880    0.4760 C   0  0  1  0  0  0  0  0  0  0  0  0
   -3.5290   -0.4790    0.5400 O   0  0  0  0  0  0  0  0  0  0  0  0
    2.7660    0.3120    0.2160 C   0  0  0  0  0  0  0  0  0  0  0  0
    3.2780    1.1920    1.0340 C   0  0  0  0  0  0  0  0  0  0  0  0
    4.6510    1.6000    0.9070 C   0  0  0  0  0  0  0  0  0  0  0  0
    5.2140    2.5280    1.7590 O   0  0  0  0  0  0  0  0  0  0  0  0
    5.4350    1.0930   -0.0450 C   0  0  0  0  0  0  0  0  0  0  0  0
    4.9140    0.0920   -1.0030 C   0  0  0  0  0  0  0  0  0  0  0  0
    3.5600   -0.2250   -0.7760 O   0  0  0  0  0  0  0  0  0  0  0  0
  1  2  2  0
  2  3  1  0
  2 16  1  0
  3  4  1  0
  4  5  1  6
  4  6  1  0
  4  9  1  0
  6  7  1  0
  7  8  1  0
 10  9  1  6
 10 11  1  0
 10 14  1  0
 11 12  1  0
 12 13  1  0
 13 14  1  0
 14 15  1  6
 16 17  2  0
 16 22  1  0
 17 18  1  0
 18 19  1  0
 18 20  2  0
 20 21  1  0
 21 22  1  0
M  END
