
     RDKit          3D

 22 23  0  0  0  0  0  0  0  0999 V2000
   -3.1870    3.2620   -0.9450 C   0  0  0  0  0  0  0  0  0  0  0  0
   -1.9400    3.2220   -0.1250 C   0  0  0  0  0  0  0  0  0  0  0  0
   -1.3140    1.9520   -0.1310 O   0  0  0  0  0  0  0  0  0  0  0  0
   -2.0040    0.8750    0.3370 C   0  0  0  0  0  0  0  0  0  0  0  0
   -3.1750    1.0280    0.7610 O   0  0  0  0  0  0  0  0  0  0  0  0
   -1.4650   -0.5150    0.3870 C   0  0  0  0  0  0  0  0  0  0  0  0
   -0.2400   -0.6320   -0.0570 C   0  0  0  0  0  0  0  0  0  0  0  0
    0.4050    0.4970   -0.5160 O   0  0  0  0  0  0  0  0  0  0  0  0
    1.4770    1.1730    0.0100 C   0  0  0  0  0  0  0  0  0  0  0  0
    2.7690    0.4480    0.1450 C   0  0  1  0  0  0  0  0  0  0  0  0
    3.3740    0.0920   -1.2070 C   0  0  0  0  0  0  0  0  0  0  0  0
    4.8550    0.0210   -0.8080 C   0  0  2  0  0  0  0  0  0  0  0  0
    5.1310   -1.1520   -0.1190 O   0  0  0  0  0  0  0  0  0  0  0  0
    4.9080    1.1660    0.1780 C   0  0  0  0  0  0  0  0  0  0  0  0
    3.6730    1.3340    0.7290 O   0  0  0  0  0  0  0  0  0  0  0  0
    0.3890   -1.9470   -0.0390 C   0  0  0  0  0  0  0  0  0  0  0  0
   -0.3040   -2.9520    0.4290 C   0  0  0  0  0  0  0  0  0  0  0  0
   -1.6580   -2.9220    0.9520 C   0  0  0  0  0  0  0  0  0  0  0  0
   -2.3150   -1.6010    0.8610 C   0  0  1  0  0  0  0  0  0  0  0  0
   -2.9070   -1.2240    2.0900 O   0  0  0  0  0  0  0  0  0  0  0  0
   -3.4710   -1.7740   -0.1730 C   0  0  0  0  0  0  0  0  0  0  0  0
   -4.3400   -2.7590    0.2740 O   0  0  0  0  0  0  0  0  0  0  0  0
  1  2  1  0
  2  3  1  0
  3  4  1  0
  4  5  2  0
  4  6  1  0
  6  7  2  0
  6 19  1  0
  7  8  1  0
  7 16  1  0
  8  9  1  0
 10  9  1  6
 10 11  1  0
 10 15  1  0
 11 12  1  0
 12 13  1  1
 12 14  1  0
 14 15  1  0
 16 17  2  0
 17 18  1  0
 18 19  1  0
 19 20  1  1
 19 21  1  0
 21 22  1  0
M  END
