
     RDKit          3D

 22 23  0  0  0  0  0  0  0  0999 V2000
    1.3710    0.2590   -1.1960 O   0  0  0  0  0  0  0  0  0  0  0  0
    1.1320   -0.4540   -0.2130 C   0  0  0  0  0  0  0  0  0  0  0  0
   -0.2710   -0.5040    0.3050 C   0  0  0  0  0  0  0  0  0  0  0  0
   -1.1840    0.3680   -0.5080 C   0  0  0  0  0  0  0  0  0  0  0  0
   -2.5970    0.4160   -0.1060 C   0  0  1  0  0  0  0  0  0  0  0  0
   -2.6710    0.8560    1.2410 O   0  0  0  0  0  0  0  0  0  0  0  0
   -3.2650    1.6390   -0.8450 C   0  0  0  0  0  0  0  0  0  0  0  0
   -4.7130    1.7350   -0.5300 C   0  0  0  0  0  0  0  0  0  0  0  0
   -5.2060    0.8970    0.6010 C   0  0  0  0  0  0  0  0  0  0  0  0
   -4.7190   -0.4810    0.4490 C   0  0  0  0  0  0  0  0  0  0  0  0
   -5.2610   -1.4060    0.9710 O   0  0  0  0  0  0  0  0  0  0  0  0
   -3.5080   -0.7020   -0.3900 C   0  0  2  0  0  0  0  0  0  0  0  0
   -3.0310   -2.0970   -0.2350 C   0  0  0  0  0  0  0  0  0  0  0  0
   -4.1510   -2.9230   -0.5760 O   0  0  0  0  0  0  0  0  0  0  0  0
    2.1700   -1.1320    0.3120 O   0  0  0  0  0  0  0  0  0  0  0  0
    3.4850   -1.1720   -0.0620 C   0  0  0  0  0  0  0  0  0  0  0  0
    4.2930    0.0570   -0.0720 C   0  0  2  0  0  0  0  0  0  0  0  0
    3.8610    1.0650   -0.8930 O   0  0  0  0  0  0  0  0  0  0  0  0
    5.6690   -0.3360   -0.6290 C   0  0  0  0  0  0  0  0  0  0  0  0
    6.5910    0.5900    0.1310 C   0  0  0  0  0  0  0  0  0  0  0  0
    5.7970    1.3850    0.9410 O   0  0  0  0  0  0  0  0  0  0  0  0
    4.7350    0.5320    1.2930 C   0  0  0  0  0  0  0  0  0  0  0  0
  1  2  2  0
  2  3  1  0
  2 15  1  0
  3  4  1  0
  4  5  1  0
  5  6  1  1
  5  7  1  0
  5 12  1  0
  7  8  1  0
  8  9  1  0
  9 10  1  0
 10 11  2  0
 10 12  1  0
 12 13  1  1
 13 14  1  0
 15 16  1  0
 16 17  1  0
 17 18  1  6
 17 19  1  0
 17 22  1  0
 19 20  1  0
 20 21  1  0
 21 22  1  0
M  END
