
     RDKit          3D

 14 14  0  0  0  0  0  0  0  0999 V2000
   -2.8210    3.0690    0.0280 C   0  0  0  0  0  0  0  0  0  0  0  0
   -1.9120    1.9250   -0.3350 C   0  0  0  0  0  0  0  0  0  0  0  0
   -1.4280    1.1320    0.5890 C   0  0  0  0  0  0  0  0  0  0  0  0
   -0.5430   -0.0030    0.3690 C   0  0  0  0  0  0  0  0  0  0  0  0
   -0.1730   -0.6860    1.4670 C   0  0  0  0  0  0  0  0  0  0  0  0
   -0.6510   -0.2750    2.8010 C   0  0  0  0  0  0  0  0  0  0  0  0
    0.6640   -1.7880    1.3370 O   0  0  0  0  0  0  0  0  0  0  0  0
    0.4330   -2.5900    0.1970 C   0  0  0  0  0  0  0  0  0  0  0  0
    0.5360   -1.7710   -1.0320 C   0  0  0  0  0  0  0  0  0  0  0  0
   -0.0140   -0.4060   -0.9230 C   0  0  1  0  0  0  0  0  0  0  0  0
   -1.1090   -0.3270   -1.8340 O   0  0  0  0  0  0  0  0  0  0  0  0
    1.0070    0.5870   -1.4690 C   0  0  0  0  0  0  0  0  0  0  0  0
    2.4280    0.8590   -0.4480 S   0  0  0  0  0  0  0  0  0  0  0  0
    3.5640   -0.5210   -0.2950 C   0  0  0  0  0  0  0  0  0  0  0  0
  1  2  1  0
  2  3  2  3
  3  4  1  0
  4  5  2  0
  4 10  1  0
  5  6  1  0
  5  7  1  0
  7  8  1  0
  8  9  1  0
  9 10  1  0
 10 11  1  6
 10 12  1  0
 12 13  1  0
 13 14  1  0
M  END
