
     RDKit          3D

 18 19  0  0  0  0  0  0  0  0999 V2000
    5.5290    1.1360    1.0220 C   0  0  0  0  0  0  0  0  0  0  0  0
    4.1400    0.9770    0.7700 O   0  0  0  0  0  0  0  0  0  0  0  0
    3.6480   -0.1350    0.1020 C   0  0  0  0  0  0  0  0  0  0  0  0
    4.4540   -1.0120   -0.2850 O   0  0  0  0  0  0  0  0  0  0  0  0
    2.2060   -0.2560   -0.1360 C   0  0  0  0  0  0  0  0  0  0  0  0
    1.2810    0.6050    0.2280 C   0  0  0  0  0  0  0  0  0  0  0  0
   -0.0380    0.1490   -0.1790 C   0  0  0  0  0  0  0  0  0  0  0  0
   -1.3490    0.4690   -0.1560 C   0  0  0  0  0  0  0  0  0  0  0  0
   -1.8310    1.6910    0.4610 C   0  0  0  0  0  0  0  0  0  0  0  0
   -3.0440    2.1220    0.5570 C   0  0  0  0  0  0  0  0  0  0  0  0
   -3.2690    3.7110    1.4070 Cl  0  0  0  0  0  0  0  0  0  0  0  0
   -4.3070    1.5540    0.1020 C   0  0  0  0  0  0  0  0  0  0  0  0
   -5.3480    1.3150    1.5470 Cl  0  0  0  0  0  0  0  0  0  0  0  0
   -2.0760   -0.6090   -0.8430 C   0  0  0  0  0  0  0  0  0  0  0  0
   -1.0400   -1.6290   -1.2730 C   0  0  2  0  0  0  0  0  0  0  0  0
   -1.2920   -2.9440   -0.6080 C   0  0  0  0  0  0  0  0  0  0  0  0
    0.1830   -1.0770   -0.8260 N   0  0  0  0  0  0  0  0  0  0  0  0
    1.5690   -1.3380   -0.8050 N   0  0  0  0  0  0  0  0  0  0  0  0
  1  2  1  0
  2  3  1  0
  3  4  2  0
  3  5  1  0
  5  6  2  0
  5 18  1  0
  6  7  1  0
  7  8  2  0
  7 17  1  0
  8  9  1  0
  8 14  1  0
  9 10  2  3
 10 11  1  0
 10 12  1  0
 12 13  1  0
 14 15  1  0
 15 16  1  1
 15 17  1  0
 17 18  1  0
M  END
