
     RDKit          3D

 25 27  0  0  0  0  0  0  0  0999 V2000
   -6.9370    0.7470   -0.2180 N   0  0  0  0  0  0  0  0  0  0  0  0
   -6.0910   -0.3440   -0.6190 C   0  0  1  0  0  0  0  0  0  0  0  0
   -4.8720    0.1110   -1.3930 C   0  0  0  0  0  0  0  0  0  0  0  0
   -3.7890    0.6260   -0.4600 C   0  0  0  0  0  0  0  0  0  0  0  0
   -3.3210   -0.4420    0.4940 C   0  0  2  0  0  0  0  0  0  0  0  0
   -1.9610   -0.8390    0.3230 N   0  0  0  0  0  0  0  0  0  0  0  0
   -0.8550    0.0090    0.4660 C   0  0  0  0  0  0  0  0  0  0  0  0
   -1.0210    1.3430    0.8060 C   0  0  0  0  0  0  0  0  0  0  0  0
    0.0670    2.1180    0.9290 N   0  0  0  0  0  0  0  0  0  0  0  0
    1.3280    1.6370    0.7330 C   0  0  0  0  0  0  0  0  0  0  0  0
    1.5040    0.3290    0.3990 C   0  0  0  0  0  0  0  0  0  0  0  0
    2.8180   -0.2840    0.1660 C   0  0  0  0  0  0  0  0  0  0  0  0
    2.8680   -1.6380   -0.1710 C   0  0  0  0  0  0  0  0  0  0  0  0
    4.0820   -2.2470   -0.3970 C   0  0  0  0  0  0  0  0  0  0  0  0
    5.2580   -1.4950   -0.2840 C   0  0  0  0  0  0  0  0  0  0  0  0
    5.2490   -0.1620    0.0450 C   0  0  0  0  0  0  0  0  0  0  0  0
    6.4480    0.6540    0.1730 C   0  0  0  0  0  0  0  0  0  0  0  0
    7.6650    0.2400   -0.0050 C   0  0  0  0  0  0  0  0  0  0  0  0
    8.8290    1.1340    0.1440 C   0  0  0  0  0  0  0  0  0  0  0  0
    9.9930    0.6970   -0.0360 O   0  0  0  0  0  0  0  0  0  0  0  0
    8.6930    2.4660    0.4810 O   0  0  0  0  0  0  0  0  0  0  0  0
    3.9960    0.4190    0.2670 C   0  0  0  0  0  0  0  0  0  0  0  0
    0.3970   -0.4400    0.2770 N   0  0  0  0  0  0  0  0  0  0  0  0
   -4.2750   -1.6110    0.3820 C   0  0  0  0  0  0  0  0  0  0  0  0
   -5.6830   -1.0930    0.6440 C   0  0  0  0  0  0  0  0  0  0  0  0
  2  1  1  1
  2  3  1  0
  2 25  1  0
  3  4  1  0
  4  5  1  0
  5  6  1  6
  5 24  1  0
  6  7  1  0
  7  8  2  0
  7 23  1  0
  8  9  1  0
  9 10  2  0
 10 11  1  0
 11 12  1  0
 11 23  2  0
 12 13  2  0
 12 22  1  0
 13 14  1  0
 14 15  2  0
 15 16  1  0
 16 17  1  0
 16 22  2  0
 17 18  2  3
 18 19  1  0
 19 20  2  0
 19 21  1  0
 24 25  1  0
M  CHG  1   1   1
M  END
