
     RDKit          3D

 17 18  0  0  0  0  0  0  0  0999 V2000
   -0.9760    1.3880   -0.9860 O   0  0  0  0  0  0  0  0  0  0  0  0
   -1.8620    0.6790   -0.3970 C   0  0  0  0  0  0  0  0  0  0  0  0
   -3.1170    0.3980   -1.1270 C   0  0  0  0  0  0  0  0  0  0  0  0
   -4.2620    0.0320   -0.2500 C   0  0  0  0  0  0  0  0  0  0  0  0
   -3.8610   -0.7040    0.9300 N   0  0  0  0  0  0  0  0  0  0  0  0
   -2.6130   -0.4960    1.5810 C   0  0  0  0  0  0  0  0  0  0  0  0
   -2.3760   -0.9130    2.7360 O   0  0  0  0  0  0  0  0  0  0  0  0
   -1.5810    0.2110    0.9120 N   0  0  0  0  0  0  0  0  0  0  0  0
   -0.2690    0.4810    1.4790 C   0  0  0  0  0  0  0  0  0  0  0  0
    0.7100   -0.5390    1.2080 C   0  0  0  0  0  0  0  0  0  0  0  0
    1.8260   -0.3250    0.5490 C   0  0  0  0  0  0  0  0  0  0  0  0
    2.7720   -1.4300    0.3190 C   0  0  0  0  0  0  0  0  0  0  0  0
    3.8870   -1.2770   -0.3280 C   0  0  0  0  0  0  0  0  0  0  0  0
    4.3140    0.0090   -0.8920 C   0  0  0  0  0  0  0  0  0  0  0  0
    3.3770    1.1050   -0.6640 C   0  0  0  0  0  0  0  0  0  0  0  0
    3.7400    2.7340   -1.2810 Cl  0  0  0  0  0  0  0  0  0  0  0  0
    2.2460    0.9520   -0.0090 C   0  0  0  0  0  0  0  0  0  0  0  0
  1  2  2  0
  2  3  1  0
  2  8  1  0
  3  4  1  0
  4  5  1  0
  5  6  1  0
  6  7  2  0
  6  8  1  0
  8  9  1  0
  9 10  1  0
 10 11  2  3
 11 12  1  0
 11 17  1  0
 12 13  2  0
 13 14  1  0
 14 15  1  0
 15 16  1  0
 15 17  2  0
M  END
