
     RDKit          3D

 18 18  0  0  0  0  0  0  0  0999 V2000
    2.7580    1.9720    1.5220 C   0  0  0  0  0  0  0  0  0  0  0  0
    3.4360    0.9810    0.6700 C   0  0  0  0  0  0  0  0  0  0  0  0
    5.1710    1.0470    0.5080 Cl  0  0  0  0  0  0  0  0  0  0  0  0
    2.7670    0.0240    0.0120 C   0  0  0  0  0  0  0  0  0  0  0  0
    1.3300   -0.0810    0.1090 C   0  0  0  0  0  0  0  0  0  0  0  0
    0.5860   -0.9690   -0.4870 C   0  0  0  0  0  0  0  0  0  0  0  0
    1.0920   -1.9970   -1.3470 C   0  0  0  0  0  0  0  0  0  0  0  0
    2.3140   -2.1580   -1.6210 O   0  0  0  0  0  0  0  0  0  0  0  0
    0.1480   -2.9140   -1.9430 N   0  0  0  0  0  0  0  0  0  0  0  0
   -1.2360   -2.7990   -1.6850 C   0  0  0  0  0  0  0  0  0  0  0  0
   -2.0830   -3.1910   -2.5250 O   0  0  0  0  0  0  0  0  0  0  0  0
   -1.6080   -2.1930   -0.3720 C   0  0  0  0  0  0  0  0  0  0  0  0
   -0.8550   -0.9530   -0.2980 N   0  0  0  0  0  0  0  0  0  0  0  0
   -1.4720    0.2890   -0.0420 C   0  0  0  0  0  0  0  0  0  0  0  0
   -1.6790    1.2330   -1.1560 C   0  0  0  0  0  0  0  0  0  0  0  0
   -1.8560    0.5980    1.1660 C   0  0  0  0  0  0  0  0  0  0  0  0
   -2.5110    1.8770    1.5250 C   0  0  0  0  0  0  0  0  0  0  0  0
   -1.5800    2.7910    2.7270 Cl  0  0  0  0  0  0  0  0  0  0  0  0
  1  2  1  0
  2  3  1  0
  2  4  2  3
  4  5  1  0
  5  6  2  3
  6  7  1  0
  6 13  1  0
  7  8  2  0
  7  9  1  0
  9 10  1  0
 10 11  2  0
 10 12  1  0
 12 13  1  0
 13 14  1  0
 14 15  1  0
 14 16  2  3
 16 17  1  0
 17 18  1  0
M  END
