
     RDKit          3D

 24 27  0  0  0  0  0  0  0  0999 V2000
    4.6950   -0.4910    2.0830 C   0  0  0  0  0  0  0  0  0  0  0  0
    4.0650    0.5320    1.1530 C   0  0  2  0  0  0  0  0  0  0  0  0
    2.6950    0.2620    0.9180 O   0  0  0  0  0  0  0  0  0  0  0  0
    1.6750    1.0900    1.3050 C   0  0  0  0  0  0  0  0  0  0  0  0
    1.9310    2.1630    1.9070 O   0  0  0  0  0  0  0  0  0  0  0  0
    0.2780    0.7330    1.0210 C   0  0  0  0  0  0  0  0  0  0  0  0
   -0.8280    1.4940    1.3660 C   0  0  0  0  0  0  0  0  0  0  0  0
   -1.9170    0.7880    0.9120 C   0  0  0  0  0  0  0  0  0  0  0  0
   -3.2670    1.0300    0.9580 C   0  0  0  0  0  0  0  0  0  0  0  0
   -4.1740    0.1200    0.4030 C   0  0  0  0  0  0  0  0  0  0  0  0
   -3.7480   -1.0330   -0.1990 C   0  0  0  0  0  0  0  0  0  0  0  0
   -2.3590   -1.2480   -0.2280 C   0  0  0  0  0  0  0  0  0  0  0  0
   -1.4700   -0.3550    0.3160 C   0  0  0  0  0  0  0  0  0  0  0  0
   -0.1450   -0.3310    0.4140 O   0  0  0  0  0  0  0  0  0  0  0  0
   -4.6540   -2.0320   -0.8020 C   0  0  0  0  0  0  0  0  0  0  0  0
   -6.0900   -1.7130   -0.7190 C   0  0  2  0  0  0  0  0  0  0  0  0
   -6.6430   -1.6550   -2.0280 O   0  0  0  0  0  0  0  0  0  0  0  0
   -6.4320   -0.4510   -0.0520 C   0  0  0  0  0  0  0  0  0  0  0  0
   -5.6010    0.4020    0.4660 C   0  0  0  0  0  0  0  0  0  0  0  0
    4.7960    0.5880   -0.1480 C   0  0  0  0  0  0  0  0  0  0  0  0
    5.3960    1.6520   -0.6520 C   0  0  0  0  0  0  0  0  0  0  0  0
    6.0040    1.3040   -1.9540 C   0  0  0  0  0  0  0  0  0  0  0  0
    5.6600   -0.1240   -2.1190 C   0  0  0  0  0  0  0  0  0  0  0  0
    4.9640   -0.5250   -1.0720 C   0  0  0  0  0  0  0  0  0  0  0  0
  2  1  1  1
  2  3  1  0
  2 20  1  0
  3  4  1  0
  4  5  2  0
  4  6  1  0
  6  7  2  0
  6 14  1  0
  7  8  1  0
  8  9  2  0
  8 13  1  0
  9 10  1  0
 10 11  2  0
 10 19  1  0
 11 12  1  0
 11 15  1  0
 12 13  2  0
 13 14  1  0
 15 16  1  0
 16 17  1  6
 16 18  1  0
 18 19  2  0
 20 21  2  0
 20 24  1  0
 21 22  1  0
 22 23  1  0
 23 24  2  0
M  END
