
     RDKit          3D

 24 26  0  0  0  0  0  0  0  0999 V2000
    3.7350    0.7900    1.3650 C   0  0  0  0  0  0  0  0  0  0  0  0
    3.3530   -0.4530    2.1000 C   0  0  0  0  0  0  0  0  0  0  0  0
    1.9530   -0.9230    1.9120 C   0  0  0  0  0  0  0  0  0  0  0  0
    1.5440   -1.3500    0.5260 C   0  0  2  0  0  0  0  0  0  0  0  0
    2.3660   -2.3550    0.1600 O   0  0  0  0  0  0  0  0  0  0  0  0
    3.0700   -2.3320   -0.9770 C   0  0  0  0  0  0  0  0  0  0  0  0
    3.3660   -0.9880   -1.2740 O   0  0  0  0  0  0  0  0  0  0  0  0
    2.2500   -0.1200   -1.3300 C   0  0  0  0  0  0  0  0  0  0  0  0
    1.2830   -0.2610   -0.4390 C   0  0  0  0  0  0  0  0  0  0  0  0
    0.1090    0.5940   -0.4730 C   0  0  2  0  0  0  0  0  0  0  0  0
    0.3050    1.6200    0.4550 O   0  0  0  0  0  0  0  0  0  0  0  0
   -1.2770    0.1170   -0.2940 C   0  0  2  0  0  0  0  0  0  0  0  0
   -1.6800   -0.8510   -1.4100 C   0  0  0  0  0  0  0  0  0  0  0  0
   -0.8870   -1.9540   -1.4650 O   0  0  0  0  0  0  0  0  0  0  0  0
   -1.2650   -2.8050   -2.4690 C   0  0  0  0  0  0  0  0  0  0  0  0
   -2.1740    1.3580   -0.4260 C   0  0  0  0  0  0  0  0  0  0  0  0
   -3.2320    1.5560    0.5820 C   0  0  0  0  0  0  0  0  0  0  0  0
   -2.8950    1.3000    2.0140 C   0  0  1  0  0  0  0  0  0  0  0  0
   -4.0630    0.6830    2.7560 C   0  0  0  0  0  0  0  0  0  0  0  0
   -1.7330    0.3360    2.1650 C   0  0  0  0  0  0  0  0  0  0  0  0
   -1.7600   -0.5230    0.9360 C   0  0  0  0  0  0  0  0  0  0  0  0
    0.0780    1.1870   -1.8930 C   0  0  0  0  0  0  0  0  0  0  0  0
    1.3120    1.9790   -2.2220 C   0  0  0  0  0  0  0  0  0  0  0  0
    2.3410    0.8850   -2.4420 C   0  0  0  0  0  0  0  0  0  0  0  0
  1  2  1  0
  2  3  1  0
  4  3  1  1
  4  5  1  0
  4  9  1  0
  5  6  1  0
  6  7  1  0
  7  8  1  0
  8  9  2  0
  8 24  1  0
  9 10  1  0
 10 11  1  1
 10 12  1  0
 10 22  1  0
 12 13  1  6
 12 16  1  0
 12 21  1  0
 13 14  1  0
 14 15  1  0
 16 17  1  0
 17 18  1  0
 18 19  1  1
 18 20  1  0
 20 21  1  0
 22 23  1  0
 23 24  1  0
M  END
