
     RDKit          3D

 25 27  0  0  0  0  0  0  0  0999 V2000
   -4.3320    2.8390    1.6480 C   0  0  0  0  0  0  0  0  0  0  0  0
   -3.8690    1.5630    1.0700 N   0  0  1  0  0  0  0  0  0  0  0  0
   -4.7100    1.3030   -0.0470 C   0  0  0  0  0  0  0  0  0  0  0  0
   -4.2730    0.2530   -0.9990 C   0  0  0  0  0  0  0  0  0  0  0  0
   -3.6160   -0.8860   -0.2150 C   0  0  0  0  0  0  0  0  0  0  0  0
   -2.2230   -0.5320   -0.1120 N   0  0  0  0  0  0  0  0  0  0  0  0
   -1.2770   -1.0920   -1.0200 C   0  0  0  0  0  0  0  0  0  0  0  0
   -1.7080   -1.7220   -2.1630 C   0  0  0  0  0  0  0  0  0  0  0  0
   -0.8420   -2.2750   -3.0440 N   0  0  0  0  0  0  0  0  0  0  0  0
    0.4990   -2.1960   -2.7750 C   0  0  0  0  0  0  0  0  0  0  0  0
    0.9550   -1.5730   -1.6420 C   0  0  0  0  0  0  0  0  0  0  0  0
    2.3730   -1.4870   -1.3530 C   0  0  0  0  0  0  0  0  0  0  0  0
    3.3060   -2.0130   -2.1820 C   0  0  0  0  0  0  0  0  0  0  0  0
    4.6580   -1.8980   -1.8480 C   0  0  0  0  0  0  0  0  0  0  0  0
    5.0190   -1.2470   -0.6760 C   0  0  0  0  0  0  0  0  0  0  0  0
    4.1010   -0.7030    0.1860 C   0  0  0  0  0  0  0  0  0  0  0  0
    4.4470   -0.0200    1.4130 C   0  0  0  0  0  0  0  0  0  0  0  0
    5.6890    0.1370    1.8080 C   0  0  0  0  0  0  0  0  0  0  0  0
    5.9780    0.8330    3.0520 C   0  0  0  0  0  0  0  0  0  0  0  0
    7.1580    0.9780    3.4210 O   0  0  0  0  0  0  0  0  0  0  0  0
    4.9520    1.3280    3.8160 O   0  0  0  0  0  0  0  0  0  0  0  0
    2.7660   -0.8490   -0.2010 C   0  0  0  0  0  0  0  0  0  0  0  0
    0.0450   -1.0250   -0.7750 N   0  0  0  0  0  0  0  0  0  0  0  0
   -1.7010    0.4070    0.8820 C   0  0  0  0  0  0  0  0  0  0  0  0
   -2.4770    1.7220    0.8000 C   0  0  0  0  0  0  0  0  0  0  0  0
  2  1  1  6
  2  3  1  0
  2 25  1  0
  3  4  1  0
  4  5  1  0
  5  6  1  0
  6  7  1  0
  6 24  1  0
  7  8  2  0
  7 23  1  0
  8  9  1  0
  9 10  2  0
 10 11  1  0
 11 12  1  0
 11 23  2  0
 12 13  2  0
 12 22  1  0
 13 14  1  0
 14 15  2  0
 15 16  1  0
 16 17  1  0
 16 22  2  0
 17 18  2  3
 18 19  1  0
 19 20  2  0
 19 21  1  0
 24 25  1  0
M  CHG  1   2   1
M  END
