
     RDKit          3D

 24 27  0  0  0  0  0  0  0  0999 V2000
    5.2400   -0.1600   -2.2030 C   0  0  0  0  0  0  0  0  0  0  0  0
    5.3120    0.4530   -0.8090 C   0  0  2  0  0  0  0  0  0  0  0  0
    5.2540    1.8390   -0.9170 O   0  0  0  0  0  0  0  0  0  0  0  0
    6.5800    0.0190   -0.0910 C   0  0  0  0  0  0  0  0  0  0  0  0
    6.1570   -1.0240    0.7780 O   0  0  0  0  0  0  0  0  0  0  0  0
    4.7900   -0.9680    0.9540 C   0  0  0  0  0  0  0  0  0  0  0  0
    3.9860   -1.6290    1.8730 C   0  0  0  0  0  0  0  0  0  0  0  0
    2.6250   -1.4270    1.8770 C   0  0  0  0  0  0  0  0  0  0  0  0
    2.0650   -0.5610    0.9580 C   0  0  0  0  0  0  0  0  0  0  0  0
    0.6980   -0.3430    0.9440 O   0  0  0  0  0  0  0  0  0  0  0  0
    0.1520    0.5410    0.0020 C   0  0  0  0  0  0  0  0  0  0  0  0
   -1.3180    0.5880    0.2070 C   0  0  0  0  0  0  0  0  0  0  0  0
   -1.8750    1.5150    1.0730 C   0  0  0  0  0  0  0  0  0  0  0  0
   -3.2430    1.5600    1.2660 C   0  0  0  0  0  0  0  0  0  0  0  0
   -4.0530    0.6580    0.5740 C   0  0  0  0  0  0  0  0  0  0  0  0
   -3.5180   -0.2670   -0.2890 C   0  0  0  0  0  0  0  0  0  0  0  0
   -2.1580   -0.3070   -0.4760 C   0  0  0  0  0  0  0  0  0  0  0  0
   -4.4260   -1.1890   -0.9920 C   0  0  1  0  0  0  0  0  0  0  0  0
   -4.9400   -2.1510   -0.1260 O   0  0  0  0  0  0  0  0  0  0  0  0
   -5.5490   -0.3330   -1.5390 C   0  0  0  0  0  0  0  0  0  0  0  0
   -6.2890    0.4070   -0.4700 C   0  0  0  0  0  0  0  0  0  0  0  0
   -5.5190    0.6930    0.7730 C   0  0  0  0  0  0  0  0  0  0  0  0
    2.8720    0.0880    0.0520 C   0  0  0  0  0  0  0  0  0  0  0  0
    4.2260   -0.1000    0.0340 C   0  0  0  0  0  0  0  0  0  0  0  0
  2  1  1  6
  2  3  1  0
  2  4  1  0
  2 24  1  0
  4  5  1  0
  5  6  1  0
  6  7  2  0
  6 24  1  0
  7  8  1  0
  8  9  2  0
  9 10  1  0
  9 23  1  0
 10 11  1  0
 11 12  1  0
 12 13  2  0
 12 17  1  0
 13 14  1  0
 14 15  2  0
 15 16  1  0
 15 22  1  0
 16 17  2  0
 16 18  1  0
 18 19  1  1
 18 20  1  0
 20 21  1  0
 21 22  1  0
 23 24  2  0
M  END
