
     RDKit          3D

 24 27  0  0  0  0  0  0  0  0999 V2000
   -3.6080    3.1320    1.8060 C   0  0  0  0  0  0  0  0  0  0  0  0
   -2.7850    2.0580    1.4450 O   0  0  0  0  0  0  0  0  0  0  0  0
   -3.3160    0.8290    1.0480 C   0  0  0  0  0  0  0  0  0  0  0  0
   -4.6820    0.6430    1.0010 C   0  0  0  0  0  0  0  0  0  0  0  0
   -5.2340   -0.5610    0.6130 C   0  0  0  0  0  0  0  0  0  0  0  0
   -4.3700   -1.6030    0.2620 C   0  0  0  0  0  0  0  0  0  0  0  0
   -4.9170   -2.9230   -0.1640 C   0  0  0  0  0  0  0  0  0  0  0  0
   -3.0180   -1.3900    0.3180 C   0  0  0  0  0  0  0  0  0  0  0  0
   -2.4350   -0.1980    0.7020 C   0  0  0  0  0  0  0  0  0  0  0  0
   -1.0660   -0.0130    0.7500 O   0  0  0  0  0  0  0  0  0  0  0  0
   -0.2040   -0.9190    0.1490 C   0  0  2  0  0  0  0  0  0  0  0  0
    0.7300   -0.2890   -0.8500 C   0  0  0  0  0  0  0  0  0  0  0  0
    1.6290    0.7640   -0.3040 C   0  0  2  0  0  0  0  0  0  0  0  0
    0.8330    1.7970    0.2360 O   0  0  0  0  0  0  0  0  0  0  0  0
    2.4450    1.4380   -1.3970 C   0  0  0  0  0  0  0  0  0  0  0  0
    3.2850    0.4650   -2.1510 C   0  0  0  0  0  0  0  0  0  0  0  0
    4.2220   -0.1990   -1.1630 C   0  0  0  0  0  0  0  0  0  0  0  0
    5.4060   -0.7680   -1.3360 C   0  0  0  0  0  0  0  0  0  0  0  0
    5.8740   -1.2540   -0.0220 C   0  0  0  0  0  0  0  0  0  0  0  0
    4.7940   -0.8820    0.9160 C   0  0  0  0  0  0  0  0  0  0  0  0
    3.8410   -0.2670    0.2290 C   0  0  0  0  0  0  0  0  0  0  0  0
    2.5530    0.2850    0.7740 C   0  0  0  0  0  0  0  0  0  0  0  0
   -0.8970   -2.0460   -0.5980 C   0  0  0  0  0  0  0  0  0  0  0  0
   -2.1390   -2.4080   -0.0250 O   0  0  0  0  0  0  0  0  0  0  0  0
  1  2  1  0
  2  3  1  0
  3  4  2  0
  3  9  1  0
  4  5  1  0
  5  6  2  0
  6  7  1  0
  6  8  1  0
  8  9  2  0
  8 24  1  0
  9 10  1  0
 10 11  1  0
 11 12  1  6
 11 23  1  0
 12 13  1  0
 13 14  1  1
 13 15  1  0
 13 22  1  0
 15 16  1  0
 16 17  1  0
 17 18  2  0
 17 21  1  0
 18 19  1  0
 19 20  1  0
 20 21  2  0
 21 22  1  0
 23 24  1  0
M  END
