
     RDKit          3D

 25 26  0  0  0  0  0  0  0  0999 V2000
   -3.3450    0.6540   -2.3810 C   0  0  0  0  0  0  0  0  0  0  0  0
   -2.8380    0.0090   -1.1300 C   0  0  0  0  0  0  0  0  0  0  0  0
   -2.7700    0.7930   -0.0490 C   0  0  0  0  0  0  0  0  0  0  0  0
   -3.2110    2.1720   -0.2360 C   0  0  0  0  0  0  0  0  0  0  0  0
   -3.2130    3.0580    0.7230 N   0  0  0  0  0  0  0  0  0  0  0  0
   -2.2700    0.4190    1.2600 C   0  0  0  0  0  0  0  0  0  0  0  0
   -1.0280    0.0470    1.6230 C   0  0  0  0  0  0  0  0  0  0  0  0
   -0.9190   -0.2520    3.0540 N   0  0  0  0  0  0  0  0  0  0  0  0
    0.1600   -0.0400    0.8500 C   0  0  0  0  0  0  0  0  0  0  0  0
    0.7220   -0.9390    0.0720 C   0  0  0  0  0  0  0  0  0  0  0  0
    2.0080   -0.5630   -0.5550 C   0  0  0  0  0  0  0  0  0  0  0  0
    2.6100   -1.3860   -1.3180 N   0  0  0  0  0  0  0  0  0  0  0  0
    2.5870    0.6930   -0.3290 N   0  0  0  0  0  0  0  0  0  0  0  0
    3.4910    0.9790    0.7750 C   0  0  0  0  0  0  0  0  0  0  0  0
    4.8130    1.4880    0.2810 C   0  0  0  0  0  0  0  0  0  0  0  0
    4.6670    2.1220   -1.0370 N   0  0  0  0  0  0  0  0  0  0  0  0
    3.3990    2.8390   -0.9870 C   0  0  0  0  0  0  0  0  0  0  0  0
    2.3050    1.8240   -1.2210 C   0  0  0  0  0  0  0  0  0  0  0  0
    0.2220   -2.2610   -0.1890 N   0  0  0  0  0  0  0  0  0  0  0  0
   -0.4030   -3.1630    0.7060 C   0  0  0  0  0  0  0  0  0  0  0  0
    0.1510   -4.3190    0.9800 O   0  0  0  0  0  0  0  0  0  0  0  0
   -1.6250   -3.0050    1.4030 N   0  0  0  0  0  0  0  0  0  0  0  0
   -2.9080   -2.7330    0.7730 C   0  0  0  0  0  0  0  0  0  0  0  0
   -2.7970   -2.4970   -0.6740 C   0  0  0  0  0  0  0  0  0  0  0  0
   -2.5060   -1.2870   -1.1990 O   0  0  0  0  0  0  0  0  0  0  0  0
  1  2  1  0
  2  3  2  0
  2 25  1  0
  3  4  1  0
  3  6  1  0
  4  5  2  0
  6  7  2  0
  7  8  1  0
  7  9  1  0
  9 10  2  0
 10 11  1  0
 10 19  1  0
 11 12  2  0
 11 13  1  0
 13 14  1  0
 13 18  1  0
 14 15  1  0
 15 16  1  0
 16 17  1  0
 17 18  1  0
 19 20  1  0
 20 21  2  0
 20 22  1  0
 22 23  1  0
 23 24  1  0
 24 25  1  0
M  CHG  1  12   1
M  END
