
     RDKit          3D

 25 27  0  0  0  0  0  0  0  0999 V2000
   -6.8100    1.2880   -3.3930 C   0  0  0  0  0  0  0  0  0  0  0  0
   -5.6820    0.9790   -2.8690 O   0  0  0  0  0  0  0  0  0  0  0  0
   -4.5400    0.6010   -2.3770 C   0  0  0  0  0  0  0  0  0  0  0  0
   -3.9740   -0.6330   -2.7750 C   0  0  0  0  0  0  0  0  0  0  0  0
   -2.7690   -1.0080   -2.2410 C   0  0  0  0  0  0  0  0  0  0  0  0
   -2.0870   -0.2350   -1.3340 C   0  0  0  0  0  0  0  0  0  0  0  0
   -0.7980   -0.6420   -0.7690 C   0  0  0  0  0  0  0  0  0  0  0  0
   -0.2320    0.1760    0.1660 N   0  0  0  0  0  0  0  0  0  0  0  0
    0.9510   -0.1710    0.7210 C   0  0  0  0  0  0  0  0  0  0  0  0
    1.4860    0.6070    1.6160 N   0  0  0  0  0  0  0  0  0  0  0  0
    2.7310    0.2740    2.2230 C   0  0  0  0  0  0  0  0  0  0  0  0
    2.8550   -0.7680    3.1100 C   0  0  0  0  0  0  0  0  0  0  0  0
    4.0620   -1.0560    3.6730 C   0  0  0  0  0  0  0  0  0  0  0  0
    5.1600   -0.2840    3.3390 C   0  0  0  0  0  0  0  0  0  0  0  0
    5.0390    0.7370    2.4700 N   0  0  0  0  0  0  0  0  0  0  0  0
    6.1990    1.5620    2.1130 C   0  0  0  0  0  0  0  0  0  0  0  0
    3.8500    1.0190    1.9170 C   0  0  0  0  0  0  0  0  0  0  0  0
    3.7270    1.9910    1.0880 O   0  0  0  0  0  0  0  0  0  0  0  0
    1.5880   -1.3030    0.3750 N   0  0  0  0  0  0  0  0  0  0  0  0
    1.0380   -2.1110   -0.5430 C   0  0  0  0  0  0  0  0  0  0  0  0
    1.7250   -3.2890   -0.8850 N   0  0  0  0  0  0  0  0  0  0  0  0
   -0.1500   -1.7620   -1.1000 N   0  0  0  0  0  0  0  0  0  0  0  0
   -2.6580    0.9650   -0.9610 C   0  0  0  0  0  0  0  0  0  0  0  0
   -3.8530    1.4100   -1.4460 C   0  0  0  0  0  0  0  0  0  0  0  0
   -4.4370    2.6470   -1.0590 N   0  0  0  0  0  0  0  0  0  0  0  0
  1  2  1  0
  2  3  1  0
  3  4  2  0
  3 24  1  0
  4  5  1  0
  5  6  2  0
  6  7  1  0
  6 23  1  0
  7  8  2  0
  7 22  1  0
  8  9  1  0
  9 10  2  3
  9 19  1  0
 10 11  1  0
 11 12  2  0
 11 17  1  0
 12 13  1  0
 13 14  2  0
 14 15  1  0
 15 16  1  0
 15 17  1  0
 17 18  2  0
 19 20  2  0
 20 21  1  0
 20 22  1  0
 23 24  2  0
 24 25  1  0
M  CHG  1  19   1
M  END
