
     RDKit          3D

 24 27  0  0  0  0  0  0  0  0999 V2000
   -5.6880   -0.0610   -2.6790 C   0  0  0  0  0  0  0  0  0  0  0  0
   -4.3450   -0.0710   -2.0480 C   0  0  0  0  0  0  0  0  0  0  0  0
   -3.1620   -0.1170   -2.7590 C   0  0  0  0  0  0  0  0  0  0  0  0
   -2.1590   -0.1090   -1.7830 C   0  0  0  0  0  0  0  0  0  0  0  0
   -2.7890   -0.0600   -0.5640 C   0  0  0  0  0  0  0  0  0  0  0  0
   -2.1490   -0.0350    0.7540 C   0  0  0  0  0  0  0  0  0  0  0  0
   -0.8190   -0.0600    0.8510 C   0  0  0  0  0  0  0  0  0  0  0  0
   -0.0820   -0.0400    2.0910 C   0  0  0  0  0  0  0  0  0  0  0  0
    1.2080   -0.0610    2.1370 C   0  0  0  0  0  0  0  0  0  0  0  0
    2.1670   -0.1000    1.0620 C   0  0  0  0  0  0  0  0  0  0  0  0
    2.0470    0.7760    0.0120 C   0  0  0  0  0  0  0  0  0  0  0  0
    2.9460    0.7550   -1.0610 C   0  0  0  0  0  0  0  0  0  0  0  0
    3.9780   -0.1600   -1.0750 C   0  0  0  0  0  0  0  0  0  0  0  0
    4.0850   -1.0300   -0.0180 C   0  0  0  0  0  0  0  0  0  0  0  0
    3.2130   -1.0310    1.0520 C   0  0  0  0  0  0  0  0  0  0  0  0
    3.3420   -1.9790    2.1910 C   0  0  0  0  0  0  0  0  0  0  0  0
    4.7350    0.0190   -2.2500 O   0  0  0  0  0  0  0  0  0  0  0  0
    4.5750    1.4070   -2.5850 C   0  0  0  0  0  0  0  0  0  0  0  0
    3.0720    1.5570   -2.3120 C   0  0  0  0  0  0  0  0  0  0  0  0
   -0.8800    0.0050    3.2580 O   0  0  0  0  0  0  0  0  0  0  0  0
   -2.2140   -0.4830    3.2120 C   0  0  0  0  0  0  0  0  0  0  0  0
   -2.9420    0.0260    2.0010 C   0  0  1  0  0  0  0  0  0  0  0  0
   -3.2540    1.3820    2.2320 O   0  0  0  0  0  0  0  0  0  0  0  0
   -4.0750   -0.0390   -0.7580 O   0  0  0  0  0  0  0  0  0  0  0  0
  1  2  1  0
  2  3  2  0
  2 24  1  0
  3  4  1  0
  4  5  2  0
  5  6  1  0
  5 24  1  0
  6  7  2  0
  6 22  1  0
  7  8  1  0
  8  9  2  3
  8 20  1  0
  9 10  1  0
 10 11  2  0
 10 15  1  0
 11 12  1  0
 12 13  2  0
 12 19  1  0
 13 14  1  0
 13 17  1  0
 14 15  2  0
 15 16  1  0
 17 18  1  0
 18 19  1  0
 20 21  1  0
 21 22  1  0
 22 23  1  1
M  END
