
     RDKit          3D

  6  6  0  0  0  0  0  0  0  0999 V2000
    1.9640    0.4370   -0.0390 N   0  0  0  0  0  0  0  0  0  0  0  0
    0.5740    0.1680   -0.0210 C   0  0  0  0  0  0  0  0  0  0  0  0
   -0.4400    1.0210   -0.0590 C   0  0  0  0  0  0  0  0  0  0  0  0
   -1.6860    0.2120   -0.0150 C   0  0  0  0  0  0  0  0  0  0  0  0
   -1.2680   -1.0660   -0.3820 O   0  0  0  0  0  0  0  0  0  0  0  0
    0.0240   -1.2080    0.0480 C   0  0  0  0  0  0  0  0  0  0  0  0
  1  2  1  0
  2  3  2  0
  2  6  1  0
  3  4  1  0
  4  5  1  0
  5  6  1  0
M  END
