
     RDKit          3D

  7  7  0  0  0  0  0  0  0  0999 V2000
   -1.1210    0.5860    1.4610 O   0  0  0  0  0  0  0  0  0  0  0  0
   -0.9400   -0.1760    0.3060 C   0  0  1  0  0  0  0  0  0  0  0  0
   -0.8630    0.7590   -0.8860 C   0  0  0  0  0  0  0  0  0  0  0  0
    0.5030    1.2430   -0.8360 N   0  0  0  0  0  0  0  0  0  0  0  0
    1.2850    0.0540   -0.5290 C   0  0  0  0  0  0  0  0  0  0  0  0
    0.3890   -0.8630    0.2580 C   0  0  1  0  0  0  0  0  0  0  0  0
    0.8940   -1.1900    1.5040 O   0  0  0  0  0  0  0  0  0  0  0  0
  2  1  1  1
  2  3  1  0
  2  6  1  0
  3  4  1  0
  4  5  1  0
  5  6  1  0
  6  7  1  1
M  END
