
     RDKit          3D

  7  6  0  0  0  0  0  0  0  0999 V2000
   -2.5580    0.5050   -0.1880 C   0  0  0  0  0  0  0  0  0  0  0  0
   -1.6250   -0.3920    0.0010 C   0  0  0  0  0  0  0  0  0  0  0  0
   -0.3360   -0.0320    0.6180 C   0  0  0  0  0  0  0  0  0  0  0  0
    0.7140   -0.3380   -0.3350 N   0  0  0  0  0  0  0  0  0  0  0  0
    2.0750   -0.0720    0.0390 C   0  0  0  0  0  0  0  0  0  0  0  0
    2.2820    0.4140    1.1790 O   0  0  0  0  0  0  0  0  0  0  0  0
    3.1230   -0.3510   -0.8460 O   0  0  0  0  0  0  0  0  0  0  0  0
  1  2  2  0
  2  3  1  0
  3  4  1  0
  4  5  1  0
  5  6  2  0
  5  7  1  0
M  END
