
     RDKit          3D

  7  7  0  0  0  0  0  0  0  0999 V2000
   -2.0540    0.0160    0.1050 C   0  0  0  0  0  0  0  0  0  0  0  0
   -0.8140    0.0600    0.7840 O   0  0  0  0  0  0  0  0  0  0  0  0
    0.1850    0.1500   -0.1410 C   0  0  1  0  0  0  0  0  0  0  0  0
    1.1740    1.2260    0.1490 C   0  0  0  0  0  0  0  0  0  0  0  0
    2.3510    0.7710   -0.1230 N   0  0  0  0  0  0  0  0  0  0  0  0
    2.2790   -0.5270   -0.5780 O   0  0  0  0  0  0  0  0  0  0  0  0
    1.1050   -1.0660    0.0390 C   0  0  0  0  0  0  0  0  0  0  0  0
  1  2  1  0
  3  2  1  1
  3  4  1  0
  3  7  1  0
  4  5  2  0
  5  6  1  0
  6  7  1  0
M  END
