
     RDKit          3D

 22 25  0  0  0  0  0  0  0  0999 V2000
    5.5550    1.0160   -1.0930 C   0  0  0  0  0  0  0  0  0  0  0  0
    4.9540    0.0090   -0.3340 O   0  0  0  0  0  0  0  0  0  0  0  0
    3.5780   -0.0840   -0.1320 C   0  0  0  0  0  0  0  0  0  0  0  0
    2.7570    0.8620   -0.7070 C   0  0  0  0  0  0  0  0  0  0  0  0
    1.3760    0.7730   -0.5070 C   0  0  0  0  0  0  0  0  0  0  0  0
    0.5160    1.6870   -1.0560 C   0  0  0  0  0  0  0  0  0  0  0  0
   -0.8080    1.6250   -0.8800 N   0  0  0  0  0  0  0  0  0  0  0  0
   -1.3520    0.6250   -0.1320 C   0  0  0  0  0  0  0  0  0  0  0  0
   -2.7850    0.5280    0.0790 C   0  0  0  0  0  0  0  0  0  0  0  0
   -3.3740   -0.4530    0.8190 C   0  0  0  0  0  0  0  0  0  0  0  0
   -4.7600   -0.4330    0.9440 C   0  0  0  0  0  0  0  0  0  0  0  0
   -5.5400    0.5300    0.3530 C   0  0  0  0  0  0  0  0  0  0  0  0
   -6.9350    0.5300    0.4920 O   0  0  0  0  0  0  0  0  0  0  0  0
   -4.9330    1.5120   -0.3890 C   0  0  0  0  0  0  0  0  0  0  0  0
   -3.5710    1.5140   -0.5270 C   0  0  0  0  0  0  0  0  0  0  0  0
   -0.5250   -0.3080    0.4340 C   0  0  0  0  0  0  0  0  0  0  0  0
    0.8610   -0.2410    0.2490 C   0  0  0  0  0  0  0  0  0  0  0  0
    1.7050   -1.1790    0.8160 C   0  0  0  0  0  0  0  0  0  0  0  0
    3.0690   -1.1090    0.6310 C   0  0  0  0  0  0  0  0  0  0  0  0
    3.6360   -2.1720    1.3130 O   0  0  0  0  0  0  0  0  0  0  0  0
    2.6930   -2.7760    2.1770 C   0  0  0  0  0  0  0  0  0  0  0  0
    1.4280   -2.3250    1.6400 N   0  0  0  0  0  0  0  0  0  0  0  0
  1  2  1  0
  2  3  1  0
  3  4  2  0
  3 19  1  0
  4  5  1  0
  5  6  2  0
  5 17  1  0
  6  7  1  0
  7  8  2  0
  8  9  1  0
  8 16  1  0
  9 10  2  0
  9 15  1  0
 10 11  1  0
 11 12  2  0
 12 13  1  0
 12 14  1  0
 14 15  2  0
 16 17  2  0
 17 18  1  0
 18 19  2  0
 18 22  1  0
 19 20  1  0
 20 21  1  0
 21 22  1  0
M  END
