
     RDKit          3D

 25 27  0  0  0  0  0  0  0  0999 V2000
    7.5040    0.6580    2.5890 C   0  0  0  0  0  0  0  0  0  0  0  0
    6.2570    0.5650    1.7520 C   0  0  0  0  0  0  0  0  0  0  0  0
    6.2210    1.3250    0.6210 C   0  0  0  0  0  0  0  0  0  0  0  0
    5.1160    1.2900   -0.1880 C   0  0  0  0  0  0  0  0  0  0  0  0
    4.0520    0.4550    0.1940 C   0  0  0  0  0  0  0  0  0  0  0  0
    4.0430   -0.3210    1.3130 C   0  0  0  0  0  0  0  0  0  0  0  0
    2.9720   -1.1790    1.7260 C   0  0  0  0  0  0  0  0  0  0  0  0
    1.8160   -1.5130    1.3130 C   0  0  0  0  0  0  0  0  0  0  0  0
    1.0450   -1.1280    0.1580 C   0  0  0  0  0  0  0  0  0  0  0  0
   -0.1700   -1.6560   -0.0200 N   0  0  0  0  0  0  0  0  0  0  0  0
   -0.8580   -1.2010   -1.2120 C   0  0  0  0  0  0  0  0  0  0  0  0
   -1.9630   -0.4550   -1.1150 C   0  0  0  0  0  0  0  0  0  0  0  0
   -2.4120   -0.1420    0.2440 C   0  0  0  0  0  0  0  0  0  0  0  0
   -1.6890   -0.6410    1.2090 O   0  0  0  0  0  0  0  0  0  0  0  0
   -3.4960    0.6100    0.6730 N   0  0  0  0  0  0  0  0  0  0  0  0
   -3.6980    0.6940    2.1750 C   0  0  0  0  0  0  0  0  0  0  0  0
   -5.1630    0.7230    2.4600 C   0  0  0  0  0  0  0  0  0  0  0  0
   -5.9410    0.1180    1.4890 O   0  0  0  0  0  0  0  0  0  0  0  0
   -5.8080    0.5960    0.2180 C   0  0  0  0  0  0  0  0  0  0  0  0
   -4.5030    1.3580   -0.0040 C   0  0  0  0  0  0  0  0  0  0  0  0
   -2.6820    0.0010   -2.3090 C   0  0  0  0  0  0  0  0  0  0  0  0
   -2.1790   -0.4710   -3.6370 C   0  0  0  0  0  0  0  0  0  0  0  0
   -1.3060   -1.6980   -3.5650 C   0  0  0  0  0  0  0  0  0  0  0  0
   -0.3470   -1.5520   -2.4810 N   0  0  0  0  0  0  0  0  0  0  0  0
    5.2130   -0.2310    2.0960 C   0  0  0  0  0  0  0  0  0  0  0  0
  1  2  1  0
  2  3  2  0
  2 25  1  0
  3  4  1  0
  4  5  2  0
  5  6  1  0
  6  7  1  0
  6 25  2  0
  7  8  2  3
  8  9  1  0
  9 10  2  3
 10 11  1  0
 11 12  2  0
 11 24  1  0
 12 13  1  0
 12 21  1  0
 13 14  2  0
 13 15  1  0
 15 16  1  0
 15 20  1  0
 16 17  1  0
 17 18  1  0
 18 19  1  0
 19 20  1  0
 21 22  1  0
 22 23  1  0
 23 24  1  0
M  END
