
     RDKit          3D

 25 27  0  0  0  0  0  0  0  0999 V2000
   -6.6760    0.8450   -1.4710 C   0  0  0  0  0  0  0  0  0  0  0  0
   -5.4290    0.3580   -0.8230 C   0  0  0  0  0  0  0  0  0  0  0  0
   -5.3780    0.0810    0.5290 C   0  0  0  0  0  0  0  0  0  0  0  0
   -4.2080   -0.3690    1.1070 C   0  0  0  0  0  0  0  0  0  0  0  0
   -3.0490   -0.5650    0.3880 C   0  0  0  0  0  0  0  0  0  0  0  0
   -1.8460   -1.0370    1.0280 N   0  0  0  0  0  0  0  0  0  0  0  0
   -0.7150   -0.3190    1.0040 C   0  0  0  0  0  0  0  0  0  0  0  0
    0.4670   -0.7070    1.5920 C   0  0  0  0  0  0  0  0  0  0  0  0
    1.6870    0.0800    1.5590 C   0  0  0  0  0  0  0  0  0  0  0  0
    2.7180   -0.3630    2.1280 O   0  0  0  0  0  0  0  0  0  0  0  0
    1.8100    1.3380    0.9220 N   0  0  0  0  0  0  0  0  0  0  0  0
    3.0440    2.0990    0.9070 C   0  0  0  0  0  0  0  0  0  0  0  0
    4.1500    1.3670    0.2620 C   0  0  0  0  0  0  0  0  0  0  0  0
    5.2550    1.0820    0.9310 C   0  0  0  0  0  0  0  0  0  0  0  0
    6.3380    0.3880    0.3650 N   0  0  0  0  0  0  0  0  0  0  0  0
    6.3100   -0.0660   -1.0010 C   0  0  0  0  0  0  0  0  0  0  0  0
    5.0600    0.2730   -1.7090 C   0  0  0  0  0  0  0  0  0  0  0  0
    4.0630    0.9380   -1.1160 C   0  0  0  0  0  0  0  0  0  0  0  0
    0.4410   -1.9270    2.2410 C   0  0  0  0  0  0  0  0  0  0  0  0
   -0.7190   -2.6820    2.2750 C   0  0  0  0  0  0  0  0  0  0  0  0
   -1.8580   -2.2180    1.6600 C   0  0  0  0  0  0  0  0  0  0  0  0
   -2.9210   -2.9050    1.6890 O   0  0  0  0  0  0  0  0  0  0  0  0
   -3.1010   -0.2870   -0.9610 C   0  0  0  0  0  0  0  0  0  0  0  0
   -1.8560   -0.4890   -1.7690 C   0  0  0  0  0  0  0  0  0  0  0  0
   -4.2690    0.1640   -1.5440 C   0  0  0  0  0  0  0  0  0  0  0  0
  1  2  1  0
  2  3  2  0
  2 25  1  0
  3  4  1  0
  4  5  2  0
  5  6  1  0
  5 23  1  0
  6  7  1  0
  6 21  1  0
  7  8  2  0
  8  9  1  0
  8 19  1  0
  9 10  2  0
  9 11  1  0
 11 12  1  0
 12 13  1  0
 13 14  2  0
 13 18  1  0
 14 15  1  0
 15 16  1  0
 16 17  1  0
 17 18  2  0
 19 20  2  0
 20 21  1  0
 21 22  2  0
 23 24  1  0
 23 25  2  0
M  END
