
     RDKit          3D

 23 25  0  0  0  0  0  0  0  0999 V2000
   -5.3510    1.8830   -0.0750 C   0  0  0  0  0  0  0  0  0  0  0  0
   -4.4710    0.7810   -0.0460 O   0  0  0  0  0  0  0  0  0  0  0  0
   -3.1300    0.9570    0.2750 C   0  0  0  0  0  0  0  0  0  0  0  0
   -2.6490    2.1810    0.5640 C   0  0  0  0  0  0  0  0  0  0  0  0
   -1.2880    2.3760    0.8900 C   0  0  0  0  0  0  0  0  0  0  0  0
   -0.8630    3.6420    1.1680 O   0  0  0  0  0  0  0  0  0  0  0  0
   -0.4750    1.2520    0.9000 C   0  0  0  0  0  0  0  0  0  0  0  0
    0.9050    1.3860    1.3000 C   0  0  0  0  0  0  0  0  0  0  0  0
    1.2520    2.4530    1.9640 O   0  0  0  0  0  0  0  0  0  0  0  0
    1.9810    0.5180    1.0760 N   0  0  0  0  0  0  0  0  0  0  0  0
    3.3620    0.7580    1.5820 C   0  0  0  0  0  0  0  0  0  0  0  0
    4.2040    0.0380    0.6060 C   0  0  0  0  0  0  0  0  0  0  0  0
    5.5750    0.0870    0.3450 C   0  0  0  0  0  0  0  0  0  0  0  0
    6.1580   -0.7020   -0.6380 C   0  0  0  0  0  0  0  0  0  0  0  0
    5.3590   -1.5450   -1.3640 C   0  0  0  0  0  0  0  0  0  0  0  0
    4.0040   -1.5960   -1.1110 C   0  0  0  0  0  0  0  0  0  0  0  0
    3.4450   -0.8090   -0.1350 C   0  0  0  0  0  0  0  0  0  0  0  0
    2.0120   -0.6930    0.3100 C   0  0  0  0  0  0  0  0  0  0  0  0
   -1.0320   -0.0010    0.5910 C   0  0  0  0  0  0  0  0  0  0  0  0
   -2.3640   -0.1880    0.2720 C   0  0  0  0  0  0  0  0  0  0  0  0
   -2.8730   -1.5210   -0.0200 C   0  0  2  0  0  0  0  0  0  0  0  0
   -1.7450   -2.4980   -0.2280 C   0  0  0  0  0  0  0  0  0  0  0  0
   -3.9170   -1.6540   -1.0590 C   0  0  0  0  0  0  0  0  0  0  0  0
  1  2  1  0
  2  3  1  0
  3  4  2  0
  3 20  1  0
  4  5  1  0
  5  6  1  0
  5  7  2  0
  7  8  1  0
  7 19  1  0
  8  9  2  0
  8 10  1  0
 10 11  1  0
 10 18  1  0
 11 12  1  0
 12 13  2  0
 12 17  1  0
 13 14  1  0
 14 15  2  0
 15 16  1  0
 16 17  2  0
 17 18  1  0
 19 20  2  0
 20 21  1  0
 21 22  1  6
 21 23  1  0
M  END
