
     RDKit          3D

 22 25  0  0  0  0  0  0  0  0999 V2000
    0.8430   -1.2580   -1.2780 O   0  0  0  0  0  0  0  0  0  0  0  0
    0.9470   -0.4500   -0.3120 C   0  0  0  0  0  0  0  0  0  0  0  0
   -0.1780    0.0530    0.3460 N   0  0  0  0  0  0  0  0  0  0  0  0
   -1.5150   -0.2600    0.0490 C   0  0  0  0  0  0  0  0  0  0  0  0
   -1.9110   -1.2830   -0.7680 C   0  0  0  0  0  0  0  0  0  0  0  0
   -3.2580   -1.5010   -1.0150 C   0  0  0  0  0  0  0  0  0  0  0  0
   -4.2310   -0.6880   -0.4400 C   0  0  0  0  0  0  0  0  0  0  0  0
   -3.8620    0.3470    0.3850 C   0  0  0  0  0  0  0  0  0  0  0  0
   -2.5200    0.5400    0.6120 C   0  0  0  0  0  0  0  0  0  0  0  0
   -5.0710    1.0470    0.8670 C   0  0  0  0  0  0  0  0  0  0  0  0
   -5.0880    2.2070    1.2870 O   0  0  0  0  0  0  0  0  0  0  0  0
   -6.1510    0.0210    0.7050 C   0  0  0  0  0  0  0  0  0  0  0  0
   -5.6960   -0.6950   -0.5420 C   0  0  0  0  0  0  0  0  0  0  0  0
    2.3010   -0.0280    0.1280 C   0  0  0  0  0  0  0  0  0  0  0  0
    2.5160    0.5210    1.3570 C   0  0  0  0  0  0  0  0  0  0  0  0
    3.7810    0.9090    1.7310 C   0  0  0  0  0  0  0  0  0  0  0  0
    4.8190    0.7340    0.8490 C   0  0  0  0  0  0  0  0  0  0  0  0
    4.6040    0.1760   -0.4010 C   0  0  0  0  0  0  0  0  0  0  0  0
    3.3420   -0.2070   -0.7640 C   0  0  0  0  0  0  0  0  0  0  0  0
    5.8610    0.1250   -1.0810 N   0  0  0  0  0  0  0  0  0  0  0  0
    6.8880    0.5410   -0.1500 C   0  0  0  0  0  0  0  0  0  0  0  0
    6.1810    1.0310    0.9630 O   0  0  0  0  0  0  0  0  0  0  0  0
  1  2  2  0
  2  3  1  0
  2 14  1  0
  3  4  1  0
  4  5  2  0
  4  9  1  0
  5  6  1  0
  6  7  2  0
  7  8  1  0
  7 13  1  0
  8  9  2  0
  8 10  1  0
 10 11  2  0
 10 12  1  0
 12 13  1  0
 14 15  2  0
 14 19  1  0
 15 16  1  0
 16 17  2  0
 17 18  1  0
 17 22  1  0
 18 19  2  0
 18 20  1  0
 20 21  1  0
 21 22  1  0
M  END
