
     RDKit          3D

 22 25  0  0  0  0  0  0  0  0999 V2000
   -5.3210    1.7510    1.0370 C   0  0  0  0  0  0  0  0  0  0  0  0
   -5.5840    0.4630    0.5360 O   0  0  0  0  0  0  0  0  0  0  0  0
   -4.5060   -0.3390    0.1610 C   0  0  0  0  0  0  0  0  0  0  0  0
   -4.6880   -1.6160   -0.3400 C   0  0  0  0  0  0  0  0  0  0  0  0
   -3.6280   -2.4170   -0.7130 C   0  0  0  0  0  0  0  0  0  0  0  0
   -2.3170   -1.9460   -0.5920 C   0  0  0  0  0  0  0  0  0  0  0  0
   -1.1510   -2.4820   -0.8660 O   0  0  0  0  0  0  0  0  0  0  0  0
   -0.1750   -1.6520   -0.5840 C   0  0  0  0  0  0  0  0  0  0  0  0
    1.2030   -1.6880   -0.6690 C   0  0  0  0  0  0  0  0  0  0  0  0
    1.9830   -0.6110   -0.2780 C   0  0  0  0  0  0  0  0  0  0  0  0
    1.3660    0.5280    0.2080 C   0  0  0  0  0  0  0  0  0  0  0  0
    2.3730    1.4430    0.5220 C   0  0  0  0  0  0  0  0  0  0  0  0
    3.5660    0.8310    0.2170 C   0  0  0  0  0  0  0  0  0  0  0  0
    4.8940    1.3950    0.3740 C   0  0  0  0  0  0  0  0  0  0  0  0
    5.0270    2.7070    0.8910 N   0  0  0  0  0  0  0  0  0  0  0  0
    5.9420    0.7710    0.0710 O   0  0  0  0  0  0  0  0  0  0  0  0
    3.3130   -0.4050   -0.2640 N   0  0  0  0  0  0  0  0  0  0  0  0
    4.3430   -1.3470   -0.6930 C   0  0  0  0  0  0  0  0  0  0  0  0
    0.0100    0.5900    0.3020 C   0  0  0  0  0  0  0  0  0  0  0  0
   -0.7420   -0.4940   -0.0930 C   0  0  0  0  0  0  0  0  0  0  0  0
   -2.1260   -0.6890   -0.1000 C   0  0  0  0  0  0  0  0  0  0  0  0
   -3.1940    0.1010    0.2700 C   0  0  0  0  0  0  0  0  0  0  0  0
  1  2  1  0
  2  3  1  0
  3  4  2  0
  3 22  1  0
  4  5  1  0
  5  6  2  0
  6  7  1  0
  6 21  1  0
  7  8  1  0
  8  9  2  0
  8 20  1  0
  9 10  1  0
 10 11  2  0
 10 17  1  0
 11 12  1  0
 11 19  1  0
 12 13  2  0
 13 14  1  0
 13 17  1  0
 14 15  1  0
 14 16  2  0
 17 18  1  0
 19 20  2  0
 20 21  1  0
 21 22  2  0
M  END
