
     RDKit          3D

 22 25  0  0  0  0  0  0  0  0999 V2000
   -4.2580    2.2500    0.1980 C   0  0  0  0  0  0  0  0  0  0  0  0
   -4.7950    1.0590    0.2930 C   0  0  0  0  0  0  0  0  0  0  0  0
   -6.2420    0.9530    0.4000 N   0  0  0  0  0  0  0  0  0  0  0  0
   -6.5200   -0.4500    0.4880 C   0  0  0  0  0  0  0  0  0  0  0  0
   -5.2440   -1.1220    0.4320 C   0  0  0  0  0  0  0  0  0  0  0  0
   -4.2010   -0.2480    0.3160 C   0  0  0  0  0  0  0  0  0  0  0  0
   -2.8300   -0.6800    0.2410 C   0  0  0  0  0  0  0  0  0  0  0  0
   -1.7750    0.0610    0.1310 C   0  0  0  0  0  0  0  0  0  0  0  0
   -0.4190   -0.5680    0.0670 C   0  0  0  0  0  0  0  0  0  0  0  0
   -0.2100   -1.9120    0.1180 C   0  0  0  0  0  0  0  0  0  0  0  0
    1.1720   -2.0920    0.0300 C   0  0  0  0  0  0  0  0  0  0  0  0
    1.7090   -0.8290   -0.0690 C   0  0  0  0  0  0  0  0  0  0  0  0
    3.1340   -0.5460   -0.1830 C   0  0  0  0  0  0  0  0  0  0  0  0
    3.6130    0.7470   -0.2800 C   0  0  0  0  0  0  0  0  0  0  0  0
    4.9630    1.0080   -0.3870 C   0  0  0  0  0  0  0  0  0  0  0  0
    5.8380   -0.0540   -0.3960 C   0  0  0  0  0  0  0  0  0  0  0  0
    5.3620   -1.3240   -0.3010 C   0  0  0  0  0  0  0  0  0  0  0  0
    4.0490   -1.5290   -0.1990 N   0  0  0  0  0  0  0  0  0  0  0  0
    7.1550    0.4070   -0.5110 O   0  0  0  0  0  0  0  0  0  0  0  0
    7.1030    1.8000   -0.2250 C   0  0  0  0  0  0  0  0  0  0  0  0
    5.7480    2.1570   -0.4980 O   0  0  0  0  0  0  0  0  0  0  0  0
    0.7370    0.0200   -0.0430 O   0  0  0  0  0  0  0  0  0  0  0  0
  1  2  2  0
  2  3  1  0
  2  6  1  0
  3  4  1  0
  4  5  1  0
  5  6  2  0
  6  7  1  0
  7  8  2  3
  8  9  1  0
  9 10  2  0
  9 22  1  0
 10 11  1  0
 11 12  2  0
 12 13  1  0
 12 22  1  0
 13 14  2  0
 13 18  1  0
 14 15  1  0
 15 16  2  0
 15 21  1  0
 16 17  1  0
 16 19  1  0
 17 18  2  0
 19 20  1  0
 20 21  1  0
M  END
