
     RDKit          3D

 22 25  0  0  0  0  0  0  0  0999 V2000
   -4.9530    2.1810   -0.7080 C   0  0  0  0  0  0  0  0  0  0  0  0
   -4.0970    2.6690    0.1550 C   0  0  0  0  0  0  0  0  0  0  0  0
   -4.3950    3.7290    1.1440 C   0  0  0  0  0  0  0  0  0  0  0  0
   -3.0880    4.3220    1.3220 N   0  0  0  0  0  0  0  0  0  0  0  0
   -2.1100    3.3330    1.0560 C   0  0  0  0  0  0  0  0  0  0  0  0
   -0.7730    3.2230    1.3630 C   0  0  0  0  0  0  0  0  0  0  0  0
   -0.0170    2.1030    0.9660 C   0  0  0  0  0  0  0  0  0  0  0  0
   -0.6170    1.0980    0.2600 C   0  0  0  0  0  0  0  0  0  0  0  0
    0.1360   -0.0650   -0.1550 C   0  0  0  0  0  0  0  0  0  0  0  0
   -0.3120   -0.8120   -1.0970 O   0  0  0  0  0  0  0  0  0  0  0  0
    1.3600   -0.3940    0.4590 N   0  0  0  0  0  0  0  0  0  0  0  0
    2.1930   -1.4970    0.1510 C   0  0  0  0  0  0  0  0  0  0  0  0
    3.4560   -1.5060    0.7570 C   0  0  0  0  0  0  0  0  0  0  0  0
    4.3450   -2.5320    0.5330 C   0  0  0  0  0  0  0  0  0  0  0  0
    4.0290   -3.5930   -0.2970 C   0  0  0  0  0  0  0  0  0  0  0  0
    2.7960   -3.6080   -0.9040 C   0  0  0  0  0  0  0  0  0  0  0  0
    1.9020   -2.5510   -0.6620 C   0  0  0  0  0  0  0  0  0  0  0  0
    2.7140   -4.7580   -1.6770 O   0  0  0  0  0  0  0  0  0  0  0  0
    3.6520   -5.6830   -1.1020 C   0  0  0  0  0  0  0  0  0  0  0  0
    4.6820   -4.7560   -0.7240 O   0  0  0  0  0  0  0  0  0  0  0  0
   -1.9540    1.2140   -0.0430 C   0  0  0  0  0  0  0  0  0  0  0  0
   -2.7110    2.3080    0.3400 C   0  0  0  0  0  0  0  0  0  0  0  0
  1  2  2  0
  2  3  1  0
  2 22  1  0
  3  4  1  0
  4  5  1  0
  5  6  2  0
  5 22  1  0
  6  7  1  0
  7  8  2  0
  8  9  1  0
  8 21  1  0
  9 10  2  0
  9 11  1  0
 11 12  1  0
 12 13  2  0
 12 17  1  0
 13 14  1  0
 14 15  2  0
 15 16  1  0
 15 20  1  0
 16 17  2  0
 16 18  1  0
 18 19  1  0
 19 20  1  0
 21 22  2  0
M  END
