
     RDKit          3D

 22 25  0  0  0  0  0  0  0  0999 V2000
    0.3780    1.1470   -0.1180 O   0  0  0  0  0  0  0  0  0  0  0  0
    0.1280   -0.0560   -0.0270 C   0  0  0  0  0  0  0  0  0  0  0  0
    1.2300   -0.9560    0.1060 N   0  0  0  0  0  0  0  0  0  0  0  0
    2.5890   -0.6210    0.1410 C   0  0  0  0  0  0  0  0  0  0  0  0
    3.4670   -1.6720    0.4540 C   0  0  0  0  0  0  0  0  0  0  0  0
    4.8280   -1.5220    0.5230 C   0  0  0  0  0  0  0  0  0  0  0  0
    5.3380   -0.2680    0.2690 C   0  0  0  0  0  0  0  0  0  0  0  0
    4.5180    0.7960   -0.0430 C   0  0  0  0  0  0  0  0  0  0  0  0
    3.1260    0.6120   -0.1070 C   0  0  0  0  0  0  0  0  0  0  0  0
    5.2970    1.9360   -0.2500 O   0  0  0  0  0  0  0  0  0  0  0  0
    6.6630    1.5110   -0.3350 C   0  0  0  0  0  0  0  0  0  0  0  0
    6.6400    0.2120    0.2560 O   0  0  0  0  0  0  0  0  0  0  0  0
   -1.2030   -0.4950   -0.0550 N   0  0  0  0  0  0  0  0  0  0  0  0
   -2.3360    0.3250   -0.1820 C   0  0  0  0  0  0  0  0  0  0  0  0
   -2.3140    1.6950   -0.2980 C   0  0  0  0  0  0  0  0  0  0  0  0
   -3.5200    2.3800   -0.4170 C   0  0  0  0  0  0  0  0  0  0  0  0
   -4.7110    1.7290   -0.4200 C   0  0  0  0  0  0  0  0  0  0  0  0
   -4.7300    0.3440   -0.3020 C   0  0  0  0  0  0  0  0  0  0  0  0
   -3.5740   -0.3610   -0.1840 C   0  0  0  0  0  0  0  0  0  0  0  0
   -3.8770   -1.6580   -0.0880 C   0  0  0  0  0  0  0  0  0  0  0  0
   -5.3460   -1.7990   -0.1480 C   0  0  0  0  0  0  0  0  0  0  0  0
   -5.8080   -0.4200   -0.2900 C   0  0  0  0  0  0  0  0  0  0  0  0
  1  2  2  0
  2  3  1  0
  2 13  1  0
  3  4  1  0
  4  5  2  0
  4  9  1  0
  5  6  1  0
  6  7  2  0
  7  8  1  0
  7 12  1  0
  8  9  2  0
  8 10  1  0
 10 11  1  0
 11 12  1  0
 13 14  1  0
 14 15  2  0
 14 19  1  0
 15 16  1  0
 16 17  2  0
 17 18  1  0
 18 19  1  0
 18 22  2  0
 19 20  2  0
 20 21  1  0
 21 22  1  0
M  END
