
     RDKit          3D

 20 21  0  0  0  0  0  0  0  0999 V2000
    2.1450    2.4630    2.6100 C   0  0  0  0  0  0  0  0  0  0  0  0
    3.0600    2.5130    1.6640 C   0  0  0  0  0  0  0  0  0  0  0  0
    3.0280    1.5540    0.5770 C   0  0  0  0  0  0  0  0  0  0  0  0
    3.9360    1.6000   -0.3650 C   0  0  0  0  0  0  0  0  0  0  0  0
    2.0120    0.5540    0.5200 N   0  0  0  0  0  0  0  0  0  0  0  0
    2.1760   -0.7020    1.2210 C   0  0  0  0  0  0  0  0  0  0  0  0
    1.3410   -1.7510    0.5910 C   0  0  0  0  0  0  0  0  0  0  0  0
    0.1780   -1.5210   -0.0390 C   0  0  0  0  0  0  0  0  0  0  0  0
   -0.5370   -2.6890   -0.6170 C   0  0  0  0  0  0  0  0  0  0  0  0
   -0.3600   -0.1510   -0.1360 C   0  0  2  0  0  0  0  0  0  0  0  0
   -1.0410    0.0870    1.1340 N   0  0  0  0  0  0  0  0  0  0  0  0
   -1.1810    0.1580   -1.3390 C   0  0  1  0  0  0  0  0  0  0  0  0
   -0.4390   -0.0370   -2.5640 N   0  0  0  0  0  0  0  0  0  0  0  0
   -1.2780   -0.6710   -3.5120 C   0  0  0  0  0  0  0  0  0  0  0  0
   -2.3020   -1.2990   -2.7040 N   0  0  0  0  0  0  0  0  0  0  0  0
   -2.4660   -0.4840   -1.5040 C   0  0  0  0  0  0  0  0  0  0  0  0
   -3.5970   -0.4760   -0.9280 N   0  0  0  0  0  0  0  0  0  0  0  0
   -4.0900    0.2200    0.1900 C   0  0  0  0  0  0  0  0  0  0  0  0
    0.8300    0.7890   -0.2270 C   0  0  0  0  0  0  0  0  0  0  0  0
    0.8220    1.8100   -0.9610 O   0  0  0  0  0  0  0  0  0  0  0  0
  1  2  2  0
  2  3  1  0
  3  4  2  0
  3  5  1  0
  5  6  1  0
  5 19  1  0
  6  7  1  0
  7  8  2  0
  8  9  1  0
  8 10  1  0
 10 11  1  1
 10 12  1  0
 10 19  1  0
 12 13  1  6
 12 16  1  0
 13 14  1  0
 14 15  1  0
 15 16  1  0
 16 17  2  3
 17 18  1  0
 19 20  2  0
M  CHG  1  11   1
M  END
