
     RDKit          3D

 20 22  0  0  0  0  0  0  0  0999 V2000
   -4.4630    1.6980   -0.0700 C   0  0  0  0  0  0  0  0  0  0  0  0
   -3.2990    1.1870    0.7090 C   0  0  1  0  0  0  0  0  0  0  0  0
   -3.6140    0.1080    1.5850 N   0  0  0  0  0  0  0  0  0  0  0  0
   -3.8510   -1.1540    0.9600 C   0  0  0  0  0  0  0  0  0  0  0  0
   -2.6870   -1.5040    0.1640 N   0  0  0  0  0  0  0  0  0  0  0  0
   -2.5430   -0.4680   -0.8360 C   0  0  0  0  0  0  0  0  0  0  0  0
   -2.1130    0.8480   -0.2320 C   0  0  2  0  0  0  0  0  0  0  0  0
   -0.9320    0.7590    0.6460 C   0  0  0  0  0  0  0  0  0  0  0  0
    0.3560    0.4670   -0.0160 C   0  0  0  0  0  0  0  0  0  0  0  0
    0.5940    0.3550   -1.3600 C   0  0  0  0  0  0  0  0  0  0  0  0
    1.9580    0.0700   -1.5310 C   0  0  0  0  0  0  0  0  0  0  0  0
    2.4600    0.0280   -0.2650 C   0  0  0  0  0  0  0  0  0  0  0  0
    3.8330   -0.2310    0.1470 C   0  0  0  0  0  0  0  0  0  0  0  0
    4.1720   -0.2380    1.4570 N   0  0  0  0  0  0  0  0  0  0  0  0
    5.4200   -0.4710    1.8820 C   0  0  0  0  0  0  0  0  0  0  0  0
    6.4370   -0.7210    0.9800 C   0  0  0  0  0  0  0  0  0  0  0  0
    6.0940   -0.7130   -0.3150 N   0  0  0  0  0  0  0  0  0  0  0  0
    4.8200   -0.4750   -0.7520 C   0  0  0  0  0  0  0  0  0  0  0  0
    4.6200   -0.5020   -2.1650 N   0  0  0  0  0  0  0  0  0  0  0  0
    1.4950    0.2650    0.6030 O   0  0  0  0  0  0  0  0  0  0  0  0
  2  1  1  6
  2  3  1  0
  2  7  1  0
  3  4  1  0
  4  5  1  0
  5  6  1  0
  6  7  1  0
  7  8  1  1
  8  9  1  0
  9 10  2  0
  9 20  1  0
 10 11  1  0
 11 12  2  0
 12 13  1  0
 12 20  1  0
 13 14  2  0
 13 18  1  0
 14 15  1  0
 15 16  2  0
 16 17  1  0
 17 18  2  0
 18 19  1  0
M  CHG  1   5   1
M  END
