
     RDKit          3D

 20 22  0  0  0  0  0  0  0  0999 V2000
   -4.7830    1.5980    0.5430 C   0  0  0  0  0  0  0  0  0  0  0  0
   -4.0970    1.0040   -0.6470 C   0  0  2  0  0  0  0  0  0  0  0  0
   -4.5760   -0.3710   -0.8530 C   0  0  0  0  0  0  0  0  0  0  0  0
   -3.7420   -1.2360   -0.3810 C   0  0  0  0  0  0  0  0  0  0  0  0
   -2.5480   -0.5350    0.2280 C   0  0  1  0  0  0  0  0  0  0  0  0
   -1.3840   -1.3950   -0.0830 C   0  0  0  0  0  0  0  0  0  0  0  0
   -0.0760   -0.9260    0.4490 C   0  0  1  0  0  0  0  0  0  0  0  0
    0.9340   -2.0320    0.0420 C   0  0  0  0  0  0  0  0  0  0  0  0
    0.9080   -2.1920   -1.3320 O   0  0  0  0  0  0  0  0  0  0  0  0
    0.3300    0.2960   -0.2130 N   0  0  0  0  0  0  0  0  0  0  0  0
    1.7520    0.5030   -0.0550 C   0  0  0  0  0  0  0  0  0  0  0  0
    2.6960    0.0190   -0.8590 N   0  0  0  0  0  0  0  0  0  0  0  0
    3.9210    0.4030   -0.4220 C   0  0  0  0  0  0  0  0  0  0  0  0
    5.2220    0.2130   -0.8310 C   0  0  0  0  0  0  0  0  0  0  0  0
    6.2170    0.7720   -0.1140 N   0  0  0  0  0  0  0  0  0  0  0  0
    6.0040    1.5070    0.9830 C   0  0  0  0  0  0  0  0  0  0  0  0
    4.7390    1.7130    1.4140 N   0  0  0  0  0  0  0  0  0  0  0  0
    3.6760    1.2000    0.7700 C   0  0  0  0  0  0  0  0  0  0  0  0
    2.3300    1.2120    0.9250 N   0  0  0  0  0  0  0  0  0  0  0  0
   -2.6000    0.8220   -0.3490 C   0  0  0  0  0  0  0  0  0  0  0  0
  2  1  1  1
  2  3  1  0
  2 20  1  0
  3  4  2  0
  4  5  1  0
  5  6  1  6
  5 20  1  0
  7  6  1  6
  7  8  1  0
  7 10  1  0
  8  9  1  0
 10 11  1  0
 11 12  2  0
 11 19  1  0
 12 13  1  0
 13 14  2  0
 13 18  1  0
 14 15  1  0
 15 16  1  0
 16 17  2  0
 17 18  1  0
 18 19  2  0
M  CHG  1  10   1
M  END
