
     RDKit          3D

 29 30  0  0  0  0  0  0  0  0999 V2000
   -3.8400    2.6880    2.8440 C   0  0  0  0  0  0  0  0  0  0  0  0
   -4.3450    1.4530    2.1590 C   0  0  0  0  0  0  0  0  0  0  0  0
   -5.6910    1.1430    2.2020 C   0  0  0  0  0  0  0  0  0  0  0  0
   -6.1760    0.0170    1.5810 C   0  0  0  0  0  0  0  0  0  0  0  0
   -5.3210   -0.8350    0.8970 C   0  0  0  0  0  0  0  0  0  0  0  0
   -5.8120   -2.0480    0.2230 C   0  0  0  0  0  0  0  0  0  0  0  0
   -3.9960   -0.5240    0.8590 C   0  0  0  0  0  0  0  0  0  0  0  0
   -3.0320   -1.3510    0.1720 C   0  0  0  0  0  0  0  0  0  0  0  0
   -3.4100   -2.3890   -0.4120 O   0  0  0  0  0  0  0  0  0  0  0  0
   -1.6000   -0.9850    0.1490 C   0  0  0  0  0  0  0  0  0  0  0  0
   -0.8710   -1.9270   -0.5690 O   0  0  0  0  0  0  0  0  0  0  0  0
    0.5030   -1.8690   -0.7740 C   0  0  0  0  0  0  0  0  0  0  0  0
    0.9330   -1.5110   -1.9460 C   0  0  0  0  0  0  0  0  0  0  0  0
   -0.0090   -1.1800   -2.9990 C   0  0  0  0  0  0  0  0  0  0  0  0
   -1.2670   -1.2290   -2.8180 O   0  0  0  0  0  0  0  0  0  0  0  0
    1.4130   -2.2110    0.3380 C   0  0  0  0  0  0  0  0  0  0  0  0
    2.7960   -2.0490    0.0470 N   0  0  0  0  0  0  0  0  0  0  0  0
    3.2780   -0.7110   -0.2430 C   0  0  0  0  0  0  0  0  0  0  0  0
    2.4980    0.2590   -0.2260 O   0  0  0  0  0  0  0  0  0  0  0  0
    4.6350   -0.5020   -0.5480 N   0  0  0  0  0  0  0  0  0  0  0  0
    5.2910    0.7070   -0.8550 C   0  0  0  0  0  0  0  0  0  0  0  0
    4.6620    1.9260   -0.9030 C   0  0  0  0  0  0  0  0  0  0  0  0
    5.3410    3.0820   -1.2070 N   0  0  0  0  0  0  0  0  0  0  0  0
    6.6560    3.0190   -1.4640 C   0  0  0  0  0  0  0  0  0  0  0  0
    7.4730    4.3880   -1.8260 S   0  0  0  0  0  0  0  0  0  0  0  0
    7.2900    1.8390   -1.4220 N   0  0  0  0  0  0  0  0  0  0  0  0
    6.6590    0.7010   -1.1300 C   0  0  0  0  0  0  0  0  0  0  0  0
    7.2410   -0.4110   -1.0870 O   0  0  0  0  0  0  0  0  0  0  0  0
   -3.4960    0.6200    1.4880 C   0  0  0  0  0  0  0  0  0  0  0  0
  1  2  1  0
  2  3  2  0
  2 29  1  0
  3  4  1  0
  4  5  2  0
  5  6  1  0
  5  7  1  0
  7  8  1  0
  7 29  2  0
  8  9  2  0
  8 10  1  0
 10 11  1  0
 11 12  1  0
 12 13  2  3
 12 16  1  0
 13 14  1  0
 14 15  2  0
 16 17  1  0
 17 18  1  0
 18 19  2  0
 18 20  1  0
 20 21  1  0
 21 22  2  0
 21 27  1  0
 22 23  1  0
 23 24  1  0
 24 25  2  0
 24 26  1  0
 26 27  1  0
 27 28  2  0
M  END
