
     RDKit          3D

 29 30  0  0  0  0  0  0  0  0999 V2000
    8.2240    0.8160   -1.2120 C   0  0  0  0  0  0  0  0  0  0  0  0
    7.2720    1.5730   -0.6630 C   0  0  0  0  0  0  0  0  0  0  0  0
    5.9330    1.0450   -0.4920 C   0  0  0  0  0  0  0  0  0  0  0  0
    4.9950    1.7890    0.0490 C   0  0  0  0  0  0  0  0  0  0  0  0
    5.3070    3.1770    0.4880 C   0  0  0  0  0  0  0  0  0  0  0  0
    3.7270    1.2650    0.2010 O   0  0  0  0  0  0  0  0  0  0  0  0
    3.5530    0.0490    0.8560 C   0  0  0  0  0  0  0  0  0  0  0  0
    2.0680   -0.2530    0.8620 C   0  0  0  0  0  0  0  0  0  0  0  0
    1.7700   -1.3150    1.4170 O   0  0  0  0  0  0  0  0  0  0  0  0
    1.1350    0.5960    0.2910 N   0  0  0  0  0  0  0  0  0  0  0  0
   -0.2640    0.4200    0.1920 C   0  0  0  0  0  0  0  0  0  0  0  0
   -1.3080    1.9190   -0.0760 S   0  0  0  0  0  0  0  0  0  0  0  0
   -2.8280    1.0820   -0.1290 C   0  0  0  0  0  0  0  0  0  0  0  0
   -4.1570    1.6800   -0.3220 C   0  0  0  0  0  0  0  0  0  0  0  0
   -5.2010    0.9880   -0.3460 O   0  0  0  0  0  0  0  0  0  0  0  0
   -4.2930    3.0530   -0.4850 O   0  0  0  0  0  0  0  0  0  0  0  0
   -5.5280    3.6740   -0.6720 C   0  0  0  0  0  0  0  0  0  0  0  0
   -6.4880    3.4670    0.4540 C   0  0  0  0  0  0  0  0  0  0  0  0
   -2.5050   -0.2420    0.0460 C   0  0  0  0  0  0  0  0  0  0  0  0
   -3.6550   -1.2380    0.0470 C   0  0  0  0  0  0  0  0  0  0  0  0
   -1.1940   -0.5470    0.2030 C   0  0  0  0  0  0  0  0  0  0  0  0
   -0.7680   -2.0210    0.1960 C   0  0  1  0  0  0  0  0  0  0  0  0
   -1.3960   -2.7250    1.2820 N   0  0  0  0  0  0  0  0  0  0  0  0
   -1.4620   -4.1490    1.3130 C   0  0  0  0  0  0  0  0  0  0  0  0
   -1.4670   -4.8530    2.4240 C   0  0  0  0  0  0  0  0  0  0  0  0
   -1.5240   -4.8130    0.0460 N   0  0  0  0  0  0  0  0  0  0  0  0
   -1.5150   -3.9990   -1.1060 C   0  0  0  0  0  0  0  0  0  0  0  0
   -1.5680   -4.5330   -2.2560 O   0  0  0  0  0  0  0  0  0  0  0  0
   -1.4500   -2.6080   -1.0290 N   0  0  0  0  0  0  0  0  0  0  0  0
  1  2  2  0
  2  3  1  0
  3  4  2  3
  4  5  1  0
  4  6  1  0
  6  7  1  0
  7  8  1  0
  8  9  2  0
  8 10  1  0
 10 11  1  0
 11 12  1  0
 11 21  2  0
 12 13  1  0
 13 14  1  0
 13 19  2  0
 14 15  2  0
 14 16  1  0
 16 17  1  0
 17 18  1  0
 19 20  1  0
 19 21  1  0
 22 21  1  1
 22 23  1  0
 22 29  1  0
 23 24  1  0
 24 25  2  0
 24 26  1  0
 26 27  1  0
 27 28  2  0
 27 29  1  0
M  END
