
     RDKit          3D

 29 30  0  0  0  0  0  0  0  0999 V2000
   -5.0890    4.7630    0.3310 C   0  0  0  0  0  0  0  0  0  0  0  0
   -4.2570    4.4310   -0.8830 C   0  0  0  0  0  0  0  0  0  0  0  0
   -3.2030    3.5500   -0.6530 O   0  0  0  0  0  0  0  0  0  0  0  0
   -3.3360    2.2440   -0.1420 C   0  0  0  0  0  0  0  0  0  0  0  0
   -4.4780    1.8590    0.1190 O   0  0  0  0  0  0  0  0  0  0  0  0
   -2.1090    1.4360    0.0420 C   0  0  0  0  0  0  0  0  0  0  0  0
   -0.8520    1.8140   -0.2330 N   0  0  0  0  0  0  0  0  0  0  0  0
    0.0210    0.8290    0.0780 C   0  0  0  0  0  0  0  0  0  0  0  0
    1.4530    0.8510   -0.0740 C   0  0  0  0  0  0  0  0  0  0  0  0
    1.9650    2.0080   -0.3060 O   0  0  0  0  0  0  0  0  0  0  0  0
    2.3090   -0.2690    0.0070 N   0  0  0  0  0  0  0  0  0  0  0  0
    3.7240   -0.0670   -0.1650 C   0  0  0  0  0  0  0  0  0  0  0  0
    4.4730    1.5200   -0.3840 S   0  0  0  0  0  0  0  0  0  0  0  0
    6.1340    0.9320   -0.5200 C   0  0  0  0  0  0  0  0  0  0  0  0
    7.3420    1.7830   -0.7260 C   0  0  0  0  0  0  0  0  0  0  0  0
    6.0030   -0.4310   -0.3890 C   0  0  0  0  0  0  0  0  0  0  0  0
    7.2750   -1.2630   -0.4520 C   0  0  0  0  0  0  0  0  0  0  0  0
    4.7610   -0.9200   -0.2100 C   0  0  0  0  0  0  0  0  0  0  0  0
    4.5180   -2.3920   -0.0910 C   0  0  0  0  0  0  0  0  0  0  0  0
    5.5570   -3.3520   -0.1320 N   0  0  0  0  0  0  0  0  0  0  0  0
    3.3570   -2.8190    0.0500 O   0  0  0  0  0  0  0  0  0  0  0  0
   -0.7290   -0.2070    0.5690 C   0  0  0  0  0  0  0  0  0  0  0  0
   -2.0660    0.1860    0.5410 C   0  0  0  0  0  0  0  0  0  0  0  0
   -3.1390   -0.7360    0.9500 C   0  0  0  0  0  0  0  0  0  0  0  0
   -3.4130   -0.9310    2.1760 O   0  0  0  0  0  0  0  0  0  0  0  0
   -3.9250   -1.4660    0.0110 N   0  0  0  0  0  0  0  0  0  0  0  0
   -4.9780   -2.3770    0.3290 C   0  0  1  0  0  0  0  0  0  0  0  0
   -6.1120   -2.4700   -0.6090 C   0  0  0  0  0  0  0  0  0  0  0  0
   -4.3000   -3.7770    0.3160 C   0  0  0  0  0  0  0  0  0  0  0  0
  1  2  1  0
  2  3  1  0
  3  4  1  0
  4  5  2  0
  4  6  1  0
  6  7  1  0
  6 23  2  0
  7  8  1  0
  8  9  1  0
  8 22  2  0
  9 10  2  0
  9 11  1  0
 11 12  1  0
 12 13  1  0
 12 18  2  0
 13 14  1  0
 14 15  1  0
 14 16  2  0
 16 17  1  0
 16 18  1  0
 18 19  1  0
 19 20  1  0
 19 21  2  0
 22 23  1  0
 23 24  1  0
 24 25  2  0
 24 26  1  0
 26 27  1  0
 27 28  1  6
 27 29  1  0
M  END
