
     RDKit          3D

 29 30  0  0  0  0  0  0  0  0999 V2000
    1.0610    2.6640   -0.5340 C   0  0  0  0  0  0  0  0  0  0  0  0
    2.3570    2.1140   -0.4220 O   0  0  0  0  0  0  0  0  0  0  0  0
    2.5370    0.9300    0.3180 C   0  0  0  0  0  0  0  0  0  0  0  0
    1.4300    0.3240    0.9260 C   0  0  0  0  0  0  0  0  0  0  0  0
    1.5240   -0.8250    1.6590 C   0  0  0  0  0  0  0  0  0  0  0  0
    0.4510   -1.4830    2.3090 N   0  0  0  0  0  0  0  0  0  0  0  0
   -0.8300   -0.9290    2.4580 C   0  0  0  0  0  0  0  0  0  0  0  0
   -1.1510    0.2020    2.0410 O   0  0  0  0  0  0  0  0  0  0  0  0
   -1.8740   -1.6750    3.1280 N   0  0  0  0  0  0  0  0  0  0  0  0
   -3.1750   -1.0990    3.2590 C   0  0  0  0  0  0  0  0  0  0  0  0
   -3.7990   -0.9090    1.9000 C   0  0  0  0  0  0  0  0  0  0  0  0
   -4.9440   -0.3320    1.8620 O   0  0  0  0  0  0  0  0  0  0  0  0
   -3.2280   -1.3150    0.6930 N   0  0  0  0  0  0  0  0  0  0  0  0
   -3.7640   -1.1510   -0.6060 C   0  0  0  0  0  0  0  0  0  0  0  0
   -3.0830   -1.6720   -1.7150 C   0  0  0  0  0  0  0  0  0  0  0  0
   -3.5240   -1.5590   -3.0050 C   0  0  0  0  0  0  0  0  0  0  0  0
   -4.7020   -0.9020   -3.2590 C   0  0  0  0  0  0  0  0  0  0  0  0
   -5.1300   -0.8010   -4.5780 O   0  0  0  0  0  0  0  0  0  0  0  0
   -5.4090   -0.3730   -2.2030 C   0  0  0  0  0  0  0  0  0  0  0  0
   -6.6770    0.3320   -2.4950 C   0  0  0  0  0  0  0  0  0  0  0  0
   -4.9300   -0.5040   -0.8850 C   0  0  0  0  0  0  0  0  0  0  0  0
    2.8160   -1.3510    1.7560 C   0  0  0  0  0  0  0  0  0  0  0  0
    3.9120   -0.7770    1.1710 C   0  0  0  0  0  0  0  0  0  0  0  0
    3.7820    0.3820    0.4390 C   0  0  0  0  0  0  0  0  0  0  0  0
    4.8990    1.0090   -0.1850 N   0  0  0  0  0  0  0  0  0  0  0  0
    6.2270    0.4700   -0.0850 C   0  0  0  0  0  0  0  0  0  0  0  0
    7.1770    1.3410   -0.8430 C   0  0  0  0  0  0  0  0  0  0  0  0
    7.1740    3.0120   -0.1760 S   0  0  0  0  0  0  0  0  0  0  0  0
    7.2930    2.9090    1.3490 O   0  0  0  0  0  0  0  0  0  0  0  0
  1  2  1  0
  2  3  1  0
  3  4  2  0
  3 24  1  0
  4  5  1  0
  5  6  1  0
  5 22  2  0
  6  7  1  0
  7  8  2  0
  7  9  1  0
  9 10  1  0
 10 11  1  0
 11 12  2  0
 11 13  1  0
 13 14  1  0
 14 15  2  0
 14 21  1  0
 15 16  1  0
 16 17  2  0
 17 18  1  0
 17 19  1  0
 19 20  1  0
 19 21  2  0
 22 23  1  0
 23 24  2  0
 24 25  1  0
 25 26  1  0
 26 27  1  0
 27 28  1  0
 28 29  2  0
M  END
