
     RDKit          3D

 29 30  0  0  0  0  0  0  0  0999 V2000
    8.5150   -0.8590    0.7870 C   0  0  0  0  0  0  0  0  0  0  0  0
    7.5150   -0.8020   -0.3400 C   0  0  1  0  0  0  0  0  0  0  0  0
    7.4820   -2.0110   -1.0450 O   0  0  0  0  0  0  0  0  0  0  0  0
    6.1590   -0.5850    0.2880 C   0  0  0  0  0  0  0  0  0  0  0  0
    5.4590   -1.5790    0.9370 C   0  0  0  0  0  0  0  0  0  0  0  0
    4.2890   -0.9890    1.3610 C   0  0  0  0  0  0  0  0  0  0  0  0
    4.3100    0.3380    0.9610 C   0  0  0  0  0  0  0  0  0  0  0  0
    3.2360    1.3250    1.2200 C   0  0  0  0  0  0  0  0  0  0  0  0
    2.3730    1.6210    0.1480 N   0  0  1  0  0  0  0  0  0  0  0  0
    2.8280    1.3330   -1.1760 C   0  0  0  0  0  0  0  0  0  0  0  0
    1.9150    0.2550   -1.7620 C   0  0  0  0  0  0  0  0  0  0  0  0
    1.1250   -0.2250   -0.5430 C   0  0  0  0  0  0  0  0  0  0  0  0
    1.0270    1.0000    0.2590 C   0  0  2  0  0  0  0  0  0  0  0  0
    0.0360    2.0130   -0.1610 C   0  0  0  0  0  0  0  0  0  0  0  0
   -1.3420    1.7710   -0.1860 N   0  0  0  0  0  0  0  0  0  0  0  0
   -2.1230    0.9540   -1.0130 C   0  0  0  0  0  0  0  0  0  0  0  0
   -1.6050    0.3060   -1.9350 O   0  0  0  0  0  0  0  0  0  0  0  0
   -3.6010    0.8040   -0.8520 C   0  0  1  0  0  0  0  0  0  0  0  0
   -4.0940    1.5440    0.2170 O   0  0  0  0  0  0  0  0  0  0  0  0
   -4.2830    1.2730   -2.1090 C   0  0  0  0  0  0  0  0  0  0  0  0
   -3.9850    2.7240   -2.4140 C   0  0  0  0  0  0  0  0  0  0  0  0
   -4.6420    3.0960   -3.5870 O   0  0  0  0  0  0  0  0  0  0  0  0
   -3.9720   -0.6570   -0.6490 C   0  0  0  0  0  0  0  0  0  0  0  0
   -3.4220   -1.1870    0.5590 N   0  0  0  0  0  0  0  0  0  0  0  0
   -4.3680   -1.8260    1.4300 C   0  0  2  0  0  0  0  0  0  0  0  0
   -3.5920   -2.1940    2.6990 C   0  0  0  0  0  0  0  0  0  0  0  0
   -4.9240   -3.1100    0.8790 C   0  0  0  0  0  0  0  0  0  0  0  0
   -5.4940   -0.9130    1.8470 C   0  0  0  0  0  0  0  0  0  0  0  0
    5.4510    0.4920    0.3340 O   0  0  0  0  0  0  0  0  0  0  0  0
  2  1  1  1
  2  3  1  0
  2  4  1  0
  4  5  2  0
  4 29  1  0
  5  6  1  0
  6  7  2  0
  7  8  1  0
  7 29  1  0
  9  8  1  1
  9 10  1  0
  9 13  1  0
 10 11  1  0
 11 12  1  0
 12 13  1  0
 13 14  1  6
 14 15  1  0
 15 16  1  0
 16 17  2  0
 16 18  1  0
 18 19  1  1
 18 20  1  0
 18 23  1  0
 20 21  1  0
 21 22  1  0
 23 24  1  0
 24 25  1  0
 25 26  1  1
 25 27  1  0
 25 28  1  0
M  CHG  2   9   1  24   1
M  END
