
     RDKit          3D

 29 30  0  0  0  0  0  0  0  0999 V2000
    9.1080    0.1300   -0.1650 C   0  0  0  0  0  0  0  0  0  0  0  0
    8.1500   -1.0150   -0.2350 C   0  0  0  0  0  0  0  0  0  0  0  0
    6.8740   -0.8390    0.5240 C   0  0  1  0  0  0  0  0  0  0  0  0
    6.9890   -0.6250    1.8660 O   0  0  0  0  0  0  0  0  0  0  0  0
    5.8690    0.0550   -0.1870 C   0  0  2  0  0  0  0  0  0  0  0  0
    6.2290    1.5350   -0.0210 C   0  0  0  0  0  0  0  0  0  0  0  0
    5.1900    2.2390   -0.7990 N   0  0  0  0  0  0  0  0  0  0  0  0
    4.6080   -0.1290    0.2990 O   0  0  0  0  0  0  0  0  0  0  0  0
    3.4370   -0.5210   -0.2500 C   0  0  0  0  0  0  0  0  0  0  0  0
    2.2850   -0.6110    0.5610 C   0  0  0  0  0  0  0  0  0  0  0  0
    1.0480   -1.0020    0.0870 C   0  0  0  0  0  0  0  0  0  0  0  0
   -0.0190   -1.0400    0.9950 N   0  0  0  0  0  0  0  0  0  0  0  0
   -1.2830   -1.6130    0.8590 C   0  0  0  0  0  0  0  0  0  0  0  0
   -1.5660   -2.1930   -0.1940 O   0  0  0  0  0  0  0  0  0  0  0  0
   -2.2880   -1.5440    1.9420 C   0  0  0  0  0  0  0  0  0  0  0  0
   -3.4840   -2.0470    1.5980 O   0  0  0  0  0  0  0  0  0  0  0  0
   -4.1550   -1.4020    0.6090 C   0  0  0  0  0  0  0  0  0  0  0  0
   -4.4320    0.0340    1.0220 C   0  0  0  0  0  0  0  0  0  0  0  0
   -5.1680    0.7330   -0.0440 N   0  0  2  0  0  0  0  0  0  0  0  0
   -4.3880    1.7280   -0.7020 C   0  0  0  0  0  0  0  0  0  0  0  0
   -6.3840    1.2350    0.5640 C   0  0  1  0  0  0  0  0  0  0  0  0
   -6.9400    2.4360   -0.1210 C   0  0  0  0  0  0  0  0  0  0  0  0
   -7.3370    0.0880    0.6870 C   0  0  2  0  0  0  0  0  0  0  0  0
   -7.6850   -0.5430   -0.6730 C   0  0  0  0  0  0  0  0  0  0  0  0
   -8.7110    0.1090    0.2080 C   0  0  0  0  0  0  0  0  0  0  0  0
    0.9410   -1.3170   -1.2420 C   0  0  0  0  0  0  0  0  0  0  0  0
    2.0270   -1.2490   -2.0830 C   0  0  0  0  0  0  0  0  0  0  0  0
    3.2660   -0.8490   -1.5680 C   0  0  0  0  0  0  0  0  0  0  0  0
    4.3170   -0.8020   -2.4700 O   0  0  0  0  0  0  0  0  0  0  0  0
  1  2  1  0
  2  3  1  0
  3  4  1  1
  3  5  1  0
  5  6  1  1
  5  8  1  0
  6  7  1  0
  8  9  1  0
  9 10  2  0
  9 28  1  0
 10 11  1  0
 11 12  1  0
 11 26  2  0
 12 13  1  0
 13 14  2  0
 13 15  1  0
 15 16  1  0
 16 17  1  0
 17 18  1  0
 18 19  1  0
 19 20  1  1
 19 21  1  0
 21 22  1  6
 21 23  1  0
 23 24  1  6
 23 25  1  0
 24 25  1  0
 26 27  1  0
 27 28  2  0
 28 29  1  0
M  CHG  2   7   1  19   1
M  END
