
     RDKit          3D

 29 30  0  0  0  0  0  0  0  0999 V2000
    9.2950    3.1750   -1.0490 C   0  0  0  0  0  0  0  0  0  0  0  0
    7.9230    2.9470   -1.0570 O   0  0  0  0  0  0  0  0  0  0  0  0
    7.6230    1.6360   -0.7000 C   0  0  0  0  0  0  0  0  0  0  0  0
    6.1060    1.5120   -0.7450 C   0  0  0  0  0  0  0  0  0  0  0  0
    5.7200    0.1830   -0.3880 N   0  0  0  0  0  0  0  0  0  0  0  0
    4.3200   -0.1380   -0.3710 C   0  0  0  0  0  0  0  0  0  0  0  0
    3.4880    0.7730   -0.6750 O   0  0  0  0  0  0  0  0  0  0  0  0
    3.8540   -1.4320   -0.0280 N   0  0  0  0  0  0  0  0  0  0  0  0
    2.4610   -1.7150   -0.0100 C   0  0  0  0  0  0  0  0  0  0  0  0
    1.7550   -0.9110    1.0810 C   0  0  0  0  0  0  0  0  0  0  0  0
    2.5070   -0.1250    1.9040 C   0  0  0  0  0  0  0  0  0  0  0  0
    1.3590    0.6100    3.0440 S   0  0  0  0  0  0  0  0  0  0  0  0
   -0.0920   -0.2040    2.3280 C   0  0  0  0  0  0  0  0  0  0  0  0
    0.4150   -0.9480    1.3040 C   0  0  0  0  0  0  0  0  0  0  0  0
   -0.4620   -1.7690    0.4630 N   0  0  0  0  0  0  0  0  0  0  0  0
   -1.8510   -1.8620    0.6310 C   0  0  0  0  0  0  0  0  0  0  0  0
   -2.4230   -1.2200    1.5440 O   0  0  0  0  0  0  0  0  0  0  0  0
   -2.6470   -2.6970   -0.2440 N   0  0  0  0  0  0  0  0  0  0  0  0
   -4.0590   -2.7220    0.0130 C   0  0  0  0  0  0  0  0  0  0  0  0
   -4.6940   -1.4030   -0.0980 C   0  0  0  0  0  0  0  0  0  0  0  0
   -4.0090   -0.3360   -0.4030 O   0  0  0  0  0  0  0  0  0  0  0  0
   -4.5510    0.8600   -0.5100 C   0  0  0  0  0  0  0  0  0  0  0  0
   -3.6850    2.0220   -0.8640 C   0  0  0  0  0  0  0  0  0  0  0  0
   -5.9040    1.0860   -0.3060 C   0  0  0  0  0  0  0  0  0  0  0  0
   -6.4700    2.4530   -0.4370 C   0  0  0  0  0  0  0  0  0  0  0  0
   -6.6600   -0.0270    0.0200 C   0  0  0  0  0  0  0  0  0  0  0  0
   -7.8930    0.1210    0.2160 O   0  0  0  0  0  0  0  0  0  0  0  0
   -6.0470   -1.2720    0.1230 C   0  0  0  0  0  0  0  0  0  0  0  0
   -6.8780   -2.4520    0.4740 C   0  0  0  0  0  0  0  0  0  0  0  0
  1  2  1  0
  2  3  1  0
  3  4  1  0
  4  5  1  0
  5  6  1  0
  6  7  2  0
  6  8  1  0
  8  9  1  0
  9 10  1  0
 10 11  2  0
 10 14  1  0
 11 12  1  0
 12 13  1  0
 13 14  2  0
 14 15  1  0
 15 16  1  0
 16 17  2  0
 16 18  1  0
 18 19  1  0
 19 20  1  0
 20 21  1  0
 20 28  2  0
 21 22  1  0
 22 23  1  0
 22 24  2  0
 24 25  1  0
 24 26  1  0
 26 27  2  0
 26 28  1  0
 28 29  1  0
M  END
