
     RDKit          3D

 30 33  0  0  0  0  0  0  0  0999 V2000
   -4.6080    1.1360    1.9510 C   0  0  0  0  0  0  0  0  0  0  0  0
   -5.5740    1.7070    0.9150 C   0  0  2  0  0  0  0  0  0  0  0  0
   -7.0010    1.4350    1.3370 C   0  0  0  0  0  0  0  0  0  0  0  0
   -5.2640    1.1500   -0.4200 C   0  0  0  0  0  0  0  0  0  0  0  0
   -4.3190    0.1390   -0.5930 C   0  0  0  0  0  0  0  0  0  0  0  0
   -3.9840   -0.4290   -1.7950 C   0  0  0  0  0  0  0  0  0  0  0  0
   -3.0660   -1.5300   -1.8850 C   0  0  0  0  0  0  0  0  0  0  0  0
   -3.1510   -2.3400   -2.8830 O   0  0  0  0  0  0  0  0  0  0  0  0
   -2.0440   -1.8270   -0.9690 N   0  0  0  0  0  0  0  0  0  0  0  0
   -1.1560   -3.0070   -1.0730 C   0  0  0  0  0  0  0  0  0  0  0  0
    0.0830   -2.5050   -0.4450 C   0  0  0  0  0  0  0  0  0  0  0  0
    1.4090   -2.9740   -0.4670 C   0  0  0  0  0  0  0  0  0  0  0  0
    2.4050   -2.3150    0.2180 C   0  0  0  0  0  0  0  0  0  0  0  0
    2.1700   -1.1740    0.9570 C   0  0  0  0  0  0  0  0  0  0  0  0
    3.2670   -0.4800    1.6850 C   0  0  0  0  0  0  0  0  0  0  0  0
    3.7520    0.7000    1.0380 N   0  0  1  0  0  0  0  0  0  0  0  0
    4.9070    1.1710    1.7680 C   0  0  0  0  0  0  0  0  0  0  0  0
    6.1610    0.4100    1.4850 C   0  0  0  0  0  0  0  0  0  0  0  0
    6.4520    0.2310    0.0910 N   0  0  2  0  0  0  0  0  0  0  0  0
    7.8100    0.6160   -0.2020 C   0  0  0  0  0  0  0  0  0  0  0  0
    5.4940    1.0630   -0.6490 C   0  0  0  0  0  0  0  0  0  0  0  0
    4.1260    0.4900   -0.3330 C   0  0  0  0  0  0  0  0  0  0  0  0
    0.8720   -0.7090    0.9840 C   0  0  0  0  0  0  0  0  0  0  0  0
   -0.1390   -1.3820    0.2850 C   0  0  0  0  0  0  0  0  0  0  0  0
   -1.6130   -1.0600    0.1690 C   0  0  0  0  0  0  0  0  0  0  0  0
   -4.6350    0.0360   -2.9420 C   0  0  0  0  0  0  0  0  0  0  0  0
   -4.4080   -0.4260   -4.2170 O   0  0  0  0  0  0  0  0  0  0  0  0
   -5.5890    1.0500   -2.7880 C   0  0  0  0  0  0  0  0  0  0  0  0
   -5.8890    1.5870   -1.5650 C   0  0  0  0  0  0  0  0  0  0  0  0
   -6.8400    2.5940   -1.4580 O   0  0  0  0  0  0  0  0  0  0  0  0
  2  1  1  1
  2  3  1  0
  2  4  1  0
  4  5  2  0
  4 29  1  0
  5  6  1  0
  6  7  1  0
  6 26  2  0
  7  8  2  0
  7  9  1  0
  9 10  1  0
  9 25  1  0
 10 11  1  0
 11 12  2  0
 11 24  1  0
 12 13  1  0
 13 14  2  0
 14 15  1  0
 14 23  1  0
 16 15  1  1
 16 17  1  0
 16 22  1  0
 17 18  1  0
 18 19  1  0
 19 20  1  1
 19 21  1  0
 21 22  1  0
 23 24  2  0
 24 25  1  0
 26 27  1  0
 26 28  1  0
 28 29  2  0
 29 30  1  0
M  CHG  2  16   1  19   1
M  END
