
     RDKit          3D

 28 32  0  0  0  0  0  0  0  0999 V2000
    7.6410   -1.0280    1.2420 C   0  0  0  0  0  0  0  0  0  0  0  0
    6.4500   -0.5460    0.5170 C   0  0  0  0  0  0  0  0  0  0  0  0
    6.4640    0.6170   -0.2160 C   0  0  0  0  0  0  0  0  0  0  0  0
    5.3600    1.0660   -0.8940 C   0  0  0  0  0  0  0  0  0  0  0  0
    5.4140    2.3230   -1.6690 C   0  0  0  0  0  0  0  0  0  0  0  0
    4.1760    0.3470   -0.8600 C   0  0  0  0  0  0  0  0  0  0  0  0
    4.1450   -0.8120   -0.1360 C   0  0  0  0  0  0  0  0  0  0  0  0
    2.9330   -1.5660   -0.0920 N   0  0  0  0  0  0  0  0  0  0  0  0
    2.8110   -2.8690   -0.3080 N   0  0  0  0  0  0  0  0  0  0  0  0
    1.5130   -3.1860   -0.1750 C   0  0  0  0  0  0  0  0  0  0  0  0
    0.8340   -2.0290    0.1300 C   0  0  0  0  0  0  0  0  0  0  0  0
   -0.3590   -1.4980    0.4060 N   0  0  0  0  0  0  0  0  0  0  0  0
   -0.2560   -0.1520    0.6370 C   0  0  0  0  0  0  0  0  0  0  0  0
   -1.3370    0.6830    0.9670 N   0  0  0  0  0  0  0  0  0  0  0  0
   -1.8940    1.7030    0.1310 C   0  0  0  0  0  0  0  0  0  0  0  0
   -3.3610    1.4180   -0.1610 C   0  0  0  0  0  0  0  0  0  0  0  0
   -3.9260    0.3870    0.7170 C   0  0  0  0  0  0  0  0  0  0  0  0
   -3.3340   -0.0980    1.8710 C   0  0  0  0  0  0  0  0  0  0  0  0
   -4.1440   -1.0240    2.3730 N   0  0  0  0  0  0  0  0  0  0  0  0
   -5.1940   -1.1330    1.5950 O   0  0  0  0  0  0  0  0  0  0  0  0
   -5.1040   -0.3050    0.5900 C   0  0  0  0  0  0  0  0  0  0  0  0
   -6.1180   -0.1420   -0.5120 C   0  0  1  0  0  0  0  0  0  0  0  0
   -7.1140   -1.2670   -0.4790 C   0  0  0  0  0  0  0  0  0  0  0  0
   -6.9140    1.1240   -0.1470 C   0  0  0  0  0  0  0  0  0  0  0  0
   -1.9900    0.4890    2.2620 C   0  0  0  0  0  0  0  0  0  0  0  0
    1.0570    0.1270    0.4890 N   0  0  0  0  0  0  0  0  0  0  0  0
    1.7310   -1.0120    0.1810 C   0  0  0  0  0  0  0  0  0  0  0  0
    5.2610   -1.2520    0.5420 C   0  0  0  0  0  0  0  0  0  0  0  0
  1  2  1  0
  2  3  2  0
  2 28  1  0
  3  4  1  0
  4  5  1  0
  4  6  2  0
  6  7  1  0
  7  8  1  0
  7 28  2  0
  8  9  1  0
  8 27  1  0
  9 10  2  0
 10 11  1  0
 11 12  1  0
 11 27  2  0
 12 13  2  0
 13 14  1  0
 13 26  1  0
 14 15  1  0
 14 25  1  0
 15 16  1  0
 16 17  1  0
 17 18  1  0
 17 21  2  0
 18 19  2  0
 18 25  1  0
 19 20  1  0
 20 21  1  0
 21 22  1  0
 22 23  1  1
 22 24  1  0
 26 27  1  0
M  END
