
     RDKit          3D

 29 31  0  0  0  0  0  0  0  0999 V2000
    4.8210   -3.1570    0.7450 C   0  0  0  0  0  0  0  0  0  0  0  0
    4.5280   -1.7000    0.5560 C   0  0  0  0  0  0  0  0  0  0  0  0
    5.4830   -0.9300    0.4650 N   0  0  0  0  0  0  0  0  0  0  0  0
    5.7390    0.3770    0.3000 N   0  0  0  0  0  0  0  0  0  0  0  0
    6.1160    1.0220   -0.9110 C   0  0  0  0  0  0  0  0  0  0  0  0
    6.0160    0.3720   -2.0130 N   0  0  0  0  0  0  0  0  0  0  0  0
    6.5900    2.3540   -0.8830 N   0  0  0  0  0  0  0  0  0  0  0  0
    7.2300    2.8920   -1.9400 O   0  0  0  0  0  0  0  0  0  0  0  0
    3.1390   -1.2850    0.4930 C   0  0  0  0  0  0  0  0  0  0  0  0
    2.7540    0.0360    0.3200 C   0  0  0  0  0  0  0  0  0  0  0  0
    1.4060    0.3050    0.2760 C   0  0  0  0  0  0  0  0  0  0  0  0
    0.4290   -0.6830    0.3970 C   0  0  0  0  0  0  0  0  0  0  0  0
   -0.9150   -0.2650    0.3130 N   0  0  0  0  0  0  0  0  0  0  0  0
   -2.0120   -1.0340    0.7360 C   0  0  0  0  0  0  0  0  0  0  0  0
   -1.8740   -2.1570    1.2300 O   0  0  0  0  0  0  0  0  0  0  0  0
   -3.3650   -0.4790    0.5840 C   0  0  0  0  0  0  0  0  0  0  0  0
   -4.5540   -1.0950    0.9470 C   0  0  0  0  0  0  0  0  0  0  0  0
   -5.6160   -0.2760    0.6550 C   0  0  0  0  0  0  0  0  0  0  0  0
   -6.9790   -0.4050    0.8120 C   0  0  0  0  0  0  0  0  0  0  0  0
   -7.7680    0.6430    0.3960 C   0  0  0  0  0  0  0  0  0  0  0  0
   -7.2430    1.7890   -0.1570 C   0  0  0  0  0  0  0  0  0  0  0  0
   -5.8720    1.8870   -0.3000 C   0  0  0  0  0  0  0  0  0  0  0  0
   -5.3160    3.0610   -0.8690 N   0  0  0  0  0  0  0  0  0  0  0  0
   -4.2680    3.0050   -1.5360 O   0  0  0  0  0  0  0  0  0  0  0  0
   -5.9160    4.2810   -0.6990 O   0  0  0  0  0  0  0  0  0  0  0  0
   -5.0520    0.8590    0.1030 C   0  0  0  0  0  0  0  0  0  0  0  0
   -3.7180    0.7090    0.0740 N   0  0  0  0  0  0  0  0  0  0  0  0
    0.8190   -1.9790    0.5660 C   0  0  0  0  0  0  0  0  0  0  0  0
    2.1720   -2.2630    0.6120 C   0  0  0  0  0  0  0  0  0  0  0  0
  1  2  1  0
  2  3  2  3
  2  9  1  0
  3  4  1  0
  4  5  1  0
  5  6  2  0
  5  7  1  0
  7  8  1  0
  9 10  2  0
  9 29  1  0
 10 11  1  0
 11 12  2  0
 12 13  1  0
 12 28  1  0
 13 14  1  0
 14 15  2  0
 14 16  1  0
 16 17  2  0
 16 27  1  0
 17 18  1  0
 18 19  2  0
 18 26  1  0
 19 20  1  0
 20 21  2  0
 21 22  1  0
 22 23  1  0
 22 26  2  0
 23 24  2  0
 23 25  1  0
 26 27  1  0
 28 29  2  0
M  CHG  2  23   1  25  -1
M  END
