
     RDKit          3D

 29 33  0  0  0  0  0  0  0  0999 V2000
    0.2590    1.6300    0.5250 C   0  0  0  0  0  0  0  0  0  0  0  0
    0.3890    0.2500    0.0340 C   0  0  0  0  0  0  0  0  0  0  0  0
    1.7050   -0.2860   -0.0370 C   0  0  0  0  0  0  0  0  0  0  0  0
    1.9670   -1.5590   -0.4070 C   0  0  0  0  0  0  0  0  0  0  0  0
    3.2950   -2.1700   -0.4880 C   0  0  0  0  0  0  0  0  0  0  0  0
    3.4990   -3.4830   -0.8680 N   0  0  0  0  0  0  0  0  0  0  0  0
    4.7990   -3.7760   -0.8450 C   0  0  0  0  0  0  0  0  0  0  0  0
    5.4500   -2.6380   -0.4430 C   0  0  0  0  0  0  0  0  0  0  0  0
    4.4920   -1.6710   -0.2340 N   0  0  0  0  0  0  0  0  0  0  0  0
    4.7960   -0.3380    0.2050 C   0  0  0  0  0  0  0  0  0  0  0  0
    5.0980    0.6130   -0.7520 C   0  0  0  0  0  0  0  0  0  0  0  0
    5.4070    1.8810   -0.3660 C   0  0  0  0  0  0  0  0  0  0  0  0
    5.4150    2.1990    0.9790 C   0  0  0  0  0  0  0  0  0  0  0  0
    5.1100    1.2290    1.9150 C   0  0  0  0  0  0  0  0  0  0  0  0
    4.8110   -0.0090    1.4990 N   0  0  0  0  0  0  0  0  0  0  0  0
    0.8720   -2.3070   -0.7150 N   0  0  0  0  0  0  0  0  0  0  0  0
   -0.3870   -1.8640   -0.6700 C   0  0  0  0  0  0  0  0  0  0  0  0
   -1.3540   -2.6050   -0.9750 O   0  0  0  0  0  0  0  0  0  0  0  0
   -0.6760   -0.5210   -0.2790 C   0  0  0  0  0  0  0  0  0  0  0  0
   -2.0670   -0.0670   -0.3750 C   0  0  1  0  0  0  0  0  0  0  0  0
   -3.0570   -1.1240    0.0510 C   0  0  0  0  0  0  0  0  0  0  0  0
   -4.0480   -0.6460    1.0960 C   0  0  0  0  0  0  0  0  0  0  0  0
   -4.9970    0.2850    0.5810 N   0  0  0  0  0  0  0  0  0  0  0  0
   -6.2790    0.3780    0.9780 C   0  0  0  0  0  0  0  0  0  0  0  0
   -6.9080    1.3710    0.2810 C   0  0  0  0  0  0  0  0  0  0  0  0
   -6.0000    1.9140   -0.5730 C   0  0  0  0  0  0  0  0  0  0  0  0
   -4.8050    1.2220   -0.3730 C   0  0  0  0  0  0  0  0  0  0  0  0
   -3.6010    1.5550   -1.1450 C   0  0  0  0  0  0  0  0  0  0  0  0
   -2.4250    1.2690   -0.2360 N   0  0  0  0  0  0  0  0  0  0  0  0
  1  2  1  0
  2  3  1  0
  2 19  2  0
  3  4  2  0
  4  5  1  0
  4 16  1  0
  5  6  2  0
  5  9  1  0
  6  7  1  0
  7  8  2  0
  8  9  1  0
  9 10  1  0
 10 11  2  0
 10 15  1  0
 11 12  1  0
 12 13  2  0
 13 14  1  0
 14 15  2  0
 16 17  1  0
 17 18  2  0
 17 19  1  0
 20 19  1  1
 20 21  1  0
 20 29  1  0
 21 22  1  0
 22 23  1  0
 23 24  1  0
 23 27  1  0
 24 25  2  0
 25 26  1  0
 26 27  2  0
 27 28  1  0
 28 29  1  0
M  CHG  1  29   1
M  END
