
     RDKit          3D

 29 33  0  0  0  0  0  0  0  0999 V2000
    2.8220    4.0450    4.0100 C   0  0  0  0  0  0  0  0  0  0  0  0
    3.3410    2.9530    3.1450 C   0  0  0  0  0  0  0  0  0  0  0  0
    2.5380    2.2760    2.3620 C   0  0  0  0  0  0  0  0  0  0  0  0
    3.0800    1.2240    1.5380 N   0  0  0  0  0  0  0  0  0  0  0  0
    2.2120    0.4810    0.7010 C   0  0  0  0  0  0  0  0  0  0  0  0
    0.8890    0.7780    0.6960 N   0  0  0  0  0  0  0  0  0  0  0  0
    0.0070    0.1360   -0.0530 C   0  0  0  0  0  0  0  0  0  0  0  0
   -1.3590    0.4890   -0.0160 N   0  0  0  0  0  0  0  0  0  0  0  0
   -1.6590    1.5740    0.8930 C   0  0  0  0  0  0  0  0  0  0  0  0
   -2.3740    0.9060    2.0790 C   0  0  0  0  0  0  0  0  0  0  0  0
   -3.7060    0.4680    1.5760 C   0  0  0  0  0  0  0  0  0  0  0  0
   -3.7940   -0.9120    1.0600 C   0  0  0  0  0  0  0  0  0  0  0  0
   -3.0470   -1.2940   -0.1330 C   0  0  0  0  0  0  0  0  0  0  0  0
   -2.2560   -0.2400   -0.8480 C   0  0  1  0  0  0  0  0  0  0  0  0
   -3.1210    0.6180   -1.6820 C   0  0  0  0  0  0  0  0  0  0  0  0
   -4.4830    0.4410   -1.8800 C   0  0  0  0  0  0  0  0  0  0  0  0
   -4.9350    1.4370   -2.7160 C   0  0  0  0  0  0  0  0  0  0  0  0
   -3.9050    2.1800   -3.0100 O   0  0  0  0  0  0  0  0  0  0  0  0
   -2.8160    1.7360   -2.4230 C   0  0  0  0  0  0  0  0  0  0  0  0
    0.4770   -0.8510   -0.8350 N   0  0  0  0  0  0  0  0  0  0  0  0
    1.7730   -1.2050   -0.8860 C   0  0  0  0  0  0  0  0  0  0  0  0
    2.1850   -2.2250   -1.7070 C   0  0  0  0  0  0  0  0  0  0  0  0
    3.5190   -2.5510   -1.7260 C   0  0  0  0  0  0  0  0  0  0  0  0
    4.4040   -1.8740   -0.9440 N   0  0  0  0  0  0  0  0  0  0  0  0
    4.0160   -0.8750   -0.1360 C   0  0  0  0  0  0  0  0  0  0  0  0
    2.6850   -0.5240   -0.0950 C   0  0  0  0  0  0  0  0  0  0  0  0
    3.6950   -3.6630   -2.6830 C   0  0  0  0  0  0  0  0  0  0  0  0
    2.3810   -4.2350   -2.8100 N   0  0  0  0  0  0  0  0  0  0  0  0
    1.4490   -3.1190   -2.6470 C   0  0  0  0  0  0  0  0  0  0  0  0
  1  2  1  0
  2  3  2  3
  3  4  1  0
  4  5  1  0
  5  6  2  0
  5 26  1  0
  6  7  1  0
  7  8  1  0
  7 20  2  0
  8  9  1  0
  8 14  1  0
  9 10  1  0
 10 11  1  0
 11 12  1  0
 12 13  1  0
 13 14  1  0
 14 15  1  1
 15 16  1  0
 15 19  2  0
 16 17  2  0
 17 18  1  0
 18 19  1  0
 20 21  1  0
 21 22  2  0
 21 26  1  0
 22 23  1  0
 22 29  1  0
 23 24  2  0
 23 27  1  0
 24 25  1  0
 25 26  2  0
 27 28  1  0
 28 29  1  0
M  CHG  1  24   1
M  END
