
     RDKit          3D

 29 32  0  0  0  0  0  0  0  0999 V2000
    6.8070    0.2430   -1.9290 C   0  0  0  0  0  0  0  0  0  0  0  0
    5.9840   -0.9470   -1.5440 C   0  0  0  0  0  0  0  0  0  0  0  0
    4.8630   -0.5300   -0.6210 C   0  0  0  0  0  0  0  0  0  0  0  0
    3.5860   -0.4380   -1.0830 C   0  0  0  0  0  0  0  0  0  0  0  0
    2.5470   -0.0510   -0.2100 C   0  0  0  0  0  0  0  0  0  0  0  0
    1.2440    0.1410   -0.7850 C   0  0  0  0  0  0  0  0  0  0  0  0
    0.0680   -0.2220   -0.4100 C   0  0  0  0  0  0  0  0  0  0  0  0
   -0.4190   -0.9750    0.7140 C   0  0  0  0  0  0  0  0  0  0  0  0
    0.3080   -1.6640    1.6110 N   0  0  0  0  0  0  0  0  0  0  0  0
   -0.4620   -2.2320    2.5140 N   0  0  0  0  0  0  0  0  0  0  0  0
   -1.7130   -1.8950    2.1820 C   0  0  0  0  0  0  0  0  0  0  0  0
   -1.7320   -1.1190    1.0760 N   0  0  0  0  0  0  0  0  0  0  0  0
   -2.8670   -0.5660    0.4250 C   0  0  0  0  0  0  0  0  0  0  0  0
   -3.7100    0.3030    1.0840 C   0  0  0  0  0  0  0  0  0  0  0  0
   -4.8220    0.8300    0.4120 C   0  0  0  0  0  0  0  0  0  0  0  0
   -5.7460    1.7630    1.0870 C   0  0  0  0  0  0  0  0  0  0  0  0
   -5.0530    0.4720   -0.8910 C   0  0  0  0  0  0  0  0  0  0  0  0
   -6.2140    1.0070   -1.6240 C   0  0  0  0  0  0  0  0  0  0  0  0
   -7.4810    0.2840   -1.1610 C   0  0  0  0  0  0  0  0  0  0  0  0
   -4.1920   -0.3960   -1.5150 C   0  0  0  0  0  0  0  0  0  0  0  0
   -4.3850   -0.7380   -2.7130 O   0  0  0  0  0  0  0  0  0  0  0  0
   -3.1160   -0.9000   -0.8510 N   0  0  0  0  0  0  0  0  0  0  0  0
    2.8480    0.2350    1.1110 C   0  0  0  0  0  0  0  0  0  0  0  0
    2.1110    0.6940    2.1940 C   0  0  0  0  0  0  0  0  0  0  0  0
    2.9540    0.8580    3.2650 C   0  0  0  0  0  0  0  0  0  0  0  0
    4.1610    0.5080    2.8320 N   0  0  0  0  0  0  0  0  0  0  0  0
    4.1340    0.1360    1.5560 N   0  0  0  0  0  0  0  0  0  0  0  0
    5.1000   -0.2390    0.6970 C   0  0  0  0  0  0  0  0  0  0  0  0
    6.4950   -0.3390    1.2110 C   0  0  0  0  0  0  0  0  0  0  0  0
  1  2  1  0
  2  3  1  0
  3  4  1  0
  3 28  2  0
  4  5  2  0
  5  6  1  0
  5 23  1  0
  6  7  2  3
  7  8  1  0
  8  9  2  0
  8 12  1  0
  9 10  1  0
 10 11  2  0
 11 12  1  0
 12 13  1  0
 13 14  2  0
 13 22  1  0
 14 15  1  0
 15 16  1  0
 15 17  2  0
 17 18  1  0
 17 20  1  0
 18 19  1  0
 20 21  2  0
 20 22  1  0
 23 24  2  0
 23 27  1  0
 24 25  1  0
 25 26  2  0
 26 27  1  0
 27 28  1  0
 28 29  1  0
M  END
