
     RDKit          3D

 29 33  0  0  0  0  0  0  0  0999 V2000
    5.4580    2.3420    0.4090 C   0  0  0  0  0  0  0  0  0  0  0  0
    5.4250    1.2090   -0.5750 C   0  0  0  0  0  0  0  0  0  0  0  0
    5.2890   -0.0880    0.0730 N   0  0  0  0  0  0  0  0  0  0  0  0
    6.3240   -0.8440    0.4700 C   0  0  0  0  0  0  0  0  0  0  0  0
    5.8100   -1.9900    1.0350 C   0  0  0  0  0  0  0  0  0  0  0  0
    4.4620   -1.8570    0.9460 N   0  0  0  0  0  0  0  0  0  0  0  0
    4.1390   -0.6980    0.3590 C   0  0  0  0  0  0  0  0  0  0  0  0
    2.8110   -0.2020    0.0890 N   0  0  0  0  0  0  0  0  0  0  0  0
    1.6610   -0.9450    0.4420 C   0  0  0  0  0  0  0  0  0  0  0  0
    1.8350   -2.0690    1.0080 O   0  0  0  0  0  0  0  0  0  0  0  0
    0.2930   -0.5190    0.2050 C   0  0  0  0  0  0  0  0  0  0  0  0
   -0.7650   -1.2990    0.5780 C   0  0  0  0  0  0  0  0  0  0  0  0
   -2.0950   -0.9440    0.3770 C   0  0  0  0  0  0  0  0  0  0  0  0
   -3.1400   -1.8180    0.7910 N   0  0  0  0  0  0  0  0  0  0  0  0
   -2.8490   -3.0800    1.4950 C   0  0  0  0  0  0  0  0  0  0  0  0
   -4.1000   -3.8990    1.4790 C   0  0  0  0  0  0  0  0  0  0  0  0
   -4.8860   -3.2370    0.3400 C   0  0  0  0  0  0  0  0  0  0  0  0
   -4.5510   -1.7730    0.6850 C   0  0  0  0  0  0  0  0  0  0  0  0
   -2.3610    0.2640   -0.2320 C   0  0  0  0  0  0  0  0  0  0  0  0
   -3.6280    0.6230   -0.4300 N   0  0  0  0  0  0  0  0  0  0  0  0
   -3.9450    1.7840   -1.0140 C   0  0  0  0  0  0  0  0  0  0  0  0
   -2.9270    2.6140   -1.4120 C   0  0  0  0  0  0  0  0  0  0  0  0
   -3.2330    3.8170   -2.0170 C   0  0  0  0  0  0  0  0  0  0  0  0
   -2.2740    4.6430   -2.4140 N   0  0  0  0  0  0  0  0  0  0  0  0
   -0.9660    4.3310   -2.2380 C   0  0  0  0  0  0  0  0  0  0  0  0
   -0.5910    3.1460   -1.6420 C   0  0  0  0  0  0  0  0  0  0  0  0
   -1.5880    2.2890   -1.2300 C   0  0  0  0  0  0  0  0  0  0  0  0
   -1.3030    1.0790   -0.6220 C   0  0  0  0  0  0  0  0  0  0  0  0
    0.0040    0.7040   -0.4120 C   0  0  0  0  0  0  0  0  0  0  0  0
  1  2  1  0
  2  3  1  0
  3  4  1  0
  3  7  1  0
  4  5  2  0
  5  6  1  0
  6  7  2  0
  7  8  1  0
  8  9  1  0
  9 10  2  0
  9 11  1  0
 11 12  2  0
 11 29  1  0
 12 13  1  0
 13 14  1  0
 13 19  2  0
 14 15  1  0
 14 18  1  0
 15 16  1  0
 16 17  1  0
 17 18  1  0
 19 20  1  0
 19 28  1  0
 20 21  2  0
 21 22  1  0
 22 23  2  0
 22 27  1  0
 23 24  1  0
 24 25  2  0
 25 26  1  0
 26 27  2  0
 27 28  1  0
 28 29  2  0
M  END
