
     RDKit          3D

 29 33  0  0  0  0  0  0  0  0999 V2000
    0.9110   -1.1750    0.6840 O   0  0  0  0  0  0  0  0  0  0  0  0
   -0.1460   -1.0070   -0.0550 C   0  0  0  0  0  0  0  0  0  0  0  0
   -1.3610   -1.4220    0.6380 C   0  0  0  0  0  0  0  0  0  0  0  0
   -2.1770    0.0240    0.2930 C   0  0  0  0  0  0  0  0  0  0  0  0
   -3.3620   -0.0670    0.8220 C   0  0  0  0  0  0  0  0  0  0  0  0
   -4.4780    0.9330    0.8390 C   0  0  2  0  0  0  0  0  0  0  0  0
   -5.0000    1.0870    2.2330 C   0  0  0  0  0  0  0  0  0  0  0  0
   -6.3260    0.3550    2.2790 C   0  0  0  0  0  0  0  0  0  0  0  0
   -6.6520   -0.0450    0.9290 N   0  0  0  0  0  0  0  0  0  0  0  0
   -5.6580    0.4520    0.0370 C   0  0  0  0  0  0  0  0  0  0  0  0
   -3.4630   -1.2780    1.4330 N   0  0  0  0  0  0  0  0  0  0  0  0
   -2.3570   -1.7620    1.2070 N   0  0  0  0  0  0  0  0  0  0  0  0
    0.0380   -0.5060   -1.3250 N   0  0  0  0  0  0  0  0  0  0  0  0
   -0.9640   -0.3200   -2.3500 C   0  0  0  0  0  0  0  0  0  0  0  0
   -0.6150    0.9620   -3.1040 C   0  0  0  0  0  0  0  0  0  0  0  0
    0.6310    0.7210   -3.9590 C   0  0  0  0  0  0  0  0  0  0  0  0
    1.4670   -0.3270   -3.2530 C   0  0  0  0  0  0  0  0  0  0  0  0
    1.3810   -0.0260   -1.7600 C   0  0  2  0  0  0  0  0  0  0  0  0
    2.4730   -0.6510   -1.0270 C   0  0  0  0  0  0  0  0  0  0  0  0
    2.8600   -1.9460   -0.8900 C   0  0  0  0  0  0  0  0  0  0  0  0
    3.9520   -1.9940   -0.0730 N   0  0  0  0  0  0  0  0  0  0  0  0
    4.2430   -0.7590    0.2950 N   0  0  0  0  0  0  0  0  0  0  0  0
    5.3120   -0.4070    1.1530 C   0  0  0  0  0  0  0  0  0  0  0  0
    5.1010    0.0120    2.4560 C   0  0  0  0  0  0  0  0  0  0  0  0
    6.1460    0.3410    3.2830 C   0  0  0  0  0  0  0  0  0  0  0  0
    7.4470    0.2660    2.8420 C   0  0  0  0  0  0  0  0  0  0  0  0
    7.6840   -0.1500    1.5440 C   0  0  0  0  0  0  0  0  0  0  0  0
    6.6340   -0.4760    0.7270 C   0  0  0  0  0  0  0  0  0  0  0  0
    3.3780    0.0840   -0.2550 C   0  0  0  0  0  0  0  0  0  0  0  0
  1  2  2  0
  2  3  1  0
  2 13  1  0
  3  4  1  0
  3 12  2  0
  4  5  2  0
  6  5  1  1
  5 11  1  0
  6  7  1  0
  6 10  1  0
  7  8  1  0
  8  9  1  0
  9 10  1  0
 11 12  1  0
 13 14  1  0
 13 18  1  0
 14 15  1  0
 15 16  1  0
 16 17  1  0
 17 18  1  0
 18 19  1  1
 19 20  1  0
 19 29  2  0
 20 21  2  0
 21 22  1  0
 22 23  1  0
 22 29  1  0
 23 24  2  0
 23 28  1  0
 24 25  1  0
 25 26  2  0
 26 27  1  0
 27 28  2  0
M  CHG  1   9   1
M  END
