
     RDKit          3D

 26 28  0  0  0  0  0  0  0  0999 V2000
    4.0950    2.5650   -0.5450 C   0  0  0  0  0  0  0  0  0  0  0  0
    4.2220    1.1550   -0.5170 O   0  0  0  0  0  0  0  0  0  0  0  0
    5.4000    0.5590   -0.2200 C   0  0  0  0  0  0  0  0  0  0  0  0
    6.3960    1.3500    0.0350 O   0  0  0  0  0  0  0  0  0  0  0  0
    5.6850   -0.8630   -0.1620 C   0  0  0  0  0  0  0  0  0  0  0  0
    7.3690   -1.4300    0.0920 S   0  0  0  0  0  0  0  0  0  0  0  0
    6.9460   -3.1870   -0.0550 C   0  0  0  0  0  0  0  0  0  0  0  0
    8.0370   -4.4460    0.0660 S   0  0  0  0  0  0  0  0  0  0  0  0
    5.6390   -3.1610   -0.2670 N   0  0  0  0  0  0  0  0  0  0  0  0
    4.9980   -2.0090   -0.3190 C   0  0  0  0  0  0  0  0  0  0  0  0
    3.5020   -2.0250   -0.3660 C   0  0  0  0  0  0  0  0  0  0  0  0
    2.7130   -1.1590    0.1830 C   0  0  0  0  0  0  0  0  0  0  0  0
    1.2410   -1.3510    0.0080 C   0  0  0  0  0  0  0  0  0  0  0  0
    0.8620   -2.3420   -0.6600 O   0  0  0  0  0  0  0  0  0  0  0  0
    0.3190   -0.4450    0.5790 N   0  0  0  0  0  0  0  0  0  0  0  0
   -1.0820   -0.5210    0.4880 C   0  0  0  0  0  0  0  0  0  0  0  0
   -1.7650   -1.5560   -0.0740 C   0  0  0  0  0  0  0  0  0  0  0  0
   -3.1700   -1.5310   -0.1250 C   0  0  0  0  0  0  0  0  0  0  0  0
   -3.8570   -0.4590    0.3960 C   0  0  0  0  0  0  0  0  0  0  0  0
   -3.1770    0.5950    0.9680 C   0  0  0  0  0  0  0  0  0  0  0  0
   -1.8220    0.5350    0.9980 C   0  0  0  0  0  0  0  0  0  0  0  0
   -4.2100    1.5870    1.4320 C   0  0  0  0  0  0  0  0  0  0  0  0
   -5.3520    1.2410    0.5000 C   0  0  1  0  0  0  0  0  0  0  0  0
   -6.6820    1.6960    0.9920 C   0  0  0  0  0  0  0  0  0  0  0  0
   -4.9930    1.7890   -0.8620 C   0  0  0  0  0  0  0  0  0  0  0  0
   -5.2380   -0.1880    0.4730 O   0  0  0  0  0  0  0  0  0  0  0  0
  1  2  1  0
  2  3  1  0
  3  4  2  0
  3  5  1  0
  5  6  1  0
  5 10  2  0
  6  7  1  0
  7  8  2  0
  7  9  1  0
  9 10  1  0
 10 11  1  0
 11 12  2  3
 12 13  1  0
 13 14  2  0
 13 15  1  0
 15 16  1  0
 16 17  2  0
 16 21  1  0
 17 18  1  0
 18 19  2  0
 19 20  1  0
 19 26  1  0
 20 21  2  0
 20 22  1  0
 22 23  1  0
 23 24  1  1
 23 25  1  0
 23 26  1  0
M  END
