
     RDKit          3D

 27 30  0  0  0  0  0  0  0  0999 V2000
    9.5440    1.0700    0.0190 O   0  0  0  0  0  0  0  0  0  0  0  0
    8.3620    0.7580    0.3050 C   0  0  0  0  0  0  0  0  0  0  0  0
    7.4960    1.7110    0.6830 N   0  0  0  0  0  0  0  0  0  0  0  0
    6.2280    1.5500    1.0140 C   0  0  0  0  0  0  0  0  0  0  0  0
    5.5710    2.6010    1.3480 O   0  0  0  0  0  0  0  0  0  0  0  0
    5.5070    0.3850    1.0480 C   0  0  0  0  0  0  0  0  0  0  0  0
    4.1620    0.3800    1.4230 C   0  0  0  0  0  0  0  0  0  0  0  0
    3.4000   -0.7640    1.4720 C   0  0  0  0  0  0  0  0  0  0  0  0
    1.6660   -0.7120    1.9630 S   0  0  0  0  0  0  0  0  0  0  0  0
    0.6470   -0.4600    0.4940 C   0  0  0  0  0  0  0  0  0  0  0  0
    1.2590   -0.3490   -0.7190 C   0  0  0  0  0  0  0  0  0  0  0  0
    0.5020   -0.1600   -1.8330 C   0  0  0  0  0  0  0  0  0  0  0  0
   -0.8960   -0.0800   -1.7360 C   0  0  0  0  0  0  0  0  0  0  0  0
   -1.5890    0.1130   -2.9140 O   0  0  0  0  0  0  0  0  0  0  0  0
   -1.5190   -0.1900   -0.5260 C   0  0  0  0  0  0  0  0  0  0  0  0
   -2.8430   -0.1270   -0.3270 O   0  0  0  0  0  0  0  0  0  0  0  0
   -3.8880    0.0460   -1.1580 C   0  0  2  0  0  0  0  0  0  0  0  0
   -4.6950    1.3010   -0.8060 C   0  0  0  0  0  0  0  0  0  0  0  0
   -5.4300    1.1550    0.4860 C   0  0  0  0  0  0  0  0  0  0  0  0
   -5.2280   -0.1530    1.1720 C   0  0  0  0  0  0  0  0  0  0  0  0
   -5.4110   -1.3420    0.2670 C   0  0  0  0  0  0  0  0  0  0  0  0
   -4.9040   -1.1010   -1.1240 C   0  0  0  0  0  0  0  0  0  0  0  0
   -0.6960   -0.3840    0.5920 C   0  0  0  0  0  0  0  0  0  0  0  0
    3.9990   -1.9510    1.1340 C   0  0  0  0  0  0  0  0  0  0  0  0
    5.2910   -1.9800    0.7690 N   0  0  0  0  0  0  0  0  0  0  0  0
    6.0370   -0.8440    0.7240 C   0  0  0  0  0  0  0  0  0  0  0  0
    7.6900   -0.8130    0.2670 S   0  0  0  0  0  0  0  0  0  0  0  0
  1  2  2  0
  2  3  1  0
  2 27  1  0
  3  4  1  0
  4  5  2  0
  4  6  1  0
  6  7  2  0
  6 26  1  0
  7  8  1  0
  8  9  1  0
  8 24  2  0
  9 10  1  0
 10 11  2  0
 10 23  1  0
 11 12  1  0
 12 13  2  0
 13 14  1  0
 13 15  1  0
 15 16  1  0
 15 23  2  0
 17 16  1  1
 17 18  1  0
 17 22  1  0
 18 19  1  0
 19 20  1  0
 20 21  1  0
 21 22  1  0
 24 25  1  0
 25 26  2  0
 26 27  1  0
M  END
