
     RDKit          3D

 27 30  0  0  0  0  0  0  0  0999 V2000
   -2.3320   -1.6310    2.1210 C   0  0  0  0  0  0  0  0  0  0  0  0
   -3.6490   -1.2470    1.5650 C   0  0  0  0  0  0  0  0  0  0  0  0
   -5.2080   -1.9660    1.8970 S   0  0  0  0  0  0  0  0  0  0  0  0
   -6.1670   -0.9210    0.8480 C   0  0  0  0  0  0  0  0  0  0  0  0
   -7.5000   -0.8850    0.5790 N   0  0  0  0  0  0  0  0  0  0  0  0
   -7.9760    0.0420   -0.2920 C   0  0  0  0  0  0  0  0  0  0  0  0
   -9.1880    0.1170   -0.5720 O   0  0  0  0  0  0  0  0  0  0  0  0
   -7.1050    0.8730   -0.8390 N   0  0  0  0  0  0  0  0  0  0  0  0
   -5.7990    0.8590   -0.5930 C   0  0  0  0  0  0  0  0  0  0  0  0
   -5.1090    1.7130   -1.1940 O   0  0  0  0  0  0  0  0  0  0  0  0
   -5.2370   -0.0850    0.3080 C   0  0  0  0  0  0  0  0  0  0  0  0
   -3.9500   -0.2400    0.6650 C   0  0  0  0  0  0  0  0  0  0  0  0
   -2.7910    0.6080    0.1540 C   0  0  0  0  0  0  0  0  0  0  0  0
   -2.0260   -0.1300   -0.8900 C   0  0  0  0  0  0  0  0  0  0  0  0
   -0.8950    0.6820   -1.3950 C   0  0  0  0  0  0  0  0  0  0  0  0
   -1.0940    1.5760   -2.2580 O   0  0  0  0  0  0  0  0  0  0  0  0
    0.4110    0.5110   -0.9610 O   0  0  0  0  0  0  0  0  0  0  0  0
    1.4480    1.3380   -1.4980 C   0  0  0  0  0  0  0  0  0  0  0  0
    2.7630    0.9880   -0.8960 C   0  0  0  0  0  0  0  0  0  0  0  0
    3.7290    0.1420   -1.2740 C   0  0  0  0  0  0  0  0  0  0  0  0
    4.8360    0.0350   -0.5050 C   0  0  0  0  0  0  0  0  0  0  0  0
    4.9380    0.7770    0.6160 C   0  0  0  0  0  0  0  0  0  0  0  0
    3.3590    1.7320    0.6350 S   0  0  0  0  0  0  0  0  0  0  0  0
    6.0140    0.8410    1.5970 C   0  0  0  0  0  0  0  0  0  0  0  0
    7.2320    0.2010    0.9660 C   0  0  0  0  0  0  0  0  0  0  0  0
    6.7290   -1.1390    0.4160 C   0  0  0  0  0  0  0  0  0  0  0  0
    6.0050   -0.9140   -0.8570 C   0  0  0  0  0  0  0  0  0  0  0  0
  1  2  1  0
  2  3  1  0
  2 12  2  0
  3  4  1  0
  4  5  1  0
  4 11  2  0
  5  6  1  0
  6  7  2  0
  6  8  1  0
  8  9  1  0
  9 10  2  0
  9 11  1  0
 11 12  1  0
 12 13  1  0
 13 14  1  0
 14 15  1  0
 15 16  2  0
 15 17  1  0
 17 18  1  0
 18 19  1  0
 19 20  2  0
 19 23  1  0
 20 21  1  0
 21 22  2  0
 21 27  1  0
 22 23  1  0
 22 24  1  0
 24 25  1  0
 25 26  1  0
 26 27  1  0
M  END
