
     RDKit          3D

 26 28  0  0  0  0  0  0  0  0999 V2000
   -8.0590   -0.4110   -1.0500 C   0  0  0  0  0  0  0  0  0  0  0  0
   -6.7280   -0.0580   -0.7520 O   0  0  0  0  0  0  0  0  0  0  0  0
   -5.6230   -0.7100   -1.2120 C   0  0  0  0  0  0  0  0  0  0  0  0
   -5.7620   -1.7060   -1.9610 O   0  0  0  0  0  0  0  0  0  0  0  0
   -4.2470   -0.2660   -0.8450 C   0  0  0  0  0  0  0  0  0  0  0  0
   -2.8130   -1.0700   -1.4090 S   0  0  0  0  0  0  0  0  0  0  0  0
   -1.4050   -0.2620   -0.7680 C   0  0  0  0  0  0  0  0  0  0  0  0
   -0.1800   -0.4180   -0.8520 N   0  0  0  0  0  0  0  0  0  0  0  0
    0.3460   -1.5050   -1.6520 C   0  0  0  0  0  0  0  0  0  0  0  0
    1.8270   -1.6430   -1.4670 C   0  0  0  0  0  0  0  0  0  0  0  0
    2.3640   -2.5560   -2.1180 O   0  0  0  0  0  0  0  0  0  0  0  0
    2.4800   -0.7590   -0.5970 N   0  0  0  0  0  0  0  0  0  0  0  0
    3.8700   -0.8160   -0.3620 C   0  0  0  0  0  0  0  0  0  0  0  0
    4.7550   -1.6970   -0.9160 C   0  0  0  0  0  0  0  0  0  0  0  0
    6.1250   -1.6820   -0.6240 C   0  0  0  0  0  0  0  0  0  0  0  0
    6.9420   -2.6050   -1.2260 O   0  0  0  0  0  0  0  0  0  0  0  0
    6.6350   -0.7640    0.2440 C   0  0  0  0  0  0  0  0  0  0  0  0
    5.7710    0.1560    0.8340 C   0  0  0  0  0  0  0  0  0  0  0  0
    6.3160    1.1660    1.7850 C   0  0  0  0  0  0  0  0  0  0  0  0
    4.4410    0.1130    0.5270 C   0  0  0  0  0  0  0  0  0  0  0  0
    3.5130    1.0880    1.1490 C   0  0  0  0  0  0  0  0  0  0  0  0
   -2.2870    1.0050    0.1580 S   0  0  0  0  0  0  0  0  0  0  0  0
   -3.9750    0.7690   -0.0630 C   0  0  0  0  0  0  0  0  0  0  0  0
   -4.9600    1.6650    0.5800 C   0  0  2  0  0  0  0  0  0  0  0  0
   -4.4280    2.7440    1.4470 C   0  0  0  0  0  0  0  0  0  0  0  0
   -5.1910    1.6040    2.0470 C   0  0  0  0  0  0  0  0  0  0  0  0
  1  2  1  0
  2  3  1  0
  3  4  2  0
  3  5  1  0
  5  6  1  0
  5 23  2  0
  6  7  1  0
  7  8  2  3
  7 22  1  0
  8  9  1  0
  9 10  1  0
 10 11  2  0
 10 12  1  0
 12 13  1  0
 13 14  2  0
 13 20  1  0
 14 15  1  0
 15 16  1  0
 15 17  2  0
 17 18  1  0
 18 19  1  0
 18 20  2  0
 20 21  1  0
 22 23  1  0
 24 23  1  1
 24 25  1  0
 24 26  1  0
 25 26  1  0
M  END
