
     RDKit          3D

 15 15  0  0  0  0  0  0  0  0999 V2000
    4.5020    0.6110   -0.2770 C   0  0  0  0  0  0  0  0  0  0  0  0
    3.1280    0.4620    0.2700 C   0  0  0  0  0  0  0  0  0  0  0  0
    2.9280    0.3510    1.5120 O   0  0  0  0  0  0  0  0  0  0  0  0
    1.9930    0.4400   -0.5760 N   0  0  0  0  0  0  0  0  0  0  0  0
    0.6680    0.2950   -0.0130 C   0  0  1  0  0  0  0  0  0  0  0  0
   -0.2270    1.4090   -0.3830 C   0  0  0  0  0  0  0  0  0  0  0  0
    0.2750    2.5140   -0.6650 O   0  0  0  0  0  0  0  0  0  0  0  0
   -1.6150    1.1620   -0.3960 N   0  0  0  0  0  0  0  0  0  0  0  0
   -2.2290   -0.0830   -0.0010 C   0  0  2  0  0  0  0  0  0  0  0  0
   -2.9310    0.0680    1.3570 C   0  0  0  0  0  0  0  0  0  0  0  0
   -3.9210    1.0410    1.2880 O   0  0  0  0  0  0  0  0  0  0  0  0
   -1.2950   -1.2400    0.0130 C   0  0  1  0  0  0  0  0  0  0  0  0
   -1.8300   -2.3540   -0.6730 O   0  0  0  0  0  0  0  0  0  0  0  0
    0.0320   -0.9460   -0.6450 C   0  0  2  0  0  0  0  0  0  0  0  0
    0.8490   -2.0430   -0.5720 O   0  0  0  0  0  0  0  0  0  0  0  0
  1  2  1  0
  2  3  2  0
  2  4  1  0
  5  4  1  6
  5  6  1  0
  5 14  1  0
  6  7  2  0
  6  8  1  0
  8  9  1  0
  9 10  1  1
  9 12  1  0
 10 11  1  0
 12 13  1  6
 12 14  1  0
 14 15  1  1
M  END
