
     RDKit          3D

 27 29  0  0  0  0  0  0  0  0999 V2000
   -6.0140    1.5460   -1.9880 C   0  0  0  0  0  0  0  0  0  0  0  0
   -6.0140    0.3370   -1.1470 C   0  0  0  0  0  0  0  0  0  0  0  0
   -4.8810   -0.1400   -0.5910 C   0  0  0  0  0  0  0  0  0  0  0  0
   -3.6620    0.5740   -0.8450 C   0  0  0  0  0  0  0  0  0  0  0  0
   -2.4500    0.3540   -0.4570 C   0  0  0  0  0  0  0  0  0  0  0  0
   -1.1280    1.4480   -0.9480 S   0  0  0  0  0  0  0  0  0  0  0  0
    0.1620    1.3310    0.3040 C   0  0  2  0  0  0  0  0  0  0  0  0
    0.5160    2.7610    0.7030 C   0  0  0  0  0  0  0  0  0  0  0  0
    1.4000    0.7280   -0.2570 C   0  0  0  0  0  0  0  0  0  0  0  0
    1.3790    0.4240   -1.4650 O   0  0  0  0  0  0  0  0  0  0  0  0
    2.5080    0.5220    0.5350 N   0  0  0  0  0  0  0  0  0  0  0  0
    3.7730   -0.0440    0.1290 C   0  0  0  0  0  0  0  0  0  0  0  0
    4.0800    0.0010   -1.2050 C   0  0  0  0  0  0  0  0  0  0  0  0
    5.2990   -0.5940   -1.5810 C   0  0  0  0  0  0  0  0  0  0  0  0
    6.0840   -1.1640   -0.6370 C   0  0  0  0  0  0  0  0  0  0  0  0
    7.6910   -2.0150   -0.7520 S   0  0  0  0  0  0  0  0  0  0  0  0
    7.8180   -2.3700    1.0610 C   0  0  0  0  0  0  0  0  0  0  0  0
    6.6660   -1.8210    1.5400 C   0  0  0  0  0  0  0  0  0  0  0  0
    5.7990   -1.2220    0.7180 C   0  0  0  0  0  0  0  0  0  0  0  0
    4.5680   -0.6190    1.0820 C   0  0  0  0  0  0  0  0  0  0  0  0
   -0.3370    0.6330    1.4830 C   0  0  0  0  0  0  0  0  0  0  0  0
   -0.2010    1.0840    2.6740 O   0  0  0  0  0  0  0  0  0  0  0  0
   -1.0080   -0.6090    1.3430 N   0  0  0  0  0  0  0  0  0  0  0  0
   -2.0700   -0.7670    0.3720 C   0  0  0  0  0  0  0  0  0  0  0  0
   -2.6200   -1.8850    0.2910 O   0  0  0  0  0  0  0  0  0  0  0  0
   -4.9940   -1.2810    0.1820 O   0  0  0  0  0  0  0  0  0  0  0  0
   -6.1670   -2.0370    0.2450 C   0  0  0  0  0  0  0  0  0  0  0  0
  1  2  1  0
  2  3  2  3
  3  4  1  0
  3 26  1  0
  4  5  2  3
  5  6  1  0
  5 24  1  0
  6  7  1  0
  7  8  1  1
  7  9  1  0
  7 21  1  0
  9 10  2  0
  9 11  1  0
 11 12  1  0
 12 13  2  0
 12 20  1  0
 13 14  1  0
 14 15  2  0
 15 16  1  0
 15 19  1  0
 16 17  1  0
 17 18  2  0
 18 19  1  0
 19 20  2  0
 21 22  2  0
 21 23  1  0
 23 24  1  0
 24 25  2  0
 26 27  1  0
M  END
