
     RDKit          3D

 16 16  0  0  0  0  0  0  0  0999 V2000
   -4.2720    0.6940   -0.1350 C   0  0  0  0  0  0  0  0  0  0  0  0
   -2.9330    0.0540   -0.1990 C   0  0  2  0  0  0  0  0  0  0  0  0
   -3.0440   -1.3110   -0.2580 O   0  0  0  0  0  0  0  0  0  0  0  0
   -2.1610    0.3840    0.9350 O   0  0  0  0  0  0  0  0  0  0  0  0
   -1.0100   -0.3940    1.0090 C   0  0  0  0  0  0  0  0  0  0  0  0
   -0.3300   -0.6290   -0.2880 C   0  0  2  0  0  0  0  0  0  0  0  0
    1.1460   -0.8180   -0.2200 C   0  0  2  0  0  0  0  0  0  0  0  0
    1.4220   -1.8030    0.7110 O   0  0  0  0  0  0  0  0  0  0  0  0
    1.9470    0.3860    0.1120 C   0  0  0  0  0  0  0  0  0  0  0  0
    3.3800   -0.0010    0.1320 C   0  0  0  0  0  0  0  0  0  0  0  0
    3.7320   -1.1750   -0.1070 O   0  0  0  0  0  0  0  0  0  0  0  0
    4.3860    0.9580    0.4240 N   0  0  0  0  0  0  0  0  0  0  0  0
    5.7020    0.6410    0.4510 O   0  0  0  0  0  0  0  0  0  0  0  0
   -0.7310    0.3910   -1.2420 N   0  0  0  0  0  0  0  0  0  0  0  0
   -2.1370    0.5950   -1.3610 C   0  0  0  0  0  0  0  0  0  0  0  0
   -2.6660    1.1690   -2.3340 O   0  0  0  0  0  0  0  0  0  0  0  0
  2  1  1  1
  2  3  1  0
  2  4  1  0
  2 15  1  0
  4  5  1  0
  6  5  1  1
  6  7  1  0
  6 14  1  0
  7  8  1  1
  7  9  1  0
  9 10  1  0
 10 11  2  0
 10 12  1  0
 12 13  1  0
 14 15  1  0
 15 16  2  0
M  END
