
     RDKit          3D

 15 16  0  0  0  0  0  0  0  0999 V2000
   -3.6490   -0.9910    1.1030 C   0  0  0  0  0  0  0  0  0  0  0  0
   -2.3900   -0.3150    0.6810 C   0  0  1  0  0  0  0  0  0  0  0  0
   -1.2510   -1.1370    0.8490 O   0  0  0  0  0  0  0  0  0  0  0  0
   -0.2870   -0.3170    0.2290 C   0  0  1  0  0  0  0  0  0  0  0  0
   -0.8820   -0.0460   -1.0440 N   0  0  0  0  0  0  0  0  0  0  0  0
   -2.3170   -0.0380   -0.8030 C   0  0  1  0  0  0  0  0  0  0  0  0
   -2.9350   -1.0410   -1.5410 O   0  0  0  0  0  0  0  0  0  0  0  0
   -0.1400    0.8900    0.9070 O   0  0  0  0  0  0  0  0  0  0  0  0
    1.0850    1.3720    0.4350 C   0  0  0  0  0  0  0  0  0  0  0  0
    1.8260    0.1330    0.0660 C   0  0  1  0  0  0  0  0  0  0  0  0
    2.3410    0.1330   -1.3520 C   0  0  0  0  0  0  0  0  0  0  0  0
    2.9750   -1.1190   -1.5370 O   0  0  0  0  0  0  0  0  0  0  0  0
    2.9990   -0.0310    1.0000 C   0  0  0  0  0  0  0  0  0  0  0  0
    3.8570    1.0330    0.8600 O   0  0  0  0  0  0  0  0  0  0  0  0
    0.9330   -0.9300    0.1810 O   0  0  0  0  0  0  0  0  0  0  0  0
  2  1  1  6
  2  3  1  0
  2  6  1  0
  3  4  1  0
  4  5  1  6
  4  8  1  0
  4 15  1  0
  5  6  1  0
  6  7  1  6
  8  9  1  0
  9 10  1  0
 10 11  1  6
 10 13  1  0
 10 15  1  0
 11 12  1  0
 13 14  1  0
M  END
