
     RDKit          3D

 16 16  0  0  0  0  0  0  0  0999 V2000
   -3.9600    0.5460    1.6690 C   0  0  0  0  0  0  0  0  0  0  0  0
   -2.8670    0.4280    0.6790 C   0  0  0  0  0  0  0  0  0  0  0  0
   -3.1620    0.4870   -0.5410 O   0  0  0  0  0  0  0  0  0  0  0  0
   -1.5000    0.2520    1.0140 N   0  0  0  0  0  0  0  0  0  0  0  0
   -0.4390    0.1390    0.0340 C   0  0  1  0  0  0  0  0  0  0  0  0
    0.6110    1.1470    0.1840 C   0  0  0  0  0  0  0  0  0  0  0  0
    0.3800    2.4310    0.3020 N   0  0  0  0  0  0  0  0  0  0  0  0
   -0.8760    2.9460    0.2970 O   0  0  0  0  0  0  0  0  0  0  0  0
    1.9270    0.6880    0.1970 O   0  0  0  0  0  0  0  0  0  0  0  0
    2.3660   -0.4260   -0.5200 C   0  0  2  0  0  0  0  0  0  0  0  0
    2.9630   -0.0310   -1.8710 C   0  0  0  0  0  0  0  0  0  0  0  0
    4.0580    0.8190   -1.6880 O   0  0  0  0  0  0  0  0  0  0  0  0
    1.2420   -1.3930   -0.8250 C   0  0  1  0  0  0  0  0  0  0  0  0
    1.6870   -2.6900   -0.8190 O   0  0  0  0  0  0  0  0  0  0  0  0
    0.2020   -1.2220    0.2510 C   0  0  2  0  0  0  0  0  0  0  0  0
   -0.8110   -2.1650    0.0010 O   0  0  0  0  0  0  0  0  0  0  0  0
  1  2  1  0
  2  3  2  0
  2  4  1  0
  5  4  1  1
  5  6  1  0
  5 15  1  0
  6  7  2  3
  6  9  1  0
  7  8  1  0
  9 10  1  0
 10 11  1  6
 10 13  1  0
 11 12  1  0
 13 14  1  1
 13 15  1  0
 15 16  1  6
M  END
