
     RDKit          3D

 15 15  0  0  0  0  0  0  0  0999 V2000
    2.7160   -1.1190   -0.8040 C   0  0  0  0  0  0  0  0  0  0  0  0
    1.9320   -0.1490   -0.1950 O   0  0  0  0  0  0  0  0  0  0  0  0
    1.1470   -0.6820    0.8270 C   0  0  2  0  0  0  0  0  0  0  0  0
    2.0530   -1.2050    1.8260 N   0  0  0  0  0  0  0  0  0  0  0  0
    0.3310   -1.6390    0.2770 O   0  0  0  0  0  0  0  0  0  0  0  0
   -0.9170   -1.1190    0.0120 C   0  0  2  0  0  0  0  0  0  0  0  0
   -1.7360   -2.0160   -0.8430 C   0  0  0  0  0  0  0  0  0  0  0  0
   -3.0520   -1.6850   -1.2420 N   0  0  0  0  0  0  0  0  0  0  0  0
   -1.2690   -3.1270   -1.2470 O   0  0  0  0  0  0  0  0  0  0  0  0
   -0.8340    0.2810   -0.5880 C   0  0  0  0  0  0  0  0  0  0  0  0
   -0.1660    1.1570    0.4430 C   0  0  1  0  0  0  0  0  0  0  0  0
    0.8890    2.0440   -0.1390 C   0  0  0  0  0  0  0  0  0  0  0  0
   -1.2520    2.0190    1.0620 C   0  0  0  0  0  0  0  0  0  0  0  0
   -1.7560    2.8290    0.0450 O   0  0  0  0  0  0  0  0  0  0  0  0
    0.3950    0.3080    1.4060 O   0  0  0  0  0  0  0  0  0  0  0  0
  1  2  1  0
  2  3  1  0
  3  4  1  1
  3  5  1  0
  3 15  1  0
  5  6  1  0
  6  7  1  6
  6 10  1  0
  7  8  1  0
  7  9  2  0
 10 11  1  0
 11 12  1  6
 11 13  1  0
 11 15  1  0
 13 14  1  0
M  END
