
     RDKit          3D

 15 15  0  0  0  0  0  0  0  0999 V2000
   -1.8180    1.9990   -0.4410 C   0  0  0  0  0  0  0  0  0  0  0  0
   -1.5900    0.6110    0.1130 C   0  0  2  0  0  0  0  0  0  0  0  0
   -2.8850    0.0090    0.4550 C   0  0  0  0  0  0  0  0  0  0  0  0
   -3.3020   -1.2710    0.0020 N   0  0  0  0  0  0  0  0  0  0  0  0
   -3.6620    0.6730    1.1900 O   0  0  0  0  0  0  0  0  0  0  0  0
   -0.7630    0.6630    1.3900 C   0  0  0  0  0  0  0  0  0  0  0  0
    0.5200    0.7480    0.8680 O   0  0  0  0  0  0  0  0  0  0  0  0
    0.4770    0.3490   -0.4460 C   0  0  1  0  0  0  0  0  0  0  0  0
    1.5620   -0.6630   -0.6800 C   0  0  1  0  0  0  0  0  0  0  0  0
    1.4560   -1.8650    0.2070 C   0  0  0  0  0  0  0  0  0  0  0  0
    1.5470   -1.0880   -1.9990 O   0  0  0  0  0  0  0  0  0  0  0  0
    2.8620    0.0050   -0.4070 C   0  0  0  0  0  0  0  0  0  0  0  0
    3.1890    0.5530    0.8620 N   0  0  0  0  0  0  0  0  0  0  0  0
    3.7500    0.1160   -1.3090 O   0  0  0  0  0  0  0  0  0  0  0  0
   -0.7950   -0.1660   -0.6890 O   0  0  0  0  0  0  0  0  0  0  0  0
  2  1  1  6
  2  3  1  0
  2  6  1  0
  2 15  1  0
  3  4  1  0
  3  5  2  0
  6  7  1  0
  8  7  1  1
  8  9  1  0
  8 15  1  0
  9 10  1  1
  9 11  1  0
  9 12  1  0
 12 13  1  0
 12 14  2  0
M  END
