
     RDKit          3D

 16 16  0  0  0  0  0  0  0  0999 V2000
    4.6740   -0.1830   -1.1370 C   0  0  0  0  0  0  0  0  0  0  0  0
    3.5050   -0.7080   -0.3630 C   0  0  0  0  0  0  0  0  0  0  0  0
    3.2840   -1.9330   -0.3320 O   0  0  0  0  0  0  0  0  0  0  0  0
    2.6200    0.1420    0.3520 N   0  0  0  0  0  0  0  0  0  0  0  0
    1.5020   -0.3530    1.0940 C   0  0  0  0  0  0  0  0  0  0  0  0
    1.3240   -1.5780    1.0940 O   0  0  0  0  0  0  0  0  0  0  0  0
    0.6460    0.6180    1.8000 C   0  0  1  0  0  0  0  0  0  0  0  0
    1.1030    1.9210    1.6110 O   0  0  0  0  0  0  0  0  0  0  0  0
   -0.7830    0.5640    1.3650 C   0  0  1  0  0  0  0  0  0  0  0  0
   -0.9220    0.9120    0.0090 O   0  0  0  0  0  0  0  0  0  0  0  0
   -2.2710    0.5550   -0.1790 C   0  0  1  0  0  0  0  0  0  0  0  0
   -2.6340    0.5300   -1.6390 C   0  0  0  0  0  0  0  0  0  0  0  0
   -1.8930   -0.3620   -2.3700 O   0  0  0  0  0  0  0  0  0  0  0  0
   -2.3160   -0.7900    0.4700 C   0  0  2  0  0  0  0  0  0  0  0  0
   -3.6190   -1.1570    0.9460 N   0  0  0  0  0  0  0  0  0  0  0  0
   -1.3820   -0.6630    1.5130 O   0  0  0  0  0  0  0  0  0  0  0  0
  1  2  1  0
  2  3  2  0
  2  4  1  0
  4  5  1  0
  5  6  2  0
  5  7  1  0
  7  8  1  6
  7  9  1  0
  9 10  1  6
  9 16  1  0
 10 11  1  0
 11 12  1  6
 11 14  1  0
 12 13  1  0
 14 15  1  1
 14 16  1  0
M  END
