
     RDKit          3D

 15 15  0  0  0  0  0  0  0  0999 V2000
    3.8930   -1.2740    0.7070 N   0  0  0  0  0  0  0  0  0  0  0  0
    3.5840   -0.0590   -0.0060 C   0  0  0  0  0  0  0  0  0  0  0  0
    2.2290    0.2720   -0.0030 O   0  0  0  0  0  0  0  0  0  0  0  0
    1.2160   -0.5050   -0.5120 C   0  0  0  0  0  0  0  0  0  0  0  0
    1.5280   -1.6080   -1.0250 O   0  0  0  0  0  0  0  0  0  0  0  0
   -0.2010   -0.0700   -0.4650 C   0  0  2  0  0  0  0  0  0  0  0  0
   -0.3410    1.1770   -1.2550 C   0  0  0  0  0  0  0  0  0  0  0  0
   -1.7200    1.7540   -1.3110 C   0  0  0  0  0  0  0  0  0  0  0  0
   -1.7170    2.9180   -2.0790 O   0  0  0  0  0  0  0  0  0  0  0  0
   -0.6740    0.0000    0.9480 C   0  0  0  0  0  0  0  0  0  0  0  0
   -2.0350   -0.6620    0.9850 C   0  0  2  0  0  0  0  0  0  0  0  0
   -2.1240   -1.5840    2.1160 N   0  0  0  0  0  0  0  0  0  0  0  0
   -2.0120   -1.4810   -0.2540 C   0  0  0  0  0  0  0  0  0  0  0  0
   -2.8260   -2.4070   -0.5040 O   0  0  0  0  0  0  0  0  0  0  0  0
   -0.9860   -1.0770   -1.0620 O   0  0  0  0  0  0  0  0  0  0  0  0
  1  2  1  0
  2  3  1  0
  3  4  1  0
  4  5  2  0
  4  6  1  0
  6  7  1  6
  6 10  1  0
  6 15  1  0
  7  8  1  0
  8  9  1  0
 10 11  1  0
 11 12  1  1
 11 13  1  0
 13 14  2  0
 13 15  1  0
M  END
