
     RDKit          3D

 30 33  0  0  0  0  0  0  0  0999 V2000
    3.9910   -1.4570    1.3010 C   0  0  0  0  0  0  0  0  0  0  0  0
    3.0180   -0.8330    0.3770 C   0  0  0  0  0  0  0  0  0  0  0  0
    1.7640   -1.2570    0.1840 C   0  0  0  0  0  0  0  0  0  0  0  0
    0.9810   -2.3520    0.7410 C   0  0  0  0  0  0  0  0  0  0  0  0
    1.6090   -3.3510    1.8540 S   0  0  0  0  0  0  0  0  0  0  0  0
   -0.3670   -2.5090    0.2820 N   0  0  0  0  0  0  0  0  0  0  0  0
   -0.8720   -1.7120   -0.5910 C   0  0  0  0  0  0  0  0  0  0  0  0
   -2.2260   -1.9530   -0.9830 N   0  0  0  0  0  0  0  0  0  0  0  0
   -3.1850   -2.4410   -0.0720 C   0  0  2  0  0  0  0  0  0  0  0  0
   -2.7930   -3.7650    0.5610 C   0  0  0  0  0  0  0  0  0  0  0  0
   -4.4950   -2.7220   -0.8130 C   0  0  0  0  0  0  0  0  0  0  0  0
   -3.4120   -1.4800    1.0630 C   0  0  0  0  0  0  0  0  0  0  0  0
   -3.8830   -0.2030    0.7330 N   0  0  0  0  0  0  0  0  0  0  0  0
   -3.0300    0.6800    0.0610 C   0  0  0  0  0  0  0  0  0  0  0  0
   -3.4080    2.1260    0.0390 C   0  0  0  0  0  0  0  0  0  0  0  0
   -4.7790    2.3990    0.4920 C   0  0  0  0  0  0  0  0  0  0  0  0
   -5.4120    3.5740    0.7210 N   0  0  0  0  0  0  0  0  0  0  0  0
   -6.6440    3.3370    1.1190 N   0  0  0  0  0  0  0  0  0  0  0  0
   -6.8330    1.9960    1.1550 C   0  0  0  0  0  0  0  0  0  0  0  0
   -5.6670    1.4000    0.7630 C   0  0  0  0  0  0  0  0  0  0  0  0
   -5.2860   -0.0290    0.6140 C   0  0  0  0  0  0  0  0  0  0  0  0
   -0.1190   -0.6340   -1.1460 N   0  0  0  0  0  0  0  0  0  0  0  0
    1.0990   -0.3890   -0.8160 C   0  0  0  0  0  0  0  0  0  0  0  0
    2.0630    0.5710   -1.1860 N   0  0  0  0  0  0  0  0  0  0  0  0
    3.2900    0.3300   -0.4570 C   0  0  0  0  0  0  0  0  0  0  0  0
    4.3350    1.0330   -0.5450 N   0  0  0  0  0  0  0  0  0  0  0  0
    5.5620    0.8840    0.1590 C   0  0  0  0  0  0  0  0  0  0  0  0
    6.3510    2.2020    0.1360 C   0  0  2  0  0  0  0  0  0  0  0  0
    6.6770    2.6440   -1.2530 C   0  0  0  0  0  0  0  0  0  0  0  0
    7.6510    2.0500    0.8950 C   0  0  0  0  0  0  0  0  0  0  0  0
  1  2  1  0
  2  3  2  0
  2 25  1  0
  3  4  1  0
  3 23  1  0
  4  5  2  0
  4  6  1  0
  6  7  2  0
  7  8  1  0
  7 22  1  0
  8  9  1  0
  9 10  1  1
  9 11  1  0
  9 12  1  0
 12 13  1  0
 13 14  1  0
 13 21  1  0
 14 15  1  0
 15 16  1  0
 16 17  1  0
 16 20  2  0
 17 18  1  0
 18 19  2  0
 19 20  1  0
 20 21  1  0
 22 23  2  0
 23 24  1  0
 24 25  1  0
 25 26  2  3
 26 27  1  0
 27 28  1  0
 28 29  1  6
 28 30  1  0
M  CHG  1  26   1
M  END
