
     RDKit          3D

 30 33  0  0  0  0  0  0  0  0999 V2000
    6.0400    2.5970   -0.1830 C   0  0  0  0  0  0  0  0  0  0  0  0
    4.9340    3.5970    0.0380 C   0  0  0  0  0  0  0  0  0  0  0  0
    3.6820    3.0710   -0.4420 N   0  0  0  0  0  0  0  0  0  0  0  0
    3.1050    1.8810    0.0720 C   0  0  0  0  0  0  0  0  0  0  0  0
    3.6430    1.1260    1.0400 N   0  0  0  0  0  0  0  0  0  0  0  0
    2.8510    0.1030    1.2740 N   0  0  0  0  0  0  0  0  0  0  0  0
    1.7560    0.1550    0.4580 C   0  0  0  0  0  0  0  0  0  0  0  0
    0.6770   -0.7230    0.3960 N   0  0  0  0  0  0  0  0  0  0  0  0
    0.5380   -1.8850   -0.0510 C   0  0  0  0  0  0  0  0  0  0  0  0
   -0.8030   -2.5410    0.0560 C   0  0  2  0  0  0  0  0  0  0  0  0
   -1.9970   -1.3180    0.7150 S   0  0  0  0  0  0  0  0  0  0  0  0
   -2.1720   -0.0350   -0.5130 C   0  0  0  0  0  0  0  0  0  0  0  0
   -1.5300    0.0610   -1.7520 C   0  0  0  0  0  0  0  0  0  0  0  0
   -1.9370    1.1790   -2.3720 N   0  0  0  0  0  0  0  0  0  0  0  0
   -2.8170    1.8050   -1.5770 C   0  0  0  0  0  0  0  0  0  0  0  0
   -3.4910    3.0770   -1.9170 C   0  0  0  0  0  0  0  0  0  0  0  0
   -2.9850    1.0680   -0.4040 C   0  0  0  0  0  0  0  0  0  0  0  0
   -3.8820    1.4630    0.6910 C   0  0  0  0  0  0  0  0  0  0  0  0
   -3.4030    2.0850    1.8270 C   0  0  0  0  0  0  0  0  0  0  0  0
   -4.2790    2.4350    2.8190 C   0  0  0  0  0  0  0  0  0  0  0  0
   -5.6440    2.2000    2.7560 C   0  0  0  0  0  0  0  0  0  0  0  0
   -6.0890    1.5770    1.6070 C   0  0  0  0  0  0  0  0  0  0  0  0
   -5.2390    1.2100    0.5870 C   0  0  0  0  0  0  0  0  0  0  0  0
   -0.7360   -3.7560    0.9570 C   0  0  0  0  0  0  0  0  0  0  0  0
    0.0270   -4.7650    0.2130 N   0  0  0  0  0  0  0  0  0  0  0  0
    1.4340   -4.6830    0.4520 C   0  0  0  0  0  0  0  0  0  0  0  0
    2.2000   -3.8360   -0.5060 C   0  0  0  0  0  0  0  0  0  0  0  0
    1.6960   -2.4710   -0.6260 N   0  0  0  0  0  0  0  0  0  0  0  0
    2.5390   -1.6320   -1.4750 C   0  0  0  0  0  0  0  0  0  0  0  0
    1.9700    1.2890   -0.2720 N   0  0  0  0  0  0  0  0  0  0  0  0
  1  2  1  0
  2  3  1  0
  3  4  1  0
  4  5  2  0
  4 30  1  0
  5  6  1  0
  6  7  1  0
  7  8  1  0
  7 30  2  0
  8  9  2  3
  9 10  1  0
  9 28  1  0
 10 11  1  1
 10 24  1  0
 11 12  1  0
 12 13  2  0
 12 17  1  0
 13 14  1  0
 14 15  1  0
 15 16  1  0
 15 17  2  0
 17 18  1  0
 18 19  2  0
 18 23  1  0
 19 20  1  0
 20 21  2  0
 21 22  1  0
 22 23  2  0
 24 25  1  0
 25 26  1  0
 26 27  1  0
 27 28  1  0
 28 29  1  0
M  CHG  1  25   1
M  END
