
     RDKit          3D

 29 31  0  0  0  0  0  0  0  0999 V2000
    2.6420    2.8130    0.6860 C   0  0  0  0  0  0  0  0  0  0  0  0
    2.7570    1.6910   -0.1260 C   0  0  0  0  0  0  0  0  0  0  0  0
    2.5830    0.5310    0.3660 C   0  0  0  0  0  0  0  0  0  0  0  0
    2.8190   -0.1780   -1.1490 C   0  0  0  0  0  0  0  0  0  0  0  0
    2.8250   -1.5110   -1.1870 C   0  0  0  0  0  0  0  0  0  0  0  0
    2.3880   -0.8170    0.9070 C   0  0  0  0  0  0  0  0  0  0  0  0
    2.9820   -1.5100    1.8980 C   0  0  0  0  0  0  0  0  0  0  0  0
    2.4570   -2.6370    2.4180 C   0  0  0  0  0  0  0  0  0  0  0  0
    3.1210   -3.3340    3.4740 O   0  0  0  0  0  0  0  0  0  0  0  0
    4.3080   -2.8270    3.9810 C   0  0  0  0  0  0  0  0  0  0  0  0
    1.2600   -3.1250    1.9340 C   0  0  0  0  0  0  0  0  0  0  0  0
    0.6150   -2.4810    0.9450 C   0  0  0  0  0  0  0  0  0  0  0  0
    1.1280   -1.2970    0.3800 C   0  0  0  0  0  0  0  0  0  0  0  0
    0.3660   -0.5560   -0.4930 N   0  0  0  0  0  0  0  0  0  0  0  0
   -0.7940   -0.7110   -1.2290 C   0  0  0  0  0  0  0  0  0  0  0  0
   -0.5570   -1.5580   -2.4900 C   0  0  0  0  0  0  0  0  0  0  0  0
    0.4740   -0.9210   -3.2040 O   0  0  0  0  0  0  0  0  0  0  0  0
    0.2160    0.3310   -3.6320 C   0  0  0  0  0  0  0  0  0  0  0  0
   -1.9710   -0.2170   -1.0670 C   0  0  0  0  0  0  0  0  0  0  0  0
   -2.5040    0.6670   -0.0730 C   0  0  0  0  0  0  0  0  0  0  0  0
   -2.2970    1.3430    1.0670 C   0  0  0  0  0  0  0  0  0  0  0  0
   -1.0560    1.3620    1.8730 C   0  0  0  0  0  0  0  0  0  0  0  0
   -0.6500    2.7950    1.9830 N   0  0  0  0  0  0  0  0  0  0  0  0
   -3.4990    2.1490    1.4240 C   0  0  0  0  0  0  0  0  0  0  0  0
   -4.1700    2.3210    0.0640 C   0  0  0  0  0  0  0  0  0  0  0  0
   -3.8910    1.0020   -0.4620 N   0  0  0  0  0  0  0  0  0  0  0  0
   -4.3220   -0.1810   -1.1830 C   0  0  0  0  0  0  0  0  0  0  0  0
   -3.1350   -0.4170   -2.0690 C   0  0  1  0  0  0  0  0  0  0  0  0
   -3.0480    0.6780   -3.0090 N   0  0  0  0  0  0  0  0  0  0  0  0
  1  2  2  0
  2  3  1  0
  3  4  2  3
  3  6  1  0
  4  5  1  0
  6  7  2  0
  6 13  1  0
  7  8  1  0
  8  9  1  0
  8 11  2  0
  9 10  1  0
 11 12  1  0
 12 13  2  0
 13 14  1  0
 14 15  1  0
 15 16  1  0
 15 19  2  3
 16 17  1  0
 17 18  1  0
 19 20  1  0
 19 28  1  0
 20 21  2  0
 20 26  1  0
 21 22  1  0
 21 24  1  0
 22 23  1  0
 24 25  1  0
 25 26  1  0
 26 27  1  0
 27 28  1  0
 28 29  1  6
M  CHG  1  23   1
M  END
