
     RDKit          3D

 30 33  0  0  0  0  0  0  0  0999 V2000
   -5.6830   -2.6220   -0.5350 C   0  0  0  0  0  0  0  0  0  0  0  0
   -4.4460   -2.2100   -0.4210 C   0  0  0  0  0  0  0  0  0  0  0  0
   -3.3340   -2.9960   -0.9140 N   0  0  0  0  0  0  0  0  0  0  0  0
   -2.1320   -2.5810   -0.7970 C   0  0  0  0  0  0  0  0  0  0  0  0
   -0.9180   -3.2980   -1.2640 C   0  0  0  0  0  0  0  0  0  0  0  0
    0.0710   -3.1840   -0.1340 C   0  0  1  0  0  0  0  0  0  0  0  0
    1.1830   -4.2170   -0.2740 C   0  0  0  0  0  0  0  0  0  0  0  0
    0.5370   -1.8980    0.1600 N   0  0  0  0  0  0  0  0  0  0  0  0
    1.8830   -1.5720   -0.1640 C   0  0  0  0  0  0  0  0  0  0  0  0
    2.1860   -0.1590    0.3140 C   0  0  0  0  0  0  0  0  0  0  0  0
    3.5670    0.2070    0.0020 N   0  0  0  0  0  0  0  0  0  0  0  0
    4.6560   -0.4500    0.6620 C   0  0  0  0  0  0  0  0  0  0  0  0
    3.8900    1.2100   -0.9400 C   0  0  0  0  0  0  0  0  0  0  0  0
    4.6100    0.8440   -2.0070 N   0  0  0  0  0  0  0  0  0  0  0  0
    4.9370    1.7480   -2.9170 C   0  0  0  0  0  0  0  0  0  0  0  0
    4.5440    2.9980   -2.7530 N   0  0  0  0  0  0  0  0  0  0  0  0
    3.7960    3.4200   -1.6600 C   0  0  0  0  0  0  0  0  0  0  0  0
    3.4050    4.7430   -1.5280 C   0  0  0  0  0  0  0  0  0  0  0  0
    2.4810    4.7120    0.0410 S   0  0  0  0  0  0  0  0  0  0  0  0
    2.7140    2.9330    0.3580 C   0  0  0  0  0  0  0  0  0  0  0  0
    3.4560    2.5400   -0.7380 C   0  0  0  0  0  0  0  0  0  0  0  0
   -0.3920   -0.8580   -0.0480 C   0  0  0  0  0  0  0  0  0  0  0  0
   -1.8140   -1.2780   -0.1520 C   0  0  0  0  0  0  0  0  0  0  0  0
   -2.8040   -0.5450    0.3050 C   0  0  0  0  0  0  0  0  0  0  0  0
   -2.5630    0.7110    0.9310 N   0  0  0  0  0  0  0  0  0  0  0  0
   -2.7480    1.9700    0.2470 C   0  0  0  0  0  0  0  0  0  0  0  0
   -2.3920    3.0840    1.1960 C   0  0  0  0  0  0  0  0  0  0  0  0
   -1.0070    2.9120    1.5880 N   0  0  0  0  0  0  0  0  0  0  0  0
   -4.1690   -0.9650    0.1980 N   0  0  0  0  0  0  0  0  0  0  0  0
   -5.2510   -0.1190    0.7230 C   0  0  0  0  0  0  0  0  0  0  0  0
  1  2  2  0
  2  3  1  0
  2 29  1  0
  3  4  2  0
  4  5  1  0
  4 23  1  0
  5  6  1  0
  6  7  1  6
  6  8  1  0
  8  9  1  0
  8 22  1  0
  9 10  1  0
 10 11  1  0
 11 12  1  0
 11 13  1  0
 13 14  2  0
 13 21  1  0
 14 15  1  0
 15 16  2  0
 16 17  1  0
 17 18  2  0
 17 21  1  0
 18 19  1  0
 19 20  1  0
 20 21  2  0
 22 23  1  0
 23 24  2  0
 24 25  1  0
 24 29  1  0
 25 26  1  0
 26 27  1  0
 27 28  1  0
 29 30  1  0
M  CHG  1  28   1
M  END
