
     RDKit          3D

 30 33  0  0  0  0  0  0  0  0999 V2000
   -6.4760    0.6230    2.8690 C   0  0  0  0  0  0  0  0  0  0  0  0
   -5.2870   -0.0530    2.1460 C   0  0  0  0  0  0  0  0  0  0  0  0
   -4.5030    0.5740    1.2530 C   0  0  0  0  0  0  0  0  0  0  0  0
   -3.4900   -0.0890    0.6660 C   0  0  0  0  0  0  0  0  0  0  0  0
   -2.4680    0.3350   -0.3560 C   0  0  2  0  0  0  0  0  0  0  0  0
   -2.9090    1.6320   -0.9530 C   0  0  0  0  0  0  0  0  0  0  0  0
   -4.0300    1.4970   -1.8340 N   0  0  0  0  0  0  0  0  0  0  0  0
   -3.8910    0.4400   -2.8000 C   0  0  0  0  0  0  0  0  0  0  0  0
   -3.4370   -0.8540   -2.2280 C   0  0  0  0  0  0  0  0  0  0  0  0
   -2.2810   -0.7200   -1.3270 N   0  0  0  0  0  0  0  0  0  0  0  0
   -1.1940   -0.3260   -2.2040 C   0  0  0  0  0  0  0  0  0  0  0  0
    0.1080   -0.1970   -1.5730 C   0  0  0  0  0  0  0  0  0  0  0  0
    1.0390   -1.1660   -1.5310 N   0  0  0  0  0  0  0  0  0  0  0  0
    2.1310   -0.7300   -0.8840 C   0  0  0  0  0  0  0  0  0  0  0  0
    3.3990   -1.4790   -0.6100 C   0  0  0  0  0  0  0  0  0  0  0  0
    4.5180   -0.5670   -0.4340 N   0  0  0  0  0  0  0  0  0  0  0  0
    5.7520   -1.2760   -0.2400 C   0  0  0  0  0  0  0  0  0  0  0  0
    6.9300   -0.3790   -0.0660 C   0  0  0  0  0  0  0  0  0  0  0  0
    6.7730    0.9700    0.1620 C   0  0  0  0  0  0  0  0  0  0  0  0
    7.8480    1.7640    0.3040 N   0  0  0  0  0  0  0  0  0  0  0  0
    9.1060    1.3170    0.2350 C   0  0  0  0  0  0  0  0  0  0  0  0
   10.2200    2.1860    0.3770 C   0  0  0  0  0  0  0  0  0  0  0  0
   11.1640    2.8980    0.4900 N   0  0  0  0  0  0  0  0  0  0  0  0
    9.2420   -0.0510    0.0040 C   0  0  0  0  0  0  0  0  0  0  0  0
    8.1850   -0.8610   -0.1410 N   0  0  0  0  0  0  0  0  0  0  0  0
    1.8760    0.5550   -0.5050 C   0  0  0  0  0  0  0  0  0  0  0  0
    0.6180    0.8640   -0.9430 N   0  0  0  0  0  0  0  0  0  0  0  0
   -3.5960   -1.6880    1.3730 S   0  0  0  0  0  0  0  0  0  0  0  0
   -4.9770   -1.4070    2.4120 C   0  0  0  0  0  0  0  0  0  0  0  0
   -5.6750   -2.3400    3.3460 C   0  0  0  0  0  0  0  0  0  0  0  0
  1  2  1  0
  2  3  1  0
  2 29  2  0
  3  4  2  0
  5  4  1  1
  4 28  1  0
  5  6  1  0
  5 10  1  0
  6  7  1  0
  7  8  1  0
  8  9  1  0
  9 10  1  0
 10 11  1  0
 11 12  1  0
 12 13  2  0
 12 27  1  0
 13 14  1  0
 14 15  1  0
 14 26  2  0
 15 16  1  0
 16 17  1  0
 17 18  1  0
 18 19  2  0
 18 25  1  0
 19 20  1  0
 20 21  2  0
 21 22  1  0
 21 24  1  0
 22 23  3  0
 24 25  2  0
 26 27  1  0
 28 29  1  0
 29 30  1  0
M  CHG  1   7   1
M  END
