
     RDKit          3D

 30 33  0  0  0  0  0  0  0  0999 V2000
   -2.6860   -0.3430    3.5700 C   0  0  0  0  0  0  0  0  0  0  0  0
   -2.1630   -1.0230    2.3610 C   0  0  0  0  0  0  0  0  0  0  0  0
   -2.6000   -2.2610    2.1670 C   0  0  0  0  0  0  0  0  0  0  0  0
   -2.2780   -3.2300    1.0560 C   0  0  0  0  0  0  0  0  0  0  0  0
   -2.4390   -2.5700   -0.2890 C   0  0  0  0  0  0  0  0  0  0  0  0
   -1.2120   -1.8410   -0.7370 C   0  0  0  0  0  0  0  0  0  0  0  0
   -0.9420   -0.6280   -0.0630 N   0  0  0  0  0  0  0  0  0  0  0  0
   -1.0700   -0.1130    1.3930 S   0  0  2  0  0  0  0  0  0  0  0  0
    0.4200   -0.2620    1.9530 N   0  0  0  0  0  0  0  0  0  0  0  0
    1.3020    0.6560    1.4200 N   0  0  0  0  0  0  0  0  0  0  0  0
    2.1680    0.5100    0.3390 C   0  0  0  0  0  0  0  0  0  0  0  0
    1.7760    0.9360   -0.9100 C   0  0  0  0  0  0  0  0  0  0  0  0
    2.6720    0.7770   -1.9500 C   0  0  0  0  0  0  0  0  0  0  0  0
    3.9370    0.2110   -1.7740 C   0  0  0  0  0  0  0  0  0  0  0  0
    4.3110   -0.2080   -0.5180 C   0  0  0  0  0  0  0  0  0  0  0  0
    5.6020   -0.7650   -0.3430 N   0  0  0  0  0  0  0  0  0  0  0  0
    6.6020   -0.7430   -1.3820 C   0  0  0  0  0  0  0  0  0  0  0  0
    6.9800    0.6120   -1.7520 N   0  0  0  0  0  0  0  0  0  0  0  0
    3.4130   -0.0510    0.5290 C   0  0  0  0  0  0  0  0  0  0  0  0
   -1.4160    1.5880    1.3490 C   0  0  0  0  0  0  0  0  0  0  0  0
   -0.8820    2.5040    2.1750 N   0  0  0  0  0  0  0  0  0  0  0  0
   -1.3530    3.6960    1.8760 N   0  0  0  0  0  0  0  0  0  0  0  0
   -2.2090    3.5480    0.8340 C   0  0  0  0  0  0  0  0  0  0  0  0
   -2.2440    2.2400    0.5120 N   0  0  0  0  0  0  0  0  0  0  0  0
   -2.9970    1.6140   -0.4910 C   0  0  0  0  0  0  0  0  0  0  0  0
   -2.4310    1.2780   -1.6870 C   0  0  0  0  0  0  0  0  0  0  0  0
   -3.2120    0.6500   -2.6690 C   0  0  0  0  0  0  0  0  0  0  0  0
   -4.5520    0.3710   -2.4300 C   0  0  0  0  0  0  0  0  0  0  0  0
   -5.1100    0.7130   -1.2250 C   0  0  0  0  0  0  0  0  0  0  0  0
   -4.3220    1.3320   -0.2710 C   0  0  0  0  0  0  0  0  0  0  0  0
  1  2  1  0
  2  3  2  0
  2  8  1  0
  3  4  1  0
  4  5  1  0
  5  6  1  0
  6  7  1  0
  7  8  2  0
  8  9  2  0
  8 20  1  6
  9 10  1  0
 10 11  1  0
 11 12  2  0
 11 19  1  0
 12 13  1  0
 13 14  2  0
 14 15  1  0
 15 16  1  0
 15 19  2  0
 16 17  1  0
 17 18  1  0
 20 21  2  0
 20 24  1  0
 21 22  1  0
 22 23  2  0
 23 24  1  0
 24 25  1  0
 25 26  2  0
 25 30  1  0
 26 27  1  0
 27 28  2  0
 28 29  1  0
 29 30  2  0
M  CHG  1  18   1
M  END
