
     RDKit          3D

 30 33  0  0  0  0  0  0  0  0999 V2000
   -7.9470    0.6270   -1.0740 C   0  0  0  0  0  0  0  0  0  0  0  0
   -6.8480   -0.2150   -0.4690 C   0  0  2  0  0  0  0  0  0  0  0  0
   -7.4200   -1.4620    0.2140 C   0  0  0  0  0  0  0  0  0  0  0  0
   -6.1720    0.6170    0.5220 N   0  0  0  0  0  0  0  0  0  0  0  0
   -6.7400    1.4720    1.3610 N   0  0  0  0  0  0  0  0  0  0  0  0
   -5.8100    2.0430    2.1400 C   0  0  0  0  0  0  0  0  0  0  0  0
   -4.5890    1.4870    1.7340 C   0  0  0  0  0  0  0  0  0  0  0  0
   -4.8240    0.5930    0.7190 C   0  0  0  0  0  0  0  0  0  0  0  0
   -3.7610   -0.1300    0.1210 N   0  0  0  0  0  0  0  0  0  0  0  0
   -2.5410   -0.0100    0.4750 C   0  0  0  0  0  0  0  0  0  0  0  0
   -1.4100   -0.7970   -0.1850 C   0  0  1  0  0  0  0  0  0  0  0  0
   -1.0460   -1.8310    0.8120 C   0  0  0  0  0  0  0  0  0  0  0  0
   -2.0860   -1.5260   -1.3510 C   0  0  0  0  0  0  0  0  0  0  0  0
   -0.4100    0.1570   -0.6720 C   0  0  0  0  0  0  0  0  0  0  0  0
    0.7640   -0.3470   -1.3240 N   0  0  0  0  0  0  0  0  0  0  0  0
    1.4050    0.6730   -2.1170 C   0  0  0  0  0  0  0  0  0  0  0  0
    2.5930    1.3200   -1.6050 C   0  0  0  0  0  0  0  0  0  0  0  0
    3.6210    0.4260   -1.0880 N   0  0  0  0  0  0  0  0  0  0  0  0
    4.6590    1.2150   -0.5110 C   0  0  0  0  0  0  0  0  0  0  0  0
    5.9140    0.5710   -0.0890 C   0  0  0  0  0  0  0  0  0  0  0  0
    7.0190    1.0050   -0.7490 C   0  0  0  0  0  0  0  0  0  0  0  0
    8.3270    0.5670   -0.5520 N   0  0  0  0  0  0  0  0  0  0  0  0
    8.6670   -0.4890    0.7770 S   0  0  0  0  0  0  0  0  0  0  0  0
    9.6190   -1.6570    0.4790 N   0  0  0  0  0  0  0  0  0  0  0  0
    7.1150   -0.9250    1.4720 C   0  0  0  0  0  0  0  0  0  0  0  0
    6.0160   -0.3730    0.9840 C   0  0  0  0  0  0  0  0  0  0  0  0
    3.0570   -0.6020   -0.2840 C   0  0  0  0  0  0  0  0  0  0  0  0
    1.6720   -1.0330   -0.4610 C   0  0  0  0  0  0  0  0  0  0  0  0
   -2.2550    0.8730    1.5500 N   0  0  0  0  0  0  0  0  0  0  0  0
   -3.2070    1.7030    2.2040 C   0  0  0  0  0  0  0  0  0  0  0  0
  2  1  1  1
  2  3  1  0
  2  4  1  0
  4  5  1  0
  4  8  1  0
  5  6  2  0
  6  7  1  0
  7  8  2  0
  7 30  1  0
  8  9  1  0
  9 10  2  0
 10 11  1  0
 10 29  1  0
 11 12  1  1
 11 13  1  0
 11 14  1  0
 14 15  1  0
 15 16  1  0
 15 28  1  0
 16 17  1  0
 17 18  1  0
 18 19  1  0
 18 27  1  0
 19 20  1  0
 20 21  2  0
 20 26  1  0
 21 22  1  0
 23 22  1  6
 23 24  2  0
 23 25  1  0
 25 26  2  0
 27 28  1  0
 29 30  1  0
M  CHG  1  24   1
M  END
