
     RDKit          3D

 30 33  0  0  0  0  0  0  0  0999 V2000
   -7.8720    2.7650   -1.0750 C   0  0  0  0  0  0  0  0  0  0  0  0
   -8.6180    1.6110   -0.5170 C   0  0  0  0  0  0  0  0  0  0  0  0
   -9.8910    1.4850   -0.3970 N   0  0  0  0  0  0  0  0  0  0  0  0
  -10.2330    0.2840    0.1620 N   0  0  0  0  0  0  0  0  0  0  0  0
   -9.1720   -0.4400    0.4370 C   0  0  0  0  0  0  0  0  0  0  0  0
   -9.2090   -1.7870    1.0480 C   0  0  0  0  0  0  0  0  0  0  0  0
   -8.0430    0.3530    0.0230 C   0  0  0  0  0  0  0  0  0  0  0  0
   -6.7470    0.1170    0.0690 C   0  0  0  0  0  0  0  0  0  0  0  0
   -6.0860   -1.0550    0.5650 C   0  0  0  0  0  0  0  0  0  0  0  0
   -4.8270   -1.2900    0.6110 C   0  0  0  0  0  0  0  0  0  0  0  0
   -3.6980   -0.5360    0.2120 C   0  0  0  0  0  0  0  0  0  0  0  0
   -3.3650    0.5810   -0.4280 C   0  0  0  0  0  0  0  0  0  0  0  0
   -2.0860    0.9850   -0.5510 C   0  0  0  0  0  0  0  0  0  0  0  0
   -1.1130    0.1920    0.0160 C   0  0  0  0  0  0  0  0  0  0  0  0
    0.3880    0.3980    0.0410 C   0  0  0  0  0  0  0  0  0  0  0  0
    0.9170   -0.3100   -1.1420 C   0  0  0  0  0  0  0  0  0  0  0  0
    2.2510   -0.2610   -1.4760 N   0  0  0  0  0  0  0  0  0  0  0  0
    3.2980   -0.8350   -0.7120 C   0  0  2  0  0  0  0  0  0  0  0  0
    3.5230   -0.1030    0.5400 C   0  0  0  0  0  0  0  0  0  0  0  0
    4.7350    0.2830    0.8960 C   0  0  0  0  0  0  0  0  0  0  0  0
    5.8760    0.0220    0.1080 N   0  0  0  0  0  0  0  0  0  0  0  0
    7.1720    0.2930    0.2560 N   0  0  0  0  0  0  0  0  0  0  0  0
    7.8950   -0.1760   -0.7720 C   0  0  0  0  0  0  0  0  0  0  0  0
    9.3120   -0.0650   -0.9420 N   0  0  0  0  0  0  0  0  0  0  0  0
   10.1020    0.6130    0.0520 C   0  0  0  0  0  0  0  0  0  0  0  0
    9.9960    0.0630    1.3700 N   0  0  0  0  0  0  0  0  0  0  0  0
    7.0100   -0.7620   -1.5920 N   0  0  0  0  0  0  0  0  0  0  0  0
    5.7750   -0.6400   -1.0520 C   0  0  0  0  0  0  0  0  0  0  0  0
    4.4900   -1.1080   -1.5620 C   0  0  0  0  0  0  0  0  0  0  0  0
   -1.9930   -1.1040    0.7110 S   0  0  0  0  0  0  0  0  0  0  0  0
  1  2  1  0
  2  3  2  0
  2  7  1  0
  3  4  1  0
  4  5  2  0
  5  6  1  0
  5  7  1  0
  7  8  2  3
  8  9  1  0
  9 10  2  3
 10 11  1  0
 11 12  2  0
 11 30  1  0
 12 13  1  0
 13 14  2  0
 14 15  1  0
 14 30  1  0
 15 16  1  0
 16 17  1  0
 18 17  1  6
 18 19  1  0
 18 29  1  0
 19 20  2  0
 20 21  1  0
 21 22  1  0
 21 28  1  0
 22 23  2  0
 23 24  1  0
 23 27  1  0
 24 25  1  0
 25 26  1  0
 27 28  2  0
 28 29  1  0
M  CHG  1  26   1
M  END
