
     RDKit          3D

 30 33  0  0  0  0  0  0  0  0999 V2000
   -1.9920   -1.4530   -1.4880 C   0  0  0  0  0  0  0  0  0  0  0  0
   -2.9180   -0.4690   -0.8790 C   0  0  0  0  0  0  0  0  0  0  0  0
   -2.7510    0.2360    0.2000 C   0  0  0  0  0  0  0  0  0  0  0  0
   -1.5480    0.1590    1.0260 C   0  0  0  0  0  0  0  0  0  0  0  0
   -0.5210   -0.4500    0.9860 N   0  0  0  0  0  0  0  0  0  0  0  0
    0.4140   -1.2880    0.5630 C   0  0  0  0  0  0  0  0  0  0  0  0
    0.3550   -2.5540    1.0100 C   0  0  0  0  0  0  0  0  0  0  0  0
   -0.7130   -2.8250    1.8910 N   0  0  0  0  0  0  0  0  0  0  0  0
    1.2550   -3.6680    0.6640 C   0  0  0  0  0  0  0  0  0  0  0  0
    0.9860   -4.9430    1.0190 N   0  0  0  0  0  0  0  0  0  0  0  0
    1.9730   -5.6770    0.5440 N   0  0  0  0  0  0  0  0  0  0  0  0
    2.8690   -4.9290   -0.1020 C   0  0  0  0  0  0  0  0  0  0  0  0
    4.1000   -5.4070   -0.7690 C   0  0  0  0  0  0  0  0  0  0  0  0
    2.4100   -3.6470   -0.0240 N   0  0  0  0  0  0  0  0  0  0  0  0
    3.1270   -2.5590   -0.6080 C   0  0  0  0  0  0  0  0  0  0  0  0
    2.2050   -1.5910   -1.2730 C   0  0  0  0  0  0  0  0  0  0  0  0
    1.4480   -0.7980   -0.3280 N   0  0  0  0  0  0  0  0  0  0  0  0
    1.7350    0.5900   -0.2120 C   0  0  0  0  0  0  0  0  0  0  0  0
    2.2400    1.3570    0.7220 N   0  0  0  0  0  0  0  0  0  0  0  0
    2.4090    2.6310    0.5620 C   0  0  0  0  0  0  0  0  0  0  0  0
    2.9450    3.5100    1.5360 C   0  0  0  0  0  0  0  0  0  0  0  0
    3.0740    4.8410    1.2570 C   0  0  0  0  0  0  0  0  0  0  0  0
    2.7140    5.4210    0.0620 C   0  0  0  0  0  0  0  0  0  0  0  0
    2.1870    4.5780   -0.9040 C   0  0  0  0  0  0  0  0  0  0  0  0
    2.0540    3.1920   -0.6110 C   0  0  0  0  0  0  0  0  0  0  0  0
    1.4550    1.8520   -1.5210 S   0  0  0  0  0  0  0  0  0  0  0  0
   -3.8510    1.1790    0.5940 C   0  0  2  0  0  0  0  0  0  0  0  0
   -5.0150    1.0440   -0.3400 C   0  0  0  0  0  0  0  0  0  0  0  0
   -3.3880    2.5570    0.5150 N   0  0  0  0  0  0  0  0  0  0  0  0
   -4.0350    3.4250    1.4690 C   0  0  0  0  0  0  0  0  0  0  0  0
  1  2  1  0
  2  3  2  3
  3  4  1  0
  3 27  1  0
  4  5  2  3
  5  6  1  0
  6  7  2  0
  6 17  1  0
  7  8  1  0
  7  9  1  0
  9 10  2  0
  9 14  1  0
 10 11  1  0
 11 12  2  0
 12 13  1  0
 12 14  1  0
 14 15  1  0
 15 16  1  0
 16 17  1  0
 17 18  1  0
 18 19  2  0
 18 26  1  0
 19 20  1  0
 20 21  2  0
 20 25  1  0
 21 22  1  0
 22 23  2  0
 23 24  1  0
 24 25  2  0
 25 26  1  0
 27 28  1  6
 27 29  1  0
 29 30  1  0
M  CHG  1  29   1
M  END
