
     RDKit          3D

 17 18  0  0  0  0  0  0  0  0999 V2000
    3.6300    1.4030   -1.4940 C   0  0  0  0  0  0  0  0  0  0  0  0
    2.5270    0.9610   -0.5630 C   0  0  0  0  0  0  0  0  0  0  0  0
    3.1240    0.4520    0.7290 C   0  0  0  0  0  0  0  0  0  0  0  0
    1.9720    0.0130    1.6460 C   0  0  0  0  0  0  0  0  0  0  0  0
    1.2120   -1.0500    0.9800 C   0  0  0  0  0  0  0  0  0  0  0  0
    1.9750   -2.2890    0.6180 C   0  0  0  0  0  0  0  0  0  0  0  0
   -0.0420   -0.9610    0.7050 C   0  0  0  0  0  0  0  0  0  0  0  0
   -0.7220   -2.0990    0.0240 C   0  0  0  0  0  0  0  0  0  0  0  0
   -1.6140   -1.6090   -1.0960 C   0  0  0  0  0  0  0  0  0  0  0  0
   -2.3730   -0.4150   -0.7430 C   0  0  0  0  0  0  0  0  0  0  0  0
   -3.5330   -0.1590   -1.4860 C   0  0  0  0  0  0  0  0  0  0  0  0
   -4.2970    0.9540   -1.1960 C   0  0  0  0  0  0  0  0  0  0  0  0
   -3.9190    1.8070   -0.1790 C   0  0  0  0  0  0  0  0  0  0  0  0
   -4.6940    2.9240    0.1060 O   0  0  0  0  0  0  0  0  0  0  0  0
   -2.7750    1.5470    0.5480 C   0  0  0  0  0  0  0  0  0  0  0  0
   -1.9880    0.4250    0.2680 C   0  0  0  0  0  0  0  0  0  0  0  0
   -0.8070    0.1750    1.0260 N   0  0  0  0  0  0  0  0  0  0  0  0
  1  2  1  0
  2  3  1  0
  3  4  1  0
  4  5  1  0
  5  6  1  0
  5  7  2  3
  7  8  1  0
  7 17  1  0
  8  9  1  0
  9 10  1  0
 10 11  2  0
 10 16  1  0
 11 12  1  0
 12 13  2  0
 13 14  1  0
 13 15  1  0
 15 16  2  0
 16 17  1  0
M  END
