
     RDKit          3D

 18 19  0  0  0  0  0  0  0  0999 V2000
   -4.1900    1.2900   -0.6420 C   0  0  0  0  0  0  0  0  0  0  0  0
   -4.9640    0.1100   -0.0990 C   0  0  0  0  0  0  0  0  0  0  0  0
   -4.3620   -0.4810    0.9030 O   0  0  0  0  0  0  0  0  0  0  0  0
   -3.3070   -1.2370    0.9360 C   0  0  0  0  0  0  0  0  0  0  0  0
   -2.0110   -0.8860    0.3440 C   0  0  0  0  0  0  0  0  0  0  0  0
   -0.9420   -0.7760    1.1320 C   0  0  0  0  0  0  0  0  0  0  0  0
    0.3770   -0.4340    0.5770 C   0  0  0  0  0  0  0  0  0  0  0  0
    1.4230   -0.3500    1.3790 C   0  0  0  0  0  0  0  0  0  0  0  0
    2.7340   -0.0190    0.9190 C   0  0  0  0  0  0  0  0  0  0  0  0
    3.7830   -0.8490    1.3310 C   0  0  0  0  0  0  0  0  0  0  0  0
    5.0900   -0.6100    0.9730 C   0  0  0  0  0  0  0  0  0  0  0  0
    5.3730    0.4910    0.1780 C   0  0  0  0  0  0  0  0  0  0  0  0
    4.3820    1.3440   -0.2580 C   0  0  0  0  0  0  0  0  0  0  0  0
    4.6910    2.4380   -1.0530 O   0  0  0  0  0  0  0  0  0  0  0  0
    3.0810    1.0500    0.1370 C   0  0  0  0  0  0  0  0  0  0  0  0
    0.4140   -0.2450   -0.8280 N   0  0  0  0  0  0  0  0  0  0  0  0
   -0.7440   -0.3760   -1.6480 C   0  0  0  0  0  0  0  0  0  0  0  0
   -1.9050   -0.6810   -1.1030 C   0  0  0  0  0  0  0  0  0  0  0  0
  1  2  1  0
  2  3  1  0
  3  4  1  0
  4  5  1  0
  5  6  2  0
  5 18  1  0
  6  7  1  0
  7  8  2  3
  7 16  1  0
  8  9  1  0
  9 10  2  0
  9 15  1  0
 10 11  1  0
 11 12  2  0
 12 13  1  0
 13 14  1  0
 13 15  2  0
 16 17  1  0
 17 18  2  0
M  END
