
     RDKit          3D

 18 19  0  0  0  0  0  0  0  0999 V2000
    5.6060   -0.8540    0.5940 C   0  0  0  0  0  0  0  0  0  0  0  0
    4.7800    0.1810   -0.1770 C   0  0  0  0  0  0  0  0  0  0  0  0
    3.6800    0.7010    0.6520 C   0  0  0  0  0  0  0  0  0  0  0  0
    2.4030    0.5800    0.3140 C   0  0  0  0  0  0  0  0  0  0  0  0
    1.2740    1.0630    1.0740 C   0  0  0  0  0  0  0  0  0  0  0  0
    0.0240    0.5230    0.3370 C   0  0  0  0  0  0  0  0  0  0  0  0
   -1.2610    0.6260    0.9720 C   0  0  0  0  0  0  0  0  0  0  0  0
   -1.1740    1.4590    2.0230 O   0  0  0  0  0  0  0  0  0  0  0  0
   -2.5630    0.1110    0.8080 C   0  0  0  0  0  0  0  0  0  0  0  0
   -2.8930   -0.9940    0.0950 C   0  0  0  0  0  0  0  0  0  0  0  0
   -4.2130   -1.3950   -0.1020 C   0  0  0  0  0  0  0  0  0  0  0  0
   -5.2550   -0.6800    0.4260 C   0  0  0  0  0  0  0  0  0  0  0  0
   -4.9640    0.4470    1.1600 C   0  0  0  0  0  0  0  0  0  0  0  0
   -6.0380    1.1720    1.6980 O   0  0  0  0  0  0  0  0  0  0  0  0
   -3.6710    0.8260    1.3420 C   0  0  0  0  0  0  0  0  0  0  0  0
    0.4630   -0.0330   -0.7360 C   0  0  0  0  0  0  0  0  0  0  0  0
   -0.2960   -0.7040   -1.8290 C   0  0  0  0  0  0  0  0  0  0  0  0
    1.9040   -0.0390   -0.8330 N   0  0  0  0  0  0  0  0  0  0  0  0
  1  2  1  0
  2  3  1  0
  3  4  2  3
  4  5  1  0
  4 18  1  0
  5  6  1  0
  6  7  1  0
  6 16  2  0
  7  8  2  0
  7  9  1  0
  9 10  2  0
  9 15  1  0
 10 11  1  0
 11 12  2  0
 12 13  1  0
 13 14  1  0
 13 15  2  0
 16 17  1  0
 16 18  1  0
M  END
