
     RDKit          3D

 18 19  0  0  0  0  0  0  0  0999 V2000
   -3.4900    1.7450    2.0170 C   0  0  0  0  0  0  0  0  0  0  0  0
   -2.2780    1.0310    1.4750 C   0  0  0  0  0  0  0  0  0  0  0  0
   -2.3970    0.0200    0.7310 C   0  0  0  0  0  0  0  0  0  0  0  0
   -3.8190   -0.4980    0.3880 C   0  0  0  0  0  0  0  0  0  0  0  0
   -3.6440   -0.6980   -1.1240 C   0  0  0  0  0  0  0  0  0  0  0  0
   -2.2010   -0.5390   -1.4480 C   0  0  0  0  0  0  0  0  0  0  0  0
   -1.6210   -0.8670   -0.0740 C   0  0  1  0  0  0  0  0  0  0  0  0
   -0.2760   -1.1030   -0.0990 N   0  0  0  0  0  0  0  0  0  0  0  0
    0.9500   -0.4180   -0.1410 C   0  0  0  0  0  0  0  0  0  0  0  0
    1.2360    0.8400    0.3460 C   0  0  0  0  0  0  0  0  0  0  0  0
    2.5180    1.4380    0.3500 C   0  0  0  0  0  0  0  0  0  0  0  0
    3.5640    0.7640   -0.1510 C   0  0  0  0  0  0  0  0  0  0  0  0
    4.8750    1.3000   -0.1440 O   0  0  0  0  0  0  0  0  0  0  0  0
    5.2200    2.5280    0.5030 C   0  0  0  0  0  0  0  0  0  0  0  0
    3.3390   -0.5200   -0.6630 C   0  0  0  0  0  0  0  0  0  0  0  0
    2.0670   -1.0990   -0.6550 C   0  0  0  0  0  0  0  0  0  0  0  0
    1.8540   -2.4910   -1.0260 C   0  0  0  0  0  0  0  0  0  0  0  0
    1.1200   -2.7320   -2.1870 O   0  0  0  0  0  0  0  0  0  0  0  0
  1  2  1  0
  2  3  2  3
  3  4  1  0
  3  7  1  0
  4  5  1  0
  5  6  1  0
  6  7  1  0
  7  8  1  6
  8  9  1  0
  9 10  2  0
  9 16  1  0
 10 11  1  0
 11 12  2  0
 12 13  1  0
 12 15  1  0
 13 14  1  0
 15 16  2  0
 16 17  1  0
 17 18  1  0
M  END
