
     RDKit          3D

 23 25  0  0  0  0  0  0  0  0999 V2000
   -5.8240    1.8080   -0.9690 C   0  0  0  0  0  0  0  0  0  0  0  0
   -5.8450    0.6750    0.0520 C   0  0  1  0  0  0  0  0  0  0  0  0
   -7.3070    0.4660    0.4560 C   0  0  0  0  0  0  0  0  0  0  0  0
   -5.3590   -0.4780   -0.4940 O   0  0  0  0  0  0  0  0  0  0  0  0
   -5.0860    1.1080    1.2640 C   0  0  0  0  0  0  0  0  0  0  0  0
   -3.7000    1.3790    1.0640 N   0  0  0  0  0  0  0  0  0  0  0  0
   -2.7530    0.3950    0.7430 C   0  0  0  0  0  0  0  0  0  0  0  0
   -1.4210    0.7740    0.5420 C   0  0  0  0  0  0  0  0  0  0  0  0
   -0.5080   -0.2010    0.2440 C   0  0  0  0  0  0  0  0  0  0  0  0
    0.7210    0.1670    0.0600 N   0  0  0  0  0  0  0  0  0  0  0  0
    1.8090   -0.7200   -0.2590 C   0  0  2  0  0  0  0  0  0  0  0  0
    2.2820   -1.5010    0.9460 C   0  0  0  0  0  0  0  0  0  0  0  0
    2.8500   -2.8130    0.4300 C   0  0  0  0  0  0  0  0  0  0  0  0
    4.0190   -2.3480   -0.9090 S   0  0  0  0  0  0  0  0  0  0  0  0
    4.2790   -0.5550   -0.7140 C   0  0  1  0  0  0  0  0  0  0  0  0
    5.2410   -0.0650   -1.6510 N   0  0  0  0  0  0  0  0  0  0  0  0
    6.1350    0.9290   -1.1450 C   0  0  1  0  0  0  0  0  0  0  0  0
    5.9780    1.6400    0.1110 C   0  0  0  0  0  0  0  0  0  0  0  0
    6.9410    0.4570    0.0680 C   0  0  0  0  0  0  0  0  0  0  0  0
    2.9210    0.0970   -0.8900 C   0  0  0  0  0  0  0  0  0  0  0  0
   -0.9030   -1.4750    0.1530 N   0  0  0  0  0  0  0  0  0  0  0  0
   -2.1730   -1.8680    0.3410 C   0  0  0  0  0  0  0  0  0  0  0  0
   -3.0560   -0.9020    0.6320 N   0  0  0  0  0  0  0  0  0  0  0  0
  2  1  1  6
  2  3  1  0
  2  4  1  0
  2  5  1  0
  5  6  1  0
  6  7  1  0
  7  8  2  0
  7 23  1  0
  8  9  1  0
  9 10  2  3
  9 21  1  0
 11 10  1  1
 11 12  1  0
 11 20  1  0
 12 13  1  0
 13 14  1  0
 14 15  1  0
 15 16  1  6
 15 20  1  0
 17 16  1  1
 17 18  1  0
 17 19  1  0
 18 19  1  0
 21 22  1  0
 22 23  2  0
M  CHG  1  16   1
M  END
