
     RDKit          3D

 23 25  0  0  0  0  0  0  0  0999 V2000
   -3.6540   -2.4080   -0.6730 C   0  0  0  0  0  0  0  0  0  0  0  0
   -2.5500   -1.8590    0.1710 C   0  0  0  0  0  0  0  0  0  0  0  0
   -2.8220   -0.3910    0.5130 C   0  0  2  0  0  0  0  0  0  0  0  0
   -4.1610   -0.4120    1.2760 C   0  0  0  0  0  0  0  0  0  0  0  0
   -2.9310    0.3300   -0.7070 N   0  0  0  0  0  0  0  0  0  0  0  0
   -1.8220    1.0690   -1.1820 C   0  0  1  0  0  0  0  0  0  0  0  0
   -1.9300    2.5450   -0.7970 C   0  0  0  0  0  0  0  0  0  0  0  0
   -1.9820    2.7810    0.6430 C   0  0  0  0  0  0  0  0  0  0  0  0
   -0.8360    3.1940    1.3440 N   0  0  0  0  0  0  0  0  0  0  0  0
   -3.0450    2.6220    1.2790 O   0  0  0  0  0  0  0  0  0  0  0  0
   -0.4740    0.5430   -0.8940 C   0  0  0  0  0  0  0  0  0  0  0  0
   -0.0250    0.2080    0.3210 N   0  0  0  0  0  0  0  0  0  0  0  0
    1.1980   -0.2630    0.5280 C   0  0  0  0  0  0  0  0  0  0  0  0
    2.1110   -0.4450   -0.5090 C   0  0  0  0  0  0  0  0  0  0  0  0
    1.6370   -0.0970   -1.7550 C   0  0  0  0  0  0  0  0  0  0  0  0
    0.4170    0.3670   -1.9190 N   0  0  0  0  0  0  0  0  0  0  0  0
    2.7740   -0.3160   -3.1160 S   0  0  0  0  0  0  0  0  0  0  0  0
    4.4090   -0.4110   -2.4100 C   0  0  0  0  0  0  0  0  0  0  0  0
    4.5050   -0.7020   -1.1320 C   0  0  0  0  0  0  0  0  0  0  0  0
    5.7250   -0.8260   -0.3700 N   0  0  0  0  0  0  0  0  0  0  0  0
    5.4090   -0.6300    1.0320 C   0  0  0  0  0  0  0  0  0  0  0  0
    3.9420   -0.2040    1.0470 C   0  0  0  0  0  0  0  0  0  0  0  0
    3.4300   -0.9670   -0.1870 C   0  0  1  0  0  0  0  0  0  0  0  0
  1  2  1  0
  2  3  1  0
  3  4  1  6
  3  5  1  0
  5  6  1  0
  6  7  1  1
  6 11  1  0
  7  8  1  0
  8  9  1  0
  8 10  2  0
 11 12  2  0
 11 16  1  0
 12 13  1  0
 13 14  2  0
 14 15  1  0
 14 23  1  0
 15 16  2  0
 15 17  1  0
 17 18  1  0
 18 19  2  0
 19 20  1  0
 19 23  1  0
 20 21  1  0
 21 22  1  0
 23 22  1  1
M  CHG  1   5   1
M  END
