
     RDKit          3D

 12 12  0  0  0  0  0  0  0  0999 V2000
    1.4340   -2.2480   -0.2080 O   0  0  0  0  0  0  0  0  0  0  0  0
    1.7710   -1.0670   -0.3530 C   0  0  0  0  0  0  0  0  0  0  0  0
    3.1050   -0.8840   -0.8140 O   0  0  0  0  0  0  0  0  0  0  0  0
    0.9940    0.1280   -0.1180 C   0  0  0  0  0  0  0  0  0  0  0  0
    1.6960    1.7840   -0.3620 S   0  0  0  0  0  0  0  0  0  0  0  0
    0.1940    2.6340    0.1390 C   0  0  0  0  0  0  0  0  0  0  0  0
   -0.0330    4.2840    0.2070 S   0  0  0  0  0  0  0  0  0  0  0  0
   -0.6820    1.6390    0.4370 N   0  0  0  0  0  0  0  0  0  0  0  0
   -0.2660    0.4050    0.3020 C   0  0  0  0  0  0  0  0  0  0  0  0
   -1.2540   -0.7370    0.5820 C   0  0  1  0  0  0  0  0  0  0  0  0
   -2.5100   -0.3500    0.0700 O   0  0  0  0  0  0  0  0  0  0  0  0
   -0.8970   -1.8880   -0.0790 O   0  0  0  0  0  0  0  0  0  0  0  0
  1  2  2  0
  2  3  1  0
  2  4  1  0
  4  5  1  0
  4  9  2  0
  5  6  1  0
  6  7  2  0
  6  8  1  0
  8  9  1  0
  9 10  1  0
 10 11  1  6
 10 12  1  0
M  END
