
     RDKit          3D

 23 25  0  0  0  0  0  0  0  0999 V2000
   -4.1550    2.1560   -1.0620 C   0  0  0  0  0  0  0  0  0  0  0  0
   -4.3360    0.6420   -0.9930 C   0  0  2  0  0  0  0  0  0  0  0  0
   -5.0360    0.3200    0.2720 C   0  0  0  0  0  0  0  0  0  0  0  0
   -4.1480    0.2210    1.4780 C   0  0  0  0  0  0  0  0  0  0  0  0
   -2.9590   -0.6400    1.1440 C   0  0  1  0  0  0  0  0  0  0  0  0
   -3.3890   -2.0710    1.1230 C   0  0  0  0  0  0  0  0  0  0  0  0
   -4.2270   -2.3770    0.0620 O   0  0  0  0  0  0  0  0  0  0  0  0
   -2.2420   -0.2030   -0.0080 N   0  0  1  0  0  0  0  0  0  0  0  0
   -1.1230   -1.0690   -0.2510 C   0  0  0  0  0  0  0  0  0  0  0  0
   -0.4310   -0.7110   -1.5510 C   0  0  0  0  0  0  0  0  0  0  0  0
    0.9650   -1.8500   -1.7740 S   0  0  0  0  0  0  0  0  0  0  0  0
    2.1620   -1.5260   -0.4910 C   0  0  0  0  0  0  0  0  0  0  0  0
    2.1620   -2.1230    0.6970 N   0  0  0  0  0  0  0  0  0  0  0  0
    3.0900   -1.8370    1.6230 C   0  0  0  0  0  0  0  0  0  0  0  0
    4.0580   -0.9300    1.3750 N   0  0  0  0  0  0  0  0  0  0  0  0
    4.1160   -0.2930    0.1990 C   0  0  0  0  0  0  0  0  0  0  0  0
    5.1100    0.6570   -0.0950 N   0  0  0  0  0  0  0  0  0  0  0  0
    6.1220    0.9910    0.8710 C   0  0  1  0  0  0  0  0  0  0  0  0
    7.1660    2.0170    0.5150 C   0  0  0  0  0  0  0  0  0  0  0  0
    6.0960    2.3310    1.5230 C   0  0  0  0  0  0  0  0  0  0  0  0
    3.1640   -0.5880   -0.7480 C   0  0  0  0  0  0  0  0  0  0  0  0
    3.2120    0.0790   -2.0000 N   0  0  0  0  0  0  0  0  0  0  0  0
   -3.0120   -0.0160   -1.1890 C   0  0  0  0  0  0  0  0  0  0  0  0
  2  1  1  1
  2  3  1  0
  2 23  1  0
  3  4  1  0
  4  5  1  0
  5  6  1  6
  5  8  1  0
  6  7  1  0
  8  9  1  6
  8 23  1  0
  9 10  1  0
 10 11  1  0
 11 12  1  0
 12 13  2  0
 12 21  1  0
 13 14  1  0
 14 15  2  0
 15 16  1  0
 16 17  1  0
 16 21  2  0
 18 17  1  6
 18 19  1  0
 18 20  1  0
 19 20  1  0
 21 22  1  0
M  CHG  1   8   1
M  END
