
     RDKit          3D

 12 11  0  0  0  0  0  0  0  0999 V2000
   -1.4500    1.1560   -0.1950 N   0  0  0  0  0  0  0  0  0  0  0  0
   -2.4450    0.1620   -0.2420 C   0  0  0  0  0  0  0  0  0  0  0  0
   -3.6340    0.5570   -0.4750 O   0  0  0  0  0  0  0  0  0  0  0  0
   -2.2220   -1.2500   -0.0480 C   0  0  0  0  0  0  0  0  0  0  0  0
   -3.2640   -2.1560   -0.1110 O   0  0  0  0  0  0  0  0  0  0  0  0
   -0.9980   -1.7130    0.1970 C   0  0  0  0  0  0  0  0  0  0  0  0
    0.4260   -0.6440    0.3010 S   0  0  0  0  0  0  0  0  0  0  0  0
    1.2340   -0.6070   -1.2770 C   0  0  0  0  0  0  0  0  0  0  0  0
    0.7900   -1.2440   -2.2000 O   0  0  0  0  0  0  0  0  0  0  0  0
    2.7010    0.3680   -1.5030 S   0  0  0  0  0  0  0  0  0  0  0  0
    3.1230    1.2240    0.0370 C   0  0  0  0  0  0  0  0  0  0  0  0
    2.1600    2.1760    0.3530 O   0  0  0  0  0  0  0  0  0  0  0  0
  1  2  1  0
  2  3  2  0
  2  4  1  0
  4  5  1  0
  4  6  2  3
  6  7  1  0
  7  8  1  0
  8  9  2  0
  8 10  1  0
 10 11  1  0
 11 12  1  0
M  END
