
     RDKit          3D

 13 13  0  0  0  0  0  0  0  0999 V2000
   -3.6750    1.2970   -0.3230 N   0  0  0  0  0  0  0  0  0  0  0  0
   -2.4770    0.6250    0.0110 C   0  0  0  0  0  0  0  0  0  0  0  0
   -2.1530    0.3340    1.1930 O   0  0  0  0  0  0  0  0  0  0  0  0
   -1.6030    0.2620   -0.9970 O   0  0  0  0  0  0  0  0  0  0  0  0
   -0.4030   -0.4110   -0.6590 C   0  0  0  0  0  0  0  0  0  0  0  0
   -0.4380   -1.8010   -0.6160 C   0  0  0  0  0  0  0  0  0  0  0  0
    1.2650   -2.2470   -0.1570 S   0  0  0  0  0  0  0  0  0  0  0  0
    1.8510   -0.5440   -0.0680 C   0  0  0  0  0  0  0  0  0  0  0  0
    3.4880   -0.1320    0.3420 S   0  0  1  0  0  0  0  0  0  0  0  0
    3.7240   -0.2190    1.8130 O   0  0  0  0  0  0  0  0  0  0  0  0
    4.4790   -1.0680   -0.3280 O   0  0  0  0  0  0  0  0  0  0  0  0
    0.7540    0.1900   -0.3810 C   0  0  0  0  0  0  0  0  0  0  0  0
    0.9400    1.9910   -0.4000 Cl  0  0  0  0  0  0  0  0  0  0  0  0
  1  2  1  0
  2  3  2  0
  2  4  1  0
  4  5  1  0
  5  6  2  0
  5 12  1  0
  6  7  1  0
  7  8  1  0
  9  8  1  1
  8 12  2  0
  9 10  2  0
  9 11  2  0
 12 13  1  0
M  END
