
     RDKit          3D

 13 13  0  0  0  0  0  0  0  0999 V2000
    4.1920    0.9530   -0.9260 O   0  0  0  0  0  0  0  0  0  0  0  0
    2.9740    0.5770   -0.6520 C   0  0  0  0  0  0  0  0  0  0  0  0
    2.5060   -0.5370   -0.1270 N   0  0  0  0  0  0  0  0  0  0  0  0
    1.2180   -0.6610    0.0440 C   0  0  0  0  0  0  0  0  0  0  0  0
    0.3780    0.3230   -0.3050 C   0  0  0  0  0  0  0  0  0  0  0  0
   -1.0810    0.4350   -0.2220 C   0  0  0  0  0  0  0  0  0  0  0  0
   -1.6530    1.5300   -0.6320 C   0  0  0  0  0  0  0  0  0  0  0  0
   -0.6870    2.8300   -1.2650 Cl  0  0  0  0  0  0  0  0  0  0  0  0
   -2.0450   -0.8700    0.4060 S   0  0  2  0  0  0  0  0  0  0  0  0
   -1.4160   -2.2000    0.1160 O   0  0  0  0  0  0  0  0  0  0  0  0
   -3.4270   -0.7960   -0.2300 O   0  0  0  0  0  0  0  0  0  0  0  0
   -2.2240   -0.7160    2.0900 O   0  0  0  0  0  0  0  0  0  0  0  0
    1.4740    1.5600   -0.9400 S   0  0  0  0  0  0  0  0  0  0  0  0
  1  2  2  0
  2  3  1  0
  2 13  1  0
  3  4  1  0
  4  5  2  0
  5  6  1  0
  5 13  1  0
  6  7  2  3
  6  9  1  0
  7  8  1  0
  9 10  2  0
  9 11  2  0
  9 12  1  1
M  END
