
     RDKit          3D

 27 30  0  0  0  0  0  0  0  0999 V2000
    3.4300    1.4100   -1.8880 C   0  0  0  0  0  0  0  0  0  0  0  0
    4.0350    0.3680   -0.9850 C   0  0  0  0  0  0  0  0  0  0  0  0
    5.3370    0.4570   -0.5630 C   0  0  0  0  0  0  0  0  0  0  0  0
    5.5440   -0.6420    0.2300 C   0  0  0  0  0  0  0  0  0  0  0  0
    4.3720   -1.3530    0.2610 C   0  0  0  0  0  0  0  0  0  0  0  0
    3.4580   -0.7330   -0.4800 N   0  0  0  0  0  0  0  0  0  0  0  0
    2.0830   -1.1000   -0.7480 C   0  0  0  0  0  0  0  0  0  0  0  0
    1.1340   -0.5780    0.1690 N   0  0  0  0  0  0  0  0  0  0  0  0
    1.3030   -0.9520    1.5200 C   0  0  0  0  0  0  0  0  0  0  0  0
    0.1050   -0.7140    2.3590 C   0  0  0  0  0  0  0  0  0  0  0  0
    0.0270   -1.1850    3.5370 O   0  0  0  0  0  0  0  0  0  0  0  0
   -0.9540    0.0500    1.8230 N   0  0  0  0  0  0  0  0  0  0  0  0
   -1.2580   -0.1050    0.4210 C   0  0  2  0  0  0  0  0  0  0  0  0
   -1.5140    1.2360   -0.1420 C   0  0  0  0  0  0  0  0  0  0  0  0
   -2.5010    2.0320    0.4050 C   0  0  0  0  0  0  0  0  0  0  0  0
   -2.7560    3.2840   -0.0980 C   0  0  0  0  0  0  0  0  0  0  0  0
   -2.0580    3.7790   -1.1370 N   0  0  0  0  0  0  0  0  0  0  0  0
   -1.1010    3.0520   -1.6950 C   0  0  0  0  0  0  0  0  0  0  0  0
   -0.8190    1.7730   -1.2030 C   0  0  0  0  0  0  0  0  0  0  0  0
   -2.5330   -0.8990    0.3330 C   0  0  0  0  0  0  0  0  0  0  0  0
   -3.1110   -1.2310   -0.8750 C   0  0  0  0  0  0  0  0  0  0  0  0
   -4.2620   -1.9490   -0.9380 N   0  0  0  0  0  0  0  0  0  0  0  0
   -4.8740   -2.3590    0.1980 C   0  0  0  0  0  0  0  0  0  0  0  0
   -4.3050   -2.0320    1.4070 C   0  0  0  0  0  0  0  0  0  0  0  0
   -5.0580   -2.5390    2.9440 S   0  0  0  0  0  0  0  0  0  0  0  0
   -3.1820   -1.3310    1.4450 N   0  0  0  0  0  0  0  0  0  0  0  0
   -0.1840   -0.8800   -0.2930 C   0  0  0  0  0  0  0  0  0  0  0  0
  1  2  1  0
  2  3  2  0
  2  6  1  0
  3  4  1  0
  4  5  2  0
  5  6  1  0
  6  7  1  0
  7  8  1  0
  8  9  1  0
  8 27  1  0
  9 10  1  0
 10 11  2  0
 10 12  1  0
 12 13  1  0
 13 14  1  6
 13 20  1  0
 13 27  1  0
 14 15  2  0
 14 19  1  0
 15 16  1  0
 16 17  2  0
 17 18  1  0
 18 19  2  0
 20 21  2  0
 20 26  1  0
 21 22  1  0
 22 23  2  0
 23 24  1  0
 24 25  1  0
 24 26  2  0
M  CHG  1  17   1
M  END
