
     RDKit          3D

 27 30  0  0  0  0  0  0  0  0999 V2000
   -4.2430   -1.0700   -2.7380 C   0  0  0  0  0  0  0  0  0  0  0  0
   -4.8440   -1.4470   -1.6430 C   0  0  0  0  0  0  0  0  0  0  0  0
   -6.2070   -2.6200   -1.6080 S   0  0  0  0  0  0  0  0  0  0  0  0
   -6.8550   -2.0080    0.0020 C   0  0  0  0  0  0  0  0  0  0  0  0
   -5.6360   -1.3750    0.5580 C   0  0  0  0  0  0  0  0  0  0  0  0
   -4.6730   -1.1110   -0.2460 C   0  0  0  0  0  0  0  0  0  0  0  0
   -3.6060   -0.5110    0.5340 N   0  0  0  0  0  0  0  0  0  0  0  0
   -2.2170   -0.5490    0.2760 C   0  0  0  0  0  0  0  0  0  0  0  0
   -1.7740   -1.1650   -0.7280 O   0  0  0  0  0  0  0  0  0  0  0  0
   -1.3070    0.1530    1.2180 C   0  0  0  0  0  0  0  0  0  0  0  0
    0.0910    0.0070    0.7950 N   0  0  0  0  0  0  0  0  0  0  0  0
    0.9510   -0.9250    1.1150 N   0  0  0  0  0  0  0  0  0  0  0  0
    2.1420   -0.7190    0.5270 C   0  0  0  0  0  0  0  0  0  0  0  0
    3.3520   -1.5820    0.6690 C   0  0  0  0  0  0  0  0  0  0  0  0
    4.4440   -1.0780   -0.0910 N   0  0  0  0  0  0  0  0  0  0  0  0
    4.5370   -0.8560   -1.5390 C   0  0  0  0  0  0  0  0  0  0  0  0
    6.0190   -1.1410   -1.8040 C   0  0  0  0  0  0  0  0  0  0  0  0
    6.6550   -0.4290   -0.6310 C   0  0  0  0  0  0  0  0  0  0  0  0
    5.6930   -0.6840    0.4610 C   0  0  0  0  0  0  0  0  0  0  0  0
    6.0020   -0.5520    1.7420 C   0  0  0  0  0  0  0  0  0  0  0  0
    1.9890    0.4070   -0.1920 N   0  0  0  0  0  0  0  0  0  0  0  0
    0.7160    0.8650   -0.0310 C   0  0  0  0  0  0  0  0  0  0  0  0
    0.1020    2.0660   -0.6290 C   0  0  0  0  0  0  0  0  0  0  0  0
    0.2710    3.3010    0.2320 C   0  0  0  0  0  0  0  0  0  0  0  0
   -0.3720    4.4030   -0.4640 N   0  0  0  0  0  0  0  0  0  0  0  0
   -4.2510    0.1510    1.6820 C   0  0  0  0  0  0  0  0  0  0  0  0
   -5.2850   -0.9480    1.9720 C   0  0  0  0  0  0  0  0  0  0  0  0
  1  2  2  0
  2  3  1  0
  2  6  1  0
  3  4  1  0
  4  5  1  0
  5  6  2  0
  5 27  1  0
  6  7  1  0
  7  8  1  0
  7 26  1  0
  8  9  2  0
  8 10  1  0
 10 11  1  0
 11 12  1  0
 11 22  1  0
 12 13  2  0
 13 14  1  0
 13 21  1  0
 14 15  1  0
 15 16  1  0
 15 19  1  0
 16 17  1  0
 17 18  1  0
 18 19  1  0
 19 20  2  0
 21 22  2  0
 22 23  1  0
 23 24  1  0
 24 25  1  0
 26 27  1  0
M  CHG  1  25   1
M  END
