
     RDKit          3D

 27 30  0  0  0  0  0  0  0  0999 V2000
   -8.5320   -0.5940    2.9670 C   0  0  0  0  0  0  0  0  0  0  0  0
   -7.2490   -0.0840    2.3510 C   0  0  0  0  0  0  0  0  0  0  0  0
   -6.1350   -0.0960    3.2700 N   0  0  2  0  0  0  0  0  0  0  0  0
   -5.8060    1.2550    3.6880 C   0  0  0  0  0  0  0  0  0  0  0  0
   -4.7400    1.6410    2.7320 C   0  0  0  0  0  0  0  0  0  0  0  0
   -4.2150    0.5970    2.1200 C   0  0  0  0  0  0  0  0  0  0  0  0
   -3.1310    0.6400    1.1120 C   0  0  0  0  0  0  0  0  0  0  0  0
   -2.4720    1.3590    0.4810 N   0  0  0  0  0  0  0  0  0  0  0  0
   -1.5220    0.9870   -0.3190 N   0  0  0  0  0  0  0  0  0  0  0  0
   -1.1650   -0.0620   -0.5490 C   0  0  0  0  0  0  0  0  0  0  0  0
   -0.2630   -0.9450   -1.3070 N   0  0  0  0  0  0  0  0  0  0  0  0
    0.5770   -0.4150   -2.2940 C   0  0  0  0  0  0  0  0  0  0  0  0
    0.4980    0.8130   -2.5240 O   0  0  0  0  0  0  0  0  0  0  0  0
    1.5030   -1.2270   -3.0300 N   0  0  0  0  0  0  0  0  0  0  0  0
    2.3710   -0.7560   -4.0580 C   0  0  0  0  0  0  0  0  0  0  0  0
    3.3270    0.2930   -3.7160 C   0  0  0  0  0  0  0  0  0  0  0  0
    4.2890    0.0340   -2.7350 N   0  0  0  0  0  0  0  0  0  0  0  0
    5.2650    1.0830   -2.6050 C   0  0  0  0  0  0  0  0  0  0  0  0
    6.5720    0.6300   -1.9760 C   0  0  0  0  0  0  0  0  0  0  0  0
    6.2110   -0.0060   -0.6470 C   0  0  0  0  0  0  0  0  0  0  0  0
    6.7880    0.0370    0.5060 C   0  0  0  0  0  0  0  0  0  0  0  0
    5.9900   -0.7740    1.4550 C   0  0  0  0  0  0  0  0  0  0  0  0
    4.8640   -1.2750    0.6360 C   0  0  0  0  0  0  0  0  0  0  0  0
    5.0050   -0.8200   -0.5940 C   0  0  0  0  0  0  0  0  0  0  0  0
    4.2220   -0.9970   -1.8420 C   0  0  0  0  0  0  0  0  0  0  0  0
   -2.3850   -1.0260    0.5900 S   0  0  0  0  0  0  0  0  0  0  0  0
   -4.9520   -0.5970    2.6000 C   0  0  0  0  0  0  0  0  0  0  0  0
  1  2  1  0
  3  2  1  6
  3  4  1  0
  3 27  1  0
  4  5  1  0
  5  6  2  0
  6  7  1  0
  6 27  1  0
  7  8  2  0
  7 26  1  0
  8  9  1  0
  9 10  2  0
 10 11  1  0
 10 26  1  0
 11 12  1  0
 12 13  2  0
 12 14  1  0
 14 15  1  0
 15 16  1  0
 16 17  1  0
 17 18  1  0
 17 25  1  0
 18 19  1  0
 19 20  1  0
 20 21  2  0
 20 24  1  0
 21 22  1  0
 22 23  1  0
 23 24  2  0
 24 25  1  0
M  CHG  1   3   1
M  END
