
     RDKit          3D

 27 30  0  0  0  0  0  0  0  0999 V2000
   -2.3630    0.8640   -2.6100 C   0  0  0  0  0  0  0  0  0  0  0  0
   -2.3740   -0.1800   -1.6050 N   0  0  0  0  0  0  0  0  0  0  0  0
   -2.4290    0.0470   -0.2210 C   0  0  0  0  0  0  0  0  0  0  0  0
   -1.2210    0.1850    0.4850 C   0  0  0  0  0  0  0  0  0  0  0  0
   -0.0200    0.0890   -0.2280 N   0  0  0  0  0  0  0  0  0  0  0  0
    1.2590    0.2020    0.3250 C   0  0  0  0  0  0  0  0  0  0  0  0
    1.4680    0.4050    1.5330 O   0  0  0  0  0  0  0  0  0  0  0  0
    2.4920    0.0790   -0.5520 C   0  0  2  0  0  0  0  0  0  0  0  0
    2.4780   -1.2800   -1.1710 C   0  0  0  0  0  0  0  0  0  0  0  0
    3.3650   -2.1940   -0.3430 C   0  0  0  0  0  0  0  0  0  0  0  0
    4.7880   -1.6980   -0.5340 C   0  0  0  0  0  0  0  0  0  0  0  0
    4.8580   -0.3560   -0.0610 N   0  0  0  0  0  0  0  0  0  0  0  0
    6.1390    0.2300    0.0700 C   0  0  0  0  0  0  0  0  0  0  0  0
    7.3060   -0.1060   -0.1200 N   0  0  0  0  0  0  0  0  0  0  0  0
    8.3040    0.7160    0.1120 N   0  0  0  0  0  0  0  0  0  0  0  0
    8.2340    1.7700    0.4910 C   0  0  0  0  0  0  0  0  0  0  0  0
    6.3540    1.9410    0.6650 S   0  0  0  0  0  0  0  0  0  0  0  0
    3.6830    0.3930    0.2760 C   0  0  0  0  0  0  0  0  0  0  0  0
   -1.2510    0.4080    1.8450 C   0  0  0  0  0  0  0  0  0  0  0  0
   -2.5060    0.4870    2.4590 C   0  0  0  0  0  0  0  0  0  0  0  0
   -3.6950    0.3570    1.7940 C   0  0  0  0  0  0  0  0  0  0  0  0
   -4.9030    0.4440    2.4530 C   0  0  0  0  0  0  0  0  0  0  0  0
   -6.0890    0.3090    1.7600 C   0  0  0  0  0  0  0  0  0  0  0  0
   -6.0020    0.0850    0.3940 C   0  0  0  0  0  0  0  0  0  0  0  0
   -7.2670   -0.0630   -0.3720 C   0  0  0  0  0  0  0  0  0  0  0  0
   -4.8140    0.0080   -0.2040 N   0  0  0  0  0  0  0  0  0  0  0  0
   -3.6210    0.1320    0.4190 C   0  0  0  0  0  0  0  0  0  0  0  0
  1  2  1  0
  2  3  1  0
  3  4  2  0
  3 27  1  0
  4  5  1  0
  4 19  1  0
  5  6  1  0
  6  7  2  0
  8  6  1  1
  8  9  1  0
  8 18  1  0
  9 10  1  0
 10 11  1  0
 11 12  1  0
 12 13  1  0
 12 18  1  0
 13 14  2  0
 13 17  1  0
 14 15  1  0
 15 16  2  0
 16 17  1  0
 19 20  2  0
 20 21  1  0
 21 22  2  0
 21 27  1  0
 22 23  1  0
 23 24  2  0
 24 25  1  0
 24 26  1  0
 26 27  2  0
M  CHG  1  26   1
M  END
