
     RDKit          3D

 27 30  0  0  0  0  0  0  0  0999 V2000
    0.0740   -3.9640    0.5560 C   0  0  0  0  0  0  0  0  0  0  0  0
   -0.6150   -2.6520    0.3350 C   0  0  0  0  0  0  0  0  0  0  0  0
   -1.9110   -2.6790   -0.0900 C   0  0  0  0  0  0  0  0  0  0  0  0
   -2.5640   -1.4960   -0.2960 C   0  0  0  0  0  0  0  0  0  0  0  0
   -1.9960   -0.2460   -0.0990 C   0  0  0  0  0  0  0  0  0  0  0  0
   -2.7290    0.9570   -0.1620 N   0  0  0  0  0  0  0  0  0  0  0  0
   -4.0790    0.9410   -0.5980 C   0  0  0  0  0  0  0  0  0  0  0  0
   -5.0310    0.2250   -0.1440 N   0  0  0  0  0  0  0  0  0  0  0  0
   -6.3140    0.3490   -0.7150 C   0  0  0  0  0  0  0  0  0  0  0  0
   -6.5330    1.7340   -1.2850 C   0  0  0  0  0  0  0  0  0  0  0  0
   -4.7980    1.9920   -1.8730 S   0  0  0  0  0  0  0  0  0  0  0  0
   -0.6930   -0.2360    0.3180 C   0  0  0  0  0  0  0  0  0  0  0  0
    0.1670    0.9530    0.3490 C   0  0  0  0  0  0  0  0  0  0  0  0
    1.3130    0.8860    0.9920 N   0  0  0  0  0  0  0  0  0  0  0  0
    2.2460    1.8790    1.1500 N   0  0  0  0  0  0  0  0  0  0  0  0
    3.4540    1.6570    1.8690 C   0  0  0  0  0  0  0  0  0  0  0  0
    4.6060    1.1730    1.0710 C   0  0  0  0  0  0  0  0  0  0  0  0
    4.3750   -0.1200    0.3920 C   0  0  0  0  0  0  0  0  0  0  0  0
    4.4250   -0.2770   -0.8850 N   0  0  0  0  0  0  0  0  0  0  0  0
    4.1550   -1.6530   -1.2420 C   0  0  0  0  0  0  0  0  0  0  0  0
    4.1320   -2.4320    0.0610 C   0  0  0  0  0  0  0  0  0  0  0  0
    4.0710   -1.3530    1.0230 N   0  0  0  0  0  0  0  0  0  0  0  0
    1.9410    3.1530    0.5530 C   0  0  0  0  0  0  0  0  0  0  0  0
    2.7620    4.0250    0.3130 O   0  0  0  0  0  0  0  0  0  0  0  0
    0.4800    3.4030    0.2060 C   0  0  0  0  0  0  0  0  0  0  0  0
   -0.0120    2.1420   -0.4850 C   0  0  0  0  0  0  0  0  0  0  0  0
   -0.0060   -1.4540    0.5380 C   0  0  0  0  0  0  0  0  0  0  0  0
  1  2  1  0
  2  3  2  0
  2 27  1  0
  3  4  1  0
  4  5  2  0
  5  6  1  0
  5 12  1  0
  6  7  1  0
  7  8  2  0
  7 11  1  0
  8  9  1  0
  9 10  1  0
 10 11  1  0
 12 13  1  0
 12 27  2  0
 13 14  2  0
 13 26  1  0
 14 15  1  0
 15 16  1  0
 15 23  1  0
 16 17  1  0
 17 18  1  0
 18 19  2  0
 18 22  1  0
 19 20  1  0
 20 21  1  0
 21 22  1  0
 23 24  2  0
 23 25  1  0
 25 26  1  0
M  CHG  1   8   1
M  END
