
     RDKit          3D

 27 30  0  0  0  0  0  0  0  0999 V2000
   -6.7040   -1.1440   -1.3950 C   0  0  0  0  0  0  0  0  0  0  0  0
   -6.4900   -0.3430   -0.1010 C   0  0  0  0  0  0  0  0  0  0  0  0
   -5.2570    0.0490    0.2350 C   0  0  0  0  0  0  0  0  0  0  0  0
   -3.9060   -0.0420   -0.2970 C   0  0  0  0  0  0  0  0  0  0  0  0
   -3.6460   -0.5020   -1.5360 C   0  0  0  0  0  0  0  0  0  0  0  0
   -2.3060   -0.5980   -1.9800 C   0  0  0  0  0  0  0  0  0  0  0  0
   -1.3630   -0.2230   -1.1380 N   0  0  0  0  0  0  0  0  0  0  0  0
   -1.5700    0.2430    0.1050 C   0  0  0  0  0  0  0  0  0  0  0  0
   -0.5270    0.6350    0.9840 N   0  0  0  0  0  0  0  0  0  0  0  0
    0.8520    0.6120    0.7350 C   0  0  0  0  0  0  0  0  0  0  0  0
    1.7100    1.0470    1.7550 C   0  0  0  0  0  0  0  0  0  0  0  0
    3.0750    1.0620    1.6120 C   0  0  0  0  0  0  0  0  0  0  0  0
    3.6760    0.6410    0.4310 C   0  0  0  0  0  0  0  0  0  0  0  0
    5.0710    0.6260    0.2570 N   0  0  0  0  0  0  0  0  0  0  0  0
    5.9490    0.5340    1.4040 C   0  0  0  0  0  0  0  0  0  0  0  0
    6.9220   -0.6180    1.1260 C   0  0  0  0  0  0  0  0  0  0  0  0
    7.6390   -0.3660   -0.0860 N   0  0  0  0  0  0  0  0  0  0  0  0
    6.6940   -0.4060   -1.2020 C   0  0  0  0  0  0  0  0  0  0  0  0
    5.6940    0.7220   -1.0380 C   0  0  0  0  0  0  0  0  0  0  0  0
    2.8500    0.2140   -0.5730 C   0  0  0  0  0  0  0  0  0  0  0  0
    1.4550    0.1980   -0.4250 C   0  0  0  0  0  0  0  0  0  0  0  0
   -2.8560    0.3170    0.4870 N   0  0  0  0  0  0  0  0  0  0  0  0
   -5.5640    0.8720    1.8120 S   0  0  0  0  0  0  0  0  0  0  0  0
   -7.2890    0.6030    1.8410 C   0  0  0  0  0  0  0  0  0  0  0  0
   -8.1310    0.9400    2.7000 O   0  0  0  0  0  0  0  0  0  0  0  0
   -7.5200   -0.0890    0.6620 N   0  0  0  0  0  0  0  0  0  0  0  0
   -8.9410   -0.4840    0.3530 C   0  0  0  0  0  0  0  0  0  0  0  0
  1  2  1  0
  2  3  2  0
  2 26  1  0
  3  4  1  0
  3 23  1  0
  4  5  2  0
  4 22  1  0
  5  6  1  0
  6  7  2  0
  7  8  1  0
  8  9  1  0
  8 22  2  0
  9 10  1  0
 10 11  2  0
 10 21  1  0
 11 12  1  0
 12 13  2  0
 13 14  1  0
 13 20  1  0
 14 15  1  0
 14 19  1  0
 15 16  1  0
 16 17  1  0
 17 18  1  0
 18 19  1  0
 20 21  2  0
 23 24  1  0
 24 25  2  0
 24 26  1  0
 26 27  1  0
M  CHG  1  17   1
M  END
