
     RDKit          3D

 27 30  0  0  0  0  0  0  0  0999 V2000
   -4.8940   -1.6020   -2.0580 O   0  0  0  0  0  0  0  0  0  0  0  0
   -4.9690   -1.5090   -0.7790 C   0  0  0  0  0  0  0  0  0  0  0  0
   -3.9970   -2.3170   -0.0390 C   0  0  0  0  0  0  0  0  0  0  0  0
   -3.4230   -1.4380    1.4290 S   0  0  0  0  0  0  0  0  0  0  0  0
   -2.4030   -0.0860    0.9080 C   0  0  0  0  0  0  0  0  0  0  0  0
   -2.9430    1.1060    0.6520 N   0  0  0  0  0  0  0  0  0  0  0  0
   -2.1720    2.1440    0.2390 C   0  0  0  0  0  0  0  0  0  0  0  0
   -0.8550    1.9260    0.0980 N   0  0  0  0  0  0  0  0  0  0  0  0
   -0.2590    0.7490    0.3420 C   0  0  0  0  0  0  0  0  0  0  0  0
    1.1040    0.4640    0.2040 N   0  0  0  0  0  0  0  0  0  0  0  0
    1.6600   -0.8130    0.6210 C   0  0  0  0  0  0  0  0  0  0  0  0
    2.6260   -1.2610   -0.4500 C   0  0  0  0  0  0  0  0  0  0  0  0
    3.8220   -0.3430   -0.5610 C   0  0  2  0  0  0  0  0  0  0  0  0
    4.9030   -0.9380    0.1850 N   0  0  0  0  0  0  0  0  0  0  0  0
    6.1970   -0.3030    0.2170 C   0  0  0  0  0  0  0  0  0  0  0  0
    6.6680    0.4550    1.1700 C   0  0  0  0  0  0  0  0  0  0  0  0
    8.0310    0.9130    0.8260 C   0  0  0  0  0  0  0  0  0  0  0  0
    8.2610    0.2840   -0.4980 C   0  0  0  0  0  0  0  0  0  0  0  0
    7.1940   -0.4170   -0.8400 C   0  0  0  0  0  0  0  0  0  0  0  0
    3.4620    1.0410   -0.0740 C   0  0  0  0  0  0  0  0  0  0  0  0
    2.0170    1.4130   -0.3610 C   0  0  0  0  0  0  0  0  0  0  0  0
   -1.0730   -0.2690    0.7570 N   0  0  0  0  0  0  0  0  0  0  0  0
   -5.9710   -0.6520   -0.1920 C   0  0  0  0  0  0  0  0  0  0  0  0
   -6.2290   -0.4240    1.0740 C   0  0  0  0  0  0  0  0  0  0  0  0
   -7.3720    0.5510    1.1710 C   0  0  0  0  0  0  0  0  0  0  0  0
   -8.0720    0.2300   -0.0820 N   0  0  0  0  0  0  0  0  0  0  0  0
   -6.9490    0.1730   -0.9940 C   0  0  0  0  0  0  0  0  0  0  0  0
  1  2  2  0
  2  3  1  0
  2 23  1  0
  3  4  1  0
  4  5  1  0
  5  6  2  0
  5 22  1  0
  6  7  1  0
  7  8  2  0
  8  9  1  0
  9 10  1  0
  9 22  2  0
 10 11  1  0
 10 21  1  0
 11 12  1  0
 12 13  1  0
 13 14  1  1
 13 20  1  0
 14 15  1  0
 15 16  2  0
 15 19  1  0
 16 17  1  0
 17 18  1  0
 18 19  2  0
 20 21  1  0
 23 24  2  0
 23 27  1  0
 24 25  1  0
 25 26  1  0
 26 27  1  0
M  CHG  1  26   1
M  END
