
     RDKit          3D

 27 29  0  0  0  0  0  0  0  0999 V2000
   -5.0280   -2.0990    0.3680 C   0  0  0  0  0  0  0  0  0  0  0  0
   -4.2340   -3.3520    0.2270 C   0  0  0  0  0  0  0  0  0  0  0  0
   -3.0810   -3.1730   -0.7380 C   0  0  0  0  0  0  0  0  0  0  0  0
   -2.1490   -2.0980   -0.2720 C   0  0  0  0  0  0  0  0  0  0  0  0
   -0.9080   -2.4170   -0.0370 C   0  0  0  0  0  0  0  0  0  0  0  0
   -0.5640   -3.8590   -0.2690 C   0  0  0  0  0  0  0  0  0  0  0  0
    0.2060   -1.6570    0.4050 N   0  0  0  0  0  0  0  0  0  0  0  0
    0.4320   -0.4060    0.2320 C   0  0  0  0  0  0  0  0  0  0  0  0
    1.6050    0.1220    0.7630 N   0  0  0  0  0  0  0  0  0  0  0  0
    2.7360    0.3830    0.3280 C   0  0  0  0  0  0  0  0  0  0  0  0
    3.6570    0.9670    1.3810 C   0  0  1  0  0  0  0  0  0  0  0  0
    4.3100   -0.1760    2.0850 C   0  0  0  0  0  0  0  0  0  0  0  0
    4.6510    1.9010    0.7370 C   0  0  0  0  0  0  0  0  0  0  0  0
    5.7160    1.2720    0.0410 N   0  0  0  0  0  0  0  0  0  0  0  0
    5.4480    0.7180   -1.2320 C   0  0  0  0  0  0  0  0  0  0  0  0
    4.0790    0.9680   -1.7970 C   0  0  0  0  0  0  0  0  0  0  0  0
    3.1330    0.1650   -1.0150 N   0  0  0  0  0  0  0  0  0  0  0  0
    2.5210   -0.9850   -1.6400 C   0  0  0  0  0  0  0  0  0  0  0  0
   -0.5780    0.8130   -0.6070 S   0  0  0  0  0  0  0  0  0  0  0  0
   -2.2820    0.3760   -0.2480 C   0  0  0  0  0  0  0  0  0  0  0  0
   -3.1070    1.5110   -0.0760 N   0  0  0  0  0  0  0  0  0  0  0  0
   -4.0300    1.5920    1.0210 C   0  0  0  0  0  0  0  0  0  0  0  0
   -4.0970    3.0240    1.5360 C   0  0  0  0  0  0  0  0  0  0  0  0
   -4.2790    3.8910    0.4610 O   0  0  0  0  0  0  0  0  0  0  0  0
   -3.1170    3.9220   -0.3060 C   0  0  0  0  0  0  0  0  0  0  0  0
   -3.0040    2.5940   -1.0240 C   0  0  0  0  0  0  0  0  0  0  0  0
   -2.7840   -0.8060   -0.1410 N   0  0  0  0  0  0  0  0  0  0  0  0
  1  2  1  0
  2  3  1  0
  3  4  1  0
  4  5  2  0
  4 27  1  0
  5  6  1  0
  5  7  1  0
  7  8  2  0
  8  9  1  0
  8 19  1  0
  9 10  2  3
 10 11  1  0
 10 17  1  0
 11 12  1  6
 11 13  1  0
 13 14  1  0
 14 15  1  0
 15 16  1  0
 16 17  1  0
 17 18  1  0
 19 20  1  0
 20 21  1  0
 20 27  2  0
 21 22  1  0
 21 26  1  0
 22 23  1  0
 23 24  1  0
 24 25  1  0
 25 26  1  0
M  CHG  1  14   1
M  END
