
     RDKit          3D

 27 30  0  0  0  0  0  0  0  0999 V2000
   -0.0490    2.3930    2.4800 O   0  0  0  0  0  0  0  0  0  0  0  0
   -0.0020    2.0750    1.2740 C   0  0  0  0  0  0  0  0  0  0  0  0
    1.3080    1.7130    0.6830 C   0  0  0  0  0  0  0  0  0  0  0  0
    1.3840   -0.0500    0.2660 S   0  0  0  0  0  0  0  0  0  0  0  0
    2.9940   -0.3960   -0.4200 C   0  0  0  0  0  0  0  0  0  0  0  0
    3.3500   -0.2680   -1.7060 N   0  0  0  0  0  0  0  0  0  0  0  0
    4.6130   -0.5960   -1.8770 N   0  0  0  0  0  0  0  0  0  0  0  0
    5.0600   -0.9360   -0.6800 C   0  0  0  0  0  0  0  0  0  0  0  0
    6.4470   -1.3910   -0.4070 C   0  0  0  0  0  0  0  0  0  0  0  0
    7.4050   -1.5090   -1.3000 C   0  0  0  0  0  0  0  0  0  0  0  0
    8.6300   -1.9870   -0.6420 C   0  0  0  0  0  0  0  0  0  0  0  0
    8.2480   -2.1330    0.7700 C   0  0  0  0  0  0  0  0  0  0  0  0
    6.9860   -1.7850    0.8840 C   0  0  0  0  0  0  0  0  0  0  0  0
    4.0940   -0.8240    0.2310 N   0  0  0  0  0  0  0  0  0  0  0  0
   -1.1920    2.0680    0.5120 N   0  0  0  0  0  0  0  0  0  0  0  0
   -2.4540    2.4560    1.0940 C   0  0  0  0  0  0  0  0  0  0  0  0
   -3.5610    1.4820    0.7090 C   0  0  0  0  0  0  0  0  0  0  0  0
   -3.4920    1.1390   -0.7210 C   0  0  0  0  0  0  0  0  0  0  0  0
   -4.2880    0.2860   -1.2170 N   0  0  0  0  0  0  0  0  0  0  0  0
   -5.3030   -0.4360   -0.5520 C   0  0  0  0  0  0  0  0  0  0  0  0
   -5.1990   -1.8070   -0.3950 C   0  0  0  0  0  0  0  0  0  0  0  0
   -6.1830   -2.5160    0.2460 C   0  0  0  0  0  0  0  0  0  0  0  0
   -7.2840   -1.8700    0.7420 C   0  0  0  0  0  0  0  0  0  0  0  0
   -7.3760   -0.5410    0.5860 N   0  0  0  0  0  0  0  0  0  0  0  0
   -6.4280    0.1680   -0.0370 C   0  0  0  0  0  0  0  0  0  0  0  0
   -2.4800    1.8070   -1.5700 C   0  0  0  0  0  0  0  0  0  0  0  0
   -1.1480    1.6470   -0.8630 C   0  0  0  0  0  0  0  0  0  0  0  0
  1  2  2  0
  2  3  1  0
  2 15  1  0
  3  4  1  0
  4  5  1  0
  5  6  2  0
  5 14  1  0
  6  7  1  0
  7  8  2  0
  8  9  1  0
  8 14  1  0
  9 10  2  0
  9 13  1  0
 10 11  1  0
 11 12  1  0
 12 13  2  0
 15 16  1  0
 15 27  1  0
 16 17  1  0
 17 18  1  0
 18 19  2  3
 18 26  1  0
 19 20  1  0
 20 21  2  0
 20 25  1  0
 21 22  1  0
 22 23  2  0
 23 24  1  0
 24 25  2  0
 26 27  1  0
M  CHG  1  24   1
M  END
