
     RDKit          3D

 40 42  0  0  0  0  0  0  0  0999 V2000
   -2.0130    1.0220    0.9100 O   0  0  0  0  0  0  0  0  0  0  0  0
   -1.9930    0.7200   -0.2950 C   0  0  0  0  0  0  0  0  0  0  0  0
   -2.8450    1.1890   -1.3690 C   0  0  0  0  0  0  0  0  0  0  0  0
   -3.8970    2.1830   -1.0600 C   0  0  0  0  0  0  0  0  0  0  0  0
   -4.1240    2.6790    0.0970 C   0  0  0  0  0  0  0  0  0  0  0  0
   -5.1970    3.6770    0.4030 C   0  0  0  0  0  0  0  0  0  0  0  0
   -5.5400    4.2970    1.4960 C   0  0  0  0  0  0  0  0  0  0  0  0
   -6.5770    5.0410    1.0100 N   0  0  0  0  0  0  0  0  0  0  0  0
   -6.5250    4.3000   -0.5150 S   0  0  0  0  0  0  0  0  0  0  0  0
   -7.7110    3.3110   -0.6450 O   0  0  0  0  0  0  0  0  0  0  0  0
   -4.6900    2.6290   -2.2760 C   0  0  2  0  0  0  0  0  0  0  0  0
   -4.8110    3.9700   -2.3780 F   0  0  0  0  0  0  0  0  0  0  0  0
   -5.8360    1.8980   -2.3650 F   0  0  0  0  0  0  0  0  0  0  0  0
   -3.9540    2.2520   -3.4390 F   0  0  0  0  0  0  0  0  0  0  0  0
   -0.9340   -0.2520   -0.6060 N   0  0  0  0  0  0  0  0  0  0  0  0
   -0.0570   -0.7580    0.4050 C   0  0  1  0  0  0  0  0  0  0  0  0
   -0.2470   -2.2530    0.5480 C   0  0  0  0  0  0  0  0  0  0  0  0
   -1.9210   -2.6200    1.0050 S   0  0  2  0  0  0  0  0  0  0  0  0
   -2.8260   -2.0680   -0.0600 O   0  0  0  0  0  0  0  0  0  0  0  0
   -2.2020   -1.9600    2.3310 O   0  0  0  0  0  0  0  0  0  0  0  0
   -2.1280   -4.3460    1.1680 C   0  0  0  0  0  0  0  0  0  0  0  0
   -1.9260   -5.0010    2.3600 C   0  0  0  0  0  0  0  0  0  0  0  0
   -2.0930   -6.3680    2.4720 C   0  0  0  0  0  0  0  0  0  0  0  0
   -2.4730   -7.0910    1.3590 C   0  0  0  0  0  0  0  0  0  0  0  0
   -2.6820   -6.4540    0.1500 C   0  0  0  0  0  0  0  0  0  0  0  0
   -3.0530   -7.1450   -0.9430 F   0  0  0  0  0  0  0  0  0  0  0  0
   -2.5050   -5.0930    0.0780 C   0  0  0  0  0  0  0  0  0  0  0  0
    1.3810   -0.5000    0.1130 C   0  0  0  0  0  0  0  0  0  0  0  0
    2.1990   -0.0410    1.1280 C   0  0  0  0  0  0  0  0  0  0  0  0
    3.5390    0.2140    0.9090 C   0  0  0  0  0  0  0  0  0  0  0  0
    4.1000    0.0140   -0.3440 C   0  0  0  0  0  0  0  0  0  0  0  0
    5.5420    0.2910   -0.5640 C   0  0  0  0  0  0  0  0  0  0  0  0
    5.7740    1.7360   -0.9930 C   0  0  0  0  0  0  0  0  0  0  0  0
    7.2320    1.9250   -1.1880 C   0  0  0  0  0  0  0  0  0  0  0  0
    7.9150    2.8110   -0.4880 C   0  0  0  0  0  0  0  0  0  0  0  0
    7.2480    3.6530    0.5240 C   0  0  2  0  0  0  0  0  0  0  0  0
    6.3480    4.5330   -0.0200 F   0  0  0  0  0  0  0  0  0  0  0  0
    8.2010    4.3790    1.2150 F   0  0  0  0  0  0  0  0  0  0  0  0
    3.2870   -0.4430   -1.3540 C   0  0  0  0  0  0  0  0  0  0  0  0
    1.9300   -0.6980   -1.1220 C   0  0  0  0  0  0  0  0  0  0  0  0
  1  2  2  0
  2  3  1  0
  2 15  1  0
  3  4  1  0
  4  5  2  3
  4 11  1  0
  5  6  1  0
  6  7  2  0
  6  9  1  0
  7  8  1  0
  9  8  1  1
  9 10  2  0
 11 12  1  1
 11 13  1  0
 11 14  1  0
 15 16  1  0
 16 17  1  6
 16 28  1  0
 18 17  1  6
 18 19  2  0
 18 20  2  0
 18 21  1  0
 21 22  2  0
 21 27  1  0
 22 23  1  0
 23 24  2  0
 24 25  1  0
 25 26  1  0
 25 27  2  0
 28 29  2  0
 28 40  1  0
 29 30  1  0
 30 31  2  0
 31 32  1  0
 31 39  1  0
 32 33  1  0
 33 34  1  0
 34 35  2  3
 35 36  1  0
 36 37  1  6
 36 38  1  0
 39 40  2  0
M  END
