
     RDKit          3D

 40 42  0  0  0  0  0  0  0  0999 V2000
   11.4750   -0.0900   -0.3820 C   0  0  0  0  0  0  0  0  0  0  0  0
   10.2920    0.1240   -0.9110 C   0  0  0  0  0  0  0  0  0  0  0  0
    9.0430   -0.2660   -0.1410 C   0  0  0  0  0  0  0  0  0  0  0  0
    8.1700    0.8690    0.1240 C   0  0  0  0  0  0  0  0  0  0  0  0
    6.9210    1.1320    0.1080 C   0  0  0  0  0  0  0  0  0  0  0  0
    5.7620    0.3020   -0.2070 C   0  0  0  0  0  0  0  0  0  0  0  0
    5.7520   -0.8700   -0.8980 C   0  0  0  0  0  0  0  0  0  0  0  0
    4.5700   -1.6130   -1.0050 C   0  0  0  0  0  0  0  0  0  0  0  0
    3.3780   -1.1970   -0.4300 C   0  0  0  0  0  0  0  0  0  0  0  0
    2.1540   -2.0250   -0.4870 C   0  0  0  0  0  0  0  0  0  0  0  0
    3.3630   -0.0370    0.2530 C   0  0  0  0  0  0  0  0  0  0  0  0
    1.9730    0.6870    0.9800 S   0  0  2  0  0  0  0  0  0  0  0  0
    1.6330    1.9520    0.2380 O   0  0  0  0  0  0  0  0  0  0  0  0
    2.4990    1.2450    2.3510 O   0  0  0  0  0  0  0  0  0  0  0  0
    0.6670   -0.2550    1.3620 N   0  0  0  0  0  0  0  0  0  0  0  0
   -0.6830   -0.1030    0.9250 C   0  0  0  0  0  0  0  0  0  0  0  0
   -1.4210    1.0200    1.2360 C   0  0  0  0  0  0  0  0  0  0  0  0
   -2.7970    1.1050    1.0000 C   0  0  0  0  0  0  0  0  0  0  0  0
   -3.4770    0.0400    0.4300 C   0  0  0  0  0  0  0  0  0  0  0  0
   -4.9100   -0.0800    0.5370 C   0  0  0  0  0  0  0  0  0  0  0  0
   -5.7640    0.4970   -0.4030 N   0  0  0  0  0  0  0  0  0  0  0  0
   -5.5890    1.9120   -0.7000 C   0  0  0  0  0  0  0  0  0  0  0  0
   -7.1740    0.4520    0.0880 C   0  0  2  0  0  0  0  0  0  0  0  0
   -7.4440   -0.9090    0.6590 C   0  0  0  0  0  0  0  0  0  0  0  0
   -8.9560   -1.0470    0.7410 C   0  0  0  0  0  0  0  0  0  0  0  0
   -9.3010   -0.6300   -0.9900 S   0  0  2  0  0  0  0  0  0  0  0  0
  -10.6290   -0.0270   -1.1730 O   0  0  0  0  0  0  0  0  0  0  0  0
   -9.1250   -1.8960   -1.8150 O   0  0  0  0  0  0  0  0  0  0  0  0
   -7.9480    0.4750   -1.2490 C   0  0  0  0  0  0  0  0  0  0  0  0
   -2.6990   -1.0810    0.1010 C   0  0  0  0  0  0  0  0  0  0  0  0
   -3.4080   -2.1210   -0.7720 C   0  0  1  0  0  0  0  0  0  0  0  0
   -2.5190   -3.0930   -1.1370 F   0  0  0  0  0  0  0  0  0  0  0  0
   -4.4330   -2.7260   -0.1360 F   0  0  0  0  0  0  0  0  0  0  0  0
   -3.8130   -1.4600   -1.9560 F   0  0  0  0  0  0  0  0  0  0  0  0
   -1.3790   -1.1780    0.3300 C   0  0  0  0  0  0  0  0  0  0  0  0
    4.5350    0.6770    0.3500 C   0  0  0  0  0  0  0  0  0  0  0  0
    6.5930    2.6110    0.4270 C   0  0  2  0  0  0  0  0  0  0  0  0
    7.7840    3.3010    0.5220 F   0  0  0  0  0  0  0  0  0  0  0  0
    5.9660    2.7670    1.6480 F   0  0  0  0  0  0  0  0  0  0  0  0
    5.9250    3.1430   -0.6370 F   0  0  0  0  0  0  0  0  0  0  0  0
  1  2  2  0
  2  3  1  0
  3  4  1  0
  4  5  2  3
  5  6  1  0
  5 37  1  0
  6  7  2  0
  6 36  1  0
  7  8  1  0
  8  9  2  0
  9 10  1  0
  9 11  1  0
 11 12  1  0
 11 36  2  0
 12 13  2  0
 12 14  2  0
 12 15  1  1
 15 16  1  0
 16 17  2  0
 16 35  1  0
 17 18  1  0
 18 19  2  0
 19 20  1  0
 19 30  1  0
 20 21  1  0
 21 22  1  0
 23 21  1  6
 23 24  1  0
 23 29  1  0
 24 25  1  0
 26 25  1  1
 26 27  2  0
 26 28  2  0
 26 29  1  0
 30 31  1  0
 30 35  2  0
 31 32  1  6
 31 33  1  0
 31 34  1  0
 37 38  1  1
 37 39  1  0
 37 40  1  0
M  END
