
     RDKit          3D

 40 42  0  0  0  0  0  0  0  0999 V2000
   -7.8050   -1.8230    1.6550 C   0  0  0  0  0  0  0  0  0  0  0  0
   -6.6110   -0.9570    1.9070 C   0  0  0  0  0  0  0  0  0  0  0  0
   -6.9140    0.4110    2.4000 C   0  0  2  0  0  0  0  0  0  0  0  0
   -7.7570    1.2520    1.5020 C   0  0  0  0  0  0  0  0  0  0  0  0
   -6.9560    1.6870    0.2960 C   0  0  0  0  0  0  0  0  0  0  0  0
   -7.7180    1.8590   -1.0130 C   0  0  0  0  0  0  0  0  0  0  0  0
   -7.0180    2.0040   -2.1880 C   0  0  0  0  0  0  0  0  0  0  0  0
   -6.3990    2.1110   -3.2210 N   0  0  0  0  0  0  0  0  0  0  0  0
   -5.6920    1.8400    0.4890 C   0  0  0  0  0  0  0  0  0  0  0  0
   -4.5650    2.2470   -0.3750 C   0  0  0  0  0  0  0  0  0  0  0  0
   -3.5380    1.2710   -0.5430 N   0  0  0  0  0  0  0  0  0  0  0  0
   -3.7780   -0.0040   -1.0850 C   0  0  0  0  0  0  0  0  0  0  0  0
   -4.9450   -0.3520   -1.4520 O   0  0  0  0  0  0  0  0  0  0  0  0
   -2.6640   -0.9290   -1.2220 C   0  0  0  0  0  0  0  0  0  0  0  0
   -1.3290   -0.8710   -0.9950 C   0  0  0  0  0  0  0  0  0  0  0  0
   -0.5330   -1.8910   -1.2400 C   0  0  0  0  0  0  0  0  0  0  0  0
    0.9480   -1.8760   -1.0440 C   0  0  0  0  0  0  0  0  0  0  0  0
    1.5730   -0.7910   -0.6180 C   0  0  0  0  0  0  0  0  0  0  0  0
    3.0200   -0.7380   -0.4150 C   0  0  0  0  0  0  0  0  0  0  0  0
    3.8760   -1.7840   -0.6220 C   0  0  0  0  0  0  0  0  0  0  0  0
    5.2610   -1.6650   -0.4370 C   0  0  0  0  0  0  0  0  0  0  0  0
    6.0170   -2.7530   -0.6700 F   0  0  0  0  0  0  0  0  0  0  0  0
    5.8090   -0.4710   -0.0330 C   0  0  0  0  0  0  0  0  0  0  0  0
    7.1900   -0.3560    0.1480 O   0  0  0  0  0  0  0  0  0  0  0  0
    8.0230    0.0540   -0.9180 C   0  0  0  0  0  0  0  0  0  0  0  0
    9.4780    0.1080   -0.4880 C   0  0  2  0  0  0  0  0  0  0  0  0
   10.2570    0.5380   -1.5690 O   0  0  0  0  0  0  0  0  0  0  0  0
    9.9770   -1.2420   -0.0350 C   0  0  1  0  0  0  0  0  0  0  0  0
   11.2950   -1.1440    0.3420 F   0  0  0  0  0  0  0  0  0  0  0  0
    9.2290   -1.6940    1.0410 F   0  0  0  0  0  0  0  0  0  0  0  0
    4.9640    0.5920    0.1820 C   0  0  0  0  0  0  0  0  0  0  0  0
    5.5020    1.7900    0.5840 O   0  0  0  0  0  0  0  0  0  0  0  0
    5.6400    2.0590    1.9650 C   0  0  2  0  0  0  0  0  0  0  0  0
    6.1960    3.3120    2.1570 F   0  0  0  0  0  0  0  0  0  0  0  0
    6.3920    1.0740    2.5340 F   0  0  0  0  0  0  0  0  0  0  0  0
    4.3430    2.0350    2.4830 F   0  0  0  0  0  0  0  0  0  0  0  0
    3.6100    0.4620   -0.0030 C   0  0  0  0  0  0  0  0  0  0  0  0
   -1.0870   -3.0790   -1.7540 C   0  0  0  0  0  0  0  0  0  0  0  0
   -2.8580   -2.6360   -1.8670 S   0  0  0  0  0  0  0  0  0  0  0  0
   -5.3660    1.4070    2.2380 S   0  0  0  0  0  0  0  0  0  0  0  0
  1  2  1  0
  3  2  1  6
  3  4  1  0
  3 40  1  0
  4  5  1  0
  5  6  1  0
  5  9  2  0
  6  7  1  0
  7  8  3  0
  9 10  1  0
  9 40  1  0
 10 11  1  0
 11 12  1  0
 12 13  2  0
 12 14  1  0
 14 15  2  0
 14 39  1  0
 15 16  1  0
 16 17  1  0
 16 38  2  0
 17 18  2  3
 18 19  1  0
 19 20  2  0
 19 37  1  0
 20 21  1  0
 21 22  1  0
 21 23  2  0
 23 24  1  0
 23 31  1  0
 24 25  1  0
 25 26  1  0
 26 27  1  6
 26 28  1  0
 28 29  1  1
 28 30  1  0
 31 32  1  0
 31 37  2  0
 32 33  1  0
 33 34  1  6
 33 35  1  0
 33 36  1  0
 38 39  1  0
M  END
