
     RDKit          3D

 40 42  0  0  0  0  0  0  0  0999 V2000
   -3.7720   -0.0390   -3.5100 C   0  0  0  0  0  0  0  0  0  0  0  0
   -4.2840   -1.3590   -3.0620 C   0  0  0  0  0  0  0  0  0  0  0  0
   -3.3810   -2.1860   -2.2210 C   0  0  0  0  0  0  0  0  0  0  0  0
   -2.9790   -1.5650   -0.9550 C   0  0  0  0  0  0  0  0  0  0  0  0
   -1.7760   -0.8450   -0.9150 C   0  0  0  0  0  0  0  0  0  0  0  0
   -1.3790   -0.2440    0.2520 C   0  0  0  0  0  0  0  0  0  0  0  0
   -0.1250    0.4970    0.2650 N   0  0  0  0  0  0  0  0  0  0  0  0
   -0.2130    1.9110    0.3230 C   0  0  0  0  0  0  0  0  0  0  0  0
   -0.3020    2.6220   -0.9970 C   0  0  2  0  0  0  0  0  0  0  0  0
    0.7960    2.3260   -1.7740 O   0  0  0  0  0  0  0  0  0  0  0  0
   -0.2760    4.1220   -0.7400 C   0  0  0  0  0  0  0  0  0  0  0  0
    0.8920    4.4960   -0.0750 O   0  0  0  0  0  0  0  0  0  0  0  0
    0.9470    5.8460    0.1750 C   0  0  0  0  0  0  0  0  0  0  0  0
    1.0250   -0.2810    0.2060 C   0  0  0  0  0  0  0  0  0  0  0  0
    0.7470   -1.5810    0.1210 O   0  0  0  0  0  0  0  0  0  0  0  0
    2.4360    0.0150    0.2170 C   0  0  0  0  0  0  0  0  0  0  0  0
    3.2940   -1.1040    0.1370 C   0  0  0  0  0  0  0  0  0  0  0  0
    4.6620   -0.9040    0.1480 C   0  0  0  0  0  0  0  0  0  0  0  0
    5.5980   -1.9570    0.0440 N   0  0  0  0  0  0  0  0  0  0  0  0
    5.3060   -3.3520    0.1180 C   0  0  0  0  0  0  0  0  0  0  0  0
    5.1120   -3.7460    1.5620 C   0  0  1  0  0  0  0  0  0  0  0  0
    6.2880   -3.4850    2.2900 F   0  0  0  0  0  0  0  0  0  0  0  0
    4.1400   -3.0090    2.1460 F   0  0  0  0  0  0  0  0  0  0  0  0
    4.8840   -5.1030    1.6880 F   0  0  0  0  0  0  0  0  0  0  0  0
    5.1480    0.3880    0.2370 C   0  0  0  0  0  0  0  0  0  0  0  0
    6.8090    0.9870    0.2760 S   0  0  0  0  0  0  0  0  0  0  0  0
    6.3410    2.7570    0.4000 C   0  0  0  0  0  0  0  0  0  0  0  0
    4.9730    2.6970    0.3980 C   0  0  0  0  0  0  0  0  0  0  0  0
    4.3850    1.4910    0.3150 C   0  0  0  0  0  0  0  0  0  0  0  0
    2.9860    1.2510    0.3010 C   0  0  0  0  0  0  0  0  0  0  0  0
   -2.1580   -0.3470    1.3810 C   0  0  0  0  0  0  0  0  0  0  0  0
   -3.3200   -1.0550    1.3070 C   0  0  0  0  0  0  0  0  0  0  0  0
   -4.3190   -1.1850    2.7610 S   0  0  0  0  0  0  0  0  0  0  0  0
   -5.6540   -2.1290    2.6790 C   0  0  0  0  0  0  0  0  0  0  0  0
   -3.7720   -0.4710    4.1090 O   0  0  0  0  0  0  0  0  0  0  0  0
   -3.3090   -2.4660    3.1950 C   0  0  1  0  0  0  0  0  0  0  0  0
   -1.9550   -2.2110    3.2990 F   0  0  0  0  0  0  0  0  0  0  0  0
   -3.6490   -3.0950    4.4100 F   0  0  0  0  0  0  0  0  0  0  0  0
   -3.4050   -3.5390    2.2870 F   0  0  0  0  0  0  0  0  0  0  0  0
   -3.7530   -1.6580    0.1990 C   0  0  0  0  0  0  0  0  0  0  0  0
  1  2  1  0
  2  3  1  0
  3  4  1  0
  4  5  2  0
  4 40  1  0
  5  6  1  0
  6  7  1  0
  6 31  2  0
  7  8  1  0
  7 14  1  0
  8  9  1  0
  9 10  1  6
  9 11  1  0
 11 12  1  0
 12 13  1  0
 14 15  2  0
 14 16  1  0
 16 17  2  0
 16 30  1  0
 17 18  1  0
 18 19  1  0
 18 25  2  0
 19 20  1  0
 20 21  1  0
 21 22  1  1
 21 23  1  0
 21 24  1  0
 25 26  1  0
 25 29  1  0
 26 27  1  0
 27 28  2  0
 28 29  1  0
 29 30  2  0
 31 32  1  0
 32 33  1  0
 32 40  2  0
 33 34  1  0
 33 35  2  0
 33 36  1  0
 36 37  1  1
 36 38  1  0
 36 39  1  0
M  END
