
     RDKit          3D

 40 42  0  0  0  0  0  0  0  0999 V2000
    3.9480    3.6120   -0.5660 C   0  0  0  0  0  0  0  0  0  0  0  0
    4.5120    2.4430   -0.5350 C   0  0  0  0  0  0  0  0  0  0  0  0
    4.9200    1.6500   -1.6160 N   0  0  0  0  0  0  0  0  0  0  0  0
    4.0800    1.2990   -2.7190 C   0  0  0  0  0  0  0  0  0  0  0  0
    2.9080    0.4540   -2.4140 C   0  0  0  0  0  0  0  0  0  0  0  0
    2.5560   -0.5150   -3.3690 C   0  0  0  0  0  0  0  0  0  0  0  0
    1.4630   -1.3240   -3.1810 C   0  0  0  0  0  0  0  0  0  0  0  0
    1.1650   -2.2450   -4.1430 F   0  0  0  0  0  0  0  0  0  0  0  0
    0.7120   -1.1490   -2.0370 C   0  0  0  0  0  0  0  0  0  0  0  0
    1.0010   -0.2290   -1.0770 C   0  0  0  0  0  0  0  0  0  0  0  0
    0.2230    0.0360    0.1670 C   0  0  1  0  0  0  0  0  0  0  0  0
   -0.9350    0.8980   -0.1070 N   0  0  0  0  0  0  0  0  0  0  0  0
   -0.9490    2.0400   -0.9000 C   0  0  0  0  0  0  0  0  0  0  0  0
    0.1290    2.4080   -1.4940 O   0  0  0  0  0  0  0  0  0  0  0  0
   -2.2110    2.8590   -1.0600 C   0  0  1  0  0  0  0  0  0  0  0  0
   -2.0560    3.6950   -2.1510 O   0  0  0  0  0  0  0  0  0  0  0  0
   -3.4200    2.0330   -1.1320 C   0  0  0  0  0  0  0  0  0  0  0  0
   -4.7250    2.7580   -1.3260 C   0  0  2  0  0  0  0  0  0  0  0  0
   -5.9470    1.8370   -1.3450 C   0  0  0  0  0  0  0  0  0  0  0  0
   -5.6170    2.5970   -2.8580 S   0  0  0  0  0  0  0  0  0  0  0  0
   -2.1850    3.7680    0.1810 C   0  0  2  0  0  0  0  0  0  0  0  0
   -0.9560    4.4660    0.0500 F   0  0  0  0  0  0  0  0  0  0  0  0
   -2.0970    3.0100    1.3050 F   0  0  0  0  0  0  0  0  0  0  0  0
   -3.1390    4.7340    0.1820 F   0  0  0  0  0  0  0  0  0  0  0  0
   -0.3000   -1.1620    0.8150 C   0  0  0  0  0  0  0  0  0  0  0  0
   -1.6680   -2.0940    0.0540 S   0  0  0  0  0  0  0  0  0  0  0  0
   -1.7990   -3.2950    1.3160 C   0  0  0  0  0  0  0  0  0  0  0  0
   -2.7680   -4.4470    1.3410 C   0  0  1  0  0  0  0  0  0  0  0  0
   -1.9590   -5.6510    1.7490 C   0  0  0  0  0  0  0  0  0  0  0  0
   -3.7780   -4.1140    2.4060 C   0  0  0  0  0  0  0  0  0  0  0  0
   -0.8580   -2.9400    2.1850 C   0  0  0  0  0  0  0  0  0  0  0  0
   -0.0760   -1.8590    1.9540 C   0  0  0  0  0  0  0  0  0  0  0  0
    1.0460   -1.4110    2.8720 C   0  0  0  0  0  0  0  0  0  0  0  0
    1.9340   -0.6670    2.4570 O   0  0  0  0  0  0  0  0  0  0  0  0
    1.0660   -1.8460    4.2000 O   0  0  0  0  0  0  0  0  0  0  0  0
    2.1260   -1.4290    5.0840 C   0  0  0  0  0  0  0  0  0  0  0  0
    2.1200    0.5810   -1.2930 C   0  0  0  0  0  0  0  0  0  0  0  0
    6.3040    1.1580   -1.5940 C   0  0  2  0  0  0  0  0  0  0  0  0
    6.4670    0.4130   -0.4390 F   0  0  0  0  0  0  0  0  0  0  0  0
    7.1540    2.2410   -1.5460 F   0  0  0  0  0  0  0  0  0  0  0  0
  1  2  2  0
  2  3  1  0
  3  4  1  0
  3 38  1  0
  4  5  1  0
  5  6  2  0
  5 37  1  0
  6  7  1  0
  7  8  1  0
  7  9  2  0
  9 10  1  0
 10 11  1  0
 10 37  2  0
 11 12  1  6
 11 25  1  0
 12 13  1  0
 13 14  2  0
 13 15  1  0
 15 16  1  6
 15 17  1  0
 15 21  1  0
 18 17  1  6
 18 19  1  0
 18 20  1  0
 19 20  1  0
 21 22  1  6
 21 23  1  0
 21 24  1  0
 25 26  1  0
 25 32  2  0
 26 27  1  0
 27 28  1  0
 27 31  2  0
 28 29  1  1
 28 30  1  0
 31 32  1  0
 32 33  1  0
 33 34  2  0
 33 35  1  0
 35 36  1  0
 38 39  1  1
 38 40  1  0
M  END
