
     RDKit          3D

 40 42  0  0  0  0  0  0  0  0999 V2000
    5.4030    0.7660    3.1210 C   0  0  0  0  0  0  0  0  0  0  0  0
    4.9410   -0.0730    1.9540 C   0  0  0  0  0  0  0  0  0  0  0  0
    5.7080   -0.2250    0.9010 C   0  0  0  0  0  0  0  0  0  0  0  0
    7.0550    0.4830    0.9400 C   0  0  0  0  0  0  0  0  0  0  0  0
    5.3640   -1.0180   -0.2980 C   0  0  0  0  0  0  0  0  0  0  0  0
    4.1230   -1.6630   -0.3660 N   0  0  0  0  0  0  0  0  0  0  0  0
    2.8140   -1.1320   -0.5220 C   0  0  0  0  0  0  0  0  0  0  0  0
    2.3770   -0.5020   -1.5650 C   0  0  0  0  0  0  0  0  0  0  0  0
    3.1250   -0.1970   -2.8110 C   0  0  0  0  0  0  0  0  0  0  0  0
    3.9220   -1.1740   -3.3260 C   0  0  0  0  0  0  0  0  0  0  0  0
    4.6300   -0.9130   -4.4800 C   0  0  0  0  0  0  0  0  0  0  0  0
    4.5400    0.3130   -5.1100 C   0  0  0  0  0  0  0  0  0  0  0  0
    3.7200    1.3000   -4.5700 C   0  0  0  0  0  0  0  0  0  0  0  0
    3.0300    1.0160   -3.4270 C   0  0  0  0  0  0  0  0  0  0  0  0
    0.6680    0.0260   -1.4590 S   0  0  0  0  0  0  0  0  0  0  0  0
    0.4690    0.0870    0.3620 C   0  0  1  0  0  0  0  0  0  0  0  0
   -0.9140   -0.1290    0.6570 N   0  0  0  0  0  0  0  0  0  0  0  0
   -1.7490    0.8220    1.3340 C   0  0  0  0  0  0  0  0  0  0  0  0
   -3.1940    0.2740    1.2670 C   0  0  1  0  0  0  0  0  0  0  0  0
   -3.9150    0.6450    2.5020 C   0  0  0  0  0  0  0  0  0  0  0  0
   -5.3110    0.2890    2.6920 C   0  0  0  0  0  0  0  0  0  0  0  0
   -6.0710   -0.3260    1.8320 C   0  0  0  0  0  0  0  0  0  0  0  0
   -7.4610   -0.6940    2.0010 C   0  0  0  0  0  0  0  0  0  0  0  0
   -8.1640   -0.4880    3.0020 O   0  0  0  0  0  0  0  0  0  0  0  0
   -5.9720    0.6600    4.0190 C   0  0  1  0  0  0  0  0  0  0  0  0
   -5.0230    1.3360    4.8060 F   0  0  0  0  0  0  0  0  0  0  0  0
   -6.9900    1.5510    3.8380 F   0  0  0  0  0  0  0  0  0  0  0  0
   -6.2910   -0.4790    4.7070 F   0  0  0  0  0  0  0  0  0  0  0  0
   -3.7960    0.8790    0.0720 C   0  0  0  0  0  0  0  0  0  0  0  0
   -4.6630    1.7920    0.1820 O   0  0  0  0  0  0  0  0  0  0  0  0
   -3.4270    0.4660   -1.1780 O   0  0  0  0  0  0  0  0  0  0  0  0
   -3.8900    0.9160   -2.4020 C   0  0  0  0  0  0  0  0  0  0  0  0
   -5.3510    0.6720   -2.6210 C   0  0  2  0  0  0  0  0  0  0  0  0
   -5.6860    1.1560   -3.8900 F   0  0  0  0  0  0  0  0  0  0  0  0
   -6.1840    1.2880   -1.7270 F   0  0  0  0  0  0  0  0  0  0  0  0
   -5.5780   -0.7010   -2.6000 F   0  0  0  0  0  0  0  0  0  0  0  0
   -2.9820   -1.2180    1.1500 C   0  0  0  0  0  0  0  0  0  0  0  0
   -1.7030   -1.2590    0.3520 C   0  0  0  0  0  0  0  0  0  0  0  0
   -1.4460   -2.2050   -0.4550 O   0  0  0  0  0  0  0  0  0  0  0  0
    1.5460   -1.3120    0.7570 S   0  0  0  0  0  0  0  0  0  0  0  0
  1  2  1  0
  2  3  2  3
  3  4  1  0
  3  5  1  0
  5  6  1  0
  6  7  1  0
  7  8  2  0
  7 40  1  0
  8  9  1  0
  8 15  1  0
  9 10  2  0
  9 14  1  0
 10 11  1  0
 11 12  2  0
 12 13  1  0
 13 14  2  0
 15 16  1  0
 16 17  1  6
 16 40  1  0
 17 18  1  0
 17 38  1  0
 18 19  1  0
 19 20  1  1
 19 29  1  0
 19 37  1  0
 20 21  1  0
 21 22  2  3
 21 25  1  0
 22 23  1  0
 23 24  2  0
 25 26  1  1
 25 27  1  0
 25 28  1  0
 29 30  2  0
 29 31  1  0
 31 32  1  0
 32 33  1  0
 33 34  1  6
 33 35  1  0
 33 36  1  0
 37 38  1  0
 38 39  2  0
M  END
