
     RDKit          3D

 40 42  0  0  0  0  0  0  0  0999 V2000
   -4.7340    4.2170   -2.2600 C   0  0  0  0  0  0  0  0  0  0  0  0
   -5.5840    3.0070   -2.5600 C   0  0  0  0  0  0  0  0  0  0  0  0
   -4.7460    1.7730   -2.3160 C   0  0  0  0  0  0  0  0  0  0  0  0
   -4.2390    1.7830   -0.6170 S   0  0  2  0  0  0  0  0  0  0  0  0
   -5.4700    1.8590    0.2640 O   0  0  0  0  0  0  0  0  0  0  0  0
   -3.4450    3.0260   -0.3350 O   0  0  0  0  0  0  0  0  0  0  0  0
   -3.2590    0.3930   -0.2240 C   0  0  0  0  0  0  0  0  0  0  0  0
   -1.8880    0.4150   -0.3510 C   0  0  0  0  0  0  0  0  0  0  0  0
   -1.1430   -0.7080   -0.0300 C   0  0  0  0  0  0  0  0  0  0  0  0
    0.3240   -0.6870   -0.1430 C   0  0  0  0  0  0  0  0  0  0  0  0
    0.8420    0.5260   -0.6590 N   0  0  0  0  0  0  0  0  0  0  0  0
    0.5900    0.8280   -2.0210 C   0  0  0  0  0  0  0  0  0  0  0  0
    1.7700    0.5470   -2.9470 C   0  0  0  0  0  0  0  0  0  0  0  0
    2.7840   -0.1200   -2.2730 O   0  0  0  0  0  0  0  0  0  0  0  0
    3.1980    0.7490   -1.2540 C   0  0  2  0  0  0  0  0  0  0  0  0
    4.4610    0.2720   -0.5650 C   0  0  0  0  0  0  0  0  0  0  0  0
    4.8510    1.4800    0.7010 S   0  0  0  0  0  0  0  0  0  0  0  0
    6.3240    1.1010    1.6250 C   0  0  0  0  0  0  0  0  0  0  0  0
    6.2740    0.3070    2.7530 C   0  0  0  0  0  0  0  0  0  0  0  0
    7.4020    0.0080    3.4880 C   0  0  0  0  0  0  0  0  0  0  0  0
    7.3180   -0.7700    4.5850 F   0  0  0  0  0  0  0  0  0  0  0  0
    8.6370    0.4950    3.1200 C   0  0  0  0  0  0  0  0  0  0  0  0
    8.7050    1.2870    1.9980 C   0  0  0  0  0  0  0  0  0  0  0  0
    7.5590    1.5900    1.2540 C   0  0  0  0  0  0  0  0  0  0  0  0
    7.7010    2.4460    0.0710 C   0  0  1  0  0  0  0  0  0  0  0  0
    6.9360    3.5880    0.2130 F   0  0  0  0  0  0  0  0  0  0  0  0
    9.0210    2.8480   -0.0720 F   0  0  0  0  0  0  0  0  0  0  0  0
    7.3140    1.8130   -1.0860 F   0  0  0  0  0  0  0  0  0  0  0  0
    2.1240    0.9400   -0.2240 C   0  0  0  0  0  0  0  0  0  0  0  0
   -1.7310   -1.8580    0.4190 C   0  0  0  0  0  0  0  0  0  0  0  0
   -0.9410   -3.0370    0.7700 C   0  0  0  0  0  0  0  0  0  0  0  0
   -3.1280   -1.9100    0.5590 C   0  0  0  0  0  0  0  0  0  0  0  0
   -3.6960   -3.1220    1.0210 N   0  0  0  0  0  0  0  0  0  0  0  0
   -5.0690   -3.3160    1.2220 C   0  0  0  0  0  0  0  0  0  0  0  0
   -5.9490   -2.4670    1.0270 O   0  0  0  0  0  0  0  0  0  0  0  0
   -5.5440   -4.6540    1.7160 C   0  0  0  0  0  0  0  0  0  0  0  0
   -7.0430   -4.6860    1.8820 C   0  0  2  0  0  0  0  0  0  0  0  0
   -7.3680   -5.9490    2.3350 F   0  0  0  0  0  0  0  0  0  0  0  0
   -7.5990   -4.4850    0.6330 F   0  0  0  0  0  0  0  0  0  0  0  0
   -3.8500   -0.7900    0.2360 C   0  0  0  0  0  0  0  0  0  0  0  0
  1  2  1  0
  2  3  1  0
  4  3  1  6
  4  5  2  0
  4  6  2  0
  4  7  1  0
  7  8  2  0
  7 40  1  0
  8  9  1  0
  9 10  1  0
  9 30  2  0
 10 11  1  0
 11 12  1  0
 11 29  1  0
 12 13  1  0
 13 14  1  0
 14 15  1  0
 15 16  1  1
 15 29  1  0
 16 17  1  0
 17 18  1  0
 18 19  2  0
 18 24  1  0
 19 20  1  0
 20 21  1  0
 20 22  2  0
 22 23  1  0
 23 24  2  0
 24 25  1  0
 25 26  1  1
 25 27  1  0
 25 28  1  0
 30 31  1  0
 30 32  1  0
 32 33  1  0
 32 40  2  0
 33 34  1  0
 34 35  2  0
 34 36  1  0
 36 37  1  0
 37 38  1  6
 37 39  1  0
M  END
