
     RDKit          3D

 17 18  0  0  0  0  0  0  0  0999 V2000
   -2.9220    0.8830   -0.2120 C   0  0  0  0  0  0  0  0  0  0  0  0
   -1.4600    0.9680   -0.0540 C   0  0  0  0  0  0  0  0  0  0  0  0
   -0.8160    2.1010    0.2070 N   0  0  0  0  0  0  0  0  0  0  0  0
    0.5120    2.1740    0.3310 C   0  0  0  0  0  0  0  0  0  0  0  0
    1.0180    3.2810    0.5750 O   0  0  0  0  0  0  0  0  0  0  0  0
    1.2630    1.0380    0.1860 C   0  0  0  0  0  0  0  0  0  0  0  0
    2.6110    0.7480    0.2670 C   0  0  0  0  0  0  0  0  0  0  0  0
    3.6490    1.7370    0.5390 C   0  0  0  0  0  0  0  0  0  0  0  0
    3.5140    2.9380    0.7330 O   0  0  0  0  0  0  0  0  0  0  0  0
    2.7960   -0.5250    0.0650 O   0  0  0  0  0  0  0  0  0  0  0  0
    1.6510   -1.1450   -0.1540 C   0  0  0  0  0  0  0  0  0  0  0  0
    1.5140   -2.6060   -0.4120 C   0  0  0  0  0  0  0  0  0  0  0  0
    0.6550   -0.2130   -0.0930 C   0  0  0  0  0  0  0  0  0  0  0  0
   -0.7160   -0.2130   -0.2090 C   0  0  0  0  0  0  0  0  0  0  0  0
   -1.4240   -1.4470   -0.4690 C   0  0  0  0  0  0  0  0  0  0  0  0
   -2.6710   -1.6980    0.2290 N   0  0  0  0  0  0  0  0  0  0  0  0
   -1.0550   -2.3240   -1.2440 O   0  0  0  0  0  0  0  0  0  0  0  0
  1  2  1  0
  2  3  1  0
  2 14  2  0
  3  4  1  0
  4  5  2  0
  4  6  1  0
  6  7  2  0
  6 13  1  0
  7  8  1  0
  7 10  1  0
  8  9  2  0
 10 11  1  0
 11 12  1  0
 11 13  2  0
 13 14  1  0
 14 15  1  0
 15 16  1  0
 15 17  2  0
M  END
