
     RDKit          3D

 17 17  0  0  0  0  0  0  0  0999 V2000
   -5.7610   -0.8660    0.0460 C   0  0  0  0  0  0  0  0  0  0  0  0
   -5.5080    0.4800    0.1800 O   0  0  0  0  0  0  0  0  0  0  0  0
   -4.6830    1.0100   -0.7680 C   0  0  0  0  0  0  0  0  0  0  0  0
   -3.3080    0.5060   -0.6870 C   0  0  0  0  0  0  0  0  0  0  0  0
   -2.5210    0.7270   -1.6420 O   0  0  0  0  0  0  0  0  0  0  0  0
   -2.8290   -0.2130    0.4240 N   0  0  0  0  0  0  0  0  0  0  0  0
   -1.4860   -0.6720    0.4220 N   0  0  0  0  0  0  0  0  0  0  0  0
   -0.3890    0.2100    0.2360 C   0  0  0  0  0  0  0  0  0  0  0  0
   -0.6460    1.4280    0.0700 O   0  0  0  0  0  0  0  0  0  0  0  0
    1.0040   -0.2480    0.2310 C   0  0  0  0  0  0  0  0  0  0  0  0
    1.9850    0.6040    0.0540 C   0  0  0  0  0  0  0  0  0  0  0  0
    3.3840    0.2200    0.0380 C   0  0  0  0  0  0  0  0  0  0  0  0
    4.3260    1.1320   -0.1470 C   0  0  0  0  0  0  0  0  0  0  0  0
    5.7800    0.8550   -0.1820 C   0  0  0  0  0  0  0  0  0  0  0  0
    6.0710   -0.4850    0.0110 O   0  0  0  0  0  0  0  0  0  0  0  0
    5.1320   -1.4740    0.2070 C   0  0  0  0  0  0  0  0  0  0  0  0
    3.8390   -1.1510    0.2220 C   0  0  0  0  0  0  0  0  0  0  0  0
  1  2  1  0
  2  3  1  0
  3  4  1  0
  4  5  2  0
  4  6  1  0
  6  7  1  0
  7  8  1  0
  8  9  2  0
  8 10  1  0
 10 11  2  3
 11 12  1  0
 12 13  2  0
 12 17  1  0
 13 14  1  0
 14 15  1  0
 15 16  1  0
 16 17  2  0
M  END
