
     RDKit          3D

 17 18  0  0  0  0  0  0  0  0999 V2000
    6.1360    0.1030    0.1100 O   0  0  0  0  0  0  0  0  0  0  0  0
    5.0160   -0.4510    0.0320 C   0  0  0  0  0  0  0  0  0  0  0  0
    4.9420   -1.8340   -0.0500 O   0  0  0  0  0  0  0  0  0  0  0  0
    3.8030    0.3600    0.0270 C   0  0  0  0  0  0  0  0  0  0  0  0
    3.7400    1.7250    0.1020 C   0  0  0  0  0  0  0  0  0  0  0  0
    2.4600    2.1020    0.0710 N   0  0  0  0  0  0  0  0  0  0  0  0
    1.6930    1.0030   -0.0240 C   0  0  0  0  0  0  0  0  0  0  0  0
    0.1870    0.9810   -0.0880 C   0  0  0  0  0  0  0  0  0  0  0  0
   -0.2810   -0.3490   -0.1830 O   0  0  0  0  0  0  0  0  0  0  0  0
   -1.6510   -0.5520   -0.2520 C   0  0  0  0  0  0  0  0  0  0  0  0
   -2.5390    0.5110   -0.2280 C   0  0  0  0  0  0  0  0  0  0  0  0
   -3.8910    0.3510   -0.2930 C   0  0  0  0  0  0  0  0  0  0  0  0
   -4.3980   -0.9260   -0.3870 C   0  0  0  0  0  0  0  0  0  0  0  0
   -5.7670   -1.1070   -0.4540 O   0  0  0  0  0  0  0  0  0  0  0  0
   -3.5380   -1.9990   -0.4130 C   0  0  0  0  0  0  0  0  0  0  0  0
   -2.1660   -1.8390   -0.3460 C   0  0  0  0  0  0  0  0  0  0  0  0
    2.5240   -0.0550   -0.0490 N   0  0  0  0  0  0  0  0  0  0  0  0
  1  2  2  0
  2  3  1  0
  2  4  1  0
  4  5  2  0
  4 17  1  0
  5  6  1  0
  6  7  1  0
  7  8  1  0
  7 17  2  0
  8  9  1  0
  9 10  1  0
 10 11  2  0
 10 16  1  0
 11 12  1  0
 12 13  2  0
 13 14  1  0
 13 15  1  0
 15 16  2  0
M  END
