
     RDKit          3D

 25 26  0  0  0  0  0  0  0  0999 V2000
    4.0940   -1.7880    0.4390 O   0  0  0  0  0  0  0  0  0  0  0  0
    4.0400   -0.5410    0.3010 C   0  0  0  0  0  0  0  0  0  0  0  0
    5.2440    0.1890    0.3480 N   0  0  0  0  0  0  0  0  0  0  0  0
    6.4020   -0.4750    0.5410 O   0  0  0  0  0  0  0  0  0  0  0  0
    7.4420    0.3740    0.1110 C   0  0  0  0  0  0  0  0  0  0  0  0
    8.6820   -0.2140    0.2630 O   0  0  0  0  0  0  0  0  0  0  0  0
    2.8000    0.0270    0.1130 O   0  0  0  0  0  0  0  0  0  0  0  0
    1.6160   -0.6720    0.0670 N   0  0  0  0  0  0  0  0  0  0  0  0
    0.4240    0.1030    0.0650 C   0  0  0  0  0  0  0  0  0  0  0  0
    0.4910    1.3490    0.1040 O   0  0  0  0  0  0  0  0  0  0  0  0
   -0.9190   -0.5410    0.0200 C   0  0  2  0  0  0  0  0  0  0  0  0
   -2.0250    0.4330    0.0210 C   0  0  2  0  0  0  0  0  0  0  0  0
   -3.2410   -0.2870   -0.0460 O   0  0  0  0  0  0  0  0  0  0  0  0
   -2.0090    1.3360   -1.1780 C   0  0  0  0  0  0  0  0  0  0  0  0
   -3.3340    2.1440   -1.2380 C   0  0  0  0  0  0  0  0  0  0  0  0
   -3.4090    2.9980    0.0350 C   0  0  0  0  0  0  0  0  0  0  0  0
   -3.4930    1.9790    1.1700 C   0  0  2  0  0  0  0  0  0  0  0  0
   -3.8180    2.5780    2.3820 O   0  0  0  0  0  0  0  0  0  0  0  0
   -2.1090    1.3180    1.2320 C   0  0  0  0  0  0  0  0  0  0  0  0
   -0.9430   -1.4820    1.2050 C   0  0  0  0  0  0  0  0  0  0  0  0
   -1.2660   -2.8560    0.7240 C   0  0  2  0  0  0  0  0  0  0  0  0
   -0.1530   -3.7270    0.8140 O   0  0  0  0  0  0  0  0  0  0  0  0
   -1.6820   -2.7480   -0.7010 C   0  0  0  0  0  0  0  0  0  0  0  0
   -1.0630   -1.4540   -1.1730 C   0  0  2  0  0  0  0  0  0  0  0  0
    0.1530   -1.6860   -1.8050 O   0  0  0  0  0  0  0  0  0  0  0  0
  1  2  2  0
  2  3  1  0
  2  7  1  0
  3  4  1  0
  4  5  1  0
  5  6  1  0
  7  8  1  0
  8  9  1  0
  9 10  2  0
 11  9  1  6
 11 12  1  0
 11 20  1  0
 11 24  1  0
 12 13  1  6
 12 14  1  0
 12 19  1  0
 14 15  1  0
 15 16  1  0
 16 17  1  0
 17 18  1  1
 17 19  1  0
 20 21  1  0
 21 22  1  6
 21 23  1  0
 23 24  1  0
 24 25  1  1
M  END
