
     RDKit          3D

 17 17  0  0  0  0  0  0  0  0999 V2000
   -4.6160    1.8260    0.7320 C   0  0  0  0  0  0  0  0  0  0  0  0
   -3.8820    0.7960    0.2760 C   0  0  0  0  0  0  0  0  0  0  0  0
   -2.4340    0.9030    0.2790 C   0  0  0  0  0  0  0  0  0  0  0  0
   -1.6320   -0.0580   -0.1490 C   0  0  0  0  0  0  0  0  0  0  0  0
   -0.2180    0.1110   -0.1190 N   0  0  0  0  0  0  0  0  0  0  0  0
    0.5620   -0.7930    0.6450 C   0  0  0  0  0  0  0  0  0  0  0  0
   -0.0410   -1.7090    1.2640 O   0  0  0  0  0  0  0  0  0  0  0  0
    2.0110   -0.7360    0.7630 C   0  0  0  0  0  0  0  0  0  0  0  0
    2.6610    0.3260    0.0400 N   0  0  0  0  0  0  0  0  0  0  0  0
    4.0960    0.4760    0.0870 C   0  0  0  0  0  0  0  0  0  0  0  0
    4.7110   -0.3720    0.7900 O   0  0  0  0  0  0  0  0  0  0  0  0
    4.7490    1.4740   -0.5880 O   0  0  0  0  0  0  0  0  0  0  0  0
    6.1770    1.5720   -0.5030 C   0  0  0  0  0  0  0  0  0  0  0  0
   -2.2830   -1.2660   -0.6400 C   0  0  0  0  0  0  0  0  0  0  0  0
   -1.4410   -2.2780   -1.0910 O   0  0  0  0  0  0  0  0  0  0  0  0
   -3.5770   -1.4250   -0.6700 C   0  0  0  0  0  0  0  0  0  0  0  0
   -4.5460   -0.4230   -0.2190 C   0  0  0  0  0  0  0  0  0  0  0  0
  1  2  2  0
  2  3  1  0
  2 17  1  0
  3  4  2  0
  4  5  1  0
  4 14  1  0
  5  6  1  0
  6  7  2  0
  6  8  1  0
  8  9  1  0
  9 10  1  0
 10 11  2  0
 10 12  1  0
 12 13  1  0
 14 15  1  0
 14 16  2  0
 16 17  1  0
M  END
