
     RDKit          3D

 17 18  0  0  0  0  0  0  0  0999 V2000
    4.1800   -1.7350    2.5170 C   0  0  0  0  0  0  0  0  0  0  0  0
    3.2230   -1.3420    1.6190 C   0  0  0  0  0  0  0  0  0  0  0  0
    3.5360   -1.6320    0.3150 O   0  0  0  0  0  0  0  0  0  0  0  0
    2.0720   -0.7110    2.1290 C   0  0  0  0  0  0  0  0  0  0  0  0
    0.9970   -0.2120    1.6870 C   0  0  0  0  0  0  0  0  0  0  0  0
    0.3290   -0.0020    0.4220 C   0  0  0  0  0  0  0  0  0  0  0  0
   -0.9100    0.6220    0.4800 N   0  0  0  0  0  0  0  0  0  0  0  0
   -1.6460    0.8850   -0.5940 C   0  0  0  0  0  0  0  0  0  0  0  0
   -1.1330    0.5100   -1.8130 C   0  0  0  0  0  0  0  0  0  0  0  0
    0.0980   -0.1110   -1.8850 C   0  0  0  0  0  0  0  0  0  0  0  0
    0.5830   -0.4610   -2.9970 O   0  0  0  0  0  0  0  0  0  0  0  0
    0.8220   -0.3620   -0.7510 N   0  0  0  0  0  0  0  0  0  0  0  0
   -1.9250    0.7810   -3.0080 C   0  0  0  0  0  0  0  0  0  0  0  0
   -1.4570    0.4380   -4.1380 O   0  0  0  0  0  0  0  0  0  0  0  0
   -3.1410    1.3950   -2.8530 O   0  0  0  0  0  0  0  0  0  0  0  0
   -3.8510    1.4200   -1.6300 C   0  0  0  0  0  0  0  0  0  0  0  0
   -2.9840    1.5730   -0.4400 C   0  0  0  0  0  0  0  0  0  0  0  0
  1  2  2  0
  2  3  1  0
  2  4  1  0
  4  5  2  3
  5  6  1  0
  6  7  2  0
  6 12  1  0
  7  8  1  0
  8  9  2  0
  8 17  1  0
  9 10  1  0
  9 13  1  0
 10 11  2  0
 10 12  1  0
 13 14  2  0
 13 15  1  0
 15 16  1  0
 16 17  1  0
M  END
