
     RDKit          3D

 17 17  0  0  0  0  0  0  0  0999 V2000
   -5.1670    1.1620    0.5940 C   0  0  0  0  0  0  0  0  0  0  0  0
   -4.8660    0.8500   -0.8540 C   0  0  0  0  0  0  0  0  0  0  0  0
   -3.7120    0.0290   -0.9860 O   0  0  0  0  0  0  0  0  0  0  0  0
   -2.4780    0.4500   -0.5210 C   0  0  0  0  0  0  0  0  0  0  0  0
   -2.4440    1.5950    0.0200 O   0  0  0  0  0  0  0  0  0  0  0  0
   -1.2750   -0.3720   -0.6430 C   0  0  0  0  0  0  0  0  0  0  0  0
   -1.3740   -1.4740   -1.1780 O   0  0  0  0  0  0  0  0  0  0  0  0
   -0.0450    0.1120   -0.1500 N   0  0  0  0  0  0  0  0  0  0  0  0
    1.1950   -0.5520   -0.1890 C   0  0  0  0  0  0  0  0  0  0  0  0
    1.4110   -1.7510   -0.7010 C   0  0  0  0  0  0  0  0  0  0  0  0
    2.7180   -2.4170   -0.7270 C   0  0  0  0  0  0  0  0  0  0  0  0
    3.7870   -1.8600   -0.2350 C   0  0  0  0  0  0  0  0  0  0  0  0
    3.6890   -0.5450    0.3560 C   0  0  0  0  0  0  0  0  0  0  0  0
    4.7380    0.0740    0.8730 C   0  0  0  0  0  0  0  0  0  0  0  0
    4.6060    1.3300    1.4290 O   0  0  0  0  0  0  0  0  0  0  0  0
    2.3620    0.1160    0.3750 C   0  0  0  0  0  0  0  0  0  0  0  0
    2.3250    1.2760    0.9080 N   0  0  0  0  0  0  0  0  0  0  0  0
  1  2  1  0
  2  3  1  0
  3  4  1  0
  4  5  2  0
  4  6  1  0
  6  7  2  0
  6  8  1  0
  8  9  1  0
  9 10  2  0
  9 16  1  0
 10 11  1  0
 11 12  2  0
 12 13  1  0
 13 14  2  3
 13 16  1  0
 14 15  1  0
 16 17  2  0
M  END
