
     RDKit          3D

 17 17  0  0  0  0  0  0  0  0999 V2000
   -1.3330   -2.7530    0.3030 N   0  0  0  0  0  0  0  0  0  0  0  0
   -1.1560   -1.4520   -0.3890 C   0  0  2  0  0  0  0  0  0  0  0  0
    0.1850   -1.0430   -0.2520 N   0  0  0  0  0  0  0  0  0  0  0  0
    0.7370   -0.0230    0.2780 C   0  0  0  0  0  0  0  0  0  0  0  0
    2.2080    0.0660    0.2290 C   0  0  0  0  0  0  0  0  0  0  0  0
    2.9590   -1.0130   -0.4220 C   0  0  0  0  0  0  0  0  0  0  0  0
    2.5750   -1.1210   -1.7600 O   0  0  0  0  0  0  0  0  0  0  0  0
    2.8030    1.0640    0.7440 N   0  0  0  0  0  0  0  0  0  0  0  0
    4.2410    1.1380    0.6880 C   0  0  0  0  0  0  0  0  0  0  0  0
    4.7220    2.3530    1.1850 O   0  0  0  0  0  0  0  0  0  0  0  0
    0.0440    1.0820    0.9380 C   0  0  0  0  0  0  0  0  0  0  0  0
   -1.1630    1.4880    0.7320 N   0  0  0  0  0  0  0  0  0  0  0  0
   -2.1100    0.9000   -0.2370 C   0  0  2  0  0  0  0  0  0  0  0  0
   -3.3730    1.6540    0.0030 C   0  0  0  0  0  0  0  0  0  0  0  0
   -3.8110    1.4820    1.3320 O   0  0  0  0  0  0  0  0  0  0  0  0
   -2.2630   -0.5590   -0.0400 C   0  0  1  0  0  0  0  0  0  0  0  0
   -3.4550   -1.0040   -0.7350 N   0  0  0  0  0  0  0  0  0  0  0  0
  2  1  1  1
  2  3  1  0
  2 16  1  0
  3  4  2  0
  4  5  1  0
  4 11  1  0
  5  6  1  0
  5  8  2  3
  6  7  1  0
  8  9  1  0
  9 10  1  0
 11 12  2  0
 12 13  1  0
 13 14  1  1
 13 16  1  0
 14 15  1  0
 16 17  1  6
M  END
