
     RDKit          3D

 27 29  0  0  0  0  0  0  0  0999 V2000
    3.9340    0.5160    1.0530 O   0  0  0  0  0  0  0  0  0  0  0  0
    3.5430    1.6170    0.5460 C   0  0  0  0  0  0  0  0  0  0  0  0
    3.9700    2.9010    1.1460 C   0  0  0  0  0  0  0  0  0  0  0  0
    4.8600    2.6900    2.3500 C   0  0  0  0  0  0  0  0  0  0  0  0
    3.9500    1.7470    3.5900 S   0  0  0  0  0  0  0  0  0  0  0  0
    2.7120    1.5090   -0.5810 N   0  0  0  0  0  0  0  0  0  0  0  0
    2.2960    0.2570   -1.1650 C   0  0  1  0  0  0  0  0  0  0  0  0
    0.8190    0.1660   -1.0440 C   0  0  0  0  0  0  0  0  0  0  0  0
    0.0940    0.4590    0.0730 N   0  0  0  0  0  0  0  0  0  0  0  0
   -1.2060    0.2670   -0.1700 C   0  0  0  0  0  0  0  0  0  0  0  0
   -2.3970    0.4410    0.7020 C   0  0  0  0  0  0  0  0  0  0  0  0
   -2.6330   -0.8800    1.4030 C   0  0  0  0  0  0  0  0  0  0  0  0
   -3.7950   -0.8380    2.3050 C   0  0  0  0  0  0  0  0  0  0  0  0
   -3.6960   -0.4770    3.6320 C   0  0  0  0  0  0  0  0  0  0  0  0
   -4.7890   -0.4400    4.4750 C   0  0  0  0  0  0  0  0  0  0  0  0
   -6.0450   -0.7700    4.0080 C   0  0  0  0  0  0  0  0  0  0  0  0
   -6.1570   -1.1320    2.6840 C   0  0  0  0  0  0  0  0  0  0  0  0
   -5.0530   -1.1660    1.8460 C   0  0  0  0  0  0  0  0  0  0  0  0
   -1.2730   -0.1550   -1.4800 C   0  0  0  0  0  0  0  0  0  0  0  0
   -0.0210   -0.2160   -2.0150 N   0  0  0  0  0  0  0  0  0  0  0  0
    0.5170   -0.5740   -3.2920 C   0  0  2  0  0  0  0  0  0  0  0  0
   -0.3700   -1.4860   -4.0910 C   0  0  0  0  0  0  0  0  0  0  0  0
   -0.6220   -2.6910   -3.4470 O   0  0  0  0  0  0  0  0  0  0  0  0
    1.8900   -1.1250   -3.0980 C   0  0  1  0  0  0  0  0  0  0  0  0
    2.4540   -1.6790   -4.2260 O   0  0  0  0  0  0  0  0  0  0  0  0
    2.7380    0.0400   -2.5600 C   0  0  2  0  0  0  0  0  0  0  0  0
    4.0610   -0.3900   -2.6490 O   0  0  0  0  0  0  0  0  0  0  0  0
  1  2  2  0
  2  3  1  0
  2  6  1  0
  3  4  1  0
  4  5  1  0
  7  6  1  6
  7  8  1  0
  7 26  1  0
  8  9  2  0
  8 20  1  0
  9 10  1  0
 10 11  1  0
 10 19  2  0
 11 12  1  0
 12 13  1  0
 13 14  2  0
 13 18  1  0
 14 15  1  0
 15 16  2  0
 16 17  1  0
 17 18  2  0
 19 20  1  0
 20 21  1  0
 21 22  1  1
 21 24  1  0
 22 23  1  0
 24 25  1  6
 24 26  1  0
 26 27  1  1
M  END
