
     RDKit          3D

 14 15  0  0  0  0  0  0  0  0999 V2000
    5.0230    1.0640   -0.3420 C   0  0  0  0  0  0  0  0  0  0  0  0
    3.9570    1.0510    0.4390 C   0  0  0  0  0  0  0  0  0  0  0  0
    3.1160   -0.1840    0.5100 C   0  0  0  0  0  0  0  0  0  0  0  0
    1.7050    0.2170    0.0320 C   0  0  0  0  0  0  0  0  0  0  0  0
    0.8580   -0.9890    0.0380 C   0  0  0  0  0  0  0  0  0  0  0  0
   -0.5200   -0.8340   -0.3660 N   0  0  0  0  0  0  0  0  0  0  0  0
   -1.0220   -2.1900   -0.4730 C   0  0  0  0  0  0  0  0  0  0  0  0
   -2.3910   -2.4440   -0.0110 C   0  0  0  0  0  0  0  0  0  0  0  0
   -2.7640   -1.6840    1.1050 O   0  0  0  0  0  0  0  0  0  0  0  0
   -2.7450   -0.3740    0.6370 C   0  0  0  0  0  0  0  0  0  0  0  0
   -1.3100    0.0160    0.4540 C   0  0  2  0  0  0  0  0  0  0  0  0
   -1.3170    1.4810    0.0490 C   0  0  1  0  0  0  0  0  0  0  0  0
   -1.7610    1.9220   -1.2730 C   0  0  0  0  0  0  0  0  0  0  0  0
   -2.6590    2.1730   -0.0780 C   0  0  0  0  0  0  0  0  0  0  0  0
  1  2  2  0
  2  3  1  0
  3  4  1  0
  4  5  1  0
  5  6  1  0
  6  7  1  0
  6 11  1  0
  7  8  1  0
  8  9  1  0
  9 10  1  0
 11 10  1  6
 11 12  1  0
 12 13  1  6
 12 14  1  0
 13 14  1  0
M  END
