
     RDKit          3D

 17 18  0  0  0  0  0  0  0  0999 V2000
   -2.3280    1.4710    1.3030 N   0  0  0  0  0  0  0  0  0  0  0  0
   -2.2830    0.4880    0.5250 C   0  0  0  0  0  0  0  0  0  0  0  0
   -2.8080   -0.8740    0.7480 C   0  0  1  0  0  0  0  0  0  0  0  0
   -4.2340   -1.0160    0.2240 C   0  0  0  0  0  0  0  0  0  0  0  0
   -3.9800   -0.5270   -1.2130 C   0  0  0  0  0  0  0  0  0  0  0  0
   -2.5050   -0.7570   -1.3590 C   0  0  2  0  0  0  0  0  0  0  0  0
   -2.1760   -1.6250   -0.2820 O   0  0  0  0  0  0  0  0  0  0  0  0
   -1.6840    0.4510   -0.8360 C   0  0  2  0  0  0  0  0  0  0  0  0
   -0.2730   -0.0880   -0.7780 C   0  0  0  0  0  0  0  0  0  0  0  0
    0.6110    0.6740    0.0320 N   0  0  0  0  0  0  0  0  0  0  0  0
    1.9610    0.2430    0.1540 C   0  0  0  0  0  0  0  0  0  0  0  0
    2.3540   -0.8100   -0.4610 O   0  0  0  0  0  0  0  0  0  0  0  0
    2.9220    0.9230    0.9320 N   0  0  0  0  0  0  0  0  0  0  0  0
    4.2280    0.4330    1.0020 N   0  0  0  0  0  0  0  0  0  0  0  0
    5.1710    0.5900   -0.0510 C   0  0  0  0  0  0  0  0  0  0  0  0
    6.5030    0.0750    0.0540 N   0  0  0  0  0  0  0  0  0  0  0  0
    4.7620    1.2110   -1.0830 O   0  0  0  0  0  0  0  0  0  0  0  0
  1  2  2  0
  2  3  1  0
  2  8  1  0
  3  4  1  6
  3  7  1  0
  4  5  1  0
  6  5  1  1
  6  7  1  0
  6  8  1  0
  8  9  1  1
  9 10  1  0
 10 11  1  0
 11 12  2  0
 11 13  1  0
 13 14  1  0
 14 15  1  0
 15 16  1  0
 15 17  2  0
M  END
