
     RDKit          3D

 17 18  0  0  0  0  0  0  0  0999 V2000
    4.1760    0.5200   -1.5650 N   0  0  0  0  0  0  0  0  0  0  0  0
    5.1550    0.3230   -0.5580 C   0  0  0  0  0  0  0  0  0  0  0  0
    6.1940    1.0100   -0.5800 O   0  0  0  0  0  0  0  0  0  0  0  0
    4.9290   -0.6780    0.4840 C   0  0  0  0  0  0  0  0  0  0  0  0
    3.6650   -1.3730    0.3360 N   0  0  0  0  0  0  0  0  0  0  0  0
    2.4070   -0.6990    0.3570 C   0  0  0  0  0  0  0  0  0  0  0  0
    2.4150    0.5360    0.5090 O   0  0  0  0  0  0  0  0  0  0  0  0
    1.1720   -1.3560    0.2140 N   0  0  0  0  0  0  0  0  0  0  0  0
   -0.0520   -0.6790    0.2370 N   0  0  0  0  0  0  0  0  0  0  0  0
   -1.0330   -0.8150   -0.7950 C   0  0  0  0  0  0  0  0  0  0  0  0
   -0.6900   -1.6100   -1.7380 O   0  0  0  0  0  0  0  0  0  0  0  0
   -2.3190   -0.1150   -0.7880 C   0  0  2  0  0  0  0  0  0  0  0  0
   -2.5300    1.1860   -0.1530 C   0  0  1  0  0  0  0  0  0  0  0  0
   -3.7680    1.9720   -0.5580 C   0  0  0  0  0  0  0  0  0  0  0  0
   -4.8480    0.9840   -0.6410 N   0  0  0  0  0  0  0  0  0  0  0  0
   -4.6040    0.0620    0.4360 C   0  0  0  0  0  0  0  0  0  0  0  0
   -3.1090   -0.0140    0.5030 C   0  0  1  0  0  0  0  0  0  0  0  0
  1  2  1  0
  2  3  2  0
  2  4  1  0
  4  5  1  0
  5  6  1  0
  6  7  2  0
  6  8  1  0
  8  9  1  0
  9 10  1  0
 10 11  2  0
 12 10  1  1
 12 13  1  0
 12 17  1  0
 13 14  1  6
 13 17  1  0
 14 15  1  0
 15 16  1  0
 17 16  1  6
M  END
