
     RDKit          3D

 14 14  0  0  0  0  0  0  0  0999 V2000
   -2.4880    1.8040   -0.7410 C   0  0  0  0  0  0  0  0  0  0  0  0
   -2.9960    0.4520   -1.0510 C   0  0  0  0  0  0  0  0  0  0  0  0
   -2.0830   -0.6820   -1.0860 C   0  0  0  0  0  0  0  0  0  0  0  0
   -1.2860   -1.0410    0.1390 C   0  0  2  0  0  0  0  0  0  0  0  0
   -0.5980   -2.3650   -0.2730 C   0  0  0  0  0  0  0  0  0  0  0  0
   -2.1550   -1.3690    1.3140 C   0  0  0  0  0  0  0  0  0  0  0  0
   -0.2660   -0.0540    0.5680 C   0  0  0  0  0  0  0  0  0  0  0  0
    0.8920    0.2840   -0.2730 C   0  0  1  0  0  0  0  0  0  0  0  0
    0.6120    0.7410   -1.5460 O   0  0  0  0  0  0  0  0  0  0  0  0
    1.5010    1.5550    0.3920 C   0  0  0  0  0  0  0  0  0  0  0  0
    2.8500    1.8940   -0.0900 C   0  0  0  0  0  0  0  0  0  0  0  0
    3.5810    0.8360   -0.7410 N   0  0  0  0  0  0  0  0  0  0  0  0
    3.3030   -0.3530    0.0360 C   0  0  0  0  0  0  0  0  0  0  0  0
    1.8930   -0.8010   -0.3460 C   0  0  0  0  0  0  0  0  0  0  0  0
  1  2  1  0
  2  3  1  0
  3  4  1  0
  4  5  1  6
  4  6  1  0
  4  7  1  0
  7  8  1  0
  8  9  1  6
  8 10  1  0
  8 14  1  0
 10 11  1  0
 11 12  1  0
 12 13  1  0
 13 14  1  0
M  END
