
     RDKit          3D

 15 15  0  0  0  0  0  0  0  0999 V2000
   -2.9290   -2.7910    0.7130 C   0  0  0  0  0  0  0  0  0  0  0  0
   -2.3020   -1.5430    0.7350 O   0  0  0  0  0  0  0  0  0  0  0  0
   -0.9500   -1.4260    0.4880 C   0  0  0  0  0  0  0  0  0  0  0  0
   -0.3100   -2.5040    0.2410 O   0  0  0  0  0  0  0  0  0  0  0  0
   -0.2560   -0.1020    0.5050 C   0  0  2  0  0  0  0  0  0  0  0  0
   -1.1750    0.8530    0.7920 O   0  0  0  0  0  0  0  0  0  0  0  0
   -0.9810    2.1100    0.3480 C   0  0  2  0  0  0  0  0  0  0  0  0
   -2.2580    2.7280   -0.0310 N   0  0  0  0  0  0  0  0  0  0  0  0
   -0.1220    2.2730   -0.7090 O   0  0  0  0  0  0  0  0  0  0  0  0
   -0.1060    1.1620   -1.5680 C   0  0  0  0  0  0  0  0  0  0  0  0
    0.5230    0.0490   -0.7360 C   0  0  1  0  0  0  0  0  0  0  0  0
    1.9830    0.3960   -0.5110 C   0  0  1  0  0  0  0  0  0  0  0  0
    2.1470    1.5910    0.1740 O   0  0  0  0  0  0  0  0  0  0  0  0
    2.7220   -0.6980    0.1890 C   0  0  0  0  0  0  0  0  0  0  0  0
    4.0800   -0.3330    0.2170 O   0  0  0  0  0  0  0  0  0  0  0  0
  1  2  1  0
  2  3  1  0
  3  4  2  0
  5  3  1  6
  5  6  1  0
  5 11  1  0
  6  7  1  0
  7  8  1  6
  7  9  1  0
  9 10  1  0
 11 10  1  6
 11 12  1  0
 12 13  1  1
 12 14  1  0
 14 15  1  0
M  END
