
     RDKit          3D

 14 14  0  0  0  0  0  0  0  0999 V2000
    3.1190   -0.6540   -0.9150 C   0  0  0  0  0  0  0  0  0  0  0  0
    2.4960    0.4490   -0.3620 O   0  0  0  0  0  0  0  0  0  0  0  0
    1.3450    0.0470    0.2780 C   0  0  1  0  0  0  0  0  0  0  0  0
    1.3870    0.3110    1.7720 C   0  0  0  0  0  0  0  0  0  0  0  0
    0.1180    0.2940    2.2810 O   0  0  0  0  0  0  0  0  0  0  0  0
   -0.7860   -0.4880    1.5670 C   0  0  0  0  0  0  0  0  0  0  0  0
   -1.0840    0.0120    0.1980 C   0  0  1  0  0  0  0  0  0  0  0  0
   -1.2160   -1.0760   -0.8510 C   0  0  0  0  0  0  0  0  0  0  0  0
   -2.2130   -1.9810   -0.5910 O   0  0  0  0  0  0  0  0  0  0  0  0
   -2.3150    0.8830    0.1140 C   0  0  0  0  0  0  0  0  0  0  0  0
   -3.4530    0.2470    0.5080 O   0  0  0  0  0  0  0  0  0  0  0  0
    0.1450    0.8240   -0.2430 C   0  0  2  0  0  0  0  0  0  0  0  0
    0.1770    0.9390   -1.6750 N   0  0  0  0  0  0  0  0  0  0  0  0
    0.0940    2.0340    0.4170 O   0  0  0  0  0  0  0  0  0  0  0  0
  1  2  1  0
  3  2  1  6
  3  4  1  0
  3 12  1  0
  4  5  1  0
  5  6  1  0
  6  7  1  0
  7  8  1  6
  7 10  1  0
  7 12  1  0
  8  9  1  0
 10 11  1  0
 12 13  1  6
 12 14  1  0
M  END
