
     RDKit          3D

 15 15  0  0  0  0  0  0  0  0999 V2000
   -2.1640   -2.9290   -2.4880 N   0  0  0  0  0  0  0  0  0  0  0  0
   -2.0410   -1.8040   -2.1720 C   0  0  0  0  0  0  0  0  0  0  0  0
   -1.8780   -0.3960   -1.8020 C   0  0  2  0  0  0  0  0  0  0  0  0
   -0.4450    0.0110   -1.8220 C   0  0  0  0  0  0  0  0  0  0  0  0
    0.1080    0.0020   -0.4060 C   0  0  1  0  0  0  0  0  0  0  0  0
   -0.1650   -1.1920    0.2060 O   0  0  0  0  0  0  0  0  0  0  0  0
    1.5610    0.2960   -0.3560 C   0  0  0  0  0  0  0  0  0  0  0  0
    2.0270    0.4170    0.9090 O   0  0  0  0  0  0  0  0  0  0  0  0
    1.9540   -0.6110    1.7780 C   0  0  0  0  0  0  0  0  0  0  0  0
    2.5400   -0.1540    3.0000 O   0  0  0  0  0  0  0  0  0  0  0  0
   -0.6640    1.1300    0.2960 C   0  0  2  0  0  0  0  0  0  0  0  0
   -0.0840    1.5440    1.4590 O   0  0  0  0  0  0  0  0  0  0  0  0
   -2.0520    0.6350    0.4330 C   0  0  0  0  0  0  0  0  0  0  0  0
   -2.7690    0.8740    1.4380 O   0  0  0  0  0  0  0  0  0  0  0  0
   -2.5560   -0.1250   -0.6080 O   0  0  0  0  0  0  0  0  0  0  0  0
  1  2  3  0
  3  2  1  1
  3  4  1  0
  3 15  1  0
  4  5  1  0
  5  6  1  1
  5  7  1  0
  5 11  1  0
  7  8  1  0
  8  9  1  0
  9 10  1  0
 11 12  1  1
 11 13  1  0
 13 14  2  0
 13 15  1  0
M  END
