
     RDKit          3D

 15 15  0  0  0  0  0  0  0  0999 V2000
    3.5690   -1.3820   -0.2070 C   0  0  0  0  0  0  0  0  0  0  0  0
    2.7730   -0.1390    0.0980 C   0  0  1  0  0  0  0  0  0  0  0  0
    3.4910    1.0140   -0.1070 O   0  0  0  0  0  0  0  0  0  0  0  0
    1.5210   -0.0620   -0.7900 C   0  0  0  0  0  0  0  0  0  0  0  0
    0.6460    0.7970    0.0990 C   0  0  1  0  0  0  0  0  0  0  0  0
   -0.7620    0.8330   -0.3550 C   0  0  0  0  0  0  0  0  0  0  0  0
   -0.9740    1.3510   -1.4400 O   0  0  0  0  0  0  0  0  0  0  0  0
   -1.8980    0.3030    0.3890 C   0  0  1  0  0  0  0  0  0  0  0  0
   -2.0150    0.8130    1.7370 N   0  0  0  0  0  0  0  0  0  0  0  0
   -3.0670    0.5060   -0.3320 O   0  0  0  0  0  0  0  0  0  0  0  0
   -3.6790   -0.6680   -0.7220 C   0  0  0  0  0  0  0  0  0  0  0  0
   -4.8300   -0.3280   -1.4300 O   0  0  0  0  0  0  0  0  0  0  0  0
    0.8070    0.1850    1.3570 O   0  0  0  0  0  0  0  0  0  0  0  0
    2.1400   -0.1960    1.4410 C   0  0  0  0  0  0  0  0  0  0  0  0
    2.7490   -0.5430    2.4840 O   0  0  0  0  0  0  0  0  0  0  0  0
  2  1  1  6
  2  3  1  0
  2  4  1  0
  2 14  1  0
  4  5  1  0
  5  6  1  6
  5 13  1  0
  6  7  2  0
  6  8  1  0
  8  9  1  1
  8 10  1  0
 10 11  1  0
 11 12  1  0
 13 14  1  0
 14 15  2  0
M  END
