
     RDKit          3D

 14 14  0  0  0  0  0  0  0  0999 V2000
    0.0840   -1.5800   -2.2760 O   0  0  0  0  0  0  0  0  0  0  0  0
    0.2810   -1.1240   -1.1020 C   0  0  0  0  0  0  0  0  0  0  0  0
    1.6430   -0.9730   -0.7340 N   0  0  0  0  0  0  0  0  0  0  0  0
    2.1890   -0.1290    0.3030 C   0  0  0  0  0  0  0  0  0  0  0  0
    1.3760    1.1450    0.3910 C   0  0  2  0  0  0  0  0  0  0  0  0
    2.1170    2.0030    1.2410 O   0  0  0  0  0  0  0  0  0  0  0  0
    0.1520    0.9760    0.9650 O   0  0  0  0  0  0  0  0  0  0  0  0
   -0.8800    0.6380    0.1570 C   0  0  1  0  0  0  0  0  0  0  0  0
   -1.0530    1.4890   -1.0690 C   0  0  0  0  0  0  0  0  0  0  0  0
   -1.2760    2.8400   -0.7150 O   0  0  0  0  0  0  0  0  0  0  0  0
   -0.9010   -0.8110   -0.2760 C   0  0  1  0  0  0  0  0  0  0  0  0
   -2.0790   -1.0270   -0.9900 O   0  0  0  0  0  0  0  0  0  0  0  0
   -0.9030   -1.6520    0.9940 C   0  0  0  0  0  0  0  0  0  0  0  0
   -1.9800   -1.3160    1.8000 O   0  0  0  0  0  0  0  0  0  0  0  0
  1  2  2  0
  2  3  1  0
  2 11  1  0
  3  4  1  0
  4  5  1  0
  5  6  1  1
  5  7  1  0
  7  8  1  0
  8  9  1  6
  8 11  1  0
  9 10  1  0
 11 12  1  6
 11 13  1  0
 13 14  1  0
M  END
