
     RDKit          3D

 14 14  0  0  0  0  0  0  0  0999 V2000
   -3.4540    0.0960   -1.2290 N   0  0  0  0  0  0  0  0  0  0  0  0
   -2.4770    0.6270   -0.2850 C   0  0  1  0  0  0  0  0  0  0  0  0
   -2.7810    0.1070    0.9670 O   0  0  0  0  0  0  0  0  0  0  0  0
   -1.9590   -0.6160    1.7930 C   0  0  0  0  0  0  0  0  0  0  0  0
   -0.7230   -0.8890    1.4250 C   0  0  0  0  0  0  0  0  0  0  0  0
    0.1490   -1.6230    2.2360 O   0  0  0  0  0  0  0  0  0  0  0  0
   -0.3150   -0.3820    0.1230 C   0  0  0  0  0  0  0  0  0  0  0  0
    1.0070   -0.6730   -0.2730 O   0  0  0  0  0  0  0  0  0  0  0  0
    1.9040    0.4250   -0.2410 C   0  0  1  0  0  0  0  0  0  0  0  0
    1.9520    0.8930    1.0650 O   0  0  0  0  0  0  0  0  0  0  0  0
    3.2740    0.0160   -0.7220 C   0  0  0  0  0  0  0  0  0  0  0  0
    3.7920   -0.9860    0.0780 O   0  0  0  0  0  0  0  0  0  0  0  0
   -1.1000    0.3140   -0.6770 C   0  0  0  0  0  0  0  0  0  0  0  0
   -0.5610    0.7330   -1.9020 O   0  0  0  0  0  0  0  0  0  0  0  0
  2  1  1  6
  2  3  1  0
  2 13  1  0
  3  4  1  0
  4  5  2  0
  5  6  1  0
  5  7  1  0
  7  8  1  0
  7 13  2  0
  8  9  1  0
  9 10  1  1
  9 11  1  0
 11 12  1  0
 13 14  1  0
M  END
