
     RDKit          3D

 15 15  0  0  0  0  0  0  0  0999 V2000
   -4.4760    0.6030    0.6120 C   0  0  0  0  0  0  0  0  0  0  0  0
   -3.1520    0.7570   -0.0000 C   0  0  0  0  0  0  0  0  0  0  0  0
   -3.0540    1.2560   -1.1740 O   0  0  0  0  0  0  0  0  0  0  0  0
   -1.9270    0.3940    0.6050 N   0  0  0  0  0  0  0  0  0  0  0  0
   -0.6220    0.5700   -0.0520 C   0  0  1  0  0  0  0  0  0  0  0  0
    0.2660    1.4420    0.7040 C   0  0  0  0  0  0  0  0  0  0  0  0
   -0.2120    2.3870    1.3730 O   0  0  0  0  0  0  0  0  0  0  0  0
    1.6250    1.2450    0.6970 O   0  0  0  0  0  0  0  0  0  0  0  0
    2.1250   -0.0670    0.5690 C   0  0  2  0  0  0  0  0  0  0  0  0
    3.6200   -0.1000    0.3760 C   0  0  0  0  0  0  0  0  0  0  0  0
    4.0370    0.5700   -0.7460 O   0  0  0  0  0  0  0  0  0  0  0  0
    1.4120   -0.7370   -0.5880 C   0  0  1  0  0  0  0  0  0  0  0  0
    1.8890   -2.0440   -0.6730 O   0  0  0  0  0  0  0  0  0  0  0  0
   -0.0450   -0.8250   -0.1770 C   0  0  2  0  0  0  0  0  0  0  0  0
   -0.7880   -1.6300   -1.0120 O   0  0  0  0  0  0  0  0  0  0  0  0
  1  2  1  0
  2  3  2  0
  2  4  1  0
  5  4  1  1
  5  6  1  0
  5 14  1  0
  6  7  2  0
  6  8  1  0
  8  9  1  0
  9 10  1  6
  9 12  1  0
 10 11  1  0
 12 13  1  1
 12 14  1  0
 14 15  1  6
M  END
