
     RDKit          3D

 15 15  0  0  0  0  0  0  0  0999 V2000
   -2.5150   -1.8780   -0.3020 N   0  0  0  0  0  0  0  0  0  0  0  0
   -1.4710   -1.0040   -0.8130 C   0  0  0  0  0  0  0  0  0  0  0  0
   -1.1120    0.0740    0.1780 C   0  0  1  0  0  0  0  0  0  0  0  0
   -2.2130    0.8740    0.4690 O   0  0  0  0  0  0  0  0  0  0  0  0
   -0.8300   -0.6600    1.4890 C   0  0  0  0  0  0  0  0  0  0  0  0
   -1.9950   -1.3760    1.7710 O   0  0  0  0  0  0  0  0  0  0  0  0
    0.0710    0.8540   -0.2920 C   0  0  1  0  0  0  0  0  0  0  0  0
   -0.2250    1.7980   -1.4320 C   0  0  0  0  0  0  0  0  0  0  0  0
   -0.5690    1.2030   -2.6120 O   0  0  0  0  0  0  0  0  0  0  0  0
    0.6800    1.7130    0.7930 C   0  0  0  0  0  0  0  0  0  0  0  0
    1.5470    0.8360    1.4250 O   0  0  0  0  0  0  0  0  0  0  0  0
    2.1480    0.2570    0.2810 C   0  0  1  0  0  0  0  0  0  0  0  0
    2.9420   -0.9160    0.7460 C   0  0  0  0  0  0  0  0  0  0  0  0
    3.5900   -1.5840   -0.2830 O   0  0  0  0  0  0  0  0  0  0  0  0
    1.1180   -0.0160   -0.5800 O   0  0  0  0  0  0  0  0  0  0  0  0
  1  2  1  0
  2  3  1  0
  3  4  1  1
  3  5  1  0
  3  7  1  0
  5  6  1  0
  7  8  1  6
  7 10  1  0
  7 15  1  0
  8  9  1  0
 10 11  1  0
 11 12  1  0
 12 13  1  1
 12 15  1  0
 13 14  1  0
M  END
