
     RDKit          3D

 15 15  0  0  0  0  0  0  0  0999 V2000
    4.3760    0.8790   -1.7570 C   0  0  0  0  0  0  0  0  0  0  0  0
    3.2520    0.3730   -1.0690 O   0  0  0  0  0  0  0  0  0  0  0  0
    3.3330   -0.5540   -0.0470 C   0  0  0  0  0  0  0  0  0  0  0  0
    4.4570   -0.9880    0.3110 O   0  0  0  0  0  0  0  0  0  0  0  0
    2.1220   -1.0510    0.6410 C   0  0  0  0  0  0  0  0  0  0  0  0
    0.9610   -0.4380    0.0880 O   0  0  0  0  0  0  0  0  0  0  0  0
   -0.3110   -0.6910    0.5120 C   0  0  0  0  0  0  0  0  0  0  0  0
   -0.5010   -1.5110    1.4450 O   0  0  0  0  0  0  0  0  0  0  0  0
   -1.4740   -0.0360   -0.0870 C   0  0  1  0  0  0  0  0  0  0  0  0
   -1.1550    0.8790   -1.1410 N   0  0  0  0  0  0  0  0  0  0  0  0
   -2.5050   -1.0090   -0.5850 C   0  0  0  0  0  0  0  0  0  0  0  0
   -3.7460   -0.4500   -0.4350 O   0  0  0  0  0  0  0  0  0  0  0  0
   -3.6330    0.7560    0.2020 C   0  0  0  0  0  0  0  0  0  0  0  0
   -2.3020    0.7310    0.9410 C   0  0  1  0  0  0  0  0  0  0  0  0
   -2.4700   -0.0170    2.0850 O   0  0  0  0  0  0  0  0  0  0  0  0
  1  2  1  0
  2  3  1  0
  3  4  2  0
  3  5  1  0
  5  6  1  0
  6  7  1  0
  7  8  2  0
  7  9  1  0
  9 10  1  6
  9 11  1  0
  9 14  1  0
 11 12  1  0
 12 13  1  0
 13 14  1  0
 14 15  1  1
M  END
