
     RDKit          3D

 10  9  0  0  0  0  0  0  0  0999 V2000
   -3.0080    0.0730    0.0760 C   0  0  0  0  0  0  0  0  0  0  0  0
   -1.7350    0.1710   -0.4570 O   0  0  0  0  0  0  0  0  0  0  0  0
   -0.7760   -0.4750    0.3030 C   0  0  0  0  0  0  0  0  0  0  0  0
    0.5480   -0.2790   -0.4050 C   0  0  1  0  0  0  0  0  0  0  0  0
    0.4090   -0.8500   -1.6740 O   0  0  0  0  0  0  0  0  0  0  0  0
    0.7740    1.1870   -0.5640 C   0  0  0  0  0  0  0  0  0  0  0  0
    0.9220    1.8210    0.6690 O   0  0  0  0  0  0  0  0  0  0  0  0
    1.6740   -0.9900    0.2960 C   0  0  2  0  0  0  0  0  0  0  0  0
    1.9060   -0.5070    1.5700 O   0  0  0  0  0  0  0  0  0  0  0  0
    2.8290   -0.8560   -0.4480 F   0  0  0  0  0  0  0  0  0  0  0  0
  1  2  1  0
  2  3  1  0
  3  4  1  0
  4  5  1  6
  4  6  1  0
  4  8  1  0
  6  7  1  0
  8  9  1  1
  8 10  1  0
M  END
