
     RDKit          3D

 15 15  0  0  0  0  0  0  0  0999 V2000
    1.6750   -2.1480    0.5120 C   0  0  0  0  0  0  0  0  0  0  0  0
    1.6960   -0.8910   -0.3110 C   0  0  2  0  0  0  0  0  0  0  0  0
    3.1130   -0.3520   -0.2600 C   0  0  0  0  0  0  0  0  0  0  0  0
    0.7990    0.1800    0.2350 C   0  0  1  0  0  0  0  0  0  0  0  0
    0.8320    1.4330   -0.5900 C   0  0  0  0  0  0  0  0  0  0  0  0
   -0.5080    1.7250   -1.0420 N   0  0  0  0  0  0  0  0  0  0  0  0
   -1.3710    1.1670   -0.0230 C   0  0  2  0  0  0  0  0  0  0  0  0
   -1.5070    2.0550    1.1250 C   0  0  0  0  0  0  0  0  0  0  0  0
   -2.2150    1.7380    2.1060 O   0  0  0  0  0  0  0  0  0  0  0  0
   -0.8500    3.2710    1.1480 O   0  0  0  0  0  0  0  0  0  0  0  0
   -0.6460   -0.1470    0.3320 C   0  0  1  0  0  0  0  0  0  0  0  0
   -1.1650   -1.1780   -0.5730 C   0  0  0  0  0  0  0  0  0  0  0  0
   -2.6120   -1.4450   -0.3890 C   0  0  0  0  0  0  0  0  0  0  0  0
   -3.2830   -0.8610    0.4850 O   0  0  0  0  0  0  0  0  0  0  0  0
   -3.2690   -2.3650   -1.1970 O   0  0  0  0  0  0  0  0  0  0  0  0
  2  1  1  1
  2  3  1  0
  2  4  1  0
  4  5  1  6
  4 11  1  0
  5  6  1  0
  6  7  1  0
  7  8  1  1
  7 11  1  0
  8  9  2  0
  8 10  1  0
 11 12  1  6
 12 13  1  0
 13 14  2  0
 13 15  1  0
M  CHG  1   6   1
M  END
