
     RDKit          3D

 10  9  0  0  0  0  0  0  0  0999 V2000
    2.9860   -0.5530    0.7940 O   0  0  0  0  0  0  0  0  0  0  0  0
    2.7210    0.5600    0.0080 C   0  0  0  0  0  0  0  0  0  0  0  0
    1.2360    0.9150    0.1520 C   0  0  0  0  0  0  0  0  0  0  0  0
    0.5350   -0.1740   -0.2750 O   0  0  0  0  0  0  0  0  0  0  0  0
   -0.8230   -0.0890   -0.2380 C   0  0  2  0  0  0  0  0  0  0  0  0
   -1.2860    0.9580   -1.0320 O   0  0  0  0  0  0  0  0  0  0  0  0
   -1.4120   -0.0100    1.1500 C   0  0  0  0  0  0  0  0  0  0  0  0
   -2.8130    0.0710    0.9730 O   0  0  0  0  0  0  0  0  0  0  0  0
   -1.3720   -1.3800   -0.8470 C   0  0  0  0  0  0  0  0  0  0  0  0
   -2.7560   -1.2690   -0.7970 F   0  0  0  0  0  0  0  0  0  0  0  0
  1  2  1  0
  2  3  1  0
  3  4  1  0
  4  5  1  0
  5  6  1  6
  5  7  1  0
  5  9  1  0
  7  8  1  0
  9 10  1  0
M  END
