
     RDKit          3D

 23 26  0  0  0  0  0  0  0  0999 V2000
    5.8120    0.7390   -1.8140 C   0  0  0  0  0  0  0  0  0  0  0  0
    4.8270   -0.3440   -1.5130 C   0  0  0  0  0  0  0  0  0  0  0  0
    3.5480    0.1840   -0.9950 N   0  0  0  0  0  0  0  0  0  0  0  0
    3.9090    0.7070    0.3310 C   0  0  0  0  0  0  0  0  0  0  0  0
    2.6690   -0.9240   -0.9540 C   0  0  0  0  0  0  0  0  0  0  0  0
    1.3380   -0.7000   -0.5080 N   0  0  0  0  0  0  0  0  0  0  0  0
    0.3420   -0.3600   -1.3770 C   0  0  0  0  0  0  0  0  0  0  0  0
    0.4600   -0.1930   -2.6320 O   0  0  0  0  0  0  0  0  0  0  0  0
   -0.8490   -0.2120   -0.7080 C   0  0  0  0  0  0  0  0  0  0  0  0
   -2.1170    0.1030   -1.0620 N   0  0  0  0  0  0  0  0  0  0  0  0
   -3.0970    0.1620   -0.1370 C   0  0  0  0  0  0  0  0  0  0  0  0
   -2.8230   -0.0980    1.1910 C   0  0  0  0  0  0  0  0  0  0  0  0
   -1.5460   -0.4070    1.5030 N   0  0  0  0  0  0  0  0  0  0  0  0
   -0.5500   -0.4750    0.6080 C   0  0  0  0  0  0  0  0  0  0  0  0
    0.7770   -0.7630    0.6770 N   0  0  0  0  0  0  0  0  0  0  0  0
    1.4620   -1.0970    1.8980 C   0  0  0  0  0  0  0  0  0  0  0  0
   -3.9610    0.0240    1.9050 N   0  0  0  0  0  0  0  0  0  0  0  0
   -4.9610    0.3550    1.0770 C   0  0  0  0  0  0  0  0  0  0  0  0
   -6.3060    0.5950    1.2930 C   0  0  0  0  0  0  0  0  0  0  0  0
   -7.0950    0.9200    0.2180 C   0  0  0  0  0  0  0  0  0  0  0  0
   -6.5500    1.0050   -1.0550 C   0  0  0  0  0  0  0  0  0  0  0  0
   -5.2430    0.7650   -1.2210 N   0  0  0  0  0  0  0  0  0  0  0  0
   -4.4480    0.4460   -0.1890 C   0  0  0  0  0  0  0  0  0  0  0  0
  1  2  1  0
  2  3  1  0
  3  4  1  0
  3  5  1  0
  5  6  1  0
  6  7  1  0
  6 15  1  0
  7  8  2  0
  7  9  1  0
  9 10  2  0
  9 14  1  0
 10 11  1  0
 11 12  2  0
 11 23  1  0
 12 13  1  0
 12 17  1  0
 13 14  2  0
 14 15  1  0
 15 16  1  0
 17 18  1  0
 18 19  2  0
 18 23  1  0
 19 20  1  0
 20 21  2  0
 21 22  1  0
 22 23  2  0
M  END
