
     RDKit          3D

 10  9  0  0  0  0  0  0  0  0999 V2000
   -1.2350   -1.1940   -0.3290 C   0  0  0  0  0  0  0  0  0  0  0  0
   -0.7020    0.2470   -0.4530 C   0  0  1  0  0  0  0  0  0  0  0  0
   -0.0180    0.2880   -1.6390 O   0  0  0  0  0  0  0  0  0  0  0  0
   -1.9850    1.1000   -0.5410 C   0  0  0  0  0  0  0  0  0  0  0  0
   -2.6370    1.0170    0.6990 O   0  0  0  0  0  0  0  0  0  0  0  0
   -0.0680    0.6490    0.6660 O   0  0  0  0  0  0  0  0  0  0  0  0
    1.0470    0.0530    1.1180 C   0  0  0  0  0  0  0  0  0  0  0  0
    2.2600    0.0300    0.2540 C   0  0  1  0  0  0  0  0  0  0  0  0
    3.2700   -0.6290    1.0140 O   0  0  0  0  0  0  0  0  0  0  0  0
    2.1530   -0.7360   -0.8880 F   0  0  0  0  0  0  0  0  0  0  0  0
  2  1  1  1
  2  3  1  0
  2  4  1  0
  2  6  1  0
  4  5  1  0
  6  7  1  0
  7  8  1  0
  8  9  1  1
  8 10  1  0
M  END
