
     RDKit          3D

 23 25  0  0  0  0  0  0  0  0999 V2000
   -4.1960   -1.3310   -4.5840 C   0  0  0  0  0  0  0  0  0  0  0  0
   -3.3480   -1.1470   -3.5920 C   0  0  0  0  0  0  0  0  0  0  0  0
   -1.9130   -1.5310   -3.5590 C   0  0  0  0  0  0  0  0  0  0  0  0
   -1.3820   -1.1920   -2.4080 N   0  0  0  0  0  0  0  0  0  0  0  0
   -2.3130   -0.5990   -1.6170 C   0  0  0  0  0  0  0  0  0  0  0  0
   -2.2350   -0.1070   -0.3690 N   0  0  0  0  0  0  0  0  0  0  0  0
   -1.2860   -0.0700    0.4200 N   0  0  0  0  0  0  0  0  0  0  0  0
   -0.2020    0.0590    0.9900 C   0  0  0  0  0  0  0  0  0  0  0  0
   -0.0080   -0.2390    2.3280 N   0  0  0  0  0  0  0  0  0  0  0  0
    1.2660   -0.0180    2.6300 C   0  0  0  0  0  0  0  0  0  0  0  0
    2.0330   -0.1500    3.7900 C   0  0  0  0  0  0  0  0  0  0  0  0
    3.3160    0.1520    3.7610 N   0  0  0  0  0  0  0  0  0  0  0  0
    3.9690    0.5830    2.6970 N   0  0  0  0  0  0  0  0  0  0  0  0
    5.3560    0.8980    2.7400 C   0  0  0  0  0  0  0  0  0  0  0  0
    5.6290    2.3050    3.1970 C   0  0  0  0  0  0  0  0  0  0  0  0
    3.2470    0.7160    1.5680 C   0  0  0  0  0  0  0  0  0  0  0  0
    3.8120    1.1110    0.5470 O   0  0  0  0  0  0  0  0  0  0  0  0
    1.9000    0.4230    1.5080 C   0  0  0  0  0  0  0  0  0  0  0  0
    1.0100    0.4700    0.5100 N   0  0  0  0  0  0  0  0  0  0  0  0
    1.1950    0.8590   -0.8690 C   0  0  0  0  0  0  0  0  0  0  0  0
   -3.6400   -0.5280   -2.3150 C   0  0  0  0  0  0  0  0  0  0  0  0
   -4.7160   -0.0570   -1.7720 C   0  0  0  0  0  0  0  0  0  0  0  0
   -6.0720    0.0010   -2.3110 C   0  0  0  0  0  0  0  0  0  0  0  0
  1  2  2  0
  2  3  1  0
  2 21  1  0
  3  4  2  0
  4  5  1  0
  5  6  2  3
  5 21  1  0
  6  7  1  0
  7  8  2  3
  8  9  1  0
  8 19  1  0
  9 10  1  0
 10 11  1  0
 10 18  2  0
 11 12  2  0
 12 13  1  0
 13 14  1  0
 13 16  1  0
 14 15  1  0
 16 17  2  0
 16 18  1  0
 18 19  1  0
 19 20  1  0
 21 22  2  3
 22 23  1  0
M  END
