
     RDKit          3D

 23 26  0  0  0  0  0  0  0  0999 V2000
   -4.1870   -1.3080   -1.6830 C   0  0  0  0  0  0  0  0  0  0  0  0
   -4.0660    0.1100   -1.2490 C   0  0  0  0  0  0  0  0  0  0  0  0
   -4.8520    1.0840   -1.7110 N   0  0  0  0  0  0  0  0  0  0  0  0
   -4.5030    2.1730   -1.1530 O   0  0  0  0  0  0  0  0  0  0  0  0
   -3.5090    1.9990   -0.3220 C   0  0  0  0  0  0  0  0  0  0  0  0
   -2.8450    3.0210    0.4980 C   0  0  0  0  0  0  0  0  0  0  0  0
   -3.1860    0.6770   -0.3470 C   0  0  0  0  0  0  0  0  0  0  0  0
   -2.1700   -0.1240    0.3510 C   0  0  2  0  0  0  0  0  0  0  0  0
   -1.3810    0.5640    1.3960 C   0  0  0  0  0  0  0  0  0  0  0  0
   -0.7980   -0.5440    2.2950 C   0  0  0  0  0  0  0  0  0  0  0  0
    0.0260   -1.4790    1.4180 C   0  0  0  0  0  0  0  0  0  0  0  0
    0.0600   -0.9360    0.0770 N   0  0  0  0  0  0  0  0  0  0  0  0
    1.2810   -0.5690   -0.5400 C   0  0  0  0  0  0  0  0  0  0  0  0
    2.5540   -0.6610   -0.0260 C   0  0  0  0  0  0  0  0  0  0  0  0
    3.4410   -0.1930   -0.9550 N   0  0  0  0  0  0  0  0  0  0  0  0
    4.8360   -0.1500   -0.7370 C   0  0  0  0  0  0  0  0  0  0  0  0
    5.7490    0.3520   -1.6390 C   0  0  0  0  0  0  0  0  0  0  0  0
    6.9520    0.2160   -1.0650 N   0  0  0  0  0  0  0  0  0  0  0  0
    6.8490   -0.3390    0.1380 N   0  0  0  0  0  0  0  0  0  0  0  0
    5.5430   -0.5740    0.3610 C   0  0  0  0  0  0  0  0  0  0  0  0
    2.7280    0.1630   -1.9840 N   0  0  0  0  0  0  0  0  0  0  0  0
    1.4270   -0.0480   -1.7720 N   0  0  0  0  0  0  0  0  0  0  0  0
   -1.1900   -0.7690   -0.6360 C   0  0  0  0  0  0  0  0  0  0  0  0
  1  2  1  0
  2  3  2  0
  2  7  1  0
  3  4  1  0
  4  5  1  0
  5  6  1  0
  5  7  2  0
  8  7  1  6
  8  9  1  0
  8 23  1  0
  9 10  1  0
 10 11  1  0
 11 12  1  0
 12 13  1  0
 12 23  1  0
 13 14  2  0
 13 22  1  0
 14 15  1  0
 15 16  1  0
 15 21  1  0
 16 17  1  0
 16 20  2  0
 17 18  2  0
 18 19  1  0
 19 20  1  0
 21 22  2  0
M  END
