
     RDKit          3D

 15 15  0  0  0  0  0  0  0  0999 V2000
    4.4120    0.4630    0.8650 C   0  0  0  0  0  0  0  0  0  0  0  0
    2.9970    0.4660    0.6300 O   0  0  0  0  0  0  0  0  0  0  0  0
    2.3970   -0.7050    0.1990 C   0  0  0  0  0  0  0  0  0  0  0  0
    3.1310   -1.7260    0.0320 O   0  0  0  0  0  0  0  0  0  0  0  0
    0.9560   -0.8480   -0.0820 C   0  0  1  0  0  0  0  0  0  0  0  0
    0.3180   -1.9460    0.7370 C   0  0  0  0  0  0  0  0  0  0  0  0
   -0.7020   -1.4040    1.5110 O   0  0  0  0  0  0  0  0  0  0  0  0
   -1.6640   -0.7660    0.7230 C   0  0  2  0  0  0  0  0  0  0  0  0
   -2.3880   -1.7280    0.0610 O   0  0  0  0  0  0  0  0  0  0  0  0
   -1.0330    0.1680   -0.2710 C   0  0  1  0  0  0  0  0  0  0  0  0
   -1.0210   -0.3930   -1.5790 N   0  0  0  0  0  0  0  0  0  0  0  0
   -1.7360    1.5040   -0.3350 C   0  0  2  0  0  0  0  0  0  0  0  0
   -1.7360    2.2050    1.0010 C   0  0  0  0  0  0  0  0  0  0  0  0
   -3.0310    1.2640   -0.7930 O   0  0  0  0  0  0  0  0  0  0  0  0
    0.3010    0.3610    0.1500 O   0  0  0  0  0  0  0  0  0  0  0  0
  1  2  1  0
  2  3  1  0
  3  4  2  0
  5  3  1  1
  5  6  1  0
  5 15  1  0
  6  7  1  0
  7  8  1  0
  8  9  1  6
  8 10  1  0
 10 11  1  6
 10 12  1  0
 10 15  1  0
 12 13  1  1
 12 14  1  0
M  END
