
     RDKit          3D

 15 15  0  0  0  0  0  0  0  0999 V2000
    3.3740    0.5480   -0.0610 O   0  0  0  0  0  0  0  0  0  0  0  0
    2.0670    0.1750    0.2770 C   0  0  2  0  0  0  0  0  0  0  0  0
    1.4510    1.1720    1.2340 C   0  0  0  0  0  0  0  0  0  0  0  0
    0.9620    2.3530    0.5840 N   0  0  0  0  0  0  0  0  0  0  0  0
   -0.2920    2.0290   -0.0520 C   0  0  2  0  0  0  0  0  0  0  0  0
   -0.8570    3.1850   -0.5940 O   0  0  0  0  0  0  0  0  0  0  0  0
   -1.1630    1.3390    0.7710 O   0  0  0  0  0  0  0  0  0  0  0  0
   -2.2960    1.0120    0.0640 C   0  0  0  0  0  0  0  0  0  0  0  0
   -2.5040   -0.4560   -0.1310 C   0  0  2  0  0  0  0  0  0  0  0  0
   -2.7610   -1.0270    1.1100 O   0  0  0  0  0  0  0  0  0  0  0  0
   -1.3340   -1.1640   -0.7340 C   0  0  0  0  0  0  0  0  0  0  0  0
   -0.3120   -1.3690    0.2080 O   0  0  0  0  0  0  0  0  0  0  0  0
    0.4480   -2.4890   -0.1050 C   0  0  0  0  0  0  0  0  0  0  0  0
    1.9010   -2.1280    0.0930 C   0  0  0  0  0  0  0  0  0  0  0  0
    2.0820   -1.0610    0.9490 O   0  0  0  0  0  0  0  0  0  0  0  0
  2  1  1  1
  2  3  1  0
  2 15  1  0
  3  4  1  0
  4  5  1  0
  5  6  1  1
  5  7  1  0
  7  8  1  0
  8  9  1  0
  9 10  1  1
  9 11  1  0
 11 12  1  0
 12 13  1  0
 13 14  1  0
 14 15  1  0
M  END
