
     RDKit          3D

 14 14  0  0  0  0  0  0  0  0999 V2000
    0.1280    1.3620    0.7350 N   0  0  0  0  0  0  0  0  0  0  0  0
   -0.0530    0.1970   -0.0660 C   0  0  1  0  0  0  0  0  0  0  0  0
    0.5960   -1.0040    0.5400 C   0  0  0  0  0  0  0  0  0  0  0  0
    2.0800   -0.7370    0.6730 C   0  0  1  0  0  0  0  0  0  0  0  0
    2.7010   -1.8530    1.2420 O   0  0  0  0  0  0  0  0  0  0  0  0
    2.6900   -0.5720   -0.5760 O   0  0  0  0  0  0  0  0  0  0  0  0
    3.2960    0.6650   -0.6020 C   0  0  0  0  0  0  0  0  0  0  0  0
    4.2700    0.8020    0.3920 O   0  0  0  0  0  0  0  0  0  0  0  0
   -1.4880   -0.0970   -0.3930 C   0  0  2  0  0  0  0  0  0  0  0  0
   -1.6170   -1.2290   -1.1660 O   0  0  0  0  0  0  0  0  0  0  0  0
   -2.1550    1.0410   -1.1440 C   0  0  0  0  0  0  0  0  0  0  0  0
   -3.6140    0.7080   -0.8050 C   0  0  0  0  0  0  0  0  0  0  0  0
   -3.5410    0.4790    0.5470 O   0  0  0  0  0  0  0  0  0  0  0  0
   -2.3670   -0.1870    0.8210 C   0  0  0  0  0  0  0  0  0  0  0  0
  2  1  1  1
  2  3  1  0
  2  9  1  0
  3  4  1  0
  4  5  1  6
  4  6  1  0
  6  7  1  0
  7  8  1  0
  9 10  1  6
  9 11  1  0
  9 14  1  0
 11 12  1  0
 12 13  1  0
 13 14  1  0
M  END
