
     RDKit          3D

 15 15  0  0  0  0  0  0  0  0999 V2000
   -0.0570   -2.1780   -0.8510 N   0  0  0  0  0  0  0  0  0  0  0  0
   -0.1510   -1.0060   -0.0020 C   0  0  1  0  0  0  0  0  0  0  0  0
    1.0470   -0.0940   -0.2230 C   0  0  2  0  0  0  0  0  0  0  0  0
    1.0040    0.2660   -1.5820 O   0  0  0  0  0  0  0  0  0  0  0  0
    2.3250   -0.8290    0.0510 C   0  0  0  0  0  0  0  0  0  0  0  0
    3.4580   -0.1040   -0.2150 O   0  0  0  0  0  0  0  0  0  0  0  0
    3.5970    1.0520    0.4930 C   0  0  1  0  0  0  0  0  0  0  0  0
    4.7430    0.9090    1.3100 O   0  0  0  0  0  0  0  0  0  0  0  0
    3.8010    2.1810   -0.2710 O   0  0  0  0  0  0  0  0  0  0  0  0
   -1.4500   -0.2820   -0.2900 C   0  0  1  0  0  0  0  0  0  0  0  0
   -2.5610   -1.2680   -0.0910 C   0  0  0  0  0  0  0  0  0  0  0  0
   -3.7530   -0.6870    0.3040 O   0  0  0  0  0  0  0  0  0  0  0  0
   -3.8350    0.6380   -0.0870 C   0  0  0  0  0  0  0  0  0  0  0  0
   -2.7550    1.4010    0.6180 C   0  0  0  0  0  0  0  0  0  0  0  0
   -1.5090    0.8170    0.5250 O   0  0  0  0  0  0  0  0  0  0  0  0
  2  1  1  6
  2  3  1  0
  2 10  1  0
  3  4  1  6
  3  5  1  0
  5  6  1  0
  6  7  1  0
  7  8  1  1
  7  9  1  0
 10 11  1  1
 10 15  1  0
 11 12  1  0
 12 13  1  0
 13 14  1  0
 14 15  1  0
M  END
