
     RDKit          3D

 14 14  0  0  0  0  0  0  0  0999 V2000
   -3.9430    2.1380   -0.3980 N   0  0  0  0  0  0  0  0  0  0  0  0
   -3.5790    0.8610   -0.1450 O   0  0  0  0  0  0  0  0  0  0  0  0
   -2.2270    0.6940   -0.5270 C   0  0  2  0  0  0  0  0  0  0  0  0
   -2.2870   -0.2330   -1.5940 O   0  0  0  0  0  0  0  0  0  0  0  0
   -1.4560    0.0830    0.5740 C   0  0  0  0  0  0  0  0  0  0  0  0
   -0.0160   -0.1690    0.3750 C   0  0  1  0  0  0  0  0  0  0  0  0
    0.4830   -0.7970    1.6900 C   0  0  0  0  0  0  0  0  0  0  0  0
    0.2440    0.0090    2.7750 O   0  0  0  0  0  0  0  0  0  0  0  0
    0.3300   -1.1950   -0.6760 C   0  0  0  0  0  0  0  0  0  0  0  0
    1.8200   -1.2520   -0.9120 C   0  0  0  0  0  0  0  0  0  0  0  0
    2.4590    0.0980   -0.9580 C   0  0  2  0  0  0  0  0  0  0  0  0
    3.8500   -0.0500   -0.8070 O   0  0  0  0  0  0  0  0  0  0  0  0
    1.9950    0.9410    0.2010 C   0  0  0  0  0  0  0  0  0  0  0  0
    0.6340    1.0220    0.2030 O   0  0  0  0  0  0  0  0  0  0  0  0
  1  2  1  0
  2  3  1  0
  3  4  1  6
  3  5  1  0
  6  5  1  1
  6  7  1  0
  6  9  1  0
  6 14  1  0
  7  8  1  0
  9 10  1  0
 10 11  1  0
 11 12  1  1
 11 13  1  0
 13 14  1  0
M  END
