
     RDKit          3D

 15 16  0  0  0  0  0  0  0  0999 V2000
    5.0560    0.1430   -0.2530 C   0  0  0  0  0  0  0  0  0  0  0  0
    3.7010    0.5230   -0.1500 O   0  0  0  0  0  0  0  0  0  0  0  0
    2.6670   -0.4010   -0.1860 C   0  0  0  0  0  0  0  0  0  0  0  0
    2.9780   -1.6120   -0.3160 O   0  0  0  0  0  0  0  0  0  0  0  0
    1.2670    0.0080   -0.0780 C   0  0  0  0  0  0  0  0  0  0  0  0
    0.7680    1.2850    0.0670 C   0  0  0  0  0  0  0  0  0  0  0  0
   -0.6140    1.2290    0.1310 C   0  0  0  0  0  0  0  0  0  0  0  0
   -0.9250   -0.1000    0.0210 C   0  0  0  0  0  0  0  0  0  0  0  0
    0.2140   -0.8280   -0.1050 N   0  0  0  0  0  0  0  0  0  0  0  0
   -2.3200   -0.4840    0.0540 C   0  0  0  0  0  0  0  0  0  0  0  0
   -2.6370   -1.9420   -0.0680 C   0  0  0  0  0  0  0  0  0  0  0  0
   -3.2990    0.3860    0.1840 C   0  0  0  0  0  0  0  0  0  0  0  0
   -4.9710   -0.1660    0.2150 Cl  0  0  0  0  0  0  0  0  0  0  0  0
   -3.0060    1.8380    0.3070 C   0  0  0  0  0  0  0  0  0  0  0  0
   -1.6490    2.1310    0.2670 O   0  0  0  0  0  0  0  0  0  0  0  0
  1  2  1  0
  2  3  1  0
  3  4  2  0
  3  5  1  0
  5  6  2  0
  5  9  1  0
  6  7  1  0
  7  8  2  0
  7 15  1  0
  8  9  1  0
  8 10  1  0
 10 11  1  0
 10 12  2  0
 12 13  1  0
 12 14  1  0
 14 15  1  0
M  END
