
     RDKit          3D

 16 16  0  0  0  0  0  0  0  0999 V2000
   -0.3500   -1.8200   -0.4580 C   0  0  0  0  0  0  0  0  0  0  0  0
   -0.1010   -0.4190   -0.0670 C   0  0  0  0  0  0  0  0  0  0  0  0
   -1.1760    0.3500    0.1030 C   0  0  0  0  0  0  0  0  0  0  0  0
   -2.5250   -0.1380   -0.0800 C   0  0  0  0  0  0  0  0  0  0  0  0
   -2.7140   -1.4800   -0.4500 O   0  0  0  0  0  0  0  0  0  0  0  0
   -3.6150    0.5500    0.0650 C   0  0  0  0  0  0  0  0  0  0  0  0
   -5.2010   -0.2480   -0.2100 Cl  0  0  0  0  0  0  0  0  0  0  0  0
   -1.0080    1.7380    0.4870 C   0  0  0  0  0  0  0  0  0  0  0  0
   -1.9760    2.5540    0.6730 O   0  0  0  0  0  0  0  0  0  0  0  0
    0.2710    2.3140    0.6910 N   0  0  0  0  0  0  0  0  0  0  0  0
    1.4210    1.5030    0.5130 C   0  0  0  0  0  0  0  0  0  0  0  0
    2.5480    2.0480    0.7030 O   0  0  0  0  0  0  0  0  0  0  0  0
    1.2620    0.1220    0.1320 C   0  0  0  0  0  0  0  0  0  0  0  0
    2.3090   -0.6520   -0.0380 C   0  0  0  0  0  0  0  0  0  0  0  0
    3.7140   -0.2920    0.1130 C   0  0  0  0  0  0  0  0  0  0  0  0
    4.6070   -0.5200   -1.4380 Cl  0  0  0  0  0  0  0  0  0  0  0  0
  1  2  1  0
  2  3  2  0
  2 13  1  0
  3  4  1  0
  3  8  1  0
  4  5  1  0
  4  6  2  3
  6  7  1  0
  8  9  2  0
  8 10  1  0
 10 11  1  0
 11 12  2  0
 11 13  1  0
 13 14  2  3
 14 15  1  0
 15 16  1  0
M  END
