
     RDKit          3D

 15 16  0  0  0  0  0  0  0  0999 V2000
    3.3460    2.6480    0.0030 O   0  0  0  0  0  0  0  0  0  0  0  0
    2.6820    1.5790    0.0860 C   0  0  0  0  0  0  0  0  0  0  0  0
    1.3050    1.5780   -0.0450 C   0  0  0  0  0  0  0  0  0  0  0  0
    0.5550    0.4190    0.0430 C   0  0  0  0  0  0  0  0  0  0  0  0
   -0.8190    0.4490   -0.0920 C   0  0  0  0  0  0  0  0  0  0  0  0
   -1.5490   -0.7070   -0.0030 C   0  0  0  0  0  0  0  0  0  0  0  0
   -2.9060   -0.6660   -0.1380 O   0  0  0  0  0  0  0  0  0  0  0  0
   -3.6930    0.4580   -0.3670 C   0  0  0  0  0  0  0  0  0  0  0  0
   -3.5120    1.6410    0.9420 Cl  0  0  0  0  0  0  0  0  0  0  0  0
   -0.8990   -1.8900    0.2210 C   0  0  0  0  0  0  0  0  0  0  0  0
   -1.8480   -3.3520    0.3310 Cl  0  0  0  0  0  0  0  0  0  0  0  0
    0.4940   -1.9270    0.3590 C   0  0  0  0  0  0  0  0  0  0  0  0
    1.2180   -0.7670    0.2690 C   0  0  0  0  0  0  0  0  0  0  0  0
    2.6110   -0.7510    0.3990 C   0  0  0  0  0  0  0  0  0  0  0  0
    3.3040    0.3950    0.3080 N   0  0  0  0  0  0  0  0  0  0  0  0
  1  2  2  0
  2  3  1  0
  2 15  1  0
  3  4  2  0
  4  5  1  0
  4 13  1  0
  5  6  2  0
  6  7  1  0
  6 10  1  0
  7  8  1  0
  8  9  1  0
 10 11  1  0
 10 12  2  0
 12 13  1  0
 13 14  2  0
 14 15  1  0
M  END
