
     RDKit          3D

 16 16  0  0  0  0  0  0  0  0999 V2000
    4.8930   -0.3860    0.2070 C   0  0  0  0  0  0  0  0  0  0  0  0
    3.5220    0.2740    0.2920 C   0  0  0  0  0  0  0  0  0  0  0  0
    3.5000    1.4370    0.6150 O   0  0  0  0  0  0  0  0  0  0  0  0
    2.3800   -0.4500    0.0080 N   0  0  0  0  0  0  0  0  0  0  0  0
    1.0230   -0.0700    0.0160 C   0  0  0  0  0  0  0  0  0  0  0  0
    0.4740    1.0760    0.2960 C   0  0  0  0  0  0  0  0  0  0  0  0
    1.4710    2.4410    0.7490 Cl  0  0  0  0  0  0  0  0  0  0  0  0
   -0.9710    1.3680    0.2730 C   0  0  0  0  0  0  0  0  0  0  0  0
   -1.4390    2.4770    0.5490 O   0  0  0  0  0  0  0  0  0  0  0  0
   -1.8750    0.2720   -0.0980 C   0  0  0  0  0  0  0  0  0  0  0  0
   -3.1680    0.4450   -0.1430 C   0  0  0  0  0  0  0  0  0  0  0  0
   -4.1820   -0.5320   -0.4890 C   0  0  0  0  0  0  0  0  0  0  0  0
   -3.6330    1.7410    0.1860 O   0  0  0  0  0  0  0  0  0  0  0  0
   -1.2320   -0.9910   -0.4040 C   0  0  0  0  0  0  0  0  0  0  0  0
   -2.2490   -2.3650   -0.8610 Cl  0  0  0  0  0  0  0  0  0  0  0  0
    0.0710   -1.1480   -0.3540 C   0  0  0  0  0  0  0  0  0  0  0  0
  1  2  1  0
  2  3  2  0
  2  4  1  0
  4  5  1  0
  5  6  2  0
  5 16  1  0
  6  7  1  0
  6  8  1  0
  8  9  2  0
  8 10  1  0
 10 11  2  3
 10 14  1  0
 11 12  1  0
 11 13  1  0
 14 15  1  0
 14 16  2  0
M  END
