
     RDKit          3D

 22 23  0  0  0  0  0  0  0  0999 V2000
   -4.2840    0.7950    1.5030 C   0  0  0  0  0  0  0  0  0  0  0  0
   -4.4480    1.1860   -0.2040 S   0  0  2  0  0  0  0  0  0  0  0  0
   -3.8650    2.5640   -0.4540 O   0  0  0  0  0  0  0  0  0  0  0  0
   -5.8920    1.2620   -0.5990 O   0  0  0  0  0  0  0  0  0  0  0  0
   -3.6390   -0.0120   -1.2090 C   0  0  0  0  0  0  0  0  0  0  0  0
   -4.2570   -0.7890   -2.1630 C   0  0  0  0  0  0  0  0  0  0  0  0
   -3.3470   -1.5770   -2.7250 N   0  0  0  0  0  0  0  0  0  0  0  0
   -2.1790   -1.3170   -2.1520 N   0  0  0  0  0  0  0  0  0  0  0  0
   -2.3200   -0.3630   -1.2190 C   0  0  0  0  0  0  0  0  0  0  0  0
   -1.2750    0.2040   -0.3660 C   0  0  0  0  0  0  0  0  0  0  0  0
    0.0230   -0.3540   -0.5910 N   0  0  0  0  0  0  0  0  0  0  0  0
    1.0370    0.2080    0.2480 C   0  0  0  0  0  0  0  0  0  0  0  0
    2.4010   -0.4030   -0.0040 C   0  0  0  0  0  0  0  0  0  0  0  0
    2.5950   -1.3220   -0.8810 C   0  0  0  0  0  0  0  0  0  0  0  0
    3.9590   -1.8580   -1.0550 C   0  0  0  0  0  0  0  0  0  0  0  0
    4.9340   -0.6770   -0.0920 S   0  0  0  0  0  0  0  0  0  0  0  0
    3.5380    0.0490    0.7560 C   0  0  0  0  0  0  0  0  0  0  0  0
    3.6340    0.8060    1.8230 C   0  0  0  0  0  0  0  0  0  0  0  0
    4.9030    1.1650    2.4690 C   0  0  2  0  0  0  0  0  0  0  0  0
    5.1570    2.4990    2.1750 F   0  0  0  0  0  0  0  0  0  0  0  0
    5.9460    0.3520    2.1250 F   0  0  0  0  0  0  0  0  0  0  0  0
    4.7500    1.0870    3.8550 F   0  0  0  0  0  0  0  0  0  0  0  0
  2  1  1  1
  2  3  2  0
  2  4  2  0
  2  5  1  0
  5  6  1  0
  5  9  2  0
  6  7  2  0
  7  8  1  0
  8  9  1  0
  9 10  1  0
 10 11  1  0
 11 12  1  0
 12 13  1  0
 13 14  2  0
 13 17  1  0
 14 15  1  0
 15 16  1  0
 16 17  1  0
 17 18  2  3
 18 19  1  0
 19 20  1  1
 19 21  1  0
 19 22  1  0
M  END
