
     RDKit          3D

 16 17  0  0  0  0  0  0  0  0999 V2000
   -3.9860   -1.3380   -0.3850 O   0  0  0  0  0  0  0  0  0  0  0  0
   -2.7530   -1.5870   -0.3940 C   0  0  0  0  0  0  0  0  0  0  0  0
   -1.7810   -0.5220   -0.1740 C   0  0  0  0  0  0  0  0  0  0  0  0
   -2.2200    0.7640    0.0450 C   0  0  0  0  0  0  0  0  0  0  0  0
   -3.9270    1.0920    0.0530 Cl  0  0  0  0  0  0  0  0  0  0  0  0
   -1.3470    1.8180    0.2600 C   0  0  0  0  0  0  0  0  0  0  0  0
   -1.9210    3.4490    0.5370 Cl  0  0  0  0  0  0  0  0  0  0  0  0
    0.0030    1.5340    0.2490 C   0  0  0  0  0  0  0  0  0  0  0  0
    0.4590    0.2410    0.0300 C   0  0  0  0  0  0  0  0  0  0  0  0
    1.7440   -0.2530   -0.0210 C   0  0  0  0  0  0  0  0  0  0  0  0
    2.9880    0.4880    0.1490 C   0  0  0  0  0  0  0  0  0  0  0  0
    4.1110   -0.0690    0.0820 O   0  0  0  0  0  0  0  0  0  0  0  0
    2.9640    1.8540    0.3940 O   0  0  0  0  0  0  0  0  0  0  0  0
    1.6000   -1.6020   -0.2680 C   0  0  0  0  0  0  0  0  0  0  0  0
    0.2940   -1.9180   -0.3630 N   0  0  0  0  0  0  0  0  0  0  0  0
   -0.4420   -0.8050   -0.1850 C   0  0  0  0  0  0  0  0  0  0  0  0
  1  2  2  0
  2  3  1  0
  3  4  2  0
  3 16  1  0
  4  5  1  0
  4  6  1  0
  6  7  1  0
  6  8  2  0
  8  9  1  0
  9 10  1  0
  9 16  2  0
 10 11  1  0
 10 14  2  0
 11 12  2  0
 11 13  1  0
 14 15  1  0
 15 16  1  0
M  END
