
     RDKit          3D

 25 31  0  0  0  0  0  0  0  0999 V2000
    1.8630    2.8150    1.4900 O   0  0  0  0  0  0  0  0  0  0  0  0
    1.6600    2.4980    0.1300 C   0  0  2  0  0  0  0  0  0  0  0  0
    0.5350    3.3010   -0.4340 C   0  0  0  0  0  0  0  0  0  0  0  0
   -0.7670    2.5660   -0.6270 C   0  0  2  0  0  0  0  0  0  0  0  0
   -1.4730    2.6900    0.5590 O   0  0  0  0  0  0  0  0  0  0  0  0
   -2.8110    2.4150    0.4830 C   0  0  0  0  0  0  0  0  0  0  0  0
   -2.9670    0.9290    0.5390 C   0  0  0  0  0  0  0  0  0  0  0  0
   -2.4860    0.0200   -0.2980 C   0  0  0  0  0  0  0  0  0  0  0  0
   -2.8260   -1.3850    0.0480 C   0  0  0  0  0  0  0  0  0  0  0  0
   -1.6990   -2.2730   -0.0680 N   0  0  2  0  0  0  0  0  0  0  0  0
   -1.0990   -2.6020    1.1930 C   0  0  0  0  0  0  0  0  0  0  0  0
   -0.0830   -1.5160    1.4800 C   0  0  0  0  0  0  0  0  0  0  0  0
    0.2940   -0.9600    0.0940 C   0  0  2  0  0  0  0  0  0  0  0  0
    1.7470   -1.1930   -0.0900 C   0  0  0  0  0  0  0  0  0  0  0  0
    2.4530   -2.3620   -0.2340 C   0  0  0  0  0  0  0  0  0  0  0  0
    3.8360   -2.3680   -0.3910 C   0  0  0  0  0  0  0  0  0  0  0  0
    4.5020   -1.1600   -0.4020 C   0  0  0  0  0  0  0  0  0  0  0  0
    3.7900   -0.0090   -0.2590 C   0  0  0  0  0  0  0  0  0  0  0  0
    2.4140   -0.0050   -0.1020 C   0  0  0  0  0  0  0  0  0  0  0  0
    1.5230    1.0890    0.0510 N   0  0  0  0  0  0  0  0  0  0  0  0
    0.1770    0.4990    0.1240 C   0  0  1  0  0  0  0  0  0  0  0  0
   -0.5130    1.1600   -1.0410 C   0  0  1  0  0  0  0  0  0  0  0  0
   -1.6560    0.3570   -1.5100 C   0  0  1  0  0  0  0  0  0  0  0  0
   -1.1070   -0.9650   -2.0130 C   0  0  0  0  0  0  0  0  0  0  0  0
   -0.5950   -1.7120   -0.8070 C   0  0  2  0  0  0  0  0  0  0  0  0
  2  1  1  1
  2  3  1  0
  2 20  1  0
  4  3  1  1
  4  5  1  0
 22  4  1  1
  5  6  1  0
  6  7  1  0
  7  8  2  0
  8  9  1  0
  8 23  1  0
 10  9  1  1
 10 11  1  0
 10 25  1  0
 11 12  1  0
 13 12  1  1
 13 14  1  0
 13 21  1  0
 13 25  1  0
 14 15  2  0
 14 19  1  0
 15 16  1  0
 16 17  2  0
 17 18  1  0
 18 19  2  0
 19 20  1  0
 21 20  1  6
 21 22  1  0
 22 23  1  0
 23 24  1  1
 25 24  1  6
M  CHG  1  10   1
M  END
