
     RDKit          3D

 45 48  0  0  0  0  0  0  0  0999 V2000
   10.1130    0.3000    0.1910 C   0  0  0  0  0  0  0  0  0  0  0  0
   10.1920    0.6740   -1.2300 C   0  0  0  0  0  0  0  0  0  0  0  0
    8.9930    0.3820   -2.0930 C   0  0  0  0  0  0  0  0  0  0  0  0
    7.8200    0.9230   -1.8410 O   0  0  0  0  0  0  0  0  0  0  0  0
    6.7930    1.0320   -1.0150 C   0  0  0  0  0  0  0  0  0  0  0  0
    5.7200    1.9100   -1.3410 C   0  0  0  0  0  0  0  0  0  0  0  0
    4.6520    2.0330   -0.5040 C   0  0  0  0  0  0  0  0  0  0  0  0
    4.5600    1.3320    0.6670 C   0  0  0  0  0  0  0  0  0  0  0  0
    3.3980    1.5300    1.5520 C   0  0  0  0  0  0  0  0  0  0  0  0
    2.1730    2.6370    0.8470 S   0  0  0  0  0  0  0  0  0  0  0  0
    1.2850    1.8840   -0.5320 C   0  0  0  0  0  0  0  0  0  0  0  0
    0.1350    1.1510   -0.4110 N   0  0  0  0  0  0  0  0  0  0  0  0
   -0.2520    0.7450   -1.6270 C   0  0  0  0  0  0  0  0  0  0  0  0
   -1.4320   -0.0670   -2.0030 C   0  0  0  0  0  0  0  0  0  0  0  0
   -2.4170   -0.0920   -0.9310 N   0  0  0  0  0  0  0  0  0  0  0  0
   -2.3350   -1.0880    0.0980 C   0  0  0  0  0  0  0  0  0  0  0  0
   -3.0860   -2.3270   -0.2120 C   0  0  0  0  0  0  0  0  0  0  0  0
   -3.7860   -2.4990   -1.3840 C   0  0  0  0  0  0  0  0  0  0  0  0
   -4.4760   -3.6670   -1.6550 C   0  0  0  0  0  0  0  0  0  0  0  0
   -4.4650   -4.6870   -0.7280 C   0  0  0  0  0  0  0  0  0  0  0  0
   -3.7750   -4.5450    0.4530 C   0  0  0  0  0  0  0  0  0  0  0  0
   -3.7440   -5.5490    1.4030 O   0  0  0  0  0  0  0  0  0  0  0  0
   -4.3990   -6.7790    1.2540 C   0  0  0  0  0  0  0  0  0  0  0  0
   -3.0920   -3.3620    0.6960 C   0  0  0  0  0  0  0  0  0  0  0  0
   -2.3970   -3.2060    1.8760 O   0  0  0  0  0  0  0  0  0  0  0  0
   -3.1200   -2.6430    2.9690 C   0  0  0  0  0  0  0  0  0  0  0  0
   -3.4740    0.8620   -0.8680 C   0  0  0  0  0  0  0  0  0  0  0  0
   -3.5300    1.7360   -1.7790 O   0  0  0  0  0  0  0  0  0  0  0  0
   -4.4890    0.8790    0.1870 C   0  0  0  0  0  0  0  0  0  0  0  0
   -5.4340    1.9690   -0.0240 N   0  0  0  0  0  0  0  0  0  0  0  0
   -5.1230    3.2160    0.5710 C   0  0  0  0  0  0  0  0  0  0  0  0
   -3.9190    3.4710    0.8630 O   0  0  0  0  0  0  0  0  0  0  0  0
   -6.2240    4.1740    0.8290 C   0  0  0  0  0  0  0  0  0  0  0  0
   -7.1670    4.2190   -0.3520 C   0  0  2  0  0  0  0  0  0  0  0  0
   -8.3040    5.1500    0.0050 C   0  0  0  0  0  0  0  0  0  0  0  0
   -7.6600    2.8480   -0.7320 C   0  0  0  0  0  0  0  0  0  0  0  0
   -6.6050    1.8320   -0.7800 C   0  0  0  0  0  0  0  0  0  0  0  0
   -6.7630    0.8210   -1.5180 O   0  0  0  0  0  0  0  0  0  0  0  0
    0.6700    1.2380   -2.4670 N   0  0  0  0  0  0  0  0  0  0  0  0
    1.5590    1.9010   -1.8020 O   0  0  0  0  0  0  0  0  0  0  0  0
    5.6020    0.4740    0.9900 C   0  0  0  0  0  0  0  0  0  0  0  0
    5.4990   -0.2220    2.1640 O   0  0  0  0  0  0  0  0  0  0  0  0
    6.4090   -1.1320    2.6790 C   0  0  0  0  0  0  0  0  0  0  0  0
    6.6640   -2.3440    1.8400 C   0  0  0  0  0  0  0  0  0  0  0  0
    6.6910    0.3320    0.1620 C   0  0  0  0  0  0  0  0  0  0  0  0
  1  2  1  0
  2  3  1  0
  3  4  1  0
  4  5  1  0
  5  6  2  0
  5 45  1  0
  6  7  1  0
  7  8  2  0
  8  9  1  0
  8 41  1  0
  9 10  1  0
 10 11  1  0
 11 12  2  0
 11 40  1  0
 12 13  1  0
 13 14  1  0
 13 39  2  0
 14 15  1  0
 15 16  1  0
 15 27  1  0
 16 17  1  0
 17 18  2  0
 17 24  1  0
 18 19  1  0
 19 20  2  0
 20 21  1  0
 21 22  1  0
 21 24  2  0
 22 23  1  0
 24 25  1  0
 25 26  1  0
 27 28  2  0
 27 29  1  0
 29 30  1  0
 30 31  1  0
 30 37  1  0
 31 32  2  0
 31 33  1  0
 33 34  1  0
 34 35  1  1
 34 36  1  0
 36 37  1  0
 37 38  2  0
 39 40  1  0
 41 42  1  0
 41 45  2  0
 42 43  1  0
 43 44  1  0
M  END
