
     RDKit          3D

 45 51  0  0  0  0  0  0  0  0999 V2000
    4.8090    2.8870   -3.7560 C   0  0  0  0  0  0  0  0  0  0  0  0
    4.0260    2.6510   -2.6380 O   0  0  0  0  0  0  0  0  0  0  0  0
    4.0840    1.4880   -1.8520 C   0  0  0  0  0  0  0  0  0  0  0  0
    5.0300    0.5830   -2.2770 C   0  0  0  0  0  0  0  0  0  0  0  0
    5.1180   -0.5560   -1.5460 C   0  0  0  0  0  0  0  0  0  0  0  0
    4.2890   -0.8210   -0.4050 C   0  0  0  0  0  0  0  0  0  0  0  0
    3.3720    0.1010   -0.0120 C   0  0  0  0  0  0  0  0  0  0  0  0
    3.2600    1.2720   -0.7460 C   0  0  0  0  0  0  0  0  0  0  0  0
    2.3910    2.3410   -0.5430 O   0  0  0  0  0  0  0  0  0  0  0  0
    1.0760    2.5470   -0.1240 C   0  0  0  0  0  0  0  0  0  0  0  0
   -0.1000    2.0210   -0.6530 C   0  0  0  0  0  0  0  0  0  0  0  0
   -1.2940    2.3650   -0.0640 C   0  0  0  0  0  0  0  0  0  0  0  0
   -1.2590    3.2400    1.0600 C   0  0  0  0  0  0  0  0  0  0  0  0
   -0.1190    3.7660    1.5920 C   0  0  0  0  0  0  0  0  0  0  0  0
    1.0520    3.4060    0.9800 C   0  0  0  0  0  0  0  0  0  0  0  0
    2.2150    3.9730    1.5520 O   0  0  0  0  0  0  0  0  0  0  0  0
   -2.7190    2.0560   -0.3980 C   0  0  0  0  0  0  0  0  0  0  0  0
   -3.4900    1.2500    0.6430 C   0  0  2  0  0  0  0  0  0  0  0  0
   -3.9210   -0.0970    0.1240 C   0  0  0  0  0  0  0  0  0  0  0  0
   -5.2120   -0.2110   -0.3000 C   0  0  0  0  0  0  0  0  0  0  0  0
   -5.7080   -1.3860   -0.7870 C   0  0  0  0  0  0  0  0  0  0  0  0
   -4.9240   -2.5070   -0.8670 C   0  0  0  0  0  0  0  0  0  0  0  0
   -5.4320   -3.7230   -1.3680 O   0  0  0  0  0  0  0  0  0  0  0  0
   -6.7610   -3.8260   -1.8040 C   0  0  0  0  0  0  0  0  0  0  0  0
   -3.6120   -2.4120   -0.4390 C   0  0  0  0  0  0  0  0  0  0  0  0
   -2.8770   -3.6270   -0.5550 O   0  0  0  0  0  0  0  0  0  0  0  0
   -3.0510   -1.2330    0.0660 C   0  0  0  0  0  0  0  0  0  0  0  0
   -1.8020   -1.1240    0.4750 O   0  0  0  0  0  0  0  0  0  0  0  0
   -0.5100   -1.5470    0.5680 C   0  0  0  0  0  0  0  0  0  0  0  0
    0.0930   -1.7980    1.7860 C   0  0  0  0  0  0  0  0  0  0  0  0
    1.4250   -2.2490    1.9300 C   0  0  0  0  0  0  0  0  0  0  0  0
    2.2120   -2.4650    0.8240 C   0  0  0  0  0  0  0  0  0  0  0  0
    1.6560   -2.2300   -0.4130 C   0  0  0  0  0  0  0  0  0  0  0  0
    0.3160   -1.7780   -0.5040 C   0  0  0  0  0  0  0  0  0  0  0  0
    3.6710   -2.9120    0.9410 C   0  0  0  0  0  0  0  0  0  0  0  0
    4.6120   -2.2160    0.0270 C   0  0  2  0  0  0  0  0  0  0  0  0
    5.9710   -2.3610    0.4090 N   0  0  2  0  0  0  0  0  0  0  0  0
    6.2700   -1.8830    1.7410 C   0  0  0  0  0  0  0  0  0  0  0  0
    6.8920   -1.8750   -0.5780 C   0  0  0  0  0  0  0  0  0  0  0  0
    6.1730   -1.5760   -1.8650 C   0  0  0  0  0  0  0  0  0  0  0  0
   -6.1570    0.9750   -0.1440 C   0  0  0  0  0  0  0  0  0  0  0  0
   -5.8580    1.3260    1.3000 C   0  0  0  0  0  0  0  0  0  0  0  0
   -4.5340    1.9890    1.2850 N   0  0  2  0  0  0  0  0  0  0  0  0
   -4.8590    3.2980    0.7910 C   0  0  0  0  0  0  0  0  0  0  0  0
   -4.2450    2.1200    2.7320 C   0  0  0  0  0  0  0  0  0  0  0  0
  1  2  1  0
  2  3  1  0
  3  4  2  0
  3  8  1  0
  4  5  1  0
  5  6  2  0
  5 40  1  0
  6  7  1  0
  6 36  1  0
  7  8  2  0
  8  9  1  0
  9 10  1  0
 10 11  2  0
 10 15  1  0
 11 12  1  0
 12 13  2  0
 12 17  1  0
 13 14  1  0
 14 15  2  0
 15 16  1  0
 18 17  1  6
 18 19  1  0
 18 43  1  0
 19 20  2  0
 19 27  1  0
 20 21  1  0
 20 41  1  0
 21 22  2  0
 22 23  1  0
 22 25  1  0
 23 24  1  0
 25 26  1  0
 25 27  2  0
 27 28  1  0
 28 29  1  0
 29 30  2  0
 29 34  1  0
 30 31  1  0
 31 32  2  0
 32 33  1  0
 32 35  1  0
 33 34  2  0
 36 35  1  1
 36 37  1  0
 37 38  1  1
 37 39  1  0
 39 40  1  0
 41 42  1  0
 42 43  1  0
 43 44  1  6
 43 45  1  0
M  CHG  2  37   1  43   1
M  END
