
     RDKit          3D

 45 48  0  0  0  0  0  0  0  0999 V2000
   -7.3150   -1.9270    0.4570 C   0  0  0  0  0  0  0  0  0  0  0  0
   -6.6480   -0.9200   -0.3460 N   0  0  0  0  0  0  0  0  0  0  0  0
   -6.9600    0.4470   -0.1850 C   0  0  0  0  0  0  0  0  0  0  0  0
   -8.1920    0.7160    0.4360 C   0  0  0  0  0  0  0  0  0  0  0  0
   -8.6810    1.9890    0.5030 C   0  0  0  0  0  0  0  0  0  0  0  0
   -7.9440    3.0170   -0.0490 C   0  0  0  0  0  0  0  0  0  0  0  0
   -8.4680    4.2900    0.0350 O   0  0  0  0  0  0  0  0  0  0  0  0
   -7.8090    5.4190   -0.4900 C   0  0  0  0  0  0  0  0  0  0  0  0
   -6.7390    2.7360   -0.6500 C   0  0  0  0  0  0  0  0  0  0  0  0
   -6.2160    1.4290   -0.7280 C   0  0  0  0  0  0  0  0  0  0  0  0
   -4.8850    1.2820   -1.2310 C   0  0  0  0  0  0  0  0  0  0  0  0
   -4.0270    0.3260   -0.9700 C   0  0  0  0  0  0  0  0  0  0  0  0
   -2.6880    0.2920   -1.5670 C   0  0  0  0  0  0  0  0  0  0  0  0
   -2.4240    1.2640   -2.3620 O   0  0  0  0  0  0  0  0  0  0  0  0
   -1.7120   -0.7210   -1.3210 N   0  0  0  0  0  0  0  0  0  0  0  0
   -0.4670   -0.6010   -2.0380 C   0  0  0  0  0  0  0  0  0  0  0  0
    0.5980    0.0600   -1.2780 C   0  0  0  0  0  0  0  0  0  0  0  0
    1.4500    0.9710   -1.8080 N   0  0  0  0  0  0  0  0  0  0  0  0
    2.2800    1.3320   -0.9030 O   0  0  0  0  0  0  0  0  0  0  0  0
    2.0400    0.7110    0.2310 C   0  0  0  0  0  0  0  0  0  0  0  0
    2.8420    0.9140    1.4900 C   0  0  0  0  0  0  0  0  0  0  0  0
    3.9500   -0.0640    1.5030 C   0  0  0  0  0  0  0  0  0  0  0  0
    3.5830   -1.2860    1.5930 O   0  0  0  0  0  0  0  0  0  0  0  0
    5.3490    0.2580    1.4240 C   0  0  0  0  0  0  0  0  0  0  0  0
    5.8250    1.4760    1.3240 C   0  0  0  0  0  0  0  0  0  0  0  0
    7.2300    1.7650    1.2450 C   0  0  0  0  0  0  0  0  0  0  0  0
    7.9620    2.6050    0.5110 C   0  0  0  0  0  0  0  0  0  0  0  0
    9.3000    2.6700    0.6550 C   0  0  0  0  0  0  0  0  0  0  0  0
    9.8940    1.8610    1.5650 C   0  0  0  0  0  0  0  0  0  0  0  0
    8.5120    0.9260    2.2930 S   0  0  0  0  0  0  0  0  0  0  0  0
    6.2760   -0.8050    1.4510 O   0  0  0  0  0  0  0  0  0  0  0  0
    6.9580   -1.0640    0.2460 C   0  0  0  0  0  0  0  0  0  0  0  0
    6.5190   -0.7500   -0.9660 C   0  0  0  0  0  0  0  0  0  0  0  0
    7.4890   -1.1710   -1.9850 C   0  0  0  0  0  0  0  0  0  0  0  0
    8.5900   -1.7890   -1.2060 C   0  0  0  0  0  0  0  0  0  0  0  0
    9.7750   -2.3540   -1.7270 O   0  0  0  0  0  0  0  0  0  0  0  0
    8.2480   -1.7080    0.0630 C   0  0  0  0  0  0  0  0  0  0  0  0
    0.9900   -0.0850    0.0070 N   0  0  0  0  0  0  0  0  0  0  0  0
   -2.0570   -1.7530   -0.3860 C   0  0  2  0  0  0  0  0  0  0  0  0
   -3.2650   -2.5040   -0.9450 C   0  0  0  0  0  0  0  0  0  0  0  0
   -2.3760   -1.1810    1.0000 C   0  0  0  0  0  0  0  0  0  0  0  0
   -1.0180   -2.7680   -0.1490 C   0  0  0  0  0  0  0  0  0  0  0  0
    0.0120   -2.8880   -0.8210 O   0  0  0  0  0  0  0  0  0  0  0  0
   -1.1630   -3.6840    0.9040 O   0  0  0  0  0  0  0  0  0  0  0  0
   -0.1950   -4.6740    1.1790 C   0  0  0  0  0  0  0  0  0  0  0  0
  1  2  1  0
  2  3  1  0
  3  4  2  0
  3 10  1  0
  4  5  1  0
  5  6  2  0
  6  7  1  0
  6  9  1  0
  7  8  1  0
  9 10  2  0
 10 11  1  0
 11 12  2  3
 12 13  1  0
 13 14  2  0
 13 15  1  0
 15 16  1  0
 15 39  1  0
 16 17  1  0
 17 18  2  0
 17 38  1  0
 18 19  1  0
 19 20  1  0
 20 21  1  0
 20 38  2  0
 21 22  1  0
 22 23  2  0
 22 24  1  0
 24 25  2  3
 24 31  1  0
 25 26  1  0
 26 27  2  0
 26 30  1  0
 27 28  1  0
 28 29  2  0
 29 30  1  0
 31 32  1  0
 32 33  2  0
 32 37  1  0
 33 34  1  0
 34 35  1  0
 35 36  1  0
 35 37  2  0
 39 40  1  6
 39 41  1  0
 39 42  1  0
 42 43  2  0
 42 44  1  0
 44 45  1  0
M  END
