
     RDKit          3D

 45 47  0  0  0  0  0  0  0  0999 V2000
   11.7460   -1.6280    1.2470 C   0  0  0  0  0  0  0  0  0  0  0  0
   11.5610   -0.3440    1.5200 C   0  0  0  0  0  0  0  0  0  0  0  0
   12.5630    0.6270    0.9910 C   0  0  0  0  0  0  0  0  0  0  0  0
   10.3930    0.0680    2.3200 C   0  0  0  0  0  0  0  0  0  0  0  0
    9.5700    0.9510    1.5930 O   0  0  0  0  0  0  0  0  0  0  0  0
    9.0200    0.4680    0.3820 C   0  0  0  0  0  0  0  0  0  0  0  0
    9.3080   -0.6880    0.0670 O   0  0  0  0  0  0  0  0  0  0  0  0
    8.1730    1.3430   -0.3960 C   0  0  0  0  0  0  0  0  0  0  0  0
    7.3260    0.7810   -1.4510 C   0  0  0  0  0  0  0  0  0  0  0  0
    6.2340   -0.0940   -1.0340 N   0  0  0  0  0  0  0  0  0  0  0  0
    6.5040   -1.4280   -0.5840 C   0  0  0  0  0  0  0  0  0  0  0  0
    5.3400   -2.3680   -0.5440 C   0  0  0  0  0  0  0  0  0  0  0  0
    4.9150    0.4940   -1.0430 C   0  0  0  0  0  0  0  0  0  0  0  0
    4.6740    1.7310   -1.5530 C   0  0  0  0  0  0  0  0  0  0  0  0
    3.3990    2.2660   -1.4940 C   0  0  0  0  0  0  0  0  0  0  0  0
    2.3620    1.5280   -0.9070 C   0  0  0  0  0  0  0  0  0  0  0  0
    2.6330    0.2850   -0.4010 C   0  0  0  0  0  0  0  0  0  0  0  0
    1.5720   -0.5640    0.2040 C   0  0  0  0  0  0  0  0  0  0  0  0
    0.3440   -0.1310    0.1020 C   0  0  0  0  0  0  0  0  0  0  0  0
   -0.8310   -0.7790    0.6120 C   0  0  0  0  0  0  0  0  0  0  0  0
   -0.8290   -1.8530    1.2340 O   0  0  0  0  0  0  0  0  0  0  0  0
   -2.1320   -0.1350    0.3900 N   0  0  0  0  0  0  0  0  0  0  0  0
   -3.2800   -0.7920    0.8920 C   0  0  0  0  0  0  0  0  0  0  0  0
   -4.5140   -0.2890    0.1910 C   0  0  0  0  0  0  0  0  0  0  0  0
   -4.5330    1.1740    0.2690 N   0  0  0  0  0  0  0  0  0  0  0  0
   -6.0180    1.6650   -0.5210 S   0  0  1  0  0  0  0  0  0  0  0  0
   -6.0210    3.1710   -0.4640 O   0  0  0  0  0  0  0  0  0  0  0  0
   -5.9370    1.1880   -1.9170 O   0  0  0  0  0  0  0  0  0  0  0  0
   -7.3430    0.9790    0.3550 C   0  0  0  0  0  0  0  0  0  0  0  0
   -7.8940    1.6350    1.3540 C   0  0  0  0  0  0  0  0  0  0  0  0
   -9.0060    1.0340    2.0710 C   0  0  0  0  0  0  0  0  0  0  0  0
   -9.5480    1.6440    3.0280 O   0  0  0  0  0  0  0  0  0  0  0  0
   -9.4720   -0.2160    1.6990 O   0  0  0  0  0  0  0  0  0  0  0  0
  -10.5420   -0.7950    2.3880 C   0  0  0  0  0  0  0  0  0  0  0  0
   -7.8400   -0.2660    0.0180 O   0  0  0  0  0  0  0  0  0  0  0  0
   -8.3580   -0.4610   -1.2620 C   0  0  2  0  0  0  0  0  0  0  0  0
   -9.5160    0.4230   -1.6220 C   0  0  0  0  0  0  0  0  0  0  0  0
  -10.5180   -0.4310   -2.3790 C   0  0  0  0  0  0  0  0  0  0  0  0
   -9.7230   -1.6780   -2.7290 C   0  0  0  0  0  0  0  0  0  0  0  0
   -8.9450   -1.8650   -1.4250 C   0  0  0  0  0  0  0  0  0  0  0  0
   -3.4700    1.6860   -0.5280 C   0  0  0  0  0  0  0  0  0  0  0  0
   -2.1300    1.0990   -0.3040 C   0  0  0  0  0  0  0  0  0  0  0  0
    1.9090   -1.8290    0.8540 C   0  0  0  0  0  0  0  0  0  0  0  0
    2.5990   -1.6280    2.1720 C   0  0  0  0  0  0  0  0  0  0  0  0
    3.8780   -0.1770   -0.4870 N   0  0  0  0  0  0  0  0  0  0  0  0
  1  2  2  0
  2  3  1  0
  2  4  1  0
  4  5  1  0
  5  6  1  0
  6  7  2  0
  6  8  1  0
  8  9  1  0
  9 10  1  0
 10 11  1  0
 10 13  1  0
 11 12  1  0
 13 14  2  0
 13 45  1  0
 14 15  1  0
 15 16  2  0
 16 17  1  0
 17 18  1  0
 17 45  2  0
 18 19  2  3
 18 43  1  0
 19 20  1  0
 20 21  2  0
 20 22  1  0
 22 23  1  0
 22 42  1  0
 23 24  1  0
 24 25  1  0
 26 25  1  1
 25 41  1  0
 26 27  2  0
 26 28  2  0
 26 29  1  0
 29 30  2  3
 29 35  1  0
 30 31  1  0
 31 32  2  0
 31 33  1  0
 33 34  1  0
 36 35  1  1
 36 37  1  0
 36 40  1  0
 37 38  1  0
 38 39  1  0
 39 40  1  0
 41 42  1  0
 43 44  1  0
M  END
