
     RDKit          3D

 35 38  0  0  0  0  0  0  0  0999 V2000
    1.7650    3.6120   -2.1210 C   0  0  0  0  0  0  0  0  0  0  0  0
    1.5790    2.2150   -2.6710 C   0  0  0  0  0  0  0  0  0  0  0  0
    0.5700    1.5060   -1.7650 C   0  0  2  0  0  0  0  0  0  0  0  0
    1.1270    1.4450   -0.3760 C   0  0  0  0  0  0  0  0  0  0  0  0
    0.2080    2.0720    0.6910 C   0  0  0  0  0  0  0  0  0  0  0  0
    0.2000    1.5030    1.8840 C   0  0  0  0  0  0  0  0  0  0  0  0
    1.0180    0.3440    2.2700 C   0  0  0  0  0  0  0  0  0  0  0  0
    2.0080   -0.4280    1.8950 C   0  0  0  0  0  0  0  0  0  0  0  0
    2.9580   -0.6920    0.8820 C   0  0  0  0  0  0  0  0  0  0  0  0
    2.8950   -1.4220   -0.2740 C   0  0  0  0  0  0  0  0  0  0  0  0
    4.1660   -1.4480   -1.0850 C   0  0  0  0  0  0  0  0  0  0  0  0
    5.2360   -0.7710   -0.5700 O   0  0  0  0  0  0  0  0  0  0  0  0
    6.5210   -0.6940   -0.9960 C   0  0  0  0  0  0  0  0  0  0  0  0
    4.2730   -2.0720   -2.2210 C   0  0  0  0  0  0  0  0  0  0  0  0
    5.8050   -2.0580   -3.1020 Cl  0  0  0  0  0  0  0  0  0  0  0  0
    2.9450   -2.9120   -3.0200 Cl  0  0  0  0  0  0  0  0  0  0  0  0
    1.7150   -2.1640   -0.7200 C   0  0  0  0  0  0  0  0  0  0  0  0
    1.9210   -3.4540   -0.6620 O   0  0  0  0  0  0  0  0  0  0  0  0
    0.5210   -1.8040   -1.1540 O   0  0  0  0  0  0  0  0  0  0  0  0
   -0.3820   -0.8900   -1.5810 C   0  0  2  0  0  0  0  0  0  0  0  0
    0.3320    0.1610   -2.4010 C   0  0  0  0  0  0  0  0  0  0  0  0
   -1.2820   -0.3990   -0.5540 C   0  0  0  0  0  0  0  0  0  0  0  0
   -2.6810   -0.6560   -0.2860 C   0  0  1  0  0  0  0  0  0  0  0  0
   -3.7250   -0.0570   -1.1670 C   0  0  0  0  0  0  0  0  0  0  0  0
   -3.7520    1.4370   -1.2390 C   0  0  0  0  0  0  0  0  0  0  0  0
   -3.1420   -1.9940    0.2000 C   0  0  1  0  0  0  0  0  0  0  0  0
   -2.2490   -2.6890    0.9660 O   0  0  0  0  0  0  0  0  0  0  0  0
   -2.8050   -3.0110    2.1810 C   0  0  0  0  0  0  0  0  0  0  0  0
   -4.0530   -2.1840    2.3500 C   0  0  0  0  0  0  0  0  0  0  0  0
   -3.9910   -1.1680    1.2130 C   0  0  1  0  0  0  0  0  0  0  0  0
   -2.8170   -0.2960    1.2440 C   0  0  2  0  0  0  0  0  0  0  0  0
   -2.7410    1.0100    1.5410 O   0  0  0  0  0  0  0  0  0  0  0  0
   -2.2330    1.7260    2.6020 C   0  0  0  0  0  0  0  0  0  0  0  0
   -3.0810    2.2810    3.3980 O   0  0  0  0  0  0  0  0  0  0  0  0
   -0.8270    1.9480    2.9500 C   0  0  0  0  0  0  0  0  0  0  0  0
  1  2  1  0
  3  2  1  6
  3  4  1  0
  3 21  1  0
  4  5  1  0
  5  6  2  0
  6  7  1  0
  6 35  1  0
  7  8  2  0
  8  9  1  0
  9 10  2  0
 10 11  1  0
 10 17  1  0
 11 12  1  0
 11 14  2  3
 12 13  1  0
 14 15  1  0
 14 16  1  0
 17 18  2  0
 17 19  1  0
 19 20  1  0
 20 21  1  0
 20 22  1  1
 22 23  1  0
 23 24  1  6
 23 26  1  0
 23 31  1  0
 24 25  1  0
 26 27  1  1
 26 30  1  0
 27 28  1  0
 28 29  1  0
 30 29  1  1
 30 31  1  0
 31 32  1  6
 32 33  1  0
 33 34  2  0
 33 35  1  0
M  END
