
     RDKit          3D

 35 39  0  0  0  0  0  0  0  0999 V2000
   -4.9640   -1.7710    3.7930 C   0  0  0  0  0  0  0  0  0  0  0  0
   -4.1090   -1.1690    2.7090 C   0  0  0  0  0  0  0  0  0  0  0  0
   -2.9050   -0.7770    3.0410 C   0  0  0  0  0  0  0  0  0  0  0  0
   -1.9950   -0.1740    2.0450 C   0  0  0  0  0  0  0  0  0  0  0  0
   -0.8390    0.2210    2.3090 O   0  0  0  0  0  0  0  0  0  0  0  0
   -2.5520   -0.0610    0.6910 C   0  0  0  0  0  0  0  0  0  0  0  0
   -1.8170   -0.1740   -0.3700 C   0  0  0  0  0  0  0  0  0  0  0  0
   -0.3600   -0.4360   -0.3240 C   0  0  0  0  0  0  0  0  0  0  0  0
    0.2500   -0.6110    0.7430 O   0  0  0  0  0  0  0  0  0  0  0  0
    0.2900   -0.4770   -1.4930 O   0  0  0  0  0  0  0  0  0  0  0  0
    1.5960   -0.6760   -1.8350 C   0  0  0  0  0  0  0  0  0  0  0  0
    2.6410    0.2700   -1.4550 C   0  0  0  0  0  0  0  0  0  0  0  0
    3.0650    0.5360   -0.0630 C   0  0  2  0  0  0  0  0  0  0  0  0
    4.1060    1.6870   -0.2210 C   0  0  1  0  0  0  0  0  0  0  0  0
    4.1730    2.7390    1.1620 Cl  0  0  0  0  0  0  0  0  0  0  0  0
    5.3180    1.0020   -0.6460 C   0  0  1  0  0  0  0  0  0  0  0  0
    6.3790    0.5350    0.2800 C   0  0  2  0  0  0  0  0  0  0  0  0
    6.6390    1.3710    1.4840 C   0  0  0  0  0  0  0  0  0  0  0  0
    7.7130    0.2740   -0.4530 C   0  0  0  0  0  0  0  0  0  0  0  0
    5.3220   -0.3840    0.0250 C   0  0  2  0  0  0  0  0  0  0  0  0
    5.7040   -1.7450   -1.1050 Cl  0  0  0  0  0  0  0  0  0  0  0  0
    3.9490   -0.4850    0.5910 C   0  0  2  0  0  0  0  0  0  0  0  0
    3.4170   -1.8820    0.3780 C   0  0  0  0  0  0  0  0  0  0  0  0
    3.9170   -0.3390    2.1100 C   0  0  0  0  0  0  0  0  0  0  0  0
   -2.4180   -0.0410   -1.6100 O   0  0  0  0  0  0  0  0  0  0  0  0
   -3.7410    0.1990   -1.7520 C   0  0  0  0  0  0  0  0  0  0  0  0
   -4.5370    0.3170   -0.7120 C   0  0  0  0  0  0  0  0  0  0  0  0
   -5.9640    0.5820   -0.9860 C   0  0  2  0  0  0  0  0  0  0  0  0
   -6.4960   -0.6190   -1.5060 O   0  0  0  0  0  0  0  0  0  0  0  0
   -6.1290    1.6440   -2.0230 C   0  0  0  0  0  0  0  0  0  0  0  0
   -5.1370    1.5970   -3.1350 C   0  0  0  0  0  0  0  0  0  0  0  0
   -4.3030    0.3330   -3.1530 C   0  0  0  0  0  0  0  0  0  0  0  0
   -4.0200    0.1560    0.6610 C   0  0  1  0  0  0  0  0  0  0  0  0
   -4.6230   -1.0480    1.3500 C   0  0  2  0  0  0  0  0  0  0  0  0
   -6.0110   -1.0270    1.3260 O   0  0  0  0  0  0  0  0  0  0  0  0
  1  2  1  0
  2  3  2  0
  2 34  1  0
  3  4  1  0
  4  5  2  0
  4  6  1  0
  6  7  2  0
  6 33  1  0
  7  8  1  0
  7 25  1  0
  8  9  2  0
  8 10  1  0
 10 11  1  0
 11 12  1  0
 13 12  1  6
 13 14  1  0
 13 22  1  0
 14 15  1  1
 16 14  1  1
 16 17  1  0
 16 20  1  0
 17 18  1  1
 17 19  1  0
 17 20  1  0
 20 21  1  6
 20 22  1  0
 22 23  1  1
 22 24  1  0
 25 26  1  0
 26 27  2  0
 26 32  1  0
 27 28  1  0
 33 27  1  6
 28 29  1  6
 28 30  1  0
 30 31  1  0
 31 32  1  0
 33 34  1  0
 34 35  1  1
M  END
