
     RDKit          3D

 34 37  0  0  0  0  0  0  0  0999 V2000
   -7.7310   -2.2330    1.8370 C   0  0  0  0  0  0  0  0  0  0  0  0
   -6.6190   -1.3510    1.4560 C   0  0  0  0  0  0  0  0  0  0  0  0
   -6.7650   -0.5260    0.4280 C   0  0  0  0  0  0  0  0  0  0  0  0
   -5.7880    0.4080   -0.0890 C   0  0  0  0  0  0  0  0  0  0  0  0
   -6.2900    1.0480   -1.1560 C   0  0  0  0  0  0  0  0  0  0  0  0
   -5.3400    2.0440   -1.7620 C   0  0  0  0  0  0  0  0  0  0  0  0
   -4.0720    1.2650   -2.0450 C   0  0  0  0  0  0  0  0  0  0  0  0
   -3.5030    0.6760   -0.8420 N   0  0  1  0  0  0  0  0  0  0  0  0
   -2.2460    1.3210   -0.6030 C   0  0  0  0  0  0  0  0  0  0  0  0
   -1.0690    0.3670   -0.6940 C   0  0  2  0  0  0  0  0  0  0  0  0
   -0.9570   -0.2830   -2.0370 C   0  0  0  0  0  0  0  0  0  0  0  0
   -1.1580   -0.7200    0.3830 C   0  0  0  0  0  0  0  0  0  0  0  0
   -0.7160   -0.1440    1.7190 C   0  0  0  0  0  0  0  0  0  0  0  0
    0.8050    0.0400    1.7350 C   0  0  0  0  0  0  0  0  0  0  0  0
    1.1680    0.2940    0.3590 N   0  0  0  0  0  0  0  0  0  0  0  0
    2.3260   -0.1490   -0.2730 C   0  0  0  0  0  0  0  0  0  0  0  0
    2.4320    0.1690   -1.5200 O   0  0  0  0  0  0  0  0  0  0  0  0
    3.4580   -0.9280    0.2610 C   0  0  1  0  0  0  0  0  0  0  0  0
    4.1320   -0.3780    1.4600 C   0  0  0  0  0  0  0  0  0  0  0  0
    4.7170    0.9820    1.3120 C   0  0  0  0  0  0  0  0  0  0  0  0
    5.7560    1.2200    0.3640 N   0  0  1  0  0  0  0  0  0  0  0  0
    6.6590    0.1800    0.0590 C   0  0  0  0  0  0  0  0  0  0  0  0
    6.9160   -0.1190   -1.3900 C   0  0  0  0  0  0  0  0  0  0  0  0
    5.9730    0.4010   -2.2620 O   0  0  0  0  0  0  0  0  0  0  0  0
    5.9270    1.7540   -2.0570 C   0  0  0  0  0  0  0  0  0  0  0  0
    5.3270    2.0570   -0.7380 C   0  0  0  0  0  0  0  0  0  0  0  0
    3.1540   -2.3840    0.3560 C   0  0  0  0  0  0  0  0  0  0  0  0
    4.4880   -3.3490    1.0420 S   0  0  0  0  0  0  0  0  0  0  0  0
    4.7280   -3.2200    2.8040 C   0  0  0  0  0  0  0  0  0  0  0  0
    0.2160    1.1090   -0.4070 C   0  0  0  0  0  0  0  0  0  0  0  0
   -4.4020    0.7980    0.2920 C   0  0  0  0  0  0  0  0  0  0  0  0
   -7.6000    0.5940   -1.4150 N   0  0  0  0  0  0  0  0  0  0  0  0
   -7.9790   -0.3840   -0.4250 C   0  0  2  0  0  0  0  0  0  0  0  0
   -9.0060    0.0250    0.3910 F   0  0  0  0  0  0  0  0  0  0  0  0
  1  2  1  0
  2  3  2  3
  3  4  1  0
  3 33  1  0
  4  5  2  0
  4 31  1  0
  5  6  1  0
  5 32  1  0
  6  7  1  0
  7  8  1  0
  8  9  1  1
  8 31  1  0
  9 10  1  0
 10 11  1  6
 10 12  1  0
 10 30  1  0
 12 13  1  0
 13 14  1  0
 14 15  1  0
 15 16  1  0
 15 30  1  0
 16 17  2  0
 16 18  1  0
 18 19  1  1
 18 27  1  0
 19 20  1  0
 21 20  1  6
 21 22  1  0
 21 26  1  0
 22 23  1  0
 23 24  1  0
 24 25  1  0
 25 26  1  0
 27 28  1  0
 28 29  1  0
 32 33  1  0
 33 34  1  1
M  CHG  2   8   1  21   1
M  END
