
     RDKit          3D

 33 37  0  0  0  0  0  0  0  0999 V2000
   -3.8590   -0.7100   -1.3900 C   0  0  0  0  0  0  0  0  0  0  0  0
   -2.4420   -0.3170   -1.2140 C   0  0  0  0  0  0  0  0  0  0  0  0
   -2.1630    1.0330   -1.0930 C   0  0  0  0  0  0  0  0  0  0  0  0
   -0.8620    1.4460   -0.9280 C   0  0  0  0  0  0  0  0  0  0  0  0
   -0.5080    2.7700   -0.8010 O   0  0  0  0  0  0  0  0  0  0  0  0
   -1.3480    3.8830   -0.8190 C   0  0  1  0  0  0  0  0  0  0  0  0
   -1.2800    4.6550    0.5090 C   0  0  0  0  0  0  0  0  0  0  0  0
    0.1460    4.8110    0.9500 C   0  0  0  0  0  0  0  0  0  0  0  0
    0.9340    5.3260   -0.2310 C   0  0  0  0  0  0  0  0  0  0  0  0
    0.0360    5.9130   -1.2990 C   0  0  0  0  0  0  0  0  0  0  0  0
   -0.9040    4.8900   -1.8900 C   0  0  0  0  0  0  0  0  0  0  0  0
    0.1520    0.4660   -0.8860 C   0  0  0  0  0  0  0  0  0  0  0  0
   -0.1420   -0.8600   -1.0090 C   0  0  0  0  0  0  0  0  0  0  0  0
   -1.4820   -1.2860   -1.1790 C   0  0  0  0  0  0  0  0  0  0  0  0
   -1.7330   -2.6470   -1.2960 N   0  0  0  0  0  0  0  0  0  0  0  0
   -1.6080   -3.3830   -0.0540 C   0  0  1  0  0  0  0  0  0  0  0  0
   -1.6180   -2.5160    1.1540 C   0  0  0  0  0  0  0  0  0  0  0  0
   -2.7160   -3.0400    2.0480 C   0  0  0  0  0  0  0  0  0  0  0  0
   -3.6110   -3.7730    1.1610 N   0  0  0  0  0  0  0  0  0  0  0  0
   -4.3380   -4.7660    1.9130 C   0  0  0  0  0  0  0  0  0  0  0  0
   -2.7720   -4.3560    0.1480 C   0  0  0  0  0  0  0  0  0  0  0  0
    1.1030   -1.5910   -0.9820 C   0  0  1  0  0  0  0  0  0  0  0  0
    1.3400   -2.5680   -2.0530 C   0  0  0  0  0  0  0  0  0  0  0  0
    2.1400   -0.6940   -0.6540 N   0  0  0  0  0  0  0  0  0  0  0  0
    3.5320   -0.9070   -0.3250 C   0  0  0  0  0  0  0  0  0  0  0  0
    3.9190   -1.1990    1.0410 C   0  0  2  0  0  0  0  0  0  0  0  0
    3.5910   -0.1290    2.0310 C   0  0  0  0  0  0  0  0  0  0  0  0
    4.1050    1.1530    1.7120 N   0  0  0  0  0  0  0  0  0  0  0  0
    5.2710    1.3810    1.2790 C   0  0  0  0  0  0  0  0  0  0  0  0
    6.3930    0.0180    1.0330 S   0  0  0  0  0  0  0  0  0  0  0  0
    5.4030   -1.4950    1.1440 C   0  0  0  0  0  0  0  0  0  0  0  0
    1.5890    0.5970   -0.6660 C   0  0  0  0  0  0  0  0  0  0  0  0
    2.1410    1.7280   -0.5260 O   0  0  0  0  0  0  0  0  0  0  0  0
  1  2  1  0
  2  3  2  0
  2 14  1  0
  3  4  1  0
  4  5  1  0
  4 12  2  0
  6  5  1  1
  6  7  1  0
  6 11  1  0
  7  8  1  0
  8  9  1  0
  9 10  1  0
 10 11  1  0
 12 13  1  0
 12 32  1  0
 13 14  2  0
 13 22  1  0
 14 15  1  0
 16 15  1  6
 16 17  1  0
 16 21  1  0
 17 18  1  0
 18 19  1  0
 19 20  1  0
 19 21  1  0
 22 23  1  6
 22 24  1  0
 24 25  1  0
 24 32  1  0
 26 25  1  6
 26 27  1  0
 26 31  1  0
 27 28  1  0
 28 29  2  0
 29 30  1  0
 30 31  1  0
 32 33  2  0
M  CHG  2  15   1  28   1
M  END
