
     RDKit          3D

 35 40  0  0  0  0  0  0  0  0999 V2000
    0.3360   -1.1500   -0.3090 O   0  0  0  0  0  0  0  0  0  0  0  0
    0.5710   -0.2480   -1.1860 C   0  0  0  0  0  0  0  0  0  0  0  0
    1.8640    0.1350   -1.7700 C   0  0  1  0  0  0  0  0  0  0  0  0
    1.5590    1.5000   -2.3750 C   0  0  1  0  0  0  0  0  0  0  0  0
    0.0800    1.4750   -2.5870 C   0  0  0  0  0  0  0  0  0  0  0  0
   -0.4980    2.2100   -3.4250 O   0  0  0  0  0  0  0  0  0  0  0  0
   -0.5010    0.5230   -1.7110 N   0  0  0  0  0  0  0  0  0  0  0  0
   -1.9430    0.4130   -1.4470 C   0  0  0  0  0  0  0  0  0  0  0  0
   -2.3490    1.2640   -0.2970 C   0  0  0  0  0  0  0  0  0  0  0  0
   -3.7750    1.2790    0.0810 C   0  0  0  0  0  0  0  0  0  0  0  0
   -4.3790    0.0340    0.4860 N   0  0  1  0  0  0  0  0  0  0  0  0
   -5.5620    0.3530    1.3200 C   0  0  0  0  0  0  0  0  0  0  0  0
   -6.3110    1.5520    0.8410 C   0  0  0  0  0  0  0  0  0  0  0  0
   -6.8000    1.4400   -0.4600 O   0  0  0  0  0  0  0  0  0  0  0  0
   -4.8820   -0.7600   -0.5960 C   0  0  0  0  0  0  0  0  0  0  0  0
   -4.4700   -2.1800   -0.3900 C   0  0  0  0  0  0  0  0  0  0  0  0
   -3.9600   -2.1870    1.0240 C   0  0  0  0  0  0  0  0  0  0  0  0
   -3.5410   -0.7650    1.3090 C   0  0  0  0  0  0  0  0  0  0  0  0
    1.9020    2.4610   -1.2500 C   0  0  2  0  0  0  0  0  0  0  0  0
    3.1270    3.2810   -1.5440 C   0  0  0  0  0  0  0  0  0  0  0  0
    4.0420    3.1480   -0.3620 C   0  0  0  0  0  0  0  0  0  0  0  0
    3.2100    2.4280    0.6510 C   0  0  0  0  0  0  0  0  0  0  0  0
    2.2820    1.6520   -0.1090 N   0  0  2  0  0  0  0  0  0  0  0  0
    2.9050    0.5040   -0.7530 C   0  0  1  0  0  0  0  0  0  0  0  0
    3.2890   -0.5470    0.1640 C   0  0  0  0  0  0  0  0  0  0  0  0
    4.4680   -1.2470    0.1960 C   0  0  0  0  0  0  0  0  0  0  0  0
    4.4030   -2.1710    1.2550 C   0  0  0  0  0  0  0  0  0  0  0  0
    5.4510   -3.1040    1.6270 C   0  0  0  0  0  0  0  0  0  0  0  0
    5.6030   -4.0390    2.5610 C   0  0  0  0  0  0  0  0  0  0  0  0
    6.7050   -4.7720    2.6780 C   0  0  0  0  0  0  0  0  0  0  0  0
    7.7490   -4.5810    1.8130 C   0  0  0  0  0  0  0  0  0  0  0  0
    9.3150   -5.3070    1.6310 Cl  0  0  0  0  0  0  0  0  0  0  0  0
    7.0730   -3.2210    0.7380 S   0  0  0  0  0  0  0  0  0  0  0  0
    3.2340   -1.9830    1.7820 O   0  0  0  0  0  0  0  0  0  0  0  0
    2.5630   -1.0480    1.1710 N   0  0  0  0  0  0  0  0  0  0  0  0
  1  2  2  0
  3  2  1  1
  2  7  1  0
  3  4  1  0
  3 24  1  0
  4  5  1  1
  4 19  1  0
  5  6  2  0
  5  7  1  0
  7  8  1  0
  8  9  1  0
  9 10  1  0
 11 10  1  6
 11 12  1  0
 11 15  1  0
 11 18  1  0
 12 13  1  0
 13 14  1  0
 15 16  1  0
 16 17  1  0
 17 18  1  0
 19 20  1  6
 19 23  1  0
 20 21  1  0
 21 22  1  0
 23 22  1  1
 23 24  1  0
 24 25  1  1
 25 26  1  0
 25 35  2  0
 26 27  2  0
 27 28  1  0
 27 34  1  0
 28 29  2  0
 28 33  1  0
 29 30  1  0
 30 31  2  0
 31 32  1  0
 31 33  1  0
 34 35  1  0
M  CHG  2  11   1  23   1
M  END
