
     RDKit          3D

 34 38  0  0  0  0  0  0  0  0999 V2000
   -6.4350   -1.0950   -1.4600 C   0  0  0  0  0  0  0  0  0  0  0  0
   -6.7620   -0.0660   -0.8250 N   0  0  0  0  0  0  0  0  0  0  0  0
   -7.8810    0.8330   -1.2430 C   0  0  0  0  0  0  0  0  0  0  0  0
   -8.5430    0.8900    0.1590 C   0  0  0  0  0  0  0  0  0  0  0  0
   -7.3610    1.0600    0.9870 N   0  0  0  0  0  0  0  0  0  0  0  0
   -6.3000    0.5020    0.4010 C   0  0  0  0  0  0  0  0  0  0  0  0
   -5.0090    0.5100    1.0170 C   0  0  0  0  0  0  0  0  0  0  0  0
   -3.8150    0.1750    0.7140 C   0  0  0  0  0  0  0  0  0  0  0  0
   -3.3790   -0.3950   -0.5640 C   0  0  0  0  0  0  0  0  0  0  0  0
   -1.9380   -0.0700   -0.9360 C   0  0  2  0  0  0  0  0  0  0  0  0
   -1.4590   -1.1060   -1.9230 C   0  0  0  0  0  0  0  0  0  0  0  0
   -0.5170   -2.0010   -1.1730 C   0  0  0  0  0  0  0  0  0  0  0  0
    0.0780   -1.0670   -0.2060 N   0  0  0  0  0  0  0  0  0  0  0  0
    1.4570   -1.0470    0.1090 C   0  0  0  0  0  0  0  0  0  0  0  0
    2.2100   -1.8370   -0.5410 O   0  0  0  0  0  0  0  0  0  0  0  0
    2.1120   -0.2060    1.1110 C   0  0  0  0  0  0  0  0  0  0  0  0
    2.6560    1.0190    0.5160 C   0  0  0  0  0  0  0  0  0  0  0  0
    1.9930    2.6690    0.9070 S   0  0  0  0  0  0  0  0  0  0  0  0
    3.1220    3.5780   -0.0330 C   0  0  0  0  0  0  0  0  0  0  0  0
    3.9510    2.6130   -0.6060 C   0  0  0  0  0  0  0  0  0  0  0  0
    3.6840    1.3230   -0.3070 C   0  0  0  0  0  0  0  0  0  0  0  0
    4.4930    0.2120   -0.9370 C   0  0  0  0  0  0  0  0  0  0  0  0
    4.1580   -0.1800   -2.0950 O   0  0  0  0  0  0  0  0  0  0  0  0
    5.5800   -0.3980   -0.3190 N   0  0  0  0  0  0  0  0  0  0  0  0
    6.3130   -1.4770   -1.0110 C   0  0  0  0  0  0  0  0  0  0  0  0
    7.7610   -1.4210   -0.5840 C   0  0  0  0  0  0  0  0  0  0  0  0
    8.2230   -0.0530   -0.2260 C   0  0  0  0  0  0  0  0  0  0  0  0
    7.3980    0.6670    0.8010 C   0  0  0  0  0  0  0  0  0  0  0  0
    6.1010   -0.0880    0.9980 C   0  0  0  0  0  0  0  0  0  0  0  0
   -0.9980   -0.2450    0.2190 C   0  0  2  0  0  0  0  0  0  0  0  0
   -1.6780   -0.6920    1.4620 C   0  0  0  0  0  0  0  0  0  0  0  0
   -2.7360    0.3750    1.7540 C   0  0  2  0  0  0  0  0  0  0  0  0
   -3.2020    0.3100    3.1540 C   0  0  0  0  0  0  0  0  0  0  0  0
   -3.7880   -0.9150    3.3990 F   0  0  0  0  0  0  0  0  0  0  0  0
  1  2  2  0
  2  3  1  0
  2  6  1  0
  3  4  1  0
  4  5  1  0
  5  6  2  0
  6  7  1  0
  7  8  2  3
  8  9  1  0
  8 32  1  0
 10  9  1  1
 10 11  1  0
 10 30  1  0
 11 12  1  0
 12 13  1  0
 13 14  1  0
 13 30  1  0
 14 15  2  0
 14 16  1  0
 16 17  1  0
 17 18  1  0
 17 21  2  0
 18 19  1  0
 19 20  2  0
 20 21  1  0
 21 22  1  0
 22 23  2  0
 22 24  1  0
 24 25  1  0
 24 29  1  0
 25 26  1  0
 26 27  1  0
 27 28  1  0
 28 29  1  0
 30 31  1  1
 31 32  1  0
 32 33  1  1
 33 34  1  0
M  CHG  2   2   1   5   1
M  END
