
     RDKit          3D

 34 37  0  0  0  0  0  0  0  0999 V2000
   -0.1080    0.7190   -2.9100 O   0  0  0  0  0  0  0  0  0  0  0  0
   -0.0000    1.5840   -2.0060 C   0  0  0  0  0  0  0  0  0  0  0  0
    0.5380    2.7250   -2.4840 O   0  0  0  0  0  0  0  0  0  0  0  0
    1.7260    3.4310   -2.0810 C   0  0  0  0  0  0  0  0  0  0  0  0
    2.4940    2.6270   -1.2070 C   0  0  0  0  0  0  0  0  0  0  0  0
    3.0700    1.9990   -0.5470 C   0  0  0  0  0  0  0  0  0  0  0  0
    3.8390    1.1750    0.3540 C   0  0  0  0  0  0  0  0  0  0  0  0
    3.5170   -0.2150   -0.1520 C   0  0  0  0  0  0  0  0  0  0  0  0
    2.6860   -1.1230    0.5800 C   0  0  1  0  0  0  0  0  0  0  0  0
    3.6240   -1.7810    1.5690 C   0  0  0  0  0  0  0  0  0  0  0  0
    2.9030   -2.5880    2.2900 C   0  0  0  0  0  0  0  0  0  0  0  0
    1.4530   -2.4750    1.7910 C   0  0  0  0  0  0  0  0  0  0  0  0
    1.4980   -0.9680    1.3340 C   0  0  2  0  0  0  0  0  0  0  0  0
    0.2360   -0.3030    1.2190 C   0  0  2  0  0  0  0  0  0  0  0  0
    0.2590    0.9470    2.1170 C   0  0  0  0  0  0  0  0  0  0  0  0
   -0.2570    0.6480    3.4550 C   0  0  0  0  0  0  0  0  0  0  0  0
   -0.6300   -0.7940    3.4780 C   0  0  0  0  0  0  0  0  0  0  0  0
   -0.7330   -1.1840    2.0730 C   0  0  0  0  0  0  0  0  0  0  0  0
   -0.5690    0.0010   -0.0280 C   0  0  2  0  0  0  0  0  0  0  0  0
   -1.8690    0.2610    0.5980 O   0  0  0  0  0  0  0  0  0  0  0  0
   -1.0080   -1.1780   -0.8310 C   0  0  2  0  0  0  0  0  0  0  0  0
   -0.0480   -2.0010   -1.5690 C   0  0  0  0  0  0  0  0  0  0  0  0
   -0.4770   -2.5180   -2.9140 C   0  0  0  0  0  0  0  0  0  0  0  0
   -1.7950   -2.5740   -3.1900 O   0  0  0  0  0  0  0  0  0  0  0  0
   -2.4430   -3.4130   -2.2950 C   0  0  0  0  0  0  0  0  0  0  0  0
   -3.0610   -2.5560   -1.2170 C   0  0  0  0  0  0  0  0  0  0  0  0
   -2.4280   -1.1560   -1.3540 C   0  0  2  0  0  0  0  0  0  0  0  0
   -2.6830   -0.7220   -2.5880 O   0  0  0  0  0  0  0  0  0  0  0  0
   -0.4090    1.3320   -0.6680 C   0  0  2  0  0  0  0  0  0  0  0  0
   -1.6260    2.2670   -0.5020 C   0  0  0  0  0  0  0  0  0  0  0  0
   -1.3340    3.7140   -0.6730 C   0  0  0  0  0  0  0  0  0  0  0  0
   -2.6220    4.5440   -0.4190 C   0  0  1  0  0  0  0  0  0  0  0  0
   -3.8310    4.0230   -1.5900 Cl  0  0  0  0  0  0  0  0  0  0  0  0
   -3.1220    4.3550    1.2600 Cl  0  0  0  0  0  0  0  0  0  0  0  0
  1  2  2  0
  2  3  1  0
  2 29  1  0
  3  4  1  0
  4  5  1  0
  5  6  3  0
  6  7  1  0
  7  8  1  0
  9  8  1  1
  9 10  1  0
  9 13  1  0
 10 11  2  0
 11 12  1  0
 13 12  1  6
 13 14  1  0
 14 15  1  1
 14 18  1  0
 14 19  1  0
 15 16  1  0
 16 17  1  0
 17 18  1  0
 19 20  1  1
 19 21  1  0
 19 29  1  0
 21 22  1  6
 21 27  1  0
 22 23  1  0
 23 24  1  0
 24 25  1  0
 25 26  1  0
 26 27  1  0
 27 28  1  6
 29 30  1  6
 30 31  1  0
 31 32  1  0
 32 33  1  6
 32 34  1  0
M  END
