
     RDKit          3D

 33 37  0  0  0  0  0  0  0  0999 V2000
   -8.1570   -2.0540    0.7930 O   0  0  0  0  0  0  0  0  0  0  0  0
   -7.1800   -1.4030   -0.1890 S   0  0  1  0  0  0  0  0  0  0  0  0
   -6.9690   -2.4030   -1.2590 O   0  0  0  0  0  0  0  0  0  0  0  0
   -8.0900    0.0200   -0.8020 C   0  0  0  0  0  0  0  0  0  0  0  0
   -8.1240    1.0430    0.2940 C   0  0  0  0  0  0  0  0  0  0  0  0
   -6.6570    1.3550    0.6250 C   0  0  0  0  0  0  0  0  0  0  0  0
   -6.0930    0.2490    1.4330 C   0  0  0  0  0  0  0  0  0  0  0  0
   -5.7810   -0.9580    0.6770 N   0  0  2  0  0  0  0  0  0  0  0  0
   -4.5570   -0.9370   -0.0200 C   0  0  1  0  0  0  0  0  0  0  0  0
   -4.6060   -0.7580   -1.5010 C   0  0  0  0  0  0  0  0  0  0  0  0
   -3.2830   -0.3800   -2.0950 C   0  0  0  0  0  0  0  0  0  0  0  0
   -2.5050    0.6420   -1.2970 C   0  0  0  0  0  0  0  0  0  0  0  0
   -2.3290    0.0900    0.0240 N   0  0  0  0  0  0  0  0  0  0  0  0
   -1.4790    0.9580    0.7950 C   0  0  0  0  0  0  0  0  0  0  0  0
   -0.0500    0.9430    0.3010 C   0  0  0  0  0  0  0  0  0  0  0  0
    0.4280   -0.4810    0.4160 C   0  0  0  0  0  0  0  0  0  0  0  0
    1.7810   -0.7000    0.0160 N   0  0  2  0  0  0  0  0  0  0  0  0
    2.5450   -1.0910    1.2040 C   0  0  0  0  0  0  0  0  0  0  0  0
    3.8190   -1.7390    0.7150 C   0  0  0  0  0  0  0  0  0  0  0  0
    4.5920   -0.6630    0.0320 C   0  0  0  0  0  0  0  0  0  0  0  0
    5.9290   -0.6790    0.0850 N   0  0  0  0  0  0  0  0  0  0  0  0
    6.7020    0.2700   -0.5180 C   0  0  0  0  0  0  0  0  0  0  0  0
    8.1430    0.1780   -0.4120 C   0  0  0  0  0  0  0  0  0  0  0  0
    8.9570    1.1020   -0.9970 C   0  0  0  0  0  0  0  0  0  0  0  0
   10.3400    1.0210   -0.9010 C   0  0  0  0  0  0  0  0  0  0  0  0
   10.8830   -0.0230   -0.1940 C   0  0  0  0  0  0  0  0  0  0  0  0
   10.0710   -0.9670    0.4050 C   0  0  0  0  0  0  0  0  0  0  0  0
    8.7140   -0.8620    0.2930 C   0  0  0  0  0  0  0  0  0  0  0  0
    6.0480    1.2670   -1.1970 C   0  0  0  0  0  0  0  0  0  0  0  0
    4.6490    1.2870   -1.2530 C   0  0  0  0  0  0  0  0  0  0  0  0
    3.8930    0.3000   -0.6250 C   0  0  0  0  0  0  0  0  0  0  0  0
    2.4000    0.3620   -0.7100 C   0  0  0  0  0  0  0  0  0  0  0  0
   -3.6390    0.1000    0.6490 C   0  0  0  0  0  0  0  0  0  0  0  0
  1  2  2  0
  2  3  2  0
  2  4  1  6
  2  8  1  0
  4  5  1  0
  5  6  1  0
  6  7  1  0
  8  7  1  6
  8  9  1  0
  9 10  1  6
  9 33  1  0
 10 11  1  0
 11 12  1  0
 12 13  1  0
 13 14  1  0
 13 33  1  0
 14 15  1  0
 15 16  1  0
 17 16  1  1
 17 18  1  0
 17 32  1  0
 18 19  1  0
 19 20  1  0
 20 21  2  0
 20 31  1  0
 21 22  1  0
 22 23  1  0
 22 29  2  0
 23 24  2  0
 23 28  1  0
 24 25  1  0
 25 26  2  0
 26 27  1  0
 27 28  2  0
 29 30  1  0
 30 31  2  0
 31 32  1  0
M  CHG  2   8   1  17   1
M  END
