
     RDKit          3D

 31 34  0  0  0  0  0  0  0  0999 V2000
    1.8780   -5.9620    0.2050 C   0  0  0  0  0  0  0  0  0  0  0  0
    1.5550   -5.6100   -1.1520 N   0  0  0  0  0  0  0  0  0  0  0  0
    1.0160   -4.3370   -1.4260 C   0  0  0  0  0  0  0  0  0  0  0  0
    0.6920   -4.0030   -2.7170 C   0  0  0  0  0  0  0  0  0  0  0  0
    0.1720   -2.7810   -2.9890 C   0  0  0  0  0  0  0  0  0  0  0  0
   -0.0250   -1.8890   -1.9630 C   0  0  0  0  0  0  0  0  0  0  0  0
   -0.5820   -0.5870   -2.2470 C   0  0  0  0  0  0  0  0  0  0  0  0
   -1.8170   -0.5420   -2.8380 C   0  0  0  0  0  0  0  0  0  0  0  0
   -2.3780    0.6830   -3.1210 C   0  0  0  0  0  0  0  0  0  0  0  0
   -1.7110    1.8050   -2.8160 N   0  0  0  0  0  0  0  0  0  0  0  0
   -0.4990    1.7750   -2.2370 C   0  0  0  0  0  0  0  0  0  0  0  0
    0.2090    2.9920   -1.9100 N   0  0  0  0  0  0  0  0  0  0  0  0
    1.5010    2.8660   -1.2910 C   0  0  0  0  0  0  0  0  0  0  0  0
    2.1510    4.1760   -0.9730 C   0  0  0  0  0  0  0  0  0  0  0  0
    3.4660    3.9310   -0.3450 C   0  0  0  0  0  0  0  0  0  0  0  0
    4.2950    5.0100    0.0400 N   0  0  0  0  0  0  0  0  0  0  0  0
    3.8570    2.7580   -0.1480 O   0  0  0  0  0  0  0  0  0  0  0  0
    0.0180    0.5750   -1.9760 N   0  0  0  0  0  0  0  0  0  0  0  0
    0.2770   -2.1580   -0.6540 C   0  0  0  0  0  0  0  0  0  0  0  0
    0.0570   -1.2080    0.3700 C   0  0  0  0  0  0  0  0  0  0  0  0
    1.0700   -0.6620    1.1470 C   0  0  0  0  0  0  0  0  0  0  0  0
    0.7960    0.2660    2.1370 C   0  0  0  0  0  0  0  0  0  0  0  0
   -0.4930    0.6860    2.3930 C   0  0  0  0  0  0  0  0  0  0  0  0
   -1.5160    0.1590    1.6340 C   0  0  0  0  0  0  0  0  0  0  0  0
   -1.2320   -0.7570    0.6590 C   0  0  0  0  0  0  0  0  0  0  0  0
   -2.9150    0.5950    1.8900 C   0  0  0  0  0  0  0  0  0  0  0  0
   -3.0630    1.2810    3.2180 C   0  0  1  0  0  0  0  0  0  0  0  0
   -2.9870    0.2640    4.3180 C   0  0  0  0  0  0  0  0  0  0  0  0
   -1.9840    2.3350    3.3520 C   0  0  0  0  0  0  0  0  0  0  0  0
   -0.7480    1.6240    3.3970 O   0  0  0  0  0  0  0  0  0  0  0  0
    0.8070   -3.4160   -0.4080 C   0  0  0  0  0  0  0  0  0  0  0  0
  1  2  1  0
  2  3  1  0
  3  4  2  0
  3 31  1  0
  4  5  1  0
  5  6  2  0
  6  7  1  0
  6 19  1  0
  7  8  2  0
  7 18  1  0
  8  9  1  0
  9 10  2  0
 10 11  1  0
 11 12  1  0
 11 18  2  0
 12 13  1  0
 13 14  1  0
 14 15  1  0
 15 16  1  0
 15 17  2  0
 19 20  1  0
 19 31  2  0
 20 21  2  0
 20 25  1  0
 21 22  1  0
 22 23  2  0
 23 24  1  0
 23 30  1  0
 24 25  2  0
 24 26  1  0
 26 27  1  0
 27 28  1  1
 27 29  1  0
 29 30  1  0
M  END
