
     RDKit          3D

 31 34  0  0  0  0  0  0  0  0999 V2000
   -5.7360    3.2760    2.5130 C   0  0  0  0  0  0  0  0  0  0  0  0
   -4.9740    3.1530    1.2550 C   0  0  0  0  0  0  0  0  0  0  0  0
   -4.1590    2.1400    0.7970 C   0  0  0  0  0  0  0  0  0  0  0  0
   -3.6500    2.4620   -0.4480 C   0  0  0  0  0  0  0  0  0  0  0  0
   -2.7250    1.6540   -1.3120 C   0  0  2  0  0  0  0  0  0  0  0  0
   -3.2240    0.2950   -1.2920 N   0  0  0  0  0  0  0  0  0  0  0  0
   -2.5600   -0.7300   -0.8920 C   0  0  0  0  0  0  0  0  0  0  0  0
   -3.1690   -2.0780   -0.9150 C   0  0  0  0  0  0  0  0  0  0  0  0
   -4.4550   -2.2750   -1.3600 C   0  0  0  0  0  0  0  0  0  0  0  0
   -5.0410   -3.5320   -1.3870 C   0  0  0  0  0  0  0  0  0  0  0  0
   -4.3310   -4.6350   -0.9580 C   0  0  0  0  0  0  0  0  0  0  0  0
   -3.0410   -4.4440   -0.5100 C   0  0  0  0  0  0  0  0  0  0  0  0
   -2.4600   -3.1760   -0.4870 C   0  0  0  0  0  0  0  0  0  0  0  0
   -1.2340   -0.5330   -0.4310 N   0  0  0  0  0  0  0  0  0  0  0  0
   -0.6430    0.6110   -0.3840 C   0  0  0  0  0  0  0  0  0  0  0  0
    0.7470    0.7890    0.1040 C   0  0  0  0  0  0  0  0  0  0  0  0
    1.3770   -0.5040    0.5270 C   0  0  0  0  0  0  0  0  0  0  0  0
    2.7630   -0.2480    1.0020 C   0  0  0  0  0  0  0  0  0  0  0  0
    3.2040    0.9260    0.9980 O   0  0  0  0  0  0  0  0  0  0  0  0
    3.6100   -1.2800    1.4610 N   0  0  0  0  0  0  0  0  0  0  0  0
    4.9570   -1.0300    1.9230 C   0  0  0  0  0  0  0  0  0  0  0  0
    5.8570   -0.8000    0.7840 C   0  0  0  0  0  0  0  0  0  0  0  0
    6.3430   -1.8390    0.0330 C   0  0  0  0  0  0  0  0  0  0  0  0
    7.1890   -1.6010   -1.0290 C   0  0  0  0  0  0  0  0  0  0  0  0
    7.5720   -0.3300   -1.3680 C   0  0  0  0  0  0  0  0  0  0  0  0
    7.0900    0.7230   -0.6200 C   0  0  0  0  0  0  0  0  0  0  0  0
    7.4540    2.0390   -0.9300 O   0  0  0  0  0  0  0  0  0  0  0  0
    6.2330    0.4810    0.4550 C   0  0  0  0  0  0  0  0  0  0  0  0
   -1.3680    1.7500   -0.8220 N   0  0  0  0  0  0  0  0  0  0  0  0
   -4.1900    3.7160   -0.7290 C   0  0  0  0  0  0  0  0  0  0  0  0
   -4.9680    4.1040    0.2930 N   0  0  0  0  0  0  0  0  0  0  0  0
  1  2  1  0
  2  3  2  0
  2 31  1  0
  3  4  1  0
  5  4  1  1
  4 30  2  0
  5  6  1  0
  5 29  1  0
  6  7  2  0
  7  8  1  0
  7 14  1  0
  8  9  2  0
  8 13  1  0
  9 10  1  0
 10 11  2  0
 11 12  1  0
 12 13  2  0
 14 15  2  0
 15 16  1  0
 15 29  1  0
 16 17  1  0
 17 18  1  0
 18 19  2  0
 18 20  1  0
 20 21  1  0
 21 22  1  0
 22 23  2  0
 22 28  1  0
 23 24  1  0
 24 25  2  0
 25 26  1  0
 26 27  1  0
 26 28  2  0
 30 31  1  0
M  END
