
     RDKit          3D

 30 33  0  0  0  0  0  0  0  0999 V2000
   -4.6890   -1.5660    2.0510 C   0  0  0  0  0  0  0  0  0  0  0  0
   -4.9430   -1.1900    0.6370 C   0  0  0  0  0  0  0  0  0  0  0  0
   -6.0730   -1.4200   -0.1160 C   0  0  0  0  0  0  0  0  0  0  0  0
   -7.3160   -2.1100    0.3280 C   0  0  0  0  0  0  0  0  0  0  0  0
   -8.5360   -2.1750   -1.0130 S   0  0  0  0  0  0  0  0  0  0  0  0
   -5.8850   -0.9190   -1.3350 N   0  0  0  0  0  0  0  0  0  0  0  0
   -4.6500   -0.3460   -1.4490 C   0  0  0  0  0  0  0  0  0  0  0  0
   -4.0090    0.2880   -2.4880 C   0  0  0  0  0  0  0  0  0  0  0  0
   -2.7490    0.7740   -2.3180 C   0  0  0  0  0  0  0  0  0  0  0  0
   -2.1150    0.6300   -1.1010 C   0  0  0  0  0  0  0  0  0  0  0  0
   -0.7980    1.1280   -0.9210 N   0  0  0  0  0  0  0  0  0  0  0  0
   -0.1900    1.0790    0.3670 C   0  0  2  0  0  0  0  0  0  0  0  0
   -0.9290    1.9370    1.3700 C   0  0  0  0  0  0  0  0  0  0  0  0
   -0.0880    3.1830    1.5750 C   0  0  0  0  0  0  0  0  0  0  0  0
    0.9740    3.1180    0.4670 C   0  0  0  0  0  0  0  0  0  0  0  0
    1.1960    1.6430    0.4120 C   0  0  2  0  0  0  0  0  0  0  0  0
    2.0090    1.2230   -0.6540 O   0  0  0  0  0  0  0  0  0  0  0  0
    3.1920    0.5260   -0.4910 C   0  0  0  0  0  0  0  0  0  0  0  0
    3.5470    0.2610    0.6850 O   0  0  0  0  0  0  0  0  0  0  0  0
    4.0240    0.1000   -1.6740 C   0  0  0  0  0  0  0  0  0  0  0  0
    5.1930   -0.6140   -1.1630 N   0  0  0  0  0  0  0  0  0  0  0  0
    6.4560   -0.0800   -0.8070 C   0  0  0  0  0  0  0  0  0  0  0  0
    6.7500    1.1520   -0.7190 O   0  0  0  0  0  0  0  0  0  0  0  0
    7.3710   -1.1910   -0.5560 C   0  0  1  0  0  0  0  0  0  0  0  0
    8.1510   -1.0350    0.7300 C   0  0  0  0  0  0  0  0  0  0  0  0
    6.5500   -2.3590   -0.4330 N   0  0  0  0  0  0  0  0  0  0  0  0
    5.2680   -2.0130   -0.9280 C   0  0  0  0  0  0  0  0  0  0  0  0
    4.0880   -3.1330   -1.1680 S   0  0  0  0  0  0  0  0  0  0  0  0
   -2.7930   -0.0160   -0.0720 C   0  0  0  0  0  0  0  0  0  0  0  0
   -4.0710   -0.5220   -0.2090 C   0  0  0  0  0  0  0  0  0  0  0  0
  1  2  1  0
  2  3  2  0
  2 30  1  0
  3  4  1  0
  3  6  1  0
  4  5  1  0
  6  7  1  0
  7  8  2  0
  7 30  1  0
  8  9  1  0
  9 10  2  0
 10 11  1  0
 10 29  1  0
 12 11  1  6
 12 13  1  0
 12 16  1  0
 13 14  1  0
 14 15  1  0
 15 16  1  0
 16 17  1  6
 17 18  1  0
 18 19  2  0
 18 20  1  0
 20 21  1  0
 21 22  1  0
 21 27  1  0
 22 23  2  0
 22 24  1  0
 24 25  1  1
 24 26  1  0
 26 27  1  0
 27 28  2  0
 29 30  2  0
M  END
