
     RDKit          3D

 30 32  0  0  0  0  0  0  0  0999 V2000
    7.2130   -3.5060    0.1750 C   0  0  0  0  0  0  0  0  0  0  0  0
    6.5400   -2.4920   -0.3460 C   0  0  0  0  0  0  0  0  0  0  0  0
    5.6880   -1.6450    0.4510 C   0  0  0  0  0  0  0  0  0  0  0  0
    5.0430   -0.6530   -0.1120 C   0  0  0  0  0  0  0  0  0  0  0  0
    5.0780   -0.2590   -1.5570 C   0  0  0  0  0  0  0  0  0  0  0  0
    4.7230    1.1950   -1.5510 C   0  0  0  0  0  0  0  0  0  0  0  0
    4.2280    1.5190   -0.1670 C   0  0  0  0  0  0  0  0  0  0  0  0
    3.9520    2.7170    0.2800 C   0  0  0  0  0  0  0  0  0  0  0  0
    3.4750    3.0620    1.6120 C   0  0  0  0  0  0  0  0  0  0  0  0
    4.1370    0.2780    0.5290 N   0  0  0  0  0  0  0  0  0  0  0  0
    3.2790    0.0120    1.6370 C   0  0  0  0  0  0  0  0  0  0  0  0
    1.8210   -0.0540    1.2570 C   0  0  0  0  0  0  0  0  0  0  0  0
    0.9170   -0.2520    2.0940 O   0  0  0  0  0  0  0  0  0  0  0  0
    1.4350    0.1060   -0.1040 N   0  0  0  0  0  0  0  0  0  0  0  0
    0.1220    0.0550   -0.5740 N   0  0  0  0  0  0  0  0  0  0  0  0
   -0.1030   -0.1460   -1.9620 C   0  0  0  0  0  0  0  0  0  0  0  0
    0.9410   -0.2650   -2.6890 O   0  0  0  0  0  0  0  0  0  0  0  0
   -1.4380   -0.2260   -2.5990 C   0  0  0  0  0  0  0  0  0  0  0  0
   -2.0980   -1.9210   -2.5260 S   0  0  0  0  0  0  0  0  0  0  0  0
   -2.4800   -2.3430   -0.7790 C   0  0  0  0  0  0  0  0  0  0  0  0
   -3.6140   -1.4880   -0.3130 C   0  0  0  0  0  0  0  0  0  0  0  0
   -3.8260   -0.4330    0.2200 N   0  0  0  0  0  0  0  0  0  0  0  0
   -4.9830    0.1130    0.5200 C   0  0  0  0  0  0  0  0  0  0  0  0
   -6.0860   -0.6270    0.1760 C   0  0  0  0  0  0  0  0  0  0  0  0
   -5.3750   -2.1050   -0.5780 S   0  0  0  0  0  0  0  0  0  0  0  0
   -7.5020   -0.2610    0.3860 C   0  0  1  0  0  0  0  0  0  0  0  0
   -8.2910   -1.3410    0.7150 O   0  0  0  0  0  0  0  0  0  0  0  0
   -7.5480    0.8300    1.4290 C   0  0  0  0  0  0  0  0  0  0  0  0
   -6.5580    1.8770    0.9580 C   0  0  0  0  0  0  0  0  0  0  0  0
   -5.1430    1.4690    1.1970 C   0  0  0  0  0  0  0  0  0  0  0  0
  1  2  2  0
  2  3  1  0
  3  4  2  3
  4  5  1  0
  4 10  1  0
  5  6  1  0
  6  7  1  0
  7  8  2  3
  7 10  1  0
  8  9  1  0
 10 11  1  0
 11 12  1  0
 12 13  2  0
 12 14  1  0
 14 15  1  0
 15 16  1  0
 16 17  2  0
 16 18  1  0
 18 19  1  0
 19 20  1  0
 20 21  1  0
 21 22  2  0
 21 25  1  0
 22 23  1  0
 23 24  2  0
 23 30  1  0
 24 25  1  0
 24 26  1  0
 26 27  1  1
 26 28  1  0
 28 29  1  0
 29 30  1  0
M  END
