
     RDKit          3D

 31 34  0  0  0  0  0  0  0  0999 V2000
    6.5620    0.7920    4.2230 C   0  0  0  0  0  0  0  0  0  0  0  0
    5.6680    0.2140    3.4430 C   0  0  0  0  0  0  0  0  0  0  0  0
    5.8560   -1.1960    3.0180 C   0  0  0  0  0  0  0  0  0  0  0  0
    5.9270   -1.2580    1.5730 N   0  0  0  0  0  0  0  0  0  0  0  0
    4.8540   -0.8180    0.7370 C   0  0  0  0  0  0  0  0  0  0  0  0
    3.8490   -0.3780    1.3120 O   0  0  0  0  0  0  0  0  0  0  0  0
    4.9050   -0.8700   -0.6620 N   0  0  0  0  0  0  0  0  0  0  0  0
    3.9190   -0.4690   -1.5850 C   0  0  0  0  0  0  0  0  0  0  0  0
    2.6870    0.0650   -1.2700 C   0  0  0  0  0  0  0  0  0  0  0  0
    1.7670    0.4390   -2.2440 C   0  0  0  0  0  0  0  0  0  0  0  0
    0.5280    0.9780   -1.8450 N   0  0  0  0  0  0  0  0  0  0  0  0
   -0.6150    0.4500   -2.0570 C   0  0  0  0  0  0  0  0  0  0  0  0
   -1.7570    1.0760   -1.6170 C   0  0  0  0  0  0  0  0  0  0  0  0
   -3.0080    0.4880   -1.8540 C   0  0  0  0  0  0  0  0  0  0  0  0
   -4.1980    1.0610   -1.4400 O   0  0  0  0  0  0  0  0  0  0  0  0
   -4.7210    0.7580   -0.1820 C   0  0  0  0  0  0  0  0  0  0  0  0
   -4.1210   -0.0960    0.7030 C   0  0  0  0  0  0  0  0  0  0  0  0
   -4.7030   -0.3500    1.9400 C   0  0  0  0  0  0  0  0  0  0  0  0
   -5.8890    0.2420    2.3130 C   0  0  0  0  0  0  0  0  0  0  0  0
   -6.4850    1.0940    1.4260 C   0  0  0  0  0  0  0  0  0  0  0  0
   -5.9080    1.3510    0.1900 C   0  0  0  0  0  0  0  0  0  0  0  0
   -7.7560    1.6390    2.0010 C   0  0  0  0  0  0  0  0  0  0  0  0
   -7.7810    1.1250    3.4090 C   0  0  0  0  0  0  0  0  0  0  0  0
   -6.6920    0.1720    3.4770 N   0  0  0  0  0  0  0  0  0  0  0  0
   -3.0650   -0.7250   -2.5350 C   0  0  0  0  0  0  0  0  0  0  0  0
   -1.8930   -1.3130   -2.9560 C   0  0  0  0  0  0  0  0  0  0  0  0
   -0.6980   -0.7130   -2.7080 N   0  0  0  0  0  0  0  0  0  0  0  0
    2.0950    0.2700   -3.5590 C   0  0  0  0  0  0  0  0  0  0  0  0
    3.3340   -0.2690   -3.9230 C   0  0  0  0  0  0  0  0  0  0  0  0
    4.2160   -0.6250   -2.9400 C   0  0  0  0  0  0  0  0  0  0  0  0
    5.5250   -1.1950   -3.3470 C   0  0  0  0  0  0  0  0  0  0  0  0
  1  2  2  0
  2  3  1  0
  3  4  1  0
  4  5  1  0
  5  6  2  0
  5  7  1  0
  7  8  1  0
  8  9  2  0
  8 30  1  0
  9 10  1  0
 10 11  1  0
 10 28  2  0
 11 12  2  3
 12 13  1  0
 12 27  1  0
 13 14  2  0
 14 15  1  0
 14 25  1  0
 15 16  1  0
 16 17  2  0
 16 21  1  0
 17 18  1  0
 18 19  2  0
 19 20  1  0
 19 24  1  0
 20 21  2  0
 20 22  1  0
 22 23  1  0
 23 24  1  0
 25 26  2  0
 26 27  1  0
 28 29  1  0
 29 30  2  0
 30 31  1  0
M  END
