
     RDKit          3D

 31 34  0  0  0  0  0  0  0  0999 V2000
   -8.7940    2.9910   -0.7000 C   0  0  0  0  0  0  0  0  0  0  0  0
   -7.5360    2.2210   -0.5280 C   0  0  0  0  0  0  0  0  0  0  0  0
   -6.5190    2.6880    0.2820 C   0  0  0  0  0  0  0  0  0  0  0  0
   -5.3460    1.9430    0.4280 C   0  0  0  0  0  0  0  0  0  0  0  0
   -5.1940    0.7460   -0.2290 C   0  0  0  0  0  0  0  0  0  0  0  0
   -4.0170   -0.0450   -0.1060 N   0  0  0  0  0  0  0  0  0  0  0  0
   -2.9830    0.3990    0.7450 C   0  0  0  0  0  0  0  0  0  0  0  0
   -1.7320    0.1580    0.4260 C   0  0  0  0  0  0  0  0  0  0  0  0
   -0.5080    0.5210    1.1530 C   0  0  0  0  0  0  0  0  0  0  0  0
    0.4540   -0.3670    0.8390 C   0  0  0  0  0  0  0  0  0  0  0  0
    1.7850   -0.3660    1.3330 N   0  0  0  0  0  0  0  0  0  0  0  0
    2.7720    0.1630    0.6970 C   0  0  0  0  0  0  0  0  0  0  0  0
    4.1310    0.1560    1.2200 C   0  0  0  0  0  0  0  0  0  0  0  0
    4.5860   -0.3830    2.4070 C   0  0  0  0  0  0  0  0  0  0  0  0
    5.8680   -0.1800    2.5140 O   0  0  0  0  0  0  0  0  0  0  0  0
    6.3390    0.4690    1.4740 C   0  0  0  0  0  0  0  0  0  0  0  0
    7.7210    0.8860    1.2190 C   0  0  0  0  0  0  0  0  0  0  0  0
    8.7200    0.6820    1.9840 N   0  0  0  0  0  0  0  0  0  0  0  0
    9.9260    1.2260    1.4230 C   0  0  0  0  0  0  0  0  0  0  0  0
    9.4610    1.8150    0.1420 C   0  0  0  0  0  0  0  0  0  0  0  0
    8.1970    1.5890    0.0820 N   0  0  0  0  0  0  0  0  0  0  0  0
    5.2550    0.6960    0.6340 C   0  0  0  0  0  0  0  0  0  0  0  0
   -0.1010   -1.3330   -0.1020 C   0  0  0  0  0  0  0  0  0  0  0  0
    0.2460   -2.5820   -0.3280 C   0  0  0  0  0  0  0  0  0  0  0  0
    1.3170   -3.2610    0.3720 C   0  0  0  0  0  0  0  0  0  0  0  0
    1.6450   -4.5050    0.1300 C   0  0  0  0  0  0  0  0  0  0  0  0
    0.9310   -5.2280   -0.8550 N   0  0  0  0  0  0  0  0  0  0  0  0
   -1.2130   -0.5750   -0.7840 C   0  0  0  0  0  0  0  0  0  0  0  0
   -6.2410    0.3170   -1.0310 C   0  0  0  0  0  0  0  0  0  0  0  0
   -6.0620   -0.8930   -1.6820 O   0  0  0  0  0  0  0  0  0  0  0  0
   -7.4100    1.0210   -1.1990 C   0  0  0  0  0  0  0  0  0  0  0  0
  1  2  1  0
  2  3  2  0
  2 31  1  0
  3  4  1  0
  4  5  2  0
  5  6  1  0
  5 29  1  0
  6  7  1  0
  7  8  2  3
  8  9  1  0
  8 28  1  0
  9 10  2  0
 10 11  1  0
 10 23  1  0
 11 12  2  3
 12 13  1  0
 13 14  2  0
 13 22  1  0
 14 15  1  0
 15 16  1  0
 16 17  1  0
 16 22  2  0
 17 18  2  0
 17 21  1  0
 18 19  1  0
 19 20  1  0
 20 21  2  0
 23 24  2  3
 23 28  1  0
 24 25  1  0
 25 26  2  3
 26 27  1  0
 29 30  1  0
 29 31  2  0
M  END
