
     RDKit          3D

 29 29  0  0  0  0  0  0  0  0999 V2000
    5.9000   -0.1560    2.1800 C   0  0  0  0  0  0  0  0  0  0  0  0
    5.6570   -1.0530    1.2350 C   0  0  0  0  0  0  0  0  0  0  0  0
    6.3460   -2.2620    1.2140 O   0  0  0  0  0  0  0  0  0  0  0  0
    4.6310   -0.7250    0.2120 C   0  0  0  0  0  0  0  0  0  0  0  0
    4.4170   -1.6070   -0.7230 C   0  0  0  0  0  0  0  0  0  0  0  0
    5.1160   -2.8990   -0.8340 C   0  0  0  0  0  0  0  0  0  0  0  0
    3.9960    0.4780    0.3420 O   0  0  0  0  0  0  0  0  0  0  0  0
    2.6530    0.7480    0.7060 C   0  0  2  0  0  0  0  0  0  0  0  0
    2.3600    0.1430    2.0100 C   0  0  0  0  0  0  0  0  0  0  0  0
    1.7870    0.7620   -0.4450 C   0  0  0  0  0  0  0  0  0  0  0  0
    0.3140    1.0100   -0.3730 C   0  0  2  0  0  0  0  0  0  0  0  0
   -0.1370    1.1080   -1.7930 N   0  0  0  0  0  0  0  0  0  0  0  0
   -0.0880    2.1990    0.3720 C   0  0  0  0  0  0  0  0  0  0  0  0
    0.4540    3.4870   -0.1890 C   0  0  0  0  0  0  0  0  0  0  0  0
    0.1680    4.5390    0.4380 O   0  0  0  0  0  0  0  0  0  0  0  0
    1.2240    3.5830   -1.3160 O   0  0  0  0  0  0  0  0  0  0  0  0
    1.7150    4.8050   -1.8150 C   0  0  0  0  0  0  0  0  0  0  0  0
   -0.3900   -0.2150    0.0830 C   0  0  0  0  0  0  0  0  0  0  0  0
    0.2340   -1.0590    0.8260 O   0  0  0  0  0  0  0  0  0  0  0  0
   -1.7120   -0.5890   -0.2090 N   0  0  0  0  0  0  0  0  0  0  0  0
   -2.6550    0.1320   -0.9650 C   0  0  0  0  0  0  0  0  0  0  0  0
   -4.0780   -0.3520   -0.7980 C   0  0  0  0  0  0  0  0  0  0  0  0
   -5.0760    0.1280   -1.7760 C   0  0  0  0  0  0  0  0  0  0  0  0
   -6.3550   -0.4280   -1.4610 N   0  0  0  0  0  0  0  0  0  0  0  0
   -4.4170   -1.1560    0.1650 C   0  0  0  0  0  0  0  0  0  0  0  0
   -3.3930   -1.6450    1.1650 C   0  0  1  0  0  0  0  0  0  0  0  0
   -3.0980   -0.5920    2.1860 C   0  0  0  0  0  0  0  0  0  0  0  0
   -3.8850   -2.9010    1.8000 C   0  0  0  0  0  0  0  0  0  0  0  0
   -2.1450   -1.9030    0.3330 C   0  0  0  0  0  0  0  0  0  0  0  0
  1  2  2  0
  2  3  1  0
  2  4  1  0
  4  5  2  3
  4  7  1  0
  5  6  1  0
  7  8  1  0
  8  9  1  1
  8 10  1  0
 10 11  1  0
 11 12  1  6
 11 13  1  0
 11 18  1  0
 13 14  1  0
 14 15  2  0
 14 16  1  0
 16 17  1  0
 18 19  2  0
 18 20  1  0
 20 21  1  0
 20 29  1  0
 21 22  1  0
 22 23  1  0
 22 25  2  0
 23 24  1  0
 25 26  1  0
 26 27  1  1
 26 28  1  0
 26 29  1  0
M  CHG  2  12   1  24   1
M  END
