
     RDKit          3D

 31 35  0  0  0  0  0  0  0  0999 V2000
   -6.5520   -0.6080   -3.0780 C   0  0  0  0  0  0  0  0  0  0  0  0
   -5.4180    0.3420   -2.7370 C   0  0  0  0  0  0  0  0  0  0  0  0
   -5.2870    0.4180   -1.3600 O   0  0  0  0  0  0  0  0  0  0  0  0
   -4.2690    1.2700   -0.9890 C   0  0  1  0  0  0  0  0  0  0  0  0
   -4.7930    2.4190   -0.1160 C   0  0  0  0  0  0  0  0  0  0  0  0
   -5.5840    1.8420    0.9170 N   0  0  0  0  0  0  0  0  0  0  0  0
   -4.9110    0.9390    1.7830 C   0  0  0  0  0  0  0  0  0  0  0  0
   -3.6410    0.4040    1.1990 C   0  0  0  0  0  0  0  0  0  0  0  0
   -2.7410   -0.2720    2.0090 C   0  0  0  0  0  0  0  0  0  0  0  0
   -3.0370   -0.4640    3.4530 C   0  0  0  0  0  0  0  0  0  0  0  0
   -1.5810   -0.7510    1.4360 C   0  0  0  0  0  0  0  0  0  0  0  0
   -1.2630   -0.5970    0.1020 C   0  0  0  0  0  0  0  0  0  0  0  0
   -0.0610   -1.1000   -0.4640 N   0  0  0  0  0  0  0  0  0  0  0  0
    0.0510   -1.9100   -1.4640 N   0  0  0  0  0  0  0  0  0  0  0  0
    1.3150   -2.1870   -1.7470 C   0  0  0  0  0  0  0  0  0  0  0  0
    2.0830   -1.4690   -0.8180 C   0  0  0  0  0  0  0  0  0  0  0  0
    1.2050   -0.8050   -0.0360 C   0  0  0  0  0  0  0  0  0  0  0  0
    1.4800    0.0840    1.0820 C   0  0  0  0  0  0  0  0  0  0  0  0
    2.6180    0.3950    1.5240 N   0  0  0  0  0  0  0  0  0  0  0  0
    3.9020    0.0270    1.1300 C   0  0  0  0  0  0  0  0  0  0  0  0
    4.4990   -1.0870    1.6940 C   0  0  0  0  0  0  0  0  0  0  0  0
    5.7680   -1.4440    1.3200 C   0  0  0  0  0  0  0  0  0  0  0  0
    6.4590   -0.7060    0.3860 C   0  0  0  0  0  0  0  0  0  0  0  0
    5.8530    0.4050   -0.1710 C   0  0  0  0  0  0  0  0  0  0  0  0
    4.5850    0.7760    0.1920 C   0  0  0  0  0  0  0  0  0  0  0  0
    6.5830    1.1290   -1.1150 O   0  0  0  0  0  0  0  0  0  0  0  0
    7.9970    1.0780   -1.0090 C   0  0  0  0  0  0  0  0  0  0  0  0
    8.4630   -0.3510   -0.9620 C   0  0  0  0  0  0  0  0  0  0  0  0
    7.7350   -1.0610    0.0060 O   0  0  0  0  0  0  0  0  0  0  0  0
   -2.1850    0.0750   -0.6420 N   0  0  0  0  0  0  0  0  0  0  0  0
   -3.3140    0.5510   -0.1210 C   0  0  0  0  0  0  0  0  0  0  0  0
  1  2  1  0
  2  3  1  0
  4  3  1  1
  4  5  1  0
  4 31  1  0
  5  6  1  0
  6  7  1  0
  7  8  1  0
  8  9  2  0
  8 31  1  0
  9 10  1  0
  9 11  1  0
 11 12  2  0
 12 13  1  0
 12 30  1  0
 13 14  1  0
 13 17  1  0
 14 15  2  0
 15 16  1  0
 16 17  2  0
 17 18  1  0
 18 19  2  3
 19 20  1  0
 20 21  2  0
 20 25  1  0
 21 22  1  0
 22 23  2  0
 23 24  1  0
 23 29  1  0
 24 25  2  0
 24 26  1  0
 26 27  1  0
 27 28  1  0
 28 29  1  0
 30 31  2  0
M  END
