
     RDKit          3D

 31 35  0  0  0  0  0  0  0  0999 V2000
   -5.1520    2.2090   -1.0160 C   0  0  0  0  0  0  0  0  0  0  0  0
   -4.2310    1.8430    0.0580 N   0  0  1  0  0  0  0  0  0  0  0  0
   -3.5620    3.0370    0.4870 C   0  0  0  0  0  0  0  0  0  0  0  0
   -4.9690    1.2540    1.1350 C   0  0  0  0  0  0  0  0  0  0  0  0
   -3.2430    0.9390   -0.5020 C   0  0  0  0  0  0  0  0  0  0  0  0
   -3.8180   -0.4040   -0.8300 C   0  0  0  0  0  0  0  0  0  0  0  0
   -2.6930   -1.2580   -1.4090 C   0  0  0  0  0  0  0  0  0  0  0  0
   -1.6090   -1.4170   -0.4690 N   0  0  0  0  0  0  0  0  0  0  0  0
   -0.4470   -0.6010   -0.2940 C   0  0  0  0  0  0  0  0  0  0  0  0
   -0.0600    0.2640   -1.1170 O   0  0  0  0  0  0  0  0  0  0  0  0
    0.1320   -1.0090    1.0060 C   0  0  1  0  0  0  0  0  0  0  0  0
   -0.2110   -2.4830    1.0370 C   0  0  1  0  0  0  0  0  0  0  0  0
   -1.5780   -2.5040    0.4720 C   0  0  0  0  0  0  0  0  0  0  0  0
   -2.5180   -3.2950    0.7470 O   0  0  0  0  0  0  0  0  0  0  0  0
    0.8170   -3.0670    0.1100 C   0  0  2  0  0  0  0  0  0  0  0  0
    1.5200   -4.1980    0.8260 C   0  0  0  0  0  0  0  0  0  0  0  0
    2.9410   -4.0930    0.3210 C   0  0  0  0  0  0  0  0  0  0  0  0
    3.0930   -2.6780   -0.1760 C   0  0  0  0  0  0  0  0  0  0  0  0
    1.8100   -2.0540   -0.1400 N   0  0  2  0  0  0  0  0  0  0  0  0
    1.6600   -1.0950    0.9380 C   0  0  1  0  0  0  0  0  0  0  0  0
    2.2630    0.2040    0.6330 C   0  0  0  0  0  0  0  0  0  0  0  0
    1.6500    1.4140    0.8790 C   0  0  0  0  0  0  0  0  0  0  0  0
    2.4550    2.3880    0.4900 O   0  0  0  0  0  0  0  0  0  0  0  0
    3.5480    1.8550    0.0090 C   0  0  0  0  0  0  0  0  0  0  0  0
    4.6670    2.6440   -0.5170 C   0  0  0  0  0  0  0  0  0  0  0  0
    5.8370    2.2810   -1.0370 C   0  0  0  0  0  0  0  0  0  0  0  0
    6.6970    3.2310   -1.4510 C   0  0  0  0  0  0  0  0  0  0  0  0
    6.3510    4.5300   -1.3280 C   0  0  0  0  0  0  0  0  0  0  0  0
    7.1580    6.0310   -1.7310 Cl  0  0  0  0  0  0  0  0  0  0  0  0
    4.6650    4.4500   -0.5630 S   0  0  0  0  0  0  0  0  0  0  0  0
    3.4500    0.5190    0.0880 N   0  0  0  0  0  0  0  0  0  0  0  0
  2  1  1  6
  2  3  1  0
  2  4  1  0
  2  5  1  0
  5  6  1  0
  6  7  1  0
  7  8  1  0
  8  9  1  0
  8 13  1  0
  9 10  2  0
 11  9  1  6
 11 12  1  0
 11 20  1  0
 12 13  1  6
 12 15  1  0
 13 14  2  0
 15 16  1  1
 15 19  1  0
 16 17  1  0
 17 18  1  0
 19 18  1  1
 19 20  1  0
 20 21  1  6
 21 22  2  0
 21 31  1  0
 22 23  1  0
 23 24  1  0
 24 25  1  0
 24 31  2  0
 25 26  2  0
 25 30  1  0
 26 27  1  0
 27 28  2  0
 28 29  1  0
 28 30  1  0
M  CHG  2   2   1  19   1
M  END
