
     RDKit          3D

 31 35  0  0  0  0  0  0  0  0999 V2000
    4.5870    0.0790   -3.5970 C   0  0  0  0  0  0  0  0  0  0  0  0
    3.4060   -0.5760   -2.9810 C   0  0  0  0  0  0  0  0  0  0  0  0
    2.5030   -1.4070   -3.5500 N   0  0  0  0  0  0  0  0  0  0  0  0
    1.5920   -1.7900   -2.6850 N   0  0  0  0  0  0  0  0  0  0  0  0
    1.9040   -1.1950   -1.5170 C   0  0  0  0  0  0  0  0  0  0  0  0
    1.1830   -1.2950   -0.2010 C   0  0  2  0  0  0  0  0  0  0  0  0
    0.0250   -2.2530   -0.4090 C   0  0  0  0  0  0  0  0  0  0  0  0
   -1.0160   -1.4870   -1.2030 C   0  0  0  0  0  0  0  0  0  0  0  0
   -1.9380   -0.7810   -0.3470 N   0  0  0  0  0  0  0  0  0  0  0  0
   -3.2750   -0.7780   -0.7950 C   0  0  0  0  0  0  0  0  0  0  0  0
   -3.6090   -1.3660   -1.8760 O   0  0  0  0  0  0  0  0  0  0  0  0
   -4.3450   -0.1200   -0.0750 C   0  0  0  0  0  0  0  0  0  0  0  0
   -5.6780   -0.0760   -0.4480 C   0  0  0  0  0  0  0  0  0  0  0  0
   -6.3160    0.6520    0.5320 C   0  0  0  0  0  0  0  0  0  0  0  0
   -7.7700    0.9510    0.5380 C   0  0  0  0  0  0  0  0  0  0  0  0
   -5.3750    1.0020    1.4210 N   0  0  0  0  0  0  0  0  0  0  0  0
   -5.6330    1.7830    2.6140 C   0  0  0  0  0  0  0  0  0  0  0  0
   -4.2000    0.5500    1.0710 N   0  0  0  0  0  0  0  0  0  0  0  0
   -1.6650   -0.0980    0.8790 C   0  0  0  0  0  0  0  0  0  0  0  0
   -0.1710   -0.1130    1.2100 C   0  0  0  0  0  0  0  0  0  0  0  0
    0.5700   -0.0440    0.0580 O   0  0  0  0  0  0  0  0  0  0  0  0
    3.0380   -0.4230   -1.6620 C   0  0  0  0  0  0  0  0  0  0  0  0
    3.6930    0.3720   -0.6340 C   0  0  0  0  0  0  0  0  0  0  0  0
    3.4710    1.7320   -0.5670 C   0  0  0  0  0  0  0  0  0  0  0  0
    4.0670    2.5310    0.3880 C   0  0  0  0  0  0  0  0  0  0  0  0
    4.9190    1.9870    1.3270 C   0  0  0  0  0  0  0  0  0  0  0  0
    5.6090    2.5090    2.3320 O   0  0  0  0  0  0  0  0  0  0  0  0
    6.2950    1.5740    2.9600 C   0  0  0  0  0  0  0  0  0  0  0  0
    6.0260    0.3860    2.3180 C   0  0  0  0  0  0  0  0  0  0  0  0
    5.1540    0.6240    1.2770 C   0  0  0  0  0  0  0  0  0  0  0  0
    4.5460   -0.1610    0.3090 C   0  0  0  0  0  0  0  0  0  0  0  0
  1  2  1  0
  2  3  2  0
  2 22  1  0
  3  4  1  0
  4  5  1  0
  6  5  1  6
  5 22  2  0
  6  7  1  0
  6 21  1  0
  7  8  1  0
  8  9  1  0
  9 10  1  0
  9 19  1  0
 10 11  2  0
 10 12  1  0
 12 13  1  0
 12 18  2  0
 13 14  2  0
 14 15  1  0
 14 16  1  0
 16 17  1  0
 16 18  1  0
 19 20  1  0
 20 21  1  0
 22 23  1  0
 23 24  2  0
 23 31  1  0
 24 25  1  0
 25 26  2  0
 26 27  1  0
 26 30  1  0
 27 28  1  0
 28 29  2  0
 29 30  1  0
 30 31  2  0
M  END
