
     RDKit          3D

 31 35  0  0  0  0  0  0  0  0999 V2000
   -8.0610   -0.0430    2.3370 C   0  0  0  0  0  0  0  0  0  0  0  0
   -7.6560   -0.8700    1.1660 C   0  0  0  0  0  0  0  0  0  0  0  0
   -6.1990   -0.8480    0.8470 C   0  0  0  0  0  0  0  0  0  0  0  0
   -5.6740    0.5180    0.5260 C   0  0  0  0  0  0  0  0  0  0  0  0
   -4.2210    0.4800    0.2170 C   0  0  0  0  0  0  0  0  0  0  0  0
   -3.7440    0.5780   -1.0950 C   0  0  0  0  0  0  0  0  0  0  0  0
   -2.3920    0.5420   -1.3510 C   0  0  0  0  0  0  0  0  0  0  0  0
   -1.9410    0.6390   -2.6500 O   0  0  0  0  0  0  0  0  0  0  0  0
   -2.8480    0.7720   -3.6980 C   0  0  0  0  0  0  0  0  0  0  0  0
   -2.0520    0.8530   -4.9840 C   0  0  0  0  0  0  0  0  0  0  0  0
   -1.4600    0.4130   -0.3500 C   0  0  0  0  0  0  0  0  0  0  0  0
   -0.1600    0.3490   -0.2630 O   0  0  0  0  0  0  0  0  0  0  0  0
    0.2480    0.2210    0.9710 C   0  0  0  0  0  0  0  0  0  0  0  0
    1.6250    0.1200    1.4430 C   0  0  0  0  0  0  0  0  0  0  0  0
    2.0520   -0.0210    2.7450 C   0  0  0  0  0  0  0  0  0  0  0  0
    3.4080   -0.0770    2.7790 N   0  0  0  0  0  0  0  0  0  0  0  0
    3.8280    0.0270    1.5120 N   0  0  0  0  0  0  0  0  0  0  0  0
    5.0500    0.0330    0.9470 C   0  0  0  0  0  0  0  0  0  0  0  0
    5.2200    0.1570   -0.4190 C   0  0  0  0  0  0  0  0  0  0  0  0
    4.1290    0.2760   -1.2150 C   0  0  0  0  0  0  0  0  0  0  0  0
    2.9040    0.2700   -0.6570 N   0  0  0  0  0  0  0  0  0  0  0  0
    2.7740    0.1470    0.6830 C   0  0  0  0  0  0  0  0  0  0  0  0
    6.6240    0.1470   -0.9030 C   0  0  0  0  0  0  0  0  0  0  0  0
    7.2960   -0.9610   -0.3150 N   0  0  0  0  0  0  0  0  0  0  0  0
    8.5610   -1.2960   -0.8840 C   0  0  0  0  0  0  0  0  0  0  0  0
    7.1680   -1.1120    1.0860 C   0  0  0  0  0  0  0  0  0  0  0  0
    6.2860   -0.0940    1.7590 C   0  0  0  0  0  0  0  0  0  0  0  0
   -0.8710    0.2020    1.7180 N   0  0  0  0  0  0  0  0  0  0  0  0
   -1.9480    0.3180    0.9420 C   0  0  0  0  0  0  0  0  0  0  0  0
   -3.2880    0.3490    1.2360 C   0  0  0  0  0  0  0  0  0  0  0  0
   -3.7720    0.2510    2.5540 O   0  0  0  0  0  0  0  0  0  0  0  0
  1  2  1  0
  2  3  1  0
  3  4  1  0
  4  5  1  0
  5  6  2  0
  5 30  1  0
  6  7  1  0
  7  8  1  0
  7 11  2  0
  8  9  1  0
  9 10  1  0
 11 12  1  0
 11 29  1  0
 12 13  1  0
 13 14  1  0
 13 28  2  0
 14 15  1  0
 14 22  2  0
 15 16  2  0
 16 17  1  0
 17 18  1  0
 17 22  1  0
 18 19  2  0
 18 27  1  0
 19 20  1  0
 19 23  1  0
 20 21  2  0
 21 22  1  0
 23 24  1  0
 24 25  1  0
 24 26  1  0
 26 27  1  0
 28 29  1  0
 29 30  2  0
 30 31  1  0
M  END
