
     RDKit          3D

 29 31  0  0  0  0  0  0  0  0999 V2000
   -5.1330    3.5560    0.4480 C   0  0  0  0  0  0  0  0  0  0  0  0
   -3.8580    4.0700    1.0520 C   0  0  0  0  0  0  0  0  0  0  0  0
   -3.1750    3.0810    1.9550 C   0  0  1  0  0  0  0  0  0  0  0  0
   -4.1280    2.8120    2.9850 O   0  0  0  0  0  0  0  0  0  0  0  0
   -2.9070    1.7360    1.3290 C   0  0  0  0  0  0  0  0  0  0  0  0
   -1.9490    1.7460    0.2420 N   0  0  1  0  0  0  0  0  0  0  0  0
   -0.6280    2.1290    0.6920 C   0  0  0  0  0  0  0  0  0  0  0  0
    0.1440    2.9830   -0.2610 C   0  0  0  0  0  0  0  0  0  0  0  0
   -0.4810    4.2970   -0.6060 C   0  0  0  0  0  0  0  0  0  0  0  0
    0.4190    4.9350   -1.4930 O   0  0  0  0  0  0  0  0  0  0  0  0
   -2.0040    0.6180   -0.6070 C   0  0  2  0  0  0  0  0  0  0  0  0
   -3.3540   -0.0760   -0.5610 C   0  0  0  0  0  0  0  0  0  0  0  0
   -3.3980   -1.2130   -1.4620 N   0  0  0  0  0  0  0  0  0  0  0  0
   -0.9140   -0.3770   -0.4720 C   0  0  0  0  0  0  0  0  0  0  0  0
   -1.0070   -1.6630   -0.0230 C   0  0  0  0  0  0  0  0  0  0  0  0
    0.2690   -2.1810   -0.0860 C   0  0  0  0  0  0  0  0  0  0  0  0
    1.1050   -1.1870   -0.5760 C   0  0  0  0  0  0  0  0  0  0  0  0
    0.3270   -0.1510   -0.7770 O   0  0  0  0  0  0  0  0  0  0  0  0
    2.5190   -1.4150   -0.7680 C   0  0  0  0  0  0  0  0  0  0  0  0
    3.0800   -2.5980   -0.4870 C   0  0  0  0  0  0  0  0  0  0  0  0
    4.5270   -2.7440   -0.7060 C   0  0  0  0  0  0  0  0  0  0  0  0
    5.2790   -3.7310   -0.5210 C   0  0  0  0  0  0  0  0  0  0  0  0
    6.8010   -3.6930   -0.8100 C   0  0  0  0  0  0  0  0  0  0  0  0
    7.2970   -4.4880    0.3740 C   0  0  0  0  0  0  0  0  0  0  0  0
    6.2120   -5.2880    0.8200 O   0  0  0  0  0  0  0  0  0  0  0  0
    5.1230   -5.0830   -0.0650 C   0  0  0  0  0  0  0  0  0  0  0  0
    4.2600   -5.9440   -0.3390 O   0  0  0  0  0  0  0  0  0  0  0  0
    2.2660   -3.6990   -0.0170 C   0  0  0  0  0  0  0  0  0  0  0  0
    0.8830   -3.4010    0.2440 N   0  0  0  0  0  0  0  0  0  0  0  0
  1  2  1  0
  2  3  1  0
  3  4  1  1
  3  5  1  0
  6  5  1  1
  6  7  1  0
  6 11  1  0
  7  8  1  0
  8  9  1  0
  9 10  1  0
 11 12  1  1
 11 14  1  0
 12 13  1  0
 14 15  2  0
 14 18  1  0
 15 16  1  0
 16 17  2  0
 16 29  1  0
 17 18  1  0
 17 19  1  0
 19 20  2  0
 20 21  1  0
 20 28  1  0
 21 22  2  3
 22 23  1  0
 22 26  1  0
 23 24  1  0
 24 25  1  0
 25 26  1  0
 26 27  2  0
 28 29  1  0
M  CHG  2   6   1  13   1
M  END
