
     RDKit          3D

 33 35  0  0  0  0  0  0  0  0999 V2000
    4.0230   -3.3560    1.3350 C   0  0  0  0  0  0  0  0  0  0  0  0
    3.6020   -1.9530    1.7480 C   0  0  0  0  0  0  0  0  0  0  0  0
    2.3550   -1.8800    2.3010 O   0  0  0  0  0  0  0  0  0  0  0  0
    1.2900   -2.3020    1.5660 C   0  0  0  0  0  0  0  0  0  0  0  0
    1.0440   -1.5630    0.2880 C   0  0  2  0  0  0  0  0  0  0  0  0
    2.1300   -1.7390   -0.5510 O   0  0  0  0  0  0  0  0  0  0  0  0
    0.9940   -0.0640    0.5850 C   0  0  0  0  0  0  0  0  0  0  0  0
    1.4540    0.6920   -0.5880 C   0  0  0  0  0  0  0  0  0  0  0  0
    2.2450    1.9320   -0.3110 C   0  0  0  0  0  0  0  0  0  0  0  0
    3.4350    2.0320   -1.0260 C   0  0  0  0  0  0  0  0  0  0  0  0
    4.3020    3.0870   -0.9050 C   0  0  0  0  0  0  0  0  0  0  0  0
    5.5300    3.1640   -1.6640 C   0  0  0  0  0  0  0  0  0  0  0  0
    6.5110    3.2410   -2.2690 N   0  0  0  0  0  0  0  0  0  0  0  0
    3.9820    4.0890   -0.0400 C   0  0  0  0  0  0  0  0  0  0  0  0
    2.7900    4.0000    0.6840 C   0  0  0  0  0  0  0  0  0  0  0  0
    1.8960    2.9350    0.5720 C   0  0  0  0  0  0  0  0  0  0  0  0
    0.7920    3.0160    1.3470 O   0  0  0  0  0  0  0  0  0  0  0  0
   -0.5620    2.9160    1.2720 C   0  0  0  0  0  0  0  0  0  0  0  0
   -1.1430    3.0380   -0.0900 C   0  0  0  0  0  0  0  0  0  0  0  0
   -0.8560    4.1540   -0.6630 O   0  0  0  0  0  0  0  0  0  0  0  0
   -1.9330    2.1100   -0.7820 N   0  0  0  0  0  0  0  0  0  0  0  0
   -3.1120    1.4250   -0.4070 C   0  0  2  0  0  0  0  0  0  0  0  0
   -4.0270    2.1170    0.5590 C   0  0  0  0  0  0  0  0  0  0  0  0
   -4.9810    1.1330    0.8140 O   0  0  0  0  0  0  0  0  0  0  0  0
   -4.3680   -0.1090    0.7450 C   0  0  1  0  0  0  0  0  0  0  0  0
   -5.1630   -1.0000   -0.1420 C   0  0  0  0  0  0  0  0  0  0  0  0
   -5.3110   -0.5590   -1.4440 O   0  0  0  0  0  0  0  0  0  0  0  0
   -2.9370    0.1120    0.3170 C   0  0  1  0  0  0  0  0  0  0  0  0
   -2.3520   -0.9490   -0.5390 C   0  0  0  0  0  0  0  0  0  0  0  0
   -1.4360   -1.7510    0.2510 N   0  0  0  0  0  0  0  0  0  0  0  0
   -0.2040   -2.0200   -0.4230 C   0  0  2  0  0  0  0  0  0  0  0  0
   -0.1580   -3.4470   -0.8490 C   0  0  0  0  0  0  0  0  0  0  0  0
   -0.2390   -4.3890    0.1350 O   0  0  0  0  0  0  0  0  0  0  0  0
  1  2  1  0
  2  3  1  0
  3  4  1  0
  4  5  1  0
  5  6  1  6
  5  7  1  0
  5 31  1  0
  7  8  1  0
  8  9  1  0
  9 10  2  0
  9 16  1  0
 10 11  1  0
 11 12  1  0
 11 14  2  0
 12 13  3  0
 14 15  1  0
 15 16  2  0
 16 17  1  0
 17 18  1  0
 18 19  1  0
 19 20  2  0
 19 21  1  0
 21 22  1  0
 22 23  1  1
 22 28  1  0
 23 24  1  0
 24 25  1  0
 25 26  1  6
 25 28  1  0
 26 27  1  0
 28 29  1  6
 29 30  1  0
 30 31  1  0
 31 32  1  1
 32 33  1  0
M  CHG  1  30   1
M  END
