
     RDKit          3D

 33 34  0  0  0  0  0  0  0  0999 V2000
   -1.2110    5.0160   -2.5730 C   0  0  0  0  0  0  0  0  0  0  0  0
   -1.3770    4.4630   -1.1950 C   0  0  0  0  0  0  0  0  0  0  0  0
   -1.0850    3.0610   -1.1520 O   0  0  0  0  0  0  0  0  0  0  0  0
   -1.1810    2.4030    0.0520 C   0  0  0  0  0  0  0  0  0  0  0  0
   -1.5230    3.0650    1.0650 O   0  0  0  0  0  0  0  0  0  0  0  0
   -0.8800    0.9090    0.1430 C   0  0  2  0  0  0  0  0  0  0  0  0
   -1.0350    0.5290    1.5500 C   0  0  0  0  0  0  0  0  0  0  0  0
   -2.3820   -0.0590    1.9380 C   0  0  1  0  0  0  0  0  0  0  0  0
   -2.2200   -1.3630    2.4650 O   0  0  0  0  0  0  0  0  0  0  0  0
   -2.9960    0.7130    3.1030 C   0  0  0  0  0  0  0  0  0  0  0  0
   -2.0570    0.6180    4.2570 C   0  0  0  0  0  0  0  0  0  0  0  0
   -3.3710   -0.0710    0.8520 C   0  0  0  0  0  0  0  0  0  0  0  0
   -3.6800   -0.9920   -0.0140 C   0  0  0  0  0  0  0  0  0  0  0  0
   -3.0990   -2.3440   -0.1600 C   0  0  0  0  0  0  0  0  0  0  0  0
   -2.3960   -2.4940   -1.5050 C   0  0  2  0  0  0  0  0  0  0  0  0
   -3.3910   -3.2000   -2.4300 C   0  0  0  0  0  0  0  0  0  0  0  0
   -1.2450   -3.2740   -1.4700 O   0  0  0  0  0  0  0  0  0  0  0  0
    0.0050   -2.8620   -1.0660 C   0  0  0  0  0  0  0  0  0  0  0  0
    0.9930   -3.5090   -1.4260 O   0  0  0  0  0  0  0  0  0  0  0  0
    0.1420   -1.6740   -0.2220 C   0  0  0  0  0  0  0  0  0  0  0  0
    1.0110   -0.5630   -0.7970 C   0  0  2  0  0  0  0  0  0  0  0  0
    1.0310   -0.8080   -2.2920 C   0  0  0  0  0  0  0  0  0  0  0  0
    2.3930   -0.8180   -0.2930 C   0  0  1  0  0  0  0  0  0  0  0  0
    3.5080   -0.4920   -1.2490 C   0  0  0  0  0  0  0  0  0  0  0  0
    4.8020   -0.8050   -0.5710 C   0  0  0  0  0  0  0  0  0  0  0  0
    5.5080    0.0470    0.0210 O   0  0  0  0  0  0  0  0  0  0  0  0
    5.2660   -2.1120   -0.5860 O   0  0  0  0  0  0  0  0  0  0  0  0
    6.4710   -2.5240    0.0260 C   0  0  0  0  0  0  0  0  0  0  0  0
    2.6760   -0.2310    1.0560 C   0  0  0  0  0  0  0  0  0  0  0  0
    2.2910    1.1920    1.2060 C   0  0  1  0  0  0  0  0  0  0  0  0
    3.4490    2.0010    1.3170 O   0  0  0  0  0  0  0  0  0  0  0  0
    1.4760    1.7530    0.1060 C   0  0  0  0  0  0  0  0  0  0  0  0
    0.4660    0.7990   -0.5030 C   0  0  2  0  0  0  0  0  0  0  0  0
  1  2  1  0
  2  3  1  0
  3  4  1  0
  4  5  2  0
  6  4  1  1
  6  7  1  0
  6 33  1  0
  7  8  1  0
  8  9  1  1
  8 10  1  0
  8 12  1  0
 10 11  1  0
 12 13  2  0
 13 14  1  0
 14 15  1  0
 15 16  1  6
 15 17  1  0
 17 18  1  0
 18 19  2  0
 18 20  1  0
 20 21  1  0
 21 22  1  6
 21 23  1  0
 21 33  1  0
 23 24  1  6
 23 29  1  0
 24 25  1  0
 25 26  2  0
 25 27  1  0
 27 28  1  0
 29 30  1  0
 30 31  1  6
 30 32  1  0
 33 32  1  1
M  END
