
     RDKit          3D

 32 33  0  0  0  0  0  0  0  0999 V2000
    8.2890   -0.8750    0.1130 C   0  0  0  0  0  0  0  0  0  0  0  0
    7.7510    0.3710   -0.5090 C   0  0  2  0  0  0  0  0  0  0  0  0
    8.2000    0.3520   -1.9780 C   0  0  0  0  0  0  0  0  0  0  0  0
    8.3460    1.5020    0.0430 O   0  0  0  0  0  0  0  0  0  0  0  0
    6.2580    0.4670   -0.5370 C   0  0  1  0  0  0  0  0  0  0  0  0
    5.5900   -0.6290   -1.2940 C   0  0  0  0  0  0  0  0  0  0  0  0
    4.1290   -0.4940   -0.8430 C   0  0  0  0  0  0  0  0  0  0  0  0
    4.1350    0.3040    0.4190 C   0  0  1  0  0  0  0  0  0  0  0  0
    3.3590   -0.3400    1.5400 C   0  0  0  0  0  0  0  0  0  0  0  0
    2.0340   -0.5410    1.2530 O   0  0  0  0  0  0  0  0  0  0  0  0
    1.3510    0.6390    0.9680 C   0  0  0  0  0  0  0  0  0  0  0  0
   -0.0930    0.4110    0.6580 C   0  0  2  0  0  0  0  0  0  0  0  0
   -0.8070   -0.3160    1.8010 C   0  0  0  0  0  0  0  0  0  0  0  0
   -2.2760   -0.0340    1.5720 C   0  0  1  0  0  0  0  0  0  0  0  0
   -3.0150   -1.1510    2.2900 C   0  0  0  0  0  0  0  0  0  0  0  0
   -2.5320    1.2350    2.3840 C   0  0  0  0  0  0  0  0  0  0  0  0
   -2.6790    0.0560    0.1490 C   0  0  2  0  0  0  0  0  0  0  0  0
   -3.7750   -0.7030   -0.0850 O   0  0  0  0  0  0  0  0  0  0  0  0
   -4.9330   -0.2620   -0.5530 C   0  0  2  0  0  0  0  0  0  0  0  0
   -5.8350   -1.5260   -0.6780 C   0  0  0  0  0  0  0  0  0  0  0  0
   -4.8860    0.2530   -2.0000 C   0  0  0  0  0  0  0  0  0  0  0  0
   -5.7460    0.7110    0.2120 C   0  0  2  0  0  0  0  0  0  0  0  0
   -6.9570    1.2120   -0.5800 C   0  0  0  0  0  0  0  0  0  0  0  0
   -5.0030    1.8970    0.4240 O   0  0  0  0  0  0  0  0  0  0  0  0
   -6.2890    0.2580    1.5240 C   0  0  0  0  0  0  0  0  0  0  0  0
   -7.0420   -0.8920    1.4590 O   0  0  0  0  0  0  0  0  0  0  0  0
   -1.6120   -0.3090   -0.8680 C   0  0  2  0  0  0  0  0  0  0  0  0
   -1.6010    0.6670   -2.0450 C   0  0  0  0  0  0  0  0  0  0  0  0
   -1.9270   -1.6850   -1.4840 C   0  0  0  0  0  0  0  0  0  0  0  0
   -0.3330   -0.3980   -0.4180 O   0  0  0  0  0  0  0  0  0  0  0  0
    5.6060    0.3560    0.8220 C   0  0  1  0  0  0  0  0  0  0  0  0
    5.9750   -0.7880    1.5040 O   0  0  0  0  0  0  0  0  0  0  0  0
  2  1  1  1
  2  3  1  0
  2  4  1  0
  2  5  1  0
  5  6  1  6
  5 31  1  0
  6  7  1  0
  7  8  1  0
  8  9  1  1
  8 31  1  0
  9 10  1  0
 10 11  1  0
 12 11  1  1
 12 13  1  0
 12 30  1  0
 13 14  1  0
 14 15  1  1
 14 16  1  0
 14 17  1  0
 17 18  1  1
 17 27  1  0
 18 19  1  0
 19 20  1  6
 19 21  1  0
 19 22  1  0
 22 23  1  6
 22 24  1  0
 22 25  1  0
 25 26  1  0
 27 28  1  6
 27 29  1  0
 27 30  1  0
 31 32  1  6
M  END
