
     RDKit          3D

 33 34  0  0  0  0  0  0  0  0999 V2000
    7.0960    0.6560   -0.2050 C   0  0  0  0  0  0  0  0  0  0  0  0
    6.7500   -0.7170    0.1870 C   0  0  0  0  0  0  0  0  0  0  0  0
    5.4780   -0.9210    0.9950 C   0  0  2  0  0  0  0  0  0  0  0  0
    4.3280   -0.4580    0.2200 C   0  0  0  0  0  0  0  0  0  0  0  0
    4.5860    0.2310   -0.7930 O   0  0  0  0  0  0  0  0  0  0  0  0
    2.9190   -0.7120    0.5090 C   0  0  0  0  0  0  0  0  0  0  0  0
    2.6840   -1.6700    1.6160 C   0  0  0  0  0  0  0  0  0  0  0  0
    1.9660   -0.2310   -0.2020 C   0  0  0  0  0  0  0  0  0  0  0  0
    0.4690   -0.3390   -0.1010 C   0  0  0  0  0  0  0  0  0  0  0  0
   -0.0310   -0.4200   -1.3540 C   0  0  0  0  0  0  0  0  0  0  0  0
   -1.3600   -0.5270   -1.6120 O   0  0  0  0  0  0  0  0  0  0  0  0
   -2.4760    0.2810   -1.6280 C   0  0  1  0  0  0  0  0  0  0  0  0
   -3.0740    0.1390   -3.0500 C   0  0  0  0  0  0  0  0  0  0  0  0
   -3.4460   -1.2970   -3.3320 C   0  0  0  0  0  0  0  0  0  0  0  0
   -3.9710   -1.3280   -4.6230 O   0  0  0  0  0  0  0  0  0  0  0  0
   -3.4650   -0.0880   -0.6950 C   0  0  0  0  0  0  0  0  0  0  0  0
   -4.2430   -0.3690    0.0620 C   0  0  0  0  0  0  0  0  0  0  0  0
   -5.2030   -0.7120    1.0260 C   0  0  2  0  0  0  0  0  0  0  0  0
   -6.5870   -0.2580    0.6430 C   0  0  0  0  0  0  0  0  0  0  0  0
   -6.7230    1.2200    0.4470 C   0  0  0  0  0  0  0  0  0  0  0  0
   -4.8030   -0.0950    2.3650 C   0  0  0  0  0  0  0  0  0  0  0  0
   -3.4970    0.6690    2.2260 C   0  0  0  0  0  0  0  0  0  0  0  0
   -2.4080   -0.1710    2.1620 O   0  0  0  0  0  0  0  0  0  0  0  0
   -1.3290    0.5460    1.6480 C   0  0  0  0  0  0  0  0  0  0  0  0
   -0.2750   -0.3650    1.1310 C   0  0  0  0  0  0  0  0  0  0  0  0
   -0.0350   -1.3100    1.9720 O   0  0  0  0  0  0  0  0  0  0  0  0
    1.1310   -0.3740   -2.2880 C   0  0  1  0  0  0  0  0  0  0  0  0
    1.0210    0.2240   -3.4840 O   0  0  0  0  0  0  0  0  0  0  0  0
    2.0800    0.5600   -1.4690 C   0  0  1  0  0  0  0  0  0  0  0  0
    1.3530    1.8820   -1.3250 C   0  0  0  0  0  0  0  0  0  0  0  0
    5.6950   -0.0800    2.2580 C   0  0  2  0  0  0  0  0  0  0  0  0
    4.6350   -0.1350    3.1310 O   0  0  0  0  0  0  0  0  0  0  0  0
    6.0720    1.2170    1.9730 O   0  0  0  0  0  0  0  0  0  0  0  0
  1  2  1  0
  3  2  1  6
  3  4  1  0
  3 31  1  0
  4  5  2  0
  4  6  1  0
  6  7  1  0
  6  8  2  3
  8  9  1  0
  8 29  1  0
  9 10  2  0
  9 25  1  0
 10 11  1  0
 10 27  1  0
 11 12  1  0
 12 13  1  6
 12 16  1  0
 13 14  1  0
 14 15  1  0
 16 17  3  0
 17 18  1  0
 18 19  1  6
 18 21  1  0
 19 20  1  0
 21 22  1  0
 22 23  1  0
 23 24  1  0
 24 25  1  0
 25 26  2  0
 27 28  1  6
 27 29  1  0
 29 30  1  1
 31 32  1  6
 31 33  1  0
M  END
