
     RDKit          3D

 32 36  0  0  0  0  0  0  0  0999 V2000
    0.6380    0.2560   -0.8140 O   0  0  0  0  0  0  0  0  0  0  0  0
    0.1850    1.4190   -0.5410 C   0  0  0  0  0  0  0  0  0  0  0  0
    1.0130    2.5720   -0.1770 C   0  0  1  0  0  0  0  0  0  0  0  0
    1.8780    3.0510   -1.1870 N   0  0  0  0  0  0  0  0  0  0  0  0
    3.5380    3.0560   -0.8260 S   0  0  2  0  0  0  0  0  0  0  0  0
    3.9190    3.9810    0.2640 O   0  0  0  0  0  0  0  0  0  0  0  0
    4.2710    3.5250   -2.0770 O   0  0  0  0  0  0  0  0  0  0  0  0
    4.0600    1.4130   -0.5280 C   0  0  0  0  0  0  0  0  0  0  0  0
    4.5240    0.6320   -1.5800 C   0  0  0  0  0  0  0  0  0  0  0  0
    4.9460   -0.6690   -1.3890 C   0  0  0  0  0  0  0  0  0  0  0  0
    4.9140   -1.2180   -0.1400 C   0  0  0  0  0  0  0  0  0  0  0  0
    5.3520   -2.5390    0.0010 C   0  0  0  0  0  0  0  0  0  0  0  0
    5.3360   -3.1350    1.2440 C   0  0  0  0  0  0  0  0  0  0  0  0
    5.8840   -4.7990    1.4510 Cl  0  0  0  0  0  0  0  0  0  0  0  0
    4.8810   -2.3930    2.3190 C   0  0  0  0  0  0  0  0  0  0  0  0
    4.4470   -1.0760    2.1620 C   0  0  0  0  0  0  0  0  0  0  0  0
    4.4640   -0.4840    0.9170 C   0  0  0  0  0  0  0  0  0  0  0  0
    4.0450    0.8160    0.7130 C   0  0  0  0  0  0  0  0  0  0  0  0
   -0.0340    3.5630    0.2720 C   0  0  0  0  0  0  0  0  0  0  0  0
   -1.3030    3.1580   -0.4920 C   0  0  0  0  0  0  0  0  0  0  0  0
   -1.2010    1.7160   -0.5630 N   0  0  0  0  0  0  0  0  0  0  0  0
   -2.3190    0.8380   -0.6410 C   0  0  0  0  0  0  0  0  0  0  0  0
   -2.9030    0.5010   -1.8460 C   0  0  0  0  0  0  0  0  0  0  0  0
   -3.9920   -0.3500   -1.9120 C   0  0  0  0  0  0  0  0  0  0  0  0
   -4.5450   -0.9030   -0.7790 C   0  0  0  0  0  0  0  0  0  0  0  0
   -3.9790   -0.5820    0.4350 C   0  0  0  0  0  0  0  0  0  0  0  0
   -2.8850    0.2760    0.4800 C   0  0  0  0  0  0  0  0  0  0  0  0
   -2.3540    0.5710    1.6780 F   0  0  0  0  0  0  0  0  0  0  0  0
   -4.5630   -1.1640    1.6650 C   0  0  0  0  0  0  0  0  0  0  0  0
   -5.1670   -2.5060    1.4580 C   0  0  0  0  0  0  0  0  0  0  0  0
   -5.3620   -2.9150    0.1060 N   0  0  0  0  0  0  0  0  0  0  0  0
   -5.7070   -1.8210   -0.7810 C   0  0  0  0  0  0  0  0  0  0  0  0
  1  2  2  0
  2  3  1  0
  2 21  1  0
  3  4  1  6
  3 19  1  0
  5  4  1  6
  5  6  2  0
  5  7  2  0
  5  8  1  0
  8  9  2  0
  8 18  1  0
  9 10  1  0
 10 11  2  0
 11 12  1  0
 11 17  1  0
 12 13  2  0
 13 14  1  0
 13 15  1  0
 15 16  2  0
 16 17  1  0
 17 18  2  0
 19 20  1  0
 20 21  1  0
 21 22  1  0
 22 23  2  0
 22 27  1  0
 23 24  1  0
 24 25  2  0
 25 26  1  0
 25 32  1  0
 26 27  2  0
 26 29  1  0
 27 28  1  0
 29 30  1  0
 30 31  1  0
 31 32  1  0
M  CHG  1  31   1
M  END
