
     RDKit          3D

 32 33  0  0  0  0  0  0  0  0999 V2000
    0.8370    3.7220   -0.3950 C   0  0  0  0  0  0  0  0  0  0  0  0
    0.9340    2.2540   -0.6170 C   0  0  1  0  0  0  0  0  0  0  0  0
    2.2130    1.7150    0.0940 C   0  0  0  0  0  0  0  0  0  0  0  0
    2.1820    0.2430   -0.1340 C   0  0  2  0  0  0  0  0  0  0  0  0
    1.9700   -0.4240    1.0720 O   0  0  0  0  0  0  0  0  0  0  0  0
    3.5550   -0.1970   -0.5720 C   0  0  0  0  0  0  0  0  0  0  0  0
    4.6830    0.0090    0.3250 C   0  0  2  0  0  0  0  0  0  0  0  0
    5.0370    1.3910    0.7500 C   0  0  0  0  0  0  0  0  0  0  0  0
    5.9220   -0.4780   -0.4680 C   0  0  0  0  0  0  0  0  0  0  0  0
    4.6950   -0.8580    1.5660 C   0  0  0  0  0  0  0  0  0  0  0  0
    1.2500   -0.1750   -1.2370 C   0  0  0  0  0  0  0  0  0  0  0  0
   -0.1900    0.2410   -1.0640 C   0  0  1  0  0  0  0  0  0  0  0  0
   -0.6380    0.7010   -2.4690 C   0  0  0  0  0  0  0  0  0  0  0  0
   -1.0760   -0.9160   -0.7650 C   0  0  1  0  0  0  0  0  0  0  0  0
   -1.0370   -1.9390   -1.9240 C   0  0  0  0  0  0  0  0  0  0  0  0
   -2.2560   -2.8130   -1.7180 C   0  0  0  0  0  0  0  0  0  0  0  0
   -2.7540   -2.7380   -0.4150 O   0  0  0  0  0  0  0  0  0  0  0  0
   -1.7440   -2.8660    0.5280 C   0  0  1  0  0  0  0  0  0  0  0  0
   -2.3770   -2.8300    1.9020 C   0  0  0  0  0  0  0  0  0  0  0  0
   -3.2830   -3.9040    1.9920 O   0  0  0  0  0  0  0  0  0  0  0  0
   -1.1180   -4.2440    0.4140 C   0  0  0  0  0  0  0  0  0  0  0  0
   -2.1420   -5.1620    0.6560 O   0  0  0  0  0  0  0  0  0  0  0  0
   -0.7300   -1.7460    0.4350 C   0  0  0  0  0  0  0  0  0  0  0  0
   -0.1900    1.3870   -0.1040 C   0  0  2  0  0  0  0  0  0  0  0  0
   -1.3780    2.1590    0.0970 C   0  0  0  0  0  0  0  0  0  0  0  0
   -1.3650    3.2760   -0.3990 O   0  0  0  0  0  0  0  0  0  0  0  0
   -2.6680    1.9050    0.7860 C   0  0  2  0  0  0  0  0  0  0  0  0
   -2.8780    2.9720    1.8710 C   0  0  0  0  0  0  0  0  0  0  0  0
   -2.7180    0.7070    1.4810 O   0  0  0  0  0  0  0  0  0  0  0  0
   -3.8530    2.0970   -0.1370 C   0  0  0  0  0  0  0  0  0  0  0  0
   -5.1690    1.8540    0.5130 C   0  0  0  0  0  0  0  0  0  0  0  0
   -5.3880    2.7210    1.6060 O   0  0  0  0  0  0  0  0  0  0  0  0
  2  1  1  1
  2  3  1  0
  2 24  1  0
  3  4  1  0
  4  5  1  1
  4  6  1  0
  4 11  1  0
  6  7  1  0
  7  8  1  1
  7  9  1  0
  7 10  1  0
 11 12  1  0
 12 13  1  6
 12 14  1  0
 12 24  1  0
 14 15  1  6
 14 23  1  0
 15 16  1  0
 16 17  1  0
 17 18  1  0
 18 19  1  1
 18 21  1  0
 18 23  1  0
 19 20  1  0
 21 22  1  0
 24 25  1  6
 25 26  2  0
 25 27  1  0
 27 28  1  1
 27 29  1  0
 27 30  1  0
 30 31  1  0
 31 32  1  0
M  END
