
     RDKit          3D

 32 35  0  0  0  0  0  0  0  0999 V2000
   -6.5090    3.2850    0.1180 C   0  0  0  0  0  0  0  0  0  0  0  0
   -6.0850    2.0900    0.9150 C   0  0  2  0  0  0  0  0  0  0  0  0
   -4.7500    1.5630    0.4250 C   0  0  0  0  0  0  0  0  0  0  0  0
   -4.9070    0.0530    0.3460 C   0  0  2  0  0  0  0  0  0  0  0  0
   -3.6350   -0.6460    0.0950 C   0  0  0  0  0  0  0  0  0  0  0  0
   -2.4650   -0.0070   -0.2410 C   0  0  0  0  0  0  0  0  0  0  0  0
   -1.2730   -0.6900   -0.4780 C   0  0  0  0  0  0  0  0  0  0  0  0
   -1.2990   -2.0690   -0.3610 C   0  0  0  0  0  0  0  0  0  0  0  0
   -2.4490   -2.7540   -0.0260 C   0  0  0  0  0  0  0  0  0  0  0  0
   -3.6100   -2.0240    0.1990 C   0  0  0  0  0  0  0  0  0  0  0  0
   -4.8250   -2.6910    0.5560 N   0  0  0  0  0  0  0  0  0  0  0  0
    0.0630   -2.5140   -0.6530 C   0  0  0  0  0  0  0  0  0  0  0  0
    0.3990   -3.7140   -0.6370 O   0  0  0  0  0  0  0  0  0  0  0  0
    0.9070   -1.4050   -0.9460 N   0  0  0  0  0  0  0  0  0  0  0  0
    2.3310   -1.4830   -1.2720 C   0  0  0  0  0  0  0  0  0  0  0  0
    3.1800   -1.3730   -0.0090 C   0  0  0  0  0  0  0  0  0  0  0  0
    4.5890   -1.4680   -0.4300 C   0  0  0  0  0  0  0  0  0  0  0  0
    5.0950   -2.5720   -1.0900 O   0  0  0  0  0  0  0  0  0  0  0  0
    5.4070   -0.4430   -0.1600 C   0  0  0  0  0  0  0  0  0  0  0  0
    6.7960   -0.4900   -0.5530 C   0  0  0  0  0  0  0  0  0  0  0  0
    7.6220    0.4940   -0.3050 C   0  0  0  0  0  0  0  0  0  0  0  0
    7.2600    1.7110    0.3720 C   0  0  0  0  0  0  0  0  0  0  0  0
    8.1630    2.6810    0.5940 C   0  0  0  0  0  0  0  0  0  0  0  0
    7.7110    4.3000    1.4860 Br  0  0  0  0  0  0  0  0  0  0  0  0
    9.5210    2.4640    0.1300 C   0  0  0  0  0  0  0  0  0  0  0  0
    9.8950    1.3610   -0.4960 C   0  0  0  0  0  0  0  0  0  0  0  0
    8.9670    0.3800   -0.7160 O   0  0  0  0  0  0  0  0  0  0  0  0
    0.0820   -0.2500   -0.8400 C   0  0  0  0  0  0  0  0  0  0  0  0
    0.4430    0.9490   -1.0240 O   0  0  0  0  0  0  0  0  0  0  0  0
   -5.9290   -0.1690   -0.7670 C   0  0  0  0  0  0  0  0  0  0  0  0
   -7.2240    0.4090   -0.2270 C   0  0  0  0  0  0  0  0  0  0  0  0
   -7.0590    1.1000    0.9550 O   0  0  0  0  0  0  0  0  0  0  0  0
  2  1  1  6
  2  3  1  0
  2 32  1  0
  3  4  1  0
  4  5  1  6
  4 30  1  0
  5  6  2  0
  5 10  1  0
  6  7  1  0
  7  8  2  0
  7 28  1  0
  8  9  1  0
  8 12  1  0
  9 10  2  0
 10 11  1  0
 12 13  2  0
 12 14  1  0
 14 15  1  0
 14 28  1  0
 15 16  1  0
 16 17  1  0
 17 18  1  0
 17 19  2  3
 19 20  1  0
 20 21  2  3
 21 22  1  0
 21 27  1  0
 22 23  2  0
 23 24  1  0
 23 25  1  0
 25 26  2  0
 26 27  1  0
 28 29  2  0
 30 31  1  0
 31 32  1  0
M  END
