
     RDKit          3D

 32 35  0  0  0  0  0  0  0  0999 V2000
    2.8230    4.7420   -0.8230 C   0  0  0  0  0  0  0  0  0  0  0  0
    3.5130    4.1220    0.2440 O   0  0  0  0  0  0  0  0  0  0  0  0
    3.4270    2.7180    0.3270 C   0  0  0  0  0  0  0  0  0  0  0  0
    2.7060    1.9860   -0.5850 C   0  0  0  0  0  0  0  0  0  0  0  0
    2.5990    0.6160   -0.5360 C   0  0  0  0  0  0  0  0  0  0  0  0
    1.8550   -0.0850   -1.4840 C   0  0  0  0  0  0  0  0  0  0  0  0
    1.7390   -1.4190   -1.4520 N   0  0  0  0  0  0  0  0  0  0  0  0
    0.9660   -2.1290   -2.4400 C   0  0  0  0  0  0  0  0  0  0  0  0
   -0.4540   -2.2920   -2.0410 C   0  0  0  0  0  0  0  0  0  0  0  0
   -1.2030   -2.9020   -2.8460 O   0  0  0  0  0  0  0  0  0  0  0  0
   -1.0010   -1.8160   -0.8420 N   0  0  0  0  0  0  0  0  0  0  0  0
   -2.4170   -2.0410   -0.5640 C   0  0  1  0  0  0  0  0  0  0  0  0
   -2.5220   -2.8580    0.7030 C   0  0  0  0  0  0  0  0  0  0  0  0
   -3.6550   -2.2280    1.4710 C   0  0  0  0  0  0  0  0  0  0  0  0
   -3.4000   -0.7500    1.2020 C   0  0  0  0  0  0  0  0  0  0  0  0
   -3.0820   -0.7090   -0.2740 C   0  0  2  0  0  0  0  0  0  0  0  0
   -4.3380   -0.5160   -1.0490 C   0  0  1  0  0  0  0  0  0  0  0  0
   -4.0930   -0.5790   -2.5550 C   0  0  0  0  0  0  0  0  0  0  0  0
   -5.3520   -1.4040   -0.7710 O   0  0  0  0  0  0  0  0  0  0  0  0
   -4.8420    0.9050   -0.8100 C   0  0  0  0  0  0  0  0  0  0  0  0
   -3.8300    1.8160   -1.0680 O   0  0  0  0  0  0  0  0  0  0  0  0
    2.3680   -2.0690   -0.4670 C   0  0  0  0  0  0  0  0  0  0  0  0
    2.2880   -3.3230   -0.3960 O   0  0  0  0  0  0  0  0  0  0  0  0
    3.1310   -1.4150    0.5140 C   0  0  0  0  0  0  0  0  0  0  0  0
    3.2540   -0.0450    0.4870 C   0  0  0  0  0  0  0  0  0  0  0  0
    3.9960    0.6430    1.4360 C   0  0  0  0  0  0  0  0  0  0  0  0
    4.6470   -0.0140    2.4510 C   0  0  0  0  0  0  0  0  0  0  0  0
    5.3630    0.7250    3.3550 C   0  0  0  0  0  0  0  0  0  0  0  0
    5.4500    2.1110    3.2750 C   0  0  0  0  0  0  0  0  0  0  0  0
    6.4510    3.1150    4.5420 Br  0  0  0  0  0  0  0  0  0  0  0  0
    4.7960    2.7520    2.2570 C   0  0  0  0  0  0  0  0  0  0  0  0
    4.0680    2.0350    1.3330 C   0  0  0  0  0  0  0  0  0  0  0  0
  1  2  1  0
  2  3  1  0
  3  4  2  0
  3 32  1  0
  4  5  1  0
  5  6  2  0
  5 25  1  0
  6  7  1  0
  7  8  1  0
  7 22  1  0
  8  9  1  0
  9 10  2  0
  9 11  1  0
 12 11  1  1
 12 13  1  0
 12 16  1  0
 13 14  1  0
 14 15  1  0
 16 15  1  1
 16 17  1  0
 17 18  1  6
 17 19  1  0
 17 20  1  0
 20 21  1  0
 22 23  2  0
 22 24  1  0
 24 25  2  0
 25 26  1  0
 26 27  2  0
 26 32  1  0
 27 28  1  0
 28 29  2  0
 29 30  1  0
 29 31  1  0
 31 32  2  0
M  END
