
     RDKit          3D

 32 35  0  0  0  0  0  0  0  0999 V2000
    6.8250    1.8030    1.5940 C   0  0  0  0  0  0  0  0  0  0  0  0
    5.6540    1.2870    0.8390 C   0  0  0  0  0  0  0  0  0  0  0  0
    4.8210    0.2960    1.3070 C   0  0  0  0  0  0  0  0  0  0  0  0
    3.7290   -0.1780    0.5980 C   0  0  0  0  0  0  0  0  0  0  0  0
    2.9520   -1.1240    1.0670 O   0  0  0  0  0  0  0  0  0  0  0  0
    1.9130   -1.5950    0.4200 C   0  0  0  0  0  0  0  0  0  0  0  0
    1.2220   -2.5220    0.9640 O   0  0  0  0  0  0  0  0  0  0  0  0
    1.5400   -1.1200   -0.8400 C   0  0  0  0  0  0  0  0  0  0  0  0
    0.4130   -1.6220   -1.5740 C   0  0  0  0  0  0  0  0  0  0  0  0
    0.6170   -2.6380   -2.3250 O   0  0  0  0  0  0  0  0  0  0  0  0
   -0.8960   -1.1030   -1.5500 N   0  0  0  0  0  0  0  0  0  0  0  0
   -1.9710   -1.7130   -2.3240 C   0  0  0  0  0  0  0  0  0  0  0  0
   -2.7380   -2.7640   -1.6190 C   0  0  1  0  0  0  0  0  0  0  0  0
   -1.8950   -3.7920   -1.1450 O   0  0  0  0  0  0  0  0  0  0  0  0
   -3.6580   -2.3600   -0.5740 C   0  0  0  0  0  0  0  0  0  0  0  0
   -4.2300   -1.1520   -0.2250 C   0  0  0  0  0  0  0  0  0  0  0  0
   -5.0340   -1.3240    0.8700 C   0  0  0  0  0  0  0  0  0  0  0  0
   -4.9740   -2.6130    1.2090 N   0  0  0  0  0  0  0  0  0  0  0  0
   -4.1620   -3.2630    0.3700 C   0  0  0  0  0  0  0  0  0  0  0  0
   -1.2300    0.0340   -0.7830 C   0  0  0  0  0  0  0  0  0  0  0  0
   -1.6300    1.2260   -1.3820 C   0  0  0  0  0  0  0  0  0  0  0  0
   -1.9720    2.3150   -0.6220 C   0  0  0  0  0  0  0  0  0  0  0  0
   -1.9360    2.2790    0.7710 C   0  0  0  0  0  0  0  0  0  0  0  0
   -2.3090    3.4480    1.5820 C   0  0  0  0  0  0  0  0  0  0  0  0
   -1.2360    3.8040    2.3970 O   0  0  0  0  0  0  0  0  0  0  0  0
   -1.5430    1.1080    1.3560 C   0  0  0  0  0  0  0  0  0  0  0  0
   -1.1980    0.0070    0.5760 C   0  0  0  0  0  0  0  0  0  0  0  0
    2.3720   -0.1090   -1.3400 C   0  0  0  0  0  0  0  0  0  0  0  0
    3.4610    0.3760   -0.6530 C   0  0  0  0  0  0  0  0  0  0  0  0
    4.2870    1.3690   -1.1350 C   0  0  0  0  0  0  0  0  0  0  0  0
    5.3760    1.8350   -0.4170 C   0  0  0  0  0  0  0  0  0  0  0  0
    6.5300    3.2050   -1.0840 Br  0  0  0  0  0  0  0  0  0  0  0  0
  1  2  1  0
  2  3  2  0
  2 31  1  0
  3  4  1  0
  4  5  1  0
  4 29  2  0
  5  6  1  0
  6  7  2  0
  6  8  1  0
  8  9  1  0
  8 28  2  0
  9 10  2  0
  9 11  1  0
 11 12  1  0
 11 20  1  0
 12 13  1  0
 13 14  1  1
 13 15  1  0
 15 16  1  0
 15 19  2  0
 16 17  2  0
 17 18  1  0
 18 19  1  0
 20 21  2  0
 20 27  1  0
 21 22  1  0
 22 23  2  0
 23 24  1  0
 23 26  1  0
 24 25  1  0
 26 27  2  0
 28 29  1  0
 29 30  1  0
 30 31  2  0
 31 32  1  0
M  END
