
     RDKit          3D

 32 35  0  0  0  0  0  0  0  0999 V2000
   -5.9800    2.5540    2.4230 C   0  0  0  0  0  0  0  0  0  0  0  0
   -4.9700    1.5770    2.6100 O   0  0  0  0  0  0  0  0  0  0  0  0
   -4.5020    0.9590    1.4240 C   0  0  0  0  0  0  0  0  0  0  0  0
   -3.4030    1.2320    0.7960 C   0  0  0  0  0  0  0  0  0  0  0  0
   -3.3220    0.3370   -0.3860 C   0  0  1  0  0  0  0  0  0  0  0  0
   -3.2670    1.1690   -1.4960 O   0  0  0  0  0  0  0  0  0  0  0  0
   -2.1070   -0.4690   -0.2160 N   0  0  0  0  0  0  0  0  0  0  0  0
   -0.8340    0.1770   -0.1980 C   0  0  0  0  0  0  0  0  0  0  0  0
   -0.8570    1.4130   -0.3340 O   0  0  0  0  0  0  0  0  0  0  0  0
    0.3720   -0.4940   -0.0420 N   0  0  0  0  0  0  0  0  0  0  0  0
    1.6700    0.0570   -0.0180 C   0  0  0  0  0  0  0  0  0  0  0  0
    1.9600    1.3680   -0.2840 C   0  0  0  0  0  0  0  0  0  0  0  0
    3.2490    1.9020   -0.2480 C   0  0  0  0  0  0  0  0  0  0  0  0
    4.3150    1.0890    0.0710 C   0  0  0  0  0  0  0  0  0  0  0  0
    5.5980    1.5970    0.1130 C   0  0  0  0  0  0  0  0  0  0  0  0
    6.6820    0.7760    0.4350 C   0  0  0  0  0  0  0  0  0  0  0  0
    6.3960   -0.5340    0.7010 C   0  0  0  0  0  0  0  0  0  0  0  0
    5.1170   -1.0470    0.6610 C   0  0  0  0  0  0  0  0  0  0  0  0
    4.0370   -0.2330    0.3410 C   0  0  0  0  0  0  0  0  0  0  0  0
    2.7650   -0.7410    0.3010 C   0  0  0  0  0  0  0  0  0  0  0  0
    7.6600   -1.2550    1.0190 C   0  0  0  0  0  0  0  0  0  0  0  0
    8.7370   -0.3370    0.4280 C   0  0  0  0  0  0  0  0  0  0  0  0
    8.1370    1.0430    0.5580 C   0  0  0  0  0  0  0  0  0  0  0  0
   -4.5310   -0.4900   -0.3760 C   0  0  0  0  0  0  0  0  0  0  0  0
   -4.9480   -1.5200   -1.3080 C   0  0  0  0  0  0  0  0  0  0  0  0
   -4.3310   -1.9120   -2.3890 C   0  0  0  0  0  0  0  0  0  0  0  0
   -2.7070   -1.1850   -2.9870 Br  0  0  0  0  0  0  0  0  0  0  0  0
   -4.9250   -2.9770   -3.1940 C   0  0  0  0  0  0  0  0  0  0  0  0
   -4.4110   -3.4150   -4.2380 O   0  0  0  0  0  0  0  0  0  0  0  0
   -5.2310   -0.1230    0.7050 C   0  0  0  0  0  0  0  0  0  0  0  0
   -6.4260   -0.5780    1.1860 O   0  0  0  0  0  0  0  0  0  0  0  0
   -7.4040   -1.4200    0.8110 C   0  0  0  0  0  0  0  0  0  0  0  0
  1  2  1  0
  2  3  1  0
  3  4  2  0
  3 30  1  0
  4  5  1  0
  5  6  1  6
  5  7  1  0
  5 24  1  0
  7  8  1  0
  8  9  2  0
  8 10  1  0
 10 11  1  0
 11 12  2  0
 11 20  1  0
 12 13  1  0
 13 14  2  0
 14 15  1  0
 14 19  1  0
 15 16  2  0
 16 17  1  0
 16 23  1  0
 17 18  2  0
 17 21  1  0
 18 19  1  0
 19 20  2  0
 21 22  1  0
 22 23  1  0
 24 25  1  0
 24 30  2  0
 25 26  2  3
 26 27  1  0
 26 28  1  0
 28 29  2  0
 30 31  1  0
 31 32  1  0
M  END
