
     RDKit          3D

 32 35  0  0  0  0  0  0  0  0999 V2000
    3.9610    0.4410    2.7940 C   0  0  0  0  0  0  0  0  0  0  0  0
    3.3520    1.6290    2.0890 C   0  0  0  0  0  0  0  0  0  0  0  0
    2.0980    1.7290    1.6110 C   0  0  0  0  0  0  0  0  0  0  0  0
    1.1480    0.6110    1.7530 C   0  0  0  0  0  0  0  0  0  0  0  0
   -0.0580    0.6320    1.4400 O   0  0  0  0  0  0  0  0  0  0  0  0
    1.6100   -0.6130    2.2910 O   0  0  0  0  0  0  0  0  0  0  0  0
    0.6820   -1.6920    2.4240 C   0  0  0  0  0  0  0  0  0  0  0  0
    1.4740   -2.8470    2.9840 C   0  0  0  0  0  0  0  0  0  0  0  0
    0.6360   -3.9510    3.1500 O   0  0  0  0  0  0  0  0  0  0  0  0
    1.8150    3.0300    1.0500 C   0  0  0  0  0  0  0  0  0  0  0  0
    0.8750    3.4720    0.2580 C   0  0  0  0  0  0  0  0  0  0  0  0
    1.0220    5.4340   -0.0960 Br  0  0  0  0  0  0  0  0  0  0  0  0
   -0.0250    2.8860   -0.6800 C   0  0  0  0  0  0  0  0  0  0  0  0
   -0.9570    3.6690   -1.1560 O   0  0  0  0  0  0  0  0  0  0  0  0
   -0.0660    1.6130   -1.1920 N   0  0  0  0  0  0  0  0  0  0  0  0
   -1.0560    1.1060   -2.1610 C   0  0  1  0  0  0  0  0  0  0  0  0
   -0.4470    0.4810   -3.3190 C   0  0  0  0  0  0  0  0  0  0  0  0
   -0.1530   -0.9530   -3.1060 C   0  0  0  0  0  0  0  0  0  0  0  0
    0.7580   -1.7840   -3.6340 C   0  0  0  0  0  0  0  0  0  0  0  0
    0.5980   -3.1470   -3.0620 C   0  0  0  0  0  0  0  0  0  0  0  0
   -0.5690   -2.9890   -2.1240 C   0  0  0  0  0  0  0  0  0  0  0  0
   -0.9600   -1.7280   -2.1750 C   0  0  0  0  0  0  0  0  0  0  0  0
   -1.9610   -1.0400   -1.3560 C   0  0  0  0  0  0  0  0  0  0  0  0
   -2.8490   -1.7960   -0.5790 C   0  0  0  0  0  0  0  0  0  0  0  0
   -3.8680   -1.1380    0.0650 C   0  0  0  0  0  0  0  0  0  0  0  0
   -3.9840    0.2290   -0.0720 C   0  0  0  0  0  0  0  0  0  0  0  0
   -5.1010    0.9170    0.6550 C   0  0  0  0  0  0  0  0  0  0  0  0
   -3.1230    0.9870   -0.8260 C   0  0  0  0  0  0  0  0  0  0  0  0
   -2.0830    0.3170   -1.4790 C   0  0  0  0  0  0  0  0  0  0  0  0
    3.1060    3.7800    1.2620 C   0  0  0  0  0  0  0  0  0  0  0  0
    3.3590    4.9620    0.9500 O   0  0  0  0  0  0  0  0  0  0  0  0
    3.9790    2.8710    1.8880 N   0  0  0  0  0  0  0  0  0  0  0  0
  1  2  1  0
  2  3  2  0
  2 32  1  0
  3  4  1  0
  3 10  1  0
  4  5  2  0
  4  6  1  0
  6  7  1  0
  7  8  1  0
  8  9  1  0
 10 11  2  3
 10 30  1  0
 11 12  1  0
 11 13  1  0
 13 14  2  0
 13 15  1  0
 16 15  1  1
 16 17  1  0
 16 29  1  0
 17 18  1  0
 18 19  2  0
 18 22  1  0
 19 20  1  0
 20 21  1  0
 21 22  2  0
 22 23  1  0
 23 24  2  0
 23 29  1  0
 24 25  1  0
 25 26  2  0
 26 27  1  0
 26 28  1  0
 28 29  2  0
 30 31  2  0
 30 32  1  0
M  END
