
     RDKit          3D

 33 37  0  0  0  0  0  0  0  0999 V2000
   -7.1790   -0.0650    0.1930 C   0  0  0  0  0  0  0  0  0  0  0  0
   -6.1480    0.8070   -0.3000 N   0  0  2  0  0  0  0  0  0  0  0  0
   -6.7150    2.0710   -0.6590 C   0  0  0  0  0  0  0  0  0  0  0  0
   -5.3470    0.1860   -1.3370 C   0  0  1  0  0  0  0  0  0  0  0  0
   -4.8220    1.1200   -2.3620 C   0  0  0  0  0  0  0  0  0  0  0  0
   -3.3300    1.1970   -2.1810 C   0  0  0  0  0  0  0  0  0  0  0  0
   -2.9770    0.1270   -1.2210 C   0  0  0  0  0  0  0  0  0  0  0  0
   -1.7200   -0.3230   -0.7840 C   0  0  0  0  0  0  0  0  0  0  0  0
   -1.5710   -1.3420    0.1210 C   0  0  0  0  0  0  0  0  0  0  0  0
   -0.3090   -1.8090    0.5750 N   0  0  0  0  0  0  0  0  0  0  0  0
    0.0720   -3.2260    0.7150 C   0  0  0  0  0  0  0  0  0  0  0  0
    0.9360   -3.1330    1.9680 C   0  0  0  0  0  0  0  0  0  0  0  0
    1.8110   -1.9480    1.5920 C   0  0  2  0  0  0  0  0  0  0  0  0
    2.4940   -1.3900    2.7120 N   0  0  0  0  0  0  0  0  0  0  0  0
    4.1720   -1.3730    2.6790 S   0  0  2  0  0  0  0  0  0  0  0  0
    4.7950   -2.7450    2.6680 O   0  0  0  0  0  0  0  0  0  0  0  0
    4.6480   -0.7440    3.9840 O   0  0  0  0  0  0  0  0  0  0  0  0
    4.9020   -0.4540    1.3960 C   0  0  0  0  0  0  0  0  0  0  0  0
    5.2400   -0.9910    0.1900 C   0  0  0  0  0  0  0  0  0  0  0  0
    5.8520   -0.2450   -0.8210 C   0  0  0  0  0  0  0  0  0  0  0  0
    6.1210    1.0870   -0.5790 C   0  0  0  0  0  0  0  0  0  0  0  0
    6.7410    1.8620   -1.5640 C   0  0  0  0  0  0  0  0  0  0  0  0
    7.0450    3.1940   -1.3870 C   0  0  0  0  0  0  0  0  0  0  0  0
    7.8410    4.1320   -2.6580 Cl  0  0  0  0  0  0  0  0  0  0  0  0
    6.7050    3.7470   -0.1720 C   0  0  0  0  0  0  0  0  0  0  0  0
    6.0940    3.0150    0.8200 C   0  0  0  0  0  0  0  0  0  0  0  0
    5.7960    1.6680    0.6200 C   0  0  0  0  0  0  0  0  0  0  0  0
    5.1920    0.9030    1.5950 C   0  0  0  0  0  0  0  0  0  0  0  0
    0.8110   -1.0400    0.9830 C   0  0  0  0  0  0  0  0  0  0  0  0
    0.9700    0.1880    0.8700 O   0  0  0  0  0  0  0  0  0  0  0  0
   -2.7500   -1.9200    0.5950 C   0  0  0  0  0  0  0  0  0  0  0  0
   -3.9790   -1.4840    0.1720 C   0  0  0  0  0  0  0  0  0  0  0  0
   -4.1250   -0.4390   -0.7550 C   0  0  0  0  0  0  0  0  0  0  0  0
  2  1  1  6
  2  3  1  0
  2  4  1  0
  4  5  1  6
  4 33  1  0
  5  6  1  0
  6  7  1  0
  7  8  2  0
  7 33  1  0
  8  9  1  0
  9 10  1  0
  9 31  2  0
 10 11  1  0
 10 29  1  0
 11 12  1  0
 12 13  1  0
 13 14  1  1
 13 29  1  0
 15 14  1  6
 15 16  2  0
 15 17  2  0
 15 18  1  0
 18 19  2  0
 18 28  1  0
 19 20  1  0
 20 21  2  0
 21 22  1  0
 21 27  1  0
 22 23  2  0
 23 24  1  0
 23 25  1  0
 25 26  2  0
 26 27  1  0
 27 28  2  0
 29 30  2  0
 31 32  1  0
 32 33  2  0
M  CHG  1   2   1
M  END
