
     RDKit          3D

 33 36  0  0  0  0  0  0  0  0999 V2000
   -5.9730    1.3460   -2.0230 C   0  0  0  0  0  0  0  0  0  0  0  0
   -7.2680    0.9280   -1.4550 C   0  0  0  0  0  0  0  0  0  0  0  0
   -8.4320    1.0630   -2.0670 C   0  0  0  0  0  0  0  0  0  0  0  0
   -9.5010    0.5300   -1.1790 C   0  0  0  0  0  0  0  0  0  0  0  0
   -8.9040    0.5560    0.1600 N   0  0  0  0  0  0  0  0  0  0  0  0
   -7.4980    0.3040   -0.1370 C   0  0  2  0  0  0  0  0  0  0  0  0
   -6.6030    0.7160    0.8980 N   0  0  0  0  0  0  0  0  0  0  0  0
   -5.2740    0.2480    0.9340 C   0  0  0  0  0  0  0  0  0  0  0  0
   -4.7800   -0.6800    0.0400 C   0  0  0  0  0  0  0  0  0  0  0  0
   -3.4880   -1.1220    0.0630 C   0  0  0  0  0  0  0  0  0  0  0  0
   -2.6190   -0.6150    1.0380 C   0  0  0  0  0  0  0  0  0  0  0  0
   -1.2980   -1.1360    0.9980 N   0  0  0  0  0  0  0  0  0  0  0  0
   -0.1980   -0.6630    1.7330 C   0  0  0  0  0  0  0  0  0  0  0  0
   -0.3330    0.3130    2.5070 O   0  0  0  0  0  0  0  0  0  0  0  0
    1.0970   -1.2900    1.6070 N   0  0  0  0  0  0  0  0  0  0  0  0
    2.1590   -0.7690    2.3690 C   0  0  0  0  0  0  0  0  0  0  0  0
    1.9340    0.5020    3.3640 S   0  0  0  0  0  0  0  0  0  0  0  0
    3.4280   -1.3150    2.3030 O   0  0  0  0  0  0  0  0  0  0  0  0
    4.3930   -0.7450    1.4620 C   0  0  0  0  0  0  0  0  0  0  0  0
    4.0730    0.3590    0.7040 C   0  0  0  0  0  0  0  0  0  0  0  0
    5.0070    0.9510   -0.1420 C   0  0  0  0  0  0  0  0  0  0  0  0
    6.2330    0.4290   -0.2110 N   0  0  0  0  0  0  0  0  0  0  0  0
    6.5520   -0.6330    0.5140 C   0  0  0  0  0  0  0  0  0  0  0  0
    7.8230   -1.1860    0.4520 O   0  0  0  0  0  0  0  0  0  0  0  0
    8.7560   -0.5700   -0.4130 C   0  0  0  0  0  0  0  0  0  0  0  0
    9.0560   -0.9520   -1.6350 C   0  0  0  0  0  0  0  0  0  0  0  0
   10.0700   -0.0400   -2.1810 C   0  0  0  0  0  0  0  0  0  0  0  0
   10.3080    0.9210   -1.0990 C   0  0  0  0  0  0  0  0  0  0  0  0
   11.1700    1.9660   -1.1250 F   0  0  0  0  0  0  0  0  0  0  0  0
    9.5410    0.6050   -0.0780 C   0  0  0  0  0  0  0  0  0  0  0  0
    5.6600   -1.2530    1.3660 C   0  0  0  0  0  0  0  0  0  0  0  0
   -3.1000    0.2990    1.9220 C   0  0  0  0  0  0  0  0  0  0  0  0
   -4.3850    0.6980    1.8500 N   0  0  0  0  0  0  0  0  0  0  0  0
  1  2  1  0
  2  3  2  0
  2  6  1  0
  3  4  1  0
  4  5  1  0
  5  6  1  0
  6  7  1  1
  7  8  1  0
  8  9  2  0
  8 33  1  0
  9 10  1  0
 10 11  2  0
 11 12  1  0
 11 32  1  0
 12 13  1  0
 13 14  2  0
 13 15  1  0
 15 16  1  0
 16 17  2  0
 16 18  1  0
 18 19  1  0
 19 20  2  0
 19 31  1  0
 20 21  1  0
 21 22  2  0
 22 23  1  0
 23 24  1  0
 23 31  2  0
 24 25  1  0
 25 26  2  0
 25 30  1  0
 26 27  1  0
 27 28  1  0
 28 29  1  0
 28 30  2  0
 32 33  2  0
M  END
