
     RDKit          3D

 33 36  0  0  0  0  0  0  0  0999 V2000
    1.0450    3.3250   -0.1890 C   0  0  0  0  0  0  0  0  0  0  0  0
    0.0710    2.1950   -0.2540 C   0  0  0  0  0  0  0  0  0  0  0  0
   -1.2860    2.3940   -0.1290 C   0  0  0  0  0  0  0  0  0  0  0  0
   -2.2060    1.3430   -0.1800 C   0  0  0  0  0  0  0  0  0  0  0  0
   -1.7700    0.0530   -0.3610 C   0  0  0  0  0  0  0  0  0  0  0  0
   -2.6640   -1.1410   -0.4150 C   0  0  2  0  0  0  0  0  0  0  0  0
   -2.4150   -1.9060   -1.6180 N   0  0  0  0  0  0  0  0  0  0  0  0
   -3.4550   -2.3260   -2.4840 C   0  0  0  0  0  0  0  0  0  0  0  0
   -3.1490   -2.9620   -3.5120 O   0  0  0  0  0  0  0  0  0  0  0  0
   -4.8190   -2.0070   -2.1470 N   0  0  0  0  0  0  0  0  0  0  0  0
   -5.0390   -1.2820   -0.9600 C   0  0  0  0  0  0  0  0  0  0  0  0
   -4.0670   -0.8690   -0.1360 C   0  0  0  0  0  0  0  0  0  0  0  0
   -4.4500   -0.1560    1.0750 C   0  0  0  0  0  0  0  0  0  0  0  0
   -5.6970    0.0580    1.3170 N   0  0  0  0  0  0  0  0  0  0  0  0
   -6.1440    0.7370    2.4610 C   0  0  0  0  0  0  0  0  0  0  0  0
   -6.4260    0.0510    3.5530 C   0  0  0  0  0  0  0  0  0  0  0  0
   -6.8640    0.7080    4.6760 F   0  0  0  0  0  0  0  0  0  0  0  0
   -0.3940   -0.1410   -0.4870 C   0  0  0  0  0  0  0  0  0  0  0  0
    0.5150    0.8950   -0.4370 C   0  0  0  0  0  0  0  0  0  0  0  0
    1.8600    0.6570   -0.5650 O   0  0  0  0  0  0  0  0  0  0  0  0
    2.6830    1.1570   -1.5640 C   0  0  0  0  0  0  0  0  0  0  0  0
    2.3510    1.9630   -2.6260 C   0  0  0  0  0  0  0  0  0  0  0  0
    3.4670    2.1930   -3.3270 N   0  0  0  0  0  0  0  0  0  0  0  0
    4.4630    1.5680   -2.7470 N   0  0  0  0  0  0  0  0  0  0  0  0
    4.0280    0.9110   -1.6490 C   0  0  0  0  0  0  0  0  0  0  0  0
    4.8940    0.1030   -0.7600 C   0  0  0  0  0  0  0  0  0  0  0  0
    6.1360    0.0020   -1.0220 O   0  0  0  0  0  0  0  0  0  0  0  0
    4.4140   -0.5730    0.3810 N   0  0  0  0  0  0  0  0  0  0  0  0
    5.3200   -1.3310    1.1840 C   0  0  0  0  0  0  0  0  0  0  0  0
    5.1110   -2.0530    2.3010 C   0  0  0  0  0  0  0  0  0  0  0  0
    6.1370   -2.6830    2.8780 C   0  0  0  0  0  0  0  0  0  0  0  0
    7.3590   -2.5710    2.3140 C   0  0  0  0  0  0  0  0  0  0  0  0
    7.0190   -1.5070    0.8810 S   0  0  0  0  0  0  0  0  0  0  0  0
  1  2  1  0
  2  3  2  0
  2 19  1  0
  3  4  1  0
  4  5  2  0
  6  5  1  6
  5 18  1  0
  6  7  1  0
  6 12  1  0
  7  8  1  0
  8  9  2  0
  8 10  1  0
 10 11  1  0
 11 12  2  0
 12 13  1  0
 13 14  2  3
 14 15  1  0
 15 16  2  3
 16 17  1  0
 18 19  2  0
 19 20  1  0
 20 21  1  0
 21 22  2  0
 21 25  1  0
 22 23  1  0
 23 24  1  0
 24 25  2  0
 25 26  1  0
 26 27  2  0
 26 28  1  0
 28 29  1  0
 29 30  2  0
 29 33  1  0
 30 31  1  0
 31 32  2  0
 32 33  1  0
M  END
