
     RDKit          3D

 33 35  0  0  0  0  0  0  0  0999 V2000
   -0.4750    1.0700   -2.5220 C   0  0  0  0  0  0  0  0  0  0  0  0
   -1.4180    1.7730   -2.1130 C   0  0  0  0  0  0  0  0  0  0  0  0
   -1.1820    3.1040   -2.7250 F   0  0  0  0  0  0  0  0  0  0  0  0
   -2.5440    1.8520   -1.2870 C   0  0  0  0  0  0  0  0  0  0  0  0
   -3.2190    3.0120   -1.3610 C   0  0  0  0  0  0  0  0  0  0  0  0
   -4.4020    3.4760   -0.6970 C   0  0  0  0  0  0  0  0  0  0  0  0
   -4.8030    4.7680   -1.0790 O   0  0  0  0  0  0  0  0  0  0  0  0
   -5.1550    2.8810    0.2040 C   0  0  0  0  0  0  0  0  0  0  0  0
   -4.9840    1.5610    0.7820 C   0  0  0  0  0  0  0  0  0  0  0  0
   -5.9980    1.1450    1.7870 C   0  0  0  0  0  0  0  0  0  0  0  0
   -4.0300    0.6960    0.5060 C   0  0  0  0  0  0  0  0  0  0  0  0
   -3.9760   -0.5830    1.1620 N   0  0  0  0  0  0  0  0  0  0  0  0
   -2.8790   -1.2720    0.7040 N   0  0  0  0  0  0  0  0  0  0  0  0
   -2.1970   -0.4280   -0.2780 C   0  0  0  0  0  0  0  0  0  0  0  0
   -1.1510   -0.7820   -0.8820 N   0  0  0  0  0  0  0  0  0  0  0  0
   -0.4530   -2.0120   -0.7460 C   0  0  0  0  0  0  0  0  0  0  0  0
    0.7910   -2.1210   -0.6520 N   0  0  0  0  0  0  0  0  0  0  0  0
    1.8260   -1.1970   -0.6500 C   0  0  0  0  0  0  0  0  0  0  0  0
    2.4030   -0.6210    0.3710 C   0  0  0  0  0  0  0  0  0  0  0  0
    2.0030   -0.8960    1.6810 N   0  0  0  0  0  0  0  0  0  0  0  0
    3.5110    0.3260    0.1470 C   0  0  0  0  0  0  0  0  0  0  0  0
    4.1490    0.9450    1.1110 C   0  0  0  0  0  0  0  0  0  0  0  0
    5.2320    1.8640    0.8050 C   0  0  0  0  0  0  0  0  0  0  0  0
    5.8920    2.5040    1.8440 O   0  0  0  0  0  0  0  0  0  0  0  0
    6.8690    3.5040    1.6190 C   0  0  0  0  0  0  0  0  0  0  0  0
    5.5820    2.0840   -0.4440 C   0  0  0  0  0  0  0  0  0  0  0  0
    4.9140    1.4280   -1.5810 C   0  0  0  0  0  0  0  0  0  0  0  0
    3.8990    0.5770   -1.1590 O   0  0  0  0  0  0  0  0  0  0  0  0
   -1.3990   -3.5550   -0.7740 S   0  0  0  0  0  0  0  0  0  0  0  0
   -0.2780   -4.9580   -0.5630 C   0  0  1  0  0  0  0  0  0  0  0  0
    0.2950   -4.8900    0.8320 C   0  0  0  0  0  0  0  0  0  0  0  0
   -1.0550   -6.2260   -0.8160 C   0  0  0  0  0  0  0  0  0  0  0  0
   -2.9050    0.7810   -0.4010 N   0  0  0  0  0  0  0  0  0  0  0  0
  1  2  2  0
  2  3  1  0
  2  4  1  0
  4  5  2  0
  4 33  1  0
  5  6  1  0
  6  7  1  0
  6  8  2  0
  8  9  1  0
  9 10  1  0
  9 11  2  0
 11 12  1  0
 11 33  1  0
 12 13  1  0
 13 14  1  0
 14 15  2  3
 14 33  1  0
 15 16  1  0
 16 17  2  3
 16 29  1  0
 17 18  1  0
 18 19  2  3
 19 20  1  0
 19 21  1  0
 21 22  2  0
 21 28  1  0
 22 23  1  0
 23 24  1  0
 23 26  2  0
 24 25  1  0
 26 27  1  0
 27 28  1  0
 29 30  1  0
 30 31  1  1
 30 32  1  0
M  END
