
     RDKit          3D

 33 36  0  0  0  0  0  0  0  0999 V2000
   -7.5160    2.4800    2.4540 C   0  0  0  0  0  0  0  0  0  0  0  0
   -6.2360    1.7970    2.0510 C   0  0  0  0  0  0  0  0  0  0  0  0
   -5.6730    1.7160    0.7970 C   0  0  0  0  0  0  0  0  0  0  0  0
   -4.4950    1.0120    0.8400 C   0  0  0  0  0  0  0  0  0  0  0  0
   -3.5810    0.7360   -0.2930 C   0  0  0  0  0  0  0  0  0  0  0  0
   -3.9040    1.2170   -1.3950 O   0  0  0  0  0  0  0  0  0  0  0  0
   -2.4130   -0.0110   -0.1630 N   0  0  0  0  0  0  0  0  0  0  0  0
   -1.4590   -0.3180   -1.1720 C   0  0  0  0  0  0  0  0  0  0  0  0
   -1.6890   -0.1010   -2.5060 C   0  0  0  0  0  0  0  0  0  0  0  0
   -0.7060   -0.3420   -3.4410 C   0  0  0  0  0  0  0  0  0  0  0  0
    0.5220   -0.8060   -3.0420 C   0  0  0  0  0  0  0  0  0  0  0  0
    1.5900   -1.0820   -4.0390 C   0  0  0  0  0  0  0  0  0  0  0  0
    2.5120   -0.0830   -3.9670 F   0  0  0  0  0  0  0  0  0  0  0  0
    0.8230   -1.0500   -1.6910 C   0  0  0  0  0  0  0  0  0  0  0  0
    2.1250   -1.4360   -1.3570 N   0  0  0  0  0  0  0  0  0  0  0  0
    2.5890   -1.9660   -0.1270 C   0  0  0  0  0  0  0  0  0  0  0  0
    1.7370   -2.1490    0.7820 O   0  0  0  0  0  0  0  0  0  0  0  0
    3.9990   -2.2950    0.0830 C   0  0  0  0  0  0  0  0  0  0  0  0
    4.5020   -3.5630    0.2960 C   0  0  0  0  0  0  0  0  0  0  0  0
    5.8640   -3.4870    0.3320 N   0  0  0  0  0  0  0  0  0  0  0  0
    6.2000   -2.2320    0.1520 N   0  0  0  0  0  0  0  0  0  0  0  0
    5.0660   -1.4640   -0.0030 C   0  0  0  0  0  0  0  0  0  0  0  0
    5.1500    0.0160   -0.1040 C   0  0  0  0  0  0  0  0  0  0  0  0
    4.0870    0.7720    0.0730 C   0  0  0  0  0  0  0  0  0  0  0  0
    3.9260    2.2230    0.0210 C   0  0  0  0  0  0  0  0  0  0  0  0
    5.4500    3.0260   -0.3980 S   0  0  0  0  0  0  0  0  0  0  0  0
    5.8110    4.0920    0.5830 O   0  0  0  0  0  0  0  0  0  0  0  0
    6.6750    1.8290   -0.5670 N   0  0  0  0  0  0  0  0  0  0  0  0
    6.4470    0.5990   -0.4270 C   0  0  0  0  0  0  0  0  0  0  0  0
   -0.2000   -0.7890   -0.8260 C   0  0  0  0  0  0  0  0  0  0  0  0
   -4.3170    0.6480    2.1160 N   0  0  0  0  0  0  0  0  0  0  0  0
   -5.3620    1.1160    2.8700 C   0  0  0  0  0  0  0  0  0  0  0  0
   -5.5440    0.9480    4.3360 C   0  0  0  0  0  0  0  0  0  0  0  0
  1  2  1  0
  2  3  1  0
  2 32  2  0
  3  4  2  0
  4  5  1  0
  4 31  1  0
  5  6  2  0
  5  7  1  0
  7  8  1  0
  8  9  2  0
  8 30  1  0
  9 10  1  0
 10 11  2  0
 11 12  1  0
 11 14  1  0
 12 13  1  0
 14 15  1  0
 14 30  2  0
 15 16  1  0
 16 17  2  0
 16 18  1  0
 18 19  2  0
 18 22  1  0
 19 20  1  0
 20 21  1  0
 21 22  2  0
 22 23  1  0
 23 24  2  0
 23 29  1  0
 24 25  1  0
 26 25  1  1
 26 27  2  0
 26 28  1  0
 28 29  2  0
 31 32  1  0
 32 33  1  0
M  END
