
     RDKit          3D

 33 34  0  0  0  0  0  0  0  0999 V2000
   -3.1760    3.4790    2.3410 C   0  0  0  0  0  0  0  0  0  0  0  0
   -3.5520    3.5480    1.0920 C   0  0  0  0  0  0  0  0  0  0  0  0
   -4.1560    4.8340    0.7820 O   0  0  0  0  0  0  0  0  0  0  0  0
   -3.4920    2.6170    0.0110 C   0  0  0  0  0  0  0  0  0  0  0  0
   -3.9100    3.0670   -1.2210 C   0  0  0  0  0  0  0  0  0  0  0  0
   -4.4030    4.3020   -1.6780 C   0  0  0  0  0  0  0  0  0  0  0  0
   -5.7800    4.1300   -2.1840 N   0  0  0  0  0  0  0  0  0  0  0  0
   -3.0000    1.2780   -0.0690 C   0  0  0  0  0  0  0  0  0  0  0  0
   -2.5740    0.3070    0.5880 C   0  0  0  0  0  0  0  0  0  0  0  0
   -2.3800    0.0730    1.9940 C   0  0  0  0  0  0  0  0  0  0  0  0
   -3.2790    0.4330    2.8330 O   0  0  0  0  0  0  0  0  0  0  0  0
   -1.1660   -0.5870    2.4490 C   0  0  0  0  0  0  0  0  0  0  0  0
   -0.2930   -0.9600    1.5260 C   0  0  0  0  0  0  0  0  0  0  0  0
    0.9040   -1.5860    1.8960 N   0  0  0  0  0  0  0  0  0  0  0  0
    2.1170   -0.9170    1.5610 C   0  0  0  0  0  0  0  0  0  0  0  0
    2.1250    0.1920    0.9550 O   0  0  0  0  0  0  0  0  0  0  0  0
    3.3600   -1.4750    1.8990 N   0  0  0  0  0  0  0  0  0  0  0  0
    4.5690   -0.8520    1.6030 N   0  0  0  0  0  0  0  0  0  0  0  0
    5.2030   -0.8140    0.3410 C   0  0  0  0  0  0  0  0  0  0  0  0
    4.6250   -1.4010   -0.6150 O   0  0  0  0  0  0  0  0  0  0  0  0
    6.4470   -0.1400    0.1390 N   0  0  0  0  0  0  0  0  0  0  0  0
    7.0280   -0.1450   -1.1740 C   0  0  0  0  0  0  0  0  0  0  0  0
    8.3320    0.6370   -1.1140 C   0  0  0  0  0  0  0  0  0  0  0  0
    8.0210    1.9470   -0.6970 O   0  0  0  0  0  0  0  0  0  0  0  0
   -0.5600   -0.7450    0.1630 O   0  0  0  0  0  0  0  0  0  0  0  0
   -1.9550   -0.9010   -0.2170 C   0  0  1  0  0  0  0  0  0  0  0  0
   -2.5180   -2.1240    0.1710 N   0  0  0  0  0  0  0  0  0  0  0  0
   -2.1320   -3.3310   -0.4850 C   0  0  0  0  0  0  0  0  0  0  0  0
   -1.1800   -3.3270   -1.5000 C   0  0  0  0  0  0  0  0  0  0  0  0
   -0.8470   -4.4990   -2.1060 C   0  0  0  0  0  0  0  0  0  0  0  0
   -1.4100   -5.6590   -1.7550 N   0  0  0  0  0  0  0  0  0  0  0  0
   -2.3290   -5.6950   -0.7810 C   0  0  0  0  0  0  0  0  0  0  0  0
   -2.6980   -4.5360   -0.1380 C   0  0  0  0  0  0  0  0  0  0  0  0
  1  2  2  0
  2  3  1  0
  2  4  1  0
  4  5  2  3
  4  8  1  0
  5  6  1  0
  6  7  1  0
  8  9  2  3
  9 10  1  0
  9 26  1  0
 10 11  2  0
 10 12  1  0
 12 13  2  0
 13 14  1  0
 13 25  1  0
 14 15  1  0
 15 16  2  0
 15 17  1  0
 17 18  1  0
 18 19  1  0
 19 20  2  0
 19 21  1  0
 21 22  1  0
 22 23  1  0
 23 24  1  0
 25 26  1  0
 26 27  1  1
 27 28  1  0
 28 29  2  0
 28 33  1  0
 29 30  1  0
 30 31  2  0
 31 32  1  0
 32 33  2  0
M  END
