
     RDKit          3D

 32 34  0  0  0  0  0  0  0  0999 V2000
    8.7020    1.2360    0.7810 C   0  0  0  0  0  0  0  0  0  0  0  0
    7.9940    0.9300   -0.5320 C   0  0  0  0  0  0  0  0  0  0  0  0
    6.6140    0.4420   -0.2930 C   0  0  0  0  0  0  0  0  0  0  0  0
    6.0950    0.3020    0.8970 C   0  0  0  0  0  0  0  0  0  0  0  0
    4.7470   -0.1750    1.1290 C   0  0  0  0  0  0  0  0  0  0  0  0
    4.3040   -0.2880    2.3130 O   0  0  0  0  0  0  0  0  0  0  0  0
    3.8450   -0.5410    0.0980 N   0  0  0  0  0  0  0  0  0  0  0  0
    2.5480   -0.9980    0.3520 N   0  0  0  0  0  0  0  0  0  0  0  0
    1.5460   -0.4490   -0.2940 C   0  0  0  0  0  0  0  0  0  0  0  0
    1.7840    0.5860   -1.2270 N   0  0  0  0  0  0  0  0  0  0  0  0
    0.7170    1.1940   -1.9190 C   0  0  0  0  0  0  0  0  0  0  0  0
    0.9060    2.1560   -2.7260 O   0  0  0  0  0  0  0  0  0  0  0  0
   -0.6520    0.7210   -1.7180 C   0  0  0  0  0  0  0  0  0  0  0  0
   -0.8370   -0.3510   -0.7080 C   0  0  0  0  0  0  0  0  0  0  0  0
   -2.1810   -0.8410   -0.4080 C   0  0  0  0  0  0  0  0  0  0  0  0
   -3.3430   -0.5000   -0.8590 C   0  0  0  0  0  0  0  0  0  0  0  0
   -3.5790    0.5030   -1.8250 N   0  0  0  0  0  0  0  0  0  0  0  0
   -4.4560    1.6370   -1.6870 C   0  0  0  0  0  0  0  0  0  0  0  0
   -4.3190    2.5100   -2.5820 O   0  0  0  0  0  0  0  0  0  0  0  0
   -5.4590    1.9350   -0.7020 C   0  0  0  0  0  0  0  0  0  0  0  0
   -6.0240    3.3310   -0.6830 C   0  0  0  0  0  0  0  0  0  0  0  0
   -6.0050    1.1600    0.2440 C   0  0  0  0  0  0  0  0  0  0  0  0
   -7.0170    1.6510    1.1570 N   0  0  0  0  0  0  0  0  0  0  0  0
   -7.3810    0.6100    2.0150 N   0  0  0  0  0  0  0  0  0  0  0  0
   -6.6110   -0.5190    1.6470 C   0  0  0  0  0  0  0  0  0  0  0  0
   -5.7960   -0.2140    0.6070 C   0  0  0  0  0  0  0  0  0  0  0  0
   -4.7090   -1.4440   -0.0920 S   0  0  0  0  0  0  0  0  0  0  0  0
    0.1800   -0.9020   -0.0460 C   0  0  0  0  0  0  0  0  0  0  0  0
    0.0260   -1.9600    0.9890 C   0  0  0  0  0  0  0  0  0  0  0  0
    0.6280   -3.2880    0.5580 C   0  0  0  0  0  0  0  0  0  0  0  0
    0.4250   -4.3010    1.6670 C   0  0  0  0  0  0  0  0  0  0  0  0
    0.9580   -5.5130    1.3110 F   0  0  0  0  0  0  0  0  0  0  0  0
  1  2  1  0
  2  3  1  0
  3  4  2  3
  4  5  1  0
  5  6  2  0
  5  7  1  0
  7  8  1  0
  8  9  2  3
  9 10  1  0
  9 28  1  0
 10 11  1  0
 11 12  2  0
 11 13  1  0
 13 14  1  0
 14 15  1  0
 14 28  2  0
 15 16  2  3
 16 17  1  0
 16 27  1  0
 17 18  1  0
 18 19  2  0
 18 20  1  0
 20 21  1  0
 20 22  2  0
 22 23  1  0
 22 26  1  0
 23 24  1  0
 24 25  1  0
 25 26  2  0
 26 27  1  0
 28 29  1  0
 29 30  1  0
 30 31  1  0
 31 32  1  0
M  END
