
     RDKit          3D

 33 36  0  0  0  0  0  0  0  0999 V2000
   -3.0080    1.4510    2.3340 O   0  0  0  0  0  0  0  0  0  0  0  0
   -3.8930    0.6850    1.7110 C   0  0  0  0  0  0  0  0  0  0  0  0
   -5.2440    1.2440    1.7540 C   0  0  2  0  0  0  0  0  0  0  0  0
   -6.2210    0.5330    2.6190 C   0  0  0  0  0  0  0  0  0  0  0  0
   -6.5110   -0.7630    2.3690 O   0  0  0  0  0  0  0  0  0  0  0  0
   -5.7080    1.6040    0.3790 C   0  0  0  0  0  0  0  0  0  0  0  0
   -7.1060    2.1800    0.3630 C   0  0  0  0  0  0  0  0  0  0  0  0
   -7.5210    2.5600   -1.3330 Cl  0  0  0  0  0  0  0  0  0  0  0  0
   -3.4110   -0.4880    1.1380 N   0  0  0  0  0  0  0  0  0  0  0  0
   -4.1380   -1.4460    0.4070 C   0  0  0  0  0  0  0  0  0  0  0  0
   -3.4940   -1.5000   -0.9860 C   0  0  0  0  0  0  0  0  0  0  0  0
   -2.0930   -1.7660   -0.9450 N   0  0  0  0  0  0  0  0  0  0  0  0
   -1.3630   -0.9010   -0.0450 C   0  0  2  0  0  0  0  0  0  0  0  0
    0.0230   -1.5070    0.1180 C   0  0  0  0  0  0  0  0  0  0  0  0
    0.6500   -1.5560   -1.2250 C   0  0  0  0  0  0  0  0  0  0  0  0
    0.4970   -2.6580   -2.0360 C   0  0  0  0  0  0  0  0  0  0  0  0
    1.0970   -2.6410   -3.2590 N   0  0  0  0  0  0  0  0  0  0  0  0
    1.8100   -1.5650   -3.6300 C   0  0  0  0  0  0  0  0  0  0  0  0
    1.9760   -0.4510   -2.8310 C   0  0  0  0  0  0  0  0  0  0  0  0
    2.7290    0.6770   -3.2520 N   0  0  0  0  0  0  0  0  0  0  0  0
    2.9030    1.8330   -2.4230 C   0  0  0  0  0  0  0  0  0  0  0  0
    3.6450    1.5660   -1.1740 C   0  0  0  0  0  0  0  0  0  0  0  0
    3.6790    2.5100   -0.1700 C   0  0  0  0  0  0  0  0  0  0  0  0
    4.3810    2.2710    1.0080 C   0  0  0  0  0  0  0  0  0  0  0  0
    5.0480    1.0700    1.1620 C   0  0  0  0  0  0  0  0  0  0  0  0
    5.0090    0.1260    0.1480 C   0  0  0  0  0  0  0  0  0  0  0  0
    4.3170    0.3690   -1.0050 C   0  0  0  0  0  0  0  0  0  0  0  0
    5.7270   -1.1770    0.3010 C   0  0  0  0  0  0  0  0  0  0  0  0
    7.0360   -0.8710    0.9940 C   0  0  0  0  0  0  0  0  0  0  0  0
    6.8560   -0.2260    2.3280 C   0  0  0  0  0  0  0  0  0  0  0  0
    5.7870    0.7450    2.3290 N   0  0  0  0  0  0  0  0  0  0  0  0
    1.3700   -0.4960   -1.6280 N   0  0  0  0  0  0  0  0  0  0  0  0
   -1.9770   -0.7960    1.3080 C   0  0  0  0  0  0  0  0  0  0  0  0
  1  2  2  0
  2  3  1  0
  2  9  1  0
  3  4  1  6
  3  6  1  0
  4  5  1  0
  6  7  1  0
  7  8  1  0
  9 10  1  0
  9 33  1  0
 10 11  1  0
 11 12  1  0
 12 13  1  0
 13 14  1  1
 13 33  1  0
 14 15  1  0
 15 16  2  0
 15 32  1  0
 16 17  1  0
 17 18  2  0
 18 19  1  0
 19 20  1  0
 19 32  2  0
 20 21  1  0
 21 22  1  0
 22 23  2  0
 22 27  1  0
 23 24  1  0
 24 25  2  0
 25 26  1  0
 25 31  1  0
 26 27  2  0
 26 28  1  0
 28 29  1  0
 29 30  1  0
 30 31  1  0
M  CHG  1  32   1
M  END
