
     RDKit          3D

 32 34  0  0  0  0  0  0  0  0999 V2000
   -1.0800    2.2570    1.8900 C   0  0  0  0  0  0  0  0  0  0  0  0
   -1.6360    0.8330    1.7590 C   0  0  2  0  0  0  0  0  0  0  0  0
   -0.6000    0.0430    1.0720 C   0  0  0  0  0  0  0  0  0  0  0  0
   -0.8320   -0.4930   -0.0140 O   0  0  0  0  0  0  0  0  0  0  0  0
    0.6730   -0.0970    1.6720 N   0  0  0  0  0  0  0  0  0  0  0  0
    1.7720   -0.8400    1.0990 C   0  0  0  0  0  0  0  0  0  0  0  0
    2.1860   -0.2680   -0.2210 C   0  0  1  0  0  0  0  0  0  0  0  0
    2.5820    1.0150   -0.1190 O   0  0  0  0  0  0  0  0  0  0  0  0
    3.1200   -1.1410   -0.9400 C   0  0  0  0  0  0  0  0  0  0  0  0
    4.3830   -1.0720   -1.1530 C   0  0  0  0  0  0  0  0  0  0  0  0
    5.4170   -0.1310   -0.7820 C   0  0  0  0  0  0  0  0  0  0  0  0
    6.7210   -0.2390   -1.1520 C   0  0  0  0  0  0  0  0  0  0  0  0
    7.4300    0.8700   -0.5990 N   0  0  0  0  0  0  0  0  0  0  0  0
    6.7480    1.2150    0.5630 N   0  0  0  0  0  0  0  0  0  0  0  0
    5.3550    1.0670    0.0780 C   0  0  0  0  0  0  0  0  0  0  0  0
    2.4820   -2.4090   -1.4690 C   0  0  0  0  0  0  0  0  0  0  0  0
    3.2490   -3.3930   -2.1270 N   0  0  0  0  0  0  0  0  0  0  0  0
    1.2670   -2.5730   -1.3150 O   0  0  0  0  0  0  0  0  0  0  0  0
   -2.8790    0.9570    1.0390 N   0  0  0  0  0  0  0  0  0  0  0  0
   -4.0990    0.6430    1.7110 C   0  0  0  0  0  0  0  0  0  0  0  0
   -4.5210   -0.7590    1.5090 C   0  0  0  0  0  0  0  0  0  0  0  0
   -5.4920   -1.4850    2.1310 C   0  0  0  0  0  0  0  0  0  0  0  0
   -5.6780   -2.7410    1.7550 C   0  0  0  0  0  0  0  0  0  0  0  0
   -4.9070   -3.2830    0.7680 C   0  0  0  0  0  0  0  0  0  0  0  0
   -3.8280   -1.8630    0.3490 S   0  0  0  0  0  0  0  0  0  0  0  0
   -2.8670    1.4230   -0.2800 C   0  0  0  0  0  0  0  0  0  0  0  0
   -1.7540    1.7660   -0.8380 O   0  0  0  0  0  0  0  0  0  0  0  0
   -4.0990    1.5280   -1.0460 C   0  0  0  0  0  0  0  0  0  0  0  0
   -4.1750    1.9940   -2.3660 C   0  0  0  0  0  0  0  0  0  0  0  0
   -5.5000    1.9410   -2.7340 C   0  0  0  0  0  0  0  0  0  0  0  0
   -6.1770    1.4560   -1.6560 C   0  0  0  0  0  0  0  0  0  0  0  0
   -5.3170    1.2370   -0.7160 O   0  0  0  0  0  0  0  0  0  0  0  0
  2  1  1  6
  2  3  1  0
  2 19  1  0
  3  4  2  0
  3  5  1  0
  5  6  1  0
  6  7  1  0
  7  8  1  1
  7  9  1  0
  9 10  2  3
  9 16  1  0
 10 11  1  0
 11 12  2  0
 11 15  1  0
 12 13  1  0
 13 14  1  0
 14 15  1  0
 16 17  1  0
 16 18  2  0
 19 20  1  0
 19 26  1  0
 20 21  1  0
 21 22  2  0
 21 25  1  0
 22 23  1  0
 23 24  2  0
 24 25  1  0
 26 27  2  0
 26 28  1  0
 28 29  2  0
 28 32  1  0
 29 30  1  0
 30 31  2  0
 31 32  1  0
M  CHG  1  14   1
M  END
