
     RDKit          3D

 33 37  0  0  0  0  0  0  0  0999 V2000
   -0.5020   -0.2150   -2.6560 O   0  0  0  0  0  0  0  0  0  0  0  0
    0.0120   -0.1790   -1.5100 C   0  0  0  0  0  0  0  0  0  0  0  0
    1.4380    0.0010   -1.1410 C   0  0  1  0  0  0  0  0  0  0  0  0
    2.1140    0.9130   -2.0370 N   0  0  0  0  0  0  0  0  0  0  0  0
    3.5170    0.0930   -2.6550 S   0  0  2  0  0  0  0  0  0  0  0  0
    4.2060    0.8970   -3.7200 O   0  0  0  0  0  0  0  0  0  0  0  0
    3.0910   -1.2140   -3.3150 O   0  0  0  0  0  0  0  0  0  0  0  0
    4.6200   -0.3310   -1.3680 C   0  0  0  0  0  0  0  0  0  0  0  0
    4.6140   -1.5590   -0.7440 C   0  0  0  0  0  0  0  0  0  0  0  0
    5.5110   -1.8360    0.2800 C   0  0  0  0  0  0  0  0  0  0  0  0
    6.4300   -0.9100    0.7080 C   0  0  0  0  0  0  0  0  0  0  0  0
    7.3270   -1.1870    1.7340 C   0  0  0  0  0  0  0  0  0  0  0  0
    8.2380   -0.2490    2.1490 C   0  0  0  0  0  0  0  0  0  0  0  0
    9.3490   -0.6450    3.4460 Cl  0  0  0  0  0  0  0  0  0  0  0  0
    8.2430    0.9910    1.5180 C   0  0  0  0  0  0  0  0  0  0  0  0
    7.3410    1.2450    0.4980 C   0  0  0  0  0  0  0  0  0  0  0  0
    6.4330    0.3220    0.0780 C   0  0  0  0  0  0  0  0  0  0  0  0
    5.5530    0.6160   -0.9390 C   0  0  0  0  0  0  0  0  0  0  0  0
    1.3210    0.5570    0.2700 C   0  0  0  0  0  0  0  0  0  0  0  0
    0.2200   -0.3650    0.8230 C   0  0  0  0  0  0  0  0  0  0  0  0
   -0.7290   -0.3120   -0.3060 N   0  0  0  0  0  0  0  0  0  0  0  0
   -2.1340   -0.3810   -0.1290 C   0  0  0  0  0  0  0  0  0  0  0  0
   -2.7160    0.2870    0.9290 C   0  0  0  0  0  0  0  0  0  0  0  0
   -4.1020    0.2460    1.1240 C   0  0  0  0  0  0  0  0  0  0  0  0
   -4.8930   -0.4590    0.2690 C   0  0  0  0  0  0  0  0  0  0  0  0
   -6.3400   -0.5270    0.4430 C   0  0  1  0  0  0  0  0  0  0  0  0
   -6.9450    0.3830    1.4460 C   0  0  0  0  0  0  0  0  0  0  0  0
   -7.1500    1.6640    0.6670 C   0  0  0  0  0  0  0  0  0  0  0  0
   -7.4430    1.1640   -0.7170 C   0  0  0  0  0  0  0  0  0  0  0  0
   -6.9390   -0.1840   -0.8410 N   0  0  0  0  0  0  0  0  0  0  0  0
   -4.3250   -1.1340   -0.7950 C   0  0  0  0  0  0  0  0  0  0  0  0
   -2.9420   -1.0880   -0.9840 C   0  0  0  0  0  0  0  0  0  0  0  0
   -2.4600   -1.7670   -2.0300 F   0  0  0  0  0  0  0  0  0  0  0  0
  1  2  2  0
  2  3  1  0
  2 21  1  0
  3  4  1  6
  3 19  1  0
  5  4  1  1
  5  6  2  0
  5  7  2  0
  5  8  1  0
  8  9  2  0
  8 18  1  0
  9 10  1  0
 10 11  2  0
 11 12  1  0
 11 17  1  0
 12 13  2  0
 13 14  1  0
 13 15  1  0
 15 16  2  0
 16 17  1  0
 17 18  2  0
 19 20  1  0
 20 21  1  0
 21 22  1  0
 22 23  2  0
 22 32  1  0
 23 24  1  0
 24 25  2  0
 26 25  1  6
 25 31  1  0
 26 27  1  0
 26 30  1  0
 27 28  1  0
 28 29  1  0
 29 30  1  0
 31 32  2  0
 32 33  1  0
M  CHG  1  30   1
M  END
