
     RDKit          3D

 32 33  0  0  0  0  0  0  0  0999 V2000
   -0.1420    2.9050   -1.7440 N   0  0  0  0  0  0  0  0  0  0  0  0
   -0.4550    1.9800   -0.8670 C   0  0  0  0  0  0  0  0  0  0  0  0
   -0.8080    0.9660    0.0670 C   0  0  0  0  0  0  0  0  0  0  0  0
    0.2100    0.4080    0.8030 C   0  0  0  0  0  0  0  0  0  0  0  0
    1.6000    0.5020    0.7940 N   0  0  0  0  0  0  0  0  0  0  0  0
    2.4480    0.9040   -0.1750 C   0  0  0  0  0  0  0  0  0  0  0  0
    2.0550    1.1950   -1.3320 O   0  0  0  0  0  0  0  0  0  0  0  0
    3.9130    1.0610   -0.0140 C   0  0  0  0  0  0  0  0  0  0  0  0
    4.3790    0.6200    1.0990 O   0  0  0  0  0  0  0  0  0  0  0  0
    4.7370    1.6450   -0.9620 N   0  0  0  0  0  0  0  0  0  0  0  0
    6.1430    1.8360   -0.8080 C   0  0  0  0  0  0  0  0  0  0  0  0
    6.8680    0.5690   -0.5470 C   0  0  0  0  0  0  0  0  0  0  0  0
    6.1970   -0.5260   -0.4580 O   0  0  0  0  0  0  0  0  0  0  0  0
    8.2660    0.5320   -0.3930 N   0  0  0  0  0  0  0  0  0  0  0  0
    9.0150   -0.7040   -0.1390 C   0  0  0  0  0  0  0  0  0  0  0  0
    8.8260   -1.6540   -1.2850 C   0  0  0  0  0  0  0  0  0  0  0  0
    9.2950   -1.0650   -2.4720 O   0  0  0  0  0  0  0  0  0  0  0  0
   -0.6610   -0.7170    1.9340 S   0  0  0  0  0  0  0  0  0  0  0  0
   -2.3300   -0.3120    1.2920 C   0  0  0  0  0  0  0  0  0  0  0  0
   -3.4790   -1.0360    1.8070 C   0  0  0  0  0  0  0  0  0  0  0  0
   -3.1990   -2.3600    2.2940 C   0  0  0  0  0  0  0  0  0  0  0  0
   -4.2500   -3.0220    2.8480 C   0  0  0  0  0  0  0  0  0  0  0  0
   -5.5050   -2.5530    2.9820 C   0  0  0  0  0  0  0  0  0  0  0  0
   -6.4650   -3.3240    3.5640 O   0  0  0  0  0  0  0  0  0  0  0  0
   -5.7930   -1.2690    2.5170 C   0  0  0  0  0  0  0  0  0  0  0  0
   -4.7180   -0.5690    1.9390 C   0  0  0  0  0  0  0  0  0  0  0  0
   -2.1100    0.6030    0.3150 C   0  0  0  0  0  0  0  0  0  0  0  0
   -3.2900    1.1360   -0.4690 C   0  0  0  0  0  0  0  0  0  0  0  0
   -3.7840    0.2680   -1.5530 C   0  0  0  0  0  0  0  0  0  0  0  0
   -4.9690    0.8920   -2.2820 C   0  0  0  0  0  0  0  0  0  0  0  0
   -6.1210    1.2390   -1.3860 C   0  0  0  0  0  0  0  0  0  0  0  0
   -6.6570    0.0580   -0.7870 N   0  0  0  0  0  0  0  0  0  0  0  0
  1  2  3  0
  2  3  1  0
  3  4  2  0
  3 27  1  0
  4  5  1  0
  4 18  1  0
  5  6  1  0
  6  7  2  0
  6  8  1  0
  8  9  2  0
  8 10  1  0
 10 11  1  0
 11 12  1  0
 12 13  2  0
 12 14  1  0
 14 15  1  0
 15 16  1  0
 16 17  1  0
 18 19  1  0
 19 20  1  0
 19 27  2  0
 20 21  2  0
 20 26  1  0
 21 22  1  0
 22 23  2  0
 23 24  1  0
 23 25  1  0
 25 26  2  0
 27 28  1  0
 28 29  1  0
 29 30  1  0
 30 31  1  0
 31 32  1  0
M  CHG  1  32   1
M  END
