
     RDKit          3D

 33 36  0  0  0  0  0  0  0  0999 V2000
   -9.9490    0.5210   -1.4670 C   0  0  0  0  0  0  0  0  0  0  0  0
   -8.5860    0.5950   -2.1370 C   0  0  0  0  0  0  0  0  0  0  0  0
   -7.5510    0.2030   -1.1050 C   0  0  1  0  0  0  0  0  0  0  0  0
   -7.7720   -1.2020   -0.5780 C   0  0  0  0  0  0  0  0  0  0  0  0
   -6.9920   -1.3520    0.6830 C   0  0  0  0  0  0  0  0  0  0  0  0
   -5.6240   -0.8090    0.5210 C   0  0  0  0  0  0  0  0  0  0  0  0
   -4.6510   -1.0160    1.5040 C   0  0  0  0  0  0  0  0  0  0  0  0
   -5.1300   -1.9400    2.9160 Cl  0  0  0  0  0  0  0  0  0  0  0  0
   -3.3720   -0.5280    1.3920 C   0  0  0  0  0  0  0  0  0  0  0  0
   -2.9940    0.1970    0.2870 C   0  0  0  0  0  0  0  0  0  0  0  0
   -1.6960    0.7230    0.1130 N   0  0  0  0  0  0  0  0  0  0  0  0
   -0.6210    0.5350    1.0820 C   0  0  1  0  0  0  0  0  0  0  0  0
   -0.2940   -0.9000    1.2860 C   0  0  0  0  0  0  0  0  0  0  0  0
    1.0370   -1.0350    0.6590 C   0  0  0  0  0  0  0  0  0  0  0  0
    1.5380   -2.0840    0.1980 O   0  0  0  0  0  0  0  0  0  0  0  0
    1.6650    0.2320    0.6650 N   0  0  0  0  0  0  0  0  0  0  0  0
    3.0920    0.5070    0.6600 C   0  0  0  0  0  0  0  0  0  0  0  0
    3.6400    0.6040    2.0640 C   0  0  0  0  0  0  0  0  0  0  0  0
    5.0450    0.8770    2.0620 N   0  0  0  0  0  0  0  0  0  0  0  0
    6.0040   -0.0030    1.4640 C   0  0  0  0  0  0  0  0  0  0  0  0
    5.6330   -1.0520    0.9220 O   0  0  0  0  0  0  0  0  0  0  0  0
    7.4120    0.3900    1.5250 C   0  0  0  0  0  0  0  0  0  0  0  0
    8.3520   -0.5370    0.8230 C   0  0  0  0  0  0  0  0  0  0  0  0
    8.0990   -0.6540   -0.5850 N   0  0  0  0  0  0  0  0  0  0  0  0
    7.4170   -1.5880   -1.2550 C   0  0  0  0  0  0  0  0  0  0  0  0
    7.5110   -1.2570   -2.6160 C   0  0  0  0  0  0  0  0  0  0  0  0
    8.2400   -0.1450   -2.7220 N   0  0  0  0  0  0  0  0  0  0  0  0
    8.6030    0.2290   -1.4910 C   0  0  0  0  0  0  0  0  0  0  0  0
    9.3950    1.3750   -1.1550 N   0  0  0  0  0  0  0  0  0  0  0  0
    0.6320    1.2200    0.6770 C   0  0  0  0  0  0  0  0  0  0  0  0
   -3.9330    0.4140   -0.6940 C   0  0  0  0  0  0  0  0  0  0  0  0
   -5.2090   -0.0820   -0.5660 C   0  0  0  0  0  0  0  0  0  0  0  0
   -6.1590    0.2100   -1.6950 C   0  0  0  0  0  0  0  0  0  0  0  0
  1  2  1  0
  3  2  1  6
  3  4  1  0
  3 33  1  0
  4  5  1  0
  5  6  1  0
  6  7  2  0
  6 32  1  0
  7  8  1  0
  7  9  1  0
  9 10  2  0
 10 11  1  0
 10 31  1  0
 12 11  1  6
 12 13  1  0
 12 30  1  0
 13 14  1  0
 14 15  2  0
 14 16  1  0
 16 17  1  0
 16 30  1  0
 17 18  1  0
 18 19  1  0
 19 20  1  0
 20 21  2  0
 20 22  1  0
 22 23  1  0
 23 24  1  0
 24 25  1  0
 24 28  1  0
 25 26  2  0
 26 27  1  0
 27 28  2  0
 28 29  1  0
 31 32  2  0
 32 33  1  0
M  CHG  1  27   1
M  END
