
     RDKit          3D

 32 32  0  0  0  0  0  0  0  0999 V2000
   -0.1180   -4.1330   -4.1370 C   0  0  0  0  0  0  0  0  0  0  0  0
   -0.8370   -3.0420   -4.0100 C   0  0  0  0  0  0  0  0  0  0  0  0
   -1.6520   -1.7760   -3.8830 C   0  0  0  0  0  0  0  0  0  0  0  0
   -1.6540   -1.3960   -2.5790 O   0  0  0  0  0  0  0  0  0  0  0  0
   -0.6990   -1.1760   -1.6420 C   0  0  0  0  0  0  0  0  0  0  0  0
    0.6110   -1.3780   -1.9160 C   0  0  0  0  0  0  0  0  0  0  0  0
    1.6070   -1.1530   -0.9180 C   0  0  0  0  0  0  0  0  0  0  0  0
    2.9360   -1.4180   -1.3380 N   0  0  0  0  0  0  0  0  0  0  0  0
    3.9500   -1.6700   -0.3810 C   0  0  0  0  0  0  0  0  0  0  0  0
    3.7330   -1.6700    0.8270 O   0  0  0  0  0  0  0  0  0  0  0  0
    5.3410   -1.9270   -0.9430 C   0  0  0  0  0  0  0  0  0  0  0  0
    6.2360   -1.6210    0.2680 C   0  0  0  0  0  0  0  0  0  0  0  0
    5.9790   -0.2000    0.5540 N   0  0  0  0  0  0  0  0  0  0  0  0
    6.4290    0.6820   -0.4270 C   0  0  0  0  0  0  0  0  0  0  0  0
    7.0180    0.2170   -1.4640 O   0  0  0  0  0  0  0  0  0  0  0  0
    6.2920    2.1560   -0.3930 C   0  0  0  0  0  0  0  0  0  0  0  0
    5.5760    2.6550    0.7410 N   0  0  0  0  0  0  0  0  0  0  0  0
    1.2020   -0.7300    0.2650 C   0  0  0  0  0  0  0  0  0  0  0  0
   -0.1170   -0.5170    0.5630 C   0  0  0  0  0  0  0  0  0  0  0  0
   -1.1160   -0.7250   -0.3410 C   0  0  0  0  0  0  0  0  0  0  0  0
   -2.5060   -0.6320   -0.0500 N   0  0  0  0  0  0  0  0  0  0  0  0
   -2.9080   -0.3550    1.3060 C   0  0  2  0  0  0  0  0  0  0  0  0
   -3.9530   -1.3420    1.7600 C   0  0  0  0  0  0  0  0  0  0  0  0
   -5.1800   -1.3630    0.9380 C   0  0  0  0  0  0  0  0  0  0  0  0
   -3.3400    1.0090    1.4890 C   0  0  0  0  0  0  0  0  0  0  0  0
   -3.4470    1.7910    0.4250 O   0  0  0  0  0  0  0  0  0  0  0  0
   -3.6790    1.6740    2.6600 N   0  0  0  0  0  0  0  0  0  0  0  0
   -4.1580    3.0640    2.7220 C   0  0  0  0  0  0  0  0  0  0  0  0
   -5.4230    3.1000    1.9130 C   0  0  0  0  0  0  0  0  0  0  0  0
   -6.4150    2.1840    2.4260 O   0  0  0  0  0  0  0  0  0  0  0  0
   -5.6680    3.8100    0.8910 C   0  0  0  0  0  0  0  0  0  0  0  0
   -7.1300    3.8740   -0.0780 S   0  0  0  0  0  0  0  0  0  0  0  0
  1  2  3  0
  2  3  1  0
  3  4  1  0
  4  5  1  0
  5  6  2  0
  5 20  1  0
  6  7  1  0
  7  8  1  0
  7 18  2  0
  8  9  1  0
  9 10  2  0
  9 11  1  0
 11 12  1  0
 12 13  1  0
 13 14  1  0
 14 15  2  0
 14 16  1  0
 16 17  1  0
 18 19  1  0
 19 20  2  0
 20 21  1  0
 21 22  1  0
 22 23  1  6
 22 25  1  0
 23 24  1  0
 25 26  2  0
 25 27  1  0
 27 28  1  0
 28 29  1  0
 29 30  1  0
 29 31  2  3
 31 32  1  0
M  CHG  1  17   1
M  END
