
     RDKit          3D

 33 36  0  0  0  0  0  0  0  0999 V2000
    9.4830    1.2480   -2.8110 C   0  0  0  0  0  0  0  0  0  0  0  0
    8.8350    0.3830   -1.7560 C   0  0  0  0  0  0  0  0  0  0  0  0
    7.4420    0.7720   -1.6660 N   0  0  0  0  0  0  0  0  0  0  0  0
    6.5870    0.1230   -0.7510 C   0  0  0  0  0  0  0  0  0  0  0  0
    7.0800   -0.8940    0.0640 C   0  0  0  0  0  0  0  0  0  0  0  0
    6.2750   -1.5450    0.9640 C   0  0  0  0  0  0  0  0  0  0  0  0
    4.9500   -1.2030    1.0810 C   0  0  0  0  0  0  0  0  0  0  0  0
    4.0860   -1.8090    1.9580 C   0  0  0  0  0  0  0  0  0  0  0  0
    2.7580   -1.4760    2.0850 C   0  0  0  0  0  0  0  0  0  0  0  0
    1.7200   -2.3180    3.2480 Cl  0  0  0  0  0  0  0  0  0  0  0  0
    2.2120   -0.4610    1.2890 C   0  0  0  0  0  0  0  0  0  0  0  0
    0.8530   -0.1580    1.4550 N   0  0  0  0  0  0  0  0  0  0  0  0
    0.1130    0.8060    0.7710 C   0  0  0  0  0  0  0  0  0  0  0  0
    0.6690    1.5170   -0.0970 O   0  0  0  0  0  0  0  0  0  0  0  0
   -1.3340    1.0670    0.9890 C   0  0  2  0  0  0  0  0  0  0  0  0
   -1.7930    0.9210    2.3890 C   0  0  0  0  0  0  0  0  0  0  0  0
   -2.8100   -0.1730    2.6250 C   0  0  0  0  0  0  0  0  0  0  0  0
   -2.4460   -1.4510    1.9090 C   0  0  0  0  0  0  0  0  0  0  0  0
   -2.0170   -1.2100    0.4880 C   0  0  0  0  0  0  0  0  0  0  0  0
   -2.1330    0.1990    0.0570 C   0  0  1  0  0  0  0  0  0  0  0  0
   -3.4600    0.7040   -0.0950 N   0  0  0  0  0  0  0  0  0  0  0  0
   -4.4580    0.1340   -0.9300 C   0  0  0  0  0  0  0  0  0  0  0  0
   -4.4860   -1.1250   -1.1980 N   0  0  0  0  0  0  0  0  0  0  0  0
   -5.5860   -1.4160   -2.0510 C   0  0  0  0  0  0  0  0  0  0  0  0
   -5.9090   -2.7110   -2.5410 N   0  0  0  0  0  0  0  0  0  0  0  0
   -6.2350   -0.3350   -2.3080 N   0  0  0  0  0  0  0  0  0  0  0  0
   -5.5830    0.7430   -1.6240 C   0  0  1  0  0  0  0  0  0  0  0  0
   -6.5050    1.5350   -0.7470 C   0  0  0  0  0  0  0  0  0  0  0  0
   -7.1100    0.8120    0.2470 O   0  0  0  0  0  0  0  0  0  0  0  0
   -7.9310    1.7060    0.9630 C   0  0  0  0  0  0  0  0  0  0  0  0
    3.0660    0.1540    0.4070 C   0  0  0  0  0  0  0  0  0  0  0  0
    4.4220   -0.1960    0.2880 C   0  0  0  0  0  0  0  0  0  0  0  0
    5.2530    0.4420   -0.6090 C   0  0  0  0  0  0  0  0  0  0  0  0
  1  2  1  0
  2  3  1  0
  3  4  1  0
  4  5  2  0
  4 33  1  0
  5  6  1  0
  6  7  2  0
  7  8  1  0
  7 32  1  0
  8  9  2  0
  9 10  1  0
  9 11  1  0
 11 12  1  0
 11 31  2  0
 12 13  1  0
 13 14  2  0
 15 13  1  1
 15 16  1  0
 15 20  1  0
 16 17  1  0
 17 18  1  0
 18 19  1  0
 19 20  1  0
 20 21  1  1
 21 22  1  0
 22 23  2  0
 22 27  1  0
 23 24  1  0
 24 25  1  0
 24 26  2  0
 26 27  1  0
 27 28  1  1
 28 29  1  0
 29 30  1  0
 31 32  1  0
 32 33  2  0
M  CHG  1  26   1
M  END
