
     RDKit          3D

 33 35  0  0  0  0  0  0  0  0999 V2000
    8.0200    0.3680   -2.3940 C   0  0  0  0  0  0  0  0  0  0  0  0
    8.2040    0.6360   -0.9230 C   0  0  1  0  0  0  0  0  0  0  0  0
    8.0060    2.1110   -0.6810 C   0  0  0  0  0  0  0  0  0  0  0  0
    7.2580   -0.0650   -0.0990 N   0  0  0  0  0  0  0  0  0  0  0  0
    6.3760   -0.9520   -0.8360 C   0  0  0  0  0  0  0  0  0  0  0  0
    5.8880   -2.0430    0.1000 C   0  0  1  0  0  0  0  0  0  0  0  0
    7.0670   -2.6990    0.5310 O   0  0  0  0  0  0  0  0  0  0  0  0
    5.2490   -1.4930    1.3310 C   0  0  0  0  0  0  0  0  0  0  0  0
    4.0040   -0.7830    1.0880 N   0  0  0  0  0  0  0  0  0  0  0  0
    2.8810   -1.4240    0.4990 C   0  0  0  0  0  0  0  0  0  0  0  0
    3.0410   -2.6670    0.1980 O   0  0  0  0  0  0  0  0  0  0  0  0
    1.6400   -0.8610    0.2170 N   0  0  0  0  0  0  0  0  0  0  0  0
    0.6630   -1.7720   -0.3820 C   0  0  0  0  0  0  0  0  0  0  0  0
   -0.6770   -1.1310   -0.4060 C   0  0  0  0  0  0  0  0  0  0  0  0
   -1.2920   -0.2250    0.3030 C   0  0  0  0  0  0  0  0  0  0  0  0
   -2.6520    0.0530   -0.1600 N   0  0  0  0  0  0  0  0  0  0  0  0
   -2.8630    0.9300   -1.2750 C   0  0  0  0  0  0  0  0  0  0  0  0
   -4.1560    1.6720   -1.0690 C   0  0  0  0  0  0  0  0  0  0  0  0
   -5.2160    0.7930   -0.8420 N   0  0  0  0  0  0  0  0  0  0  0  0
   -6.1860    0.5590   -1.8190 C   0  0  0  0  0  0  0  0  0  0  0  0
   -7.4140   -0.1990   -1.4590 C   0  0  0  0  0  0  0  0  0  0  0  0
   -8.3480    0.4530   -0.5000 C   0  0  0  0  0  0  0  0  0  0  0  0
   -8.3230   -0.2850    0.8570 C   0  0  0  0  0  0  0  0  0  0  0  0
   -7.1700    0.3360    1.6030 C   0  0  0  0  0  0  0  0  0  0  0  0
   -5.8420    0.4040    1.3630 C   0  0  0  0  0  0  0  0  0  0  0  0
   -5.1530    1.1240    2.3910 C   0  0  0  0  0  0  0  0  0  0  0  0
   -3.9040    1.3400    2.3610 N   0  0  0  0  0  0  0  0  0  0  0  0
   -6.0040    1.7750    3.8050 Cl  0  0  0  0  0  0  0  0  0  0  0  0
   -5.0730   -0.1320    0.2390 C   0  0  2  0  0  0  0  0  0  0  0  0
   -3.7150   -0.6030    0.5190 C   0  0  0  0  0  0  0  0  0  0  0  0
   -0.8540    0.5410    1.4780 C   0  0  0  0  0  0  0  0  0  0  0  0
    0.5820    0.5650    1.7990 C   0  0  0  0  0  0  0  0  0  0  0  0
    1.4230    0.5370    0.5410 C   0  0  0  0  0  0  0  0  0  0  0  0
  2  1  1  6
  2  3  1  0
  2  4  1  0
  4  5  1  0
  5  6  1  0
  6  7  1  1
  6  8  1  0
  8  9  1  0
  9 10  1  0
 10 11  2  0
 10 12  1  0
 12 13  1  0
 12 33  1  0
 13 14  1  0
 14 15  2  0
 15 16  1  0
 15 31  1  0
 16 17  1  0
 16 30  1  0
 17 18  1  0
 18 19  1  0
 19 20  1  0
 19 29  1  0
 20 21  1  0
 21 22  1  0
 22 23  1  0
 23 24  1  0
 24 25  2  0
 25 26  1  0
 25 29  1  0
 26 27  2  0
 26 28  1  0
 29 30  1  1
 31 32  1  0
 32 33  1  0
M  CHG  1   4   1
M  END
