
     RDKit          3D

 32 35  0  0  0  0  0  0  0  0999 V2000
   11.5810   -0.9480    0.5030 C   0  0  0  0  0  0  0  0  0  0  0  0
   10.1050   -0.8160    0.3690 C   0  0  0  0  0  0  0  0  0  0  0  0
    9.5270    0.4080    0.6530 C   0  0  0  0  0  0  0  0  0  0  0  0
    8.1460    0.5990    0.5470 C   0  0  0  0  0  0  0  0  0  0  0  0
    7.3650   -0.4390    0.1590 C   0  0  0  0  0  0  0  0  0  0  0  0
    5.9230   -0.3090    0.0320 C   0  0  0  0  0  0  0  0  0  0  0  0
    5.2250   -1.2880   -0.4170 O   0  0  0  0  0  0  0  0  0  0  0  0
    5.1820    0.8510    0.3720 N   0  0  0  0  0  0  0  0  0  0  0  0
    3.7520    0.9290    0.2290 C   0  0  0  0  0  0  0  0  0  0  0  0
    2.9880   -0.0660    1.0370 C   0  0  0  0  0  0  0  0  0  0  0  0
    1.5290    0.1930    0.7520 C   0  0  0  0  0  0  0  0  0  0  0  0
    0.8470    1.0910    1.5420 C   0  0  0  0  0  0  0  0  0  0  0  0
   -0.5080    1.3480    1.3010 C   0  0  0  0  0  0  0  0  0  0  0  0
   -1.1720    0.7080    0.2760 C   0  0  0  0  0  0  0  0  0  0  0  0
   -2.4710    0.9250    0.0110 N   0  0  0  0  0  0  0  0  0  0  0  0
   -3.1430    0.3000   -0.9980 C   0  0  0  0  0  0  0  0  0  0  0  0
   -4.5020    0.5620   -1.2280 N   0  0  0  0  0  0  0  0  0  0  0  0
   -5.2430    1.4980   -0.4230 C   0  0  2  0  0  0  0  0  0  0  0  0
   -5.2170    1.0620    1.0270 C   0  0  0  0  0  0  0  0  0  0  0  0
   -6.6420    0.9300    1.4350 C   0  0  0  0  0  0  0  0  0  0  0  0
   -7.4820    1.1880    0.3030 N   0  0  0  0  0  0  0  0  0  0  0  0
   -8.3980    0.1260    0.0090 C   0  0  0  0  0  0  0  0  0  0  0  0
   -7.7110   -1.1290   -0.4880 C   0  0  0  0  0  0  0  0  0  0  0  0
   -8.7530   -2.1060   -0.7420 N   0  0  0  0  0  0  0  0  0  0  0  0
   -6.6790    1.6130   -0.7950 C   0  0  0  0  0  0  0  0  0  0  0  0
   -2.4530   -0.5960   -1.7820 C   0  0  0  0  0  0  0  0  0  0  0  0
   -3.0720   -1.1810   -2.7230 O   0  0  0  0  0  0  0  0  0  0  0  0
   -1.1550   -0.8180   -1.5240 N   0  0  0  0  0  0  0  0  0  0  0  0
   -0.4910   -0.1960   -0.5220 C   0  0  0  0  0  0  0  0  0  0  0  0
    0.8460   -0.4340   -0.2650 C   0  0  0  0  0  0  0  0  0  0  0  0
    7.9450   -1.6540   -0.1220 C   0  0  0  0  0  0  0  0  0  0  0  0
    9.3060   -1.8650   -0.0240 C   0  0  0  0  0  0  0  0  0  0  0  0
  1  2  1  0
  2  3  2  0
  2 32  1  0
  3  4  1  0
  4  5  2  0
  5  6  1  0
  5 31  1  0
  6  7  2  0
  6  8  1  0
  8  9  1  0
  9 10  1  0
 10 11  1  0
 11 12  2  0
 11 30  1  0
 12 13  1  0
 13 14  2  0
 14 15  1  0
 14 29  1  0
 15 16  2  0
 16 17  1  0
 16 26  1  0
 18 17  1  6
 18 19  1  0
 18 25  1  0
 19 20  1  0
 20 21  1  0
 21 22  1  0
 21 25  1  0
 22 23  1  0
 23 24  1  0
 26 27  2  0
 26 28  1  0
 28 29  1  0
 29 30  2  0
 31 32  2  0
M  CHG  1  24   1
M  END
