
     RDKit          3D

 32 35  0  0  0  0  0  0  0  0999 V2000
    7.5300    0.1050    1.6150 N   0  0  0  0  0  0  0  0  0  0  0  0
    7.5470   -0.0240    0.3390 C   0  0  0  0  0  0  0  0  0  0  0  0
    6.5150    0.5780   -0.4020 N   0  0  0  0  0  0  0  0  0  0  0  0
    5.1440    0.4590   -0.1060 C   0  0  0  0  0  0  0  0  0  0  0  0
    4.6620   -0.3870    0.8580 C   0  0  0  0  0  0  0  0  0  0  0  0
    3.3070   -0.5070    1.1180 C   0  0  0  0  0  0  0  0  0  0  0  0
    2.3580    0.2360    0.4050 C   0  0  0  0  0  0  0  0  0  0  0  0
    1.0110    0.0270    0.7620 N   0  0  0  0  0  0  0  0  0  0  0  0
   -0.1300    0.6350    0.2020 C   0  0  0  0  0  0  0  0  0  0  0  0
    0.0130    1.4590   -0.7160 O   0  0  0  0  0  0  0  0  0  0  0  0
   -1.4870    0.3320    0.6640 C   0  0  0  0  0  0  0  0  0  0  0  0
   -2.4960    0.9430    0.0880 C   0  0  0  0  0  0  0  0  0  0  0  0
   -3.8870    0.6970    0.4900 C   0  0  0  0  0  0  0  0  0  0  0  0
   -4.9980    1.2910   -0.0600 C   0  0  0  0  0  0  0  0  0  0  0  0
   -6.1360    0.7990    0.5890 C   0  0  0  0  0  0  0  0  0  0  0  0
   -7.4550    1.1990    0.2870 N   0  0  0  0  0  0  0  0  0  0  0  0
   -8.6480    0.6170    0.8360 C   0  0  1  0  0  0  0  0  0  0  0  0
   -9.8930    1.3660    0.3890 C   0  0  0  0  0  0  0  0  0  0  0  0
  -10.4400    0.8120   -0.8910 C   0  0  0  0  0  0  0  0  0  0  0  0
   -9.4480    0.0070   -1.6690 C   0  0  0  0  0  0  0  0  0  0  0  0
   -8.8650   -1.0820   -0.9240 N   0  0  0  0  0  0  0  0  0  0  0  0
   -8.8180   -0.8440    0.4890 C   0  0  0  0  0  0  0  0  0  0  0  0
   -5.6230   -0.0820    1.5110 C   0  0  0  0  0  0  0  0  0  0  0  0
   -4.3120   -0.1210    1.4310 O   0  0  0  0  0  0  0  0  0  0  0  0
    2.8390    1.0690   -0.5450 C   0  0  0  0  0  0  0  0  0  0  0  0
    4.2030    1.1860   -0.8050 C   0  0  0  0  0  0  0  0  0  0  0  0
    4.7950    2.2760   -2.0440 Cl  0  0  0  0  0  0  0  0  0  0  0  0
    8.6140   -0.7560   -0.2500 N   0  0  0  0  0  0  0  0  0  0  0  0
    8.7530   -2.1890   -0.0830 C   0  0  0  0  0  0  0  0  0  0  0  0
   10.1930   -2.5350   -0.2740 C   0  0  0  0  0  0  0  0  0  0  0  0
   10.8410   -1.2050   -0.6190 C   0  0  0  0  0  0  0  0  0  0  0  0
    9.7050   -0.3080   -1.0720 C   0  0  0  0  0  0  0  0  0  0  0  0
  1  2  2  0
  2  3  1  0
  2 28  1  0
  3  4  1  0
  4  5  2  0
  4 26  1  0
  5  6  1  0
  6  7  2  0
  7  8  1  0
  7 25  1  0
  8  9  1  0
  9 10  2  0
  9 11  1  0
 11 12  2  3
 12 13  1  0
 13 14  2  0
 13 24  1  0
 14 15  1  0
 15 16  1  0
 15 23  2  0
 17 16  1  6
 17 18  1  0
 17 22  1  0
 18 19  1  0
 19 20  1  0
 20 21  1  0
 21 22  1  0
 23 24  1  0
 25 26  2  0
 26 27  1  0
 28 29  1  0
 28 32  1  0
 29 30  1  0
 30 31  1  0
 31 32  1  0
M  CHG  1   1   1
M  END
