
     RDKit          3D

 32 35  0  0  0  0  0  0  0  0999 V2000
    4.5820    0.1370   -4.9890 C   0  0  0  0  0  0  0  0  0  0  0  0
    3.7480    0.1280   -3.8430 O   0  0  0  0  0  0  0  0  0  0  0  0
    4.2620    0.4480   -2.5820 C   0  0  0  0  0  0  0  0  0  0  0  0
    5.5910    0.7800   -2.4210 C   0  0  0  0  0  0  0  0  0  0  0  0
    6.0960    1.0950   -1.1760 C   0  0  0  0  0  0  0  0  0  0  0  0
    7.4350    1.4310   -1.0010 C   0  0  0  0  0  0  0  0  0  0  0  0
    7.9370    1.7470    0.2560 C   0  0  0  0  0  0  0  0  0  0  0  0
    9.6290    2.1680    0.4500 Cl  0  0  0  0  0  0  0  0  0  0  0  0
    7.0550    1.7130    1.3150 C   0  0  0  0  0  0  0  0  0  0  0  0
    5.7290    1.3790    1.1350 C   0  0  0  0  0  0  0  0  0  0  0  0
    5.2210    1.0630   -0.1100 C   0  0  0  0  0  0  0  0  0  0  0  0
    3.8920    0.7300   -0.2760 C   0  0  0  0  0  0  0  0  0  0  0  0
    3.3770    0.4130   -1.5220 C   0  0  0  0  0  0  0  0  0  0  0  0
    1.9760    0.0600   -1.7110 C   0  0  0  0  0  0  0  0  0  0  0  0
    1.1820    0.0380   -0.7000 N   0  0  0  0  0  0  0  0  0  0  0  0
   -0.1920   -0.2940   -0.7990 C   0  0  0  0  0  0  0  0  0  0  0  0
   -0.7950   -0.7180   -1.9640 C   0  0  0  0  0  0  0  0  0  0  0  0
   -2.0480   -0.9230   -1.6640 O   0  0  0  0  0  0  0  0  0  0  0  0
   -2.2860   -0.6630   -0.4040 C   0  0  0  0  0  0  0  0  0  0  0  0
   -3.5820   -0.7990    0.2140 N   0  0  0  0  0  0  0  0  0  0  0  0
   -3.7850   -0.5070    1.5790 C   0  0  0  0  0  0  0  0  0  0  0  0
   -2.7210   -0.1220    2.1880 O   0  0  0  0  0  0  0  0  0  0  0  0
   -5.0240   -0.5980    2.3190 C   0  0  0  0  0  0  0  0  0  0  0  0
   -5.0990   -0.3160    3.6510 N   0  0  0  0  0  0  0  0  0  0  0  0
   -6.3520   -0.4710    4.1020 C   0  0  0  0  0  0  0  0  0  0  0  0
   -6.7570   -0.2610    5.4150 O   0  0  0  0  0  0  0  0  0  0  0  0
   -7.1300   -0.8670    3.0410 C   0  0  0  0  0  0  0  0  0  0  0  0
   -8.5570   -1.1460    3.0970 C   0  0  0  0  0  0  0  0  0  0  0  0
   -9.1930   -1.0360    4.1720 O   0  0  0  0  0  0  0  0  0  0  0  0
   -6.2830   -0.9370    1.9480 C   0  0  0  0  0  0  0  0  0  0  0  0
   -6.7310   -1.3270    0.6010 C   0  0  0  0  0  0  0  0  0  0  0  0
   -1.1400   -0.2690    0.1540 N   0  0  0  0  0  0  0  0  0  0  0  0
  1  2  1  0
  2  3  1  0
  3  4  2  0
  3 13  1  0
  4  5  1  0
  5  6  2  0
  5 11  1  0
  6  7  1  0
  7  8  1  0
  7  9  2  0
  9 10  1  0
 10 11  2  0
 11 12  1  0
 12 13  2  0
 13 14  1  0
 14 15  2  3
 15 16  1  0
 16 17  2  0
 16 32  1  0
 17 18  1  0
 18 19  1  0
 19 20  1  0
 19 32  2  0
 20 21  1  0
 21 22  2  0
 21 23  1  0
 23 24  1  0
 23 30  2  0
 24 25  1  0
 25 26  1  0
 25 27  2  0
 27 28  1  0
 27 30  1  0
 28 29  2  0
 30 31  1  0
M  END
