
     RDKit          3D

 32 35  0  0  0  0  0  0  0  0999 V2000
    5.6270    1.5670    0.0890 O   0  0  0  0  0  0  0  0  0  0  0  0
    6.3510    0.5950    0.3930 C   0  0  0  0  0  0  0  0  0  0  0  0
    7.6740    0.8100    0.9470 N   0  0  0  0  0  0  0  0  0  0  0  0
    8.1210    2.1810    1.1310 C   0  0  0  0  0  0  0  0  0  0  0  0
    9.5150    2.1300    1.7150 C   0  0  0  0  0  0  0  0  0  0  0  0
    9.4870    1.2850    3.2600 Cl  0  0  0  0  0  0  0  0  0  0  0  0
    5.8880   -0.7100    0.2020 N   0  0  0  0  0  0  0  0  0  0  0  0
    4.6460   -1.1120   -0.3080 C   0  0  0  0  0  0  0  0  0  0  0  0
    4.4640   -2.4660   -0.6310 C   0  0  0  0  0  0  0  0  0  0  0  0
    3.2720   -2.9470   -1.1280 C   0  0  0  0  0  0  0  0  0  0  0  0
    2.1980   -2.1090   -1.3290 C   0  0  0  0  0  0  0  0  0  0  0  0
    2.3670   -0.7820   -1.0150 C   0  0  0  0  0  0  0  0  0  0  0  0
    1.3140    0.1040   -1.2000 O   0  0  0  0  0  0  0  0  0  0  0  0
    0.1230   -0.0520   -0.5350 C   0  0  0  0  0  0  0  0  0  0  0  0
   -0.0500   -1.0520    0.3660 C   0  0  0  0  0  0  0  0  0  0  0  0
   -1.2240   -1.1730    0.9940 N   0  0  0  0  0  0  0  0  0  0  0  0
   -2.2600   -0.3150    0.7530 C   0  0  0  0  0  0  0  0  0  0  0  0
   -2.1180    0.6990   -0.1500 C   0  0  0  0  0  0  0  0  0  0  0  0
   -3.1650    1.6080   -0.5290 C   0  0  0  0  0  0  0  0  0  0  0  0
   -2.7340    2.6950   -1.1440 O   0  0  0  0  0  0  0  0  0  0  0  0
   -4.5590    1.4800   -0.3310 C   0  0  0  0  0  0  0  0  0  0  0  0
   -5.2750    0.5430    0.1640 C   0  0  0  0  0  0  0  0  0  0  0  0
   -6.7280    0.7650    0.2150 N   0  0  0  0  0  0  0  0  0  0  0  0
   -7.4210    1.7260   -0.5890 C   0  0  0  0  0  0  0  0  0  0  0  0
   -8.7980    1.1450   -0.7530 C   0  0  0  0  0  0  0  0  0  0  0  0
   -8.8360   -0.1310    0.0680 C   0  0  0  0  0  0  0  0  0  0  0  0
   -7.6750    0.0900    1.0410 C   0  0  0  0  0  0  0  0  0  0  0  0
   -0.8880    0.8280   -0.8080 C   0  0  0  0  0  0  0  0  0  0  0  0
    3.5810   -0.2840   -0.5080 C   0  0  0  0  0  0  0  0  0  0  0  0
    1.1500   -2.8720   -1.8320 O   0  0  0  0  0  0  0  0  0  0  0  0
    1.4310   -4.2280   -1.4740 C   0  0  0  0  0  0  0  0  0  0  0  0
    2.8460   -4.2320   -1.5200 O   0  0  0  0  0  0  0  0  0  0  0  0
  1  2  2  0
  2  3  1  0
  2  7  1  0
  3  4  1  0
  4  5  1  0
  5  6  1  0
  7  8  1  0
  8  9  2  0
  8 29  1  0
  9 10  1  0
 10 11  2  0
 10 32  1  0
 11 12  1  0
 11 30  1  0
 12 13  1  0
 12 29  2  0
 13 14  1  0
 14 15  2  0
 14 28  1  0
 15 16  1  0
 16 17  2  0
 17 18  1  0
 18 19  1  0
 18 28  2  0
 19 20  2  0
 19 21  1  0
 21 22  2  3
 22 23  1  0
 23 24  1  0
 23 27  1  0
 24 25  1  0
 25 26  1  0
 26 27  1  0
 30 31  1  0
 31 32  1  0
M  END
