
     RDKit          3D

 32 35  0  0  0  0  0  0  0  0999 V2000
    0.4550   -3.8220    1.9770 C   0  0  0  0  0  0  0  0  0  0  0  0
    1.1530   -2.5370    2.3330 C   0  0  0  0  0  0  0  0  0  0  0  0
    1.1150   -1.5620    1.3340 O   0  0  0  0  0  0  0  0  0  0  0  0
   -0.0380   -0.9970    0.8050 C   0  0  0  0  0  0  0  0  0  0  0  0
   -1.2560   -1.4160    1.2930 C   0  0  0  0  0  0  0  0  0  0  0  0
   -2.4220   -0.8740    0.7890 C   0  0  0  0  0  0  0  0  0  0  0  0
   -2.3670    0.0800   -0.1960 C   0  0  0  0  0  0  0  0  0  0  0  0
   -1.1160    0.4820   -0.6670 C   0  0  0  0  0  0  0  0  0  0  0  0
    0.0600   -0.0280   -0.1960 C   0  0  0  0  0  0  0  0  0  0  0  0
    1.3680    0.3830   -0.6790 C   0  0  0  0  0  0  0  0  0  0  0  0
    1.5270    1.3260   -1.6560 C   0  0  0  0  0  0  0  0  0  0  0  0
    2.7970    1.6720   -2.0700 C   0  0  0  0  0  0  0  0  0  0  0  0
    2.9250    2.6330   -3.0650 O   0  0  0  0  0  0  0  0  0  0  0  0
    4.2060    3.0240   -3.5260 C   0  0  0  0  0  0  0  0  0  0  0  0
    3.8740    1.0700   -1.5000 N   0  0  0  0  0  0  0  0  0  0  0  0
    3.7170    0.1430   -0.5390 C   0  0  0  0  0  0  0  0  0  0  0  0
    4.8760   -0.4840    0.0540 N   0  0  0  0  0  0  0  0  0  0  0  0
    6.2040   -0.1470   -0.3530 C   0  0  0  0  0  0  0  0  0  0  0  0
    7.1930   -0.9560    0.4350 C   0  0  0  0  0  0  0  0  0  0  0  0
    7.0370   -0.6390    2.1850 Cl  0  0  0  0  0  0  0  0  0  0  0  0
    2.4810   -0.1940   -0.1350 N   0  0  0  0  0  0  0  0  0  0  0  0
   -3.4120    0.7330   -0.8200 O   0  0  0  0  0  0  0  0  0  0  0  0
   -4.7130    0.9370   -0.3470 C   0  0  0  0  0  0  0  0  0  0  0  0
   -5.3130    2.0150   -0.9480 C   0  0  0  0  0  0  0  0  0  0  0  0
   -6.6110    2.3530   -0.5870 C   0  0  0  0  0  0  0  0  0  0  0  0
   -7.1810    3.4530   -1.2230 O   0  0  0  0  0  0  0  0  0  0  0  0
   -7.3280    1.6570    0.3470 C   0  0  0  0  0  0  0  0  0  0  0  0
   -6.7230    0.5760    0.9490 C   0  0  0  0  0  0  0  0  0  0  0  0
   -5.4230    0.2190    0.6030 C   0  0  0  0  0  0  0  0  0  0  0  0
   -4.9510   -0.9190    1.3180 N   0  0  0  0  0  0  0  0  0  0  0  0
   -3.6270   -1.4320    1.4180 C   0  0  0  0  0  0  0  0  0  0  0  0
   -3.4110   -2.4520    2.0910 O   0  0  0  0  0  0  0  0  0  0  0  0
  1  2  1  0
  2  3  1  0
  3  4  1  0
  4  5  2  0
  4  9  1  0
  5  6  1  0
  6  7  2  0
  6 31  1  0
  7  8  1  0
  7 22  1  0
  8  9  2  0
  9 10  1  0
 10 11  2  0
 10 21  1  0
 11 12  1  0
 12 13  1  0
 12 15  2  0
 13 14  1  0
 15 16  1  0
 16 17  1  0
 16 21  2  0
 17 18  1  0
 18 19  1  0
 19 20  1  0
 22 23  1  0
 23 24  2  0
 23 29  1  0
 24 25  1  0
 25 26  1  0
 25 27  2  0
 27 28  1  0
 28 29  2  0
 29 30  1  0
 30 31  1  0
 31 32  2  0
M  END
