
     RDKit          3D

 32 35  0  0  0  0  0  0  0  0999 V2000
   -3.7660    2.0350   -1.9980 C   0  0  0  0  0  0  0  0  0  0  0  0
   -3.0450    0.7500   -2.0210 C   0  0  0  0  0  0  0  0  0  0  0  0
   -3.2240   -0.0640   -2.9430 O   0  0  0  0  0  0  0  0  0  0  0  0
   -2.1250    0.4460   -0.9580 C   0  0  0  0  0  0  0  0  0  0  0  0
   -2.5650   -0.1810    0.1750 C   0  0  0  0  0  0  0  0  0  0  0  0
   -3.9570   -0.5330    0.2990 C   0  0  0  0  0  0  0  0  0  0  0  0
   -4.6590   -1.4230   -0.5230 C   0  0  0  0  0  0  0  0  0  0  0  0
   -5.9510   -1.5100   -0.0500 C   0  0  0  0  0  0  0  0  0  0  0  0
   -7.0620   -2.3310   -0.5960 C   0  0  0  0  0  0  0  0  0  0  0  0
   -6.6390   -3.3350   -1.4520 O   0  0  0  0  0  0  0  0  0  0  0  0
   -6.0540   -0.7310    0.9950 O   0  0  0  0  0  0  0  0  0  0  0  0
   -4.8910   -0.1350    1.2310 C   0  0  0  0  0  0  0  0  0  0  0  0
   -4.6460    0.8150    2.3370 C   0  0  0  0  0  0  0  0  0  0  0  0
   -1.6490   -0.4380    1.1460 N   0  0  0  0  0  0  0  0  0  0  0  0
   -0.3490   -0.0960    1.0160 C   0  0  0  0  0  0  0  0  0  0  0  0
    0.1070    0.5370   -0.1250 C   0  0  0  0  0  0  0  0  0  0  0  0
    1.3440    0.9950   -0.5430 C   0  0  0  0  0  0  0  0  0  0  0  0
    2.5900    0.9010    0.2010 C   0  0  0  0  0  0  0  0  0  0  0  0
    2.6780    0.3860    1.3370 O   0  0  0  0  0  0  0  0  0  0  0  0
    3.7900    1.4030   -0.3500 O   0  0  0  0  0  0  0  0  0  0  0  0
    5.0150    1.3300    0.3010 C   0  0  0  0  0  0  0  0  0  0  0  0
    5.5770   -0.0030    0.5310 C   0  0  0  0  0  0  0  0  0  0  0  0
    6.7670   -0.1450    1.2650 C   0  0  0  0  0  0  0  0  0  0  0  0
    7.5440    0.9410    1.9000 C   0  0  0  0  0  0  0  0  0  0  0  0
    7.0420   -1.4410    1.2650 N   0  0  0  0  0  0  0  0  0  0  0  0
    6.1430   -2.1070    0.6050 N   0  0  0  0  0  0  0  0  0  0  0  0
    5.1980   -1.2410    0.1210 C   0  0  0  0  0  0  0  0  0  0  0  0
    4.0600   -1.6540   -0.7160 C   0  0  0  0  0  0  0  0  0  0  0  0
    1.1380    1.5360   -1.7950 C   0  0  0  0  0  0  0  0  0  0  0  0
    2.4080    2.2560   -2.7690 Cl  0  0  0  0  0  0  0  0  0  0  0  0
   -0.1520    1.4230   -2.1410 N   0  0  0  0  0  0  0  0  0  0  0  0
   -0.7910    0.8140   -1.1280 C   0  0  0  0  0  0  0  0  0  0  0  0
  1  2  1  0
  2  3  2  0
  2  4  1  0
  4  5  2  0
  4 32  1  0
  5  6  1  0
  5 14  1  0
  6  7  1  0
  6 12  2  0
  7  8  2  0
  8  9  1  0
  8 11  1  0
  9 10  1  0
 11 12  1  0
 12 13  1  0
 14 15  2  0
 15 16  1  0
 16 17  1  0
 16 32  2  0
 17 18  1  0
 17 29  2  0
 18 19  2  0
 18 20  1  0
 20 21  1  0
 21 22  1  0
 22 23  1  0
 22 27  2  0
 23 24  1  0
 23 25  2  0
 25 26  1  0
 26 27  1  0
 27 28  1  0
 29 30  1  0
 29 31  1  0
 31 32  1  0
M  END
