
     RDKit          3D

 32 35  0  0  0  0  0  0  0  0999 V2000
   -3.8310   -3.0810    1.6490 C   0  0  0  0  0  0  0  0  0  0  0  0
   -3.6710   -2.4660    0.2570 C   0  0  1  0  0  0  0  0  0  0  0  0
   -4.9920   -2.3390   -0.4430 C   0  0  0  0  0  0  0  0  0  0  0  0
   -2.9180   -1.3060    0.2890 O   0  0  0  0  0  0  0  0  0  0  0  0
   -1.6990   -1.1060   -0.1640 C   0  0  0  0  0  0  0  0  0  0  0  0
   -1.1860   -2.0830   -0.8720 O   0  0  0  0  0  0  0  0  0  0  0  0
   -0.7960    0.0510    0.0260 C   0  0  0  0  0  0  0  0  0  0  0  0
    0.4510    0.0400   -0.6070 C   0  0  0  0  0  0  0  0  0  0  0  0
    1.4340    0.9600   -0.3500 C   0  0  0  0  0  0  0  0  0  0  0  0
    2.7470    0.9770   -0.9660 C   0  0  0  0  0  0  0  0  0  0  0  0
    3.6770    1.9870   -0.7940 N   0  0  0  0  0  0  0  0  0  0  0  0
    4.7780    1.7330   -1.4010 N   0  0  0  0  0  0  0  0  0  0  0  0
    4.6820    0.5130   -2.0390 C   0  0  0  0  0  0  0  0  0  0  0  0
    3.4280    0.0790   -1.7490 C   0  0  0  0  0  0  0  0  0  0  0  0
    3.0070   -1.2710   -2.2630 C   0  0  0  0  0  0  0  0  0  0  0  0
    4.1970   -2.0830   -2.7250 C   0  0  0  0  0  0  0  0  0  0  0  0
    5.2230   -1.3530   -3.4510 C   0  0  0  0  0  0  0  0  0  0  0  0
    5.7830   -1.6770   -4.5250 O   0  0  0  0  0  0  0  0  0  0  0  0
    5.6560   -0.0820   -2.8450 N   0  0  0  0  0  0  0  0  0  0  0  0
    1.0740    1.9120    0.6180 C   0  0  0  0  0  0  0  0  0  0  0  0
    2.0920    2.8660    0.9000 O   0  0  0  0  0  0  0  0  0  0  0  0
    1.7920    3.7990    1.9800 C   0  0  0  0  0  0  0  0  0  0  0  0
    1.6230    2.8730    3.1820 C   0  0  0  0  0  0  0  0  0  0  0  0
    1.5000    2.1750    4.1210 N   0  0  0  0  0  0  0  0  0  0  0  0
   -0.1360    1.9430    1.2400 C   0  0  0  0  0  0  0  0  0  0  0  0
   -1.1330    0.9810    0.9460 C   0  0  0  0  0  0  0  0  0  0  0  0
   -2.4400    1.1690    1.5880 C   0  0  0  0  0  0  0  0  0  0  0  0
   -2.6770    1.2680    2.8480 O   0  0  0  0  0  0  0  0  0  0  0  0
   -3.9200    1.4430    3.1770 C   0  0  0  0  0  0  0  0  0  0  0  0
   -4.6110    1.4660    1.9430 C   0  0  0  0  0  0  0  0  0  0  0  0
   -3.6870    1.2990    0.9870 C   0  0  0  0  0  0  0  0  0  0  0  0
   -4.0460    1.3510   -0.7600 Cl  0  0  0  0  0  0  0  0  0  0  0  0
  2  1  1  1
  2  3  1  0
  2  4  1  0
  4  5  1  0
  5  6  2  0
  5  7  1  0
  7  8  2  0
  7 26  1  0
  8  9  1  0
  9 10  1  0
  9 20  2  0
 10 11  2  0
 10 14  1  0
 11 12  1  0
 12 13  1  0
 13 14  2  0
 13 19  1  0
 14 15  1  0
 15 16  1  0
 16 17  1  0
 17 18  2  0
 17 19  1  0
 20 21  1  0
 20 25  1  0
 21 22  1  0
 22 23  1  0
 23 24  3  0
 25 26  2  0
 26 27  1  0
 27 28  1  0
 27 31  2  0
 28 29  1  0
 29 30  2  0
 30 31  1  0
 31 32  1  0
M  END
