
     RDKit          3D

 33 37  0  0  0  0  0  0  0  0999 V2000
   -0.4170    1.2270   -1.9620 O   0  0  0  0  0  0  0  0  0  0  0  0
   -0.0400    1.0340   -0.7800 C   0  0  0  0  0  0  0  0  0  0  0  0
    1.3460    0.6480   -0.3250 C   0  0  1  0  0  0  0  0  0  0  0  0
    2.3460    1.4200   -0.9900 N   0  0  0  0  0  0  0  0  0  0  0  0
    3.2590    0.3780   -2.0120 S   0  0  1  0  0  0  0  0  0  0  0  0
    2.5990   -0.9710   -2.0770 O   0  0  0  0  0  0  0  0  0  0  0  0
    3.3160    0.9070   -3.4220 O   0  0  0  0  0  0  0  0  0  0  0  0
    4.8670    0.2130   -1.3470 C   0  0  0  0  0  0  0  0  0  0  0  0
    5.8860    1.0810   -1.6900 C   0  0  0  0  0  0  0  0  0  0  0  0
    7.1470    0.9250   -1.1590 C   0  0  0  0  0  0  0  0  0  0  0  0
    7.4450   -0.0990   -0.2680 C   0  0  0  0  0  0  0  0  0  0  0  0
    8.7190   -0.2140    0.2320 C   0  0  0  0  0  0  0  0  0  0  0  0
    8.9520   -1.2550    1.1140 C   0  0  0  0  0  0  0  0  0  0  0  0
   10.5650   -1.4220    1.7650 Cl  0  0  0  0  0  0  0  0  0  0  0  0
    7.9390   -2.1290    1.4650 C   0  0  0  0  0  0  0  0  0  0  0  0
    6.6710   -1.9860    0.9450 C   0  0  0  0  0  0  0  0  0  0  0  0
    6.4100   -0.9600    0.0650 C   0  0  0  0  0  0  0  0  0  0  0  0
    5.1370   -0.8010   -0.4710 C   0  0  0  0  0  0  0  0  0  0  0  0
    1.2870    0.8230    1.1660 C   0  0  0  0  0  0  0  0  0  0  0  0
    0.0520    1.6630    1.3900 C   0  0  0  0  0  0  0  0  0  0  0  0
   -0.8610    1.1440    0.3930 N   0  0  0  0  0  0  0  0  0  0  0  0
   -2.2360    0.7980    0.4690 C   0  0  0  0  0  0  0  0  0  0  0  0
   -3.1060    1.4910   -0.3380 C   0  0  0  0  0  0  0  0  0  0  0  0
   -4.4550    1.1860   -0.3130 C   0  0  0  0  0  0  0  0  0  0  0  0
   -4.9680    0.1970    0.5060 C   0  0  0  0  0  0  0  0  0  0  0  0
   -6.4230   -0.0400    0.4400 C   0  0  2  0  0  0  0  0  0  0  0  0
   -6.8280   -1.4230    0.9120 C   0  0  0  0  0  0  0  0  0  0  0  0
   -8.2720   -1.4820    0.4010 C   0  0  0  0  0  0  0  0  0  0  0  0
   -8.2810   -0.5100   -0.7560 C   0  0  0  0  0  0  0  0  0  0  0  0
   -6.8960   -0.0800   -0.9510 N   0  0  0  0  0  0  0  0  0  0  0  0
   -4.1000   -0.4940    1.3110 C   0  0  0  0  0  0  0  0  0  0  0  0
   -2.7340   -0.1900    1.2890 C   0  0  0  0  0  0  0  0  0  0  0  0
   -1.8870   -0.8720    2.0820 F   0  0  0  0  0  0  0  0  0  0  0  0
  1  2  2  0
  2  3  1  0
  2 21  1  0
  3  4  1  6
  3 19  1  0
  5  4  1  1
  5  6  2  0
  5  7  2  0
  5  8  1  0
  8  9  2  0
  8 18  1  0
  9 10  1  0
 10 11  2  0
 11 12  1  0
 11 17  1  0
 12 13  2  0
 13 14  1  0
 13 15  1  0
 15 16  2  0
 16 17  1  0
 17 18  2  0
 19 20  1  0
 20 21  1  0
 21 22  1  0
 22 23  2  0
 22 32  1  0
 23 24  1  0
 24 25  2  0
 26 25  1  6
 25 31  1  0
 26 27  1  0
 26 30  1  0
 27 28  1  0
 28 29  1  0
 29 30  1  0
 31 32  2  0
 32 33  1  0
M  CHG  1  30   1
M  END
