
     RDKit          3D

 32 35  0  0  0  0  0  0  0  0999 V2000
   10.1080    1.2720    0.5390 C   0  0  0  0  0  0  0  0  0  0  0  0
    8.8730    1.8640    0.8710 O   0  0  0  0  0  0  0  0  0  0  0  0
    7.7090    1.1610    0.6510 C   0  0  0  0  0  0  0  0  0  0  0  0
    7.7210   -0.1010    0.1170 C   0  0  0  0  0  0  0  0  0  0  0  0
    6.5530   -0.8060   -0.1040 C   0  0  0  0  0  0  0  0  0  0  0  0
    5.3170   -0.2460    0.2140 C   0  0  0  0  0  0  0  0  0  0  0  0
    4.1500   -1.0080   -0.0170 N   0  0  0  0  0  0  0  0  0  0  0  0
    2.8180   -0.5230    0.0500 C   0  0  0  0  0  0  0  0  0  0  0  0
    2.5590    0.6570    0.3250 O   0  0  0  0  0  0  0  0  0  0  0  0
    1.7300   -1.5270   -0.2330 C   0  0  0  0  0  0  0  0  0  0  0  0
    0.5060   -0.8330   -0.1110 O   0  0  0  0  0  0  0  0  0  0  0  0
   -0.6700   -1.5470   -0.3270 C   0  0  0  0  0  0  0  0  0  0  0  0
   -0.5810   -2.7450   -0.6130 O   0  0  0  0  0  0  0  0  0  0  0  0
   -1.8900   -0.8500   -0.2040 N   0  0  0  0  0  0  0  0  0  0  0  0
   -3.1660   -1.4400   -0.3940 C   0  0  0  0  0  0  0  0  0  0  0  0
   -3.3720   -2.7610   -0.7200 C   0  0  0  0  0  0  0  0  0  0  0  0
   -4.6650   -3.2380   -0.8840 C   0  0  0  0  0  0  0  0  0  0  0  0
   -4.9070   -4.6700   -1.2380 C   0  0  0  0  0  0  0  0  0  0  0  0
   -5.7250   -2.3840   -0.7170 C   0  0  0  0  0  0  0  0  0  0  0  0
   -5.5460   -1.0610   -0.3910 C   0  0  0  0  0  0  0  0  0  0  0  0
   -6.3490   -0.0370   -0.1740 O   0  0  0  0  0  0  0  0  0  0  0  0
   -5.6330    1.0360    0.1120 C   0  0  0  0  0  0  0  0  0  0  0  0
   -5.6960    2.3770    0.4330 C   0  0  0  0  0  0  0  0  0  0  0  0
   -6.9310    3.1860    0.5830 C   0  0  0  0  0  0  0  0  0  0  0  0
   -4.4140    2.8560    0.5960 C   0  0  0  0  0  0  0  0  0  0  0  0
   -4.0130    4.2640    0.9510 C   0  0  0  0  0  0  0  0  0  0  0  0
   -3.6030    1.8080    0.3740 N   0  0  0  0  0  0  0  0  0  0  0  0
   -4.3240    0.7290    0.0870 N   0  0  0  0  0  0  0  0  0  0  0  0
   -4.2680   -0.5800   -0.2270 C   0  0  0  0  0  0  0  0  0  0  0  0
    5.3150    1.0220    0.7510 C   0  0  0  0  0  0  0  0  0  0  0  0
    6.5040    1.7280    0.9700 C   0  0  0  0  0  0  0  0  0  0  0  0
    6.4480    3.3340    1.6530 Cl  0  0  0  0  0  0  0  0  0  0  0  0
  1  2  1  0
  2  3  1  0
  3  4  2  0
  3 31  1  0
  4  5  1  0
  5  6  2  0
  6  7  1  0
  6 30  1  0
  7  8  1  0
  8  9  2  0
  8 10  1  0
 10 11  1  0
 11 12  1  0
 12 13  2  0
 12 14  1  0
 14 15  1  0
 15 16  2  0
 15 29  1  0
 16 17  1  0
 17 18  1  0
 17 19  2  0
 19 20  1  0
 20 21  1  0
 20 29  2  0
 21 22  1  0
 22 23  2  0
 22 28  1  0
 23 24  1  0
 23 25  1  0
 25 26  1  0
 25 27  2  0
 27 28  1  0
 28 29  1  0
 30 31  2  0
 31 32  1  0
M  END
