
     RDKit          3D

 32 35  0  0  0  0  0  0  0  0999 V2000
   -7.8980    0.0420   -2.4430 C   0  0  0  0  0  0  0  0  0  0  0  0
   -7.0930   -0.4590   -1.4210 O   0  0  0  0  0  0  0  0  0  0  0  0
   -5.7050   -0.5030   -1.4770 C   0  0  0  0  0  0  0  0  0  0  0  0
   -5.0290   -0.0360   -2.5840 C   0  0  0  0  0  0  0  0  0  0  0  0
   -3.6340   -0.0570   -2.6910 C   0  0  0  0  0  0  0  0  0  0  0  0
   -2.9250   -0.5700   -1.6320 C   0  0  0  0  0  0  0  0  0  0  0  0
   -3.5770   -1.0380   -0.5240 C   0  0  0  0  0  0  0  0  0  0  0  0
   -4.9680   -1.0120   -0.4300 C   0  0  0  0  0  0  0  0  0  0  0  0
   -5.6470   -1.4810    0.6850 O   0  0  0  0  0  0  0  0  0  0  0  0
   -4.8730   -2.0010    1.7510 C   0  0  0  0  0  0  0  0  0  0  0  0
   -1.5090   -0.4780   -2.0000 C   0  0  2  0  0  0  0  0  0  0  0  0
   -0.8770    0.7450   -1.5660 N   0  0  0  0  0  0  0  0  0  0  0  0
    0.3640    0.7790   -0.8330 C   0  0  0  0  0  0  0  0  0  0  0  0
    0.8520   -0.3340   -0.6000 O   0  0  0  0  0  0  0  0  0  0  0  0
    0.9280    2.0100   -0.4390 N   0  0  0  0  0  0  0  0  0  0  0  0
    2.1290    2.1350    0.2760 C   0  0  0  0  0  0  0  0  0  0  0  0
    2.8860    1.0800    0.6720 C   0  0  0  0  0  0  0  0  0  0  0  0
    4.0900    1.2080    1.3880 C   0  0  0  0  0  0  0  0  0  0  0  0
    4.8450    0.0690    1.7780 N   0  0  0  0  0  0  0  0  0  0  0  0
    5.9950   -0.3930    1.2980 C   0  0  0  0  0  0  0  0  0  0  0  0
    6.3380   -1.5180    1.9880 C   0  0  0  0  0  0  0  0  0  0  0  0
    7.5360   -2.3590    1.7900 C   0  0  0  0  0  0  0  0  0  0  0  0
    5.3950   -1.7600    2.9060 N   0  0  0  0  0  0  0  0  0  0  0  0
    4.4720   -0.7820    2.7790 C   0  0  0  0  0  0  0  0  0  0  0  0
    3.2720   -0.6380    3.5660 C   0  0  0  0  0  0  0  0  0  0  0  0
    3.0160   -1.4740    4.4660 O   0  0  0  0  0  0  0  0  0  0  0  0
    4.4910    2.4850    1.6880 C   0  0  0  0  0  0  0  0  0  0  0  0
    3.7320    3.5630    1.2920 C   0  0  0  0  0  0  0  0  0  0  0  0
    2.5630    3.4360    0.5960 C   0  0  0  0  0  0  0  0  0  0  0  0
    1.6300    4.8390    0.1140 Cl  0  0  0  0  0  0  0  0  0  0  0  0
   -1.5800   -0.3910   -3.5340 C   0  0  0  0  0  0  0  0  0  0  0  0
   -2.7690    0.3560   -3.7000 O   0  0  0  0  0  0  0  0  0  0  0  0
  1  2  1  0
  2  3  1  0
  3  4  2  0
  3  8  1  0
  4  5  1  0
  5  6  2  0
  5 32  1  0
  6  7  1  0
  6 11  1  0
  7  8  2  0
  8  9  1  0
  9 10  1  0
 11 12  1  1
 11 31  1  0
 12 13  1  0
 13 14  2  0
 13 15  1  0
 15 16  1  0
 16 17  2  0
 16 29  1  0
 17 18  1  0
 18 19  1  0
 18 27  2  0
 19 20  1  0
 19 24  1  0
 20 21  2  0
 21 22  1  0
 21 23  1  0
 23 24  2  0
 24 25  1  0
 25 26  2  0
 27 28  1  0
 28 29  2  0
 29 30  1  0
 31 32  1  0
M  END
