
     RDKit          3D

 32 35  0  0  0  0  0  0  0  0999 V2000
   -3.5120   -0.6570    2.4950 C   0  0  0  0  0  0  0  0  0  0  0  0
   -2.6760   -1.5770    1.6000 C   0  0  0  0  0  0  0  0  0  0  0  0
   -2.1300   -0.7660    0.4540 C   0  0  0  0  0  0  0  0  0  0  0  0
   -0.9240   -0.3200    0.2830 O   0  0  0  0  0  0  0  0  0  0  0  0
   -0.8020    0.3470   -0.8260 C   0  0  0  0  0  0  0  0  0  0  0  0
    0.3850    1.0110   -1.3880 C   0  0  0  0  0  0  0  0  0  0  0  0
    0.2870    1.6110   -2.4770 O   0  0  0  0  0  0  0  0  0  0  0  0
    1.6380    0.9950   -0.7390 N   0  0  0  0  0  0  0  0  0  0  0  0
    2.8390    1.5920   -1.1570 C   0  0  0  0  0  0  0  0  0  0  0  0
    2.8040    2.7230   -2.0060 C   0  0  0  0  0  0  0  0  0  0  0  0
    3.9600    3.3490   -2.2420 N   0  0  0  0  0  0  0  0  0  0  0  0
    5.1400    2.9710   -1.7250 C   0  0  0  0  0  0  0  0  0  0  0  0
    6.5560    3.8920   -2.1250 Cl  0  0  0  0  0  0  0  0  0  0  0  0
    5.1470    1.8960   -0.9270 N   0  0  0  0  0  0  0  0  0  0  0  0
    4.0230    1.1780   -0.6200 C   0  0  0  0  0  0  0  0  0  0  0  0
    4.1590    0.0260    0.2340 C   0  0  0  0  0  0  0  0  0  0  0  0
    3.4350   -1.1100    0.4200 C   0  0  0  0  0  0  0  0  0  0  0  0
    4.0780   -1.9480    1.3120 C   0  0  0  0  0  0  0  0  0  0  0  0
    5.2150   -1.3360    1.6870 N   0  0  0  0  0  0  0  0  0  0  0  0
    5.2870   -0.1670    1.0640 C   0  0  0  0  0  0  0  0  0  0  0  0
    6.5350    0.5060    1.4780 C   0  0  0  0  0  0  0  0  0  0  0  0
    7.1510   -0.2860    2.3260 C   0  0  0  0  0  0  0  0  0  0  0  0
    6.3950   -1.5210    2.5480 C   0  0  0  0  0  0  0  0  0  0  0  0
   -2.0250    0.3460   -1.4470 C   0  0  0  0  0  0  0  0  0  0  0  0
   -2.4340    0.9630   -2.7390 C   0  0  0  0  0  0  0  0  0  0  0  0
   -2.8830   -0.3670   -0.6290 C   0  0  0  0  0  0  0  0  0  0  0  0
   -4.3050   -0.6360   -0.8770 C   0  0  0  0  0  0  0  0  0  0  0  0
   -4.6720   -1.6680   -1.5040 O   0  0  0  0  0  0  0  0  0  0  0  0
   -5.3010    0.2220   -0.4390 O   0  0  0  0  0  0  0  0  0  0  0  0
   -6.6820   -0.0100   -0.6610 C   0  0  0  0  0  0  0  0  0  0  0  0
   -7.1570   -1.3000   -0.0370 C   0  0  0  0  0  0  0  0  0  0  0  0
   -6.9470   -1.2640    1.3360 O   0  0  0  0  0  0  0  0  0  0  0  0
  1  2  1  0
  2  3  1  0
  3  4  1  0
  3 26  2  0
  4  5  1  0
  5  6  1  0
  5 24  2  0
  6  7  2  0
  6  8  1  0
  8  9  1  0
  9 10  2  0
  9 15  1  0
 10 11  1  0
 11 12  2  0
 12 13  1  0
 12 14  1  0
 14 15  2  0
 15 16  1  0
 16 17  1  0
 16 20  2  0
 17 18  2  0
 18 19  1  0
 19 20  1  0
 19 23  1  0
 20 21  1  0
 21 22  2  0
 22 23  1  0
 24 25  1  0
 24 26  1  0
 26 27  1  0
 27 28  2  0
 27 29  1  0
 29 30  1  0
 30 31  1  0
 31 32  1  0
M  END
