
     RDKit          3D

 38 40  0  0  0  0  0  0  0  0999 V2000
    6.6060   -1.2370   -0.2630 C   0  0  0  0  0  0  0  0  0  0  0  0
    5.9950   -0.3670    0.6670 O   0  0  0  0  0  0  0  0  0  0  0  0
    5.9080    1.0020    0.3480 C   0  0  0  0  0  0  0  0  0  0  0  0
    4.8540    1.7700    0.3610 C   0  0  0  0  0  0  0  0  0  0  0  0
    3.4710    1.4090    0.7140 C   0  0  0  0  0  0  0  0  0  0  0  0
    2.5890    2.3340    0.6600 O   0  0  0  0  0  0  0  0  0  0  0  0
    3.1410    0.1070    1.0910 N   0  0  0  0  0  0  0  0  0  0  0  0
    1.8020   -0.2010    1.4230 N   0  0  0  0  0  0  0  0  0  0  0  0
    1.1600   -1.2700    0.7470 C   0  0  0  0  0  0  0  0  0  0  0  0
    1.7820   -1.8960   -0.1160 O   0  0  0  0  0  0  0  0  0  0  0  0
   -0.2600   -1.6430    1.0690 C   0  0  1  0  0  0  0  0  0  0  0  0
   -1.1080   -0.5580    0.5130 C   0  0  0  0  0  0  0  0  0  0  0  0
   -2.5550   -0.6570    0.7640 C   0  0  0  0  0  0  0  0  0  0  0  0
   -2.9700   -1.3590    1.7520 O   0  0  0  0  0  0  0  0  0  0  0  0
   -3.5310   -0.0470    0.0070 O   0  0  0  0  0  0  0  0  0  0  0  0
   -4.8840   -0.2100    0.3300 C   0  0  1  0  0  0  0  0  0  0  0  0
   -5.6410    1.0300    0.6170 C   0  0  0  0  0  0  0  0  0  0  0  0
   -6.2550    1.7340   -0.5410 C   0  0  2  0  0  0  0  0  0  0  0  0
   -5.1610    2.4870   -1.2870 C   0  0  0  0  0  0  0  0  0  0  0  0
   -7.2930    2.7120   -0.0080 C   0  0  0  0  0  0  0  0  0  0  0  0
   -6.7540    3.6540    0.8390 O   0  0  0  0  0  0  0  0  0  0  0  0
   -7.0040    0.8120   -1.4790 C   0  0  0  0  0  0  0  0  0  0  0  0
   -6.2950   -0.3980   -1.6830 O   0  0  0  0  0  0  0  0  0  0  0  0
   -5.5950   -1.0290   -0.7000 C   0  0  0  0  0  0  0  0  0  0  0  0
   -5.5280   -2.2820   -0.6330 O   0  0  0  0  0  0  0  0  0  0  0  0
   -0.4470   -2.9960    0.4160 C   0  0  1  0  0  0  0  0  0  0  0  0
   -0.2240   -2.9180   -0.9650 O   0  0  0  0  0  0  0  0  0  0  0  0
    0.4750   -4.0290    1.0170 C   0  0  0  0  0  0  0  0  0  0  0  0
   -0.1780   -5.3270    0.5460 C   0  0  0  0  0  0  0  0  0  0  0  0
   -1.4750   -4.9970    0.0650 N   0  0  0  0  0  0  0  0  0  0  0  0
   -1.7720   -3.6450    0.6170 C   0  0  0  0  0  0  0  0  0  0  0  0
    5.2320    3.0440   -0.0260 O   0  0  0  0  0  0  0  0  0  0  0  0
    6.6280    3.2080   -0.0250 C   0  0  2  0  0  0  0  0  0  0  0  0
    7.0930    3.9070    1.0750 O   0  0  0  0  0  0  0  0  0  0  0  0
    6.9840    3.9680   -1.2910 C   0  0  0  0  0  0  0  0  0  0  0  0
    6.3280    5.1940   -1.2450 O   0  0  0  0  0  0  0  0  0  0  0  0
    7.0980    1.7890   -0.0720 C   0  0  1  0  0  0  0  0  0  0  0  0
    8.0540    1.6330    0.9390 O   0  0  0  0  0  0  0  0  0  0  0  0
  1  2  1  0
  2  3  1  0
  3  4  2  0
  3 37  1  0
  4  5  1  0
  4 32  1  0
  5  6  2  0
  5  7  1  0
  7  8  1  0
  8  9  1  0
  9 10  2  0
  9 11  1  0
 11 12  1  6
 11 26  1  0
 12 13  1  0
 13 14  2  0
 13 15  1  0
 16 15  1  6
 16 17  1  0
 16 24  1  0
 17 18  1  0
 18 19  1  6
 18 20  1  0
 18 22  1  0
 20 21  1  0
 22 23  1  0
 23 24  1  0
 24 25  2  0
 26 27  1  6
 26 28  1  0
 26 31  1  0
 28 29  1  0
 29 30  1  0
 30 31  1  0
 32 33  1  0
 33 34  1  1
 33 35  1  0
 33 37  1  0
 35 36  1  0
 37 38  1  1
M  CHG  1  30   1
M  END
