
     RDKit          3D

 38 41  0  0  0  0  0  0  0  0999 V2000
    2.1940   -0.6390    1.8430 O   0  0  0  0  0  0  0  0  0  0  0  0
    2.6780   -0.0780    0.8350 C   0  0  0  0  0  0  0  0  0  0  0  0
    4.0160    0.4510    0.9050 N   0  0  0  0  0  0  0  0  0  0  0  0
    4.7320    0.2940    2.1520 C   0  0  0  0  0  0  0  0  0  0  0  0
    6.1040    0.8980    2.0490 C   0  0  0  0  0  0  0  0  0  0  0  0
    5.9370    2.2560    1.7570 O   0  0  0  0  0  0  0  0  0  0  0  0
    1.8930    0.0540   -0.4440 C   0  0  2  0  0  0  0  0  0  0  0  0
    0.4460   -0.2820   -0.0330 C   0  0  0  0  0  0  0  0  0  0  0  0
   -0.5160   -0.1990   -1.1820 C   0  0  0  0  0  0  0  0  0  0  0  0
   -1.7890   -0.4650   -0.9930 O   0  0  0  0  0  0  0  0  0  0  0  0
   -2.6930    0.1220   -0.2170 C   0  0  1  0  0  0  0  0  0  0  0  0
   -3.9710   -0.7220   -0.4450 C   0  0  0  0  0  0  0  0  0  0  0  0
   -4.8960   -0.8080    0.5450 C   0  0  0  0  0  0  0  0  0  0  0  0
   -6.0580   -1.5570    0.3400 C   0  0  0  0  0  0  0  0  0  0  0  0
   -6.2500   -2.1990   -0.8690 C   0  0  0  0  0  0  0  0  0  0  0  0
   -5.3110   -2.1040   -1.8580 C   0  0  0  0  0  0  0  0  0  0  0  0
   -4.1620   -1.3620   -1.6510 C   0  0  0  0  0  0  0  0  0  0  0  0
   -2.3930   -0.1440    1.1990 C   0  0  0  0  0  0  0  0  0  0  0  0
   -2.4070   -1.4960    1.5740 C   0  0  0  0  0  0  0  0  0  0  0  0
   -2.1560   -1.9250    2.8510 C   0  0  0  0  0  0  0  0  0  0  0  0
   -1.8710   -0.9930    3.8350 C   0  0  0  0  0  0  0  0  0  0  0  0
   -1.8520    0.3380    3.4850 C   0  0  0  0  0  0  0  0  0  0  0  0
   -2.1110    0.7480    2.1800 C   0  0  0  0  0  0  0  0  0  0  0  0
   -3.1580    1.4650   -0.5500 C   0  0  0  0  0  0  0  0  0  0  0  0
   -3.9130    2.2300    0.2850 C   0  0  0  0  0  0  0  0  0  0  0  0
   -4.3220    3.4990   -0.1190 C   0  0  0  0  0  0  0  0  0  0  0  0
   -4.0000    4.0350   -1.3450 C   0  0  0  0  0  0  0  0  0  0  0  0
   -3.2390    3.2570   -2.1850 C   0  0  0  0  0  0  0  0  0  0  0  0
   -2.8270    1.9850   -1.7810 C   0  0  0  0  0  0  0  0  0  0  0  0
    2.3450   -1.0470   -1.3600 C   0  0  0  0  0  0  0  0  0  0  0  0
    3.7590   -1.0200   -1.6640 N   0  0  0  0  0  0  0  0  0  0  0  0
    4.6120   -1.7250   -0.9030 C   0  0  0  0  0  0  0  0  0  0  0  0
    5.9780   -1.7360   -1.1730 C   0  0  0  0  0  0  0  0  0  0  0  0
    6.3960   -0.9910   -2.2530 C   0  0  0  0  0  0  0  0  0  0  0  0
    7.6290   -0.9930   -2.5080 O   0  0  0  0  0  0  0  0  0  0  0  0
    5.4960   -0.3120   -2.9700 N   0  0  0  0  0  0  0  0  0  0  0  0
    4.1740   -0.2980   -2.7120 C   0  0  0  0  0  0  0  0  0  0  0  0
    3.3460    0.3550   -3.4110 O   0  0  0  0  0  0  0  0  0  0  0  0
  1  2  2  0
  2  3  1  0
  2  7  1  0
  3  4  1  0
  4  5  1  0
  5  6  1  0
  7  8  1  1
  7 30  1  0
  8  9  1  0
  9 10  1  0
 11 10  1  6
 11 12  1  0
 11 18  1  0
 11 24  1  0
 12 13  2  0
 12 17  1  0
 13 14  1  0
 14 15  2  0
 15 16  1  0
 16 17  2  0
 18 19  2  0
 18 23  1  0
 19 20  1  0
 20 21  2  0
 21 22  1  0
 22 23  2  0
 24 25  2  0
 24 29  1  0
 25 26  1  0
 26 27  2  0
 27 28  1  0
 28 29  2  0
 30 31  1  0
 31 32  1  0
 31 37  1  0
 32 33  2  0
 33 34  1  0
 34 35  2  0
 34 36  1  0
 36 37  1  0
 37 38  2  0
M  END
