
     RDKit          3D

 37 38  0  0  0  0  0  0  0  0999 V2000
   -9.1290    0.6050   -0.6210 C   0  0  0  0  0  0  0  0  0  0  0  0
   -8.4290   -0.6510   -1.0240 C   0  0  0  0  0  0  0  0  0  0  0  0
   -7.0690   -0.6860   -0.6640 O   0  0  0  0  0  0  0  0  0  0  0  0
   -6.5840   -0.6010    0.6130 C   0  0  0  0  0  0  0  0  0  0  0  0
   -7.4030   -0.4810    1.5540 O   0  0  0  0  0  0  0  0  0  0  0  0
   -5.1520   -0.6460    0.8910 C   0  0  1  0  0  0  0  0  0  0  0  0
   -4.5250   -1.9630    0.4080 C   0  0  0  0  0  0  0  0  0  0  0  0
   -3.5770   -1.7590   -0.7450 C   0  0  0  0  0  0  0  0  0  0  0  0
   -2.4110   -0.8200   -0.4020 C   0  0  0  0  0  0  0  0  0  0  0  0
   -2.8870    0.1130    0.6570 C   0  0  2  0  0  0  0  0  0  0  0  0
   -2.8950   -0.6040    1.8690 O   0  0  0  0  0  0  0  0  0  0  0  0
   -4.3470    0.4270    0.2620 C   0  0  2  0  0  0  0  0  0  0  0  0
   -4.4950    1.7810    0.7640 C   0  0  0  0  0  0  0  0  0  0  0  0
   -5.3970    2.4090    1.3640 O   0  0  0  0  0  0  0  0  0  0  0  0
   -3.2650    2.3870    0.4150 O   0  0  0  0  0  0  0  0  0  0  0  0
   -2.2450    1.4280    0.7770 C   0  0  1  0  0  0  0  0  0  0  0  0
   -2.0330    1.6960    2.2870 C   0  0  0  0  0  0  0  0  0  0  0  0
   -1.0320    1.6700    0.0710 N   0  0  0  0  0  0  0  0  0  0  0  0
    0.2010    1.0140    0.3050 C   0  0  0  0  0  0  0  0  0  0  0  0
    0.2330    0.1430    1.1930 O   0  0  0  0  0  0  0  0  0  0  0  0
    1.4580    1.3590   -0.5000 C   0  0  2  0  0  0  0  0  0  0  0  0
    1.2280    1.0690   -1.9130 C   0  0  0  0  0  0  0  0  0  0  0  0
    2.0040    1.6310   -2.9510 N   0  0  0  0  0  0  0  0  0  0  0  0
    0.3080    0.2910   -2.2460 O   0  0  0  0  0  0  0  0  0  0  0  0
    2.5540    0.5820    0.1560 C   0  0  1  0  0  0  0  0  0  0  0  0
    2.2840   -0.7760    0.0820 O   0  0  0  0  0  0  0  0  0  0  0  0
    3.9630    0.9550   -0.1300 C   0  0  1  0  0  0  0  0  0  0  0  0
    4.7700    0.2830    0.9190 N   0  0  0  0  0  0  0  0  0  0  0  0
    6.0800   -0.1370    0.3920 C   0  0  0  0  0  0  0  0  0  0  0  0
    6.0190   -1.5760   -0.0140 C   0  0  0  0  0  0  0  0  0  0  0  0
    7.2220   -2.1840   -0.6150 C   0  0  0  0  0  0  0  0  0  0  0  0
    8.3670   -2.3180    0.0230 O   0  0  0  0  0  0  0  0  0  0  0  0
    9.1090   -1.3240    0.5110 C   0  0  0  0  0  0  0  0  0  0  0  0
    4.3940    0.3950   -1.3400 O   0  0  0  0  0  0  0  0  0  0  0  0
    5.0600    1.1010   -2.3470 C   0  0  0  0  0  0  0  0  0  0  0  0
    5.2810    2.3160   -2.1450 O   0  0  0  0  0  0  0  0  0  0  0  0
    5.4320    0.4260   -3.4920 O   0  0  0  0  0  0  0  0  0  0  0  0
  1  2  1  0
  2  3  1  0
  3  4  1  0
  4  5  2  0
  6  4  1  6
  6  7  1  0
  6 12  1  0
  7  8  1  0
  8  9  1  0
  9 10  1  0
 10 11  1  1
 10 12  1  0
 10 16  1  0
 12 13  1  1
 13 14  2  0
 13 15  1  0
 15 16  1  0
 16 17  1  1
 16 18  1  0
 18 19  1  0
 19 20  2  0
 21 19  1  1
 21 22  1  0
 21 25  1  0
 22 23  1  0
 22 24  2  0
 25 26  1  6
 25 27  1  0
 27 28  1  1
 27 34  1  0
 28 29  1  0
 29 30  1  0
 30 31  1  0
 31 32  1  0
 32 33  1  0
 34 35  1  0
 35 36  2  0
 35 37  1  0
M  CHG  2  28   1  37  -1
M  END
