
     RDKit          3D

 38 40  0  0  0  0  0  0  0  0999 V2000
   -0.3940    7.1520    0.7360 C   0  0  0  0  0  0  0  0  0  0  0  0
    1.0070    7.0350    0.2410 C   0  0  0  0  0  0  0  0  0  0  0  0
    1.3450    5.6660    0.0240 O   0  0  0  0  0  0  0  0  0  0  0  0
    0.7000    4.8400   -0.8460 C   0  0  0  0  0  0  0  0  0  0  0  0
   -0.2640    5.2790   -1.5150 O   0  0  0  0  0  0  0  0  0  0  0  0
    1.0970    3.4110   -1.0430 C   0  0  2  0  0  0  0  0  0  0  0  0
    0.1970    2.8290   -2.1010 C   0  0  0  0  0  0  0  0  0  0  0  0
   -0.6210    1.7600   -1.4470 C   0  0  0  0  0  0  0  0  0  0  0  0
   -0.3390    1.8680   -0.0600 N   0  0  0  0  0  0  0  0  0  0  0  0
   -1.1620    1.3280    0.9540 C   0  0  0  0  0  0  0  0  0  0  0  0
   -0.8500    1.4470    2.1520 O   0  0  0  0  0  0  0  0  0  0  0  0
   -2.4160    0.6110    0.6020 C   0  0  0  0  0  0  0  0  0  0  0  0
   -2.9560   -0.1700    1.7710 C   0  0  0  0  0  0  0  0  0  0  0  0
   -4.1080   -0.8680    1.5920 O   0  0  0  0  0  0  0  0  0  0  0  0
   -4.5450   -1.8710    0.8330 C   0  0  0  0  0  0  0  0  0  0  0  0
   -3.7530   -2.5120   -0.0840 C   0  0  0  0  0  0  0  0  0  0  0  0
   -4.2300   -3.5570   -0.8710 C   0  0  0  0  0  0  0  0  0  0  0  0
   -5.5240   -3.9880   -0.7540 C   0  0  0  0  0  0  0  0  0  0  0  0
   -6.3460   -3.3610    0.1660 C   0  0  0  0  0  0  0  0  0  0  0  0
   -5.8670   -2.3310    0.9360 C   0  0  0  0  0  0  0  0  0  0  0  0
   -6.7410   -1.7440    1.8430 O   0  0  0  0  0  0  0  0  0  0  0  0
   -8.0770   -2.1880    1.9790 C   0  0  0  0  0  0  0  0  0  0  0  0
    0.8750    2.5680    0.1480 C   0  0  1  0  0  0  0  0  0  0  0  0
    2.0270    1.6850    0.5700 C   0  0  1  0  0  0  0  0  0  0  0  0
    3.2080    2.5860    0.8530 C   0  0  0  0  0  0  0  0  0  0  0  0
    1.7240    1.0470    1.7840 O   0  0  0  0  0  0  0  0  0  0  0  0
    2.4570    0.7120   -0.4530 C   0  0  0  0  0  0  0  0  0  0  0  0
    2.7560    1.1330   -1.5890 O   0  0  0  0  0  0  0  0  0  0  0  0
    2.5520   -0.6810   -0.2200 N   0  0  0  0  0  0  0  0  0  0  0  0
    2.9630   -1.6640   -1.1880 C   0  0  0  0  0  0  0  0  0  0  0  0
    2.9680   -3.0630   -0.6200 C   0  0  2  0  0  0  0  0  0  0  0  0
    1.5140   -3.3940   -0.2500 C   0  0  0  0  0  0  0  0  0  0  0  0
    3.8400   -3.1750    0.6060 C   0  0  0  0  0  0  0  0  0  0  0  0
    5.3040   -3.2660    0.2450 C   0  0  0  0  0  0  0  0  0  0  0  0
    5.5510   -4.1510   -0.8920 C   0  0  0  0  0  0  0  0  0  0  0  0
    4.6170   -4.4640   -1.7630 C   0  0  0  0  0  0  0  0  0  0  0  0
    4.9780   -5.5650   -3.1510 S   0  0  0  0  0  0  0  0  0  0  0  0
    3.3540   -3.9520   -1.6200 O   0  0  0  0  0  0  0  0  0  0  0  0
  1  2  1  0
  2  3  1  0
  3  4  1  0
  4  5  2  0
  6  4  1  1
  6  7  1  0
  6 23  1  0
  7  8  1  0
  8  9  1  0
  9 10  1  0
 23  9  1  6
 10 11  2  0
 10 12  1  0
 12 13  1  0
 13 14  1  0
 14 15  1  0
 15 16  2  0
 15 20  1  0
 16 17  1  0
 17 18  2  0
 18 19  1  0
 19 20  2  0
 20 21  1  0
 21 22  1  0
 23 24  1  0
 24 25  1  1
 24 26  1  0
 24 27  1  0
 27 28  2  0
 27 29  1  0
 29 30  1  0
 30 31  1  0
 31 32  1  1
 31 33  1  0
 31 38  1  0
 33 34  1  0
 34 35  1  0
 35 36  2  0
 36 37  1  0
 36 38  1  0
M  END
