
     RDKit          3D

 38 40  0  0  0  0  0  0  0  0999 V2000
    0.3140    7.5650   -0.7350 C   0  0  0  0  0  0  0  0  0  0  0  0
    0.7520    6.1600   -0.6110 C   0  0  0  0  0  0  0  0  0  0  0  0
    0.3340    5.3320   -1.3830 O   0  0  0  0  0  0  0  0  0  0  0  0
    1.6930    5.7830    0.4530 C   0  0  0  0  0  0  0  0  0  0  0  0
    2.0300    4.4330    0.4690 O   0  0  0  0  0  0  0  0  0  0  0  0
    1.0730    3.3890    0.6400 C   0  0  0  0  0  0  0  0  0  0  0  0
   -0.0690    3.8420    0.7700 O   0  0  0  0  0  0  0  0  0  0  0  0
    1.5600    2.0340    0.6380 C   0  0  0  0  0  0  0  0  0  0  0  0
    0.6950    1.0290    0.7940 C   0  0  0  0  0  0  0  0  0  0  0  0
   -0.6690    1.5530    0.9290 C   0  0  0  0  0  0  0  0  0  0  0  0
   -1.7190    0.4740    0.8520 N   0  0  0  0  0  0  0  0  0  0  0  0
   -2.9460    0.8610    0.3560 C   0  0  0  0  0  0  0  0  0  0  0  0
   -2.9500    2.2240    0.2710 O   0  0  0  0  0  0  0  0  0  0  0  0
   -4.1750    0.2780   -0.0780 C   0  0  0  0  0  0  0  0  0  0  0  0
   -4.7390   -0.8540   -0.3160 C   0  0  0  0  0  0  0  0  0  0  0  0
   -4.0860   -2.2160   -0.1790 C   0  0  1  0  0  0  0  0  0  0  0  0
   -4.7760   -2.9800    0.8940 C   0  0  0  0  0  0  0  0  0  0  0  0
   -4.2680   -2.9420   -1.5440 C   0  0  0  0  0  0  0  0  0  0  0  0
   -6.0440   -0.8660   -0.7340 O   0  0  0  0  0  0  0  0  0  0  0  0
   -6.8370    0.2130   -0.3160 C   0  0  1  0  0  0  0  0  0  0  0  0
   -7.2710    0.0790    1.1240 C   0  0  0  0  0  0  0  0  0  0  0  0
   -8.0090   -1.0780    1.2800 O   0  0  0  0  0  0  0  0  0  0  0  0
   -5.5530    1.4810   -0.4970 S   0  0  0  0  0  0  0  0  0  0  0  0
   -1.2920   -0.7490    1.3960 C   0  0  0  0  0  0  0  0  0  0  0  0
   -0.1190   -1.3020    0.5940 C   0  0  1  0  0  0  0  0  0  0  0  0
   -0.3970   -1.3830   -0.8800 C   0  0  0  0  0  0  0  0  0  0  0  0
    1.0430   -0.4350    0.8930 C   0  0  1  0  0  0  0  0  0  0  0  0
    2.2460   -0.7590    0.1110 N   0  0  0  0  0  0  0  0  0  0  0  0
    2.8840   -1.9150    0.5380 C   0  0  0  0  0  0  0  0  0  0  0  0
    2.2800   -2.6000    1.5080 O   0  0  0  0  0  0  0  0  0  0  0  0
    4.1060   -2.5370    0.1300 C   0  0  0  0  0  0  0  0  0  0  0  0
    5.0060   -2.1870   -0.7450 C   0  0  0  0  0  0  0  0  0  0  0  0
    6.2080   -3.0480   -0.9730 C   0  0  1  0  0  0  0  0  0  0  0  0
    7.4260   -2.1950   -0.6120 C   0  0  0  0  0  0  0  0  0  0  0  0
    6.2100   -4.2710   -0.1070 C   0  0  0  0  0  0  0  0  0  0  0  0
    2.7030    0.0410   -0.9860 C   0  0  0  0  0  0  0  0  0  0  0  0
    3.6780    1.0850   -0.4700 C   0  0  0  0  0  0  0  0  0  0  0  0
    2.9480    1.8900    0.4640 O   0  0  0  0  0  0  0  0  0  0  0  0
  1  2  1  0
  2  3  2  0
  2  4  1  0
  4  5  1  0
  5  6  1  0
  6  7  2  0
  6  8  1  0
  8  9  2  0
  8 38  1  0
  9 10  1  0
  9 27  1  0
 10 11  1  0
 11 12  1  0
 11 24  1  0
 12 13  2  0
 12 14  1  0
 14 15  2  0
 14 23  1  0
 15 16  1  0
 15 19  1  0
 16 17  1  1
 16 18  1  0
 19 20  1  0
 20 21  1  1
 20 23  1  0
 21 22  1  0
 24 25  1  0
 25 26  1  6
 25 27  1  0
 27 28  1  6
 28 29  1  0
 28 36  1  0
 29 30  2  0
 29 31  1  0
 31 32  2  3
 32 33  1  0
 33 34  1  1
 33 35  1  0
 36 37  1  0
 37 38  1  0
M  END
