
     RDKit          3D

 37 39  0  0  0  0  0  0  0  0999 V2000
   -8.1580    0.3620   -0.9750 C   0  0  0  0  0  0  0  0  0  0  0  0
   -8.0490   -0.3370    0.3520 C   0  0  1  0  0  0  0  0  0  0  0  0
   -8.4510    0.5410    1.3550 O   0  0  0  0  0  0  0  0  0  0  0  0
   -8.9790   -1.5540    0.3240 C   0  0  0  0  0  0  0  0  0  0  0  0
  -10.2620   -1.0700    0.0710 O   0  0  0  0  0  0  0  0  0  0  0  0
   -6.6250   -0.7970    0.6210 C   0  0  2  0  0  0  0  0  0  0  0  0
   -6.5090   -1.4380    1.8280 O   0  0  0  0  0  0  0  0  0  0  0  0
   -5.6180   -0.7380    2.6030 C   0  0  0  0  0  0  0  0  0  0  0  0
   -5.5980    0.6150    1.9190 C   0  0  1  0  0  0  0  0  0  0  0  0
   -4.3410    1.3730    2.2100 C   0  0  0  0  0  0  0  0  0  0  0  0
   -3.1710    0.7490    1.8970 O   0  0  0  0  0  0  0  0  0  0  0  0
   -2.9560    0.4270    0.5860 C   0  0  0  0  0  0  0  0  0  0  0  0
   -2.9330    1.6190   -0.3550 C   0  0  2  0  0  0  0  0  0  0  0  0
   -2.7150    1.1040   -1.6220 O   0  0  0  0  0  0  0  0  0  0  0  0
   -1.9120    2.6300    0.0620 C   0  0  0  0  0  0  0  0  0  0  0  0
   -0.6050    2.1640    0.1250 O   0  0  0  0  0  0  0  0  0  0  0  0
    0.1730    1.6830   -0.8790 C   0  0  0  0  0  0  0  0  0  0  0  0
   -0.2670    1.6260   -2.0380 O   0  0  0  0  0  0  0  0  0  0  0  0
    1.5210    1.2200   -0.6750 N   0  0  0  0  0  0  0  0  0  0  0  0
    2.2730    0.7280   -1.7740 C   0  0  0  0  0  0  0  0  0  0  0  0
    3.5650    0.2780   -1.6070 C   0  0  0  0  0  0  0  0  0  0  0  0
    4.3180   -0.2060   -2.6630 C   0  0  0  0  0  0  0  0  0  0  0  0
    5.6800   -0.6840   -2.4960 C   0  0  0  0  0  0  0  0  0  0  0  0
    6.3420   -1.1170   -3.4650 O   0  0  0  0  0  0  0  0  0  0  0  0
    6.2790   -0.6690   -1.2510 O   0  0  0  0  0  0  0  0  0  0  0  0
    7.5820   -1.1100   -1.0090 C   0  0  1  0  0  0  0  0  0  0  0  0
    8.4900   -0.0460   -0.4580 C   0  0  0  0  0  0  0  0  0  0  0  0
    9.3740   -0.7540    0.5650 C   0  0  1  0  0  0  0  0  0  0  0  0
    9.8470    0.1500    1.5690 N   0  0  0  0  0  0  0  0  0  0  0  0
    9.0390    0.2110    2.6550 O   0  0  0  0  0  0  0  0  0  0  0  0
    8.5080   -1.8680    1.1040 C   0  0  0  0  0  0  0  0  0  0  0  0
    7.6420   -2.2850   -0.0640 C   0  0  1  0  0  0  0  0  0  0  0  0
    6.3710   -2.6730    0.3630 O   0  0  0  0  0  0  0  0  0  0  0  0
    3.7030   -0.2140   -3.8980 C   0  0  0  0  0  0  0  0  0  0  0  0
    2.3950    0.2420   -4.0690 C   0  0  0  0  0  0  0  0  0  0  0  0
    1.7110    0.7040   -2.9930 N   0  0  0  0  0  0  0  0  0  0  0  0
   -5.7770    0.2930    0.5940 O   0  0  0  0  0  0  0  0  0  0  0  0
  2  1  1  6
  2  3  1  0
  2  4  1  0
  2  6  1  0
  4  5  1  0
  6  7  1  1
  6 37  1  0
  7  8  1  0
  8  9  1  0
  9 10  1  6
  9 37  1  0
 10 11  1  0
 11 12  1  0
 12 13  1  0
 13 14  1  6
 13 15  1  0
 15 16  1  0
 16 17  1  0
 17 18  2  0
 17 19  1  0
 19 20  1  0
 20 21  2  0
 20 36  1  0
 21 22  1  0
 22 23  1  0
 22 34  2  0
 23 24  2  0
 23 25  1  0
 26 25  1  1
 26 27  1  0
 26 32  1  0
 27 28  1  0
 28 29  1  1
 28 31  1  0
 29 30  1  0
 31 32  1  0
 32 33  1  1
 34 35  1  0
 35 36  2  0
M  CHG  2  29   1  30  -1
M  END
