
     RDKit          3D

 37 38  0  0  0  0  0  0  0  0999 V2000
    9.8640   -0.1750   -1.0540 C   0  0  0  0  0  0  0  0  0  0  0  0
    8.8260   -0.9740   -0.2790 C   0  0  2  0  0  0  0  0  0  0  0  0
    9.0010   -2.4300   -0.4850 C   0  0  0  0  0  0  0  0  0  0  0  0
    8.0280   -3.0940   -0.9140 O   0  0  0  0  0  0  0  0  0  0  0  0
   10.2150   -3.0170   -0.2060 O   0  0  0  0  0  0  0  0  0  0  0  0
    7.4830   -0.5800   -0.6420 N   0  0  0  0  0  0  0  0  0  0  0  0
    7.0390   -0.7630   -2.0120 C   0  0  0  0  0  0  0  0  0  0  0  0
    6.6360   -0.0240    0.3500 C   0  0  0  0  0  0  0  0  0  0  0  0
    7.0890    0.1040    1.5120 O   0  0  0  0  0  0  0  0  0  0  0  0
    5.3420    0.3880    0.1300 O   0  0  0  0  0  0  0  0  0  0  0  0
    4.5070    0.9400    1.1210 C   0  0  1  0  0  0  0  0  0  0  0  0
    4.1360    2.3470    0.7060 C   0  0  0  0  0  0  0  0  0  0  0  0
    3.2580    2.3420   -0.5080 C   0  0  0  0  0  0  0  0  0  0  0  0
    2.7730    1.1040   -0.8560 O   0  0  0  0  0  0  0  0  0  0  0  0
    2.2590    0.3840    0.2220 C   0  0  2  0  0  0  0  0  0  0  0  0
    0.9880    0.9730    0.7520 C   0  0  0  0  0  0  0  0  0  0  0  0
    0.5460    0.2150    1.8210 O   0  0  0  0  0  0  0  0  0  0  0  0
    0.2870   -1.1050    1.5550 C   0  0  0  0  0  0  0  0  0  0  0  0
   -0.7840   -1.1970    0.4930 C   0  0  0  0  0  0  0  0  0  0  0  0
   -1.9400   -0.5400    1.0230 O   0  0  0  0  0  0  0  0  0  0  0  0
   -3.1210   -0.4310    0.3230 C   0  0  0  0  0  0  0  0  0  0  0  0
   -3.1420   -0.9490   -0.8380 O   0  0  0  0  0  0  0  0  0  0  0  0
   -4.2770    0.2190    0.8380 N   0  0  0  0  0  0  0  0  0  0  0  0
   -5.4680    0.2790    0.0220 C   0  0  2  0  0  0  0  0  0  0  0  0
   -5.8660    1.7290   -0.2510 C   0  0  0  0  0  0  0  0  0  0  0  0
   -7.1530    1.6960   -1.0030 C   0  0  0  0  0  0  0  0  0  0  0  0
   -7.6220    2.8090   -1.3630 O   0  0  0  0  0  0  0  0  0  0  0  0
   -7.8340    0.4480   -1.3060 C   0  0  0  0  0  0  0  0  0  0  0  0
   -8.6860    0.4020   -2.3080 C   0  0  0  0  0  0  0  0  0  0  0  0
   -9.3650   -0.7820   -2.6350 O   0  0  0  0  0  0  0  0  0  0  0  0
   -7.6000   -0.7860   -0.5160 C   0  0  2  0  0  0  0  0  0  0  0  0
   -8.8340   -1.3640   -0.0390 N   0  0  0  0  0  0  0  0  0  0  0  0
   -6.6610   -0.4060    0.6330 C   0  0  2  0  0  0  0  0  0  0  0  0
   -7.3520    0.4850    1.4400 O   0  0  0  0  0  0  0  0  0  0  0  0
   -6.2600   -1.6420    1.4130 C   0  0  0  0  0  0  0  0  0  0  0  0
   -5.3940   -1.2490    2.4280 O   0  0  0  0  0  0  0  0  0  0  0  0
    3.2330    0.1710    1.3340 C   0  0  0  0  0  0  0  0  0  0  0  0
  2  1  1  6
  2  3  1  0
  2  6  1  0
  3  4  2  0
  3  5  1  0
  6  7  1  0
  6  8  1  0
  8  9  2  0
  8 10  1  0
 11 10  1  6
 11 12  1  0
 11 37  1  0
 12 13  1  0
 13 14  1  0
 14 15  1  0
 15 16  1  1
 15 37  1  0
 16 17  1  0
 17 18  1  0
 18 19  1  0
 19 20  1  0
 20 21  1  0
 21 22  2  0
 21 23  1  0
 24 23  1  1
 24 25  1  0
 24 33  1  0
 25 26  1  0
 26 27  2  0
 26 28  1  0
 28 29  2  3
 28 31  1  0
 29 30  1  0
 31 32  1  1
 31 33  1  0
 33 34  1  1
 33 35  1  0
 35 36  1  0
M  CHG  2  32   1  36  -1
M  END
