
     RDKit          3D

 38 40  0  0  0  0  0  0  0  0999 V2000
    5.2880   -2.4520    1.1090 N   0  0  0  0  0  0  0  0  0  0  0  0
    5.1950   -1.1090    0.5960 C   0  0  1  0  0  0  0  0  0  0  0  0
    6.4250   -0.2850    0.8750 C   0  0  0  0  0  0  0  0  0  0  0  0
    6.8880    0.1620   -0.5030 C   0  0  0  0  0  0  0  0  0  0  0  0
    6.3610   -0.7910   -1.3910 O   0  0  0  0  0  0  0  0  0  0  0  0
    5.0860   -1.0580   -0.8950 C   0  0  2  0  0  0  0  0  0  0  0  0
    4.1090   -0.0320   -1.3310 C   0  0  0  0  0  0  0  0  0  0  0  0
    4.4950    0.9070   -2.0500 O   0  0  0  0  0  0  0  0  0  0  0  0
    2.7790   -0.0710   -0.9720 O   0  0  0  0  0  0  0  0  0  0  0  0
    1.8060    0.8820   -1.3620 C   0  0  2  0  0  0  0  0  0  0  0  0
    1.2920    1.6640   -0.1790 C   0  0  0  0  0  0  0  0  0  0  0  0
    0.7090    0.9950    0.8270 O   0  0  0  0  0  0  0  0  0  0  0  0
   -0.0340    1.0040    1.9320 C   0  0  0  0  0  0  0  0  0  0  0  0
   -0.0740    1.9390    2.8510 O   0  0  0  0  0  0  0  0  0  0  0  0
   -0.9720   -0.0700    2.3310 C   0  0  0  0  0  0  0  0  0  0  0  0
   -1.0820   -0.4280    3.6770 C   0  0  0  0  0  0  0  0  0  0  0  0
   -1.8810   -1.3740    4.1640 N   0  0  0  0  0  0  0  0  0  0  0  0
   -1.8890   -1.6260    5.5350 O   0  0  0  0  0  0  0  0  0  0  0  0
   -2.6710   -2.0730    3.3330 C   0  0  0  0  0  0  0  0  0  0  0  0
   -2.6320   -1.7920    1.9870 C   0  0  0  0  0  0  0  0  0  0  0  0
   -1.7870   -0.7920    1.4730 C   0  0  0  0  0  0  0  0  0  0  0  0
   -1.8270   -0.6310    0.0080 C   0  0  1  0  0  0  0  0  0  0  0  0
   -1.9660   -1.8980   -0.6390 O   0  0  0  0  0  0  0  0  0  0  0  0
   -2.7280    0.3080   -0.6360 C   0  0  1  0  0  0  0  0  0  0  0  0
   -3.2510   -0.1740   -2.0010 C   0  0  0  0  0  0  0  0  0  0  0  0
   -4.0290   -1.3820   -2.0040 C   0  0  0  0  0  0  0  0  0  0  0  0
   -4.4390   -2.1010   -1.0730 O   0  0  0  0  0  0  0  0  0  0  0  0
   -4.4110   -1.8600   -3.2860 O   0  0  0  0  0  0  0  0  0  0  0  0
   -3.9840    0.6400    0.1180 C   0  0  2  0  0  0  0  0  0  0  0  0
   -4.7480    1.5540   -0.7030 O   0  0  0  0  0  0  0  0  0  0  0  0
   -3.8670    1.3710    1.4020 C   0  0  0  0  0  0  0  0  0  0  0  0
   -3.2040    2.5990    1.3260 O   0  0  0  0  0  0  0  0  0  0  0  0
   -2.0860    1.6410   -1.0230 C   0  0  0  0  0  0  0  0  0  0  0  0
   -1.3350    1.6590   -2.2820 C   0  0  0  0  0  0  0  0  0  0  0  0
   -1.6730    2.6420   -3.0770 O   0  0  0  0  0  0  0  0  0  0  0  0
   -0.3450    0.8500   -2.7980 N   0  0  0  0  0  0  0  0  0  0  0  0
    0.8490    0.3020   -2.2670 C   0  0  0  0  0  0  0  0  0  0  0  0
    1.0960   -0.9040   -2.6670 O   0  0  0  0  0  0  0  0  0  0  0  0
  2  1  1  6
  2  3  1  0
  2  6  1  0
  3  4  1  0
  4  5  1  0
  5  6  1  0
  6  7  1  1
  7  8  2  0
  7  9  1  0
 10  9  1  1
 10 11  1  0
 10 37  1  0
 11 12  1  0
 12 13  1  0
 13 14  2  0
 13 15  1  0
 15 16  2  0
 15 21  1  0
 16 17  1  0
 17 18  1  0
 17 19  2  0
 19 20  1  0
 20 21  2  0
 21 22  1  0
 22 23  1  6
 22 24  1  0
 24 25  1  6
 24 29  1  0
 24 33  1  0
 25 26  1  0
 26 27  2  0
 26 28  1  0
 29 30  1  6
 29 31  1  0
 31 32  1  0
 33 34  1  0
 34 35  2  0
 34 36  1  0
 36 37  1  0
 37 38  2  0
M  CHG  2  17   1  18  -1
M  END
