
     RDKit          3D

 38 40  0  0  0  0  0  0  0  0999 V2000
   -7.9300   -3.6820    3.2920 C   0  0  0  0  0  0  0  0  0  0  0  0
   -7.1410   -2.4930    2.9180 C   0  0  0  0  0  0  0  0  0  0  0  0
   -6.6770   -2.3070    1.7000 C   0  0  0  0  0  0  0  0  0  0  0  0
   -6.8530   -3.2090    0.5480 C   0  0  0  0  0  0  0  0  0  0  0  0
   -6.1360   -2.5130   -0.5340 C   0  0  0  0  0  0  0  0  0  0  0  0
   -5.6070   -1.3540   -0.0870 C   0  0  0  0  0  0  0  0  0  0  0  0
   -4.8270   -0.4220   -0.9260 C   0  0  1  0  0  0  0  0  0  0  0  0
   -5.3600    0.9820   -0.8550 C   0  0  0  0  0  0  0  0  0  0  0  0
   -3.4020   -0.4570   -0.5530 N   0  0  0  0  0  0  0  0  0  0  0  0
   -3.0120   -0.0670    0.7600 C   0  0  0  0  0  0  0  0  0  0  0  0
   -2.6480    1.3470    0.8840 C   0  0  0  0  0  0  0  0  0  0  0  0
   -2.2510    1.9740    2.0390 C   0  0  0  0  0  0  0  0  0  0  0  0
   -2.0090    3.2940    1.7020 C   0  0  0  0  0  0  0  0  0  0  0  0
   -2.2740    3.3980    0.3540 C   0  0  0  0  0  0  0  0  0  0  0  0
   -2.1570    4.6050   -0.4400 C   0  0  0  0  0  0  0  0  0  0  0  0
   -2.4260    4.5850   -1.6730 O   0  0  0  0  0  0  0  0  0  0  0  0
   -1.7540    5.8210    0.0850 O   0  0  0  0  0  0  0  0  0  0  0  0
   -2.6450    2.2280   -0.0760 O   0  0  0  0  0  0  0  0  0  0  0  0
   -2.5050   -0.9070   -1.5270 C   0  0  0  0  0  0  0  0  0  0  0  0
   -3.0650   -1.3230   -2.6560 O   0  0  0  0  0  0  0  0  0  0  0  0
   -1.0750   -1.0120   -1.5610 C   0  0  0  0  0  0  0  0  0  0  0  0
   -0.1860   -0.6950   -0.6970 C   0  0  0  0  0  0  0  0  0  0  0  0
    1.2720   -0.8840   -0.9190 C   0  0  0  0  0  0  0  0  0  0  0  0
    1.7450   -1.4020   -2.1870 C   0  0  0  0  0  0  0  0  0  0  0  0
    2.0500   -0.5230    0.0640 C   0  0  0  0  0  0  0  0  0  0  0  0
    3.4640   -0.5550    0.2220 C   0  0  0  0  0  0  0  0  0  0  0  0
    3.8960   -0.0750    1.3550 O   0  0  0  0  0  0  0  0  0  0  0  0
    4.5000   -1.0030   -0.5990 N   0  0  0  0  0  0  0  0  0  0  0  0
    5.9100   -0.9930   -0.4170 C   0  0  0  0  0  0  0  0  0  0  0  0
    6.6140    0.2910   -0.3540 C   0  0  2  0  0  0  0  0  0  0  0  0
    6.3480    1.1060   -1.6460 C   0  0  0  0  0  0  0  0  0  0  0  0
    8.1420    0.0680   -0.4390 C   0  0  0  0  0  0  0  0  0  0  0  0
    8.8510    0.9270    0.5080 C   0  0  0  0  0  0  0  0  0  0  0  0
    8.0780    2.1950    0.7880 C   0  0  0  0  0  0  0  0  0  0  0  0
    6.4410    1.3660    1.0000 S   0  0  1  0  0  0  0  0  0  0  0  0
    5.3910    2.4220    0.8590 O   0  0  0  0  0  0  0  0  0  0  0  0
    6.5220    0.7410    2.3450 O   0  0  0  0  0  0  0  0  0  0  0  0
   -5.9350   -1.2440    1.2430 O   0  0  0  0  0  0  0  0  0  0  0  0
  1  2  1  0
  2  3  2  3
  3  4  1  0
  3 38  1  0
  4  5  1  0
  5  6  2  0
  6  7  1  0
  6 38  1  0
  7  8  1  1
  7  9  1  0
  9 10  1  0
  9 19  1  0
 10 11  1  0
 11 12  2  0
 11 18  1  0
 12 13  1  0
 13 14  2  0
 14 15  1  0
 14 18  1  0
 15 16  2  0
 15 17  1  0
 19 20  2  0
 19 21  1  0
 21 22  2  3
 22 23  1  0
 23 24  1  0
 23 25  2  3
 25 26  1  0
 26 27  2  0
 26 28  1  0
 28 29  1  0
 29 30  1  0
 30 31  1  6
 30 32  1  0
 30 35  1  0
 32 33  1  0
 33 34  1  0
 35 34  1  1
 35 36  2  0
 35 37  2  0
M  END
