
     RDKit          3D

 19 19  0  0  0  0  0  0  0  0999 V2000
    1.0800   -1.8630    0.6440 O   0  0  0  0  0  0  0  0  0  0  0  0
    1.4280   -0.8260    0.0240 C   0  0  0  0  0  0  0  0  0  0  0  0
    0.4490   -0.0630   -0.5710 O   0  0  0  0  0  0  0  0  0  0  0  0
   -0.9270   -0.3870   -0.5240 C   0  0  1  0  0  0  0  0  0  0  0  0
   -1.2070   -1.7410   -1.1810 C   0  0  0  0  0  0  0  0  0  0  0  0
   -0.7590   -1.5860   -2.5140 O   0  0  0  0  0  0  0  0  0  0  0  0
   -1.4210   -0.4930    0.9010 C   0  0  0  0  0  0  0  0  0  0  0  0
   -2.9220   -0.3730    0.8960 C   0  0  1  0  0  0  0  0  0  0  0  0
   -3.4970   -0.9070    2.0420 O   0  0  0  0  0  0  0  0  0  0  0  0
   -3.2510    1.1070    0.7510 C   0  0  0  0  0  0  0  0  0  0  0  0
   -2.5330    1.5500   -0.4530 N   0  0  0  0  0  0  0  0  0  0  0  0
   -1.7400    0.6480   -1.2050 C   0  0  0  0  0  0  0  0  0  0  0  0
   -1.7400    0.7430   -2.4440 O   0  0  0  0  0  0  0  0  0  0  0  0
    2.8870   -0.4360   -0.0610 C   0  0  2  0  0  0  0  0  0  0  0  0
    3.6130   -1.3910    0.6280 O   0  0  0  0  0  0  0  0  0  0  0  0
    3.1110    0.9220    0.4710 C   0  0  0  0  0  0  0  0  0  0  0  0
    2.4540    1.9990   -0.1250 O   0  0  0  0  0  0  0  0  0  0  0  0
    3.9240    1.0780    1.4930 C   0  0  0  0  0  0  0  0  0  0  0  0
    4.1130    2.3740    1.9720 O   0  0  0  0  0  0  0  0  0  0  0  0
  1  2  2  0
  2  3  1  0
  2 14  1  0
  3  4  1  0
  4  5  1  6
  4  7  1  0
  4 12  1  0
  5  6  1  0
  7  8  1  0
  8  9  1  1
  8 10  1  0
 10 11  1  0
 11 12  1  0
 12 13  2  0
 14 15  1  1
 14 16  1  0
 16 17  1  0
 16 18  2  3
 18 19  1  0
M  END
