
     RDKit          3D

 19 19  0  0  0  0  0  0  0  0999 V2000
   -0.9830    0.7440    1.5570 C   0  0  0  0  0  0  0  0  0  0  0  0
   -1.3740    0.0350    0.2950 C   0  0  2  0  0  0  0  0  0  0  0  0
   -2.3050    0.9060   -0.4760 C   0  0  1  0  0  0  0  0  0  0  0  0
   -3.3390    1.2410    0.4480 O   0  0  0  0  0  0  0  0  0  0  0  0
   -1.7420    2.2440   -0.8860 C   0  0  0  0  0  0  0  0  0  0  0  0
   -2.7860    2.9760   -1.4680 O   0  0  0  0  0  0  0  0  0  0  0  0
   -2.1850   -1.0570    0.7050 O   0  0  0  0  0  0  0  0  0  0  0  0
   -1.5430   -1.8320    1.6580 C   0  0  0  0  0  0  0  0  0  0  0  0
   -0.2130   -2.1140    1.2600 O   0  0  0  0  0  0  0  0  0  0  0  0
   -0.2630   -2.0520   -0.1370 C   0  0  0  0  0  0  0  0  0  0  0  0
   -0.2220   -0.5510   -0.4710 C   0  0  1  0  0  0  0  0  0  0  0  0
   -0.2770   -0.4270   -1.9430 C   0  0  0  0  0  0  0  0  0  0  0  0
    1.1130   -0.0510    0.0240 C   0  0  2  0  0  0  0  0  0  0  0  0
    1.1980    1.3570   -0.1030 O   0  0  0  0  0  0  0  0  0  0  0  0
    2.2780   -0.5870   -0.7750 C   0  0  0  0  0  0  0  0  0  0  0  0
    3.5500   -0.1050   -0.2730 N   0  0  0  0  0  0  0  0  0  0  0  0
    3.9780   -0.3840    1.0460 C   0  0  0  0  0  0  0  0  0  0  0  0
    3.2580   -1.0590    1.8030 O   0  0  0  0  0  0  0  0  0  0  0  0
    5.1820    0.0850    1.4980 O   0  0  0  0  0  0  0  0  0  0  0  0
  2  1  1  1
  2  3  1  0
  2  7  1  0
  2 11  1  0
  3  4  1  1
  3  5  1  0
  5  6  1  0
  7  8  1  0
  8  9  1  0
  9 10  1  0
 10 11  1  0
 11 12  1  6
 11 13  1  0
 13 14  1  6
 13 15  1  0
 15 16  1  0
 16 17  1  0
 17 18  2  0
 17 19  1  0
M  END
