
     RDKit          3D

 19 19  0  0  0  0  0  0  0  0999 V2000
   -4.1210    2.1220    0.1860 N   0  0  0  0  0  0  0  0  0  0  0  0
   -4.1510    0.9190    0.9890 C   0  0  0  0  0  0  0  0  0  0  0  0
   -3.6060   -0.2770    0.2600 C   0  0  2  0  0  0  0  0  0  0  0  0
   -3.6780   -1.3640    1.1040 O   0  0  0  0  0  0  0  0  0  0  0  0
   -2.2780   -0.0660   -0.3660 C   0  0  2  0  0  0  0  0  0  0  0  0
   -2.3280    1.0540   -1.1930 O   0  0  0  0  0  0  0  0  0  0  0  0
   -1.9890   -1.2550   -1.2710 C   0  0  0  0  0  0  0  0  0  0  0  0
   -3.0050   -1.3540   -2.1960 O   0  0  0  0  0  0  0  0  0  0  0  0
   -1.1330    0.0750    0.5790 C   0  0  0  0  0  0  0  0  0  0  0  0
    0.0680    0.1800   -0.1220 O   0  0  0  0  0  0  0  0  0  0  0  0
    1.1460    0.3120    0.7480 C   0  0  0  0  0  0  0  0  0  0  0  0
    2.4160    0.4220   -0.0500 C   0  0  2  0  0  0  0  0  0  0  0  0
    2.3250    1.5450   -0.8750 O   0  0  0  0  0  0  0  0  0  0  0  0
    2.6080   -0.8110   -0.8970 C   0  0  0  0  0  0  0  0  0  0  0  0
    3.1460   -1.9730   -0.1210 C   0  0  0  0  0  0  0  0  0  0  0  0
    4.2110   -1.6440    0.7080 O   0  0  0  0  0  0  0  0  0  0  0  0
    4.6980   -0.3790    0.3970 C   0  0  0  0  0  0  0  0  0  0  0  0
    3.6150    0.6110    0.8440 C   0  0  1  0  0  0  0  0  0  0  0  0
    4.1660    1.8880    0.7430 O   0  0  0  0  0  0  0  0  0  0  0  0
  1  2  1  0
  2  3  1  0
  3  4  1  1
  3  5  1  0
  5  6  1  6
  5  7  1  0
  5  9  1  0
  7  8  1  0
  9 10  1  0
 10 11  1  0
 11 12  1  0
 12 13  1  6
 12 14  1  0
 12 18  1  0
 14 15  1  0
 15 16  1  0
 16 17  1  0
 17 18  1  0
 18 19  1  6
M  END
