
     RDKit          3D

 20 20  0  0  0  0  0  0  0  0999 V2000
    2.6430    1.7230   -0.4500 O   0  0  0  0  0  0  0  0  0  0  0  0
    2.5000    0.4970   -0.6480 C   0  0  0  0  0  0  0  0  0  0  0  0
    1.1950   -0.0760   -0.5690 N   0  0  0  0  0  0  0  0  0  0  0  0
    0.0570    0.7500   -0.2650 C   0  0  0  0  0  0  0  0  0  0  0  0
   -1.2140   -0.0690   -0.2350 C   0  0  1  0  0  0  0  0  0  0  0  0
   -1.3910   -0.6580   -1.4990 O   0  0  0  0  0  0  0  0  0  0  0  0
   -1.1500   -1.1580    0.8140 C   0  0  0  0  0  0  0  0  0  0  0  0
   -2.2170   -2.1800    0.4350 C   0  0  1  0  0  0  0  0  0  0  0  0
   -2.2990   -3.2150    1.3450 O   0  0  0  0  0  0  0  0  0  0  0  0
   -3.5040   -1.4630    0.2040 C   0  0  0  0  0  0  0  0  0  0  0  0
   -3.5090   -0.0440    0.7260 C   0  0  0  0  0  0  0  0  0  0  0  0
   -2.4210    0.7760    0.0390 C   0  0  2  0  0  0  0  0  0  0  0  0
   -2.9660    1.2090   -1.1890 O   0  0  0  0  0  0  0  0  0  0  0  0
   -2.1390    1.9450    0.8830 C   0  0  0  0  0  0  0  0  0  0  0  0
   -1.6500    1.8170    2.0250 O   0  0  0  0  0  0  0  0  0  0  0  0
   -2.4150    3.2390    0.4200 O   0  0  0  0  0  0  0  0  0  0  0  0
    3.6100   -0.2600   -0.9350 O   0  0  0  0  0  0  0  0  0  0  0  0
    4.9320    0.2260   -1.0300 C   0  0  0  0  0  0  0  0  0  0  0  0
    5.3890    0.8480    0.2700 C   0  0  0  0  0  0  0  0  0  0  0  0
    5.3350   -0.1250    1.2730 O   0  0  0  0  0  0  0  0  0  0  0  0
  1  2  2  0
  2  3  1  0
  2 17  1  0
  3  4  1  0
  4  5  1  0
  5  6  1  6
  5  7  1  0
  5 12  1  0
  7  8  1  0
  8  9  1  1
  8 10  1  0
 10 11  1  0
 11 12  1  0
 12 13  1  6
 12 14  1  0
 14 15  2  0
 14 16  1  0
 17 18  1  0
 18 19  1  0
 19 20  1  0
M  END
