
     RDKit          3D

 20 20  0  0  0  0  0  0  0  0999 V2000
    0.3120    4.3070   -0.9660 C   0  0  0  0  0  0  0  0  0  0  0  0
    0.1760    2.9030   -1.0840 O   0  0  0  0  0  0  0  0  0  0  0  0
    0.1180    2.1190    0.0580 C   0  0  0  0  0  0  0  0  0  0  0  0
    0.1900    2.7020    1.1660 O   0  0  0  0  0  0  0  0  0  0  0  0
   -0.0240    0.6530   -0.1230 C   0  0  2  0  0  0  0  0  0  0  0  0
    1.2340    0.2270   -0.8380 C   0  0  0  0  0  0  0  0  0  0  0  0
    1.5110    0.7360   -1.9460 O   0  0  0  0  0  0  0  0  0  0  0  0
    2.1130   -0.7390   -0.2840 N   0  0  0  0  0  0  0  0  0  0  0  0
    3.3260   -1.1190   -1.0200 C   0  0  0  0  0  0  0  0  0  0  0  0
    4.0870   -2.1620   -0.2140 C   0  0  0  0  0  0  0  0  0  0  0  0
    5.2330   -2.5170   -0.9160 O   0  0  0  0  0  0  0  0  0  0  0  0
   -1.1690    0.3470   -1.0800 C   0  0  0  0  0  0  0  0  0  0  0  0
   -2.4750    0.4600   -0.3640 C   0  0  0  0  0  0  0  0  0  0  0  0
   -2.4530   -0.4710    0.8070 C   0  0  1  0  0  0  0  0  0  0  0  0
   -3.6190   -0.2720    1.5690 O   0  0  0  0  0  0  0  0  0  0  0  0
   -2.4840   -1.8940    0.3270 C   0  0  0  0  0  0  0  0  0  0  0  0
   -2.5110   -2.8120    1.3670 O   0  0  0  0  0  0  0  0  0  0  0  0
   -1.2890   -0.1380    1.6700 C   0  0  2  0  0  0  0  0  0  0  0  0
   -1.5700    1.1010    2.2870 O   0  0  0  0  0  0  0  0  0  0  0  0
   -0.0770   -0.0510    1.0460 O   0  0  0  0  0  0  0  0  0  0  0  0
  1  2  1  0
  2  3  1  0
  3  4  2  0
  5  3  1  1
  5  6  1  0
  5 12  1  0
  5 20  1  0
  6  7  2  0
  6  8  1  0
  8  9  1  0
  9 10  1  0
 10 11  1  0
 12 13  1  0
 13 14  1  0
 14 15  1  1
 14 16  1  0
 14 18  1  0
 16 17  1  0
 18 19  1  6
 18 20  1  0
M  END
