
     RDKit          3D

 20 20  0  0  0  0  0  0  0  0999 V2000
    2.9710   -2.8420   -1.6360 C   0  0  0  0  0  0  0  0  0  0  0  0
    2.0620   -1.6860   -1.6130 C   0  0  0  0  0  0  0  0  0  0  0  0
    1.5360   -1.2520   -2.6600 O   0  0  0  0  0  0  0  0  0  0  0  0
    1.7910   -1.0660   -0.3600 N   0  0  0  0  0  0  0  0  0  0  0  0
    0.9120    0.0770   -0.2230 C   0  0  2  0  0  0  0  0  0  0  0  0
    1.7710    1.2300    0.2870 C   0  0  1  0  0  0  0  0  0  0  0  0
    2.4360    1.7920   -0.8100 O   0  0  0  0  0  0  0  0  0  0  0  0
    0.9450    2.2840    0.9050 C   0  0  0  0  0  0  0  0  0  0  0  0
   -0.2640    2.0960    1.3660 C   0  0  0  0  0  0  0  0  0  0  0  0
   -1.0100    3.2170    1.9670 C   0  0  0  0  0  0  0  0  0  0  0  0
   -2.1590    2.9800    2.3910 O   0  0  0  0  0  0  0  0  0  0  0  0
   -0.4870    4.4740    2.0680 O   0  0  0  0  0  0  0  0  0  0  0  0
   -0.8290    0.8280    1.2810 O   0  0  0  0  0  0  0  0  0  0  0  0
   -0.1270   -0.2860    0.8280 C   0  0  1  0  0  0  0  0  0  0  0  0
   -1.0110   -1.3950    0.4060 C   0  0  2  0  0  0  0  0  0  0  0  0
   -0.2410   -2.5050   -0.0360 O   0  0  0  0  0  0  0  0  0  0  0  0
   -2.0080   -1.0360   -0.6540 C   0  0  2  0  0  0  0  0  0  0  0  0
   -1.4000   -0.6970   -1.8450 O   0  0  0  0  0  0  0  0  0  0  0  0
   -3.0350   -0.0160   -0.2200 C   0  0  0  0  0  0  0  0  0  0  0  0
   -3.5590   -0.4170    0.9870 O   0  0  0  0  0  0  0  0  0  0  0  0
  1  2  1  0
  2  3  2  0
  2  4  1  0
  5  4  1  1
  5  6  1  0
  5 14  1  0
  6  7  1  6
  6  8  1  0
  8  9  2  0
  9 10  1  0
  9 13  1  0
 10 11  2  0
 10 12  1  0
 14 13  1  6
 14 15  1  0
 15 16  1  6
 15 17  1  0
 17 18  1  6
 17 19  1  0
 19 20  1  0
M  END
