
     RDKit          3D

 23 23  0  0  0  0  0  0  0  0999 V2000
   -0.5820    4.1670    0.9650 C   0  0  0  0  0  0  0  0  0  0  0  0
   -0.2850    2.9680    0.1260 C   0  0  0  0  0  0  0  0  0  0  0  0
    0.0240    3.0430   -1.0870 O   0  0  0  0  0  0  0  0  0  0  0  0
   -0.3590    1.7050    0.7370 N   0  0  0  0  0  0  0  0  0  0  0  0
   -0.0860    0.4530    0.0100 C   0  0  2  0  0  0  0  0  0  0  0  0
   -1.4580   -0.1630   -0.1970 C   0  0  1  0  0  0  0  0  0  0  0  0
   -1.4290   -1.1070   -1.2860 N   0  0  0  0  0  0  0  0  0  0  0  0
   -2.4270   -1.3500   -2.0490 C   0  0  0  0  0  0  0  0  0  0  0  0
   -3.6510   -0.6680   -1.8380 N   0  0  0  0  0  0  0  0  0  0  0  0
   -2.3450   -2.2870   -3.1050 N   0  0  0  0  0  0  0  0  0  0  0  0
   -2.0130   -0.7470    1.0410 C   0  0  0  0  0  0  0  0  0  0  0  0
   -1.1590   -1.4160    1.8010 C   0  0  0  0  0  0  0  0  0  0  0  0
   -1.6260   -2.0130    3.0200 C   0  0  0  0  0  0  0  0  0  0  0  0
   -2.8200   -1.9040    3.3640 O   0  0  0  0  0  0  0  0  0  0  0  0
   -0.7580   -2.7150    3.8260 O   0  0  0  0  0  0  0  0  0  0  0  0
    0.1340   -1.4810    1.3430 O   0  0  0  0  0  0  0  0  0  0  0  0
    0.8520   -0.3470    0.8220 C   0  0  1  0  0  0  0  0  0  0  0  0
    2.0290   -0.9470    0.1060 C   0  0  2  0  0  0  0  0  0  0  0  0
    2.6770   -1.7140    1.1380 O   0  0  0  0  0  0  0  0  0  0  0  0
    3.0780   -0.0360   -0.3780 C   0  0  2  0  0  0  0  0  0  0  0  0
    3.5770    0.8340    0.6090 O   0  0  0  0  0  0  0  0  0  0  0  0
    2.8950    0.7060   -1.6360 C   0  0  0  0  0  0  0  0  0  0  0  0
    4.1920    1.1720   -2.0120 O   0  0  0  0  0  0  0  0  0  0  0  0
  1  2  1  0
  2  3  2  0
  2  4  1  0
  5  4  1  1
  5  6  1  0
  5 17  1  0
  6  7  1  6
  6 11  1  0
  7  8  2  3
  8  9  1  0
  8 10  1  0
 11 12  2  0
 12 13  1  0
 12 16  1  0
 13 14  2  0
 13 15  1  0
 17 16  1  6
 17 18  1  0
 18 19  1  1
 18 20  1  0
 20 21  1  1
 20 22  1  0
 22 23  1  0
M  CHG  1   7   1
M  END
