
     RDKit          3D

 22 23  0  0  0  0  0  0  0  0999 V2000
    1.3680    2.3760   -1.5400 C   0  0  0  0  0  0  0  0  0  0  0  0
    0.2730    2.9700   -1.2550 C   0  0  0  0  0  0  0  0  0  0  0  0
   -1.0260    2.4210   -1.1290 C   0  0  0  0  0  0  0  0  0  0  0  0
   -2.0530    3.3130   -0.9780 C   0  0  0  0  0  0  0  0  0  0  0  0
   -3.4750    3.0520   -0.8450 C   0  0  0  0  0  0  0  0  0  0  0  0
   -4.1200    1.9030   -1.0390 C   0  0  0  0  0  0  0  0  0  0  0  0
   -3.5780    0.5770   -1.4340 C   0  0  0  0  0  0  0  0  0  0  0  0
   -2.3200    0.1910   -1.4240 C   0  0  0  0  0  0  0  0  0  0  0  0
   -1.6750   -1.0960   -1.7770 C   0  0  0  0  0  0  0  0  0  0  0  0
   -0.8750   -1.2060   -0.4620 C   0  0  2  0  0  0  0  0  0  0  0  0
   -1.6780   -1.5260    0.7220 C   0  0  0  0  0  0  0  0  0  0  0  0
   -2.4370   -2.7950    0.7890 C   0  0  0  0  0  0  0  0  0  0  0  0
   -3.5230   -3.0480   -0.1770 C   0  0  0  0  0  0  0  0  0  0  0  0
   -0.3590    0.2210   -0.2650 C   0  0  0  0  0  0  0  0  0  0  0  0
    0.7090    0.6080    0.6420 C   0  0  0  0  0  0  0  0  0  0  0  0
    1.9400   -0.1980    0.4990 C   0  0  0  0  0  0  0  0  0  0  0  0
    3.0260    0.1910    1.4100 C   0  0  0  0  0  0  0  0  0  0  0  0
    2.8930    1.1250    2.2250 O   0  0  0  0  0  0  0  0  0  0  0  0
    4.2250   -0.4890    1.3700 O   0  0  0  0  0  0  0  0  0  0  0  0
    5.3290   -0.2160    2.1810 C   0  0  0  0  0  0  0  0  0  0  0  0
    6.4520   -1.1570    1.8560 C   0  0  0  0  0  0  0  0  0  0  0  0
   -1.1450    1.0010   -0.9880 C   0  0  0  0  0  0  0  0  0  0  0  0
  1  2  2  0
  2  3  1  0
  3  4  2  0
  3 22  1  0
  4  5  1  0
  5  6  2  0
  6  7  1  0
  7  8  2  0
  8  9  1  0
  8 22  1  0
  9 10  1  0
 10 11  1  1
 10 14  1  0
 11 12  1  0
 12 13  1  0
 14 15  1  0
 14 22  2  0
 15 16  1  0
 16 17  1  0
 17 18  2  0
 17 19  1  0
 19 20  1  0
 20 21  1  0
M  END
