
     RDKit          3D

 22 23  0  0  0  0  0  0  0  0999 V2000
   -4.1270   -4.1370   -0.3600 C   0  0  0  0  0  0  0  0  0  0  0  0
   -3.1480   -3.4530   -0.9040 C   0  0  0  0  0  0  0  0  0  0  0  0
   -1.9620   -4.0140   -1.5760 C   0  0  0  0  0  0  0  0  0  0  0  0
   -0.8790   -2.9970   -1.3030 C   0  0  0  0  0  0  0  0  0  0  0  0
   -1.5290   -1.8280   -0.6130 C   0  0  1  0  0  0  0  0  0  0  0  0
   -0.9830   -0.5070   -1.0880 C   0  0  2  0  0  0  0  0  0  0  0  0
    0.4980   -0.3740   -0.8430 C   0  0  0  0  0  0  0  0  0  0  0  0
    0.9300    0.9980   -1.3630 C   0  0  0  0  0  0  0  0  0  0  0  0
    2.4370    1.1190   -1.1080 C   0  0  0  0  0  0  0  0  0  0  0  0
    2.6210    1.0030    0.2500 O   0  0  0  0  0  0  0  0  0  0  0  0
    3.9270    1.0900    0.6640 C   0  0  1  0  0  0  0  0  0  0  0  0
    4.7530   -0.0140    0.0250 C   0  0  0  0  0  0  0  0  0  0  0  0
    4.4990    2.4400    0.3550 C   0  0  0  0  0  0  0  0  0  0  0  0
    3.9300    0.8830    2.1810 C   0  0  0  0  0  0  0  0  0  0  0  0
   -1.6420    0.6160   -0.6490 O   0  0  0  0  0  0  0  0  0  0  0  0
   -1.8830    1.1100    0.5830 C   0  0  0  0  0  0  0  0  0  0  0  0
   -1.4640    0.6380    1.7370 C   0  0  0  0  0  0  0  0  0  0  0  0
   -1.9610    1.4900    2.8540 C   0  0  0  0  0  0  0  0  0  0  0  0
   -2.7350    2.5240    2.1310 C   0  0  0  0  0  0  0  0  0  0  0  0
   -2.6960    2.3140    0.8260 C   0  0  0  0  0  0  0  0  0  0  0  0
   -3.3620    3.1570   -0.2030 C   0  0  0  0  0  0  0  0  0  0  0  0
   -2.9900   -1.9880   -0.9790 C   0  0  0  0  0  0  0  0  0  0  0  0
  1  2  2  0
  2  3  1  0
  2 22  1  0
  3  4  1  0
  5  4  1  6
  5  6  1  0
  5 22  1  0
  6  7  1  1
  6 15  1  0
  7  8  1  0
  8  9  1  0
  9 10  1  0
 10 11  1  0
 11 12  1  6
 11 13  1  0
 11 14  1  0
 15 16  1  0
 16 17  2  0
 16 20  1  0
 17 18  1  0
 18 19  1  0
 19 20  2  0
 20 21  1  0
M  END
