
     RDKit          3D

 22 23  0  0  0  0  0  0  0  0999 V2000
    3.3390    0.1170    3.0640 C   0  0  0  0  0  0  0  0  0  0  0  0
    4.0300   -0.1870    2.0030 C   0  0  0  0  0  0  0  0  0  0  0  0
    3.4470   -0.2320    0.6310 C   0  0  0  0  0  0  0  0  0  0  0  0
    4.2480   -0.5490   -0.3310 C   0  0  0  0  0  0  0  0  0  0  0  0
    4.0320   -0.6900   -1.7660 C   0  0  0  0  0  0  0  0  0  0  0  0
    2.0430    0.1040    0.5520 C   0  0  0  0  0  0  0  0  0  0  0  0
    1.3650    0.1360   -0.7490 C   0  0  0  0  0  0  0  0  0  0  0  0
   -0.1210    0.4840   -0.6650 C   0  0  2  0  0  0  0  0  0  0  0  0
   -0.4900    0.4520   -2.0470 O   0  0  0  0  0  0  0  0  0  0  0  0
   -0.2720    1.8990   -0.2410 C   0  0  0  0  0  0  0  0  0  0  0  0
   -1.0510    2.7510   -1.2280 C   0  0  0  0  0  0  0  0  0  0  0  0
   -2.4560    3.0280   -0.7870 C   0  0  0  0  0  0  0  0  0  0  0  0
   -3.3230    1.8510   -1.2460 C   0  0  0  0  0  0  0  0  0  0  0  0
   -3.2030    0.7260   -0.2120 C   0  0  0  0  0  0  0  0  0  0  0  0
   -2.3780   -0.3820   -0.7030 C   0  0  0  0  0  0  0  0  0  0  0  0
   -0.9930   -0.5210   -0.0400 C   0  0  2  0  0  0  0  0  0  0  0  0
   -1.1170   -0.5910    1.4210 C   0  0  0  0  0  0  0  0  0  0  0  0
   -0.9340   -1.9930    2.0180 C   0  0  0  0  0  0  0  0  0  0  0  0
   -1.9430   -2.8860    1.3270 C   0  0  0  0  0  0  0  0  0  0  0  0
   -1.6040   -2.8540   -0.1210 C   0  0  0  0  0  0  0  0  0  0  0  0
   -2.1820   -3.5730   -0.8820 O   0  0  0  0  0  0  0  0  0  0  0  0
   -0.5380   -1.9030   -0.5420 C   0  0  0  0  0  0  0  0  0  0  0  0
  1  2  2  0
  2  3  1  0
  3  4  2  3
  3  6  1  0
  4  5  1  0
  6  7  1  0
  7  8  1  0
  8  9  1  6
  8 10  1  0
  8 16  1  0
 10 11  1  0
 11 12  1  0
 12 13  1  0
 13 14  1  0
 14 15  1  0
 16 15  1  6
 16 17  1  0
 16 22  1  0
 17 18  1  0
 18 19  1  0
 19 20  1  0
 20 21  2  0
 20 22  1  0
M  END
