
     RDKit          3D

 22 23  0  0  0  0  0  0  0  0999 V2000
    4.1610    2.6810   -1.3770 C   0  0  0  0  0  0  0  0  0  0  0  0
    3.5360    1.2910   -1.0170 C   0  0  0  0  0  0  0  0  0  0  0  0
    2.2480    1.6230   -0.3700 C   0  0  0  0  0  0  0  0  0  0  0  0
    1.3370    0.5290    0.0770 C   0  0  1  0  0  0  0  0  0  0  0  0
    1.8940   -0.3240    1.1200 C   0  0  0  0  0  0  0  0  0  0  0  0
    3.1160   -1.1090    1.0160 C   0  0  1  0  0  0  0  0  0  0  0  0
    3.2080   -1.8870    2.3850 C   0  0  0  0  0  0  0  0  0  0  0  0
    3.2350   -2.1370   -0.0410 C   0  0  0  0  0  0  0  0  0  0  0  0
    0.1600    1.2970    0.7610 C   0  0  0  0  0  0  0  0  0  0  0  0
   -0.7550    1.6590   -0.3370 C   0  0  0  0  0  0  0  0  0  0  0  0
   -1.4670    0.3770   -0.8260 C   0  0  2  0  0  0  0  0  0  0  0  0
   -1.9700    0.8630   -2.0770 O   0  0  0  0  0  0  0  0  0  0  0  0
   -2.6340    0.0460   -0.0470 C   0  0  1  0  0  0  0  0  0  0  0  0
   -3.3230   -1.2350   -0.4930 C   0  0  0  0  0  0  0  0  0  0  0  0
   -2.6630    0.0960    1.4330 C   0  0  0  0  0  0  0  0  0  0  0  0
   -4.1670   -0.1670    1.7070 C   0  0  0  0  0  0  0  0  0  0  0  0
   -4.8460    0.6890    0.6880 C   0  0  0  0  0  0  0  0  0  0  0  0
   -3.7510    1.0970   -0.2810 C   0  0  0  0  0  0  0  0  0  0  0  0
   -0.3980   -0.5620   -1.1690 C   0  0  1  0  0  0  0  0  0  0  0  0
   -0.4630   -1.9470   -0.6020 C   0  0  0  0  0  0  0  0  0  0  0  0
   -0.3970   -0.8750   -2.7030 C   0  0  0  0  0  0  0  0  0  0  0  0
    0.8910   -0.0860   -1.0540 O   0  0  0  0  0  0  0  0  0  0  0  0
  1  2  1  0
  2  3  1  0
  4  3  1  6
  4  5  1  0
  4  9  1  0
  4 22  1  0
  5  6  1  0
  6  7  1  1
  6  8  1  0
  9 10  1  0
 10 11  1  0
 11 12  1  6
 11 13  1  0
 11 19  1  0
 13 14  1  1
 13 15  1  0
 13 18  1  0
 15 16  1  0
 16 17  1  0
 17 18  1  0
 19 20  1  1
 19 21  1  0
 19 22  1  0
M  END
