
     RDKit          3D

 22 23  0  0  0  0  0  0  0  0999 V2000
    5.5670   -1.2590    0.5330 C   0  0  0  0  0  0  0  0  0  0  0  0
    4.1830   -1.2020    0.3820 O   0  0  0  0  0  0  0  0  0  0  0  0
    3.8230   -0.1770   -0.4760 C   0  0  0  0  0  0  0  0  0  0  0  0
    2.3810    0.0050   -0.7330 C   0  0  1  0  0  0  0  0  0  0  0  0
    1.7240   -1.2190   -1.3320 C   0  0  0  0  0  0  0  0  0  0  0  0
    0.3510   -0.8430   -1.7530 C   0  0  0  0  0  0  0  0  0  0  0  0
   -0.5300   -0.3430   -0.5690 C   0  0  2  0  0  0  0  0  0  0  0  0
   -0.5620   -1.5590    0.3390 C   0  0  0  0  0  0  0  0  0  0  0  0
   -1.8720   -0.2830   -1.1710 C   0  0  0  0  0  0  0  0  0  0  0  0
   -3.0480    0.1370   -0.4540 C   0  0  0  0  0  0  0  0  0  0  0  0
   -3.9670   -0.7500   -0.1130 C   0  0  0  0  0  0  0  0  0  0  0  0
   -3.8680   -2.1940   -0.4310 C   0  0  0  0  0  0  0  0  0  0  0  0
   -5.1690   -0.3330    0.6430 C   0  0  0  0  0  0  0  0  0  0  0  0
   -5.3680    1.0150    0.8190 O   0  0  0  0  0  0  0  0  0  0  0  0
   -4.4110    1.9370    0.4620 C   0  0  0  0  0  0  0  0  0  0  0  0
   -3.3200    1.5180   -0.1380 C   0  0  0  0  0  0  0  0  0  0  0  0
    0.1290    0.8310   -0.0060 C   0  0  1  0  0  0  0  0  0  0  0  0
    0.1610    1.9900   -0.9860 C   0  0  0  0  0  0  0  0  0  0  0  0
   -0.4970    1.3770    1.2780 C   0  0  0  0  0  0  0  0  0  0  0  0
    1.5960    0.6090    0.3740 C   0  0  1  0  0  0  0  0  0  0  0  0
    1.7570   -0.1470    1.6630 C   0  0  0  0  0  0  0  0  0  0  0  0
    2.2150    1.9970    0.6290 C   0  0  0  0  0  0  0  0  0  0  0  0
  1  2  1  0
  2  3  1  0
  4  3  1  1
  4  5  1  0
  4 20  1  0
  5  6  1  0
  6  7  1  0
  7  8  1  1
  7  9  1  0
  7 17  1  0
  9 10  1  0
 10 11  2  0
 10 16  1  0
 11 12  1  0
 11 13  1  0
 13 14  1  0
 14 15  1  0
 15 16  2  0
 17 18  1  6
 17 19  1  0
 17 20  1  0
 20 21  1  1
 20 22  1  0
M  END
