
     RDKit          3D

 20 20  0  0  0  0  0  0  0  0999 V2000
    4.4100    0.5130   -0.2340 C   0  0  0  0  0  0  0  0  0  0  0  0
    3.1900    0.3170    0.6100 C   0  0  0  0  0  0  0  0  0  0  0  0
    1.9530   -0.0150   -0.2390 C   0  0  1  0  0  0  0  0  0  0  0  0
    2.3260   -1.3120   -0.9700 C   0  0  0  0  0  0  0  0  0  0  0  0
    2.6270   -2.4120    0.0320 C   0  0  0  0  0  0  0  0  0  0  0  0
    0.9110   -0.1860    0.6190 O   0  0  0  0  0  0  0  0  0  0  0  0
   -0.1530    0.6730    0.4480 C   0  0  2  0  0  0  0  0  0  0  0  0
   -0.4530    1.5070    1.6010 C   0  0  0  0  0  0  0  0  0  0  0  0
   -1.6250    2.1060    1.7340 C   0  0  0  0  0  0  0  0  0  0  0  0
   -1.8860    2.9290    2.8970 C   0  0  0  0  0  0  0  0  0  0  0  0
   -2.9860    3.4960    3.0280 O   0  0  0  0  0  0  0  0  0  0  0  0
   -0.9250    3.0950    3.8730 O   0  0  0  0  0  0  0  0  0  0  0  0
   -2.7080    1.9750    0.7270 C   0  0  0  0  0  0  0  0  0  0  0  0
   -2.4210    1.0110   -0.3600 C   0  0  2  0  0  0  0  0  0  0  0  0
   -3.6360    0.3340   -0.7960 N   0  0  0  0  0  0  0  0  0  0  0  0
   -1.4190   -0.0600    0.0140 C   0  0  1  0  0  0  0  0  0  0  0  0
   -1.1610   -0.8210   -1.1970 N   0  0  0  0  0  0  0  0  0  0  0  0
   -1.3980   -2.2190   -1.2940 C   0  0  0  0  0  0  0  0  0  0  0  0
   -1.1250   -2.9810   -2.5510 C   0  0  0  0  0  0  0  0  0  0  0  0
   -1.8550   -2.7860   -0.2590 O   0  0  0  0  0  0  0  0  0  0  0  0
  1  2  1  0
  3  2  1  1
  3  4  1  0
  3  6  1  0
  4  5  1  0
  7  6  1  1
  7  8  1  0
  7 16  1  0
  8  9  2  0
  9 10  1  0
  9 13  1  0
 10 11  2  0
 10 12  1  0
 13 14  1  0
 14 15  1  1
 14 16  1  0
 16 17  1  6
 17 18  1  0
 18 19  1  0
 18 20  2  0
M  CHG  1  15   1
M  END
