
     RDKit          3D

 20 20  0  0  0  0  0  0  0  0999 V2000
   -0.9280   -3.0580    0.6220 C   0  0  0  0  0  0  0  0  0  0  0  0
   -0.5410   -1.7500   -0.0690 C   0  0  2  0  0  0  0  0  0  0  0  0
   -0.7510   -1.9970   -1.5570 C   0  0  0  0  0  0  0  0  0  0  0  0
    0.8410   -1.3940    0.2500 C   0  0  0  0  0  0  0  0  0  0  0  0
    1.5030   -2.1650    1.0210 O   0  0  0  0  0  0  0  0  0  0  0  0
    1.5150   -0.2930   -0.2060 O   0  0  0  0  0  0  0  0  0  0  0  0
    2.8490    0.0250    0.1180 C   0  0  1  0  0  0  0  0  0  0  0  0
    3.6410    0.0150   -1.1740 C   0  0  0  0  0  0  0  0  0  0  0  0
    5.0670    0.3820   -0.8200 C   0  0  0  0  0  0  0  0  0  0  0  0
    5.0400    1.7920   -0.2650 C   0  0  0  0  0  0  0  0  0  0  0  0
    3.7500    2.2470   -0.0690 O   0  0  0  0  0  0  0  0  0  0  0  0
    2.9880    1.4030    0.7210 C   0  0  0  0  0  0  0  0  0  0  0  0
   -1.5620   -0.7330    0.3880 C   0  0  1  0  0  0  0  0  0  0  0  0
   -1.5630   -0.5530    1.8040 N   0  0  0  0  0  0  0  0  0  0  0  0
   -1.4610    0.5590   -0.3800 C   0  0  0  0  0  0  0  0  0  0  0  0
   -2.4520    1.5830    0.0430 C   0  0  0  0  0  0  0  0  0  0  0  0
   -3.8840    1.1330   -0.1270 C   0  0  2  0  0  0  0  0  0  0  0  0
   -4.2220    0.8150   -1.4740 N   0  0  0  0  0  0  0  0  0  0  0  0
   -4.8330    2.1420    0.4020 C   0  0  0  0  0  0  0  0  0  0  0  0
   -5.7200    2.5500   -0.3190 O   0  0  0  0  0  0  0  0  0  0  0  0
  2  1  1  1
  2  3  1  0
  2  4  1  0
  2 13  1  0
  4  5  2  0
  4  6  1  0
  7  6  1  6
  7  8  1  0
  7 12  1  0
  8  9  1  0
  9 10  1  0
 10 11  1  0
 11 12  1  0
 13 14  1  1
 13 15  1  0
 15 16  1  0
 16 17  1  0
 17 18  1  6
 17 19  1  0
 19 20  2  0
M  CHG  1  14   1
M  END
