
     RDKit          3D

 20 20  0  0  0  0  0  0  0  0999 V2000
    4.4650    2.5960   -1.4160 C   0  0  0  0  0  0  0  0  0  0  0  0
    3.4710    1.7990   -0.8390 O   0  0  0  0  0  0  0  0  0  0  0  0
    3.7200    0.8230    0.1170 C   0  0  0  0  0  0  0  0  0  0  0  0
    4.8870    0.6390    0.4880 O   0  0  0  0  0  0  0  0  0  0  0  0
    2.5610    0.0230    0.6670 C   0  0  2  0  0  0  0  0  0  0  0  0
    3.1890   -0.8950    1.6340 N   0  0  0  0  0  0  0  0  0  0  0  0
    1.9660   -0.7250   -0.4810 C   0  0  0  0  0  0  0  0  0  0  0  0
    0.7670   -1.5730   -0.1680 C   0  0  1  0  0  0  0  0  0  0  0  0
    0.4280   -2.2200   -1.5250 C   0  0  0  0  0  0  0  0  0  0  0  0
    1.0880   -2.7510    0.7200 C   0  0  0  0  0  0  0  0  0  0  0  0
   -0.2200   -0.8690    0.3480 O   0  0  0  0  0  0  0  0  0  0  0  0
   -1.0010    0.0360   -0.2240 C   0  0  1  0  0  0  0  0  0  0  0  0
   -0.4010    1.2560   -0.8690 C   0  0  0  0  0  0  0  0  0  0  0  0
   -2.0920   -0.5590   -1.1090 C   0  0  0  0  0  0  0  0  0  0  0  0
   -3.4250   -0.1940   -0.5120 C   0  0  0  0  0  0  0  0  0  0  0  0
   -3.1880    0.8860    0.4830 C   0  0  1  0  0  0  0  0  0  0  0  0
   -3.3920    2.1840   -0.1310 N   0  0  0  0  0  0  0  0  0  0  0  0
   -4.2010    0.7450    1.6080 C   0  0  0  0  0  0  0  0  0  0  0  0
   -4.0440   -0.4910    2.2300 O   0  0  0  0  0  0  0  0  0  0  0  0
   -1.8080    0.6280    0.9600 C   0  0  0  0  0  0  0  0  0  0  0  0
  1  2  1  0
  2  3  1  0
  3  4  2  0
  3  5  1  0
  5  6  1  1
  5  7  1  0
  7  8  1  0
  8  9  1  6
  8 10  1  0
  8 11  1  0
 11 12  1  0
 12 13  1  6
 12 14  1  0
 12 20  1  0
 14 15  1  0
 15 16  1  0
 16 17  1  6
 16 18  1  0
 16 20  1  0
 18 19  1  0
M  CHG  1   6   1
M  END
