
     RDKit          3D

 20 20  0  0  0  0  0  0  0  0999 V2000
   -1.7740    3.4610    0.8580 C   0  0  0  0  0  0  0  0  0  0  0  0
   -2.7120    2.4870    1.5170 C   0  0  0  0  0  0  0  0  0  0  0  0
   -2.3550    1.1450    1.3010 O   0  0  0  0  0  0  0  0  0  0  0  0
   -2.2600    0.5400    0.0830 C   0  0  0  0  0  0  0  0  0  0  0  0
   -2.5090    1.2280   -0.9400 O   0  0  0  0  0  0  0  0  0  0  0  0
   -1.8810   -0.8800   -0.1280 C   0  0  2  0  0  0  0  0  0  0  0  0
   -0.5350   -1.1100    0.4200 C   0  0  0  0  0  0  0  0  0  0  0  0
   -0.3040   -1.9440    1.3380 O   0  0  0  0  0  0  0  0  0  0  0  0
    0.5400   -0.3570   -0.1160 N   0  0  0  0  0  0  0  0  0  0  0  0
    1.8970   -0.4930    0.3370 C   0  0  0  0  0  0  0  0  0  0  0  0
    2.8260    0.4290   -0.4070 C   0  0  1  0  0  0  0  0  0  0  0  0
    2.7740    0.0970   -1.8860 C   0  0  0  0  0  0  0  0  0  0  0  0
    2.4700    1.8160   -0.2570 N   0  0  0  0  0  0  0  0  0  0  0  0
    4.2480    0.1970    0.0600 C   0  0  0  0  0  0  0  0  0  0  0  0
    4.4280    0.4520    1.5290 C   0  0  0  0  0  0  0  0  0  0  0  0
   -1.9350   -1.2900   -1.5620 C   0  0  0  0  0  0  0  0  0  0  0  0
   -2.3260   -2.7620   -1.4650 C   0  0  0  0  0  0  0  0  0  0  0  0
   -3.4710   -2.6740   -0.4550 C   0  0  1  0  0  0  0  0  0  0  0  0
   -3.7270   -3.9130    0.1130 O   0  0  0  0  0  0  0  0  0  0  0  0
   -2.9330   -1.7210    0.5720 C   0  0  0  0  0  0  0  0  0  0  0  0
  1  2  1  0
  2  3  1  0
  3  4  1  0
  4  5  2  0
  6  4  1  6
  6  7  1  0
  6 16  1  0
  6 20  1  0
  7  8  2  0
  7  9  1  0
  9 10  1  0
 10 11  1  0
 11 12  1  6
 11 13  1  0
 11 14  1  0
 14 15  1  0
 16 17  1  0
 17 18  1  0
 18 19  1  1
 18 20  1  0
M  CHG  1  13   1
M  END
