
     RDKit          3D

 20 20  0  0  0  0  0  0  0  0999 V2000
   -5.0130    1.9890    0.1270 C   0  0  0  0  0  0  0  0  0  0  0  0
   -5.4730    0.5730    0.4100 C   0  0  0  0  0  0  0  0  0  0  0  0
   -4.3920   -0.1530    1.1870 C   0  0  0  0  0  0  0  0  0  0  0  0
   -3.1600   -0.1470    0.3230 C   0  0  2  0  0  0  0  0  0  0  0  0
   -3.3780   -0.8410   -0.9990 C   0  0  0  0  0  0  0  0  0  0  0  0
   -2.0950   -1.2100   -1.5110 N   0  0  0  0  0  0  0  0  0  0  0  0
   -1.0390   -0.2440   -1.1540 C   0  0  0  0  0  0  0  0  0  0  0  0
   -0.7500   -0.3200    0.3050 C   0  0  2  0  0  0  0  0  0  0  0  0
   -0.4750    1.0170    0.9450 C   0  0  0  0  0  0  0  0  0  0  0  0
    0.3820   -1.1430    0.5810 O   0  0  0  0  0  0  0  0  0  0  0  0
    1.5970   -0.7350    0.0090 C   0  0  0  0  0  0  0  0  0  0  0  0
    1.6630    0.2930   -0.6980 O   0  0  0  0  0  0  0  0  0  0  0  0
    2.7640   -1.4890    0.2280 N   0  0  0  0  0  0  0  0  0  0  0  0
    4.0780   -1.2490   -0.2350 C   0  0  0  0  0  0  0  0  0  0  0  0
    4.8460   -0.0760    0.1990 C   0  0  2  0  0  0  0  0  0  0  0  0
    6.2990   -0.3480   -0.3420 C   0  0  0  0  0  0  0  0  0  0  0  0
    4.9430   -0.0920    1.6000 O   0  0  0  0  0  0  0  0  0  0  0  0
    4.4300    1.2750   -0.2530 C   0  0  0  0  0  0  0  0  0  0  0  0
    4.3050    1.3300   -1.6500 O   0  0  0  0  0  0  0  0  0  0  0  0
   -1.9890   -0.8600    0.9960 C   0  0  0  0  0  0  0  0  0  0  0  0
  1  2  1  0
  2  3  1  0
  4  3  1  1
  4  5  1  0
  4 20  1  0
  5  6  1  0
  6  7  1  0
  7  8  1  0
  8  9  1  1
  8 10  1  0
  8 20  1  0
 10 11  1  0
 11 12  2  0
 11 13  1  0
 13 14  1  0
 14 15  1  0
 15 16  1  6
 15 17  1  0
 15 18  1  0
 18 19  1  0
M  CHG  1   6   1
M  END
