
     RDKit          3D

 20 20  0  0  0  0  0  0  0  0999 V2000
    4.7090   -0.7460    0.2750 C   0  0  0  0  0  0  0  0  0  0  0  0
    3.6720   -0.1260   -0.6270 C   0  0  2  0  0  0  0  0  0  0  0  0
    3.8680    1.3760   -0.7320 C   0  0  0  0  0  0  0  0  0  0  0  0
    2.5000    1.9560   -1.0850 C   0  0  0  0  0  0  0  0  0  0  0  0
    1.8060    1.1090   -1.9490 O   0  0  0  0  0  0  0  0  0  0  0  0
    1.3220   -0.0180   -1.2830 C   0  0  2  0  0  0  0  0  0  0  0  0
    1.3200   -1.1680   -2.2900 C   0  0  0  0  0  0  0  0  0  0  0  0
    0.0170    0.2650   -0.8190 O   0  0  0  0  0  0  0  0  0  0  0  0
   -0.6780   -0.6900   -0.1290 C   0  0  0  0  0  0  0  0  0  0  0  0
   -0.1230   -1.7930    0.0690 O   0  0  0  0  0  0  0  0  0  0  0  0
   -2.0530   -0.5120    0.4080 C   0  0  2  0  0  0  0  0  0  0  0  0
   -2.9150   -0.2090   -0.7460 C   0  0  0  0  0  0  0  0  0  0  0  0
   -3.8690   -0.9330   -1.2330 C   0  0  0  0  0  0  0  0  0  0  0  0
   -4.3330   -2.2130   -0.7790 C   0  0  0  0  0  0  0  0  0  0  0  0
   -3.8630   -2.9850    0.3030 N   0  0  0  0  0  0  0  0  0  0  0  0
   -5.3120   -2.7720   -1.4160 O   0  0  0  0  0  0  0  0  0  0  0  0
   -2.1480    0.4340    1.5220 C   0  0  0  0  0  0  0  0  0  0  0  0
   -1.7480    1.8350    1.4020 C   0  0  0  0  0  0  0  0  0  0  0  0
   -2.4870    2.6350    0.4610 N   0  0  0  0  0  0  0  0  0  0  0  0
    2.2570   -0.4210   -0.1720 C   0  0  0  0  0  0  0  0  0  0  0  0
  2  1  1  1
  2  3  1  0
  2 20  1  0
  3  4  1  0
  4  5  1  0
  5  6  1  0
  6  7  1  6
  6  8  1  0
  6 20  1  0
  8  9  1  0
  9 10  2  0
  9 11  1  0
 11 12  1  0
 11 17  1  1
 12 13  2  3
 13 14  1  0
 14 15  1  0
 14 16  2  0
 17 18  1  0
 18 19  1  0
M  CHG  1  19   1
M  END
