
     RDKit          3D

 20 20  0  0  0  0  0  0  0  0999 V2000
   -1.6180   -3.3620    2.1190 C   0  0  0  0  0  0  0  0  0  0  0  0
   -0.5010   -2.8490    1.2570 C   0  0  0  0  0  0  0  0  0  0  0  0
   -1.0170   -1.8090    0.2520 C   0  0  2  0  0  0  0  0  0  0  0  0
   -2.0480   -2.5240   -0.5840 C   0  0  0  0  0  0  0  0  0  0  0  0
    0.0830   -1.3380   -0.6290 C   0  0  0  0  0  0  0  0  0  0  0  0
    0.0780    0.0980   -1.0050 C   0  0  2  0  0  0  0  0  0  0  0  0
    0.4790    0.2120   -2.3350 O   0  0  0  0  0  0  0  0  0  0  0  0
    1.1890    0.7730   -0.1860 C   0  0  0  0  0  0  0  0  0  0  0  0
    2.4100    0.0150   -0.4900 N   0  0  0  0  0  0  0  0  0  0  0  0
    3.5170    0.9190   -0.7660 C   0  0  0  0  0  0  0  0  0  0  0  0
    4.8070    0.2320   -0.3780 C   0  0  0  0  0  0  0  0  0  0  0  0
    4.9950   -0.9450   -1.0990 O   0  0  0  0  0  0  0  0  0  0  0  0
   -1.2340    0.8150   -0.8170 C   0  0  2  0  0  0  0  0  0  0  0  0
   -1.0180    2.2360   -0.4510 C   0  0  0  0  0  0  0  0  0  0  0  0
   -0.3670    3.1190   -1.3350 O   0  0  0  0  0  0  0  0  0  0  0  0
   -1.3920    2.7620    0.6630 N   0  0  0  0  0  0  0  0  0  0  0  0
   -1.1950    4.1240    1.0340 C   0  0  0  0  0  0  0  0  0  0  0  0
   -2.1860    0.0900    0.0660 C   0  0  2  0  0  0  0  0  0  0  0  0
   -3.1430    0.9640    0.8350 C   0  0  0  0  0  0  0  0  0  0  0  0
   -1.5420   -0.7490    0.9800 O   0  0  0  0  0  0  0  0  0  0  0  0
  1  2  1  0
  2  3  1  0
  3  4  1  6
  3  5  1  0
  3 20  1  0
  5  6  1  0
  6  7  1  6
  6  8  1  0
  6 13  1  0
  8  9  1  0
  9 10  1  0
 10 11  1  0
 11 12  1  0
 13 14  1  1
 13 18  1  0
 14 15  1  0
 14 16  2  3
 16 17  1  0
 18 19  1  1
 18 20  1  0
M  CHG  1   9   1
M  END
