
     RDKit          3D

 14 14  0  0  0  0  0  0  0  0999 V2000
   -0.6930    2.5230    1.4960 O   0  0  0  0  0  0  0  0  0  0  0  0
   -1.3240    2.6970    0.4330 C   0  0  0  0  0  0  0  0  0  0  0  0
   -1.3490    1.6710   -0.4910 O   0  0  0  0  0  0  0  0  0  0  0  0
   -0.7260    0.4330   -0.3520 C   0  0  1  0  0  0  0  0  0  0  0  0
    0.7740    0.5790   -0.1900 C   0  0  0  0  0  0  0  0  0  0  0  0
    1.3850   -0.7120   -0.0510 O   0  0  0  0  0  0  0  0  0  0  0  0
    2.7580   -0.8270    0.1110 C   0  0  0  0  0  0  0  0  0  0  0  0
    3.4370    0.2550    0.1290 O   0  0  0  0  0  0  0  0  0  0  0  0
    3.4000   -2.0460    0.2500 O   0  0  0  0  0  0  0  0  0  0  0  0
    4.7380   -2.1400    0.4070 O   0  0  0  0  0  0  0  0  0  0  0  0
   -1.2270   -0.3020    0.7290 O   0  0  0  0  0  0  0  0  0  0  0  0
   -2.2830   -1.0600    0.2270 C   0  0  0  0  0  0  0  0  0  0  0  0
   -2.3590   -0.6580   -1.2460 C   0  0  0  0  0  0  0  0  0  0  0  0
   -1.0140   -0.3270   -1.4850 O   0  0  0  0  0  0  0  0  0  0  0  0
  1  2  2  0
  2  3  1  0
  3  4  1  0
  4  5  1  1
  4 11  1  0
  4 14  1  0
  5  6  1  0
  6  7  1  0
  7  8  2  0
  7  9  1  0
  9 10  1  0
 11 12  1  0
 12 13  1  0
 13 14  1  0
M  END
