
     RDKit          3D

 14 14  0  0  0  0  0  0  0  0999 V2000
    2.5040    2.3180   -1.2270 O   0  0  0  0  0  0  0  0  0  0  0  0
    2.4560    1.1310   -0.8070 C   0  0  0  0  0  0  0  0  0  0  0  0
    3.3380    0.7640    0.3080 C   0  0  0  0  0  0  0  0  0  0  0  0
    3.0210   -0.4640    0.9080 O   0  0  0  0  0  0  0  0  0  0  0  0
    1.9690   -1.2480    0.5240 C   0  0  0  0  0  0  0  0  0  0  0  0
    1.7470   -2.3530    1.0750 O   0  0  0  0  0  0  0  0  0  0  0  0
    1.0630   -0.8170   -0.5520 C   0  0  1  0  0  0  0  0  0  0  0  0
   -0.1000   -0.3410    0.0060 O   0  0  0  0  0  0  0  0  0  0  0  0
   -1.1950   -1.1040   -0.3990 C   0  0  0  0  0  0  0  0  0  0  0  0
   -2.4630   -0.5610    0.2280 C   0  0  0  0  0  0  0  0  0  0  0  0
   -2.6640    0.7640   -0.1650 O   0  0  0  0  0  0  0  0  0  0  0  0
   -3.7530    1.1910    0.3900 O   0  0  0  0  0  0  0  0  0  0  0  0
   -4.3330    2.1690   -0.2780 O   0  0  0  0  0  0  0  0  0  0  0  0
    1.6010    0.1940   -1.3720 O   0  0  0  0  0  0  0  0  0  0  0  0
  1  2  2  0
  2  3  1  0
  2 14  1  0
  3  4  1  0
  4  5  1  0
  5  6  2  0
  5  7  1  0
  7  8  1  1
  7 14  1  0
  8  9  1  0
  9 10  1  0
 10 11  1  0
 11 12  1  0
 12 13  1  0
M  END
