
     RDKit          3D

 14 13  0  0  0  0  0  0  0  0999 V2000
    4.9540   -0.1450    0.2270 C   0  0  0  0  0  0  0  0  0  0  0  0
    3.9270    0.2630   -0.6630 O   0  0  0  0  0  0  0  0  0  0  0  0
    2.6080    0.2830   -0.2000 C   0  0  0  0  0  0  0  0  0  0  0  0
    2.2940   -0.0430    0.9630 O   0  0  0  0  0  0  0  0  0  0  0  0
    1.6280    0.6800   -1.0780 O   0  0  0  0  0  0  0  0  0  0  0  0
    0.3140    0.7530   -0.7860 O   0  0  0  0  0  0  0  0  0  0  0  0
   -0.4230   -0.2660   -0.2210 C   0  0  0  0  0  0  0  0  0  0  0  0
    0.1930   -1.3330    0.0320 O   0  0  0  0  0  0  0  0  0  0  0  0
   -1.8900   -0.1330    0.0850 C   0  0  1  0  0  0  0  0  0  0  0  0
   -2.3280    1.1180   -0.2820 O   0  0  0  0  0  0  0  0  0  0  0  0
   -2.8260    1.8440    0.8250 C   0  0  0  0  0  0  0  0  0  0  0  0
   -2.6160   -1.1610   -0.5330 O   0  0  0  0  0  0  0  0  0  0  0  0
   -3.3770   -2.0870    0.1960 C   0  0  0  0  0  0  0  0  0  0  0  0
   -3.3790   -1.9570    1.4360 O   0  0  0  0  0  0  0  0  0  0  0  0
  1  2  1  0
  2  3  1  0
  3  4  2  0
  3  5  1  0
  5  6  1  0
  6  7  1  0
  7  8  2  0
  7  9  1  0
  9 10  1  6
  9 12  1  0
 10 11  1  0
 12 13  1  0
 13 14  2  0
M  END
