
     RDKit          3D

 14 13  0  0  0  0  0  0  0  0999 V2000
   -2.6900   -1.6230   -0.2680 C   0  0  0  0  0  0  0  0  0  0  0  0
   -1.9710   -0.3350   -0.5780 C   0  0  1  0  0  0  0  0  0  0  0  0
   -2.6750    0.8520    0.0410 C   0  0  0  0  0  0  0  0  0  0  0  0
   -3.9790    0.9820   -0.4300 O   0  0  0  0  0  0  0  0  0  0  0  0
   -4.4930    2.0430    0.1750 O   0  0  0  0  0  0  0  0  0  0  0  0
   -0.5730   -0.3460   -0.0640 C   0  0  0  0  0  0  0  0  0  0  0  0
   -0.0830   -1.3330    0.5520 O   0  0  0  0  0  0  0  0  0  0  0  0
    0.2560    0.7420   -0.2450 O   0  0  0  0  0  0  0  0  0  0  0  0
    1.5470    0.7780    0.2090 O   0  0  0  0  0  0  0  0  0  0  0  0
    2.5620    0.0140   -0.3160 C   0  0  0  0  0  0  0  0  0  0  0  0
    2.2800   -0.7600   -1.2660 O   0  0  0  0  0  0  0  0  0  0  0  0
    3.9590    0.0390    0.1590 C   0  0  0  0  0  0  0  0  0  0  0  0
    4.7880   -0.8140   -0.5240 O   0  0  0  0  0  0  0  0  0  0  0  0
    5.9970   -0.6980   -0.0070 O   0  0  0  0  0  0  0  0  0  0  0  0
  2  1  1  1
  2  3  1  0
  2  6  1  0
  3  4  1  0
  4  5  1  0
  6  7  2  0
  6  8  1  0
  8  9  1  0
  9 10  1  0
 10 11  2  0
 10 12  1  0
 12 13  1  0
 13 14  1  0
M  END
