
     RDKit          3D

 14 14  0  0  0  0  0  0  0  0999 V2000
   -2.5920    1.9910   -1.2610 O   0  0  0  0  0  0  0  0  0  0  0  0
   -3.1350    1.5080   -0.2520 C   0  0  0  0  0  0  0  0  0  0  0  0
   -2.5280    0.3880    0.3140 O   0  0  0  0  0  0  0  0  0  0  0  0
   -1.3720   -0.1970   -0.1880 C   0  0  1  0  0  0  0  0  0  0  0  0
   -0.2130   -0.1810    0.7990 C   0  0  0  0  0  0  0  0  0  0  0  0
    0.9680   -0.7310   -0.0100 C   0  0  1  0  0  0  0  0  0  0  0  0
    2.1200   -0.4670    0.7600 O   0  0  0  0  0  0  0  0  0  0  0  0
    3.0980    0.4180    0.3450 C   0  0  0  0  0  0  0  0  0  0  0  0
    2.9280    0.9950   -0.7610 O   0  0  0  0  0  0  0  0  0  0  0  0
    4.2390    0.7150    1.0500 O   0  0  0  0  0  0  0  0  0  0  0  0
    0.8140   -2.0650   -0.3160 O   0  0  0  0  0  0  0  0  0  0  0  0
   -0.4370   -2.4240   -0.5690 O   0  0  0  0  0  0  0  0  0  0  0  0
   -1.5260   -1.6040   -0.5910 C   0  0  0  0  0  0  0  0  0  0  0  0
   -2.6400   -2.0220   -0.9430 O   0  0  0  0  0  0  0  0  0  0  0  0
  1  2  2  0
  2  3  1  0
  4  3  1  1
  4  5  1  0
  4 13  1  0
  5  6  1  0
  6  7  1  1
  6 11  1  0
  7  8  1  0
  8  9  2  0
  8 10  1  0
 11 12  1  0
 12 13  1  0
 13 14  2  0
M  END
