
     RDKit          3D

 14 14  0  0  0  0  0  0  0  0999 V2000
   -4.7050    1.5750    0.5080 O   0  0  0  0  0  0  0  0  0  0  0  0
   -3.6970    0.9080    0.1930 C   0  0  0  0  0  0  0  0  0  0  0  0
   -3.8000   -0.5520   -0.1990 C   0  0  0  0  0  0  0  0  0  0  0  0
   -2.5750   -1.0810    0.1950 O   0  0  0  0  0  0  0  0  0  0  0  0
   -1.5570   -0.5900   -0.6250 C   0  0  2  0  0  0  0  0  0  0  0  0
   -0.2310   -1.1100   -0.1410 C   0  0  0  0  0  0  0  0  0  0  0  0
    0.8300   -0.7220   -1.0130 O   0  0  0  0  0  0  0  0  0  0  0  0
    1.3070    0.4760   -0.5680 C   0  0  0  0  0  0  0  0  0  0  0  0
    2.4410    0.3030    0.4700 C   0  0  0  0  0  0  0  0  0  0  0  0
    3.5210   -0.2480   -0.3210 O   0  0  0  0  0  0  0  0  0  0  0  0
    4.4580    0.6330   -0.2560 O   0  0  0  0  0  0  0  0  0  0  0  0
    5.2980    0.8330    0.6070 O   0  0  0  0  0  0  0  0  0  0  0  0
   -1.5440    0.7700   -0.7150 O   0  0  0  0  0  0  0  0  0  0  0  0
   -2.3890    1.3730    0.1130 O   0  0  0  0  0  0  0  0  0  0  0  0
  1  2  2  0
  2  3  1  0
  2 14  1  0
  3  4  1  0
  4  5  1  0
  5  6  1  1
  5 13  1  0
  6  7  1  0
  7  8  1  0
  8  9  1  0
  9 10  1  0
 10 11  1  0
 11 12  1  0
 13 14  1  0
M  END
