
     RDKit          3D

 14 13  0  0  0  0  0  0  0  0999 V2000
    3.6930    0.3780   -1.1250 C   0  0  0  0  0  0  0  0  0  0  0  0
    2.7940    0.7410   -0.1330 O   0  0  0  0  0  0  0  0  0  0  0  0
    2.5150   -0.3560    0.6730 C   0  0  1  0  0  0  0  0  0  0  0  0
    2.9270   -0.1110    1.9790 O   0  0  0  0  0  0  0  0  0  0  0  0
    1.0930   -0.7100    0.6700 C   0  0  0  0  0  0  0  0  0  0  0  0
    0.4540   -0.7510    1.7530 O   0  0  0  0  0  0  0  0  0  0  0  0
    0.3800   -1.0150   -0.4910 O   0  0  0  0  0  0  0  0  0  0  0  0
   -0.9370   -1.3320   -0.3900 O   0  0  0  0  0  0  0  0  0  0  0  0
   -1.9170   -0.4350   -0.7540 C   0  0  0  0  0  0  0  0  0  0  0  0
   -1.5340    0.6890   -1.1840 O   0  0  0  0  0  0  0  0  0  0  0  0
   -3.3830   -0.7630   -0.6510 C   0  0  0  0  0  0  0  0  0  0  0  0
   -4.1670    0.3180   -1.0840 O   0  0  0  0  0  0  0  0  0  0  0  0
   -4.1250    1.5550   -0.4980 C   0  0  0  0  0  0  0  0  0  0  0  0
   -3.3600    1.7530    0.4690 O   0  0  0  0  0  0  0  0  0  0  0  0
  1  2  1  0
  2  3  1  0
  3  4  1  1
  3  5  1  0
  5  6  2  0
  5  7  1  0
  7  8  1  0
  8  9  1  0
  9 10  2  0
  9 11  1  0
 11 12  1  0
 12 13  1  0
 13 14  2  0
M  END
