
     RDKit          3D

 20 20  0  0  0  0  0  0  0  0999 V2000
    5.5840    0.5940    2.4900 C   0  0  0  0  0  0  0  0  0  0  0  0
    4.6300    1.8940    1.6630 S   0  0  0  0  0  0  0  0  0  0  0  0
    3.7830    1.2010    0.2780 C   0  0  0  0  0  0  0  0  0  0  0  0
    3.9040   -0.0130    0.0140 O   0  0  0  0  0  0  0  0  0  0  0  0
    2.9620    1.9370   -0.5690 O   0  0  0  0  0  0  0  0  0  0  0  0
    2.3070    1.3680   -1.6520 C   0  0  0  0  0  0  0  0  0  0  0  0
    2.7120    1.2210   -2.9520 C   0  0  0  0  0  0  0  0  0  0  0  0
    1.7000    0.5910   -3.6450 C   0  0  0  0  0  0  0  0  0  0  0  0
    0.7460    0.3770   -2.7950 O   0  0  0  0  0  0  0  0  0  0  0  0
    1.0460    0.8150   -1.5970 C   0  0  0  0  0  0  0  0  0  0  0  0
    0.1730    0.7210   -0.4210 C   0  0  0  0  0  0  0  0  0  0  0  0
   -1.0340    0.1160   -0.6670 O   0  0  0  0  0  0  0  0  0  0  0  0
   -1.7680    0.0860    0.5170 C   0  0  1  0  0  0  0  0  0  0  0  0
   -3.3570    1.0360    0.3620 P   0  0  0  0  0  0  0  0  0  0  0  0
   -2.9190    2.6890   -0.0150 O   0  0  0  0  0  0  0  0  0  0  0  0
   -4.3380    0.4450   -0.9180 O   0  0  0  0  0  0  0  0  0  0  0  0
   -2.0850   -1.6770    1.0130 P   0  0  0  0  0  0  0  0  0  0  0  0
   -3.3610   -1.7520    2.3350 C   0  0  0  0  0  0  0  0  0  0  0  0
   -2.4670   -2.7530   -0.4300 C   0  0  0  0  0  0  0  0  0  0  0  0
   -3.3850   -3.7290    0.0040 O   0  0  0  0  0  0  0  0  0  0  0  0
  1  2  1  0
  2  3  1  0
  3  4  2  0
  3  5  1  0
  5  6  1  0
  6  7  1  0
  6 10  2  0
  7  8  2  0
  8  9  1  0
  9 10  1  0
 10 11  1  0
 11 12  1  0
 13 12  1  6
 13 14  1  0
 13 17  1  0
 14 15  1  0
 14 16  1  0
 17 18  1  0
 17 19  1  0
 19 20  1  0
M  END
