
     RDKit          3D

 13 13  0  0  0  0  0  0  0  0999 V2000
   -2.0580   -1.1310   -2.4250 O   0  0  0  0  0  0  0  0  0  0  0  0
   -2.0990   -0.3790   -1.4270 C   0  0  0  0  0  0  0  0  0  0  0  0
   -2.7190    0.8580   -1.3320 O   0  0  0  0  0  0  0  0  0  0  0  0
   -2.4690    1.4170   -0.0340 C   0  0  0  0  0  0  0  0  0  0  0  0
   -2.3980    0.1350    0.7980 C   0  0  0  0  0  0  0  0  0  0  0  0
   -1.4720   -0.6730   -0.1130 C   0  0  2  0  0  0  0  0  0  0  0  0
   -0.2410   -0.0470   -0.0910 O   0  0  0  0  0  0  0  0  0  0  0  0
    0.7370   -0.9460    0.2650 C   0  0  0  0  0  0  0  0  0  0  0  0
    2.0830   -0.2480    0.2860 C   0  0  1  0  0  0  0  0  0  0  0  0
    3.0220   -1.2360    0.6580 O   0  0  0  0  0  0  0  0  0  0  0  0
    2.4560    0.2060   -0.9570 O   0  0  0  0  0  0  0  0  0  0  0  0
    2.7430    1.4780   -0.8840 O   0  0  0  0  0  0  0  0  0  0  0  0
    3.4270    1.7110    0.2030 O   0  0  0  0  0  0  0  0  0  0  0  0
  1  2  2  0
  2  3  1  0
  2  6  1  0
  3  4  1  0
  4  5  1  0
  5  6  1  0
  6  7  1  6
  7  8  1  0
  8  9  1  0
  9 10  1  6
  9 11  1  0
 11 12  1  0
 12 13  1  0
M  END
