
     RDKit          3D

 13 13  0  0  0  0  0  0  0  0999 V2000
    3.8450    1.2940    0.3550 O   0  0  0  0  0  0  0  0  0  0  0  0
    3.7990    0.3910   -0.5130 C   0  0  0  0  0  0  0  0  0  0  0  0
    2.6120   -0.3020   -0.7150 O   0  0  0  0  0  0  0  0  0  0  0  0
    1.4600   -0.0230    0.0230 C   0  0  1  0  0  0  0  0  0  0  0  0
    0.4080    0.4500   -0.7850 O   0  0  0  0  0  0  0  0  0  0  0  0
   -0.5240    1.0270    0.0710 C   0  0  0  0  0  0  0  0  0  0  0  0
   -1.7930    0.1900    0.1770 C   0  0  1  0  0  0  0  0  0  0  0  0
   -2.6750    0.4650   -0.8430 O   0  0  0  0  0  0  0  0  0  0  0  0
   -3.8160    0.8890   -0.3480 O   0  0  0  0  0  0  0  0  0  0  0  0
   -1.4200   -1.2770    0.1240 C   0  0  0  0  0  0  0  0  0  0  0  0
   -0.3630   -1.5970    1.0040 O   0  0  0  0  0  0  0  0  0  0  0  0
    0.9650   -1.1700    0.8150 C   0  0  0  0  0  0  0  0  0  0  0  0
    1.8670   -1.8500    1.3950 O   0  0  0  0  0  0  0  0  0  0  0  0
  1  2  2  0
  2  3  1  0
  4  3  1  6
  4  5  1  0
  4 12  1  0
  5  6  1  0
  6  7  1  0
  7  8  1  6
  7 10  1  0
  8  9  1  0
 10 11  1  0
 11 12  1  0
 12 13  2  0
M  END
