
     RDKit          3D

 13 13  0  0  0  0  0  0  0  0999 V2000
   -0.0930   -1.0540    1.0600 O   0  0  0  0  0  0  0  0  0  0  0  0
   -0.6430    0.0210    0.7130 C   0  0  0  0  0  0  0  0  0  0  0  0
    0.1800    1.1000    0.4540 O   0  0  0  0  0  0  0  0  0  0  0  0
    1.5900    1.0760    0.5520 C   0  0  0  0  0  0  0  0  0  0  0  0
    2.2310    0.0750   -0.3610 C   0  0  0  0  0  0  0  0  0  0  0  0
    3.6110    0.1470   -0.1730 O   0  0  0  0  0  0  0  0  0  0  0  0
    4.2660   -0.7010   -0.9370 O   0  0  0  0  0  0  0  0  0  0  0  0
    5.4550   -0.2640   -1.2640 O   0  0  0  0  0  0  0  0  0  0  0  0
   -2.0980    0.0820    0.6020 C   0  0  2  0  0  0  0  0  0  0  0  0
   -2.6520   -0.9290   -0.4070 C   0  0  0  0  0  0  0  0  0  0  0  0
   -3.7670   -0.0620   -1.0120 C   0  0  0  0  0  0  0  0  0  0  0  0
   -3.1730    1.1920   -0.9300 O   0  0  0  0  0  0  0  0  0  0  0  0
   -2.5940    1.2970    0.2180 O   0  0  0  0  0  0  0  0  0  0  0  0
  1  2  2  0
  2  3  1  0
  9  2  1  6
  3  4  1  0
  4  5  1  0
  5  6  1  0
  6  7  1  0
  7  8  1  0
  9 10  1  0
  9 13  1  0
 10 11  1  0
 11 12  1  0
 12 13  1  0
M  END
