
     RDKit          3D

 13 13  0  0  0  0  0  0  0  0999 V2000
   -3.5740    0.9110    1.9640 O   0  0  0  0  0  0  0  0  0  0  0  0
   -2.8820    0.7170    0.9330 C   0  0  0  0  0  0  0  0  0  0  0  0
   -1.9900   -0.4580    0.9210 C   0  0  0  0  0  0  0  0  0  0  0  0
   -1.0530   -0.4670   -0.2600 C   0  0  2  0  0  0  0  0  0  0  0  0
    0.1520    0.1560    0.0450 O   0  0  0  0  0  0  0  0  0  0  0  0
    1.1980   -0.7490   -0.0830 C   0  0  0  0  0  0  0  0  0  0  0  0
    2.5210   -0.1200    0.2370 C   0  0  0  0  0  0  0  0  0  0  0  0
    2.7300    0.9500   -0.6580 O   0  0  0  0  0  0  0  0  0  0  0  0
    3.8760    1.5400   -0.4250 O   0  0  0  0  0  0  0  0  0  0  0  0
   -1.6430    0.2170   -1.4420 C   0  0  0  0  0  0  0  0  0  0  0  0
   -1.4620   -0.2700   -2.6000 O   0  0  0  0  0  0  0  0  0  0  0  0
   -2.3910    1.3790   -1.3090 O   0  0  0  0  0  0  0  0  0  0  0  0
   -3.0100    1.6170   -0.1060 O   0  0  0  0  0  0  0  0  0  0  0  0
  1  2  2  0
  2  3  1  0
  2 13  1  0
  3  4  1  0
  4  5  1  1
  4 10  1  0
  5  6  1  0
  6  7  1  0
  7  8  1  0
  8  9  1  0
 10 11  2  0
 10 12  1  0
 12 13  1  0
M  END
