
     RDKit          3D

 13 13  0  0  0  0  0  0  0  0999 V2000
    2.5890   -0.7770   -1.2210 O   0  0  0  0  0  0  0  0  0  0  0  0
    1.5510   -0.4920   -0.7870 C   0  0  0  0  0  0  0  0  0  0  0  0
    1.4620   -0.1960    0.6130 O   0  0  0  0  0  0  0  0  0  0  0  0
    2.7130   -0.3640    1.3940 C   0  0  0  0  0  0  0  0  0  0  0  0
    3.7120    0.1390    0.6220 O   0  0  0  0  0  0  0  0  0  0  0  0
    0.2980   -0.3800   -1.5920 C   0  0  2  0  0  0  0  0  0  0  0  0
   -0.0720    1.1570   -1.3760 C   0  0  0  0  0  0  0  0  0  0  0  0
   -1.4200    1.0370   -1.2220 O   0  0  0  0  0  0  0  0  0  0  0  0
   -1.5200   -0.1310   -0.5120 C   0  0  1  0  0  0  0  0  0  0  0  0
   -2.8980   -0.4740   -0.0230 C   0  0  0  0  0  0  0  0  0  0  0  0
   -3.0790    0.6220    0.9050 O   0  0  0  0  0  0  0  0  0  0  0  0
   -3.4220    0.0760    2.0870 O   0  0  0  0  0  0  0  0  0  0  0  0
   -0.7630   -1.0420   -1.0270 O   0  0  0  0  0  0  0  0  0  0  0  0
  1  2  2  0
  2  3  1  0
  6  2  1  1
  3  4  1  0
  4  5  1  0
  6  7  1  0
  6 13  1  0
  7  8  1  0
  8  9  1  0
  9 10  1  6
  9 13  1  0
 10 11  1  0
 11 12  1  0
M  END
