
     RDKit          3D

 10  9  0  0  0  0  0  0  0  0999 V2000
   -3.1670   -0.6510    0.8900 C   0  0  0  0  0  0  0  0  0  0  0  0
   -1.9070   -0.7060    0.3150 O   0  0  0  0  0  0  0  0  0  0  0  0
   -1.6400    0.5180   -0.2840 C   0  0  0  0  0  0  0  0  0  0  0  0
   -0.2730    0.5320   -0.9360 C   0  0  0  0  0  0  0  0  0  0  0  0
    0.8260    0.2730    0.0760 C   0  0  2  0  0  0  0  0  0  0  0  0
    0.8110    1.2450    1.0590 O   0  0  0  0  0  0  0  0  0  0  0  0
    2.0830    0.2730   -0.6710 N   0  0  0  0  0  0  0  0  0  0  0  0
    2.8530   -0.9220   -0.7040 C   0  0  0  0  0  0  0  0  0  0  0  0
    2.4110   -1.9220   -0.0850 O   0  0  0  0  0  0  0  0  0  0  0  0
    4.0690   -0.9940   -1.4010 O   0  0  0  0  0  0  0  0  0  0  0  0
  1  2  1  0
  2  3  1  0
  3  4  1  0
  4  5  1  0
  5  6  1  1
  5  7  1  0
  7  8  1  0
  8  9  2  0
  8 10  1  0
M  END
