
     RDKit          3D

 16 17  0  0  0  0  0  0  0  0999 V2000
    5.2740    1.1900   -0.6990 O   0  0  0  0  0  0  0  0  0  0  0  0
    4.0580    0.9820   -0.4070 C   0  0  0  0  0  0  0  0  0  0  0  0
    3.1550    2.0180   -0.2560 C   0  0  0  0  0  0  0  0  0  0  0  0
    1.8610    1.7200    0.0590 C   0  0  0  0  0  0  0  0  0  0  0  0
    1.4020    0.4690    0.2330 N   0  0  0  0  0  0  0  0  0  0  0  0
    0.0800    0.0970    0.5580 C   0  0  1  0  0  0  0  0  0  0  0  0
   -0.9720    1.1150    0.4290 C   0  0  0  0  0  0  0  0  0  0  0  0
   -2.1860    0.2910   -0.0190 C   0  0  2  0  0  0  0  0  0  0  0  0
   -3.2870    0.5300    0.7930 O   0  0  0  0  0  0  0  0  0  0  0  0
   -1.6570   -1.1190    0.1620 C   0  0  1  0  0  0  0  0  0  0  0  0
   -2.3440   -2.0960   -0.7680 C   0  0  0  0  0  0  0  0  0  0  0  0
   -3.6780   -2.2780   -0.4290 O   0  0  0  0  0  0  0  0  0  0  0  0
   -0.3370   -0.9910   -0.2390 O   0  0  0  0  0  0  0  0  0  0  0  0
    2.3130   -0.5320    0.0780 C   0  0  0  0  0  0  0  0  0  0  0  0
    1.9820   -1.7420    0.2210 O   0  0  0  0  0  0  0  0  0  0  0  0
    3.5920   -0.2800   -0.2300 N   0  0  0  0  0  0  0  0  0  0  0  0
  1  2  2  0
  2  3  1  0
  2 16  1  0
  3  4  2  0
  4  5  1  0
  6  5  1  6
  5 14  1  0
  6  7  1  0
  6 13  1  0
  7  8  1  0
  8  9  1  1
  8 10  1  0
 10 11  1  6
 10 13  1  0
 11 12  1  0
 14 15  2  0
 14 16  1  0
M  END
