
     RDKit          3D

 10  9  0  0  0  0  0  0  0  0999 V2000
   -3.2430    0.5600    0.4280 C   0  0  0  0  0  0  0  0  0  0  0  0
   -2.3190    0.2280    1.3410 O   0  0  0  0  0  0  0  0  0  0  0  0
   -1.0170    0.2380    1.0040 C   0  0  0  0  0  0  0  0  0  0  0  0
   -0.6930   -0.6350   -0.2080 C   0  0  1  0  0  0  0  0  0  0  0  0
   -1.2820    0.0260   -1.3340 O   0  0  0  0  0  0  0  0  0  0  0  0
    0.7480   -0.8430   -0.4500 C   0  0  2  0  0  0  0  0  0  0  0  0
    1.2500   -1.8090    0.4560 O   0  0  0  0  0  0  0  0  0  0  0  0
    1.5190    0.4050   -0.1220 C   0  0  0  0  0  0  0  0  0  0  0  0
    2.9240    0.0720   -0.4360 N   0  0  0  0  0  0  0  0  0  0  0  0
    3.6690    0.3360    0.6480 O   0  0  0  0  0  0  0  0  0  0  0  0
  1  2  1  0
  2  3  1  0
  3  4  1  0
  4  5  1  6
  4  6  1  0
  6  7  1  1
  6  8  1  0
  8  9  1  0
  9 10  1  0
M  END
