
     RDKit          3D

 11 11  0  0  0  0  0  0  0  0999 V2000
   -3.2330    0.1460   -0.1760 N   0  0  0  0  0  0  0  0  0  0  0  0
   -1.8990    0.2320    0.4450 C   0  0  0  0  0  0  0  0  0  0  0  0
   -0.9150   -0.1570   -0.6000 C   0  0  2  0  0  0  0  0  0  0  0  0
   -1.2230   -1.4700   -0.9980 O   0  0  0  0  0  0  0  0  0  0  0  0
    0.5140   -0.1020   -0.2020 C   0  0  2  0  0  0  0  0  0  0  0  0
    0.7590   -0.9740    0.8600 O   0  0  0  0  0  0  0  0  0  0  0  0
    2.1150   -1.2910    0.8190 C   0  0  0  0  0  0  0  0  0  0  0  0
    2.9070   -0.1530    0.2670 C   0  0  0  0  0  0  0  0  0  0  0  0
    2.3870    1.0960    0.5320 O   0  0  0  0  0  0  0  0  0  0  0  0
    1.0520    1.2310    0.1530 C   0  0  2  0  0  0  0  0  0  0  0  0
    0.4150    1.8750    1.1810 O   0  0  0  0  0  0  0  0  0  0  0  0
  1  2  1  0
  2  3  1  0
  3  4  1  1
  3  5  1  0
  5  6  1  1
  5 10  1  0
  6  7  1  0
  7  8  1  0
  8  9  1  0
  9 10  1  0
 10 11  1  1
M  CHG  1   1   1
M  END
