
     RDKit          3D

 10  9  0  0  0  0  0  0  0  0999 V2000
    4.1420    0.1000    0.6630 N   0  0  0  0  0  0  0  0  0  0  0  0
    2.8520   -0.3410    0.7080 O   0  0  0  0  0  0  0  0  0  0  0  0
    2.3920   -0.3240   -0.6080 C   0  0  0  0  0  0  0  0  0  0  0  0
    0.9610   -0.7920   -0.7220 C   0  0  2  0  0  0  0  0  0  0  0  0
    0.5800   -0.7490   -2.0410 O   0  0  0  0  0  0  0  0  0  0  0  0
    0.0270    0.0860    0.1130 C   0  0  0  0  0  0  0  0  0  0  0  0
   -1.2430   -0.4240   -0.0450 O   0  0  0  0  0  0  0  0  0  0  0  0
   -2.2200    0.2490    0.6420 C   0  0  0  0  0  0  0  0  0  0  0  0
   -3.5460   -0.4450    0.3540 C   0  0  0  0  0  0  0  0  0  0  0  0
   -4.5200    0.2590    1.0640 O   0  0  0  0  0  0  0  0  0  0  0  0
  1  2  1  0
  2  3  1  0
  3  4  1  0
  4  5  1  6
  4  6  1  0
  6  7  1  0
  7  8  1  0
  8  9  1  0
  9 10  1  0
M  END
