
     RDKit          3D

 31 33  0  0  0  0  0  0  0  0999 V2000
   -1.3890   -2.5630   -1.1150 C   0  0  0  0  0  0  0  0  0  0  0  0
   -0.6010   -1.3700   -0.6380 C   0  0  0  0  0  0  0  0  0  0  0  0
    0.7480   -1.4080   -0.7080 C   0  0  0  0  0  0  0  0  0  0  0  0
    1.5460   -0.3550   -0.2540 C   0  0  0  0  0  0  0  0  0  0  0  0
    2.9840   -0.5890   -0.2690 C   0  0  0  0  0  0  0  0  0  0  0  0
    3.5350   -1.8790   -0.2570 C   0  0  0  0  0  0  0  0  0  0  0  0
    4.8110   -1.8360   -0.3370 O   0  0  0  0  0  0  0  0  0  0  0  0
    5.1650   -0.5330   -0.4070 C   0  0  0  0  0  0  0  0  0  0  0  0
    6.5330   -0.1070   -0.4980 C   0  0  0  0  0  0  0  0  0  0  0  0
    7.6680   -0.8830   -0.4070 C   0  0  0  0  0  0  0  0  0  0  0  0
    8.7750   -0.1260   -0.5870 N   0  0  0  0  0  0  0  0  0  0  0  0
    8.3750    1.1170   -0.7860 N   0  0  0  0  0  0  0  0  0  0  0  0
    7.0140    1.1780   -0.7390 C   0  0  0  0  0  0  0  0  0  0  0  0
    4.0430    0.1980   -0.3690 N   0  0  0  0  0  0  0  0  0  0  0  0
    4.0810    1.5890   -0.5010 O   0  0  0  0  0  0  0  0  0  0  0  0
    0.9380    0.7270    0.2660 N   0  0  0  0  0  0  0  0  0  0  0  0
    1.6790    1.8250    0.8280 C   0  0  0  0  0  0  0  0  0  0  0  0
   -0.4350    0.7470    0.3240 C   0  0  0  0  0  0  0  0  0  0  0  0
   -0.9030    1.8370    0.8110 O   0  0  0  0  0  0  0  0  0  0  0  0
   -1.2430   -0.2670   -0.1030 C   0  0  0  0  0  0  0  0  0  0  0  0
   -2.7640   -0.1540   -0.1180 C   0  0  2  0  0  0  0  0  0  0  0  0
   -2.9500    0.9580   -0.9820 N   0  0  0  0  0  0  0  0  0  0  0  0
   -4.0490    1.5930   -1.4170 C   0  0  0  0  0  0  0  0  0  0  0  0
   -5.0250    1.0020   -2.3800 C   0  0  1  0  0  0  0  0  0  0  0  0
   -5.6410   -0.1360   -2.0220 F   0  0  0  0  0  0  0  0  0  0  0  0
   -6.0360    2.0070   -2.5020 F   0  0  0  0  0  0  0  0  0  0  0  0
   -4.3530    0.8520   -4.0260 Cl  0  0  0  0  0  0  0  0  0  0  0  0
   -3.2410   -0.0470    1.2480 C   0  0  2  0  0  0  0  0  0  0  0  0
   -4.8210   -0.0690    1.2220 C   0  0  0  0  0  0  0  0  0  0  0  0
   -2.9270    0.9400    2.2630 C   0  0  0  0  0  0  0  0  0  0  0  0
   -2.9550   -1.4200    1.9210 C   0  0  0  0  0  0  0  0  0  0  0  0
  1  2  1  0
  2  3  1  0
  2 20  2  0
  3  4  2  0
  4  5  1  0
  4 16  1  0
  5  6  2  0
  5 14  1  0
  6  7  1  0
  7  8  1  0
  8  9  1  0
  8 14  2  0
  9 10  1  0
  9 13  2  0
 10 11  2  0
 11 12  1  0
 12 13  1  0
 14 15  1  0
 16 17  1  0
 16 18  1  0
 18 19  2  0
 18 20  1  0
 20 21  1  0
 21 22  1  6
 21 28  1  0
 22 23  1  0
 23 24  1  0
 24 25  1  1
 24 26  1  0
 24 27  1  0
 28 29  1  6
 28 30  1  0
 28 31  1  0
M  CHG  2  14   1  15  -1
M  END
