
     RDKit          3D

 32 33  0  0  0  0  0  0  0  0999 V2000
   -6.9020    0.5060   -1.7080 C   0  0  0  0  0  0  0  0  0  0  0  0
   -6.6450    0.8500   -0.4830 C   0  0  0  0  0  0  0  0  0  0  0  0
   -5.3140    0.7970    0.1930 C   0  0  0  0  0  0  0  0  0  0  0  0
   -4.2750    0.3270   -0.6070 N   0  0  0  0  0  0  0  0  0  0  0  0
   -2.9020    0.1380   -0.3210 C   0  0  0  0  0  0  0  0  0  0  0  0
   -2.4660    0.3970    0.8060 O   0  0  0  0  0  0  0  0  0  0  0  0
   -1.9510   -0.3860   -1.3980 C   0  0  2  0  0  0  0  0  0  0  0  0
   -2.5160   -1.5890   -2.0670 C   0  0  0  0  0  0  0  0  0  0  0  0
   -1.6100   -2.1460   -3.1430 C   0  0  2  0  0  0  0  0  0  0  0  0
   -1.3510   -1.2370   -4.1530 F   0  0  0  0  0  0  0  0  0  0  0  0
   -2.3080   -3.1940   -3.7420 F   0  0  0  0  0  0  0  0  0  0  0  0
   -0.4630   -2.7130   -2.6190 F   0  0  0  0  0  0  0  0  0  0  0  0
   -0.6520   -0.5670   -0.8410 N   0  0  0  0  0  0  0  0  0  0  0  0
    0.4200    0.3750   -0.8590 C   0  0  0  0  0  0  0  0  0  0  0  0
    0.2260    1.4820   -1.4050 O   0  0  0  0  0  0  0  0  0  0  0  0
    1.7120    0.0760   -0.2590 C   0  0  0  0  0  0  0  0  0  0  0  0
    2.6080    1.0700   -0.1270 N   0  0  0  0  0  0  0  0  0  0  0  0
    3.8220    0.8810    0.4060 C   0  0  0  0  0  0  0  0  0  0  0  0
    4.7470    1.9890    0.5280 C   0  0  0  0  0  0  0  0  0  0  0  0
    4.5550    3.2410    0.1370 C   0  0  0  0  0  0  0  0  0  0  0  0
    5.7560    4.0500    0.4510 C   0  0  0  0  0  0  0  0  0  0  0  0
    6.6780    3.1020    1.0880 C   0  0  0  0  0  0  0  0  0  0  0  0
    6.0790    1.9280    1.1210 C   0  0  0  0  0  0  0  0  0  0  0  0
    4.1560   -0.3430    0.8220 N   0  0  0  0  0  0  0  0  0  0  0  0
    3.2900   -1.3960    0.7150 C   0  0  0  0  0  0  0  0  0  0  0  0
    3.6690   -2.6820    1.1480 N   0  0  0  0  0  0  0  0  0  0  0  0
    4.4300   -3.5170    0.2370 C   0  0  0  0  0  0  0  0  0  0  0  0
    3.3290   -3.1920    2.4350 C   0  0  0  0  0  0  0  0  0  0  0  0
    2.0910   -1.1290    0.1700 N   0  0  0  0  0  0  0  0  0  0  0  0
   -5.3290    1.1950    1.4170 C   0  0  0  0  0  0  0  0  0  0  0  0
   -6.6430    1.6580    2.0150 C   0  0  0  0  0  0  0  0  0  0  0  0
   -3.9790    1.2670    2.4830 Cl  0  0  0  0  0  0  0  0  0  0  0  0
  1  2  2  0
  2  3  1  0
  3  4  1  0
  3 30  2  3
  4  5  1  0
  5  6  2  0
  5  7  1  0
  7  8  1  1
  7 13  1  0
  8  9  1  0
  9 10  1  6
  9 11  1  0
  9 12  1  0
 13 14  1  0
 14 15  2  0
 14 16  1  0
 16 17  2  0
 16 29  1  0
 17 18  1  0
 18 19  1  0
 18 24  2  0
 19 20  2  0
 19 23  1  0
 20 21  1  0
 21 22  1  0
 22 23  2  0
 24 25  1  0
 25 26  1  0
 25 29  2  0
 26 27  1  0
 26 28  1  0
 30 31  1  0
 30 32  1  0
M  END
