
     RDKit          3D

 32 34  0  0  0  0  0  0  0  0999 V2000
    3.2630   -0.4800   -3.1740 C   0  0  0  0  0  0  0  0  0  0  0  0
    3.0050   -0.1860   -1.6750 C   0  0  0  0  0  0  0  0  0  0  0  0
    4.0350    0.0310   -0.9320 C   0  0  0  0  0  0  0  0  0  0  0  0
    4.0130    0.3090    0.5020 C   0  0  0  0  0  0  0  0  0  0  0  0
    5.0400   -0.5980    1.2240 C   0  0  0  0  0  0  0  0  0  0  0  0
    6.4140   -0.3710    0.7430 C   0  0  0  0  0  0  0  0  0  0  0  0
    6.8660   -0.8000   -0.3310 O   0  0  0  0  0  0  0  0  0  0  0  0
    7.2840    0.3770    1.5360 O   0  0  0  0  0  0  0  0  0  0  0  0
    8.6110    0.6140    1.1070 C   0  0  1  0  0  0  0  0  0  0  0  0
    9.2830   -0.5970    0.9340 F   0  0  0  0  0  0  0  0  0  0  0  0
    8.6510    1.3550   -0.0530 F   0  0  0  0  0  0  0  0  0  0  0  0
    9.2950    1.3090    2.0880 F   0  0  0  0  0  0  0  0  0  0  0  0
    1.6080   -0.0350   -1.3000 C   0  0  0  0  0  0  0  0  0  0  0  0
    1.1040    0.6900   -0.2690 C   0  0  0  0  0  0  0  0  0  0  0  0
   -0.1970    0.6720    0.0400 N   0  0  0  0  0  0  0  0  0  0  0  0
   -1.1270   -0.0350   -0.6050 C   0  0  0  0  0  0  0  0  0  0  0  0
   -2.5020   -0.0950   -0.3100 N   0  0  0  0  0  0  0  0  0  0  0  0
   -3.1220    0.5960    0.7230 C   0  0  0  0  0  0  0  0  0  0  0  0
   -2.4900    1.4810    1.5730 C   0  0  0  0  0  0  0  0  0  0  0  0
   -3.1640    2.1470    2.6000 C   0  0  0  0  0  0  0  0  0  0  0  0
   -2.2610    3.2530    3.6240 Cl  0  0  0  0  0  0  0  0  0  0  0  0
   -4.5090    1.9230    2.7820 C   0  0  0  0  0  0  0  0  0  0  0  0
   -5.1280    1.0450    1.9350 C   0  0  0  0  0  0  0  0  0  0  0  0
   -4.4880    0.3770    0.9160 C   0  0  0  0  0  0  0  0  0  0  0  0
   -5.1760   -0.4900    0.0740 N   0  0  0  0  0  0  0  0  0  0  0  0
   -5.5990   -0.4660   -1.3030 C   0  0  0  0  0  0  0  0  0  0  0  0
   -7.0170   -1.0610   -1.1190 C   0  0  0  0  0  0  0  0  0  0  0  0
   -6.6990   -2.1060   -0.1560 N   0  0  0  0  0  0  0  0  0  0  0  0
   -5.6560   -1.7860    0.5220 C   0  0  0  0  0  0  0  0  0  0  0  0
   -5.1210   -2.6020    1.5190 O   0  0  0  0  0  0  0  0  0  0  0  0
   -0.6160   -0.7690   -1.6550 N   0  0  0  0  0  0  0  0  0  0  0  0
    0.6530   -0.7930   -2.0080 C   0  0  0  0  0  0  0  0  0  0  0  0
  1  2  1  0
  2  3  2  3
  2 13  1  0
  3  4  1  0
  4  5  1  0
  5  6  1  0
  6  7  2  0
  6  8  1  0
  8  9  1  0
  9 10  1  6
  9 11  1  0
  9 12  1  0
 13 14  2  0
 13 32  1  0
 14 15  1  0
 15 16  2  0
 16 17  1  0
 16 31  1  0
 17 18  1  0
 18 19  2  0
 18 24  1  0
 19 20  1  0
 20 21  1  0
 20 22  2  0
 22 23  1  0
 23 24  2  0
 24 25  1  0
 25 26  1  0
 25 29  1  0
 26 27  1  0
 27 28  1  0
 28 29  2  0
 29 30  1  0
 31 32  2  0
M  CHG  2  28   1  30  -1
M  END
