
     RDKit          3D

 32 34  0  0  0  0  0  0  0  0999 V2000
   -7.8440   -6.4710   -0.4600 N   0  0  0  0  0  0  0  0  0  0  0  0
   -7.3190   -6.1930   -1.4100 C   0  0  0  0  0  0  0  0  0  0  0  0
   -6.6360   -5.8070   -2.6830 C   0  0  0  0  0  0  0  0  0  0  0  0
   -5.2820   -5.5010   -2.3090 N   0  0  0  0  0  0  0  0  0  0  0  0
   -4.8430   -4.2250   -2.0490 C   0  0  0  0  0  0  0  0  0  0  0  0
   -3.5350   -4.2570   -1.6570 C   0  0  0  0  0  0  0  0  0  0  0  0
   -2.5870   -3.2700   -1.3010 N   0  0  0  0  0  0  0  0  0  0  0  0
   -2.4660   -1.9910   -1.8760 C   0  0  0  0  0  0  0  0  0  0  0  0
   -3.3010   -1.7370   -2.8200 O   0  0  0  0  0  0  0  0  0  0  0  0
   -1.5050   -0.9490   -1.5080 C   0  0  0  0  0  0  0  0  0  0  0  0
   -0.6900   -1.2150   -0.4900 C   0  0  0  0  0  0  0  0  0  0  0  0
    0.3170   -0.2870   -0.0020 C   0  0  0  0  0  0  0  0  0  0  0  0
    1.0800   -0.6210    1.0100 C   0  0  0  0  0  0  0  0  0  0  0  0
    2.1320    0.2230    1.6060 C   0  0  0  0  0  0  0  0  0  0  0  0
    2.2840    1.5270    0.9160 C   0  0  0  0  0  0  0  0  0  0  0  0
    3.2140    2.3880    1.3480 N   0  0  0  0  0  0  0  0  0  0  0  0
    3.4410    3.6010    0.8280 C   0  0  0  0  0  0  0  0  0  0  0  0
    4.4440    4.4960    1.2930 N   0  0  0  0  0  0  0  0  0  0  0  0
    5.3780    4.1750    2.3390 C   0  0  0  0  0  0  0  0  0  0  0  0
    4.6760    3.8630    3.6310 C   0  0  0  0  0  0  0  0  0  0  0  0
    3.8790    5.0750    4.0730 C   0  0  0  0  0  0  0  0  0  0  0  0
    3.0520    4.7410    5.6100 Cl  0  0  0  0  0  0  0  0  0  0  0  0
    2.6420    3.9830   -0.2340 C   0  0  0  0  0  0  0  0  0  0  0  0
    1.6620    3.1160   -0.7160 C   0  0  0  0  0  0  0  0  0  0  0  0
    1.4690    1.8610   -0.1370 C   0  0  0  0  0  0  0  0  0  0  0  0
    0.5230    0.9690   -0.5680 O   0  0  0  0  0  0  0  0  0  0  0  0
   -1.4660    0.2930   -2.3050 C   0  0  2  0  0  0  0  0  0  0  0  0
   -2.4840    0.2060   -3.2640 F   0  0  0  0  0  0  0  0  0  0  0  0
   -0.2420    0.4870   -2.9220 F   0  0  0  0  0  0  0  0  0  0  0  0
   -1.7700    1.4110   -1.5490 F   0  0  0  0  0  0  0  0  0  0  0  0
   -3.2000   -5.6240   -1.6950 C   0  0  0  0  0  0  0  0  0  0  0  0
   -4.2640   -6.3120   -2.0870 N   0  0  0  0  0  0  0  0  0  0  0  0
  1  2  3  0
  2  3  1  0
  3  4  1  0
  4  5  1  0
  4 32  1  0
  5  6  2  0
  6  7  1  0
  6 31  1  0
  7  8  1  0
  8  9  2  0
  8 10  1  0
 10 11  2  3
 10 27  1  0
 11 12  1  0
 12 13  2  0
 12 26  1  0
 13 14  1  0
 14 15  1  0
 15 16  2  0
 15 25  1  0
 16 17  1  0
 17 18  1  0
 17 23  2  0
 18 19  1  0
 19 20  1  0
 20 21  1  0
 21 22  1  0
 23 24  1  0
 24 25  2  0
 25 26  1  0
 27 28  1  6
 27 29  1  0
 27 30  1  0
 31 32  2  0
M  END
