
     RDKit          3D

 32 33  0  0  0  0  0  0  0  0999 V2000
   -2.5370    1.8340    4.3150 C   0  0  0  0  0  0  0  0  0  0  0  0
   -2.4540    1.7050    2.8170 C   0  0  2  0  0  0  0  0  0  0  0  0
   -2.6430    0.2900    2.4240 C   0  0  0  0  0  0  0  0  0  0  0  0
   -1.9650   -0.0710    1.1140 C   0  0  0  0  0  0  0  0  0  0  0  0
   -1.8190    1.1460    0.3670 N   0  0  0  0  0  0  0  0  0  0  0  0
   -2.5050    1.3800   -0.8300 C   0  0  0  0  0  0  0  0  0  0  0  0
   -3.4840    2.3760   -0.9110 C   0  0  0  0  0  0  0  0  0  0  0  0
   -4.1670    2.6040   -2.0700 C   0  0  0  0  0  0  0  0  0  0  0  0
   -3.8780    1.8490   -3.1330 N   0  0  0  0  0  0  0  0  0  0  0  0
   -2.9220    0.8610   -3.0900 C   0  0  0  0  0  0  0  0  0  0  0  0
   -2.2140    0.6000   -1.9490 C   0  0  0  0  0  0  0  0  0  0  0  0
   -1.2320   -0.3830   -1.8800 N   0  0  0  0  0  0  0  0  0  0  0  0
   -0.7910   -1.2740   -2.8660 C   0  0  0  0  0  0  0  0  0  0  0  0
   -1.3390   -1.2130   -4.0150 O   0  0  0  0  0  0  0  0  0  0  0  0
    0.2340   -2.2500   -2.6760 N   0  0  0  0  0  0  0  0  0  0  0  0
    0.6270   -3.1140   -3.7830 C   0  0  0  0  0  0  0  0  0  0  0  0
    0.9050   -2.4460   -1.4290 C   0  0  0  0  0  0  0  0  0  0  0  0
    2.1350   -1.5880   -1.2790 C   0  0  0  0  0  0  0  0  0  0  0  0
    2.3800   -0.8400   -2.2110 O   0  0  0  0  0  0  0  0  0  0  0  0
    2.8800   -1.7150   -0.1130 N   0  0  0  0  0  0  0  0  0  0  0  0
    4.0580   -1.0020    0.2080 C   0  0  0  0  0  0  0  0  0  0  0  0
    4.6890   -1.2910    1.5150 C   0  0  0  0  0  0  0  0  0  0  0  0
    4.1150   -2.2150    2.2920 C   0  0  0  0  0  0  0  0  0  0  0  0
    4.7420   -2.4650    3.5270 O   0  0  0  0  0  0  0  0  0  0  0  0
    5.9060   -0.6310    2.0370 C   0  0  2  0  0  0  0  0  0  0  0  0
    5.6920    0.6940    2.2080 F   0  0  0  0  0  0  0  0  0  0  0  0
    7.0070   -0.9280    1.3120 F   0  0  0  0  0  0  0  0  0  0  0  0
    4.5820   -0.1170   -0.5870 C   0  0  0  0  0  0  0  0  0  0  0  0
    4.0310    0.2000   -1.8100 F   0  0  0  0  0  0  0  0  0  0  0  0
    6.0600    0.8050   -0.2610 Cl  0  0  0  0  0  0  0  0  0  0  0  0
   -0.9360    2.1720    0.8900 C   0  0  0  0  0  0  0  0  0  0  0  0
   -1.1520    2.3370    2.3840 C   0  0  0  0  0  0  0  0  0  0  0  0
  2  1  1  1
  2  3  1  0
  2 32  1  0
  3  4  1  0
  4  5  1  0
  5  6  1  0
  5 31  1  0
  6  7  2  0
  6 11  1  0
  7  8  1  0
  8  9  2  0
  9 10  1  0
 10 11  2  0
 11 12  1  0
 12 13  1  0
 13 14  2  0
 13 15  1  0
 15 16  1  0
 15 17  1  0
 17 18  1  0
 18 19  2  0
 18 20  1  0
 20 21  1  0
 21 22  1  0
 21 28  2  3
 22 23  2  3
 22 25  1  0
 23 24  1  0
 25 26  1  6
 25 27  1  0
 28 29  1  0
 28 30  1  0
 31 32  1  0
M  CHG  2   9   1  24  -1
M  END
