
     RDKit          3D

 31 33  0  0  0  0  0  0  0  0999 V2000
    5.7930   -3.8550   -0.5370 C   0  0  0  0  0  0  0  0  0  0  0  0
    4.3700   -3.5110   -0.6370 C   0  0  0  0  0  0  0  0  0  0  0  0
    3.4960   -4.4040   -0.7760 O   0  0  0  0  0  0  0  0  0  0  0  0
    3.9180   -2.1270   -0.5800 C   0  0  0  0  0  0  0  0  0  0  0  0
    4.8400   -1.0990   -0.4310 C   0  0  0  0  0  0  0  0  0  0  0  0
    4.4030    0.2080   -0.3790 C   0  0  0  0  0  0  0  0  0  0  0  0
    5.3630    1.1780   -0.2320 F   0  0  0  0  0  0  0  0  0  0  0  0
    3.0640    0.5190   -0.4710 C   0  0  0  0  0  0  0  0  0  0  0  0
    2.1220   -0.4650   -0.6160 C   0  0  0  0  0  0  0  0  0  0  0  0
    0.6910   -0.2430   -0.6710 C   0  0  0  0  0  0  0  0  0  0  0  0
    0.0010   -1.2910   -1.0260 O   0  0  0  0  0  0  0  0  0  0  0  0
   -0.0270    0.9110   -0.4040 N   0  0  0  0  0  0  0  0  0  0  0  0
   -1.4140    0.9830   -0.8820 C   0  0  0  0  0  0  0  0  0  0  0  0
   -2.4200    0.4650    0.0360 C   0  0  0  0  0  0  0  0  0  0  0  0
   -3.7980    0.4450   -0.1730 C   0  0  0  0  0  0  0  0  0  0  0  0
   -4.5770    1.0730   -1.6020 Cl  0  0  0  0  0  0  0  0  0  0  0  0
   -4.3810   -0.1170    0.8710 N   0  0  0  0  0  0  0  0  0  0  0  0
   -5.8060   -0.3540    1.0850 C   0  0  0  0  0  0  0  0  0  0  0  0
   -6.1840   -1.7370    0.5470 C   0  0  0  0  0  0  0  0  0  0  0  0
   -5.8930   -1.8090   -0.8550 N   0  0  0  0  0  0  0  0  0  0  0  0
   -3.4310   -0.4440    1.7120 N   0  0  0  0  0  0  0  0  0  0  0  0
   -2.2400   -0.1010    1.2250 N   0  0  0  0  0  0  0  0  0  0  0  0
   -1.0970   -0.3510    1.9100 O   0  0  0  0  0  0  0  0  0  0  0  0
    0.5120    2.0550    0.2350 C   0  0  0  0  0  0  0  0  0  0  0  0
    1.0150    2.0700    1.5240 C   0  0  0  0  0  0  0  0  0  0  0  0
    1.4980    3.2500    2.0810 C   0  0  0  0  0  0  0  0  0  0  0  0
    1.5020    4.4410    1.3970 C   0  0  0  0  0  0  0  0  0  0  0  0
    1.9850    5.5760    1.9760 F   0  0  0  0  0  0  0  0  0  0  0  0
    1.0070    4.4480    0.1120 C   0  0  0  0  0  0  0  0  0  0  0  0
    0.5310    3.2890   -0.4390 C   0  0  0  0  0  0  0  0  0  0  0  0
    2.6030   -1.7840   -0.6660 C   0  0  0  0  0  0  0  0  0  0  0  0
  1  2  1  0
  2  3  2  0
  2  4  1  0
  4  5  2  0
  4 31  1  0
  5  6  1  0
  6  7  1  0
  6  8  2  0
  8  9  1  0
  9 10  1  0
  9 31  2  0
 10 11  2  0
 10 12  1  0
 12 13  1  0
 12 24  1  0
 13 14  1  0
 14 15  2  0
 14 22  1  0
 15 16  1  0
 15 17  1  0
 17 18  1  0
 17 21  1  0
 18 19  1  0
 19 20  1  0
 21 22  2  0
 22 23  1  0
 24 25  2  0
 24 30  1  0
 25 26  1  0
 26 27  2  0
 27 28  1  0
 27 29  1  0
 29 30  2  0
M  CHG  2  22   1  23  -1
M  END
