
     RDKit          3D

 32 34  0  0  0  0  0  0  0  0999 V2000
   -6.5140   -2.3680    0.4580 C   0  0  0  0  0  0  0  0  0  0  0  0
   -5.6940   -2.0230    1.6500 C   0  0  0  0  0  0  0  0  0  0  0  0
   -5.0380   -0.7230    1.6930 C   0  0  0  0  0  0  0  0  0  0  0  0
   -3.9700   -0.4350    0.6520 C   0  0  2  0  0  0  0  0  0  0  0  0
   -3.4030    0.9430    0.9010 C   0  0  0  0  0  0  0  0  0  0  0  0
   -2.3280    1.3400   -0.0260 C   0  0  1  0  0  0  0  0  0  0  0  0
   -1.1890    0.4000    0.0480 C   0  0  0  0  0  0  0  0  0  0  0  0
   -1.1660   -0.4220    0.9940 O   0  0  0  0  0  0  0  0  0  0  0  0
   -0.1320    0.3640   -0.8630 N   0  0  0  0  0  0  0  0  0  0  0  0
    0.9590   -0.6140   -0.6960 C   0  0  2  0  0  0  0  0  0  0  0  0
    2.1830    0.2030   -0.4450 C   0  0  0  0  0  0  0  0  0  0  0  0
    3.4200   -0.5590   -0.2210 C   0  0  0  0  0  0  0  0  0  0  0  0
    3.5890   -1.8830   -0.1740 N   0  0  0  0  0  0  0  0  0  0  0  0
    4.9190   -2.0750    0.0600 C   0  0  0  0  0  0  0  0  0  0  0  0
    5.5000   -0.8270    0.1440 C   0  0  0  0  0  0  0  0  0  0  0  0
    6.9250   -0.5530    0.3880 C   0  0  0  0  0  0  0  0  0  0  0  0
    7.3800    0.7400    0.4500 C   0  0  0  0  0  0  0  0  0  0  0  0
    8.7230    0.9860    0.6800 C   0  0  0  0  0  0  0  0  0  0  0  0
    9.5810   -0.0590    0.8430 C   0  0  0  0  0  0  0  0  0  0  0  0
    9.1420   -1.3640    0.7840 C   0  0  0  0  0  0  0  0  0  0  0  0
    7.8170   -1.6030    0.5570 C   0  0  0  0  0  0  0  0  0  0  0  0
    4.5800    0.0640   -0.0270 O   0  0  0  0  0  0  0  0  0  0  0  0
    1.0250   -1.4970   -1.8680 C   0  0  0  0  0  0  0  0  0  0  0  0
    0.2000   -1.3010   -2.8120 O   0  0  0  0  0  0  0  0  0  0  0  0
    1.9080   -2.5350   -2.0510 O   0  0  0  0  0  0  0  0  0  0  0  0
   -2.7540    1.7770   -1.3560 C   0  0  0  0  0  0  0  0  0  0  0  0
   -3.4980    3.0860   -1.0320 C   0  0  0  0  0  0  0  0  0  0  0  0
   -2.7210    3.7110    0.1080 C   0  0  0  0  0  0  0  0  0  0  0  0
   -1.7070    2.6910    0.4970 C   0  0  0  0  0  0  0  0  0  0  0  0
   -4.4820   -0.6240   -0.7070 C   0  0  0  0  0  0  0  0  0  0  0  0
   -3.9090   -1.4000   -1.5520 O   0  0  0  0  0  0  0  0  0  0  0  0
   -5.6230    0.0520   -1.1110 O   0  0  0  0  0  0  0  0  0  0  0  0
  1  2  1  0
  2  3  1  0
  4  3  1  1
  4  5  1  0
  4 30  1  0
  6  5  1  1
  6  7  1  0
  6 26  1  0
  6 29  1  0
  7  8  2  0
  7  9  1  0
  9 10  1  0
 10 11  1  6
 10 23  1  0
 11 12  1  0
 12 13  2  0
 12 22  1  0
 13 14  1  0
 14 15  2  0
 15 16  1  0
 15 22  1  0
 16 17  2  0
 16 21  1  0
 17 18  1  0
 18 19  2  0
 19 20  1  0
 20 21  2  0
 23 24  2  0
 23 25  1  0
 26 27  1  0
 27 28  1  0
 28 29  1  0
 30 31  2  0
 30 32  1  0
M  END
