
     RDKit          3D

 22 24  0  0  0  0  0  0  0  0999 V2000
   -6.0070   -0.4090   -1.2290 C   0  0  0  0  0  0  0  0  0  0  0  0
   -5.7920   -0.8820    0.1100 N   0  0  0  0  0  0  0  0  0  0  0  0
   -4.4600   -1.3690    0.3170 C   0  0  0  0  0  0  0  0  0  0  0  0
   -3.4890   -0.2350    0.3050 C   0  0  0  0  0  0  0  0  0  0  0  0
   -3.6610    1.0580   -0.0150 N   0  0  0  0  0  0  0  0  0  0  0  0
   -2.4800    1.6710    0.1370 C   0  0  0  0  0  0  0  0  0  0  0  0
   -1.6060    0.7120    0.5540 C   0  0  0  0  0  0  0  0  0  0  0  0
   -0.1390    0.8840    0.8690 C   0  0  0  0  0  0  0  0  0  0  0  0
    0.6000    0.1330   -0.0700 N   0  0  0  0  0  0  0  0  0  0  0  0
    0.4800    0.5370   -1.3910 C   0  0  0  0  0  0  0  0  0  0  0  0
    1.7350   -0.4790    0.4440 C   0  0  1  0  0  0  0  0  0  0  0  0
    2.1690   -1.7310   -0.2920 C   0  0  0  0  0  0  0  0  0  0  0  0
    3.5990   -1.6610   -0.3090 N   0  0  0  0  0  0  0  0  0  0  0  0
    4.0300   -0.3820    0.1700 C   0  0  0  0  0  0  0  0  0  0  0  0
    2.9510    0.3520    0.6200 C   0  0  0  0  0  0  0  0  0  0  0  0
    3.1030    1.6060    1.1270 C   0  0  0  0  0  0  0  0  0  0  0  0
    4.3790    2.1500    1.1870 C   0  0  0  0  0  0  0  0  0  0  0  0
    4.6260    3.9060    1.8990 Br  0  0  0  0  0  0  0  0  0  0  0  0
    5.4360    1.4510    0.7550 N   0  0  0  0  0  0  0  0  0  0  0  0
    5.2780    0.1930    0.2480 C   0  0  0  0  0  0  0  0  0  0  0  0
    6.4140   -0.5460   -0.2050 N   0  0  0  0  0  0  0  0  0  0  0  0
   -2.2300   -0.4210    0.6470 O   0  0  0  0  0  0  0  0  0  0  0  0
  1  2  1  0
  2  3  1  0
  3  4  1  0
  4  5  2  0
  4 22  1  0
  5  6  1  0
  6  7  2  0
  7  8  1  0
  7 22  1  0
  8  9  1  0
  9 10  1  0
 11  9  1  6
 11 12  1  0
 11 15  1  0
 12 13  1  0
 13 14  1  0
 14 15  2  0
 14 20  1  0
 15 16  1  0
 16 17  2  0
 17 18  1  0
 17 19  1  0
 19 20  2  0
 20 21  1  0
M  CHG  1   2   1
M  END
