
     RDKit          3D

 22 24  0  0  0  0  0  0  0  0999 V2000
   -4.0670   -0.8280   -1.2040 N   0  0  0  0  0  0  0  0  0  0  0  0
   -3.3060    0.4110   -1.0220 C   0  0  1  0  0  0  0  0  0  0  0  0
   -4.1550    1.5820   -1.0400 C   0  0  0  0  0  0  0  0  0  0  0  0
   -4.1960    2.4970   -0.0960 C   0  0  0  0  0  0  0  0  0  0  0  0
   -3.3540    2.3790    1.0730 C   0  0  0  0  0  0  0  0  0  0  0  0
   -2.5340    1.3330    1.1960 C   0  0  0  0  0  0  0  0  0  0  0  0
   -1.4540    1.2740    2.7850 Br  0  0  0  0  0  0  0  0  0  0  0  0
   -2.4500    0.2740    0.2220 C   0  0  0  0  0  0  0  0  0  0  0  0
   -1.7020   -0.8070    0.2870 C   0  0  0  0  0  0  0  0  0  0  0  0
   -0.7660   -1.3270    1.2580 C   0  0  0  0  0  0  0  0  0  0  0  0
    0.5480   -1.4360    0.6380 N   0  0  0  0  0  0  0  0  0  0  0  0
    0.9950   -2.5060   -0.0180 C   0  0  0  0  0  0  0  0  0  0  0  0
    2.2440   -2.2520   -0.4600 N   0  0  0  0  0  0  0  0  0  0  0  0
    2.5880   -1.0350   -0.0900 N   0  0  0  0  0  0  0  0  0  0  0  0
    3.8410   -0.4400   -0.3870 C   0  0  0  0  0  0  0  0  0  0  0  0
    4.9410   -0.8010    0.3060 N   0  0  0  0  0  0  0  0  0  0  0  0
    6.1490   -0.2620    0.0560 C   0  0  0  0  0  0  0  0  0  0  0  0
    6.3080    0.6910   -0.9290 C   0  0  0  0  0  0  0  0  0  0  0  0
    5.1760    1.0560   -1.6360 C   0  0  0  0  0  0  0  0  0  0  0  0
    3.9890    0.4890   -1.3510 N   0  0  0  0  0  0  0  0  0  0  0  0
    1.5420   -0.5340    0.5870 C   0  0  0  0  0  0  0  0  0  0  0  0
    1.5160    0.6090    1.0890 O   0  0  0  0  0  0  0  0  0  0  0  0
  2  1  1  1
  2  3  1  0
  2  8  1  0
  3  4  2  0
  4  5  1  0
  5  6  2  0
  6  7  1  0
  6  8  1  0
  8  9  2  3
  9 10  1  0
 10 11  1  0
 11 12  1  0
 11 21  1  0
 12 13  2  0
 13 14  1  0
 14 15  1  0
 14 21  1  0
 15 16  2  0
 15 20  1  0
 16 17  1  0
 17 18  2  0
 18 19  1  0
 19 20  2  0
 21 22  2  0
M  CHG  1   1   1
M  END
