
     RDKit          3D

 22 24  0  0  0  0  0  0  0  0999 V2000
    6.1020   -0.7820    0.2890 N   0  0  0  0  0  0  0  0  0  0  0  0
    5.4290   -0.3080   -0.8940 C   0  0  0  0  0  0  0  0  0  0  0  0
    4.2700    0.5780   -0.4380 C   0  0  1  0  0  0  0  0  0  0  0  0
    3.5210    1.0910   -1.5400 N   0  0  0  0  0  0  0  0  0  0  0  0
    2.3090    0.6080   -1.4500 C   0  0  0  0  0  0  0  0  0  0  0  0
    0.9090    0.9920   -2.6940 Br  0  0  0  0  0  0  0  0  0  0  0  0
    2.2260   -0.2300   -0.2970 C   0  0  0  0  0  0  0  0  0  0  0  0
    1.0800   -1.0150    0.2850 C   0  0  0  0  0  0  0  0  0  0  0  0
    0.6420   -0.3450    1.4290 N   0  0  0  0  0  0  0  0  0  0  0  0
   -0.1270    0.8420    1.2700 C   0  0  0  0  0  0  0  0  0  0  0  0
   -1.4670    0.3960    0.8430 C   0  0  0  0  0  0  0  0  0  0  0  0
   -2.0000    0.7880   -0.2750 C   0  0  0  0  0  0  0  0  0  0  0  0
   -3.2900    0.4560   -0.8530 N   0  0  0  0  0  0  0  0  0  0  0  0
   -3.5900    0.4450   -2.1570 C   0  0  0  0  0  0  0  0  0  0  0  0
   -4.8960    0.0720   -2.3290 C   0  0  0  0  0  0  0  0  0  0  0  0
   -5.4170   -0.1560   -1.0760 C   0  0  0  0  0  0  0  0  0  0  0  0
   -4.3910    0.0910   -0.1650 C   0  0  0  0  0  0  0  0  0  0  0  0
   -4.6080   -0.0540    1.2980 C   0  0  0  0  0  0  0  0  0  0  0  0
   -3.4920   -0.7430    1.9930 C   0  0  0  0  0  0  0  0  0  0  0  0
   -3.8180   -1.6240    2.8310 O   0  0  0  0  0  0  0  0  0  0  0  0
   -2.0940   -0.4870    1.7870 N   0  0  0  0  0  0  0  0  0  0  0  0
    3.3830   -0.2430    0.2920 N   0  0  0  0  0  0  0  0  0  0  0  0
  1  2  1  0
  3  2  1  6
  3  4  1  0
  3 22  1  0
  4  5  2  0
  5  6  1  0
  5  7  1  0
  7  8  1  0
  7 22  2  0
  8  9  1  0
  9 10  1  0
 10 11  1  0
 11 12  2  0
 11 21  1  0
 12 13  1  0
 13 14  1  0
 13 17  1  0
 14 15  2  0
 15 16  1  0
 16 17  2  0
 17 18  1  0
 18 19  1  0
 19 20  2  0
 19 21  1  0
M  CHG  1   1   1
M  END
