
     RDKit          3D

 22 23  0  0  0  0  0  0  0  0999 V2000
    5.8820    0.4070   -1.1590 C   0  0  0  0  0  0  0  0  0  0  0  0
    5.2040   -0.0960    0.0510 C   0  0  0  0  0  0  0  0  0  0  0  0
    3.7890   -0.3600   -0.1430 N   0  0  0  0  0  0  0  0  0  0  0  0
    3.0150    0.8560   -0.4120 C   0  0  0  0  0  0  0  0  0  0  0  0
    2.1060    1.1580    0.7080 C   0  0  0  0  0  0  0  0  0  0  0  0
    2.3690    2.3010    1.4450 N   0  0  0  0  0  0  0  0  0  0  0  0
    1.5240    2.3470    2.4350 N   0  0  0  0  0  0  0  0  0  0  0  0
    0.7520    1.2910    2.3410 C   0  0  0  0  0  0  0  0  0  0  0  0
   -0.1710    1.0450    3.1730 O   0  0  0  0  0  0  0  0  0  0  0  0
    1.0830    0.5190    1.2670 N   0  0  0  0  0  0  0  0  0  0  0  0
    0.4300   -0.6510    0.9310 C   0  0  0  0  0  0  0  0  0  0  0  0
   -0.6480   -0.8670   -0.0110 C   0  0  1  0  0  0  0  0  0  0  0  0
   -0.9570   -2.3680    0.1240 C   0  0  0  0  0  0  0  0  0  0  0  0
   -1.7130   -2.9290   -1.0280 C   0  0  0  0  0  0  0  0  0  0  0  0
   -2.9630   -2.0180   -1.1480 C   0  0  0  0  0  0  0  0  0  0  0  0
   -2.3850   -0.6750   -1.4580 C   0  0  0  0  0  0  0  0  0  0  0  0
   -1.7420   -0.0420   -0.2890 N   0  0  0  0  0  0  0  0  0  0  0  0
   -2.6400    0.3600    0.7220 C   0  0  0  0  0  0  0  0  0  0  0  0
   -3.5970    1.4050    0.2720 C   0  0  0  0  0  0  0  0  0  0  0  0
   -4.6910    1.1460   -0.6570 N   0  0  0  0  0  0  0  0  0  0  0  0
   -3.6170    2.6510    0.7410 C   0  0  0  0  0  0  0  0  0  0  0  0
   -2.4240    3.2930    2.0580 Br  0  0  0  0  0  0  0  0  0  0  0  0
  1  2  1  0
  2  3  1  0
  3  4  1  0
  4  5  1  0
  5  6  2  0
  5 10  1  0
  6  7  1  0
  7  8  1  0
  8  9  2  0
  8 10  1  0
 10 11  1  0
 12 11  1  1
 12 13  1  0
 12 17  1  0
 13 14  1  0
 14 15  1  0
 15 16  1  0
 16 17  1  0
 17 18  1  0
 18 19  1  0
 19 20  1  0
 19 21  2  3
 21 22  1  0
M  CHG  1  20   1
M  END
