
     RDKit          3D

 22 23  0  0  0  0  0  0  0  0999 V2000
    5.0760    0.9510    0.3530 C   0  0  0  0  0  0  0  0  0  0  0  0
    4.6160   -0.3960    0.1510 N   0  0  0  0  0  0  0  0  0  0  0  0
    3.8000   -0.9210    1.1830 C   0  0  0  0  0  0  0  0  0  0  0  0
    2.3460   -0.6610    1.0860 C   0  0  0  0  0  0  0  0  0  0  0  0
    1.7330   -1.2380   -0.1950 C   0  0  0  0  0  0  0  0  0  0  0  0
    0.2700   -0.9420   -0.2280 C   0  0  0  0  0  0  0  0  0  0  0  0
   -0.2290   -0.2350   -1.2070 N   0  0  0  0  0  0  0  0  0  0  0  0
    0.5340    0.2830   -2.2650 C   0  0  0  0  0  0  0  0  0  0  0  0
    1.1840    1.4680   -2.2460 N   0  0  0  0  0  0  0  0  0  0  0  0
    1.8050    1.6320   -3.4270 C   0  0  0  0  0  0  0  0  0  0  0  0
    1.5230    0.5360   -4.1530 N   0  0  0  0  0  0  0  0  0  0  0  0
    0.7520   -0.2930   -3.4620 N   0  0  0  0  0  0  0  0  0  0  0  0
   -0.5650   -1.4180    0.7850 N   0  0  0  0  0  0  0  0  0  0  0  0
   -2.0260   -1.3600    0.5870 C   0  0  0  0  0  0  0  0  0  0  0  0
   -2.9340   -2.9680    0.2320 Br  0  0  0  0  0  0  0  0  0  0  0  0
   -2.5110   -0.1680    0.6860 C   0  0  0  0  0  0  0  0  0  0  0  0
   -3.8810    0.2580    0.5530 C   0  0  0  0  0  0  0  0  0  0  0  0
   -4.1480    1.5670    0.6990 C   0  0  0  0  0  0  0  0  0  0  0  0
   -5.4940    2.1500    0.5920 C   0  0  0  0  0  0  0  0  0  0  0  0
   -6.4670    1.1970    0.3190 O   0  0  0  0  0  0  0  0  0  0  0  0
   -6.2180   -0.1370    0.1660 C   0  0  0  0  0  0  0  0  0  0  0  0
   -4.9920   -0.6420    0.2680 C   0  0  0  0  0  0  0  0  0  0  0  0
  1  2  1  0
  2  3  1  0
  3  4  1  0
  4  5  1  0
  5  6  1  0
  6  7  2  3
  6 13  1  0
  7  8  1  0
  8  9  2  0
  8 12  1  0
  9 10  1  0
 10 11  2  0
 11 12  1  0
 13 14  1  0
 14 15  1  0
 14 16  2  3
 16 17  1  0
 17 18  2  0
 17 22  1  0
 18 19  1  0
 19 20  1  0
 20 21  1  0
 21 22  2  0
M  CHG  1   2   1
M  END
