
     RDKit          3D

 22 23  0  0  0  0  0  0  0  0999 V2000
    5.9670   -1.9010    0.0850 C   0  0  0  0  0  0  0  0  0  0  0  0
    5.5690   -1.0570    1.1660 N   0  0  0  0  0  0  0  0  0  0  0  0
    4.4940   -0.1460    0.8740 C   0  0  1  0  0  0  0  0  0  0  0  0
    4.8450    0.8380   -0.2050 C   0  0  0  0  0  0  0  0  0  0  0  0
    3.7490    1.0540   -1.2130 C   0  0  0  0  0  0  0  0  0  0  0  0
    2.4670    1.2830   -0.4110 C   0  0  0  0  0  0  0  0  0  0  0  0
    2.1490   -0.0120    0.1750 N   0  0  0  0  0  0  0  0  0  0  0  0
    0.7950   -0.4070    0.2250 C   0  0  0  0  0  0  0  0  0  0  0  0
    0.5040   -1.5120    0.7230 O   0  0  0  0  0  0  0  0  0  0  0  0
   -0.2510    0.4660   -0.2970 C   0  0  0  0  0  0  0  0  0  0  0  0
   -1.6440   -0.1610   -0.1550 C   0  0  0  0  0  0  0  0  0  0  0  0
   -2.6080    0.8260   -0.7200 C   0  0  0  0  0  0  0  0  0  0  0  0
   -4.0240    0.3990   -0.6710 C   0  0  0  0  0  0  0  0  0  0  0  0
   -4.7300    0.1250   -1.7340 N   0  0  0  0  0  0  0  0  0  0  0  0
   -6.0350   -0.2520   -1.3600 C   0  0  0  0  0  0  0  0  0  0  0  0
   -7.0290   -0.5960   -2.0990 N   0  0  0  0  0  0  0  0  0  0  0  0
   -6.0980   -0.1900    0.1160 C   0  0  0  0  0  0  0  0  0  0  0  0
   -7.1080   -0.4590    0.8600 N   0  0  0  0  0  0  0  0  0  0  0  0
   -7.1010   -0.3540    2.7370 Br  0  0  0  0  0  0  0  0  0  0  0  0
   -4.8010    0.2280    0.5080 N   0  0  0  0  0  0  0  0  0  0  0  0
   -4.3270    0.4600    1.8520 C   0  0  0  0  0  0  0  0  0  0  0  0
    3.2060   -0.8650    0.6890 C   0  0  0  0  0  0  0  0  0  0  0  0
  1  2  1  0
  3  2  1  6
  3  4  1  0
  3 22  1  0
  4  5  1  0
  5  6  1  0
  6  7  1  0
  7  8  1  0
  7 22  1  0
  8  9  2  0
  8 10  1  0
 10 11  1  0
 11 12  1  0
 12 13  1  0
 13 14  2  0
 13 20  1  0
 14 15  1  0
 15 16  2  0
 15 17  1  0
 17 18  2  3
 17 20  1  0
 18 19  1  0
 20 21  1  0
M  CHG  1  16   1
M  END
