
     RDKit          3D

 22 23  0  0  0  0  0  0  0  0999 V2000
    7.8070    2.9000    0.7280 N   0  0  0  0  0  0  0  0  0  0  0  0
    6.2160    2.3580    0.5090 C   0  0  0  0  0  0  0  0  0  0  0  0
    5.2920    2.0490    0.3820 C   0  0  0  0  0  0  0  0  0  0  0  0
    4.6290    0.6620    0.7090 C   0  0  0  0  0  0  0  0  0  0  0  0
    3.1420    1.0730    0.7480 O   0  0  0  0  0  0  0  0  0  0  0  0
    2.3690    0.1220    0.3790 N   0  0  0  0  0  0  0  0  0  0  0  0
    2.2630   -0.4740   -0.6760 C   0  0  0  0  0  0  0  0  0  0  0  0
    2.8370   -0.4610   -1.9090 N   0  0  0  0  0  0  0  0  0  0  0  0
    0.9670   -1.3890   -0.6110 C   0  0  1  0  0  0  0  0  0  0  0  0
    0.8330   -1.6790    0.8530 C   0  0  0  0  0  0  0  0  0  0  0  0
   -0.2740   -2.6900    1.0160 C   0  0  0  0  0  0  0  0  0  0  0  0
   -0.9840   -2.8210   -0.3050 C   0  0  0  0  0  0  0  0  0  0  0  0
   -1.4440   -1.5540   -0.8590 N   0  0  0  0  0  0  0  0  0  0  0  0
   -2.2150   -0.8940    0.0990 C   0  0  0  0  0  0  0  0  0  0  0  0
   -3.2880    0.0490   -0.3290 C   0  0  0  0  0  0  0  0  0  0  0  0
   -4.6350   -0.1780   -0.1250 C   0  0  0  0  0  0  0  0  0  0  0  0
   -5.2860    0.9700   -0.3520 N   0  0  0  0  0  0  0  0  0  0  0  0
   -4.3750    1.8980   -0.6750 C   0  0  0  0  0  0  0  0  0  0  0  0
   -4.7070    3.3620   -0.7150 C   0  0  0  0  0  0  0  0  0  0  0  0
   -3.1020    4.4090   -0.8720 Br  0  0  0  0  0  0  0  0  0  0  0  0
   -3.1500    1.3390   -0.6660 N   0  0  0  0  0  0  0  0  0  0  0  0
   -0.2060   -0.7910   -1.2230 C   0  0  0  0  0  0  0  0  0  0  0  0
  1  2  3  0
  2  3  1  0
  3  4  1  0
  4  5  1  0
  5  6  1  0
  6  7  2  3
  7  8  1  0
  9  7  1  1
  9 10  1  0
  9 22  1  0
 10 11  1  0
 11 12  1  0
 12 13  1  0
 13 14  1  0
 13 22  1  0
 14 15  1  0
 15 16  2  0
 15 21  1  0
 16 17  1  0
 17 18  1  0
 18 19  1  0
 18 21  2  0
 19 20  1  0
M  CHG  1  21   1
M  END
