
     RDKit          3D

 22 24  0  0  0  0  0  0  0  0999 V2000
   -5.5900   -1.4710   -0.5420 C   0  0  0  0  0  0  0  0  0  0  0  0
   -4.6800   -0.4090   -0.1750 N   0  0  1  0  0  0  0  0  0  0  0  0
   -4.4690   -0.4280    1.2560 C   0  0  0  0  0  0  0  0  0  0  0  0
   -3.4420    0.6550    1.5590 C   0  0  0  0  0  0  0  0  0  0  0  0
   -2.1080    0.1480    1.0800 C   0  0  2  0  0  0  0  0  0  0  0  0
   -1.1700    1.2390    0.7690 C   0  0  0  0  0  0  0  0  0  0  0  0
   -1.4500    2.4550    0.8890 O   0  0  0  0  0  0  0  0  0  0  0  0
    0.1380    0.8730    0.3030 N   0  0  0  0  0  0  0  0  0  0  0  0
    1.1080    1.8900   -0.0200 C   0  0  0  0  0  0  0  0  0  0  0  0
    2.3560    1.2280   -0.4700 C   0  0  0  0  0  0  0  0  0  0  0  0
    3.4100    0.8470    0.3400 C   0  0  0  0  0  0  0  0  0  0  0  0
    4.3610    0.2740   -0.4610 C   0  0  0  0  0  0  0  0  0  0  0  0
    5.6440   -0.2680   -0.0010 C   0  0  0  0  0  0  0  0  0  0  0  0
    6.1240   -0.3020    1.2900 C   0  0  0  0  0  0  0  0  0  0  0  0
    7.3450   -0.8890    1.2580 N   0  0  0  0  0  0  0  0  0  0  0  0
    7.6470   -1.2220    0.0010 N   0  0  0  0  0  0  0  0  0  0  0  0
    6.6190   -0.8500   -0.7800 C   0  0  0  0  0  0  0  0  0  0  0  0
    6.5200   -1.0860   -2.6610 Br  0  0  0  0  0  0  0  0  0  0  0  0
    3.8790    0.3160   -1.7050 N   0  0  0  0  0  0  0  0  0  0  0  0
    2.6790    0.8850   -1.7240 N   0  0  0  0  0  0  0  0  0  0  0  0
   -2.2590   -0.8380   -0.0570 C   0  0  0  0  0  0  0  0  0  0  0  0
   -3.4570   -0.5290   -0.9210 C   0  0  0  0  0  0  0  0  0  0  0  0
  2  1  1  1
  2  3  1  0
  2 22  1  0
  3  4  1  0
  4  5  1  0
  5  6  1  6
  5 21  1  0
  6  7  2  0
  6  8  1  0
  8  9  1  0
  9 10  1  0
 10 11  2  0
 10 20  1  0
 11 12  1  0
 12 13  1  0
 12 19  2  0
 13 14  1  0
 13 17  2  0
 14 15  2  0
 15 16  1  0
 16 17  1  0
 17 18  1  0
 19 20  1  0
 21 22  1  0
M  CHG  1   2   1
M  END
