
     RDKit          3D

 33 34  0  0  0  0  0  0  0  0999 V2000
    8.8460    3.5760   -1.6160 C   0  0  0  0  0  0  0  0  0  0  0  0
    7.7490    3.2770   -2.6080 C   0  0  0  0  0  0  0  0  0  0  0  0
    6.4520    3.4510   -2.1080 O   0  0  0  0  0  0  0  0  0  0  0  0
    6.0020    2.6870   -1.0510 C   0  0  0  0  0  0  0  0  0  0  0  0
    4.7080    2.8780   -0.5430 C   0  0  0  0  0  0  0  0  0  0  0  0
    4.2080    2.1450    0.5070 C   0  0  0  0  0  0  0  0  0  0  0  0
    4.9710    1.1640    1.1240 C   0  0  0  0  0  0  0  0  0  0  0  0
    4.4340    0.3800    2.2190 C   0  0  0  0  0  0  0  0  0  0  0  0
    3.2110   -0.1140    2.1740 C   0  0  0  0  0  0  0  0  0  0  0  0
    2.2440    0.0010    1.1390 N   0  0  0  0  0  0  0  0  0  0  0  0
    0.9110   -0.2860    1.7080 C   0  0  1  0  0  0  0  0  0  0  0  0
    0.1520   -1.0040    0.5980 C   0  0  0  0  0  0  0  0  0  0  0  0
    0.9050   -2.1480    0.1130 C   0  0  0  0  0  0  0  0  0  0  0  0
    0.3610   -3.2540   -0.6580 C   0  0  0  0  0  0  0  0  0  0  0  0
   -0.6950   -4.0650    0.0200 C   0  0  0  0  0  0  0  0  0  0  0  0
   -0.0760   -4.6380    1.2230 N   0  0  0  0  0  0  0  0  0  0  0  0
   -1.0270   -0.5990    0.2780 C   0  0  0  0  0  0  0  0  0  0  0  0
   -1.6360    0.5720    1.0170 C   0  0  0  0  0  0  0  0  0  0  0  0
   -1.8250   -1.1070   -0.8130 N   0  0  0  0  0  0  0  0  0  0  0  0
   -3.1510   -0.6390   -1.1340 C   0  0  0  0  0  0  0  0  0  0  0  0
   -3.6510    0.2510   -0.4280 O   0  0  0  0  0  0  0  0  0  0  0  0
   -3.8570   -1.1930   -2.2370 N   0  0  0  0  0  0  0  0  0  0  0  0
   -5.1710   -0.8590   -2.6510 C   0  0  0  0  0  0  0  0  0  0  0  0
   -6.3020   -1.1550   -1.7770 C   0  0  0  0  0  0  0  0  0  0  0  0
   -6.5250   -0.5210   -0.4780 C   0  0  0  0  0  0  0  0  0  0  0  0
   -6.7510    0.9720   -0.4870 C   0  0  0  0  0  0  0  0  0  0  0  0
   -6.9340    1.4060    0.9500 C   0  0  0  0  0  0  0  0  0  0  0  0
   -7.1580    2.8590    0.9690 N   0  0  0  0  0  0  0  0  0  0  0  0
    1.2710   -1.2120    2.7680 N   0  0  0  0  0  0  0  0  0  0  0  0
    2.5760   -0.9070    3.2370 C   0  0  0  0  0  0  0  0  0  0  0  0
    3.1320   -1.2190    4.3210 O   0  0  0  0  0  0  0  0  0  0  0  0
    6.2430    0.9640    0.6360 C   0  0  0  0  0  0  0  0  0  0  0  0
    6.7300    1.7060   -0.4160 C   0  0  0  0  0  0  0  0  0  0  0  0
  1  2  1  0
  2  3  1  0
  3  4  1  0
  4  5  2  0
  4 33  1  0
  5  6  1  0
  6  7  2  0
  7  8  1  0
  7 32  1  0
  8  9  2  3
  9 10  1  0
  9 30  1  0
 10 11  1  0
 11 12  1  6
 11 29  1  0
 12 13  1  0
 12 17  2  3
 13 14  1  0
 14 15  1  0
 15 16  1  0
 17 18  1  0
 17 19  1  0
 19 20  1  0
 20 21  2  0
 20 22  1  0
 22 23  1  0
 23 24  1  0
 24 25  1  0
 25 26  1  0
 26 27  1  0
 27 28  1  0
 29 30  1  0
 30 31  2  0
 32 33  2  0
M  CHG  2  16   1  28   1
M  END
