
     RDKit          3D

 33 34  0  0  0  0  0  0  0  0999 V2000
    8.6440    3.2270   -0.2290 C   0  0  0  0  0  0  0  0  0  0  0  0
    7.4900    2.5130   -0.6760 N   0  0  0  0  0  0  0  0  0  0  0  0
    6.2080    2.6250   -0.0000 C   0  0  0  0  0  0  0  0  0  0  0  0
    6.2350    3.3880    0.9770 O   0  0  0  0  0  0  0  0  0  0  0  0
    5.0740    1.9170   -0.4480 C   0  0  0  0  0  0  0  0  0  0  0  0
    5.2810    1.1790   -1.5160 O   0  0  0  0  0  0  0  0  0  0  0  0
    3.6920    1.8620    0.0770 C   0  0  0  0  0  0  0  0  0  0  0  0
    2.8480    1.1140   -0.5620 C   0  0  0  0  0  0  0  0  0  0  0  0
    1.4760    0.8860   -0.2930 C   0  0  0  0  0  0  0  0  0  0  0  0
    0.6400    2.0080   -0.3660 C   0  0  0  0  0  0  0  0  0  0  0  0
   -0.7000    1.8360   -0.1390 C   0  0  0  0  0  0  0  0  0  0  0  0
   -1.5520    3.0720   -0.2300 C   0  0  0  0  0  0  0  0  0  0  0  0
   -1.2540    0.6150    0.1560 C   0  0  0  0  0  0  0  0  0  0  0  0
   -2.7400    0.4800    0.3940 C   0  0  0  0  0  0  0  0  0  0  0  0
   -3.5020    0.5200   -0.8590 C   0  0  0  0  0  0  0  0  0  0  0  0
   -4.9920    0.3690   -0.8040 C   0  0  2  0  0  0  0  0  0  0  0  0
   -5.7570    1.3610   -0.0360 C   0  0  0  0  0  0  0  0  0  0  0  0
   -5.5070    1.4510    1.3750 N   0  0  0  0  0  0  0  0  0  0  0  0
   -5.3730   -1.0390   -0.4470 C   0  0  0  0  0  0  0  0  0  0  0  0
   -6.8240   -1.3490   -0.3430 C   0  0  0  0  0  0  0  0  0  0  0  0
   -7.5120   -0.6370    0.7010 N   0  0  0  0  0  0  0  0  0  0  0  0
   -0.4150   -0.4230    0.2150 N   0  0  0  0  0  0  0  0  0  0  0  0
    0.9200   -0.3600    0.0070 C   0  0  0  0  0  0  0  0  0  0  0  0
    1.7210   -1.4990    0.1290 N   0  0  0  0  0  0  0  0  0  0  0  0
    3.1510   -1.5150    0.2920 C   0  0  0  0  0  0  0  0  0  0  0  0
    1.1040   -2.8410    0.0700 C   0  0  2  0  0  0  0  0  0  0  0  0
    1.2660   -3.5660    1.3620 C   0  0  0  0  0  0  0  0  0  0  0  0
    1.6490   -4.9820    1.0940 C   0  0  0  0  0  0  0  0  0  0  0  0
    2.3970   -4.8900   -0.2180 C   0  0  0  0  0  0  0  0  0  0  0  0
    1.8720   -3.6920   -0.9350 C   0  0  0  0  0  0  0  0  0  0  0  0
    3.3630    2.5220    1.2980 C   0  0  0  0  0  0  0  0  0  0  0  0
    2.0610    2.3190    1.8930 N   0  0  0  0  0  0  0  0  0  0  0  0
    4.1270    3.3040    1.9480 O   0  0  0  0  0  0  0  0  0  0  0  0
  1  2  1  0
  2  3  1  0
  3  4  2  0
  3  5  1  0
  5  6  2  0
  5  7  1  0
  7  8  2  3
  7 31  1  0
  8  9  1  0
  9 10  2  0
  9 23  1  0
 10 11  1  0
 11 12  1  0
 11 13  2  0
 13 14  1  0
 13 22  1  0
 14 15  1  0
 16 15  1  1
 16 17  1  0
 16 19  1  0
 17 18  1  0
 19 20  1  0
 20 21  1  0
 22 23  2  0
 23 24  1  0
 24 25  1  0
 26 24  1  1
 26 27  1  0
 26 30  1  0
 27 28  1  0
 28 29  1  0
 29 30  1  0
 31 32  1  0
 31 33  2  0
M  CHG  2  18   1  22   1
M  END
