
     RDKit          3D

 33 35  0  0  0  0  0  0  0  0999 V2000
   -7.0710   -1.7710   -0.8140 C   0  0  0  0  0  0  0  0  0  0  0  0
   -5.7390   -1.3340   -0.0940 C   0  0  1  0  0  0  0  0  0  0  0  0
   -6.1740   -0.4900    1.0560 C   0  0  0  0  0  0  0  0  0  0  0  0
   -5.1280   -2.6470    0.3470 C   0  0  0  0  0  0  0  0  0  0  0  0
   -4.9310   -0.7090   -1.1360 C   0  0  0  0  0  0  0  0  0  0  0  0
   -3.6140   -0.1330   -0.8780 C   0  0  0  0  0  0  0  0  0  0  0  0
   -3.5460    1.0300   -0.3740 O   0  0  0  0  0  0  0  0  0  0  0  0
   -2.3850   -0.7730   -1.1660 O   0  0  0  0  0  0  0  0  0  0  0  0
   -1.1310   -0.1790   -0.9980 C   0  0  0  0  0  0  0  0  0  0  0  0
   -0.8640    0.4550    0.3070 C   0  0  0  0  0  0  0  0  0  0  0  0
   -1.6710    0.4300    1.2610 O   0  0  0  0  0  0  0  0  0  0  0  0
    0.4010    1.1380    0.4060 N   0  0  0  0  0  0  0  0  0  0  0  0
    1.6250    0.5190    0.1660 C   0  0  0  0  0  0  0  0  0  0  0  0
    1.7750   -0.8430    0.5140 C   0  0  0  0  0  0  0  0  0  0  0  0
    2.9270   -1.5440    0.4340 C   0  0  0  0  0  0  0  0  0  0  0  0
    4.1050   -0.9260   -0.0270 C   0  0  0  0  0  0  0  0  0  0  0  0
    5.3550   -1.6980   -0.0730 C   0  0  0  0  0  0  0  0  0  0  0  0
    6.4570   -1.1900   -0.6020 C   0  0  0  0  0  0  0  0  0  0  0  0
    7.7180   -1.9430   -0.6700 C   0  0  0  0  0  0  0  0  0  0  0  0
    7.7620   -3.1500    0.0160 O   0  0  0  0  0  0  0  0  0  0  0  0
    6.6230   -3.7270    0.5550 C   0  0  0  0  0  0  0  0  0  0  0  0
    5.4960   -3.0330    0.5150 C   0  0  0  0  0  0  0  0  0  0  0  0
    3.9840    0.3980   -0.3730 C   0  0  0  0  0  0  0  0  0  0  0  0
    2.7610    1.0930   -0.2750 C   0  0  0  0  0  0  0  0  0  0  0  0
    0.3420    2.5700    0.5580 C   0  0  0  0  0  0  0  0  0  0  0  0
    1.1550    3.5710    0.5690 N   0  0  0  0  0  0  0  0  0  0  0  0
    0.8310    4.7960    0.6420 C   0  0  0  0  0  0  0  0  0  0  0  0
    1.7590    6.0240    0.6210 C   0  0  2  0  0  0  0  0  0  0  0  0
    1.3580    6.9190    1.5560 F   0  0  0  0  0  0  0  0  0  0  0  0
    1.6550    6.6290   -0.6380 F   0  0  0  0  0  0  0  0  0  0  0  0
    3.0490    5.6820    0.8450 F   0  0  0  0  0  0  0  0  0  0  0  0
   -0.5400    5.1400    0.7080 C   0  0  0  0  0  0  0  0  0  0  0  0
   -1.2590    3.4160    0.6560 S   0  0  0  0  0  0  0  0  0  0  0  0
  2  1  1  6
  2  3  1  0
  2  4  1  0
  2  5  1  0
  5  6  1  0
  6  7  2  0
  6  8  1  0
  8  9  1  0
  9 10  1  0
 10 11  2  0
 10 12  1  0
 12 13  1  0
 12 25  1  0
 13 14  2  0
 13 24  1  0
 14 15  1  0
 15 16  2  0
 16 17  1  0
 16 23  1  0
 17 18  2  0
 17 22  1  0
 18 19  1  0
 19 20  1  0
 20 21  1  0
 21 22  2  0
 23 24  2  0
 25 26  2  0
 25 33  1  0
 26 27  1  0
 27 28  1  0
 27 32  2  0
 28 29  1  1
 28 30  1  0
 28 31  1  0
 32 33  1  0
M  END
