
     RDKit          3D

 32 36  0  0  0  0  0  0  0  0999 V2000
   -3.0320   -4.2840   -0.7560 C   0  0  0  0  0  0  0  0  0  0  0  0
   -2.0980   -3.4490   -1.5210 C   0  0  0  0  0  0  0  0  0  0  0  0
   -1.5540   -3.6970   -2.7540 N   0  0  0  0  0  0  0  0  0  0  0  0
   -0.8010   -2.6460   -3.1290 N   0  0  0  0  0  0  0  0  0  0  0  0
   -0.8330   -1.7240   -2.1870 C   0  0  0  0  0  0  0  0  0  0  0  0
   -1.6360   -2.2460   -1.2070 N   0  0  0  0  0  0  0  0  0  0  0  0
   -1.9440   -1.6070    0.0270 C   0  0  0  0  0  0  0  0  0  0  0  0
   -2.0060   -2.4820    1.0670 C   0  0  0  0  0  0  0  0  0  0  0  0
   -2.2580   -1.9030    2.3200 C   0  0  0  0  0  0  0  0  0  0  0  0
   -2.4220   -0.5250    2.4530 C   0  0  0  0  0  0  0  0  0  0  0  0
   -2.3470    0.3230    1.3740 C   0  0  0  0  0  0  0  0  0  0  0  0
   -2.1070   -0.2150    0.1290 C   0  0  0  0  0  0  0  0  0  0  0  0
   -2.0390    0.7770   -0.9310 C   0  0  0  0  0  0  0  0  0  0  0  0
   -2.9290    1.9210   -0.8470 C   0  0  0  0  0  0  0  0  0  0  0  0
   -2.6910    2.9710   -1.7500 C   0  0  0  0  0  0  0  0  0  0  0  0
   -3.4980    4.0530   -1.8760 C   0  0  0  0  0  0  0  0  0  0  0  0
   -4.6370    4.1480   -1.0700 C   0  0  0  0  0  0  0  0  0  0  0  0
   -4.8760    3.1200   -0.1830 C   0  0  0  0  0  0  0  0  0  0  0  0
   -4.0430    2.0330   -0.0750 C   0  0  0  0  0  0  0  0  0  0  0  0
   -1.1870    0.6900   -1.9110 N   0  0  0  0  0  0  0  0  0  0  0  0
   -0.1760   -0.3640   -2.1540 C   0  0  1  0  0  0  0  0  0  0  0  0
    0.7770   -0.2760   -1.0670 N   0  0  0  0  0  0  0  0  0  0  0  0
    2.1400    0.0350   -1.3280 C   0  0  0  0  0  0  0  0  0  0  0  0
    2.5140    0.2340   -2.5100 O   0  0  0  0  0  0  0  0  0  0  0  0
    3.0520    0.1200   -0.2990 O   0  0  0  0  0  0  0  0  0  0  0  0
    4.4270    0.4290   -0.5190 C   0  0  0  0  0  0  0  0  0  0  0  0
    5.1580    0.4470    0.7920 C   0  0  0  0  0  0  0  0  0  0  0  0
    4.5150    0.1910    1.9850 C   0  0  0  0  0  0  0  0  0  0  0  0
    5.2140    0.2150    3.1790 C   0  0  0  0  0  0  0  0  0  0  0  0
    6.5660    0.4960    3.1890 C   0  0  0  0  0  0  0  0  0  0  0  0
    7.2180    0.7540    2.0010 C   0  0  0  0  0  0  0  0  0  0  0  0
    6.5020    0.7230    0.8360 C   0  0  0  0  0  0  0  0  0  0  0  0
  1  2  1  0
  2  3  2  0
  2  6  1  0
  3  4  1  0
  4  5  2  0
  5  6  1  0
  5 21  1  0
  6  7  1  0
  7  8  2  0
  7 12  1  0
  8  9  1  0
  9 10  2  0
 10 11  1  0
 11 12  2  0
 12 13  1  0
 13 14  1  0
 13 20  2  0
 14 15  2  0
 14 19  1  0
 15 16  1  0
 16 17  2  0
 17 18  1  0
 18 19  2  0
 20 21  1  0
 21 22  1  1
 22 23  1  0
 23 24  2  0
 23 25  1  0
 25 26  1  0
 26 27  1  0
 27 28  2  0
 27 32  1  0
 28 29  1  0
 29 30  2  0
 30 31  1  0
 31 32  2  0
M  END
