
     RDKit          3D

 32 34  0  0  0  0  0  0  0  0999 V2000
    3.8930    2.1470    1.8630 C   0  0  0  0  0  0  0  0  0  0  0  0
    3.9450    0.6970    1.4790 C   0  0  0  0  0  0  0  0  0  0  0  0
    3.2610    0.4480    0.2090 N   0  0  0  0  0  0  0  0  0  0  0  0
    3.9750    0.5250   -0.9900 C   0  0  0  0  0  0  0  0  0  0  0  0
    3.3270    0.2800   -2.3030 C   0  0  0  0  0  0  0  0  0  0  0  0
    5.1970    0.8070   -0.9900 O   0  0  0  0  0  0  0  0  0  0  0  0
    1.8780    0.1360    0.3050 C   0  0  0  0  0  0  0  0  0  0  0  0
    1.4150   -1.1520    0.4250 C   0  0  0  0  0  0  0  0  0  0  0  0
    2.3850   -2.2540    0.4560 C   0  0  0  0  0  0  0  0  0  0  0  0
    0.0730   -1.4630    0.5190 C   0  0  0  0  0  0  0  0  0  0  0  0
   -0.3660   -2.8460    0.6450 C   0  0  0  0  0  0  0  0  0  0  0  0
   -0.6800   -3.7270   -0.4870 C   0  0  0  0  0  0  0  0  0  0  0  0
   -0.4700   -3.2830    1.8420 O   0  0  0  0  0  0  0  0  0  0  0  0
   -0.8320   -0.4230    0.4900 C   0  0  0  0  0  0  0  0  0  0  0  0
   -2.2670   -0.7000    0.5860 C   0  0  0  0  0  0  0  0  0  0  0  0
   -2.8870   -0.7440    1.8180 C   0  0  0  0  0  0  0  0  0  0  0  0
   -4.2420   -1.0040    1.9330 C   0  0  0  0  0  0  0  0  0  0  0  0
   -5.0230   -1.2300    0.8230 C   0  0  0  0  0  0  0  0  0  0  0  0
   -6.3610   -1.4870    0.9240 F   0  0  0  0  0  0  0  0  0  0  0  0
   -4.4080   -1.1870   -0.4100 C   0  0  0  0  0  0  0  0  0  0  0  0
   -5.1820   -1.4100   -1.5000 F   0  0  0  0  0  0  0  0  0  0  0  0
   -3.0440   -0.9250   -0.5310 C   0  0  0  0  0  0  0  0  0  0  0  0
   -0.3890    0.8630    0.3710 N   0  0  0  0  0  0  0  0  0  0  0  0
   -1.3350    1.9230    0.3420 C   0  0  0  0  0  0  0  0  0  0  0  0
   -1.7920    2.4390   -0.7790 C   0  0  0  0  0  0  0  0  0  0  0  0
   -2.7450    3.5070   -0.9770 C   0  0  0  0  0  0  0  0  0  0  0  0
   -2.9080    3.6940   -2.2840 C   0  0  0  0  0  0  0  0  0  0  0  0
   -2.1140    2.8070   -2.9980 O   0  0  0  0  0  0  0  0  0  0  0  0
   -1.3920    1.9960   -2.1030 C   0  0  0  0  0  0  0  0  0  0  0  0
   -0.3320    0.8100   -2.4500 S   0  0  0  0  0  0  0  0  0  0  0  0
    0.9360    1.1420    0.2800 C   0  0  0  0  0  0  0  0  0  0  0  0
    1.2730    2.3500    0.1720 O   0  0  0  0  0  0  0  0  0  0  0  0
  1  2  1  0
  2  3  1  0
  3  4  1  0
  3  7  1  0
  4  5  1  0
  4  6  2  0
  7  8  2  0
  7 31  1  0
  8  9  1  0
  8 10  1  0
 10 11  1  0
 10 14  2  0
 11 12  1  0
 11 13  2  0
 14 15  1  0
 14 23  1  0
 15 16  2  0
 15 22  1  0
 16 17  1  0
 17 18  2  0
 18 19  1  0
 18 20  1  0
 20 21  1  0
 20 22  2  0
 23 24  1  0
 23 31  1  0
 24 25  2  3
 25 26  1  0
 25 29  1  0
 26 27  2  0
 27 28  1  0
 28 29  1  0
 29 30  2  0
 31 32  2  0
M  END
