
     RDKit          3D

 33 35  0  0  0  0  0  0  0  0999 V2000
    0.6990    3.9400    1.2330 C   0  0  0  0  0  0  0  0  0  0  0  0
    0.4600    2.5950    0.9110 O   0  0  0  0  0  0  0  0  0  0  0  0
    0.2690    2.1420   -0.3970 C   0  0  0  0  0  0  0  0  0  0  0  0
    0.3200    3.0010   -1.3050 O   0  0  0  0  0  0  0  0  0  0  0  0
    0.0200    0.6940   -0.6450 C   0  0  2  0  0  0  0  0  0  0  0  0
   -0.1930    0.4420   -2.1340 C   0  0  0  0  0  0  0  0  0  0  0  0
   -1.2770    0.3360    0.0480 C   0  0  0  0  0  0  0  0  0  0  0  0
   -2.3570    1.1680   -0.5400 C   0  0  0  0  0  0  0  0  0  0  0  0
   -2.0840    2.0340   -1.4430 O   0  0  0  0  0  0  0  0  0  0  0  0
   -3.7240    1.0690   -0.1640 N   0  0  0  0  0  0  0  0  0  0  0  0
   -4.1810    0.1480    0.8540 C   0  0  0  0  0  0  0  0  0  0  0  0
   -3.7270    0.3860    2.0640 C   0  0  0  0  0  0  0  0  0  0  0  0
   -4.1780   -0.6380    3.4370 S   0  0  0  0  0  0  0  0  0  0  0  0
   -5.2700   -1.9390    2.8750 C   0  0  0  0  0  0  0  0  0  0  0  0
   -5.5180   -1.8330    1.4350 C   0  0  0  0  0  0  0  0  0  0  0  0
   -5.0660   -0.9580    0.5670 C   0  0  0  0  0  0  0  0  0  0  0  0
   -5.4950   -1.1230   -0.8850 C   0  0  0  0  0  0  0  0  0  0  0  0
   -4.6770    1.9510   -0.8270 C   0  0  1  0  0  0  0  0  0  0  0  0
   -4.5680    1.7990   -2.1940 F   0  0  0  0  0  0  0  0  0  0  0  0
   -5.9410    1.7940   -0.3430 F   0  0  0  0  0  0  0  0  0  0  0  0
   -4.2030    3.2540   -0.5800 F   0  0  0  0  0  0  0  0  0  0  0  0
    1.1320   -0.1680   -0.1310 C   0  0  0  0  0  0  0  0  0  0  0  0
    0.8770   -0.9170    0.8420 O   0  0  0  0  0  0  0  0  0  0  0  0
    2.4120   -0.1640   -0.6880 N   0  0  0  0  0  0  0  0  0  0  0  0
    2.9690    0.5720   -1.8060 C   0  0  0  0  0  0  0  0  0  0  0  0
    4.3790    0.8420   -1.3320 C   0  0  0  0  0  0  0  0  0  0  0  0
    4.7070   -0.4010   -0.5920 C   0  0  0  0  0  0  0  0  0  0  0  0
    5.8870   -1.0310   -0.2380 C   0  0  0  0  0  0  0  0  0  0  0  0
    5.9280   -2.2090    0.4760 C   0  0  0  0  0  0  0  0  0  0  0  0
    7.2400   -2.8570    0.8360 C   0  0  0  0  0  0  0  0  0  0  0  0
    4.7290   -2.7750    0.8480 C   0  0  0  0  0  0  0  0  0  0  0  0
    3.5460   -2.1580    0.5020 C   0  0  0  0  0  0  0  0  0  0  0  0
    3.5090   -0.9750   -0.2150 C   0  0  0  0  0  0  0  0  0  0  0  0
  1  2  1  0
  2  3  1  0
  3  4  2  0
  3  5  1  0
  5  6  1  6
  5  7  1  0
  5 22  1  0
  7  8  1  0
  8  9  2  0
  8 10  1  0
 10 11  1  0
 10 18  1  0
 11 12  2  0
 11 16  1  0
 12 13  1  0
 13 14  1  0
 14 15  1  0
 15 16  2  0
 16 17  1  0
 18 19  1  6
 18 20  1  0
 18 21  1  0
 22 23  2  0
 22 24  1  0
 24 25  1  0
 24 33  1  0
 25 26  1  0
 26 27  1  0
 27 28  2  0
 27 33  1  0
 28 29  1  0
 29 30  1  0
 29 31  2  0
 31 32  1  0
 32 33  2  0
M  END
