
     RDKit          3D

 31 34  0  0  0  0  0  0  0  0999 V2000
    8.4680   -1.5000   -0.4560 C   0  0  0  0  0  0  0  0  0  0  0  0
    7.6090   -0.4590   -1.0730 C   0  0  0  0  0  0  0  0  0  0  0  0
    6.2970   -0.5950   -1.1430 C   0  0  0  0  0  0  0  0  0  0  0  0
    5.6240   -1.7790   -0.6150 C   0  0  0  0  0  0  0  0  0  0  0  0
    4.3350   -1.9570   -0.6620 C   0  0  0  0  0  0  0  0  0  0  0  0
    3.4500   -1.0030   -1.2380 N   0  0  0  0  0  0  0  0  0  0  0  0
    3.5140   -0.7840   -2.6670 C   0  0  0  0  0  0  0  0  0  0  0  0
    2.5590   -0.3110   -0.4460 N   0  0  0  0  0  0  0  0  0  0  0  0
    1.2930   -0.2480   -0.6540 C   0  0  0  0  0  0  0  0  0  0  0  0
    0.4260    0.5020    0.2290 C   0  0  0  0  0  0  0  0  0  0  0  0
   -0.8750    0.5770    0.0300 C   0  0  0  0  0  0  0  0  0  0  0  0
   -1.8290    1.2870    0.8340 C   0  0  0  0  0  0  0  0  0  0  0  0
   -3.2640    1.2710    0.4710 C   0  0  1  0  0  0  0  0  0  0  0  0
   -3.5070    1.8790   -0.8910 C   0  0  0  0  0  0  0  0  0  0  0  0
   -4.9790    1.8210   -1.2390 C   0  0  0  0  0  0  0  0  0  0  0  0
   -5.4780    0.4680   -1.1790 N   0  0  0  0  0  0  0  0  0  0  0  0
   -6.4660   -0.1780   -1.8070 C   0  0  0  0  0  0  0  0  0  0  0  0
   -6.5260   -1.4910   -1.3890 C   0  0  0  0  0  0  0  0  0  0  0  0
   -5.5060   -1.5990   -0.4630 C   0  0  0  0  0  0  0  0  0  0  0  0
   -4.9840   -2.6010    0.3480 C   0  0  0  0  0  0  0  0  0  0  0  0
   -3.9180   -2.3610    1.1890 C   0  0  0  0  0  0  0  0  0  0  0  0
   -3.2590   -3.6390    2.2180 Cl  0  0  0  0  0  0  0  0  0  0  0  0
   -3.3210   -1.1140    1.2620 C   0  0  0  0  0  0  0  0  0  0  0  0
   -3.8260   -0.0990    0.4610 C   0  0  0  0  0  0  0  0  0  0  0  0
   -4.8810   -0.3760   -0.3580 C   0  0  0  0  0  0  0  0  0  0  0  0
   -1.4830    1.9730    1.9090 C   0  0  0  0  0  0  0  0  0  0  0  0
   -0.1720    2.1060    2.4120 N   0  0  0  0  0  0  0  0  0  0  0  0
    0.0760    2.8800    3.5930 C   0  0  0  0  0  0  0  0  0  0  0  0
    1.1180    1.3300    1.5920 S   0  0  1  0  0  0  0  0  0  0  0  0
    1.8860    0.4060    2.4870 O   0  0  0  0  0  0  0  0  0  0  0  0
    2.0700    2.4100    1.1320 O   0  0  0  0  0  0  0  0  0  0  0  0
  1  2  1  0
  2  3  2  3
  3  4  1  0
  4  5  2  3
  5  6  1  0
  6  7  1  0
  6  8  1  0
  8  9  2  3
  9 10  1  0
 10 11  2  0
 10 29  1  0
 11 12  1  0
 13 12  1  6
 12 26  2  0
 13 14  1  0
 13 24  1  0
 14 15  1  0
 15 16  1  0
 16 17  1  0
 16 25  1  0
 17 18  2  0
 18 19  1  0
 19 20  2  0
 19 25  1  0
 20 21  1  0
 21 22  1  0
 21 23  2  0
 23 24  1  0
 24 25  2  0
 26 27  1  0
 27 28  1  0
 29 27  1  1
 29 30  2  0
 29 31  2  0
M  END
