
     RDKit          3D

 31 34  0  0  0  0  0  0  0  0999 V2000
   -3.7490   -4.8270   -0.2260 C   0  0  0  0  0  0  0  0  0  0  0  0
   -3.1860   -3.5030   -0.6460 C   0  0  0  0  0  0  0  0  0  0  0  0
   -3.8680   -2.3930   -0.3420 N   0  0  0  0  0  0  0  0  0  0  0  0
   -3.3650   -1.1580   -0.7190 C   0  0  0  0  0  0  0  0  0  0  0  0
   -4.0740    0.0220   -0.2380 C   0  0  0  0  0  0  0  0  0  0  0  0
   -3.6320    1.2890   -0.0340 C   0  0  0  0  0  0  0  0  0  0  0  0
   -4.7190    2.0370    0.4480 C   0  0  0  0  0  0  0  0  0  0  0  0
   -5.7760    1.1690    0.5130 C   0  0  0  0  0  0  0  0  0  0  0  0
   -7.1590    1.5600    0.9860 C   0  0  1  0  0  0  0  0  0  0  0  0
   -8.1650    1.3610   -0.1180 C   0  0  0  0  0  0  0  0  0  0  0  0
   -7.4810    0.7690    2.2330 C   0  0  0  0  0  0  0  0  0  0  0  0
   -5.3720    0.0180    0.1130 O   0  0  0  0  0  0  0  0  0  0  0  0
   -2.1870   -1.1150   -1.3960 C   0  0  0  0  0  0  0  0  0  0  0  0
   -1.7340    0.1130   -1.9460 N   0  0  0  0  0  0  0  0  0  0  0  0
   -0.3810    0.3560   -2.3770 C   0  0  0  0  0  0  0  0  0  0  0  0
    0.5930    0.4870   -1.3740 N   0  0  0  0  0  0  0  0  0  0  0  0
    0.8390   -0.5260   -0.4490 C   0  0  0  0  0  0  0  0  0  0  0  0
    1.9360   -0.1220    0.5570 C   0  0  0  0  0  0  0  0  0  0  0  0
    3.0310    0.5250   -0.1370 N   0  0  2  0  0  0  0  0  0  0  0  0
    4.1420    0.6050    0.7700 C   0  0  0  0  0  0  0  0  0  0  0  0
    5.0850    1.7450    0.4730 C   0  0  0  0  0  0  0  0  0  0  0  0
    6.1600    1.7200    1.4450 N   0  0  0  0  0  0  0  0  0  0  0  0
    7.1210    0.6640    1.4440 C   0  0  0  0  0  0  0  0  0  0  0  0
    7.3550   -0.1900    0.4680 C   0  0  0  0  0  0  0  0  0  0  0  0
    8.4270   -1.1250    0.8670 C   0  0  0  0  0  0  0  0  0  0  0  0
    8.7880   -0.6940    2.2230 C   0  0  0  0  0  0  0  0  0  0  0  0
    8.0200    0.3370    2.5300 C   0  0  0  0  0  0  0  0  0  0  0  0
    2.5510    1.7930   -0.6140 C   0  0  0  0  0  0  0  0  0  0  0  0
    1.1550    1.7600   -1.1260 C   0  0  0  0  0  0  0  0  0  0  0  0
   -1.4730   -2.2950   -1.7100 C   0  0  0  0  0  0  0  0  0  0  0  0
   -2.0160   -3.4510   -1.3130 N   0  0  0  0  0  0  0  0  0  0  0  0
  1  2  1  0
  2  3  2  0
  2 31  1  0
  3  4  1  0
  4  5  1  0
  4 13  2  0
  5  6  2  0
  5 12  1  0
  6  7  1  0
  7  8  2  0
  8  9  1  0
  8 12  1  0
  9 10  1  6
  9 11  1  0
 13 14  1  0
 13 30  1  0
 14 15  1  0
 15 16  1  0
 16 17  1  0
 16 29  1  0
 17 18  1  0
 18 19  1  0
 19 20  1  1
 19 28  1  0
 20 21  1  0
 21 22  1  0
 22 23  1  0
 23 24  2  0
 23 27  1  0
 24 25  1  0
 25 26  1  0
 26 27  2  0
 28 29  1  0
 30 31  2  0
M  CHG  2  19   1  31   1
M  END
