
     RDKit          3D

 31 35  0  0  0  0  0  0  0  0999 V2000
   -4.1770   -3.2250   -0.6010 C   0  0  0  0  0  0  0  0  0  0  0  0
   -4.3030   -2.0120   -1.5020 C   0  0  0  0  0  0  0  0  0  0  0  0
   -4.6790   -0.8440   -0.7320 N   0  0  0  0  0  0  0  0  0  0  0  0
   -3.7800   -0.0200   -0.1350 C   0  0  0  0  0  0  0  0  0  0  0  0
   -4.2590    1.0560    0.5610 C   0  0  0  0  0  0  0  0  0  0  0  0
   -5.5690    1.3390    0.6830 N   0  0  0  0  0  0  0  0  0  0  0  0
   -6.2890    2.2870    1.2820 N   0  0  0  0  0  0  0  0  0  0  0  0
   -7.5920    2.1110    1.0990 C   0  0  0  0  0  0  0  0  0  0  0  0
   -7.7470    0.9760    0.3310 C   0  0  0  0  0  0  0  0  0  0  0  0
   -6.4630    0.5310    0.0980 C   0  0  0  0  0  0  0  0  0  0  0  0
   -6.0070   -0.5420   -0.5970 C   0  0  0  0  0  0  0  0  0  0  0  0
   -6.8370   -1.3100   -1.1520 O   0  0  0  0  0  0  0  0  0  0  0  0
   -3.2890    1.9630    1.2150 C   0  0  0  0  0  0  0  0  0  0  0  0
   -2.1270    2.0900    0.2600 C   0  0  0  0  0  0  0  0  0  0  0  0
   -1.3830    0.7510    0.0990 C   0  0  2  0  0  0  0  0  0  0  0  0
   -0.3850    0.9760   -0.8750 N   0  0  0  0  0  0  0  0  0  0  0  0
    0.4860   -0.0140   -1.3010 C   0  0  0  0  0  0  0  0  0  0  0  0
    1.5660   -0.5310   -0.4330 C   0  0  1  0  0  0  0  0  0  0  0  0
    1.1020   -1.1540    0.8500 C   0  0  0  0  0  0  0  0  0  0  0  0
    2.3100   -1.6540   -1.1860 C   0  0  0  0  0  0  0  0  0  0  0  0
    2.6030    0.4600   -0.1560 N   0  0  0  0  0  0  0  0  0  0  0  0
    3.7110   -0.2010    0.4910 C   0  0  0  0  0  0  0  0  0  0  0  0
    5.0040    0.5130    0.2830 C   0  0  0  0  0  0  0  0  0  0  0  0
    5.1260    1.6290   -0.4030 C   0  0  0  0  0  0  0  0  0  0  0  0
    6.5600    2.0530   -0.3990 C   0  0  0  0  0  0  0  0  0  0  0  0
    7.2120    0.9940    0.3860 C   0  0  0  0  0  0  0  0  0  0  0  0
    8.4310    0.5740    0.8740 C   0  0  0  0  0  0  0  0  0  0  0  0
    8.2030   -0.5890    1.5670 C   0  0  0  0  0  0  0  0  0  0  0  0
    6.8630   -0.8460    1.4850 C   0  0  0  0  0  0  0  0  0  0  0  0
    6.2810    0.1240    0.7660 N   0  0  0  0  0  0  0  0  0  0  0  0
   -2.3470   -0.3330   -0.2340 C   0  0  0  0  0  0  0  0  0  0  0  0
  1  2  1  0
  2  3  1  0
  3  4  1  0
  3 11  1  0
  4  5  2  0
  4 31  1  0
  5  6  1  0
  5 13  1  0
  6  7  1  0
  6 10  1  0
  7  8  2  0
  8  9  1  0
  9 10  2  0
 10 11  1  0
 11 12  2  0
 13 14  1  0
 14 15  1  0
 15 16  1  6
 15 31  1  0
 16 17  1  0
 17 18  1  0
 18 19  1  1
 18 20  1  0
 18 21  1  0
 21 22  1  0
 22 23  1  0
 23 24  2  0
 23 30  1  0
 24 25  1  0
 25 26  1  0
 26 27  2  0
 26 30  1  0
 27 28  1  0
 28 29  2  0
 29 30  1  0
M  CHG  1  21   1
M  END
