
     RDKit          3D

 31 34  0  0  0  0  0  0  0  0999 V2000
   -3.6600   -0.2860    3.7900 C   0  0  0  0  0  0  0  0  0  0  0  0
   -4.6680   -0.8000    2.8320 C   0  0  0  0  0  0  0  0  0  0  0  0
   -4.3480   -1.3050    1.6540 C   0  0  0  0  0  0  0  0  0  0  0  0
   -2.9560   -1.3680    1.2590 N   0  0  0  0  0  0  0  0  0  0  0  0
   -1.9770   -1.6890    2.1870 N   0  0  0  0  0  0  0  0  0  0  0  0
   -0.7900   -1.6870    1.6620 C   0  0  0  0  0  0  0  0  0  0  0  0
    0.6380   -1.8910    1.9060 C   0  0  0  0  0  0  0  0  0  0  0  0
    1.1760   -2.2020    2.9960 O   0  0  0  0  0  0  0  0  0  0  0  0
    1.2910   -1.6680    0.6640 N   0  0  0  0  0  0  0  0  0  0  0  0
    2.7000   -1.7610    0.4360 C   0  0  0  0  0  0  0  0  0  0  0  0
    3.2280   -2.1710   -0.7650 C   0  0  0  0  0  0  0  0  0  0  0  0
    4.6010   -2.2570   -0.9660 C   0  0  0  0  0  0  0  0  0  0  0  0
    5.4710   -1.9260    0.0520 C   0  0  0  0  0  0  0  0  0  0  0  0
    6.9570   -2.0060   -0.1280 C   0  0  0  0  0  0  0  0  0  0  0  0
    4.9630   -1.5180    1.2480 C   0  0  0  0  0  0  0  0  0  0  0  0
    3.5830   -1.4360    1.4380 C   0  0  0  0  0  0  0  0  0  0  0  0
    0.2880   -1.3450   -0.2750 C   0  0  0  0  0  0  0  0  0  0  0  0
    0.5560   -1.0510   -1.6500 N   0  0  0  0  0  0  0  0  0  0  0  0
    0.8560    0.1370   -2.0240 C   0  0  0  0  0  0  0  0  0  0  0  0
    0.9390    1.2330   -1.0760 C   0  0  0  0  0  0  0  0  0  0  0  0
    1.2490    2.4540   -1.4680 C   0  0  0  0  0  0  0  0  0  0  0  0
    1.5130    2.7350   -2.8420 N   0  0  0  0  0  0  0  0  0  0  0  0
   -0.9030   -1.3490    0.2630 C   0  0  0  0  0  0  0  0  0  0  0  0
   -2.3600   -1.1430    0.0020 C   0  0  2  0  0  0  0  0  0  0  0  0
   -2.6330    0.1650   -0.6080 C   0  0  0  0  0  0  0  0  0  0  0  0
   -2.9480    0.2110   -1.9490 C   0  0  0  0  0  0  0  0  0  0  0  0
   -3.2170    1.4150   -2.5850 C   0  0  0  0  0  0  0  0  0  0  0  0
   -3.1720    2.5590   -1.8870 N   0  0  0  0  0  0  0  0  0  0  0  0
   -2.8670    2.5160   -0.5840 C   0  0  0  0  0  0  0  0  0  0  0  0
   -2.8210    3.7930    0.1820 C   0  0  0  0  0  0  0  0  0  0  0  0
   -2.5940    1.3420    0.0800 C   0  0  0  0  0  0  0  0  0  0  0  0
  1  2  1  0
  2  3  2  3
  3  4  1  0
  4  5  1  0
  4 24  1  0
  5  6  2  0
  6  7  1  0
  6 23  1  0
  7  8  2  0
  7  9  1  0
  9 10  1  0
  9 17  1  0
 10 11  2  0
 10 16  1  0
 11 12  1  0
 12 13  2  0
 13 14  1  0
 13 15  1  0
 15 16  2  0
 17 18  1  0
 17 23  2  0
 18 19  2  3
 19 20  1  0
 20 21  2  3
 21 22  1  0
 23 24  1  0
 24 25  1  1
 25 26  2  0
 25 31  1  0
 26 27  1  0
 27 28  2  0
 28 29  1  0
 29 30  1  0
 29 31  2  0
M  CHG  2  22   1  28   1
M  END
