
     RDKit          3D

 31 35  0  0  0  0  0  0  0  0999 V2000
    3.4040   -3.9150    1.7350 O   0  0  0  0  0  0  0  0  0  0  0  0
    3.2820   -3.6430    0.3740 C   0  0  0  0  0  0  0  0  0  0  0  0
    3.7030   -2.1950    0.2060 C   0  0  0  0  0  0  0  0  0  0  0  0
    4.7300   -1.9540   -0.5810 C   0  0  0  0  0  0  0  0  0  0  0  0
    5.2890   -0.6290   -0.8740 C   0  0  0  0  0  0  0  0  0  0  0  0
    5.3290    0.2850    0.2790 C   0  0  0  0  0  0  0  0  0  0  0  0
    4.9100    1.5460    0.3170 C   0  0  0  0  0  0  0  0  0  0  0  0
    4.3130    2.3780   -0.6870 C   0  0  0  0  0  0  0  0  0  0  0  0
    3.1460    2.8780   -0.9310 C   0  0  0  0  0  0  0  0  0  0  0  0
    1.8520    2.8890   -0.3490 N   0  0  0  0  0  0  0  0  0  0  0  0
    0.9860    3.9830   -0.5210 C   0  0  0  0  0  0  0  0  0  0  0  0
   -0.1680    3.7990    0.1600 C   0  0  0  0  0  0  0  0  0  0  0  0
   -0.0200    2.5760    0.7610 C   0  0  0  0  0  0  0  0  0  0  0  0
    1.2350    2.0340    0.4310 C   0  0  0  0  0  0  0  0  0  0  0  0
    1.5860    0.7420    0.9920 C   0  0  1  0  0  0  0  0  0  0  0  0
    0.4610    0.0120    1.7060 C   0  0  0  0  0  0  0  0  0  0  0  0
   -0.8610    0.4630    1.3100 N   0  0  0  0  0  0  0  0  0  0  0  0
   -1.1760    0.1590   -0.0540 C   0  0  0  0  0  0  0  0  0  0  0  0
   -2.5250    0.6390   -0.3870 C   0  0  0  0  0  0  0  0  0  0  0  0
   -2.8460    1.8510   -0.8760 N   0  0  0  0  0  0  0  0  0  0  0  0
   -4.1280    1.9660   -1.0640 N   0  0  0  0  0  0  0  0  0  0  0  0
   -4.6820    0.7800   -0.6840 C   0  0  0  0  0  0  0  0  0  0  0  0
   -3.6890   -0.0250   -0.2700 N   0  0  0  0  0  0  0  0  0  0  0  0
   -3.8160   -1.3990    0.2290 C   0  0  0  0  0  0  0  0  0  0  0  0
   -4.6550   -2.2500   -0.6920 C   0  0  0  0  0  0  0  0  0  0  0  0
   -6.1270   -1.9070   -0.5090 C   0  0  0  0  0  0  0  0  0  0  0  0
   -6.4110   -0.7620   -1.4770 C   0  0  0  0  0  0  0  0  0  0  0  0
   -6.1410    0.5380   -0.7590 C   0  0  0  0  0  0  0  0  0  0  0  0
   -0.9350    1.8410    1.6560 C   0  0  0  0  0  0  0  0  0  0  0  0
    2.1730   -0.2600    0.1280 N   0  0  0  0  0  0  0  0  0  0  0  0
    2.9180   -1.2090    0.9590 C   0  0  0  0  0  0  0  0  0  0  0  0
  1  2  1  0
  2  3  1  0
  3  4  2  0
  3 31  1  0
  4  5  1  0
  5  6  1  0
  6  7  2  0
  7  8  1  0
  8  9  2  0
  9 10  1  0
 10 11  1  0
 10 14  1  0
 11 12  2  0
 12 13  1  0
 13 14  2  0
 13 29  1  0
 14 15  1  0
 15 16  1  6
 15 30  1  0
 16 17  1  0
 17 18  1  0
 17 29  1  0
 18 19  1  0
 19 20  2  0
 19 23  1  0
 20 21  1  0
 21 22  2  0
 22 23  1  0
 22 28  1  0
 23 24  1  0
 24 25  1  0
 25 26  1  0
 26 27  1  0
 27 28  1  0
 30 31  1  0
M  CHG  1  30   1
M  END
