
     RDKit          3D

 30 33  0  0  0  0  0  0  0  0999 V2000
    5.1250    1.5260    0.8000 C   0  0  0  0  0  0  0  0  0  0  0  0
    5.6660    0.5870   -0.2530 C   0  0  0  0  0  0  0  0  0  0  0  0
    4.6830   -0.4390   -0.5360 N   0  0  0  0  0  0  0  0  0  0  0  0
    3.4070   -0.0240   -1.0270 C   0  0  0  0  0  0  0  0  0  0  0  0
    3.1950    1.1880   -1.1900 O   0  0  0  0  0  0  0  0  0  0  0  0
    2.3740   -1.0210   -1.3310 C   0  0  0  0  0  0  0  0  0  0  0  0
    1.0980   -0.2870   -1.8100 C   0  0  2  0  0  0  0  0  0  0  0  0
    0.6450    0.5590   -0.8100 N   0  0  0  0  0  0  0  0  0  0  0  0
   -0.3220    0.6840    0.0710 C   0  0  0  0  0  0  0  0  0  0  0  0
   -0.2000    1.8630    0.8760 C   0  0  0  0  0  0  0  0  0  0  0  0
   -0.7590    2.2740    2.0260 C   0  0  0  0  0  0  0  0  0  0  0  0
   -0.6940    3.5440    2.5500 C   0  0  0  0  0  0  0  0  0  0  0  0
   -0.0020    4.5230    1.8820 C   0  0  0  0  0  0  0  0  0  0  0  0
    0.1270    6.1570    2.4810 Cl  0  0  0  0  0  0  0  0  0  0  0  0
    0.6110    4.1940    0.6950 C   0  0  0  0  0  0  0  0  0  0  0  0
    0.5120    2.9300    0.2260 C   0  0  0  0  0  0  0  0  0  0  0  0
   -1.4120   -0.2690    0.0840 C   0  0  0  0  0  0  0  0  0  0  0  0
   -2.3000    0.0550    1.0490 C   0  0  0  0  0  0  0  0  0  0  0  0
   -3.2950   -0.8470    1.4070 C   0  0  0  0  0  0  0  0  0  0  0  0
   -4.1800   -0.4700    2.4050 O   0  0  0  0  0  0  0  0  0  0  0  0
   -5.2270   -1.2590    2.8750 C   0  0  0  0  0  0  0  0  0  0  0  0
   -3.3850   -2.0660    0.7830 C   0  0  0  0  0  0  0  0  0  0  0  0
   -2.4870   -2.4270   -0.2290 C   0  0  0  0  0  0  0  0  0  0  0  0
   -1.5330   -1.5180   -0.5610 C   0  0  0  0  0  0  0  0  0  0  0  0
   -0.9160   -1.8620   -1.8310 N   0  0  0  0  0  0  0  0  0  0  0  0
   -1.4550   -2.7380   -2.6760 C   0  0  0  0  0  0  0  0  0  0  0  0
   -2.7190   -3.4660   -2.6710 C   0  0  0  0  0  0  0  0  0  0  0  0
   -0.5640   -2.7560   -3.7470 N   0  0  0  0  0  0  0  0  0  0  0  0
    0.4190   -1.9380   -3.5340 N   0  0  0  0  0  0  0  0  0  0  0  0
    0.2120   -1.3520   -2.3150 C   0  0  0  0  0  0  0  0  0  0  0  0
  1  2  1  0
  2  3  1  0
  3  4  1  0
  4  5  2  0
  4  6  1  0
  7  6  1  1
  7  8  1  0
  7 30  1  0
  8  9  2  0
  9 10  1  0
  9 17  1  0
 10 11  2  0
 10 16  1  0
 11 12  1  0
 12 13  2  0
 13 14  1  0
 13 15  1  0
 15 16  2  0
 17 18  2  0
 17 24  1  0
 18 19  1  0
 19 20  1  0
 19 22  2  0
 20 21  1  0
 22 23  1  0
 23 24  2  0
 24 25  1  0
 25 26  1  0
 25 30  1  0
 26 27  1  0
 26 28  2  0
 28 29  1  0
 29 30  2  0
M  END
