
     RDKit          3D

 31 35  0  0  0  0  0  0  0  0999 V2000
   -5.4550   -0.3680   -3.1400 O   0  0  0  0  0  0  0  0  0  0  0  0
   -5.7430    0.0880   -1.8780 C   0  0  0  0  0  0  0  0  0  0  0  0
   -6.9120    0.7680   -1.6600 C   0  0  0  0  0  0  0  0  0  0  0  0
   -7.1790    1.2160   -0.3860 C   0  0  0  0  0  0  0  0  0  0  0  0
   -6.3240    0.9990    0.6270 N   0  0  0  0  0  0  0  0  0  0  0  0
   -5.1670    0.3380    0.4590 C   0  0  0  0  0  0  0  0  0  0  0  0
   -4.2400    0.0990    1.5640 C   0  0  0  0  0  0  0  0  0  0  0  0
   -3.4120    1.2340    1.9190 N   0  0  0  0  0  0  0  0  0  0  0  0
   -2.5700    1.7170    0.8800 C   0  0  0  0  0  0  0  0  0  0  0  0
   -1.0740    1.5840    1.1970 C   0  0  0  0  0  0  0  0  0  0  0  0
   -0.8760    0.1740    1.6290 C   0  0  0  0  0  0  0  0  0  0  0  0
   -1.7320   -0.2330    2.6600 C   0  0  0  0  0  0  0  0  0  0  0  0
   -1.4280   -1.5220    2.9350 C   0  0  0  0  0  0  0  0  0  0  0  0
   -0.4310   -1.8850    2.1080 N   0  0  0  0  0  0  0  0  0  0  0  0
   -0.0990   -0.8560    1.3180 N   0  0  0  0  0  0  0  0  0  0  0  0
    0.8970   -0.8330    0.3200 C   0  0  0  0  0  0  0  0  0  0  0  0
    0.5950   -0.4110   -0.9480 C   0  0  0  0  0  0  0  0  0  0  0  0
    1.5870   -0.3890   -1.9380 C   0  0  0  0  0  0  0  0  0  0  0  0
    2.8790   -0.7950   -1.6440 C   0  0  0  0  0  0  0  0  0  0  0  0
    3.8640   -0.7670   -2.6670 N   0  0  0  0  0  0  0  0  0  0  0  0
    5.2430   -1.1180   -2.4000 C   0  0  0  0  0  0  0  0  0  0  0  0
    5.8670   -0.1770   -1.4170 C   0  0  0  0  0  0  0  0  0  0  0  0
    5.2160    0.9700   -1.0500 C   0  0  0  0  0  0  0  0  0  0  0  0
    5.8420    1.8100   -0.1290 C   0  0  0  0  0  0  0  0  0  0  0  0
    7.0400    1.5450    0.4040 N   0  0  0  0  0  0  0  0  0  0  0  0
    7.6940    0.4250    0.0560 C   0  0  0  0  0  0  0  0  0  0  0  0
    7.0930   -0.4250   -0.8550 C   0  0  0  0  0  0  0  0  0  0  0  0
    3.1420   -1.2100   -0.3660 C   0  0  0  0  0  0  0  0  0  0  0  0
    2.1680   -1.2360    0.6270 C   0  0  0  0  0  0  0  0  0  0  0  0
   -2.6720    0.8200    3.1230 C   0  0  0  0  0  0  0  0  0  0  0  0
   -4.8730   -0.1220   -0.8020 C   0  0  0  0  0  0  0  0  0  0  0  0
  1  2  1  0
  2  3  2  0
  2 31  1  0
  3  4  1  0
  4  5  2  0
  5  6  1  0
  6  7  1  0
  6 31  2  0
  7  8  1  0
  8  9  1  0
  8 30  1  0
  9 10  1  0
 10 11  1  0
 11 12  2  0
 11 15  1  0
 12 13  1  0
 12 30  1  0
 13 14  2  0
 14 15  1  0
 15 16  1  0
 16 17  2  0
 16 29  1  0
 17 18  1  0
 18 19  2  0
 19 20  1  0
 19 28  1  0
 20 21  1  0
 21 22  1  0
 22 23  2  0
 22 27  1  0
 23 24  1  0
 24 25  2  0
 25 26  1  0
 26 27  2  0
 28 29  2  0
M  CHG  1  14   1
M  END
