
     RDKit          3D

 33 35  0  0  0  0  0  0  0  0999 V2000
   -4.7810   -2.4370   -1.1630 C   0  0  0  0  0  0  0  0  0  0  0  0
   -5.3000   -1.4340   -0.1510 C   0  0  1  0  0  0  0  0  0  0  0  0
   -5.1530   -0.0540   -0.7420 C   0  0  0  0  0  0  0  0  0  0  0  0
   -6.7390   -1.7180    0.2030 C   0  0  0  0  0  0  0  0  0  0  0  0
   -4.5100   -1.5340    1.1700 C   0  0  0  0  0  0  0  0  0  0  0  0
   -3.0850   -1.2760    0.9330 C   0  0  0  0  0  0  0  0  0  0  0  0
   -2.3150   -2.2610    0.8080 O   0  0  0  0  0  0  0  0  0  0  0  0
   -2.5520   -0.0110    0.8350 O   0  0  0  0  0  0  0  0  0  0  0  0
   -1.1300    0.1170    0.5860 C   0  0  0  0  0  0  0  0  0  0  0  0
   -0.7550    1.5210    0.4360 C   0  0  0  0  0  0  0  0  0  0  0  0
   -1.6630    2.4230    0.5790 O   0  0  0  0  0  0  0  0  0  0  0  0
    0.5590    1.9070    0.1410 N   0  0  0  0  0  0  0  0  0  0  0  0
    1.5620    0.9130    0.0140 C   0  0  0  0  0  0  0  0  0  0  0  0
    1.5440   -0.0360   -0.9850 C   0  0  0  0  0  0  0  0  0  0  0  0
    2.5440   -1.0160   -1.0530 C   0  0  0  0  0  0  0  0  0  0  0  0
    3.5560   -1.0360   -0.1220 C   0  0  0  0  0  0  0  0  0  0  0  0
    4.6010   -2.0870   -0.1230 C   0  0  0  0  0  0  0  0  0  0  0  0
    5.6540   -1.9880    0.6900 C   0  0  0  0  0  0  0  0  0  0  0  0
    6.7260   -3.0210    0.7160 C   0  0  0  0  0  0  0  0  0  0  0  0
    6.4230   -4.1360   -0.0720 O   0  0  0  0  0  0  0  0  0  0  0  0
    5.3390   -4.2150   -0.9000 C   0  0  0  0  0  0  0  0  0  0  0  0
    4.4220   -3.2590   -0.9710 C   0  0  0  0  0  0  0  0  0  0  0  0
    3.5770   -0.0790    0.8860 C   0  0  0  0  0  0  0  0  0  0  0  0
    2.5720    0.9000    0.9500 C   0  0  0  0  0  0  0  0  0  0  0  0
    0.8430    3.2920   -0.0270 C   0  0  0  0  0  0  0  0  0  0  0  0
    0.7430    4.1730   -0.7670 N   0  0  0  0  0  0  0  0  0  0  0  0
    1.0810    5.4110   -0.6960 C   0  0  0  0  0  0  0  0  0  0  0  0
    0.8260    6.3770   -1.8490 C   0  0  1  0  0  0  0  0  0  0  0  0
    1.2590    7.6230   -1.4910 F   0  0  0  0  0  0  0  0  0  0  0  0
    1.4830    5.9820   -2.9820 F   0  0  0  0  0  0  0  0  0  0  0  0
   -0.5390    6.4750   -2.0940 F   0  0  0  0  0  0  0  0  0  0  0  0
    1.7040    5.8260    0.5050 C   0  0  0  0  0  0  0  0  0  0  0  0
    1.6880    4.2120    1.3950 S   0  0  0  0  0  0  0  0  0  0  0  0
  2  1  1  6
  2  3  1  0
  2  4  1  0
  2  5  1  0
  5  6  1  0
  6  7  2  0
  6  8  1  0
  8  9  1  0
  9 10  1  0
 10 11  2  0
 10 12  1  0
 12 13  1  0
 12 25  1  0
 13 14  2  0
 13 24  1  0
 14 15  1  0
 15 16  2  0
 16 17  1  0
 16 23  1  0
 17 18  2  0
 17 22  1  0
 18 19  1  0
 19 20  1  0
 20 21  1  0
 21 22  2  0
 23 24  2  0
 25 26  2  0
 25 33  1  0
 26 27  1  0
 27 28  1  0
 27 32  2  0
 28 29  1  1
 28 30  1  0
 28 31  1  0
 32 33  1  0
M  END
