
     RDKit          3D

 33 35  0  0  0  0  0  0  0  0999 V2000
    2.6110    6.9740   -0.7370 C   0  0  0  0  0  0  0  0  0  0  0  0
    1.8610    5.6380   -0.7650 C   0  0  0  0  0  0  0  0  0  0  0  0
    2.4390    4.7950    0.2700 C   0  0  0  0  0  0  0  0  0  0  0  0
    2.2260    3.5520    0.5640 C   0  0  0  0  0  0  0  0  0  0  0  0
    3.1070    2.7630    1.9060 S   0  0  0  0  0  0  0  0  0  0  0  0
    2.4890    1.0970    1.5680 C   0  0  0  0  0  0  0  0  0  0  0  0
    2.9660    0.0720    2.1350 O   0  0  0  0  0  0  0  0  0  0  0  0
    1.4570    1.2650    0.6120 N   0  0  0  0  0  0  0  0  0  0  0  0
    0.5710    0.1340    0.4270 C   0  0  0  0  0  0  0  0  0  0  0  0
   -0.7900    0.3520    0.5990 C   0  0  0  0  0  0  0  0  0  0  0  0
   -1.6870   -0.6690    0.8100 C   0  0  0  0  0  0  0  0  0  0  0  0
   -3.1330   -0.6080    1.0810 C   0  0  0  0  0  0  0  0  0  0  0  0
   -4.0440   -0.3260    0.0730 N   0  0  0  0  0  0  0  0  0  0  0  0
   -5.4120   -0.6200    0.3860 C   0  0  0  0  0  0  0  0  0  0  0  0
   -6.2450    0.3890   -0.3230 C   0  0  0  0  0  0  0  0  0  0  0  0
   -5.2560    1.4770   -0.6240 C   0  0  0  0  0  0  0  0  0  0  0  0
   -3.9490    0.6800   -0.8400 C   0  0  0  0  0  0  0  0  0  0  0  0
   -1.1320   -1.9610    0.8470 C   0  0  0  0  0  0  0  0  0  0  0  0
   -1.9890   -3.1580    1.0760 C   0  0  0  0  0  0  0  0  0  0  0  0
   -2.5140   -3.6090   -0.2560 C   0  0  0  0  0  0  0  0  0  0  0  0
    0.1790   -2.1920    0.6660 C   0  0  0  0  0  0  0  0  0  0  0  0
    1.0710   -1.1240    0.4390 C   0  0  0  0  0  0  0  0  0  0  0  0
    2.4230   -1.4740   -0.0780 C   0  0  0  0  0  0  0  0  0  0  0  0
    3.2050   -0.7670   -0.5920 O   0  0  0  0  0  0  0  0  0  0  0  0
    2.7260   -2.8560    0.0690 O   0  0  0  0  0  0  0  0  0  0  0  0
    3.8460   -3.5300   -0.3310 C   0  0  0  0  0  0  0  0  0  0  0  0
    5.1860   -3.0070    0.0620 C   0  0  0  0  0  0  0  0  0  0  0  0
    6.2290   -4.0200   -0.4390 C   0  0  2  0  0  0  0  0  0  0  0  0
    5.9240   -5.2010    0.1990 F   0  0  0  0  0  0  0  0  0  0  0  0
    7.4940   -3.6440   -0.2430 F   0  0  0  0  0  0  0  0  0  0  0  0
    5.9160   -4.2190   -1.7710 F   0  0  0  0  0  0  0  0  0  0  0  0
    1.3290    2.5490    0.0810 C   0  0  0  0  0  0  0  0  0  0  0  0
    0.4490    2.8940   -0.8130 O   0  0  0  0  0  0  0  0  0  0  0  0
  1  2  1  0
  2  3  1  0
  3  4  2  3
  4  5  1  0
  4 32  1  0
  5  6  1  0
  6  7  2  0
  6  8  1  0
  8  9  1  0
  8 32  1  0
  9 10  2  0
  9 22  1  0
 10 11  1  0
 11 12  1  0
 11 18  2  0
 12 13  1  0
 13 14  1  0
 13 17  1  0
 14 15  1  0
 15 16  1  0
 16 17  1  0
 18 19  1  0
 18 21  1  0
 19 20  1  0
 21 22  2  0
 22 23  1  0
 23 24  2  0
 23 25  1  0
 25 26  1  0
 26 27  1  0
 27 28  1  0
 28 29  1  1
 28 30  1  0
 28 31  1  0
 32 33  2  0
M  END
