
     RDKit          3D

 33 35  0  0  0  0  0  0  0  0999 V2000
   -5.4710   -0.4940    3.3910 C   0  0  0  0  0  0  0  0  0  0  0  0
   -4.6270   -0.4480    2.0930 C   0  0  0  0  0  0  0  0  0  0  0  0
   -3.2560   -0.0280    2.4030 C   0  0  0  0  0  0  0  0  0  0  0  0
   -3.0070    0.0540    3.6830 O   0  0  0  0  0  0  0  0  0  0  0  0
   -2.1680    0.3100    1.5450 C   0  0  0  0  0  0  0  0  0  0  0  0
   -2.0070    0.3400    0.2660 C   0  0  0  0  0  0  0  0  0  0  0  0
   -2.8150    0.0490   -0.9350 C   0  0  1  0  0  0  0  0  0  0  0  0
   -3.9350   -0.7260   -0.9080 N   0  0  0  0  0  0  0  0  0  0  0  0
   -3.5210   -2.1260   -0.6280 C   0  0  0  0  0  0  0  0  0  0  0  0
   -4.9700   -0.7330   -1.8280 C   0  0  0  0  0  0  0  0  0  0  0  0
   -5.9350    0.4130   -1.8770 C   0  0  1  0  0  0  0  0  0  0  0  0
   -6.6320    0.5860   -0.6710 F   0  0  0  0  0  0  0  0  0  0  0  0
   -5.3970    1.6370   -2.1630 F   0  0  0  0  0  0  0  0  0  0  0  0
   -6.9610    0.1190   -2.7980 F   0  0  0  0  0  0  0  0  0  0  0  0
   -2.6900    1.3500   -1.6480 C   0  0  0  0  0  0  0  0  0  0  0  0
   -1.1460    1.4860   -1.6330 C   0  0  1  0  0  0  0  0  0  0  0  0
   -0.6270    0.6790   -2.7800 C   0  0  0  0  0  0  0  0  0  0  0  0
   -0.7590    2.9230   -1.7530 C   0  0  0  0  0  0  0  0  0  0  0  0
   -0.7830    0.8970   -0.3480 N   0  0  0  0  0  0  0  0  0  0  0  0
    0.5390    0.8900    0.1380 C   0  0  0  0  0  0  0  0  0  0  0  0
    1.4160    1.4080   -0.6530 O   0  0  0  0  0  0  0  0  0  0  0  0
    1.0560    0.3770    1.4060 C   0  0  0  0  0  0  0  0  0  0  0  0
    2.5070    0.3540    1.3680 O   0  0  0  0  0  0  0  0  0  0  0  0
    3.1430   -0.4130    0.4110 C   0  0  0  0  0  0  0  0  0  0  0  0
    2.4710   -1.0780   -0.4100 O   0  0  0  0  0  0  0  0  0  0  0  0
    4.5890   -0.4330    0.3770 C   0  0  0  0  0  0  0  0  0  0  0  0
    5.5180    0.1960    1.1440 C   0  0  0  0  0  0  0  0  0  0  0  0
    6.8270   -0.0130    0.8790 C   0  0  0  0  0  0  0  0  0  0  0  0
    7.1790   -0.8410   -0.1400 C   0  0  0  0  0  0  0  0  0  0  0  0
    5.5910   -1.3700   -0.7810 S   0  0  0  0  0  0  0  0  0  0  0  0
    8.6480   -0.9550   -0.2740 C   0  0  0  0  0  0  0  0  0  0  0  0
    9.0740   -0.6360    1.1480 C   0  0  0  0  0  0  0  0  0  0  0  0
    8.1380    0.5000    1.4780 C   0  0  0  0  0  0  0  0  0  0  0  0
  1  2  1  0
  2  3  1  0
  3  4  2  0
  3  5  1  0
  5  6  2  3
  6  7  1  0
  6 19  1  0
  7  8  1  1
  7 15  1  0
  8  9  1  0
  8 10  1  0
 10 11  1  0
 11 12  1  1
 11 13  1  0
 11 14  1  0
 15 16  1  0
 16 17  1  6
 16 18  1  0
 16 19  1  0
 19 20  1  0
 20 21  2  0
 20 22  1  0
 22 23  1  0
 23 24  1  0
 24 25  2  0
 24 26  1  0
 26 27  2  0
 26 30  1  0
 27 28  1  0
 28 29  2  0
 28 33  1  0
 29 30  1  0
 29 31  1  0
 31 32  1  0
 32 33  1  0
M  END
