
     RDKit          3D

 33 34  0  0  0  0  0  0  0  0999 V2000
   -8.1510   -4.4510   -0.5660 C   0  0  0  0  0  0  0  0  0  0  0  0
   -9.1890   -3.5150   -1.1350 C   0  0  0  0  0  0  0  0  0  0  0  0
   -9.0820   -2.2660   -0.5150 O   0  0  0  0  0  0  0  0  0  0  0  0
   -7.9970   -1.4380   -0.5260 C   0  0  0  0  0  0  0  0  0  0  0  0
   -8.0870   -0.2270    0.1650 C   0  0  0  0  0  0  0  0  0  0  0  0
   -7.0220    0.6360    0.1810 C   0  0  0  0  0  0  0  0  0  0  0  0
   -5.8690    0.3030   -0.4860 C   0  0  0  0  0  0  0  0  0  0  0  0
   -4.7850    1.2690   -0.4700 C   0  0  0  0  0  0  0  0  0  0  0  0
   -3.5820    0.9180   -0.0770 C   0  0  0  0  0  0  0  0  0  0  0  0
   -2.4190    1.7980   -0.0260 N   0  0  0  0  0  0  0  0  0  0  0  0
   -1.2990    0.8820   -0.2420 C   0  0  1  0  0  0  0  0  0  0  0  0
    0.0180    1.5160    0.0600 C   0  0  0  0  0  0  0  0  0  0  0  0
    0.1030    2.9890    0.2340 C   0  0  0  0  0  0  0  0  0  0  0  0
   -0.1190    3.6170   -1.1320 C   0  0  0  0  0  0  0  0  0  0  0  0
   -0.0710    5.1140   -1.0790 C   0  0  0  0  0  0  0  0  0  0  0  0
   -1.1100    5.5800   -0.1830 N   0  0  0  0  0  0  0  0  0  0  0  0
    1.0730    0.7600    0.1530 C   0  0  0  0  0  0  0  0  0  0  0  0
    0.9360   -0.7050   -0.0490 C   0  0  0  0  0  0  0  0  0  0  0  0
    2.3580    1.2640    0.4260 N   0  0  0  0  0  0  0  0  0  0  0  0
    3.5280    0.4320    0.5430 C   0  0  0  0  0  0  0  0  0  0  0  0
    3.4530   -0.7910    0.4190 O   0  0  0  0  0  0  0  0  0  0  0  0
    4.8170    0.9730    0.8030 N   0  0  0  0  0  0  0  0  0  0  0  0
    5.9660    0.1150    0.9110 C   0  0  0  0  0  0  0  0  0  0  0  0
    6.2750   -0.6900   -0.3040 C   0  0  0  0  0  0  0  0  0  0  0  0
    7.5070   -1.5260   -0.0380 C   0  0  0  0  0  0  0  0  0  0  0  0
    7.3520   -2.4770    1.1120 C   0  0  0  0  0  0  0  0  0  0  0  0
    8.6730   -3.2470    1.2440 C   0  0  0  0  0  0  0  0  0  0  0  0
    9.7660   -2.3210    1.4980 N   0  0  0  0  0  0  0  0  0  0  0  0
   -1.6780   -0.1220    0.7480 N   0  0  0  0  0  0  0  0  0  0  0  0
   -3.0720   -0.3540    0.4430 C   0  0  0  0  0  0  0  0  0  0  0  0
   -3.7010   -1.4240    0.6000 O   0  0  0  0  0  0  0  0  0  0  0  0
   -5.7750   -0.8770   -1.1640 C   0  0  0  0  0  0  0  0  0  0  0  0
   -6.8350   -1.7530   -1.1890 C   0  0  0  0  0  0  0  0  0  0  0  0
  1  2  1  0
  2  3  1  0
  3  4  1  0
  4  5  2  0
  4 33  1  0
  5  6  1  0
  6  7  2  0
  7  8  1  0
  7 32  1  0
  8  9  2  3
  9 10  1  0
  9 30  1  0
 10 11  1  0
 11 12  1  1
 11 29  1  0
 12 13  1  0
 12 17  2  3
 13 14  1  0
 14 15  1  0
 15 16  1  0
 17 18  1  0
 17 19  1  0
 19 20  1  0
 20 21  2  0
 20 22  1  0
 22 23  1  0
 23 24  1  0
 24 25  1  0
 25 26  1  0
 26 27  1  0
 27 28  1  0
 29 30  1  0
 30 31  2  0
 32 33  2  0
M  CHG  2  16   1  28   1
M  END
