
     RDKit          3D

  8  7  0  0  0  0  0  0  0  0999 V2000
   -1.4870   -1.0270   -0.2620 C   0  0  0  0  0  0  0  0  0  0  0  0
   -1.3060    0.4180    0.1610 C   0  0  2  0  0  0  0  0  0  0  0  0
   -1.7460    1.2300   -0.8610 O   0  0  0  0  0  0  0  0  0  0  0  0
    0.1510    0.6410    0.5020 C   0  0  2  0  0  0  0  0  0  0  0  0
    0.3650    1.9580    0.9030 O   0  0  0  0  0  0  0  0  0  0  0  0
    0.9900    0.3900   -0.5580 O   0  0  0  0  0  0  0  0  0  0  0  0
    1.9040   -0.5820   -0.1670 C   0  0  0  0  0  0  0  0  0  0  0  0
    2.7650   -0.8520   -1.2290 O   0  0  0  0  0  0  0  0  0  0  0  0
  2  1  1  6
  2  3  1  0
  2  4  1  0
  4  5  1  6
  4  6  1  0
  6  7  1  0
  7  8  1  0
M  END
