
     RDKit          3D

  8  7  0  0  0  0  0  0  0  0999 V2000
    2.8140   -0.5350   -1.0370 O   0  0  0  0  0  0  0  0  0  0  0  0
    1.5750   -0.5720   -0.3510 C   0  0  0  0  0  0  0  0  0  0  0  0
    0.9000    0.7360   -0.3610 C   0  0  0  0  0  0  0  0  0  0  0  0
   -0.3810    0.7410    0.4240 C   0  0  1  0  0  0  0  0  0  0  0  0
   -0.9400    2.0570    0.3460 O   0  0  0  0  0  0  0  0  0  0  0  0
   -1.3740   -0.2460   -0.0760 C   0  0  1  0  0  0  0  0  0  0  0  0
   -0.9530   -1.5500    0.0590 O   0  0  0  0  0  0  0  0  0  0  0  0
   -2.5580   -0.0580    0.6700 O   0  0  0  0  0  0  0  0  0  0  0  0
  1  2  1  0
  2  3  1  0
  3  4  1  0
  4  5  1  6
  4  6  1  0
  6  7  1  1
  6  8  1  0
M  END
