
     RDKit          3D

  8  7  0  0  0  0  0  0  0  0999 V2000
    2.1210    0.8030    1.0200 O   0  0  0  0  0  0  0  0  0  0  0  0
    1.6410   -0.5030    0.8620 C   0  0  0  0  0  0  0  0  0  0  0  0
    0.8050   -0.6360   -0.3520 C   0  0  0  0  0  0  0  0  0  0  0  0
   -0.4020    0.1800   -0.4690 C   0  0  2  0  0  0  0  0  0  0  0  0
   -1.0280   -0.1090   -1.6860 O   0  0  0  0  0  0  0  0  0  0  0  0
   -0.0380    1.5450   -0.5630 O   0  0  0  0  0  0  0  0  0  0  0  0
   -1.4180    0.0760    0.6160 C   0  0  0  0  0  0  0  0  0  0  0  0
   -2.4660    0.9750    0.4140 O   0  0  0  0  0  0  0  0  0  0  0  0
  1  2  1  0
  2  3  1  0
  3  4  1  0
  4  5  1  6
  4  6  1  0
  4  7  1  0
  7  8  1  0
M  END
