
     RDKit          3D

  8  7  0  0  0  0  0  0  0  0999 V2000
    2.7920   -0.2780   -0.0180 C   0  0  0  0  0  0  0  0  0  0  0  0
    1.9290    0.6230    0.5630 O   0  0  0  0  0  0  0  0  0  0  0  0
    0.6570    0.6660    0.0150 C   0  0  0  0  0  0  0  0  0  0  0  0
   -0.0260   -0.6530    0.1320 C   0  0  0  0  0  0  0  0  0  0  0  0
   -1.3030   -0.7130   -0.3810 O   0  0  0  0  0  0  0  0  0  0  0  0
   -2.1510    0.1460    0.2590 C   0  0  1  0  0  0  0  0  0  0  0  0
   -2.5950    1.0840   -0.6700 O   0  0  0  0  0  0  0  0  0  0  0  0
   -3.2150   -0.4950    0.8910 O   0  0  0  0  0  0  0  0  0  0  0  0
  1  2  1  0
  2  3  1  0
  3  4  1  0
  4  5  1  0
  5  6  1  0
  6  7  1  6
  6  8  1  0
M  END
