
     RDKit          3D

  8  7  0  0  0  0  0  0  0  0999 V2000
    2.3150    0.3840    0.3240 C   0  0  0  0  0  0  0  0  0  0  0  0
    1.2540   -0.4440    0.5650 O   0  0  0  0  0  0  0  0  0  0  0  0
    0.0890   -0.1640   -0.0960 C   0  0  1  0  0  0  0  0  0  0  0  0
    0.2100   -0.2010   -1.4800 O   0  0  0  0  0  0  0  0  0  0  0  0
   -0.9110   -1.2610    0.2670 C   0  0  0  0  0  0  0  0  0  0  0  0
   -2.1310   -1.0570   -0.3630 O   0  0  0  0  0  0  0  0  0  0  0  0
   -0.4550    1.2010    0.2680 C   0  0  0  0  0  0  0  0  0  0  0  0
   -1.6430    1.4610   -0.4150 O   0  0  0  0  0  0  0  0  0  0  0  0
  1  2  1  0
  2  3  1  0
  3  4  1  6
  3  5  1  0
  3  7  1  0
  5  6  1  0
  7  8  1  0
M  END
