
     RDKit          3D

  9  8  0  0  0  0  0  0  0  0999 V2000
    2.0880   -0.4420    1.1170 O   0  0  0  0  0  0  0  0  0  0  0  0
    1.9040   -0.0100   -0.0470 C   0  0  0  0  0  0  0  0  0  0  0  0
    2.9700    0.2780   -0.8880 O   0  0  0  0  0  0  0  0  0  0  0  0
    0.5210    0.1990   -0.5390 C   0  0  0  0  0  0  0  0  0  0  0  0
   -0.4770   -0.1780    0.5400 C   0  0  2  0  0  0  0  0  0  0  0  0
   -0.3320   -1.5050    0.8960 O   0  0  0  0  0  0  0  0  0  0  0  0
   -1.8320    0.0770   -0.0150 C   0  0  0  0  0  0  0  0  0  0  0  0
   -2.6360   -0.8670   -0.0930 O   0  0  0  0  0  0  0  0  0  0  0  0
   -2.2100    1.3310   -0.4390 O   0  0  0  0  0  0  0  0  0  0  0  0
  1  2  2  0
  2  3  1  0
  2  4  1  0
  4  5  1  0
  5  6  1  6
  5  7  1  0
  7  8  2  0
  7  9  1  0
M  END
