
     RDKit          3D

 28 29  0  0  0  0  0  0  0  0999 V2000
   -0.4000    1.5300   -5.4750 C   0  0  0  0  0  0  0  0  0  0  0  0
    0.4220   -0.0790   -5.4180 S   0  0  0  0  0  0  0  0  0  0  0  0
    1.3070   -0.2110   -3.8790 C   0  0  0  0  0  0  0  0  0  0  0  0
    2.0070   -1.2910   -3.4760 C   0  0  0  0  0  0  0  0  0  0  0  0
    2.5920   -0.9980   -2.1410 C   0  0  0  0  0  0  0  0  0  0  0  0
    3.6690   -1.5610   -1.6640 C   0  0  0  0  0  0  0  0  0  0  0  0
    4.2320   -1.2640   -0.3530 C   0  0  0  0  0  0  0  0  0  0  0  0
    5.2780   -1.8550    0.0340 O   0  0  0  0  0  0  0  0  0  0  0  0
    3.6660   -0.3570    0.4860 O   0  0  0  0  0  0  0  0  0  0  0  0
    4.0860    0.0410    1.7410 C   0  0  0  0  0  0  0  0  0  0  0  0
    5.4090    0.7510    1.6740 C   0  0  2  0  0  0  0  0  0  0  0  0
    5.8190    1.1550    2.9410 F   0  0  0  0  0  0  0  0  0  0  0  0
    5.2050    1.8750    0.8670 F   0  0  0  0  0  0  0  0  0  0  0  0
    6.4320    0.0350    1.1190 F   0  0  0  0  0  0  0  0  0  0  0  0
    1.6870    0.0180   -1.5780 C   0  0  2  0  0  0  0  0  0  0  0  0
    0.4880   -0.5230   -1.0250 N   0  0  0  0  0  0  0  0  0  0  0  0
   -0.1010   -0.1470    0.2230 C   0  0  0  0  0  0  0  0  0  0  0  0
    0.5040    0.7400    0.8760 O   0  0  0  0  0  0  0  0  0  0  0  0
   -1.2890   -0.7290    0.6960 N   0  0  0  0  0  0  0  0  0  0  0  0
   -2.0000   -1.7830   -0.0090 C   0  0  0  0  0  0  0  0  0  0  0  0
   -3.4200   -1.8820    0.5520 C   0  0  0  0  0  0  0  0  0  0  0  0
   -3.9970   -0.5230    0.8060 C   0  0  0  0  0  0  0  0  0  0  0  0
   -3.2200    0.3550    1.7180 C   0  0  1  0  0  0  0  0  0  0  0  0
   -3.9530    0.6820    2.9790 C   0  0  0  0  0  0  0  0  0  0  0  0
   -3.1830    1.5660    3.9120 C   0  0  0  0  0  0  0  0  0  0  0  0
   -2.8410    2.7890    3.3710 O   0  0  0  0  0  0  0  0  0  0  0  0
   -1.8420   -0.2200    1.9610 C   0  0  0  0  0  0  0  0  0  0  0  0
    1.3830    0.8510   -2.8350 C   0  0  0  0  0  0  0  0  0  0  0  0
  1  2  1  0
  2  3  1  0
  3  4  2  0
  3 28  1  0
  4  5  1  0
  5  6  2  3
  5 15  1  0
  6  7  1  0
  7  8  2  0
  7  9  1  0
  9 10  1  0
 10 11  1  0
 11 12  1  1
 11 13  1  0
 11 14  1  0
 15 16  1  6
 15 28  1  0
 16 17  1  0
 17 18  2  0
 17 19  1  0
 19 20  1  0
 19 27  1  0
 20 21  1  0
 21 22  1  0
 22 23  1  0
 23 24  1  1
 23 27  1  0
 24 25  1  0
 25 26  1  0
M  END
