
     RDKit          3D

 29 30  0  0  0  0  0  0  0  0999 V2000
   -6.7800   -1.6490    0.2820 C   0  0  0  0  0  0  0  0  0  0  0  0
   -5.6250   -0.7570   -0.0130 C   0  0  0  0  0  0  0  0  0  0  0  0
   -5.7820    0.4780   -0.5900 C   0  0  0  0  0  0  0  0  0  0  0  0
   -4.6970    1.2800   -0.8500 C   0  0  0  0  0  0  0  0  0  0  0  0
   -4.8610    2.6250   -1.4790 C   0  0  0  0  0  0  0  0  0  0  0  0
   -3.4270    0.8560   -0.5350 C   0  0  0  0  0  0  0  0  0  0  0  0
   -2.3560    1.6330   -0.8000 N   0  0  0  0  0  0  0  0  0  0  0  0
   -1.0860    1.2230   -0.5060 C   0  0  0  0  0  0  0  0  0  0  0  0
   -0.2070    2.0590   -0.8170 O   0  0  0  0  0  0  0  0  0  0  0  0
   -0.8470    0.0080    0.0720 C   0  0  0  0  0  0  0  0  0  0  0  0
    0.4940   -0.4140    0.3760 C   0  0  0  0  0  0  0  0  0  0  0  0
    0.7160   -1.6510    0.5910 O   0  0  0  0  0  0  0  0  0  0  0  0
    1.6310    0.4280    0.4670 N   0  0  0  0  0  0  0  0  0  0  0  0
    2.9580   -0.1500    0.7860 C   0  0  1  0  0  0  0  0  0  0  0  0
    3.8850    0.1510   -0.3360 C   0  0  0  0  0  0  0  0  0  0  0  0
    5.2770   -0.3550   -0.1990 C   0  0  0  0  0  0  0  0  0  0  0  0
    6.1510    0.1490   -1.6900 S   0  0  2  0  0  0  0  0  0  0  0  0
    6.1250    1.6440   -1.8310 O   0  0  0  0  0  0  0  0  0  0  0  0
    5.4710   -0.4320   -2.8960 O   0  0  0  0  0  0  0  0  0  0  0  0
    7.8510   -0.4240   -1.6080 C   0  0  0  0  0  0  0  0  0  0  0  0
    8.4250    0.1550   -0.4840 F   0  0  0  0  0  0  0  0  0  0  0  0
    3.3370    0.4450    2.1100 C   0  0  2  0  0  0  0  0  0  0  0  0
    4.5620    0.0080    2.5710 F   0  0  0  0  0  0  0  0  0  0  0  0
    2.4080    0.0540    3.0750 F   0  0  0  0  0  0  0  0  0  0  0  0
    3.2730    1.8350    2.0880 F   0  0  0  0  0  0  0  0  0  0  0  0
   -1.9370   -0.8180    0.3600 C   0  0  0  0  0  0  0  0  0  0  0  0
   -1.7780   -2.1240    1.0380 C   0  0  0  0  0  0  0  0  0  0  0  0
   -3.2380   -0.3900    0.0510 C   0  0  0  0  0  0  0  0  0  0  0  0
   -4.3460   -1.1690    0.2980 C   0  0  0  0  0  0  0  0  0  0  0  0
  1  2  1  0
  2  3  2  0
  2 29  1  0
  3  4  1  0
  4  5  1  0
  4  6  2  0
  6  7  1  0
  6 28  1  0
  7  8  1  0
  8  9  2  0
  8 10  1  0
 10 11  1  0
 10 26  2  0
 11 12  2  0
 11 13  1  0
 13 14  1  0
 14 15  1  6
 14 22  1  0
 15 16  1  0
 17 16  1  1
 17 18  2  0
 17 19  2  0
 17 20  1  0
 20 21  1  0
 22 23  1  1
 22 24  1  0
 22 25  1  0
 26 27  1  0
 26 28  1  0
 28 29  2  0
M  END
