
     RDKit          3D

 29 30  0  0  0  0  0  0  0  0999 V2000
   -3.4410    2.4630    0.4090 C   0  0  0  0  0  0  0  0  0  0  0  0
   -3.3180    1.7150   -0.9110 C   0  0  1  0  0  0  0  0  0  0  0  0
   -4.2010    2.3110   -1.9730 C   0  0  0  0  0  0  0  0  0  0  0  0
   -1.8760    1.8220   -1.3390 C   0  0  0  0  0  0  0  0  0  0  0  0
   -1.2750    0.6240   -0.6390 C   0  0  0  0  0  0  0  0  0  0  0  0
   -2.1970   -0.2370   -0.3060 C   0  0  0  0  0  0  0  0  0  0  0  0
   -3.5690    0.2350   -0.7250 C   0  0  0  0  0  0  0  0  0  0  0  0
   -1.9700   -1.4770    0.3700 N   0  0  0  0  0  0  0  0  0  0  0  0
   -3.0030   -2.3620    0.7090 C   0  0  0  0  0  0  0  0  0  0  0  0
   -3.7880   -2.2150    1.7480 C   0  0  0  0  0  0  0  0  0  0  0  0
   -3.6320   -1.0860    2.6430 C   0  0  0  0  0  0  0  0  0  0  0  0
   -2.7330   -0.2350    2.4240 O   0  0  0  0  0  0  0  0  0  0  0  0
   -3.1920   -3.5480   -0.2040 C   0  0  0  0  0  0  0  0  0  0  0  0
   -3.4750   -3.0410   -1.4790 F   0  0  0  0  0  0  0  0  0  0  0  0
   -0.3730   -1.9110    0.7900 S   0  0  2  0  0  0  0  0  0  0  0  0
    0.0690   -3.1810    0.1270 O   0  0  0  0  0  0  0  0  0  0  0  0
   -0.2710   -2.1090    2.2660 O   0  0  0  0  0  0  0  0  0  0  0  0
    0.6730   -0.6090    0.2440 C   0  0  0  0  0  0  0  0  0  0  0  0
    2.0760   -0.7490    0.4920 C   0  0  0  0  0  0  0  0  0  0  0  0
    2.5320   -1.7930    1.0910 O   0  0  0  0  0  0  0  0  0  0  0  0
    3.0500    0.2050    0.1180 N   0  0  0  0  0  0  0  0  0  0  0  0
    4.4800   -0.0420    0.4250 C   0  0  0  0  0  0  0  0  0  0  0  0
    5.2750    1.1180   -0.0780 C   0  0  0  0  0  0  0  0  0  0  0  0
    6.7430    1.0010    0.2030 C   0  0  0  0  0  0  0  0  0  0  0  0
    7.3450   -0.2180   -0.4370 C   0  0  2  0  0  0  0  0  0  0  0  0
    7.1890   -0.2220   -1.7980 F   0  0  0  0  0  0  0  0  0  0  0  0
    6.8660   -1.3710    0.1020 F   0  0  0  0  0  0  0  0  0  0  0  0
    8.7220   -0.1870   -0.1140 F   0  0  0  0  0  0  0  0  0  0  0  0
    0.1370    0.4100   -0.3520 C   0  0  0  0  0  0  0  0  0  0  0  0
  2  1  1  1
  2  3  1  0
  2  4  1  0
  2  7  1  0
  4  5  1  0
  5  6  2  0
  5 29  1  0
  6  7  1  0
  6  8  1  0
  8  9  1  0
 15  8  1  1
  9 10  2  3
  9 13  1  0
 10 11  1  0
 11 12  2  0
 13 14  1  0
 15 16  2  0
 15 17  2  0
 15 18  1  0
 18 19  1  0
 18 29  2  0
 19 20  2  0
 19 21  1  0
 21 22  1  0
 22 23  1  0
 23 24  1  0
 24 25  1  0
 25 26  1  6
 25 27  1  0
 25 28  1  0
M  END
