
     RDKit          3D

 28 29  0  0  0  0  0  0  0  0999 V2000
   -0.8990   -3.1120   -2.0430 C   0  0  0  0  0  0  0  0  0  0  0  0
   -1.5930   -2.3410   -1.1270 O   0  0  0  0  0  0  0  0  0  0  0  0
   -2.8180   -2.4930   -0.6340 C   0  0  0  0  0  0  0  0  0  0  0  0
   -3.6170   -3.5530   -1.0400 C   0  0  0  0  0  0  0  0  0  0  0  0
   -4.8760   -3.7430   -0.5610 C   0  0  0  0  0  0  0  0  0  0  0  0
   -5.4090   -2.8820    0.3550 C   0  0  0  0  0  0  0  0  0  0  0  0
   -4.6480   -1.8030    0.7950 C   0  0  0  0  0  0  0  0  0  0  0  0
   -5.2460   -0.9670    1.7220 O   0  0  0  0  0  0  0  0  0  0  0  0
   -3.3660   -1.6140    0.3040 C   0  0  0  0  0  0  0  0  0  0  0  0
   -2.6250   -0.4800    0.8050 C   0  0  0  0  0  0  0  0  0  0  0  0
   -1.4110   -0.1090    0.3970 C   0  0  0  0  0  0  0  0  0  0  0  0
   -0.7590    1.0260    0.9620 C   0  0  0  0  0  0  0  0  0  0  0  0
    0.3470    1.6080    0.8410 C   0  0  0  0  0  0  0  0  0  0  0  0
    1.6160    1.6160    0.1980 C   0  0  0  0  0  0  0  0  0  0  0  0
    2.4100    2.7130    0.3570 C   0  0  0  0  0  0  0  0  0  0  0  0
    1.8890    3.8020    1.1930 C   0  0  0  0  0  0  0  0  0  0  0  0
    1.4960    4.6510    1.8390 N   0  0  0  0  0  0  0  0  0  0  0  0
    3.7170    2.9600   -0.2320 C   0  0  1  0  0  0  0  0  0  0  0  0
    4.7770    3.8940    0.8480 S   0  0  1  0  0  0  0  0  0  0  0  0
    5.1140    3.1020    2.0700 O   0  0  0  0  0  0  0  0  0  0  0  0
    6.0760    4.1980    0.1220 O   0  0  0  0  0  0  0  0  0  0  0  0
    4.0810    5.3340    1.2510 F   0  0  0  0  0  0  0  0  0  0  0  0
    4.4310    1.7090   -0.6010 C   0  0  0  0  0  0  0  0  0  0  0  0
    3.5040    0.8140   -1.2200 N   0  0  0  0  0  0  0  0  0  0  0  0
    2.1990    0.5880   -0.6160 C   0  0  0  0  0  0  0  0  0  0  0  0
    1.8820   -0.7100   -0.5570 C   0  0  0  0  0  0  0  0  0  0  0  0
    1.0270   -1.2650    0.2530 F   0  0  0  0  0  0  0  0  0  0  0  0
    2.4890   -1.5480   -1.4730 F   0  0  0  0  0  0  0  0  0  0  0  0
  1  2  1  0
  2  3  1  0
  3  4  2  0
  3  9  1  0
  4  5  1  0
  5  6  2  0
  6  7  1  0
  7  8  1  0
  7  9  2  0
  9 10  1  0
 10 11  2  3
 11 12  1  0
 12 13  2  3
 13 14  1  0
 14 15  2  0
 14 25  1  0
 15 16  1  0
 15 18  1  0
 16 17  3  0
 18 19  1  0
 18 23  1  1
 19 20  2  0
 19 21  2  0
 19 22  1  1
 23 24  1  0
 24 25  1  0
 25 26  2  3
 26 27  1  0
 26 28  1  0
M  END
