
     RDKit          3D

 28 29  0  0  0  0  0  0  0  0999 V2000
    1.7470    2.0670    1.2790 C   0  0  0  0  0  0  0  0  0  0  0  0
    1.2970    0.8610    0.4530 C   0  0  2  0  0  0  0  0  0  0  0  0
    0.0110    0.5120    0.8800 O   0  0  0  0  0  0  0  0  0  0  0  0
   -1.0580    0.4800   -0.0760 C   0  0  0  0  0  0  0  0  0  0  0  0
   -0.7020    0.7770   -1.2130 O   0  0  0  0  0  0  0  0  0  0  0  0
   -2.3480    0.1380    0.3180 N   0  0  0  0  0  0  0  0  0  0  0  0
   -3.5880   -0.0050   -0.2460 C   0  0  0  0  0  0  0  0  0  0  0  0
   -4.2190    0.0940   -1.3850 C   0  0  0  0  0  0  0  0  0  0  0  0
   -3.4950    0.4830   -2.5790 C   0  0  0  0  0  0  0  0  0  0  0  0
   -3.9800    0.6230   -3.8050 C   0  0  0  0  0  0  0  0  0  0  0  0
   -5.6910    0.3190   -4.0870 S   0  0  0  0  0  0  0  0  0  0  0  0
   -6.4050   -0.1370   -2.5420 C   0  0  0  0  0  0  0  0  0  0  0  0
   -5.6630   -0.1930   -1.4670 C   0  0  0  0  0  0  0  0  0  0  0  0
   -6.3850   -0.5790   -0.2160 C   0  0  1  0  0  0  0  0  0  0  0  0
   -6.3470    0.4550    0.6690 F   0  0  0  0  0  0  0  0  0  0  0  0
   -7.7540   -0.7880   -0.4780 F   0  0  0  0  0  0  0  0  0  0  0  0
   -5.9470   -1.7860    0.2860 F   0  0  0  0  0  0  0  0  0  0  0  0
   -2.3770   -0.1710    1.8320 C   0  0  0  0  0  0  0  0  0  0  0  0
   -2.0910   -1.6340    1.9730 C   0  0  0  0  0  0  0  0  0  0  0  0
   -2.0830   -2.0610    3.2770 O   0  0  0  0  0  0  0  0  0  0  0  0
    2.2770   -0.2340    0.6940 C   0  0  0  0  0  0  0  0  0  0  0  0
    1.8560   -1.2900    1.2270 O   0  0  0  0  0  0  0  0  0  0  0  0
    3.6470   -0.1120    0.3410 N   0  0  0  0  0  0  0  0  0  0  0  0
    4.5360   -1.1980    0.5990 C   0  0  0  0  0  0  0  0  0  0  0  0
    5.9830   -0.8020    0.7330 C   0  0  0  0  0  0  0  0  0  0  0  0
    6.4550    0.0680   -0.4020 C   0  0  0  0  0  0  0  0  0  0  0  0
    5.3190    0.7020   -1.1590 C   0  0  0  0  0  0  0  0  0  0  0  0
    4.1720    1.0910   -0.2770 C   0  0  0  0  0  0  0  0  0  0  0  0
  2  1  1  1
  2  3  1  0
  2 21  1  0
  3  4  1  0
  4  5  2  0
  4  6  1  0
  6  7  1  0
  6 18  1  0
  7  8  2  3
  8  9  1  0
  8 13  1  0
  9 10  2  0
 10 11  1  0
 11 12  1  0
 12 13  2  0
 13 14  1  0
 14 15  1  1
 14 16  1  0
 14 17  1  0
 18 19  1  0
 19 20  1  0
 21 22  2  0
 21 23  1  0
 23 24  1  0
 23 28  1  0
 24 25  1  0
 25 26  1  0
 26 27  1  0
 27 28  1  0
M  END
