
     RDKit          3D

 28 29  0  0  0  0  0  0  0  0999 V2000
    1.6810   -2.2640    1.8290 C   0  0  0  0  0  0  0  0  0  0  0  0
    1.4020   -1.6280    0.7230 C   0  0  0  0  0  0  0  0  0  0  0  0
    2.2180   -0.4770    0.3260 C   0  0  0  0  0  0  0  0  0  0  0  0
    3.4770   -0.2670    0.8460 C   0  0  0  0  0  0  0  0  0  0  0  0
    4.3080    0.7990    0.4440 C   0  0  0  0  0  0  0  0  0  0  0  0
    3.8680    1.6490   -0.4810 C   0  0  0  0  0  0  0  0  0  0  0  0
    2.5950    1.4500   -1.0160 C   0  0  0  0  0  0  0  0  0  0  0  0
    1.7650    0.3920   -0.6170 C   0  0  0  0  0  0  0  0  0  0  0  0
    0.4070    0.3110   -1.1410 C   0  0  0  0  0  0  0  0  0  0  0  0
    0.2260    0.5380   -2.3690 O   0  0  0  0  0  0  0  0  0  0  0  0
   -0.7000    0.0050   -0.3600 N   0  0  0  0  0  0  0  0  0  0  0  0
   -2.0220   -0.0850   -0.9090 C   0  0  0  0  0  0  0  0  0  0  0  0
   -2.2210    0.0550   -2.1270 O   0  0  0  0  0  0  0  0  0  0  0  0
   -3.0950   -0.3290   -0.0730 O   0  0  0  0  0  0  0  0  0  0  0  0
   -4.4130   -0.4360   -0.5050 C   0  0  2  0  0  0  0  0  0  0  0  0
   -4.5470   -1.6020   -1.4730 C   0  0  0  0  0  0  0  0  0  0  0  0
   -4.8890    0.7280   -1.2390 N   0  0  0  0  0  0  0  0  0  0  0  0
   -4.7340    1.9500   -0.5090 C   0  0  0  0  0  0  0  0  0  0  0  0
   -5.2860   -0.7190    0.6620 C   0  0  0  0  0  0  0  0  0  0  0  0
   -6.2670   -0.0630    0.9370 O   0  0  0  0  0  0  0  0  0  0  0  0
   -4.8860   -1.8910    1.5130 C   0  0  2  0  0  0  0  0  0  0  0  0
   -4.8900   -3.0400    0.7690 F   0  0  0  0  0  0  0  0  0  0  0  0
   -5.7890   -2.0300    2.5550 F   0  0  0  0  0  0  0  0  0  0  0  0
   -3.6090   -1.6840    2.0340 F   0  0  0  0  0  0  0  0  0  0  0  0
    4.7750    2.7540   -0.8750 C   0  0  0  0  0  0  0  0  0  0  0  0
    6.3140    2.3390   -0.0230 S   0  0  0  0  0  0  0  0  0  0  0  0
    5.6510    1.0220    1.0140 C   0  0  2  0  0  0  0  0  0  0  0  0
    6.4510   -0.2670    0.8970 C   0  0  0  0  0  0  0  0  0  0  0  0
  1  2  2  0
  2  3  1  0
  3  4  2  0
  3  8  1  0
  4  5  1  0
  5  6  2  0
  5 27  1  0
  6  7  1  0
  6 25  1  0
  7  8  2  0
  8  9  1  0
  9 10  2  0
  9 11  1  0
 11 12  1  0
 12 13  2  0
 12 14  1  0
 14 15  1  0
 15 16  1  6
 15 17  1  0
 15 19  1  0
 17 18  1  0
 19 20  2  0
 19 21  1  0
 21 22  1  6
 21 23  1  0
 21 24  1  0
 25 26  1  0
 26 27  1  0
 27 28  1  6
M  END
