
     RDKit          3D

 29 30  0  0  0  0  0  0  0  0999 V2000
    4.9880    2.3850    0.2300 C   0  0  0  0  0  0  0  0  0  0  0  0
    5.0540    1.2590    0.8480 C   0  0  0  0  0  0  0  0  0  0  0  0
    6.3100    1.1030    1.7260 C   0  0  0  0  0  0  0  0  0  0  0  0
    4.1470    0.1530    0.7380 C   0  0  0  0  0  0  0  0  0  0  0  0
    4.4840   -0.8640    1.6010 C   0  0  0  0  0  0  0  0  0  0  0  0
    3.7430   -2.1290    1.7190 C   0  0  1  0  0  0  0  0  0  0  0  0
    2.4790   -1.9130    2.2260 F   0  0  0  0  0  0  0  0  0  0  0  0
    3.6180   -2.8140    0.5280 F   0  0  0  0  0  0  0  0  0  0  0  0
    4.4440   -2.9790    2.6290 F   0  0  0  0  0  0  0  0  0  0  0  0
    2.9890    0.0000   -0.0650 C   0  0  0  0  0  0  0  0  0  0  0  0
    2.2870    0.5180   -0.9880 C   0  0  0  0  0  0  0  0  0  0  0  0
    0.7210   -0.4350   -1.5070 S   0  0  0  0  0  0  0  0  0  0  0  0
   -0.1330    1.1820   -1.7130 C   0  0  0  0  0  0  0  0  0  0  0  0
   -1.3100    1.4200   -1.3630 N   0  0  0  0  0  0  0  0  0  0  0  0
   -2.1030    0.4150   -0.7550 C   0  0  0  0  0  0  0  0  0  0  0  0
   -2.4050    0.5470    0.4550 O   0  0  0  0  0  0  0  0  0  0  0  0
   -2.5410   -0.7420   -1.5600 C   0  0  0  0  0  0  0  0  0  0  0  0
   -3.3610   -1.6460   -0.8890 O   0  0  0  0  0  0  0  0  0  0  0  0
   -4.5950   -1.3690   -0.3610 C   0  0  0  0  0  0  0  0  0  0  0  0
   -5.1480   -0.1330   -0.4680 C   0  0  0  0  0  0  0  0  0  0  0  0
   -6.4110    0.1160    0.0820 C   0  0  0  0  0  0  0  0  0  0  0  0
   -6.9670    1.3800   -0.0320 O   0  0  0  0  0  0  0  0  0  0  0  0
   -7.1130   -0.8680    0.7320 C   0  0  0  0  0  0  0  0  0  0  0  0
   -6.5690   -2.1280    0.8500 C   0  0  0  0  0  0  0  0  0  0  0  0
   -5.3290   -2.3550    0.3060 C   0  0  0  0  0  0  0  0  0  0  0  0
   -4.7770   -3.5880    0.4120 F   0  0  0  0  0  0  0  0  0  0  0  0
    0.8860    1.9510   -2.3280 N   0  0  0  0  0  0  0  0  0  0  0  0
    2.1850    1.5750   -1.9290 C   0  0  0  0  0  0  0  0  0  0  0  0
    3.2010    2.1640   -2.4130 O   0  0  0  0  0  0  0  0  0  0  0  0
  1  2  2  0
  2  3  1  0
  2  4  1  0
  4  5  2  3
  4 10  1  0
  5  6  1  0
  6  7  1  1
  6  8  1  0
  6  9  1  0
 10 11  2  3
 11 12  1  0
 11 28  1  0
 12 13  1  0
 13 14  2  3
 13 27  1  0
 14 15  1  0
 15 16  2  0
 15 17  1  0
 17 18  1  0
 18 19  1  0
 19 20  2  0
 19 25  1  0
 20 21  1  0
 21 22  1  0
 21 23  2  0
 23 24  1  0
 24 25  2  0
 25 26  1  0
 27 28  1  0
 28 29  2  0
M  END
