
     RDKit          3D

 25 26  0  0  0  0  0  0  0  0999 V2000
    0.5950    1.2900   -4.2510 C   0  0  0  0  0  0  0  0  0  0  0  0
    1.2220    1.2560   -2.9850 O   0  0  0  0  0  0  0  0  0  0  0  0
    0.6770    0.4640   -1.9640 C   0  0  0  0  0  0  0  0  0  0  0  0
   -0.4560   -0.2690   -2.2000 C   0  0  0  0  0  0  0  0  0  0  0  0
   -0.9840   -1.0580   -1.1540 C   0  0  0  0  0  0  0  0  0  0  0  0
   -2.2660   -1.7430   -1.3920 C   0  0  0  0  0  0  0  0  0  0  0  0
   -3.4830   -0.9390   -1.1160 C   0  0  0  0  0  0  0  0  0  0  0  0
   -3.7330   -0.3830    0.1830 C   0  0  0  0  0  0  0  0  0  0  0  0
   -3.2030    0.8520    0.5270 C   0  0  0  0  0  0  0  0  0  0  0  0
   -3.4510    1.4330    1.7610 C   0  0  0  0  0  0  0  0  0  0  0  0
   -4.2360    0.7850    2.6790 C   0  0  0  0  0  0  0  0  0  0  0  0
   -4.7790   -0.4600    2.3540 C   0  0  0  0  0  0  0  0  0  0  0  0
   -4.5170   -1.0160    1.1170 C   0  0  0  0  0  0  0  0  0  0  0  0
   -0.3750   -1.0990    0.0780 C   0  0  0  0  0  0  0  0  0  0  0  0
   -0.8410   -1.9490    1.1710 C   0  0  0  0  0  0  0  0  0  0  0  0
   -1.8540   -2.6880    1.1280 O   0  0  0  0  0  0  0  0  0  0  0  0
   -0.1240   -1.9590    2.3600 O   0  0  0  0  0  0  0  0  0  0  0  0
    0.7900   -0.3310    0.2880 C   0  0  0  0  0  0  0  0  0  0  0  0
    1.4710   -0.2910    1.4600 O   0  0  0  0  0  0  0  0  0  0  0  0
    1.3190    0.4590   -0.7500 C   0  0  0  0  0  0  0  0  0  0  0  0
    2.5400    1.2740   -0.5740 C   0  0  0  0  0  0  0  0  0  0  0  0
    3.1140    1.2680    0.7770 C   0  0  0  0  0  0  0  0  0  0  0  0
    4.3190    0.7750    0.9960 C   0  0  0  0  0  0  0  0  0  0  0  0
    5.1120    0.2160   -0.1340 C   0  0  0  0  0  0  0  0  0  0  0  0
    4.9150    0.7710    2.3790 C   0  0  0  0  0  0  0  0  0  0  0  0
  1  2  1  0
  2  3  1  0
  3  4  2  0
  3 20  1  0
  4  5  1  0
  5  6  1  0
  5 14  2  0
  6  7  1  0
  7  8  1  0
  8  9  2  0
  8 13  1  0
  9 10  1  0
 10 11  2  0
 11 12  1  0
 12 13  2  0
 14 15  1  0
 14 18  1  0
 15 16  2  0
 15 17  1  0
 18 19  1  0
 18 20  2  0
 20 21  1  0
 21 22  1  0
 22 23  2  3
 23 24  1  0
 23 25  1  0
M  END
