
     RDKit          3D

 29 32  0  0  0  0  0  0  0  0999 V2000
    7.5110    1.3410   -1.0530 C   0  0  0  0  0  0  0  0  0  0  0  0
    7.5460    0.0150   -0.3630 C   0  0  0  0  0  0  0  0  0  0  0  0
    6.2800   -0.6990   -0.4020 C   0  0  0  0  0  0  0  0  0  0  0  0
    5.1100    0.0150    0.1210 N   0  0  0  0  0  0  0  0  0  0  0  0
    4.9480    0.3500    1.3980 C   0  0  0  0  0  0  0  0  0  0  0  0
    6.0430    0.8700    2.2630 C   0  0  0  0  0  0  0  0  0  0  0  0
    3.6520    0.3610    1.7270 N   0  0  0  0  0  0  0  0  0  0  0  0
    2.9760    0.0300    0.6180 C   0  0  0  0  0  0  0  0  0  0  0  0
    1.6190   -0.1280    0.4710 C   0  0  0  0  0  0  0  0  0  0  0  0
    1.1580   -0.5230   -0.7990 C   0  0  0  0  0  0  0  0  0  0  0  0
   -0.2790   -0.9030   -0.8560 C   0  0  0  0  0  0  0  0  0  0  0  0
   -0.4460   -1.8510    0.2120 N   0  0  0  0  0  0  0  0  0  0  0  0
   -1.5460   -1.5370    1.0450 C   0  0  0  0  0  0  0  0  0  0  0  0
   -2.2840   -0.3000    0.7930 C   0  0  0  0  0  0  0  0  0  0  0  0
   -1.9580    0.9840    0.9230 O   0  0  0  0  0  0  0  0  0  0  0  0
   -2.9880    1.7990    0.6410 C   0  0  0  0  0  0  0  0  0  0  0  0
   -4.0270    0.9300    0.3080 C   0  0  0  0  0  0  0  0  0  0  0  0
   -3.6160   -0.2740    0.3530 C   0  0  0  0  0  0  0  0  0  0  0  0
   -4.4550   -1.3860   -0.2140 C   0  0  1  0  0  0  0  0  0  0  0  0
   -5.0720   -2.0390    0.9000 N   0  0  0  0  0  0  0  0  0  0  0  0
   -5.3880   -0.9300   -1.2910 C   0  0  0  0  0  0  0  0  0  0  0  0
   -5.6340    0.5600   -1.3760 C   0  0  0  0  0  0  0  0  0  0  0  0
   -5.4910    1.1280    0.0120 C   0  0  2  0  0  0  0  0  0  0  0  0
   -5.9750    2.4670    0.2360 C   0  0  0  0  0  0  0  0  0  0  0  0
   -7.3920    2.6250    0.2960 N   0  0  0  0  0  0  0  0  0  0  0  0
   -5.2700    3.4850    0.4280 O   0  0  0  0  0  0  0  0  0  0  0  0
    2.0160   -0.6590   -1.7870 C   0  0  0  0  0  0  0  0  0  0  0  0
    3.3690   -0.5110   -1.6530 C   0  0  0  0  0  0  0  0  0  0  0  0
    3.9040   -0.1780   -0.4030 C   0  0  0  0  0  0  0  0  0  0  0  0
  1  2  1  0
  2  3  1  0
  3  4  1  0
  4  5  1  0
  4 29  1  0
  5  6  1  0
  5  7  2  0
  7  8  1  0
  8  9  2  0
  8 29  1  0
  9 10  1  0
 10 11  1  0
 10 27  2  0
 11 12  1  0
 12 13  1  0
 13 14  1  0
 14 15  1  0
 14 18  2  0
 15 16  1  0
 16 17  2  0
 17 18  1  0
 17 23  1  0
 18 19  1  0
 19 20  1  1
 19 21  1  0
 21 22  1  0
 22 23  1  0
 23 24  1  6
 24 25  1  0
 24 26  2  0
 27 28  1  0
 28 29  2  0
M  CHG  1  20   1
M  END
