
     RDKit          3D

 29 32  0  0  0  0  0  0  0  0999 V2000
    3.1570    0.4050   -3.5250 C   0  0  0  0  0  0  0  0  0  0  0  0
    2.6250    1.4220   -2.5490 C   0  0  0  0  0  0  0  0  0  0  0  0
    1.8320    0.6930   -1.5070 C   0  0  0  0  0  0  0  0  0  0  0  0
    0.4960    0.6490   -1.5790 N   0  0  0  0  0  0  0  0  0  0  0  0
   -0.2920    0.0010   -0.6950 C   0  0  0  0  0  0  0  0  0  0  0  0
   -1.7000    0.0410   -0.9390 N   0  0  0  0  0  0  0  0  0  0  0  0
   -2.2290    0.0020   -2.3060 C   0  0  0  0  0  0  0  0  0  0  0  0
   -3.1670    1.2030   -2.2140 C   0  0  0  0  0  0  0  0  0  0  0  0
   -3.8270    0.9490   -0.8680 C   0  0  0  0  0  0  0  0  0  0  0  0
   -2.8370    0.1570   -0.0280 C   0  0  2  0  0  0  0  0  0  0  0  0
   -2.3340    1.0120    1.1070 C   0  0  0  0  0  0  0  0  0  0  0  0
   -3.3040    1.2670    2.1470 N   0  0  0  0  0  0  0  0  0  0  0  0
   -3.2820   -1.1950    0.2650 C   0  0  0  0  0  0  0  0  0  0  0  0
   -4.4070   -1.5230    1.1360 C   0  0  0  0  0  0  0  0  0  0  0  0
   -5.7820   -1.1050    0.7740 C   0  0  0  0  0  0  0  0  0  0  0  0
   -6.1960   -1.6880   -0.4470 O   0  0  0  0  0  0  0  0  0  0  0  0
    0.3100   -0.6530    0.3390 C   0  0  0  0  0  0  0  0  0  0  0  0
    1.6870   -0.6590    0.4910 C   0  0  0  0  0  0  0  0  0  0  0  0
    2.4290    0.0320   -0.4600 C   0  0  0  0  0  0  0  0  0  0  0  0
    3.8350    0.1600   -0.4710 N   0  0  0  0  0  0  0  0  0  0  0  0
    4.7220   -0.0170    0.6420 C   0  0  0  0  0  0  0  0  0  0  0  0
    5.8930    0.6650    0.3860 C   0  0  0  0  0  0  0  0  0  0  0  0
    6.9040    0.6530    1.2920 C   0  0  0  0  0  0  0  0  0  0  0  0
    6.7290   -0.0550    2.4690 C   0  0  0  0  0  0  0  0  0  0  0  0
    5.5660   -0.7470    2.7520 C   0  0  0  0  0  0  0  0  0  0  0  0
    4.5550   -0.7190    1.8130 C   0  0  0  0  0  0  0  0  0  0  0  0
    3.4030   -1.4760    2.2250 N   0  0  0  0  0  0  0  0  0  0  0  0
    2.0920   -1.4260    1.6750 C   0  0  0  0  0  0  0  0  0  0  0  0
    1.1760   -2.0860    2.2280 O   0  0  0  0  0  0  0  0  0  0  0  0
  1  2  1  0
  2  3  1  0
  3  4  2  0
  3 19  1  0
  4  5  1  0
  5  6  1  0
  5 17  2  0
  6  7  1  0
  6 10  1  0
  7  8  1  0
  8  9  1  0
  9 10  1  0
 10 11  1  1
 10 13  1  0
 11 12  1  0
 13 14  1  0
 14 15  1  0
 15 16  1  0
 17 18  1  0
 18 19  2  0
 18 28  1  0
 19 20  1  0
 20 21  1  0
 21 22  2  0
 21 26  1  0
 22 23  1  0
 23 24  2  0
 24 25  1  0
 25 26  2  0
 26 27  1  0
 27 28  1  0
 28 29  2  0
M  CHG  1  12   1
M  END
