
     RDKit          3D

 29 32  0  0  0  0  0  0  0  0999 V2000
   -4.7840   -1.7050    0.0470 C   0  0  0  0  0  0  0  0  0  0  0  0
   -3.4880   -2.0840   -0.4650 N   0  0  0  0  0  0  0  0  0  0  0  0
   -3.1970   -3.2170   -1.1800 C   0  0  0  0  0  0  0  0  0  0  0  0
   -1.8590   -3.2370   -1.4800 C   0  0  0  0  0  0  0  0  0  0  0  0
   -1.3300   -2.0950   -0.9370 C   0  0  0  0  0  0  0  0  0  0  0  0
   -2.3660   -1.3850   -0.3050 C   0  0  0  0  0  0  0  0  0  0  0  0
   -2.0840   -0.1100    0.3480 C   0  0  1  0  0  0  0  0  0  0  0  0
   -1.0760    0.6530   -0.4480 N   0  0  0  0  0  0  0  0  0  0  0  0
    0.1180    0.7760    0.2780 C   0  0  0  0  0  0  0  0  0  0  0  0
    1.1980    1.6280   -0.2640 C   0  0  0  0  0  0  0  0  0  0  0  0
    1.1970    2.3050   -1.3630 C   0  0  0  0  0  0  0  0  0  0  0  0
    0.0230    2.2680   -2.2150 N   0  0  0  0  0  0  0  0  0  0  0  0
    2.2960    3.0970   -1.7910 N   0  0  0  0  0  0  0  0  0  0  0  0
    3.3500    3.1720   -1.0910 C   0  0  0  0  0  0  0  0  0  0  0  0
    4.4120    3.9710   -1.5590 O   0  0  0  0  0  0  0  0  0  0  0  0
    3.5340    2.4660    0.1950 C   0  0  0  0  0  0  0  0  0  0  0  0
    2.4080    1.6460    0.6440 C   0  0  2  0  0  0  0  0  0  0  0  0
    2.8750    0.2190    0.7660 C   0  0  0  0  0  0  0  0  0  0  0  0
    3.3710   -0.4250   -0.3420 C   0  0  0  0  0  0  0  0  0  0  0  0
    3.8160   -1.7340   -0.2980 C   0  0  0  0  0  0  0  0  0  0  0  0
    3.7680   -2.4390    0.8950 C   0  0  0  0  0  0  0  0  0  0  0  0
    4.1990   -3.7680    1.0240 N   0  0  0  0  0  0  0  0  0  0  0  0
    3.2640   -1.7710    2.0040 C   0  0  0  0  0  0  0  0  0  0  0  0
    2.8240   -0.4640    1.9460 C   0  0  0  0  0  0  0  0  0  0  0  0
   -3.2200    0.7380    0.6740 C   0  0  0  0  0  0  0  0  0  0  0  0
   -3.9020    0.8610    1.8620 C   0  0  0  0  0  0  0  0  0  0  0  0
   -4.8920    1.8180    1.6750 C   0  0  0  0  0  0  0  0  0  0  0  0
   -4.8020    2.2420    0.4370 O   0  0  0  0  0  0  0  0  0  0  0  0
   -3.8320    1.6340   -0.1890 C   0  0  0  0  0  0  0  0  0  0  0  0
  1  2  1  0
  2  3  1  0
  2  6  1  0
  3  4  2  0
  4  5  1  0
  5  6  2  0
  6  7  1  0
  7  8  1  6
  7 25  1  0
  8  9  1  0
  9 10  1  0
 10 11  2  0
 10 17  1  0
 11 12  1  0
 11 13  1  0
 13 14  2  0
 14 15  1  0
 14 16  1  0
 16 17  1  0
 17 18  1  6
 18 19  2  0
 18 24  1  0
 19 20  1  0
 20 21  2  0
 21 22  1  0
 21 23  1  0
 23 24  2  0
 25 26  1  0
 25 29  2  0
 26 27  2  0
 27 28  1  0
 28 29  1  0
M  CHG  1   8   1
M  END
