
     RDKit          3D

 30 33  0  0  0  0  0  0  0  0999 V2000
    4.7840   -0.9830    2.1390 C   0  0  0  0  0  0  0  0  0  0  0  0
    4.4040   -0.6420    0.6790 C   0  0  1  0  0  0  0  0  0  0  0  0
    3.0620   -0.6510    0.5110 O   0  0  0  0  0  0  0  0  0  0  0  0
    2.1650   -1.5020    0.0070 C   0  0  0  0  0  0  0  0  0  0  0  0
    0.7910   -1.0980    0.0020 C   0  0  0  0  0  0  0  0  0  0  0  0
   -0.1840   -1.8970   -0.4900 C   0  0  0  0  0  0  0  0  0  0  0  0
   -1.5960   -1.5610   -0.5010 C   0  0  0  0  0  0  0  0  0  0  0  0
   -2.6000   -2.5180   -0.4120 C   0  0  0  0  0  0  0  0  0  0  0  0
   -3.7750   -1.8670   -0.4440 N   0  0  0  0  0  0  0  0  0  0  0  0
   -3.5790   -0.5590   -0.5470 N   0  0  0  0  0  0  0  0  0  0  0  0
   -4.5900    0.4440   -0.6130 C   0  0  2  0  0  0  0  0  0  0  0  0
   -4.2620    1.6350    0.2250 C   0  0  0  0  0  0  0  0  0  0  0  0
   -5.2500    2.7360   -0.1450 C   0  0  0  0  0  0  0  0  0  0  0  0
   -6.5320    2.2280   -0.5140 N   0  0  0  0  0  0  0  0  0  0  0  0
   -6.9030    1.0060    0.1660 C   0  0  0  0  0  0  0  0  0  0  0  0
   -5.9200   -0.0990   -0.1090 C   0  0  0  0  0  0  0  0  0  0  0  0
   -2.2440   -0.3690   -0.5820 C   0  0  0  0  0  0  0  0  0  0  0  0
    0.2220   -3.1440   -1.0000 C   0  0  0  0  0  0  0  0  0  0  0  0
    1.4920   -3.5000   -0.9870 N   0  0  0  0  0  0  0  0  0  0  0  0
    2.5140   -2.7330   -0.5000 C   0  0  0  0  0  0  0  0  0  0  0  0
    3.8290   -3.2690   -0.5220 N   0  0  0  0  0  0  0  0  0  0  0  0
    5.0770    0.6010    0.2150 C   0  0  0  0  0  0  0  0  0  0  0  0
    5.1330    0.7950   -1.1720 C   0  0  0  0  0  0  0  0  0  0  0  0
    4.4090   -0.4190   -2.2290 Cl  0  0  0  0  0  0  0  0  0  0  0  0
    5.7250    1.8940   -1.7590 C   0  0  0  0  0  0  0  0  0  0  0  0
    6.2950    2.8630   -0.9650 C   0  0  0  0  0  0  0  0  0  0  0  0
    6.2550    2.7000    0.3990 C   0  0  0  0  0  0  0  0  0  0  0  0
    6.8120    3.6470    1.1730 F   0  0  0  0  0  0  0  0  0  0  0  0
    5.6440    1.5670    0.9730 C   0  0  0  0  0  0  0  0  0  0  0  0
    5.6190    1.4710    2.7150 Cl  0  0  0  0  0  0  0  0  0  0  0  0
  2  1  1  1
  2  3  1  0
  2 22  1  0
  3  4  1  0
  4  5  2  0
  4 20  1  0
  5  6  1  0
  6  7  1  0
  6 18  2  0
  7  8  1  0
  7 17  2  0
  8  9  2  0
  9 10  1  0
 11 10  1  1
 10 17  1  0
 11 12  1  0
 11 16  1  0
 12 13  1  0
 13 14  1  0
 14 15  1  0
 15 16  1  0
 18 19  1  0
 19 20  2  0
 20 21  1  0
 22 23  2  0
 22 29  1  0
 23 24  1  0
 23 25  1  0
 25 26  2  0
 26 27  1  0
 27 28  1  0
 27 29  2  0
 29 30  1  0
M  CHG  1  14   1
M  END
