
     RDKit          3D

 29 32  0  0  0  0  0  0  0  0999 V2000
   -7.4080   -2.0410    0.6760 C   0  0  0  0  0  0  0  0  0  0  0  0
   -6.8340   -1.5350   -0.6210 C   0  0  1  0  0  0  0  0  0  0  0  0
   -7.4750   -0.2590   -0.9120 N   0  0  0  0  0  0  0  0  0  0  0  0
   -5.3770   -1.2720   -0.4390 C   0  0  0  0  0  0  0  0  0  0  0  0
   -4.6850   -0.4580   -1.3100 C   0  0  0  0  0  0  0  0  0  0  0  0
   -3.3230   -0.2180   -1.1320 C   0  0  0  0  0  0  0  0  0  0  0  0
   -2.6230   -0.7800   -0.0880 C   0  0  0  0  0  0  0  0  0  0  0  0
   -1.1500   -0.4990    0.0750 C   0  0  2  0  0  0  0  0  0  0  0  0
   -0.8360   -0.2030    1.4390 N   0  0  0  0  0  0  0  0  0  0  0  0
    0.5020    0.0260    1.8180 C   0  0  0  0  0  0  0  0  0  0  0  0
    1.6200   -0.0150    1.0140 C   0  0  0  0  0  0  0  0  0  0  0  0
    2.7190    0.2690    1.7900 C   0  0  0  0  0  0  0  0  0  0  0  0
    4.0790    0.3500    1.4400 N   0  0  0  0  0  0  0  0  0  0  0  0
    4.6090    0.1430    0.1520 C   0  0  0  0  0  0  0  0  0  0  0  0
    3.8400   -0.1390   -0.7960 O   0  0  0  0  0  0  0  0  0  0  0  0
    6.0570    0.2500   -0.1200 C   0  0  2  0  0  0  0  0  0  0  0  0
    6.8310   -0.7460    0.7040 C   0  0  0  0  0  0  0  0  0  0  0  0
    6.5130    1.6840    0.0330 C   0  0  0  0  0  0  0  0  0  0  0  0
    7.3790    1.4750   -1.2060 C   0  0  0  0  0  0  0  0  0  0  0  0
    6.4550    0.3090   -1.5540 C   0  0  0  0  0  0  0  0  0  0  0  0
    2.2200    0.4670    3.0210 N   0  0  0  0  0  0  0  0  0  0  0  0
    0.9470    0.3250    3.0260 O   0  0  0  0  0  0  0  0  0  0  0  0
   -0.7920    0.6080   -0.8450 C   0  0  0  0  0  0  0  0  0  0  0  0
   -1.0020    1.9470   -0.6160 C   0  0  0  0  0  0  0  0  0  0  0  0
   -0.5420    2.6730   -1.7160 C   0  0  0  0  0  0  0  0  0  0  0  0
   -0.0580    1.7740   -2.6000 N   0  0  0  0  0  0  0  0  0  0  0  0
   -0.2040    0.5190   -2.0830 C   0  0  0  0  0  0  0  0  0  0  0  0
   -3.3140   -1.5920    0.7810 C   0  0  0  0  0  0  0  0  0  0  0  0
   -4.6760   -1.8340    0.6050 C   0  0  0  0  0  0  0  0  0  0  0  0
  2  1  1  1
  2  3  1  0
  2  4  1  0
  4  5  2  0
  4 29  1  0
  5  6  1  0
  6  7  2  0
  7  8  1  0
  7 28  1  0
  8  9  1  1
  8 23  1  0
  9 10  1  0
 10 11  2  0
 10 22  1  0
 11 12  1  0
 12 13  1  0
 12 21  2  0
 13 14  1  0
 14 15  2  0
 14 16  1  0
 16 17  1  1
 16 18  1  0
 16 20  1  0
 18 19  1  0
 19 20  1  0
 21 22  1  0
 23 24  1  0
 23 27  2  0
 24 25  2  0
 25 26  1  0
 26 27  1  0
 28 29  2  0
M  CHG  1   3   1
M  END
