
     RDKit          3D

 31 34  0  0  0  0  0  0  0  0999 V2000
    1.2980   -4.1870   -0.3820 C   0  0  0  0  0  0  0  0  0  0  0  0
    0.9630   -2.8110   -0.4320 O   0  0  0  0  0  0  0  0  0  0  0  0
    1.9520   -1.8660   -0.7590 C   0  0  0  0  0  0  0  0  0  0  0  0
    3.2380   -2.2500   -1.0320 C   0  0  0  0  0  0  0  0  0  0  0  0
    4.2000   -1.3230   -1.3520 C   0  0  0  0  0  0  0  0  0  0  0  0
    3.8220   -0.0020   -1.3850 C   0  0  0  0  0  0  0  0  0  0  0  0
    4.7830    0.9870   -1.6970 N   0  0  0  0  0  0  0  0  0  0  0  0
    6.1950    0.7480   -1.7900 C   0  0  0  0  0  0  0  0  0  0  0  0
    6.8320    0.3700   -0.4980 C   0  0  0  0  0  0  0  0  0  0  0  0
    7.4990   -0.7020   -0.1380 C   0  0  0  0  0  0  0  0  0  0  0  0
    7.9260   -0.5860    1.2690 C   0  0  0  0  0  0  0  0  0  0  0  0
    7.4160    0.7170    1.7020 C   0  0  0  0  0  0  0  0  0  0  0  0
    6.7910    1.2580    0.6860 C   0  0  0  0  0  0  0  0  0  0  0  0
    2.4950    0.3760   -1.1020 C   0  0  0  0  0  0  0  0  0  0  0  0
    1.5170   -0.5280   -0.7810 C   0  0  0  0  0  0  0  0  0  0  0  0
    0.1750   -0.2180   -0.4880 N   0  0  0  0  0  0  0  0  0  0  0  0
   -0.3790    1.0540   -0.4760 C   0  0  0  0  0  0  0  0  0  0  0  0
    0.2880    2.0570   -0.7330 O   0  0  0  0  0  0  0  0  0  0  0  0
   -1.7740    1.2920   -0.1630 N   0  0  0  0  0  0  0  0  0  0  0  0
   -2.2500    2.6280   -0.1770 C   0  0  0  0  0  0  0  0  0  0  0  0
   -3.7120    2.7770   -0.4750 C   0  0  0  0  0  0  0  0  0  0  0  0
   -4.4160    1.4580   -0.6640 C   0  0  0  0  0  0  0  0  0  0  0  0
   -4.0190    0.4310    0.3440 C   0  0  1  0  0  0  0  0  0  0  0  0
   -4.1850    0.9170    1.7670 C   0  0  0  0  0  0  0  0  0  0  0  0
   -5.5630    0.6710    2.3070 C   0  0  0  0  0  0  0  0  0  0  0  0
   -6.5740    0.4430    1.2430 C   0  0  0  0  0  0  0  0  0  0  0  0
   -7.7060    0.9830    1.2240 O   0  0  0  0  0  0  0  0  0  0  0  0
   -6.2250   -0.4460    0.1850 N   0  0  0  0  0  0  0  0  0  0  0  0
   -7.2010   -0.9630   -0.7520 C   0  0  0  0  0  0  0  0  0  0  0  0
   -4.8280   -0.8190    0.0830 C   0  0  0  0  0  0  0  0  0  0  0  0
   -2.5540    0.1220    0.1360 C   0  0  0  0  0  0  0  0  0  0  0  0
  1  2  1  0
  2  3  1  0
  3  4  2  0
  3 15  1  0
  4  5  1  0
  5  6  2  0
  6  7  1  0
  6 14  1  0
  7  8  1  0
  8  9  1  0
  9 10  2  0
  9 13  1  0
 10 11  1  0
 11 12  1  0
 12 13  2  0
 14 15  2  0
 15 16  1  0
 16 17  1  0
 17 18  2  0
 17 19  1  0
 19 20  1  0
 19 31  1  0
 20 21  1  0
 21 22  1  0
 23 22  1  6
 23 24  1  0
 23 30  1  0
 23 31  1  0
 24 25  1  0
 25 26  1  0
 26 27  2  0
 26 28  1  0
 28 29  1  0
 28 30  1  0
M  END
