
     RDKit          3D

 40 42  0  0  0  0  0  0  0  0999 V2000
   -6.9500   -1.8060    0.2120 C   0  0  0  0  0  0  0  0  0  0  0  0
   -6.8060   -0.3850   -0.3200 C   0  0  1  0  0  0  0  0  0  0  0  0
   -6.7400    0.5230    0.8780 C   0  0  0  0  0  0  0  0  0  0  0  0
   -6.2150    1.8840    0.4660 C   0  0  1  0  0  0  0  0  0  0  0  0
   -6.0450    2.8000    1.6470 C   0  0  0  0  0  0  0  0  0  0  0  0
   -4.8830    1.6920   -0.1780 C   0  0  0  0  0  0  0  0  0  0  0  0
   -4.5970    0.2000   -0.4280 C   0  0  2  0  0  0  0  0  0  0  0  0
   -3.3680    0.1660   -1.2870 C   0  0  0  0  0  0  0  0  0  0  0  0
   -2.1630    0.5920   -0.6370 N   0  0  0  0  0  0  0  0  0  0  0  0
   -1.3440   -0.4030    0.0030 C   0  0  0  0  0  0  0  0  0  0  0  0
   -1.7420   -1.7960   -0.1830 C   0  0  0  0  0  0  0  0  0  0  0  0
   -1.4040   -2.4830   -1.4330 C   0  0  0  0  0  0  0  0  0  0  0  0
   -2.2430   -3.7460   -1.6180 C   0  0  0  0  0  0  0  0  0  0  0  0
   -1.9420   -4.4260   -2.7650 O   0  0  0  0  0  0  0  0  0  0  0  0
   -0.5340   -2.2090   -2.3530 C   0  0  0  0  0  0  0  0  0  0  0  0
    0.4330   -1.1720   -2.5400 C   0  0  0  0  0  0  0  0  0  0  0  0
    1.6960   -1.0470   -2.1810 C   0  0  0  0  0  0  0  0  0  0  0  0
    2.5600   -1.9420   -1.4570 C   0  0  0  0  0  0  0  0  0  0  0  0
    2.8600   -2.0560   -0.1980 C   0  0  0  0  0  0  0  0  0  0  0  0
    2.3630   -1.2290    0.9490 C   0  0  1  0  0  0  0  0  0  0  0  0
    1.3020   -2.0820    1.6190 C   0  0  0  0  0  0  0  0  0  0  0  0
    3.3890   -0.9910    1.9050 N   0  0  0  0  0  0  0  0  0  0  0  0
    4.3750   -0.0270    1.6730 C   0  0  1  0  0  0  0  0  0  0  0  0
    5.5840   -0.6910    1.0590 C   0  0  0  0  0  0  0  0  0  0  0  0
    5.8710   -0.3400   -0.3560 C   0  0  0  0  0  0  0  0  0  0  0  0
    6.1920    1.1230   -0.4580 C   0  0  1  0  0  0  0  0  0  0  0  0
    7.5630    1.2870   -0.2810 O   0  0  0  0  0  0  0  0  0  0  0  0
    5.8250    1.7020   -1.8070 C   0  0  0  0  0  0  0  0  0  0  0  0
    6.1810    3.0500   -1.7770 O   0  0  0  0  0  0  0  0  0  0  0  0
    5.4670    1.8250    0.6320 C   0  0  0  0  0  0  0  0  0  0  0  0
    4.0810    1.2080    0.9210 C   0  0  2  0  0  0  0  0  0  0  0  0
    3.3080    2.2360    1.6550 C   0  0  0  0  0  0  0  0  0  0  0  0
    3.8900    3.3860    1.6390 O   0  0  0  0  0  0  0  0  0  0  0  0
    2.1380    2.1120    2.3000 O   0  0  0  0  0  0  0  0  0  0  0  0
    0.8180    1.9520    1.9860 C   0  0  0  0  0  0  0  0  0  0  0  0
    0.4080    2.3990    0.5910 C   0  0  0  0  0  0  0  0  0  0  0  0
   -0.9460    2.4360    0.3810 O   0  0  0  0  0  0  0  0  0  0  0  0
   -1.7550    1.9560   -0.6150 C   0  0  0  0  0  0  0  0  0  0  0  0
   -2.2110    2.6620   -1.5900 O   0  0  0  0  0  0  0  0  0  0  0  0
   -5.7120   -0.2420   -1.1640 O   0  0  0  0  0  0  0  0  0  0  0  0
  2  1  1  1
  2  3  1  0
  2 40  1  0
  3  4  1  0
  4  5  1  1
  4  6  1  0
  6  7  1  0
  7  8  1  6
  7 40  1  0
  8  9  1  0
  9 10  1  0
  9 38  1  0
 10 11  1  0
 11 12  1  0
 12 13  1  0
 12 15  2  0
 13 14  1  0
 15 16  1  0
 16 17  2  0
 17 18  1  0
 18 19  2  0
 19 20  1  0
 20 21  1  1
 20 22  1  0
 22 23  1  0
 23 24  1  6
 23 31  1  0
 24 25  1  0
 25 26  1  0
 26 27  1  1
 26 28  1  0
 26 30  1  0
 28 29  1  0
 31 30  1  1
 31 32  1  0
 32 33  2  0
 32 34  1  0
 34 35  1  0
 35 36  1  0
 36 37  1  0
 37 38  1  0
 38 39  2  0
M  CHG  1  22   1
M  END
