
     RDKit          3D

 39 40  0  0  0  0  0  0  0  0999 V2000
   -0.7840    5.6990    1.3810 C   0  0  0  0  0  0  0  0  0  0  0  0
   -1.8630    5.4200    0.3820 C   0  0  0  0  0  0  0  0  0  0  0  0
   -2.6060    6.3670   -0.1320 C   0  0  0  0  0  0  0  0  0  0  0  0
   -3.5590    5.7510   -1.0710 C   0  0  0  0  0  0  0  0  0  0  0  0
   -3.2020    4.2970   -0.9750 C   0  0  0  0  0  0  0  0  0  0  0  0
   -2.2160    4.0850   -0.1350 C   0  0  0  0  0  0  0  0  0  0  0  0
   -1.5680    2.8340    0.2340 C   0  0  0  0  0  0  0  0  0  0  0  0
   -0.6270    2.9720    1.1110 O   0  0  0  0  0  0  0  0  0  0  0  0
   -1.7880    1.5370   -0.1920 N   0  0  0  0  0  0  0  0  0  0  0  0
   -0.9240    0.5010    0.4500 C   0  0  0  0  0  0  0  0  0  0  0  0
    0.4160    0.4190   -0.2350 C   0  0  2  0  0  0  0  0  0  0  0  0
    0.5090   -0.6590   -1.1080 O   0  0  0  0  0  0  0  0  0  0  0  0
    1.5080    0.3300    0.8070 C   0  0  0  0  0  0  0  0  0  0  0  0
    2.4950   -0.6790    0.5020 N   0  0  0  0  0  0  0  0  0  0  0  0
    3.8750   -0.2650    0.2090 C   0  0  2  0  0  0  0  0  0  0  0  0
    4.4450    0.5260    1.3620 C   0  0  0  0  0  0  0  0  0  0  0  0
    3.9020    0.6500   -0.9970 C   0  0  0  0  0  0  0  0  0  0  0  0
    5.1820    1.0640   -1.3260 O   0  0  0  0  0  0  0  0  0  0  0  0
    6.0520    0.0670   -1.6790 C   0  0  2  0  0  0  0  0  0  0  0  0
    7.2650    0.1280   -0.7790 C   0  0  0  0  0  0  0  0  0  0  0  0
    6.5280    0.2350   -3.1290 C   0  0  0  0  0  0  0  0  0  0  0  0
    2.2380   -2.0660    0.4620 C   0  0  0  0  0  0  0  0  0  0  0  0
    2.9760   -2.7870   -0.2530 O   0  0  0  0  0  0  0  0  0  0  0  0
    1.1480   -2.7560    1.2080 C   0  0  0  0  0  0  0  0  0  0  0  0
    0.6460   -3.7490    0.4580 O   0  0  0  0  0  0  0  0  0  0  0  0
    0.6500   -5.0120    0.0810 C   0  0  0  0  0  0  0  0  0  0  0  0
    1.5520   -5.9230    0.2750 O   0  0  0  0  0  0  0  0  0  0  0  0
   -0.4890   -5.5850   -0.6850 C   0  0  0  0  0  0  0  0  0  0  0  0
   -1.7520   -5.4060   -0.4380 C   0  0  0  0  0  0  0  0  0  0  0  0
   -2.3980   -4.6150    0.6310 C   0  0  1  0  0  0  0  0  0  0  0  0
   -1.7140   -4.6350    1.9470 C   0  0  0  0  0  0  0  0  0  0  0  0
   -2.6590   -3.2110    0.0860 C   0  0  0  0  0  0  0  0  0  0  0  0
   -3.5210   -2.4500    1.0180 C   0  0  0  0  0  0  0  0  0  0  0  0
   -4.2170   -1.3750    0.6720 C   0  0  0  0  0  0  0  0  0  0  0  0
   -4.2440   -0.7770   -0.6600 C   0  0  0  0  0  0  0  0  0  0  0  0
   -4.0810    0.7310   -0.6910 C   0  0  2  0  0  0  0  0  0  0  0  0
   -4.3510    1.2070    0.7280 C   0  0  0  0  0  0  0  0  0  0  0  0
   -5.0950    1.2580   -1.5280 O   0  0  0  0  0  0  0  0  0  0  0  0
   -2.7080    1.0590   -1.1660 C   0  0  0  0  0  0  0  0  0  0  0  0
  1  2  1  0
  2  3  2  0
  2  6  1  0
  3  4  1  0
  4  5  1  0
  5  6  2  0
  6  7  1  0
  7  8  2  0
  7  9  1  0
  9 10  1  0
  9 39  1  0
 10 11  1  0
 11 12  1  6
 11 13  1  0
 13 14  1  0
 14 15  1  0
 14 22  1  0
 15 16  1  1
 15 17  1  0
 17 18  1  0
 18 19  1  0
 19 20  1  1
 19 21  1  0
 22 23  2  0
 22 24  1  0
 24 25  1  0
 25 26  1  0
 26 27  2  0
 26 28  1  0
 28 29  2  0
 29 30  1  0
 30 31  1  1
 30 32  1  0
 32 33  1  0
 33 34  2  0
 34 35  1  0
 35 36  1  0
 36 37  1  1
 36 38  1  0
 36 39  1  0
M  END
