
     RDKit          3D

 40 42  0  0  0  0  0  0  0  0999 V2000
   -5.3840   -1.2600    0.5550 C   0  0  0  0  0  0  0  0  0  0  0  0
   -4.8770   -0.9470   -0.7830 C   0  0  1  0  0  0  0  0  0  0  0  0
   -3.7530   -0.0290   -0.9780 C   0  0  1  0  0  0  0  0  0  0  0  0
   -3.6880    1.2500   -0.4160 N   0  0  0  0  0  0  0  0  0  0  0  0
   -4.1080    1.8870    0.7540 C   0  0  0  0  0  0  0  0  0  0  0  0
   -5.1660    2.6490    0.6080 O   0  0  0  0  0  0  0  0  0  0  0  0
   -3.6410    1.9120    2.1410 C   0  0  2  0  0  0  0  0  0  0  0  0
   -4.2590    0.8570    3.0360 C   0  0  0  0  0  0  0  0  0  0  0  0
   -4.0770    3.2400    2.8330 C   0  0  0  0  0  0  0  0  0  0  0  0
   -2.1580    1.9080    2.3680 C   0  0  0  0  0  0  0  0  0  0  0  0
   -1.4800    2.8850    1.4640 C   0  0  0  0  0  0  0  0  0  0  0  0
   -0.4020    2.6200    0.7520 C   0  0  0  0  0  0  0  0  0  0  0  0
    0.3140    1.3120    0.7320 C   0  0  0  0  0  0  0  0  0  0  0  0
    1.2020    1.1410   -0.4730 C   0  0  1  0  0  0  0  0  0  0  0  0
    2.5550    1.6370   -0.1130 C   0  0  0  0  0  0  0  0  0  0  0  0
    3.0220    2.8540   -0.8600 C   0  0  0  0  0  0  0  0  0  0  0  0
    4.1370    2.5740   -1.7960 C   0  0  0  0  0  0  0  0  0  0  0  0
    4.1280    3.2770   -2.8680 O   0  0  0  0  0  0  0  0  0  0  0  0
    5.1100    1.6750   -1.6050 O   0  0  0  0  0  0  0  0  0  0  0  0
    6.0030    1.4140   -0.5900 C   0  0  0  0  0  0  0  0  0  0  0  0
    6.9540    0.3190   -0.9980 C   0  0  0  0  0  0  0  0  0  0  0  0
    6.5950   -1.0530   -0.4980 C   0  0  1  0  0  0  0  0  0  0  0  0
    6.6960   -1.1620    1.0030 C   0  0  0  0  0  0  0  0  0  0  0  0
    6.3630   -2.4360    1.4540 O   0  0  0  0  0  0  0  0  0  0  0  0
    5.2590   -1.4610   -1.0300 C   0  0  0  0  0  0  0  0  0  0  0  0
    4.3310   -1.5540   -0.0450 O   0  0  0  0  0  0  0  0  0  0  0  0
    3.0070   -1.7420   -0.4100 C   0  0  1  0  0  0  0  0  0  0  0  0
    2.2250   -2.0230    0.8660 C   0  0  0  0  0  0  0  0  0  0  0  0
    2.3690   -0.9620    1.7540 O   0  0  0  0  0  0  0  0  0  0  0  0
    2.4070   -0.8760   -1.4020 C   0  0  0  0  0  0  0  0  0  0  0  0
    1.1570   -0.1760   -1.0790 N   0  0  0  0  0  0  0  0  0  0  0  0
   -0.0950   -0.8150   -1.4200 C   0  0  0  0  0  0  0  0  0  0  0  0
   -0.0300   -2.0460   -1.6590 O   0  0  0  0  0  0  0  0  0  0  0  0
   -1.4080   -0.1720   -1.5140 C   0  0  0  0  0  0  0  0  0  0  0  0
   -2.5610   -0.9370   -0.9340 C   0  0  1  0  0  0  0  0  0  0  0  0
   -2.2250   -1.6400    0.2990 C   0  0  0  0  0  0  0  0  0  0  0  0
   -3.0140   -1.9320   -1.8330 O   0  0  0  0  0  0  0  0  0  0  0  0
   -4.3600   -2.1590   -1.5520 C   0  0  1  0  0  0  0  0  0  0  0  0
   -4.6460   -3.4640   -0.9120 C   0  0  0  0  0  0  0  0  0  0  0  0
   -5.0270   -2.2000   -2.9400 C   0  0  0  0  0  0  0  0  0  0  0  0
  2  1  1  1
  2  3  1  0
  2 38  1  0
  3  4  1  1
  3 35  1  0
  4  5  1  0
  5  6  2  0
  5  7  1  0
  7  8  1  1
  7  9  1  0
  7 10  1  0
 10 11  1  0
 11 12  2  0
 12 13  1  0
 14 13  1  1
 14 15  1  0
 14 31  1  0
 15 16  1  0
 16 17  1  0
 17 18  2  0
 17 19  1  0
 19 20  1  0
 20 21  1  0
 21 22  1  0
 22 23  1  1
 22 25  1  0
 23 24  1  0
 25 26  1  0
 26 27  1  0
 27 28  1  1
 27 30  1  0
 28 29  1  0
 30 31  1  0
 31 32  1  0
 32 33  2  0
 32 34  1  0
 34 35  1  0
 35 36  1  1
 35 37  1  0
 37 38  1  0
 38 39  1  1
 38 40  1  0
M  END
