
     RDKit          3D

 39 41  0  0  0  0  0  0  0  0999 V2000
   -6.5210   -1.8730   -0.7540 C   0  0  0  0  0  0  0  0  0  0  0  0
   -5.2080   -2.3610   -1.2570 C   0  0  2  0  0  0  0  0  0  0  0  0
   -5.4350   -3.8220   -1.6970 C   0  0  0  0  0  0  0  0  0  0  0  0
   -4.0900   -2.3440   -0.3100 C   0  0  0  0  0  0  0  0  0  0  0  0
   -3.6150   -1.0610    0.2690 C   0  0  1  0  0  0  0  0  0  0  0  0
   -4.5870   -0.3010    1.0800 C   0  0  0  0  0  0  0  0  0  0  0  0
   -4.9330    1.0820    0.5100 C   0  0  2  0  0  0  0  0  0  0  0  0
   -4.3150    1.2960   -0.7810 N   0  0  0  0  0  0  0  0  0  0  0  0
   -4.6020    2.1970    1.4880 C   0  0  2  0  0  0  0  0  0  0  0  0
   -5.8670    2.6750    2.1570 C   0  0  0  0  0  0  0  0  0  0  0  0
   -6.1400    3.8900    2.0640 O   0  0  0  0  0  0  0  0  0  0  0  0
   -6.7020    1.8350    2.8450 O   0  0  0  0  0  0  0  0  0  0  0  0
   -3.9920    3.2810    0.8850 O   0  0  0  0  0  0  0  0  0  0  0  0
   -2.7490    3.8230    1.0350 C   0  0  0  0  0  0  0  0  0  0  0  0
   -2.4930    4.9230    1.6400 O   0  0  0  0  0  0  0  0  0  0  0  0
   -1.5540    3.1380    0.4780 C   0  0  0  0  0  0  0  0  0  0  0  0
   -0.6390    2.6930    1.5940 C   0  0  0  0  0  0  0  0  0  0  0  0
    0.4210    1.7740    1.2020 C   0  0  0  0  0  0  0  0  0  0  0  0
    1.5590    1.9410    1.7780 O   0  0  0  0  0  0  0  0  0  0  0  0
    0.3930    0.7120    0.2740 N   0  0  0  0  0  0  0  0  0  0  0  0
    1.5600    0.4580   -0.5900 C   0  0  2  0  0  0  0  0  0  0  0  0
    1.0840    0.5610   -2.0180 C   0  0  0  0  0  0  0  0  0  0  0  0
    2.1750    0.1330   -2.9350 C   0  0  1  0  0  0  0  0  0  0  0  0
    2.3240    1.2220   -4.0020 C   0  0  0  0  0  0  0  0  0  0  0  0
    3.5160   -0.0140   -2.2770 C   0  0  0  0  0  0  0  0  0  0  0  0
    3.4870   -0.9280   -1.0900 C   0  0  1  0  0  0  0  0  0  0  0  0
    3.5400   -2.3520   -1.7480 C   0  0  0  0  0  0  0  0  0  0  0  0
    4.4930   -0.9040   -0.2510 O   0  0  0  0  0  0  0  0  0  0  0  0
    4.9940    0.1080    0.4320 C   0  0  2  0  0  0  0  0  0  0  0  0
    6.5000    0.2270    0.0330 C   0  0  0  0  0  0  0  0  0  0  0  0
    7.2870   -0.8910    0.6840 C   0  0  0  0  0  0  0  0  0  0  0  0
    7.5430   -0.5100    2.1370 C   0  0  0  0  0  0  0  0  0  0  0  0
    6.3400    0.3480    2.5390 C   0  0  0  0  0  0  0  0  0  0  0  0
    5.0670   -0.2140    1.9090 C   0  0  0  0  0  0  0  0  0  0  0  0
    2.1380   -0.9200   -0.4140 C   0  0  1  0  0  0  0  0  0  0  0  0
    2.1510   -1.4470    0.9730 C   0  0  0  0  0  0  0  0  0  0  0  0
   -0.7170   -0.1930    0.0510 C   0  0  0  0  0  0  0  0  0  0  0  0
   -1.6190   -0.3510    1.2420 C   0  0  0  0  0  0  0  0  0  0  0  0
   -2.4600   -1.4170    1.0320 O   0  0  0  0  0  0  0  0  0  0  0  0
  2  1  1  1
  2  3  1  0
  2  4  1  0
  5  4  1  1
  5  6  1  0
  5 39  1  0
  6  7  1  0
  7  8  1  6
  7  9  1  0
  9 10  1  6
  9 13  1  0
 10 11  2  0
 10 12  1  0
 13 14  1  0
 14 15  2  0
 14 16  1  0
 16 17  1  0
 17 18  1  0
 18 19  2  0
 18 20  1  0
 21 20  1  1
 20 37  1  0
 21 22  1  0
 21 35  1  0
 22 23  1  0
 23 24  1  6
 23 25  1  0
 25 26  1  0
 26 27  1  6
 26 28  1  0
 26 35  1  0
 29 28  1  6
 29 30  1  0
 29 34  1  0
 30 31  1  0
 31 32  1  0
 32 33  1  0
 33 34  1  0
 35 36  1  1
 37 38  1  0
 38 39  1  0
M  END
