
     RDKit          3D

 40 42  0  0  0  0  0  0  0  0999 V2000
   -5.7300    0.8350    1.3170 C   0  0  0  0  0  0  0  0  0  0  0  0
   -4.3730    0.2800    1.0520 C   0  0  0  0  0  0  0  0  0  0  0  0
   -3.9560   -0.6660    1.8660 C   0  0  0  0  0  0  0  0  0  0  0  0
   -4.7770   -1.1120    2.9280 O   0  0  0  0  0  0  0  0  0  0  0  0
   -2.6530   -1.3690    1.8070 C   0  0  0  0  0  0  0  0  0  0  0  0
   -2.7410   -2.7900    1.3200 C   0  0  2  0  0  0  0  0  0  0  0  0
   -2.4900   -3.7810    2.4370 C   0  0  0  0  0  0  0  0  0  0  0  0
   -1.7740   -3.1020    0.2160 C   0  0  2  0  0  0  0  0  0  0  0  0
   -1.5750   -4.4810    0.2190 O   0  0  0  0  0  0  0  0  0  0  0  0
   -0.4490   -2.3970    0.3330 C   0  0  0  0  0  0  0  0  0  0  0  0
   -0.3440   -1.4600   -0.8290 C   0  0  0  0  0  0  0  0  0  0  0  0
    0.6320   -0.3310   -0.6790 C   0  0  1  0  0  0  0  0  0  0  0  0
    1.5920   -0.3870   -1.8070 N   0  0  0  0  0  0  0  0  0  0  0  0
    1.1100   -0.2730   -3.1650 C   0  0  0  0  0  0  0  0  0  0  0  0
    1.0380    1.0920   -3.7410 C   0  0  2  0  0  0  0  0  0  0  0  0
    0.4770    1.0180   -5.1950 C   0  0  0  0  0  0  0  0  0  0  0  0
    2.4100    1.7130   -3.9750 C   0  0  0  0  0  0  0  0  0  0  0  0
    3.0640    0.8640   -4.8970 O   0  0  0  0  0  0  0  0  0  0  0  0
    2.9630   -0.5860   -1.4680 C   0  0  0  0  0  0  0  0  0  0  0  0
    3.8270   -0.6550   -2.4090 O   0  0  0  0  0  0  0  0  0  0  0  0
    3.4970   -0.7270   -0.1410 C   0  0  0  0  0  0  0  0  0  0  0  0
    3.6140   -1.9130    0.5580 C   0  0  0  0  0  0  0  0  0  0  0  0
    3.2390   -3.2910    0.1680 C   0  0  0  0  0  0  0  0  0  0  0  0
    4.1700   -1.6320    1.7480 N   0  0  0  0  0  0  0  0  0  0  0  0
    4.4300   -0.3100    1.8740 C   0  0  0  0  0  0  0  0  0  0  0  0
    4.0080    0.2480    0.6870 C   0  0  0  0  0  0  0  0  0  0  0  0
    4.2150    1.7020    0.5460 C   0  0  0  0  0  0  0  0  0  0  0  0
    3.8550    2.2520   -0.5010 O   0  0  0  0  0  0  0  0  0  0  0  0
    4.8100    2.4290    1.5840 O   0  0  0  0  0  0  0  0  0  0  0  0
    5.7380    1.6880    2.3830 C   0  0  0  0  0  0  0  0  0  0  0  0
    5.0080    0.5230    2.9540 C   0  0  1  0  0  0  0  0  0  0  0  0
    3.8530    1.0230    3.7970 C   0  0  0  0  0  0  0  0  0  0  0  0
   -0.0310    1.0130   -0.5940 C   0  0  0  0  0  0  0  0  0  0  0  0
    0.8480    1.9610   -0.5370 O   0  0  0  0  0  0  0  0  0  0  0  0
   -1.3230    1.3040   -0.5750 O   0  0  0  0  0  0  0  0  0  0  0  0
   -2.3620    1.5730    0.2740 C   0  0  1  0  0  0  0  0  0  0  0  0
   -2.6610    3.0870    0.1360 C   0  0  1  0  0  0  0  0  0  0  0  0
   -3.0410    3.4540   -1.2560 C   0  0  0  0  0  0  0  0  0  0  0  0
   -3.7710    3.4780    1.0860 C   0  0  0  0  0  0  0  0  0  0  0  0
   -3.6320    0.8400   -0.0980 C   0  0  0  0  0  0  0  0  0  0  0  0
  1  2  1  0
  2  3  2  0
  2 40  1  0
  3  4  1  0
  3  5  1  0
  5  6  1  0
  6  7  1  1
  6  8  1  0
  8  9  1  1
  8 10  1  0
 10 11  1  0
 11 12  1  0
 12 13  1  6
 12 33  1  0
 13 14  1  0
 13 19  1  0
 14 15  1  0
 15 16  1  6
 15 17  1  0
 17 18  1  0
 19 20  2  0
 19 21  1  0
 21 22  2  0
 21 26  1  0
 22 23  1  0
 22 24  1  0
 24 25  1  0
 25 26  2  0
 25 31  1  0
 26 27  1  0
 27 28  2  0
 27 29  1  0
 29 30  1  0
 30 31  1  0
 31 32  1  1
 33 34  2  0
 33 35  1  0
 35 36  1  0
 36 37  1  0
 36 40  1  6
 37 38  1  6
 37 39  1  0
M  END
