
     RDKit          3D

 40 42  0  0  0  0  0  0  0  0999 V2000
   -6.5370   -3.6110   -0.3960 C   0  0  0  0  0  0  0  0  0  0  0  0
   -5.9540   -2.2100   -0.1530 C   0  0  0  0  0  0  0  0  0  0  0  0
   -4.9960   -2.3150    0.9730 C   0  0  0  0  0  0  0  0  0  0  0  0
   -4.2710   -1.0800    1.3720 C   0  0  1  0  0  0  0  0  0  0  0  0
   -3.5000   -0.5700    0.2610 N   0  0  0  0  0  0  0  0  0  0  0  0
   -2.0620   -0.5670    0.3060 C   0  0  0  0  0  0  0  0  0  0  0  0
   -1.5090   -1.0170    1.3160 O   0  0  0  0  0  0  0  0  0  0  0  0
   -1.3070   -0.0900   -0.7060 O   0  0  0  0  0  0  0  0  0  0  0  0
    0.0510    0.0000   -0.8410 C   0  0  2  0  0  0  0  0  0  0  0  0
    0.2190    0.7180   -2.2260 C   0  0  0  0  0  0  0  0  0  0  0  0
    0.8660   -1.2440   -0.8860 C   0  0  0  0  0  0  0  0  0  0  0  0
    0.2810   -2.5210   -1.2490 C   0  0  0  0  0  0  0  0  0  0  0  0
   -0.9740   -2.7760   -1.0990 O   0  0  0  0  0  0  0  0  0  0  0  0
    1.1130   -3.4950   -1.7750 O   0  0  0  0  0  0  0  0  0  0  0  0
    2.4180   -3.8410   -1.3520 C   0  0  0  0  0  0  0  0  0  0  0  0
    3.2080   -2.7800   -0.9110 C   0  0  0  0  0  0  0  0  0  0  0  0
    3.8320   -1.9210   -0.5730 C   0  0  0  0  0  0  0  0  0  0  0  0
    4.6230   -0.8510   -0.1270 C   0  0  2  0  0  0  0  0  0  0  0  0
    5.7840   -1.3680    0.6860 C   0  0  1  0  0  0  0  0  0  0  0  0
    5.4210   -2.1560    1.8950 C   0  0  0  0  0  0  0  0  0  0  0  0
    6.7580   -2.1890   -0.1520 C   0  0  0  0  0  0  0  0  0  0  0  0
    3.9190    0.0940    0.6170 O   0  0  0  0  0  0  0  0  0  0  0  0
    3.9610    1.4700    0.7380 C   0  0  0  0  0  0  0  0  0  0  0  0
    4.0820    1.8880    2.0080 O   0  0  0  0  0  0  0  0  0  0  0  0
    3.8980    2.4720   -0.2750 C   0  0  0  0  0  0  0  0  0  0  0  0
    2.9410    3.1660   -0.9000 C   0  0  0  0  0  0  0  0  0  0  0  0
    3.1260    4.2020   -1.9540 C   0  0  0  0  0  0  0  0  0  0  0  0
    4.4220    4.6220   -2.5930 C   0  0  0  0  0  0  0  0  0  0  0  0
    1.9820    4.6950   -2.2550 C   0  0  0  0  0  0  0  0  0  0  0  0
    0.9520    4.0590   -1.4640 C   0  0  0  0  0  0  0  0  0  0  0  0
   -0.5300    4.4290   -1.5050 C   0  0  0  0  0  0  0  0  0  0  0  0
    1.5140    3.1400   -0.6570 C   0  0  0  0  0  0  0  0  0  0  0  0
    0.7980    2.2540    0.2420 N   0  0  0  0  0  0  0  0  0  0  0  0
    0.6350    0.8610    0.2440 C   0  0  0  0  0  0  0  0  0  0  0  0
    1.0020    0.1910    1.2640 O   0  0  0  0  0  0  0  0  0  0  0  0
   -5.0770    0.0020    2.0190 C   0  0  1  0  0  0  0  0  0  0  0  0
   -6.2200    0.6680    1.2750 C   0  0  0  0  0  0  0  0  0  0  0  0
   -5.3510   -0.2110    3.4830 C   0  0  0  0  0  0  0  0  0  0  0  0
   -4.3880    0.8830    3.0510 C   0  0  1  0  0  0  0  0  0  0  0  0
   -3.0680    0.6280    3.3880 O   0  0  0  0  0  0  0  0  0  0  0  0
  1  2  1  0
  2  3  1  0
  4  3  1  6
  4  5  1  0
  4 36  1  0
  5  6  1  0
  6  7  2  0
  6  8  1  0
  8  9  1  0
  9 10  1  6
  9 11  1  0
  9 34  1  0
 11 12  1  0
 12 13  2  0
 12 14  1  0
 14 15  1  0
 15 16  1  0
 16 17  3  0
 18 17  1  1
 18 19  1  0
 18 22  1  0
 19 20  1  1
 19 21  1  0
 22 23  1  0
 23 24  2  0
 23 25  1  0
 25 26  2  0
 26 27  1  0
 26 32  1  0
 27 28  1  0
 27 29  2  0
 29 30  1  0
 30 31  1  0
 30 32  2  0
 32 33  1  0
 33 34  1  0
 34 35  2  0
 36 37  1  6
 36 38  1  0
 36 39  1  0
 38 39  1  0
 39 40  1  1
M  END
