
     RDKit          3D

 40 42  0  0  0  0  0  0  0  0999 V2000
   -5.2750   -0.7540   -1.2890 C   0  0  0  0  0  0  0  0  0  0  0  0
   -5.4520   -0.5420    0.2030 C   0  0  2  0  0  0  0  0  0  0  0  0
   -4.3530    0.2850    0.7960 C   0  0  0  0  0  0  0  0  0  0  0  0
   -3.1630    0.4040   -0.1390 C   0  0  0  0  0  0  0  0  0  0  0  0
   -2.1360    1.3780    0.3970 C   0  0  1  0  0  0  0  0  0  0  0  0
   -0.7300    0.9660    0.1480 C   0  0  0  0  0  0  0  0  0  0  0  0
    0.1230    2.0360    0.3040 C   0  0  0  0  0  0  0  0  0  0  0  0
    1.5430    1.8340    0.0960 C   0  0  0  0  0  0  0  0  0  0  0  0
    2.4260    2.7150    0.1660 O   0  0  0  0  0  0  0  0  0  0  0  0
    2.0250    0.5700   -0.2070 O   0  0  0  0  0  0  0  0  0  0  0  0
    3.3970    0.3670   -0.4080 C   0  0  0  0  0  0  0  0  0  0  0  0
    3.7700   -1.0620   -0.7220 C   0  0  0  0  0  0  0  0  0  0  0  0
    5.2740   -1.0820   -0.9140 C   0  0  1  0  0  0  0  0  0  0  0  0
    5.9190   -0.6530    0.2440 O   0  0  0  0  0  0  0  0  0  0  0  0
    7.2460   -1.0170    0.0740 C   0  0  0  0  0  0  0  0  0  0  0  0
    7.2810   -2.2770   -0.7400 C   0  0  0  0  0  0  0  0  0  0  0  0
    5.8030   -2.4880   -1.0500 C   0  0  2  0  0  0  0  0  0  0  0  0
    5.5710   -3.0930   -2.3940 C   0  0  0  0  0  0  0  0  0  0  0  0
    5.2660   -3.4030    0.0280 C   0  0  0  0  0  0  0  0  0  0  0  0
   -0.5020    3.2840    0.7010 C   0  0  1  0  0  0  0  0  0  0  0  0
    0.3230    4.4810    0.9680 C   0  0  1  0  0  0  0  0  0  0  0  0
    1.3210    4.3800    2.0740 C   0  0  0  0  0  0  0  0  0  0  0  0
    0.9330    5.0820   -0.2850 C   0  0  0  0  0  0  0  0  0  0  0  0
   -0.7010    5.5490    1.4520 C   0  0  0  0  0  0  0  0  0  0  0  0
   -1.4510    3.6240   -0.2410 O   0  0  0  0  0  0  0  0  0  0  0  0
   -2.3530    2.6240   -0.4910 C   0  0  2  0  0  0  0  0  0  0  0  0
   -3.7300    3.2070   -0.2710 C   0  0  0  0  0  0  0  0  0  0  0  0
   -2.3070    2.1880   -1.9640 C   0  0  0  0  0  0  0  0  0  0  0  0
   -0.2350   -0.2820   -0.2310 N   0  0  0  0  0  0  0  0  0  0  0  0
   -0.2300   -1.5840    0.3180 C   0  0  0  0  0  0  0  0  0  0  0  0
    0.8250   -2.3340   -0.0350 O   0  0  0  0  0  0  0  0  0  0  0  0
   -1.0820   -2.2730    1.1580 N   0  0  0  0  0  0  0  0  0  0  0  0
   -2.3140   -2.9730    1.0370 C   0  0  2  0  0  0  0  0  0  0  0  0
   -2.3210   -4.2220    1.9590 C   0  0  0  0  0  0  0  0  0  0  0  0
   -1.2860   -5.0780    1.6060 O   0  0  0  0  0  0  0  0  0  0  0  0
   -2.7460   -3.4630   -0.2870 C   0  0  0  0  0  0  0  0  0  0  0  0
   -4.2680   -3.6000   -0.2670 C   0  0  0  0  0  0  0  0  0  0  0  0
   -4.7850   -2.8730    0.7880 O   0  0  0  0  0  0  0  0  0  0  0  0
   -5.6570   -1.8500    0.8580 C   0  0  0  0  0  0  0  0  0  0  0  0
   -6.7350   -2.0050    1.5290 O   0  0  0  0  0  0  0  0  0  0  0  0
  2  1  1  6
  2  3  1  0
  2 39  1  0
  3  4  1  0
  5  4  1  6
  5  6  1  0
  5 26  1  0
  6  7  2  0
  6 29  1  0
  7  8  1  0
  7 20  1  0
  8  9  2  0
  8 10  1  0
 10 11  1  0
 11 12  1  0
 13 12  1  1
 13 14  1  0
 13 17  1  0
 14 15  1  0
 15 16  1  0
 16 17  1  0
 17 18  1  6
 17 19  1  0
 20 21  1  0
 20 25  1  6
 21 22  1  1
 21 23  1  0
 21 24  1  0
 25 26  1  0
 26 27  1  1
 26 28  1  0
 29 30  1  0
 30 31  2  0
 30 32  1  0
 32 33  1  0
 33 34  1  1
 33 36  1  0
 34 35  1  0
 36 37  1  0
 37 38  1  0
 38 39  1  0
 39 40  2  0
M  END
