
     RDKit          3D

 39 41  0  0  0  0  0  0  0  0999 V2000
    6.2040    0.4010    1.5980 C   0  0  0  0  0  0  0  0  0  0  0  0
    5.1170    1.3860    1.3630 C   0  0  0  0  0  0  0  0  0  0  0  0
    4.3700    1.1240    0.0990 C   0  0  0  0  0  0  0  0  0  0  0  0
    5.2160    1.2250   -1.1270 C   0  0  0  0  0  0  0  0  0  0  0  0
    3.0880    0.7660    0.0210 C   0  0  0  0  0  0  0  0  0  0  0  0
    2.3220    0.5940    1.3060 C   0  0  0  0  0  0  0  0  0  0  0  0
    3.0270   -0.1830    2.0910 O   0  0  0  0  0  0  0  0  0  0  0  0
    1.1670    1.1560    1.5120 O   0  0  0  0  0  0  0  0  0  0  0  0
   -0.0180    1.2220    2.1690 C   0  0  1  0  0  0  0  0  0  0  0  0
   -0.9240    2.2260    1.5160 C   0  0  0  0  0  0  0  0  0  0  0  0
   -2.2090    1.8240    1.6120 O   0  0  0  0  0  0  0  0  0  0  0  0
   -3.1380    2.5010    0.8690 C   0  0  1  0  0  0  0  0  0  0  0  0
   -2.8510    3.9690    0.6780 C   0  0  0  0  0  0  0  0  0  0  0  0
   -1.6860    4.2780    0.0420 O   0  0  0  0  0  0  0  0  0  0  0  0
   -3.6980    1.8220   -0.3230 C   0  0  0  0  0  0  0  0  0  0  0  0
   -2.8730    1.5960   -1.5110 C   0  0  2  0  0  0  0  0  0  0  0  0
   -3.2980    2.5270   -2.5120 O   0  0  0  0  0  0  0  0  0  0  0  0
   -3.1460    0.2270   -2.1010 C   0  0  0  0  0  0  0  0  0  0  0  0
   -1.8730   -0.6320   -2.1940 C   0  0  2  0  0  0  0  0  0  0  0  0
   -2.3290   -2.0780   -2.2230 C   0  0  0  0  0  0  0  0  0  0  0  0
   -0.8900   -0.2980   -1.1550 C   0  0  0  0  0  0  0  0  0  0  0  0
   -0.1720   -1.4460   -0.5070 N   0  0  0  0  0  0  0  0  0  0  0  0
   -1.0270   -2.2000    0.3330 C   0  0  0  0  0  0  0  0  0  0  0  0
   -1.0740   -3.4560    0.5360 O   0  0  0  0  0  0  0  0  0  0  0  0
   -2.1020   -1.5370    1.1710 C   0  0  1  0  0  0  0  0  0  0  0  0
   -3.1730   -2.5640    1.5460 C   0  0  0  0  0  0  0  0  0  0  0  0
   -2.7820   -3.3950    2.7150 C   0  0  0  0  0  0  0  0  0  0  0  0
   -2.6720   -2.4860    3.9050 C   0  0  0  0  0  0  0  0  0  0  0  0
   -2.6970   -1.0460    3.4530 C   0  0  0  0  0  0  0  0  0  0  0  0
   -1.6990   -0.8310    2.3480 N   0  0  0  0  0  0  0  0  0  0  0  0
   -0.6060   -0.0300    2.6310 C   0  0  0  0  0  0  0  0  0  0  0  0
    0.1310   -0.5410    3.6030 O   0  0  0  0  0  0  0  0  0  0  0  0
    1.2230   -1.5370   -0.8170 C   0  0  1  0  0  0  0  0  0  0  0  0
    1.7030   -2.7390   -1.6050 C   0  0  0  0  0  0  0  0  0  0  0  0
    3.1710   -2.6160   -1.8140 C   0  0  0  0  0  0  0  0  0  0  0  0
    1.6860   -0.4040   -1.6790 C   0  0  0  0  0  0  0  0  0  0  0  0
    1.2780   -0.4840   -3.1130 C   0  0  0  0  0  0  0  0  0  0  0  0
    2.4860    0.5750   -1.2810 C   0  0  0  0  0  0  0  0  0  0  0  0
    2.6890    1.6290   -2.3380 C   0  0  0  0  0  0  0  0  0  0  0  0
  1  2  1  0
  2  3  1  0
  3  4  1  0
  3  5  2  3
  5  6  1  0
  5 38  1  0
  6  7  2  0
  6  8  1  0
  8  9  1  0
  9 10  1  6
  9 31  1  0
 10 11  1  0
 11 12  1  0
 12 13  1  6
 12 15  1  0
 13 14  1  0
 15 16  1  0
 16 17  1  6
 16 18  1  0
 18 19  1  0
 19 20  1  1
 19 21  1  0
 21 22  1  0
 22 23  1  0
 22 33  1  0
 23 24  2  0
 23 25  1  0
 25 26  1  1
 25 30  1  0
 26 27  1  0
 27 28  1  0
 28 29  1  0
 29 30  1  0
 30 31  1  0
 31 32  2  0
 33 34  1  6
 33 36  1  0
 34 35  1  0
 36 37  1  0
 36 38  2  0
 38 39  1  0
M  END
