
     RDKit          3D

 40 46  0  0  0  0  0  0  0  0999 V2000
   -7.7630    1.5430   -0.0890 C   0  0  0  0  0  0  0  0  0  0  0  0
   -7.3890    0.4240    0.7820 C   0  0  0  0  0  0  0  0  0  0  0  0
   -6.5230   -0.6680    0.3180 C   0  0  1  0  0  0  0  0  0  0  0  0
   -6.9860   -1.4760   -0.8710 C   0  0  0  0  0  0  0  0  0  0  0  0
   -6.1140   -2.6760   -0.9690 C   0  0  0  0  0  0  0  0  0  0  0  0
   -5.1150   -2.9260   -0.0350 N   0  0  0  0  0  0  0  0  0  0  0  0
   -5.4640   -3.5840    1.2090 C   0  0  0  0  0  0  0  0  0  0  0  0
   -5.0890   -2.4050    1.8810 N   0  0  0  0  0  0  0  0  0  0  0  0
   -4.5540   -1.8100    0.7110 C   0  0  2  0  0  0  0  0  0  0  0  0
   -5.1380   -0.5800    0.3010 N   0  0  0  0  0  0  0  0  0  0  0  0
   -4.4080    0.2210   -0.6050 C   0  0  0  0  0  0  0  0  0  0  0  0
   -3.5140    1.1700   -0.0850 N   0  0  0  0  0  0  0  0  0  0  0  0
   -4.0640    2.3090    0.7150 C   0  0  0  0  0  0  0  0  0  0  0  0
   -3.6160    3.5980    0.0490 C   0  0  0  0  0  0  0  0  0  0  0  0
   -2.1860    3.6470   -0.0240 N   0  0  0  0  0  0  0  0  0  0  0  0
   -1.4460    2.4420   -0.1690 C   0  0  0  0  0  0  0  0  0  0  0  0
   -0.0870    2.4310   -0.2060 C   0  0  0  0  0  0  0  0  0  0  0  0
    0.6990    1.2490   -0.2730 C   0  0  0  0  0  0  0  0  0  0  0  0
    2.1300    1.4850   -0.2060 C   0  0  0  0  0  0  0  0  0  0  0  0
    2.5540    2.5890    0.6150 C   0  0  0  0  0  0  0  0  0  0  0  0
    3.8690    2.9180    0.7220 C   0  0  0  0  0  0  0  0  0  0  0  0
    4.8580    2.2350    0.0630 C   0  0  0  0  0  0  0  0  0  0  0  0
    4.4570    1.1640   -0.7350 C   0  0  0  0  0  0  0  0  0  0  0  0
    3.0910    0.8090   -0.8480 C   0  0  0  0  0  0  0  0  0  0  0  0
    2.7750   -0.3220   -1.7940 C   0  0  0  0  0  0  0  0  0  0  0  0
    3.4780   -1.8020   -1.0300 S   0  0  0  0  0  0  0  0  0  0  0  0
    5.1740   -1.7300   -0.6040 C   0  0  0  0  0  0  0  0  0  0  0  0
    6.2310   -2.2300   -1.3280 C   0  0  0  0  0  0  0  0  0  0  0  0
    7.5520   -2.0740   -0.9840 C   0  0  0  0  0  0  0  0  0  0  0  0
    8.6250   -2.6960   -1.8090 C   0  0  0  0  0  0  0  0  0  0  0  0
    7.8770   -1.3590    0.1760 C   0  0  0  0  0  0  0  0  0  0  0  0
    9.1750   -1.1020    0.5330 C   0  0  0  0  0  0  0  0  0  0  0  0
    9.4850   -0.3230    1.6540 C   0  0  0  0  0  0  0  0  0  0  0  0
    8.4560    0.1970    2.4140 C   0  0  0  0  0  0  0  0  0  0  0  0
    7.1610   -0.0610    2.0540 C   0  0  0  0  0  0  0  0  0  0  0  0
    6.8420   -0.8440    0.9310 C   0  0  0  0  0  0  0  0  0  0  0  0
    5.5550   -1.0270    0.5570 C   0  0  0  0  0  0  0  0  0  0  0  0
    0.0180    0.0690   -0.3120 C   0  0  0  0  0  0  0  0  0  0  0  0
   -1.3800    0.0630   -0.2790 C   0  0  0  0  0  0  0  0  0  0  0  0
   -2.1170    1.2190   -0.2010 C   0  0  0  0  0  0  0  0  0  0  0  0
  1  2  1  0
  3  2  1  6
  3  4  1  0
  3 10  1  0
  4  5  1  0
  5  6  1  0
  6  7  1  0
  6  9  1  0
  7  8  1  0
  9  8  1  1
  9 10  1  0
 10 11  1  0
 11 12  1  0
 12 13  1  0
 12 40  1  0
 13 14  1  0
 14 15  1  0
 15 16  1  0
 16 17  2  0
 16 40  1  0
 17 18  1  0
 18 19  1  0
 18 38  2  0
 19 20  2  0
 19 24  1  0
 20 21  1  0
 21 22  2  0
 22 23  1  0
 23 24  2  0
 24 25  1  0
 25 26  1  0
 26 27  1  0
 27 28  2  0
 27 37  1  0
 28 29  1  0
 29 30  1  0
 29 31  2  0
 31 32  1  0
 31 36  1  0
 32 33  2  0
 33 34  1  0
 34 35  2  0
 35 36  1  0
 36 37  2  0
 38 39  1  0
 39 40  2  0
M  END
