
     RDKit          3D

 40 45  0  0  0  0  0  0  0  0999 V2000
    6.2330   -2.2610    3.1980 C   0  0  0  0  0  0  0  0  0  0  0  0
    6.8820   -2.5480    2.2200 C   0  0  0  0  0  0  0  0  0  0  0  0
    7.6970   -2.9070    1.0350 C   0  0  0  0  0  0  0  0  0  0  0  0
    8.3130   -1.7360    0.4800 N   0  0  0  0  0  0  0  0  0  0  0  0
    7.5410   -0.6300    0.0170 C   0  0  0  0  0  0  0  0  0  0  0  0
    6.1470   -0.7120    0.0910 C   0  0  0  0  0  0  0  0  0  0  0  0
    5.4230    0.3830   -0.3380 C   0  0  0  0  0  0  0  0  0  0  0  0
    4.0340    0.5750   -0.3510 C   0  0  0  0  0  0  0  0  0  0  0  0
    3.0890   -0.4440    0.1080 C   0  0  0  0  0  0  0  0  0  0  0  0
    1.7340   -0.0820    0.0830 N   0  0  0  0  0  0  0  0  0  0  0  0
    1.2080    0.1440   -1.1900 C   0  0  0  0  0  0  0  0  0  0  0  0
   -0.0790   -0.5410   -1.5530 C   0  0  0  0  0  0  0  0  0  0  0  0
   -0.7780   -1.0610   -0.4760 N   0  0  0  0  0  0  0  0  0  0  0  0
   -2.1560   -1.1400   -0.4100 C   0  0  0  0  0  0  0  0  0  0  0  0
   -2.9600    0.0860   -0.4070 C   0  0  0  0  0  0  0  0  0  0  0  0
   -2.4260    1.3580   -0.4410 C   0  0  0  0  0  0  0  0  0  0  0  0
   -3.2780    2.4480   -0.4210 C   0  0  0  0  0  0  0  0  0  0  0  0
   -2.6640    3.7980   -0.4610 C   0  0  0  0  0  0  0  0  0  0  0  0
   -4.6400    2.2550   -0.3660 C   0  0  0  0  0  0  0  0  0  0  0  0
   -5.1980    0.9890   -0.3300 C   0  0  0  0  0  0  0  0  0  0  0  0
   -6.5730    0.7970   -0.2660 C   0  0  0  0  0  0  0  0  0  0  0  0
   -7.1430   -0.4580   -0.2200 C   0  0  0  0  0  0  0  0  0  0  0  0
   -8.6300   -0.6450   -0.1470 C   0  0  2  0  0  0  0  0  0  0  0  0
   -9.2610    0.3660    0.7890 C   0  0  0  0  0  0  0  0  0  0  0  0
   -8.9170   -2.0150    0.4320 C   0  0  0  0  0  0  0  0  0  0  0  0
   -9.3020   -0.5100   -1.4790 C   0  0  0  0  0  0  0  0  0  0  0  0
   -6.2870   -1.5390   -0.2420 C   0  0  0  0  0  0  0  0  0  0  0  0
   -4.9170   -1.3560   -0.3060 C   0  0  0  0  0  0  0  0  0  0  0  0
   -4.3530   -0.0940   -0.3510 C   0  0  0  0  0  0  0  0  0  0  0  0
   -0.0280   -1.7120    0.5480 C   0  0  0  0  0  0  0  0  0  0  0  0
    0.9180   -0.6330    1.0990 C   0  0  1  0  0  0  0  0  0  0  0  0
    1.6750   -1.1720    2.2780 C   0  0  0  0  0  0  0  0  0  0  0  0
    3.8380    1.7880   -0.8350 N   0  0  0  0  0  0  0  0  0  0  0  0
    5.0180    2.3650   -1.1230 N   0  0  0  0  0  0  0  0  0  0  0  0
    6.0220    1.5050   -0.8190 C   0  0  0  0  0  0  0  0  0  0  0  0
    7.4220    1.5970   -0.9000 C   0  0  0  0  0  0  0  0  0  0  0  0
    8.1200    0.5100   -0.4720 C   0  0  0  0  0  0  0  0  0  0  0  0
    9.8460    0.9200   -0.6750 S   0  0  0  0  0  0  0  0  0  0  0  0
    9.5620    2.7560   -0.7120 C   0  0  0  0  0  0  0  0  0  0  0  0
    8.2060    2.7170   -1.3860 C   0  0  0  0  0  0  0  0  0  0  0  0
  1  2  3  0
  2  3  1  0
  3  4  1  0
  4  5  1  0
  5  6  2  0
  5 37  1  0
  6  7  1  0
  7  8  1  0
  7 35  2  0
  8  9  1  0
  8 33  2  0
  9 10  1  0
 10 11  1  0
 10 31  1  0
 11 12  1  0
 12 13  1  0
 13 14  1  0
 13 30  1  0
 14 15  1  0
 15 16  2  0
 15 29  1  0
 16 17  1  0
 17 18  1  0
 17 19  2  0
 19 20  1  0
 20 21  2  0
 20 29  1  0
 21 22  1  0
 22 23  1  0
 22 27  2  0
 23 24  1  1
 23 25  1  0
 23 26  1  0
 27 28  1  0
 28 29  2  0
 30 31  1  0
 31 32  1  1
 33 34  1  0
 34 35  1  0
 35 36  1  0
 36 37  2  0
 36 40  1  0
 37 38  1  0
 38 39  1  0
 39 40  1  0
M  END
