
     RDKit          3D

 40 46  0  0  0  0  0  0  0  0999 V2000
    7.7130    4.8890    0.9480 C   0  0  0  0  0  0  0  0  0  0  0  0
    8.4050    3.9920    0.0690 N   0  0  0  0  0  0  0  0  0  0  0  0
    8.0300    2.6320    0.0090 C   0  0  0  0  0  0  0  0  0  0  0  0
    8.6850    1.7210   -0.8150 C   0  0  0  0  0  0  0  0  0  0  0  0
    8.2570    0.4100   -0.8170 C   0  0  0  0  0  0  0  0  0  0  0  0
    7.2100   -0.0240   -0.0350 C   0  0  0  0  0  0  0  0  0  0  0  0
    6.8230   -1.4270   -0.0630 C   0  0  0  0  0  0  0  0  0  0  0  0
    7.6620   -2.4980    0.0730 N   0  0  0  0  0  0  0  0  0  0  0  0
    6.9760   -3.6330   -0.0190 N   0  0  0  0  0  0  0  0  0  0  0  0
    5.6940   -3.3810   -0.2130 C   0  0  0  0  0  0  0  0  0  0  0  0
    5.5660   -1.9880   -0.2480 C   0  0  0  0  0  0  0  0  0  0  0  0
    4.2170   -1.4270   -0.4940 C   0  0  0  0  0  0  0  0  0  0  0  0
    3.0730   -2.1630    0.1280 C   0  0  2  0  0  0  0  0  0  0  0  0
    2.4400   -1.2950    1.0930 N   0  0  0  0  0  0  0  0  0  0  0  0
    1.3880   -1.9100    1.8320 C   0  0  0  0  0  0  0  0  0  0  0  0
    0.0980   -2.0560    1.0600 C   0  0  0  0  0  0  0  0  0  0  0  0
   -0.1260   -0.8980    0.1670 C   0  0  1  0  0  0  0  0  0  0  0  0
   -1.5380   -0.5910   -0.0980 N   0  0  0  0  0  0  0  0  0  0  0  0
   -2.2270   -0.2220    1.0860 C   0  0  0  0  0  0  0  0  0  0  0  0
   -3.5570    0.3080    0.7880 C   0  0  0  0  0  0  0  0  0  0  0  0
   -4.8330   -0.0370    1.1220 C   0  0  0  0  0  0  0  0  0  0  0  0
   -5.8750    0.6700    0.6930 C   0  0  0  0  0  0  0  0  0  0  0  0
   -5.7000    1.7810   -0.1070 C   0  0  0  0  0  0  0  0  0  0  0  0
   -6.5600    2.7470   -0.7320 C   0  0  2  0  0  0  0  0  0  0  0  0
   -7.2900    3.6440    0.2430 C   0  0  0  0  0  0  0  0  0  0  0  0
   -8.6050    3.1150    0.7040 C   0  0  0  0  0  0  0  0  0  0  0  0
   -9.4920    2.8050   -0.4990 C   0  0  0  0  0  0  0  0  0  0  0  0
   -8.7900    1.6620   -1.2280 C   0  0  0  0  0  0  0  0  0  0  0  0
   -7.4920    2.1780   -1.7470 C   0  0  0  0  0  0  0  0  0  0  0  0
   -3.8410    1.7980   -0.2490 S   0  0  0  0  0  0  0  0  0  0  0  0
   -2.0480   -1.7320   -0.7760 C   0  0  0  0  0  0  0  0  0  0  0  0
   -3.4850   -1.7370   -1.1690 C   0  0  1  0  0  0  0  0  0  0  0  0
   -3.9120   -3.0120   -1.9140 C   0  0  0  0  0  0  0  0  0  0  0  0
   -4.3710   -2.8600   -0.5350 C   0  0  0  0  0  0  0  0  0  0  0  0
    0.6050    0.2900    0.7070 C   0  0  0  0  0  0  0  0  0  0  0  0
    2.1000   -0.0090    0.5420 C   0  0  0  0  0  0  0  0  0  0  0  0
    3.4950   -3.4690    0.6610 C   0  0  0  0  0  0  0  0  0  0  0  0
    4.4280   -4.1260   -0.3750 C   0  0  0  0  0  0  0  0  0  0  0  0
    6.5490    0.8490    0.7830 C   0  0  0  0  0  0  0  0  0  0  0  0
    6.9860    2.1760    0.7800 C   0  0  0  0  0  0  0  0  0  0  0  0
  1  2  1  0
  2  3  1  0
  3  4  2  0
  3 40  1  0
  4  5  1  0
  5  6  2  0
  6  7  1  0
  6 39  1  0
  7  8  2  0
  7 11  1  0
  8  9  1  0
  9 10  1  0
 10 11  2  0
 10 38  1  0
 11 12  1  0
 12 13  1  0
 13 14  1  1
 13 37  1  0
 14 15  1  0
 14 36  1  0
 15 16  1  0
 16 17  1  0
 17 18  1  1
 17 35  1  0
 18 19  1  0
 18 31  1  0
 19 20  1  0
 20 21  2  0
 20 30  1  0
 21 22  1  0
 22 23  2  0
 24 23  1  1
 23 30  1  0
 24 25  1  0
 24 29  1  0
 25 26  1  0
 26 27  1  0
 27 28  1  0
 28 29  1  0
 32 31  1  1
 32 33  1  0
 32 34  1  0
 33 34  1  0
 35 36  1  0
 37 38  1  0
 39 40  2  0
M  END
