
     RDKit          3D

 40 45  0  0  0  0  0  0  0  0999 V2000
   -0.5480    2.5710    3.2180 C   0  0  0  0  0  0  0  0  0  0  0  0
   -0.8570    1.3830    2.3510 C   0  0  0  0  0  0  0  0  0  0  0  0
   -1.7440    0.4910    2.7460 C   0  0  0  0  0  0  0  0  0  0  0  0
   -2.2650   -0.4970    1.8890 C   0  0  0  0  0  0  0  0  0  0  0  0
   -1.7860   -0.5060    0.5840 C   0  0  0  0  0  0  0  0  0  0  0  0
   -2.3450   -1.4510   -0.4360 C   0  0  0  0  0  0  0  0  0  0  0  0
   -3.7080   -1.4770   -0.4670 N   0  0  0  0  0  0  0  0  0  0  0  0
   -4.3600   -2.4670   -1.2690 C   0  0  0  0  0  0  0  0  0  0  0  0
   -5.0200   -3.3500   -0.1860 C   0  0  0  0  0  0  0  0  0  0  0  0
   -5.0290   -2.4600    1.0370 C   0  0  0  0  0  0  0  0  0  0  0  0
   -4.6450   -1.0970    0.4710 C   0  0  2  0  0  0  0  0  0  0  0  0
   -5.8220   -0.4930   -0.2590 C   0  0  0  0  0  0  0  0  0  0  0  0
   -6.9860   -1.1890   -0.2670 C   0  0  0  0  0  0  0  0  0  0  0  0
   -8.0630   -0.7040   -0.9580 C   0  0  0  0  0  0  0  0  0  0  0  0
   -8.0150    0.5140   -1.6440 C   0  0  0  0  0  0  0  0  0  0  0  0
   -6.8330    1.1920   -1.6320 C   0  0  0  0  0  0  0  0  0  0  0  0
   -5.7100    0.6580   -0.9240 C   0  0  0  0  0  0  0  0  0  0  0  0
   -4.5350    1.5320   -0.9150 C   0  0  0  0  0  0  0  0  0  0  0  0
   -0.8660    0.3710    0.1530 C   0  0  0  0  0  0  0  0  0  0  0  0
   -0.3340    0.2630   -1.2490 C   0  0  0  0  0  0  0  0  0  0  0  0
    0.8790    1.1410   -1.1810 N   0  0  0  0  0  0  0  0  0  0  0  0
    2.1280    0.2390   -0.5530 S   0  0  0  0  0  0  0  0  0  0  0  0
    2.0830   -0.2650    1.0330 C   0  0  0  0  0  0  0  0  0  0  0  0
    3.5840   -0.0440   -1.5040 C   0  0  0  0  0  0  0  0  0  0  0  0
    4.3070   -1.2960   -1.4860 N   0  0  0  0  0  0  0  0  0  0  0  0
    5.0460   -1.5950   -0.4630 C   0  0  0  0  0  0  0  0  0  0  0  0
    5.7650   -2.8880   -0.4880 C   0  0  2  0  0  0  0  0  0  0  0  0
    6.0970   -3.2950    0.9170 C   0  0  0  0  0  0  0  0  0  0  0  0
    7.5540   -2.9910    1.0340 C   0  0  0  0  0  0  0  0  0  0  0  0
    8.0790   -2.7470   -0.1630 C   0  0  0  0  0  0  0  0  0  0  0  0
    7.0460   -2.8400   -1.2290 C   0  0  0  0  0  0  0  0  0  0  0  0
    3.8590    1.1690   -2.2030 N   0  0  0  0  0  0  0  0  0  0  0  0
    3.4570    2.2810   -1.4000 C   0  0  0  0  0  0  0  0  0  0  0  0
    3.9540    3.5760   -1.5360 C   0  0  0  0  0  0  0  0  0  0  0  0
    3.8610    4.3730   -0.4370 C   0  0  0  0  0  0  0  0  0  0  0  0
    4.4010    5.7570   -0.4460 C   0  0  0  0  0  0  0  0  0  0  0  0
    3.3210    3.8830    0.6990 C   0  0  0  0  0  0  0  0  0  0  0  0
    2.8740    2.6780    0.7650 N   0  0  0  0  0  0  0  0  0  0  0  0
    2.8720    1.8100   -0.2210 C   0  0  0  0  0  0  0  0  0  0  0  0
   -0.3850    1.3310    1.0190 C   0  0  0  0  0  0  0  0  0  0  0  0
  1  2  1  0
  2  3  2  0
  2 40  1  0
  3  4  1  0
  4  5  2  0
  5  6  1  0
  5 19  1  0
  6  7  1  0
  7  8  1  0
  7 11  1  0
  8  9  1  0
  9 10  1  0
 10 11  1  0
 11 12  1  6
 12 13  2  0
 12 17  1  0
 13 14  1  0
 14 15  2  0
 15 16  1  0
 16 17  2  0
 17 18  1  0
 19 20  1  0
 19 40  2  0
 20 21  1  0
 21 22  1  0
 22 23  1  0
 22 24  2  0
 22 39  1  0
 24 25  1  0
 24 32  1  0
 25 26  2  3
 27 26  1  1
 27 28  1  0
 27 31  1  0
 28 29  1  0
 29 30  2  0
 30 31  1  0
 32 33  1  0
 33 34  2  0
 33 39  1  0
 34 35  1  0
 35 36  1  0
 35 37  2  0
 37 38  1  0
 38 39  2  0
M  END
