
     RDKit          3D

 40 46  0  0  0  0  0  0  0  0999 V2000
   -7.5330    3.7010   -0.2770 C   0  0  0  0  0  0  0  0  0  0  0  0
   -7.2750    2.2350   -0.5160 C   0  0  0  0  0  0  0  0  0  0  0  0
   -6.6540    1.5480    0.6760 C   0  0  1  0  0  0  0  0  0  0  0  0
   -7.5470    1.6370    1.9010 C   0  0  0  0  0  0  0  0  0  0  0  0
   -8.3950    0.4020    1.9180 C   0  0  0  0  0  0  0  0  0  0  0  0
   -7.9920   -0.4040    0.7010 C   0  0  2  0  0  0  0  0  0  0  0  0
   -7.9530   -1.8940    1.0150 C   0  0  0  0  0  0  0  0  0  0  0  0
   -7.2020   -2.6590   -0.0080 C   0  0  0  0  0  0  0  0  0  0  0  0
   -5.8420   -2.1110   -0.1200 N   0  0  0  0  0  0  0  0  0  0  0  0
   -4.7730   -3.0300   -0.4370 C   0  0  0  0  0  0  0  0  0  0  0  0
   -3.4910   -2.3690   -0.6990 C   0  0  0  0  0  0  0  0  0  0  0  0
   -2.4380   -3.2050   -1.1130 C   0  0  0  0  0  0  0  0  0  0  0  0
   -1.1920   -2.6360   -1.3480 C   0  0  0  0  0  0  0  0  0  0  0  0
   -0.9700   -1.2910   -1.1870 C   0  0  0  0  0  0  0  0  0  0  0  0
    0.3940   -0.7250   -1.4580 C   0  0  0  0  0  0  0  0  0  0  0  0
    0.5310    0.5930   -1.0130 N   0  0  0  0  0  0  0  0  0  0  0  0
    1.7170    1.2790   -1.2400 C   0  0  0  0  0  0  0  0  0  0  0  0
    2.9730    0.9630   -0.5370 C   0  0  2  0  0  0  0  0  0  0  0  0
    3.5910   -0.3720   -0.6800 C   0  0  0  0  0  0  0  0  0  0  0  0
    3.5110   -1.2440    0.5560 C   0  0  0  0  0  0  0  0  0  0  0  0
    4.0340   -0.6300    1.7340 N   0  0  0  0  0  0  0  0  0  0  0  0
    5.2850   -1.2300    2.1500 C   0  0  0  0  0  0  0  0  0  0  0  0
    6.3560   -1.1200    1.1570 C   0  0  0  0  0  0  0  0  0  0  0  0
    7.2510   -0.3200    0.8260 N   0  0  0  0  0  0  0  0  0  0  0  0
    8.1220   -0.4150   -0.1060 C   0  0  0  0  0  0  0  0  0  0  0  0
    9.1430    0.6360   -0.3840 C   0  0  0  0  0  0  0  0  0  0  0  0
   10.0540    0.4830   -1.3910 C   0  0  0  0  0  0  0  0  0  0  0  0
   11.0060    1.4690   -1.6460 C   0  0  0  0  0  0  0  0  0  0  0  0
   11.0470    2.6050   -0.8960 C   0  0  0  0  0  0  0  0  0  0  0  0
   10.1280    2.7530    0.1160 C   0  0  0  0  0  0  0  0  0  0  0  0
    9.1840    1.7870    0.3770 C   0  0  0  0  0  0  0  0  0  0  0  0
    8.0820   -1.5890   -0.8880 C   0  0  0  0  0  0  0  0  0  0  0  0
    6.6910   -2.4550   -0.1100 S   0  0  0  0  0  0  0  0  0  0  0  0
    4.1770    0.7970    1.5970 C   0  0  0  0  0  0  0  0  0  0  0  0
    2.8860    1.3260    0.9580 C   0  0  0  0  0  0  0  0  0  0  0  0
   -2.0070   -0.4940   -0.7850 C   0  0  0  0  0  0  0  0  0  0  0  0
   -3.2790   -1.0250   -0.5370 C   0  0  0  0  0  0  0  0  0  0  0  0
   -4.3390   -0.1920   -0.1540 N   0  0  0  0  0  0  0  0  0  0  0  0
   -5.6650   -0.7250    0.0690 C   0  0  0  0  0  0  0  0  0  0  0  0
   -6.6320    0.1020    0.4340 C   0  0  0  0  0  0  0  0  0  0  0  0
  1  2  1  0
  3  2  1  6
  3  4  1  0
  3 40  1  0
  4  5  1  0
  6  5  1  1
  6  7  1  0
  6 40  1  0
  7  8  1  0
  8  9  1  0
  9 10  1  0
  9 39  1  0
 10 11  1  0
 11 12  2  0
 11 37  1  0
 12 13  1  0
 13 14  2  0
 14 15  1  0
 14 36  1  0
 15 16  1  0
 16 17  1  0
 18 17  1  1
 18 19  1  0
 18 35  1  0
 19 20  1  0
 20 21  1  0
 21 22  1  0
 21 34  1  0
 22 23  1  0
 23 24  2  0
 23 33  1  0
 24 25  1  0
 25 26  1  0
 25 32  2  0
 26 27  2  0
 26 31  1  0
 27 28  1  0
 28 29  2  0
 29 30  1  0
 30 31  2  0
 32 33  1  0
 34 35  1  0
 36 37  2  0
 37 38  1  0
 38 39  1  0
 39 40  2  0
M  END
