
     RDKit          3D

 39 45  0  0  0  0  0  0  0  0999 V2000
   -4.7180    3.5270   -2.6850 C   0  0  0  0  0  0  0  0  0  0  0  0
   -4.1740    3.3980   -1.2980 C   0  0  0  0  0  0  0  0  0  0  0  0
   -3.8760    2.0050   -0.8890 C   0  0  0  0  0  0  0  0  0  0  0  0
   -2.5850    1.4900   -0.8190 C   0  0  0  0  0  0  0  0  0  0  0  0
   -2.3100    0.2020   -0.4300 C   0  0  0  0  0  0  0  0  0  0  0  0
   -0.9490   -0.2900   -0.3630 N   0  0  0  0  0  0  0  0  0  0  0  0
    0.1580    0.6030   -0.6170 C   0  0  0  0  0  0  0  0  0  0  0  0
    0.3450    1.4920    0.5870 C   0  0  0  0  0  0  0  0  0  0  0  0
    1.3970    2.4590    0.3720 N   0  0  0  0  0  0  0  0  0  0  0  0
    2.7320    2.1390    0.1090 C   0  0  0  0  0  0  0  0  0  0  0  0
    3.5360    3.1080   -0.5000 C   0  0  0  0  0  0  0  0  0  0  0  0
    4.8520    2.8720   -0.7840 C   0  0  0  0  0  0  0  0  0  0  0  0
    5.4320    1.6600   -0.4740 C   0  0  0  0  0  0  0  0  0  0  0  0
    6.7530    1.4370   -0.7630 C   0  0  0  0  0  0  0  0  0  0  0  0
    7.3230    0.2420   -0.4550 C   0  0  0  0  0  0  0  0  0  0  0  0
    6.5920   -0.7640    0.1490 C   0  0  0  0  0  0  0  0  0  0  0  0
    5.2740   -0.5280    0.4310 C   0  0  0  0  0  0  0  0  0  0  0  0
    4.6680    0.6940    0.1230 C   0  0  0  0  0  0  0  0  0  0  0  0
    3.3420    0.9470    0.4020 C   0  0  0  0  0  0  0  0  0  0  0  0
    7.3110   -2.0140    0.4530 C   0  0  0  0  0  0  0  0  0  0  0  0
    8.5410   -1.5960    1.2730 C   0  0  0  0  0  0  0  0  0  0  0  0
    9.4360   -0.7700    0.4030 C   0  0  0  0  0  0  0  0  0  0  0  0
    8.7520   -0.0940   -0.7370 C   0  0  0  0  0  0  0  0  0  0  0  0
   -0.6580   -1.6360   -0.0330 C   0  0  0  0  0  0  0  0  0  0  0  0
   -0.9490   -2.1710    1.2140 C   0  0  0  0  0  0  0  0  0  0  0  0
   -0.6340   -3.4770    1.5330 C   0  0  0  0  0  0  0  0  0  0  0  0
   -0.0170   -4.3070    0.6270 C   0  0  0  0  0  0  0  0  0  0  0  0
    0.2810   -3.7960   -0.6220 C   0  0  0  0  0  0  0  0  0  0  0  0
   -0.0390   -2.4750   -0.9410 C   0  0  0  0  0  0  0  0  0  0  0  0
   -3.3340   -0.5880   -0.1080 N   0  0  0  0  0  0  0  0  0  0  0  0
   -4.6320   -0.1560   -0.1530 C   0  0  0  0  0  0  0  0  0  0  0  0
   -4.9150    1.1360   -0.5410 C   0  0  0  0  0  0  0  0  0  0  0  0
   -6.3840    1.3140   -0.5040 C   0  0  0  0  0  0  0  0  0  0  0  0
   -6.8440    0.1700    0.3890 C   0  0  1  0  0  0  0  0  0  0  0  0
   -8.2490   -0.2340    0.0840 C   0  0  0  0  0  0  0  0  0  0  0  0
   -8.4090   -1.6050   -0.3490 N   0  0  0  0  0  0  0  0  0  0  0  0
   -7.6390   -2.4130    0.5990 C   0  0  0  0  0  0  0  0  0  0  0  0
   -6.1850   -2.2280    0.2580 C   0  0  0  0  0  0  0  0  0  0  0  0
   -5.8460   -0.8350    0.1540 N   0  0  0  0  0  0  0  0  0  0  0  0
  1  2  1  0
  2  3  1  0
  3  4  2  0
  3 32  1  0
  4  5  1  0
  5  6  1  0
  5 30  2  0
  6  7  1  0
  6 24  1  0
  7  8  1  0
  8  9  1  0
  9 10  1  0
 10 11  2  0
 10 19  1  0
 11 12  1  0
 12 13  2  0
 13 14  1  0
 13 18  1  0
 14 15  2  0
 15 16  1  0
 15 23  1  0
 16 17  2  0
 16 20  1  0
 17 18  1  0
 18 19  2  0
 20 21  1  0
 21 22  1  0
 22 23  1  0
 24 25  2  0
 24 29  1  0
 25 26  1  0
 26 27  2  0
 27 28  1  0
 28 29  2  0
 30 31  1  0
 31 32  2  0
 31 39  1  0
 32 33  1  0
 34 33  1  6
 34 35  1  0
 34 39  1  0
 35 36  1  0
 36 37  1  0
 37 38  1  0
 38 39  1  0
M  END
