
     RDKit          3D

 39 45  0  0  0  0  0  0  0  0999 V2000
   -5.6010    1.2850   -2.6890 C   0  0  0  0  0  0  0  0  0  0  0  0
   -5.2170    0.8180   -1.3090 C   0  0  2  0  0  0  0  0  0  0  0  0
   -4.7540    1.9260   -0.4190 C   0  0  0  0  0  0  0  0  0  0  0  0
   -4.1600   -0.3030   -1.3940 C   0  0  0  0  0  0  0  0  0  0  0  0
   -4.3600   -0.9160   -0.0660 N   0  0  0  0  0  0  0  0  0  0  0  0
   -3.3310   -1.3130    0.8200 C   0  0  0  0  0  0  0  0  0  0  0  0
   -2.3110   -0.1900    0.8910 C   0  0  0  0  0  0  0  0  0  0  0  0
   -2.4010    0.8010    1.8420 C   0  0  0  0  0  0  0  0  0  0  0  0
   -1.4840    1.8250    1.9030 C   0  0  0  0  0  0  0  0  0  0  0  0
   -0.4160    1.8950    0.9930 C   0  0  0  0  0  0  0  0  0  0  0  0
    0.5230    3.0080    1.1150 C   0  0  0  0  0  0  0  0  0  0  0  0
    1.5370    3.2810    0.3480 C   0  0  0  0  0  0  0  0  0  0  0  0
    2.0070    2.6070   -0.7870 N   0  0  0  0  0  0  0  0  0  0  0  0
    3.1940    1.8160   -0.7390 C   0  0  0  0  0  0  0  0  0  0  0  0
    3.9930    1.6150    0.3250 N   0  0  0  0  0  0  0  0  0  0  0  0
    5.0350    0.8010   -0.0150 C   0  0  0  0  0  0  0  0  0  0  0  0
    4.8530    0.5020   -1.3310 C   0  0  0  0  0  0  0  0  0  0  0  0
    3.7420    1.1150   -1.7670 N   0  0  0  0  0  0  0  0  0  0  0  0
    5.8030   -0.3840   -2.0840 C   0  0  0  0  0  0  0  0  0  0  0  0
    7.1560   -0.3630   -1.3450 C   0  0  0  0  0  0  0  0  0  0  0  0
    6.8880   -0.6920    0.0070 N   0  0  0  0  0  0  0  0  0  0  0  0
    8.0220   -1.2160    0.7340 C   0  0  2  0  0  0  0  0  0  0  0  0
    9.1660   -0.2860    0.8670 C   0  0  0  0  0  0  0  0  0  0  0  0
   10.0450   -0.3410   -0.3300 C   0  0  0  0  0  0  0  0  0  0  0  0
    9.9480   -2.1140   -0.7800 S   0  0  0  0  0  0  0  0  0  0  0  0
    8.4990   -2.5540    0.2600 C   0  0  0  0  0  0  0  0  0  0  0  0
    6.1870    0.2820    0.7630 C   0  0  0  0  0  0  0  0  0  0  0  0
   -0.3460    0.8990    0.0590 C   0  0  0  0  0  0  0  0  0  0  0  0
   -1.2790   -0.1440   -0.0060 C   0  0  0  0  0  0  0  0  0  0  0  0
   -5.7760   -0.9710    0.0560 C   0  0  0  0  0  0  0  0  0  0  0  0
   -6.3320    0.0990   -0.6290 C   0  0  0  0  0  0  0  0  0  0  0  0
   -7.6980    0.2730   -0.5930 C   0  0  0  0  0  0  0  0  0  0  0  0
   -8.4920   -0.6000    0.1080 C   0  0  0  0  0  0  0  0  0  0  0  0
   -7.9550   -1.6700    0.7900 C   0  0  0  0  0  0  0  0  0  0  0  0
   -8.7690   -2.5430    1.4740 C   0  0  0  0  0  0  0  0  0  0  0  0
   -8.1950   -3.6100    2.1290 C   0  0  0  0  0  0  0  0  0  0  0  0
   -6.8390   -3.8010    2.1010 C   0  0  0  0  0  0  0  0  0  0  0  0
   -5.9900   -2.9220    1.4110 C   0  0  0  0  0  0  0  0  0  0  0  0
   -6.5840   -1.8630    0.7670 C   0  0  0  0  0  0  0  0  0  0  0  0
  2  1  1  6
  2  3  1  0
  2  4  1  0
  2 31  1  0
  4  5  1  0
  5  6  1  0
  5 30  1  0
  6  7  1  0
  7  8  2  0
  7 29  1  0
  8  9  1  0
  9 10  2  0
 10 11  1  0
 10 28  1  0
 11 12  2  3
 12 13  1  0
 13 14  1  0
 14 15  2  0
 14 18  1  0
 15 16  1  0
 16 17  2  0
 16 27  1  0
 17 18  1  0
 17 19  1  0
 19 20  1  0
 20 21  1  0
 22 21  1  6
 21 27  1  0
 22 23  1  0
 22 26  1  0
 23 24  1  0
 24 25  1  0
 25 26  1  0
 28 29  2  0
 30 31  2  0
 30 39  1  0
 31 32  1  0
 32 33  2  0
 33 34  1  0
 34 35  2  0
 34 39  1  0
 35 36  1  0
 36 37  2  0
 37 38  1  0
 38 39  2  0
M  END
