
     RDKit          3D

 21 22  0  0  0  0  0  0  0  0999 V2000
    2.9510   -2.2310    1.5730 C   0  0  0  0  0  0  0  0  0  0  0  0
    1.9960   -1.1230    1.0570 C   0  0  1  0  0  0  0  0  0  0  0  0
    2.3800    0.0790    1.9330 C   0  0  0  0  0  0  0  0  0  0  0  0
    2.3410   -0.8990   -0.3570 C   0  0  0  0  0  0  0  0  0  0  0  0
    1.6200    0.0840   -1.1660 C   0  0  1  0  0  0  0  0  0  0  0  0
    0.1590   -0.0970   -1.3590 C   0  0  0  0  0  0  0  0  0  0  0  0
   -0.6780   -0.1040   -0.2130 N   0  0  0  0  0  0  0  0  0  0  0  0
   -1.8630    0.6920   -0.5450 C   0  0  0  0  0  0  0  0  0  0  0  0
   -3.0730    0.2810    0.1380 C   0  0  0  0  0  0  0  0  0  0  0  0
   -4.1210   -0.1160   -0.6060 C   0  0  0  0  0  0  0  0  0  0  0  0
   -3.8230   -0.0620   -2.3150 Cl  0  0  0  0  0  0  0  0  0  0  0  0
   -5.4400   -0.5790   -0.1680 C   0  0  0  0  0  0  0  0  0  0  0  0
   -5.8250   -0.9120    1.0500 C   0  0  0  0  0  0  0  0  0  0  0  0
   -5.0380   -0.9080    2.2760 C   0  0  0  0  0  0  0  0  0  0  0  0
   -3.8870   -0.3860    2.4700 N   0  0  0  0  0  0  0  0  0  0  0  0
   -3.0690    0.3260    1.5460 N   0  0  0  0  0  0  0  0  0  0  0  0
   -2.1190    1.2080    2.1520 C   0  0  0  0  0  0  0  0  0  0  0  0
    1.9200    1.5300   -0.9580 C   0  0  0  0  0  0  0  0  0  0  0  0
    3.2440    1.8180   -1.6080 C   0  0  0  0  0  0  0  0  0  0  0  0
    3.5030    0.6760   -2.5620 C   0  0  0  0  0  0  0  0  0  0  0  0
    2.1940   -0.0730   -2.6030 C   0  0  0  0  0  0  0  0  0  0  0  0
  2  1  1  1
  2  3  1  0
  2  4  1  0
  5  4  1  1
  5  6  1  0
  5 18  1  0
  5 21  1  0
  6  7  1  0
  7  8  1  0
  8  9  1  0
  9 10  2  0
  9 16  1  0
 10 11  1  0
 10 12  1  0
 12 13  2  0
 13 14  1  0
 14 15  2  0
 15 16  1  0
 16 17  1  0
 18 19  1  0
 19 20  1  0
 20 21  1  0
M  CHG  1   7   1
M  END
