
     RDKit          3D

 22 22  0  0  0  0  0  0  0  0999 V2000
   -1.4730    2.6010    0.3400 C   0  0  0  0  0  0  0  0  0  0  0  0
   -0.9550    1.4160   -0.0520 C   0  0  0  0  0  0  0  0  0  0  0  0
   -1.7190    0.1600    0.0410 C   0  0  0  0  0  0  0  0  0  0  0  0
   -3.0470    0.2320    0.5400 N   0  0  0  0  0  0  0  0  0  0  0  0
   -4.0430    0.1370   -0.5430 C   0  0  2  0  0  0  0  0  0  0  0  0
   -3.8920   -1.1200   -1.3470 C   0  0  0  0  0  0  0  0  0  0  0  0
   -3.7350    1.2900   -1.4890 C   0  0  0  0  0  0  0  0  0  0  0  0
   -5.4160    0.3820   -0.0070 C   0  0  1  0  0  0  0  0  0  0  0  0
   -6.5850    0.2500   -1.3360 Cl  0  0  0  0  0  0  0  0  0  0  0  0
   -5.8540   -0.4770    1.1170 C   0  0  0  0  0  0  0  0  0  0  0  0
   -5.8830   -1.9430    0.8370 C   0  0  0  0  0  0  0  0  0  0  0  0
    0.4230    1.4860   -0.6210 C   0  0  0  0  0  0  0  0  0  0  0  0
    1.4400    0.7730    0.0630 N   0  0  0  0  0  0  0  0  0  0  0  0
    1.3390   -0.6270   -0.0590 C   0  0  0  0  0  0  0  0  0  0  0  0
    2.6890   -1.2820   -0.4070 C   0  0  0  0  0  0  0  0  0  0  0  0
    3.4990   -1.3090    0.8590 C   0  0  0  0  0  0  0  0  0  0  0  0
    4.3230   -0.1770    0.9480 N   0  0  0  0  0  0  0  0  0  0  0  0
    5.6420   -0.3220    1.3760 C   0  0  0  0  0  0  0  0  0  0  0  0
    6.5460   -1.0700    0.4210 C   0  0  0  0  0  0  0  0  0  0  0  0
    6.6600   -0.4210   -0.9220 C   0  0  0  0  0  0  0  0  0  0  0  0
    3.7120    1.0900    0.9920 C   0  0  0  0  0  0  0  0  0  0  0  0
    2.7140    1.3830   -0.0770 C   0  0  0  0  0  0  0  0  0  0  0  0
  1  2  2  0
  2  3  1  0
  2 12  1  0
  3  4  1  0
  4  5  1  0
  5  6  1  6
  5  7  1  0
  5  8  1  0
  8  9  1  6
  8 10  1  0
 10 11  1  0
 12 13  1  0
 13 14  1  0
 13 22  1  0
 14 15  1  0
 15 16  1  0
 16 17  1  0
 17 18  1  0
 17 21  1  0
 18 19  1  0
 19 20  1  0
 21 22  1  0
M  CHG  1   4   1
M  END
