
     RDKit          3D

 22 22  0  0  0  0  0  0  0  0999 V2000
    4.9860   -0.7780   -1.9210 C   0  0  0  0  0  0  0  0  0  0  0  0
    5.1780   -0.3620   -0.6720 C   0  0  0  0  0  0  0  0  0  0  0  0
    6.3100    0.4890   -0.3320 C   0  0  0  0  0  0  0  0  0  0  0  0
    7.4410    0.9760   -1.5800 Cl  0  0  0  0  0  0  0  0  0  0  0  0
    6.4700    0.8810    0.9080 C   0  0  0  0  0  0  0  0  0  0  0  0
    5.5740    0.5250    2.0320 C   0  0  0  0  0  0  0  0  0  0  0  0
    4.4550   -0.3360    1.6080 C   0  0  0  0  0  0  0  0  0  0  0  0
    4.2530   -0.7500    0.3950 C   0  0  0  0  0  0  0  0  0  0  0  0
    3.1390   -1.5920    0.0380 N   0  0  0  0  0  0  0  0  0  0  0  0
    1.8110   -1.3110    0.4600 C   0  0  0  0  0  0  0  0  0  0  0  0
    1.3090   -0.0200   -0.0010 N   0  0  0  0  0  0  0  0  0  0  0  0
    1.3340   -0.0420   -1.4510 C   0  0  0  0  0  0  0  0  0  0  0  0
   -0.0930    0.0430    0.4410 C   0  0  0  0  0  0  0  0  0  0  0  0
   -0.7130    1.3340    0.0260 C   0  0  0  0  0  0  0  0  0  0  0  0
   -2.1330    1.4230    0.4640 C   0  0  0  0  0  0  0  0  0  0  0  0
   -3.0110    0.4190   -0.0440 N   0  0  1  0  0  0  0  0  0  0  0  0
   -4.0440    0.1620    0.9380 C   0  0  0  0  0  0  0  0  0  0  0  0
   -4.1960   -1.3120    1.2260 C   0  0  0  0  0  0  0  0  0  0  0  0
   -2.9540   -1.9400    1.7590 C   0  0  0  0  0  0  0  0  0  0  0  0
   -3.5720    0.8330   -1.3170 C   0  0  1  0  0  0  0  0  0  0  0  0
   -4.5510   -0.1670   -1.8590 C   0  0  0  0  0  0  0  0  0  0  0  0
   -4.2150    2.1800   -1.2670 C   0  0  0  0  0  0  0  0  0  0  0  0
  1  2  2  0
  2  3  1  0
  2  8  1  0
  3  4  1  0
  3  5  2  0
  5  6  1  0
  6  7  1  0
  7  8  2  0
  8  9  1  0
  9 10  1  0
 10 11  1  0
 11 12  1  0
 11 13  1  0
 13 14  1  0
 14 15  1  0
 16 15  1  1
 16 17  1  0
 16 20  1  0
 17 18  1  0
 18 19  1  0
 20 21  1  1
 20 22  1  0
M  CHG  1  16   1
M  END
