
     RDKit          3D

 22 22  0  0  0  0  0  0  0  0999 V2000
   -6.9830    2.6750   -0.1440 C   0  0  0  0  0  0  0  0  0  0  0  0
   -6.4870    1.5410   -0.6360 C   0  0  0  0  0  0  0  0  0  0  0  0
   -5.0420    1.3320   -0.8480 C   0  0  0  0  0  0  0  0  0  0  0  0
   -4.5090    0.2190   -0.0920 N   0  0  0  0  0  0  0  0  0  0  0  0
   -3.1000    0.0310   -0.3080 C   0  0  0  0  0  0  0  0  0  0  0  0
   -2.6670   -1.1660    0.5510 C   0  0  0  0  0  0  0  0  0  0  0  0
   -1.2670   -1.3360    0.3210 N   0  0  0  0  0  0  0  0  0  0  0  0
   -0.2240   -0.3760    0.7400 C   0  0  0  0  0  0  0  0  0  0  0  0
    0.7280   -0.4350   -0.4200 C   0  0  1  0  0  0  0  0  0  0  0  0
    2.1140   -0.2620    0.0190 N   0  0  0  0  0  0  0  0  0  0  0  0
    2.1950    0.7210    1.0820 C   0  0  0  0  0  0  0  0  0  0  0  0
    2.8630    1.9570    0.6020 C   0  0  0  0  0  0  0  0  0  0  0  0
    4.2540    1.8080    0.1430 C   0  0  0  0  0  0  0  0  0  0  0  0
    4.9410    3.0560   -0.3700 C   0  0  0  0  0  0  0  0  0  0  0  0
    4.9520    0.7030    0.1370 C   0  0  0  0  0  0  0  0  0  0  0  0
    6.3670    0.6950   -0.3630 C   0  0  0  0  0  0  0  0  0  0  0  0
    0.5480   -1.7710   -1.0150 C   0  0  0  0  0  0  0  0  0  0  0  0
    1.2500   -2.3560   -1.9820 C   0  0  0  0  0  0  0  0  0  0  0  0
    2.5950   -1.5830   -2.7630 Cl  0  0  0  0  0  0  0  0  0  0  0  0
   -0.6090   -2.4010   -0.3220 C   0  0  0  0  0  0  0  0  0  0  0  0
   -0.8770   -3.6720   -0.3220 C   0  0  0  0  0  0  0  0  0  0  0  0
   -2.0120   -4.2510    0.4210 C   0  0  0  0  0  0  0  0  0  0  0  0
  1  2  2  0
  2  3  1  0
  3  4  1  0
  4  5  1  0
  5  6  1  0
  6  7  1  0
  7  8  1  0
  7 20  1  0
  8  9  1  0
  9 10  1  1
  9 17  1  0
 10 11  1  0
 11 12  1  0
 12 13  1  0
 13 14  1  0
 13 15  2  3
 15 16  1  0
 17 18  2  3
 17 20  1  0
 18 19  1  0
 20 21  2  3
 21 22  1  0
M  CHG  1  10   1
M  END
