
     RDKit          3D

 22 23  0  0  0  0  0  0  0  0999 V2000
   -3.5560   -3.1500   -0.4020 C   0  0  0  0  0  0  0  0  0  0  0  0
   -3.4830   -1.6840   -0.2360 C   0  0  0  0  0  0  0  0  0  0  0  0
   -4.4860   -1.0300    0.3070 C   0  0  0  0  0  0  0  0  0  0  0  0
   -4.4930    0.3790    0.5020 N   0  0  0  0  0  0  0  0  0  0  0  0
   -4.5650    1.3230   -0.4660 C   0  0  0  0  0  0  0  0  0  0  0  0
   -4.5540    2.5880    0.0840 C   0  0  0  0  0  0  0  0  0  0  0  0
   -4.4700    2.4010    1.4490 C   0  0  0  0  0  0  0  0  0  0  0  0
   -4.4350    1.0370    1.6610 C   0  0  0  0  0  0  0  0  0  0  0  0
   -2.2890   -0.9510   -0.6760 C   0  0  2  0  0  0  0  0  0  0  0  0
   -2.1090   -1.1110   -2.1670 C   0  0  0  0  0  0  0  0  0  0  0  0
   -1.1390   -1.5390    0.0040 N   0  0  0  0  0  0  0  0  0  0  0  0
    0.0340   -0.7170   -0.2460 C   0  0  0  0  0  0  0  0  0  0  0  0
    0.7310   -0.5480    1.0890 C   0  0  0  0  0  0  0  0  0  0  0  0
    1.9250    0.2560    0.9680 N   0  0  0  0  0  0  0  0  0  0  0  0
    2.0260    1.6060    1.1090 C   0  0  0  0  0  0  0  0  0  0  0  0
    3.3140    2.0310    0.9130 C   0  0  0  0  0  0  0  0  0  0  0  0
    4.0480    0.8790    0.6370 C   0  0  0  0  0  0  0  0  0  0  0  0
    5.5110    0.8050    0.3440 C   0  0  1  0  0  0  0  0  0  0  0  0
    5.8200   -0.4010   -0.5220 C   0  0  0  0  0  0  0  0  0  0  0  0
    5.9520    2.0340   -0.4160 C   0  0  0  0  0  0  0  0  0  0  0  0
    6.4830    0.6620    1.8190 Cl  0  0  0  0  0  0  0  0  0  0  0  0
    3.1670   -0.1850    0.6800 C   0  0  0  0  0  0  0  0  0  0  0  0
  1  2  1  0
  2  3  2  3
  2  9  1  0
  3  4  1  0
  4  5  1  0
  4  8  1  0
  5  6  2  0
  6  7  1  0
  7  8  2  0
  9 10  1  6
  9 11  1  0
 11 12  1  0
 12 13  1  0
 13 14  1  0
 14 15  1  0
 14 22  1  0
 15 16  2  0
 16 17  1  0
 17 18  1  0
 17 22  2  0
 18 19  1  6
 18 20  1  0
 18 21  1  0
M  CHG  1  11   1
M  END
