
     RDKit          3D

 22 23  0  0  0  0  0  0  0  0999 V2000
   -5.4610    3.1390   -1.1650 C   0  0  0  0  0  0  0  0  0  0  0  0
   -4.9740    3.1330    0.2220 C   0  0  0  0  0  0  0  0  0  0  0  0
   -4.1400    2.2180    0.6340 C   0  0  0  0  0  0  0  0  0  0  0  0
   -3.6230    2.1730    2.0280 C   0  0  0  0  0  0  0  0  0  0  0  0
   -4.1020    0.6250    2.7920 Cl  0  0  0  0  0  0  0  0  0  0  0  0
   -3.7040    1.2300   -0.2930 N   0  0  0  0  0  0  0  0  0  0  0  0
   -2.7170    1.5360   -1.3200 C   0  0  0  0  0  0  0  0  0  0  0  0
   -1.5580    0.6040   -1.1110 C   0  0  0  0  0  0  0  0  0  0  0  0
   -1.8000   -0.3720    0.0020 C   0  0  2  0  0  0  0  0  0  0  0  0
   -0.7330   -1.3460    0.0180 N   0  0  0  0  0  0  0  0  0  0  0  0
    0.6120   -1.0520    0.3960 C   0  0  0  0  0  0  0  0  0  0  0  0
    0.9780    0.1110    1.0240 C   0  0  0  0  0  0  0  0  0  0  0  0
    2.2960    0.3740    1.3690 C   0  0  0  0  0  0  0  0  0  0  0  0
    3.2540   -0.5540    1.0740 N   0  0  0  0  0  0  0  0  0  0  0  0
    2.9460   -1.6990    0.4630 C   0  0  0  0  0  0  0  0  0  0  0  0
    3.9280   -2.7020    0.0960 C   0  0  0  0  0  0  0  0  0  0  0  0
    5.3610   -2.3370    0.1850 C   0  0  0  0  0  0  0  0  0  0  0  0
    5.7750   -1.2390   -0.7570 C   0  0  0  0  0  0  0  0  0  0  0  0
    7.2410   -0.8950   -0.5970 C   0  0  0  0  0  0  0  0  0  0  0  0
    1.6210   -1.9490    0.1240 C   0  0  0  0  0  0  0  0  0  0  0  0
   -3.1090   -1.0840   -0.0650 C   0  0  0  0  0  0  0  0  0  0  0  0
   -4.2330   -0.1130   -0.2670 C   0  0  0  0  0  0  0  0  0  0  0  0
  1  2  1  0
  2  3  2  3
  3  4  1  0
  3  6  1  0
  4  5  1  0
  6  7  1  0
  6 22  1  0
  7  8  1  0
  8  9  1  0
  9 10  1  6
  9 21  1  0
 10 11  1  0
 11 12  2  0
 11 20  1  0
 12 13  1  0
 13 14  2  0
 14 15  1  0
 15 16  1  0
 15 20  2  0
 16 17  1  0
 17 18  1  0
 18 19  1  0
 21 22  1  0
M  CHG  1  14   1
M  END
