
     RDKit          3D

 22 22  0  0  0  0  0  0  0  0999 V2000
    0.9660    4.6350   -1.3670 C   0  0  0  0  0  0  0  0  0  0  0  0
    1.4730    3.7790   -0.2240 C   0  0  0  0  0  0  0  0  0  0  0  0
    0.4340    2.7410    0.1380 C   0  0  0  0  0  0  0  0  0  0  0  0
    0.1210    1.8640   -0.9630 N   0  0  0  0  0  0  0  0  0  0  0  0
   -0.9930    1.0530   -0.5710 C   0  0  0  0  0  0  0  0  0  0  0  0
   -2.2200    1.5200   -0.8990 C   0  0  0  0  0  0  0  0  0  0  0  0
   -3.4420    0.8260   -0.5770 C   0  0  0  0  0  0  0  0  0  0  0  0
   -3.4450   -0.3130    0.0630 C   0  0  0  0  0  0  0  0  0  0  0  0
   -4.7210   -1.0340    0.3990 C   0  0  0  0  0  0  0  0  0  0  0  0
   -2.1960   -0.8490    0.4330 N   0  0  0  0  0  0  0  0  0  0  0  0
   -2.2240   -2.0850    1.1260 N   0  0  0  0  0  0  0  0  0  0  0  0
   -2.2460   -3.1640    0.4300 C   0  0  0  0  0  0  0  0  0  0  0  0
   -2.2410   -3.1030   -1.0450 C   0  0  0  0  0  0  0  0  0  0  0  0
   -2.2770   -4.5180    1.0540 C   0  0  0  0  0  0  0  0  0  0  0  0
   -0.9140   -0.1960    0.1360 C   0  0  0  0  0  0  0  0  0  0  0  0
    0.1710   -0.7800    0.5170 C   0  0  0  0  0  0  0  0  0  0  0  0
    1.5820   -0.8270    0.6070 C   0  0  0  0  0  0  0  0  0  0  0  0
    2.6180   -0.0020    0.0430 C   0  0  0  0  0  0  0  0  0  0  0  0
    3.9820   -0.4510    0.4740 C   0  0  0  0  0  0  0  0  0  0  0  0
    5.1740    0.2980   -0.0690 C   0  0  0  0  0  0  0  0  0  0  0  0
    4.1770   -1.4410    1.2790 C   0  0  0  0  0  0  0  0  0  0  0  0
    5.8470   -1.9140    1.7430 Cl  0  0  0  0  0  0  0  0  0  0  0  0
  1  2  1  0
  2  3  1  0
  3  4  1  0
  4  5  1  0
  5  6  2  0
  5 15  1  0
  6  7  1  0
  7  8  2  0
  8  9  1  0
  8 10  1  0
 10 11  1  0
 10 15  1  0
 11 12  2  3
 12 13  1  0
 12 14  1  0
 15 16  2  3
 16 17  1  0
 17 18  1  0
 18 19  1  0
 19 20  1  0
 19 21  2  3
 21 22  1  0
M  CHG  1   4   1
M  END
