
     RDKit          3D

 22 22  0  0  0  0  0  0  0  0999 V2000
   -5.8520   -0.5800   -1.0840 C   0  0  0  0  0  0  0  0  0  0  0  0
   -4.6650   -0.4240   -0.0900 C   0  0  0  0  0  0  0  0  0  0  0  0
   -4.0480   -1.7320    0.1200 C   0  0  0  0  0  0  0  0  0  0  0  0
   -2.8890   -2.2170    0.1370 C   0  0  0  0  0  0  0  0  0  0  0  0
   -2.8790   -3.7730    0.4100 C   0  0  0  0  0  0  0  0  0  0  0  0
   -1.5570   -1.6980    0.1460 C   0  0  0  0  0  0  0  0  0  0  0  0
   -0.6580   -2.5490   -0.0260 N   0  0  0  0  0  0  0  0  0  0  0  0
    0.5180   -3.5620   -0.2360 Cl  0  0  0  0  0  0  0  0  0  0  0  0
   -1.0550   -0.3430    0.3490 C   0  0  0  0  0  0  0  0  0  0  0  0
    0.2540   -0.2080    0.1370 C   0  0  0  0  0  0  0  0  0  0  0  0
    1.0640    0.9550    0.2360 N   0  0  0  0  0  0  0  0  0  0  0  0
    2.4450    0.8270    0.5140 C   0  0  0  0  0  0  0  0  0  0  0  0
    3.2860    0.1960   -0.5630 C   0  0  0  0  0  0  0  0  0  0  0  0
    4.7280    0.1680   -0.0410 C   0  0  0  0  0  0  0  0  0  0  0  0
    5.6330   -0.4190   -0.9900 N   0  0  0  0  0  0  0  0  0  0  0  0
    6.1360   -1.6840   -0.4900 C   0  0  0  0  0  0  0  0  0  0  0  0
    0.6100    2.3120    0.0500 C   0  0  0  0  0  0  0  0  0  0  0  0
    1.5110    3.3120   -0.4990 C   0  0  0  0  0  0  0  0  0  0  0  0
   -0.6160    2.7850    0.3500 C   0  0  0  0  0  0  0  0  0  0  0  0
   -1.7330    2.0180    0.9250 C   0  0  0  0  0  0  0  0  0  0  0  0
   -2.7900    2.7970    1.5890 C   0  0  0  0  0  0  0  0  0  0  0  0
   -1.9020    0.7070    0.9190 C   0  0  0  0  0  0  0  0  0  0  0  0
  1  2  1  0
  2  3  1  0
  3  4  2  3
  4  5  1  0
  4  6  1  0
  6  7  2  3
  6  9  1  0
  7  8  1  0
  9 10  2  0
  9 22  1  0
 10 11  1  0
 11 12  1  0
 11 17  1  0
 12 13  1  0
 13 14  1  0
 14 15  1  0
 15 16  1  0
 17 18  1  0
 17 19  2  0
 19 20  1  0
 20 21  1  0
 20 22  2  0
M  CHG  1  15   1
M  END
