
     RDKit          3D

 22 22  0  0  0  0  0  0  0  0999 V2000
    6.8540    0.9480    1.1400 C   0  0  0  0  0  0  0  0  0  0  0  0
    5.6700    0.4900    0.5190 O   0  0  0  0  0  0  0  0  0  0  0  0
    4.8000   -0.4200    1.1100 C   0  0  0  0  0  0  0  0  0  0  0  0
    5.1010   -0.8400    2.2500 O   0  0  0  0  0  0  0  0  0  0  0  0
    3.5830   -0.8600    0.4130 C   0  0  0  0  0  0  0  0  0  0  0  0
    3.4890   -0.0460   -1.1780 S   0  0  1  0  0  0  0  0  0  0  0  0
    3.4390    1.4170   -1.0220 O   0  0  0  0  0  0  0  0  0  0  0  0
    4.6480   -0.5290   -1.9750 O   0  0  0  0  0  0  0  0  0  0  0  0
    2.0070   -0.5820   -2.0320 C   0  0  0  0  0  0  0  0  0  0  0  0
    0.8670   -0.2470   -1.1910 C   0  0  0  0  0  0  0  0  0  0  0  0
    0.9690    0.4910   -0.1320 O   0  0  0  0  0  0  0  0  0  0  0  0
   -0.4400   -0.6610   -1.3690 N   0  0  0  0  0  0  0  0  0  0  0  0
   -1.4180   -0.1280   -0.4850 C   0  0  0  0  0  0  0  0  0  0  0  0
   -2.1830   -0.9780   -0.0710 N   0  0  0  0  0  0  0  0  0  0  0  0
   -3.2260   -0.7820    0.8020 C   0  0  0  0  0  0  0  0  0  0  0  0
   -4.0920   -2.2580    1.3750 S   0  0  0  0  0  0  0  0  0  0  0  0
   -3.3880   -3.7660    0.6750 C   0  0  0  0  0  0  0  0  0  0  0  0
   -3.5750    0.3360    1.3090 C   0  0  0  0  0  0  0  0  0  0  0  0
   -2.9620    1.6730    1.0850 C   0  0  2  0  0  0  0  0  0  0  0  0
   -4.1240    2.6440    0.8850 C   0  0  0  0  0  0  0  0  0  0  0  0
   -4.8930    2.2180   -0.2810 N   0  0  0  0  0  0  0  0  0  0  0  0
   -1.9770    1.6000   -0.4050 S   0  0  0  0  0  0  0  0  0  0  0  0
  1  2  1  0
  2  3  1  0
  3  4  2  0
  3  5  1  0
  6  5  1  1
  6  7  2  0
  6  8  2  0
  6  9  1  0
  9 10  1  0
 10 11  2  0
 10 12  1  0
 12 13  1  0
 13 14  2  0
 13 22  1  0
 14 15  1  0
 15 16  1  0
 15 18  2  0
 16 17  1  0
 18 19  1  0
 19 20  1  6
 19 22  1  0
 20 21  1  0
M  CHG  1  21   1
M  END
