
     RDKit          3D

 22 22  0  0  0  0  0  0  0  0999 V2000
   -4.0570   -3.6240   -0.8690 C   0  0  0  0  0  0  0  0  0  0  0  0
   -3.8340   -2.1610   -1.8630 S   0  0  1  0  0  0  0  0  0  0  0  0
   -3.4560   -2.5610   -3.2650 O   0  0  0  0  0  0  0  0  0  0  0  0
   -5.1260   -1.3670   -1.8680 O   0  0  0  0  0  0  0  0  0  0  0  0
   -2.5920   -1.1690   -1.1970 N   0  0  0  0  0  0  0  0  0  0  0  0
   -2.8750   -0.1880   -0.4180 C   0  0  0  0  0  0  0  0  0  0  0  0
   -1.8070    0.6520    0.1460 C   0  0  0  0  0  0  0  0  0  0  0  0
   -2.0960    1.6650    0.9500 C   0  0  0  0  0  0  0  0  0  0  0  0
   -3.7890    2.0460    1.3790 S   0  0  0  0  0  0  0  0  0  0  0  0
   -3.7950    3.3000    2.6830 C   0  0  0  0  0  0  0  0  0  0  0  0
   -3.1170    4.8350    1.9610 S   0  0  0  0  0  0  0  0  0  0  0  0
   -0.4460    0.3180   -0.2230 C   0  0  0  0  0  0  0  0  0  0  0  0
   -0.2050   -0.6640   -1.0020 O   0  0  0  0  0  0  0  0  0  0  0  0
    0.6590    1.0500    0.2560 N   0  0  0  0  0  0  0  0  0  0  0  0
    2.0280    0.8090   -0.0420 C   0  0  0  0  0  0  0  0  0  0  0  0
    2.5150   -0.1110   -0.8050 C   0  0  0  0  0  0  0  0  0  0  0  0
    4.0200   -0.0250   -0.8560 C   0  0  2  0  0  0  0  0  0  0  0  0
    4.5280   -1.3770   -0.4230 C   0  0  0  0  0  0  0  0  0  0  0  0
    5.9640   -1.4300   -0.3140 N   0  0  0  0  0  0  0  0  0  0  0  0
    4.3290    1.0280   -0.0370 O   0  0  0  0  0  0  0  0  0  0  0  0
    3.1760    1.5740    0.4780 C   0  0  0  0  0  0  0  0  0  0  0  0
    3.0560    2.5580    1.2650 O   0  0  0  0  0  0  0  0  0  0  0  0
  2  1  1  1
  2  3  2  0
  2  4  2  0
  2  5  1  0
  5  6  2  3
  6  7  1  0
  7  8  2  3
  7 12  1  0
  8  9  1  0
  9 10  1  0
 10 11  1  0
 12 13  2  0
 12 14  1  0
 14 15  1  0
 15 16  2  0
 15 21  1  0
 16 17  1  0
 17 18  1  1
 17 20  1  0
 18 19  1  0
 20 21  1  0
 21 22  2  0
M  CHG  1  19   1
M  END
