
     RDKit          3D

 22 23  0  0  0  0  0  0  0  0999 V2000
    3.2450    2.0440    0.2650 C   0  0  0  0  0  0  0  0  0  0  0  0
    3.6750    0.7930    0.4100 C   0  0  0  0  0  0  0  0  0  0  0  0
    2.9140   -0.3630    0.8080 C   0  0  0  0  0  0  0  0  0  0  0  0
    1.4650   -0.3570    0.6320 N   0  0  0  0  0  0  0  0  0  0  0  0
    0.9070   -0.2120   -0.6620 C   0  0  0  0  0  0  0  0  0  0  0  0
    1.7570   -0.0930   -1.6110 O   0  0  0  0  0  0  0  0  0  0  0  0
   -0.5430   -0.1910   -0.9620 C   0  0  0  0  0  0  0  0  0  0  0  0
   -1.3680   -0.3350    0.2110 N   0  0  2  0  0  0  0  0  0  0  0  0
   -1.3310   -1.6500    0.7760 C   0  0  0  0  0  0  0  0  0  0  0  0
   -2.4940   -2.4940    0.4420 C   0  0  0  0  0  0  0  0  0  0  0  0
   -2.8950   -3.3710    1.1650 O   0  0  0  0  0  0  0  0  0  0  0  0
   -3.3300   -2.1940   -1.1000 S   0  0  0  0  0  0  0  0  0  0  0  0
   -3.3390   -0.3640   -1.2650 C   0  0  0  0  0  0  0  0  0  0  0  0
   -2.7120    0.1620    0.0010 C   0  0  2  0  0  0  0  0  0  0  0  0
   -2.7400    1.6330    0.0300 C   0  0  0  0  0  0  0  0  0  0  0  0
   -3.9540    2.3210   -0.1550 N   0  0  0  0  0  0  0  0  0  0  0  0
   -1.6880    2.2690    0.2190 O   0  0  0  0  0  0  0  0  0  0  0  0
    3.5040   -1.3900    1.3200 C   0  0  0  0  0  0  0  0  0  0  0  0
    5.2770   -1.2540    1.4840 S   0  0  0  0  0  0  0  0  0  0  0  0
    5.3780    0.3670    0.1090 S   0  0  2  0  0  0  0  0  0  0  0  0
    6.3010    1.4130    0.5770 O   0  0  0  0  0  0  0  0  0  0  0  0
    5.5890   -0.1120   -1.2700 O   0  0  0  0  0  0  0  0  0  0  0  0
  1  2  2  0
  2  3  1  0
  2 20  1  0
  3  4  1  0
  3 18  2  0
  4  5  1  0
  5  6  2  0
  5  7  1  0
  8  7  1  6
  8  9  1  0
  8 14  1  0
  9 10  1  0
 10 11  2  0
 10 12  1  0
 12 13  1  0
 13 14  1  0
 14 15  1  6
 15 16  1  0
 15 17  2  0
 18 19  1  0
 20 19  1  1
 20 21  2  0
 20 22  2  0
M  CHG  1   8   1
M  END
