
     RDKit          3D

 22 23  0  0  0  0  0  0  0  0999 V2000
    5.8580    1.9240    0.1890 C   0  0  0  0  0  0  0  0  0  0  0  0
    5.8130    0.5980   -1.0380 S   0  0  0  0  0  0  0  0  0  0  0  0
    5.3150   -0.9640   -0.2390 C   0  0  0  0  0  0  0  0  0  0  0  0
    3.8890   -0.8470    0.2310 C   0  0  0  0  0  0  0  0  0  0  0  0
    3.6950   -0.4120    1.3970 O   0  0  0  0  0  0  0  0  0  0  0  0
    2.8100   -1.2140   -0.6110 N   0  0  0  0  0  0  0  0  0  0  0  0
    1.4810   -1.1030   -0.1770 N   0  0  0  0  0  0  0  0  0  0  0  0
    0.7130    0.0370   -0.5030 C   0  0  0  0  0  0  0  0  0  0  0  0
    1.3160    0.9450   -1.1970 O   0  0  0  0  0  0  0  0  0  0  0  0
   -0.6830    0.2190   -0.0960 C   0  0  0  0  0  0  0  0  0  0  0  0
   -1.2390   -0.8920    0.6540 N   0  0  2  0  0  0  0  0  0  0  0  0
   -1.4740   -1.9890   -0.2010 C   0  0  0  0  0  0  0  0  0  0  0  0
   -2.8130   -2.1530   -0.8140 C   0  0  0  0  0  0  0  0  0  0  0  0
   -3.3770   -0.7690   -1.8180 S   0  0  0  0  0  0  0  0  0  0  0  0
   -4.1490    0.5310   -0.8470 C   0  0  2  0  0  0  0  0  0  0  0  0
   -4.1770    1.6970   -1.6140 O   0  0  0  0  0  0  0  0  0  0  0  0
   -3.9590    2.7410   -0.7170 C   0  0  0  0  0  0  0  0  0  0  0  0
   -3.2320    2.1720    0.4560 C   0  0  0  0  0  0  0  0  0  0  0  0
   -3.3510    0.8710    0.3620 C   0  0  0  0  0  0  0  0  0  0  0  0
   -2.6440   -0.2950    1.4590 S   0  0  2  0  0  0  0  0  0  0  0  0
   -2.2050    0.3910    2.7230 O   0  0  0  0  0  0  0  0  0  0  0  0
   -3.6150   -1.3470    1.8360 O   0  0  0  0  0  0  0  0  0  0  0  0
  1  2  1  0
  2  3  1  0
  3  4  1  0
  4  5  2  0
  4  6  1  0
  6  7  1  0
  7  8  1  0
  8  9  2  0
  8 10  1  0
 11 10  1  6
 11 12  1  0
 11 20  1  0
 12 13  1  0
 13 14  1  0
 14 15  1  0
 15 16  1  6
 15 19  1  0
 16 17  1  0
 17 18  1  0
 18 19  2  0
 20 19  1  6
 20 21  2  0
 20 22  2  0
M  CHG  1  11   1
M  END
