
     RDKit          3D

 22 22  0  0  0  0  0  0  0  0999 V2000
   -5.6180   -1.5360   -1.1170 C   0  0  0  0  0  0  0  0  0  0  0  0
   -4.6900   -0.8300   -0.1490 C   0  0  1  0  0  0  0  0  0  0  0  0
   -3.3770   -0.6460   -0.8050 C   0  0  0  0  0  0  0  0  0  0  0  0
   -3.2090   -1.0210   -1.9860 O   0  0  0  0  0  0  0  0  0  0  0  0
   -2.2600   -0.0420   -0.1370 N   0  0  0  0  0  0  0  0  0  0  0  0
   -1.0480    0.1130   -0.7860 N   0  0  0  0  0  0  0  0  0  0  0  0
   -0.0390    0.9130   -0.1290 C   0  0  0  0  0  0  0  0  0  0  0  0
   -0.3080    1.4260    0.9860 O   0  0  0  0  0  0  0  0  0  0  0  0
    1.1920    1.1100   -0.7130 O   0  0  0  0  0  0  0  0  0  0  0  0
    2.2090    1.8730   -0.1180 C   0  0  0  0  0  0  0  0  0  0  0  0
    2.6460    1.3120    1.1970 C   0  0  0  0  0  0  0  0  0  0  0  0
    3.1580   -0.0320    1.1650 N   0  0  0  0  0  0  0  0  0  0  0  0
    3.6710   -0.4930   -0.0740 C   0  0  0  0  0  0  0  0  0  0  0  0
    5.1350   -0.8700    0.0220 C   0  0  0  0  0  0  0  0  0  0  0  0
    5.6190   -2.0530   -0.2250 C   0  0  0  0  0  0  0  0  0  0  0  0
    7.3720   -2.1910   -0.0270 S   0  0  0  0  0  0  0  0  0  0  0  0
    7.9000   -0.4320   -0.0350 C   0  0  0  0  0  0  0  0  0  0  0  0
    6.3530    0.3380    0.5080 S   0  0  0  0  0  0  0  0  0  0  0  0
   -5.3310    0.7780    0.2540 S   0  0  2  0  0  0  0  0  0  0  0  0
   -6.9660    0.6930    0.9350 C   0  0  0  0  0  0  0  0  0  0  0  0
   -5.3110    1.6000   -0.9970 O   0  0  0  0  0  0  0  0  0  0  0  0
   -4.4050    1.4010    1.2600 O   0  0  0  0  0  0  0  0  0  0  0  0
  2  1  1  6
  2  3  1  0
  2 19  1  0
  3  4  2  0
  3  5  1  0
  5  6  1  0
  6  7  1  0
  7  8  2  0
  7  9  1  0
  9 10  1  0
 10 11  1  0
 11 12  1  0
 12 13  1  0
 13 14  1  0
 14 15  2  0
 14 18  1  0
 15 16  1  0
 16 17  1  0
 17 18  1  0
 19 20  1  1
 19 21  2  0
 19 22  2  0
M  CHG  1  12   1
M  END
