
     RDKit          3D

 22 23  0  0  0  0  0  0  0  0999 V2000
   -6.2640   -2.3370   -0.6980 C   0  0  0  0  0  0  0  0  0  0  0  0
   -5.5120   -1.1200   -0.5990 O   0  0  0  0  0  0  0  0  0  0  0  0
   -4.5480   -0.9250    0.3590 C   0  0  0  0  0  0  0  0  0  0  0  0
   -4.3130   -1.8430    1.1810 O   0  0  0  0  0  0  0  0  0  0  0  0
   -3.7770    0.3480    0.4440 C   0  0  2  0  0  0  0  0  0  0  0  0
   -4.1700    1.2840   -0.5640 N   0  0  0  0  0  0  0  0  0  0  0  0
   -2.9540    1.9880   -0.9320 C   0  0  0  0  0  0  0  0  0  0  0  0
   -1.8910    0.9990   -0.6410 C   0  0  0  0  0  0  0  0  0  0  0  0
   -0.5660    1.0110   -1.1070 O   0  0  0  0  0  0  0  0  0  0  0  0
   -2.3600    0.0710    0.1380 C   0  0  0  0  0  0  0  0  0  0  0  0
   -1.5390   -1.3730    0.8140 S   0  0  0  0  0  0  0  0  0  0  0  0
    0.2010   -1.3840    0.2190 C   0  0  0  0  0  0  0  0  0  0  0  0
    0.7990   -1.8160   -0.7140 N   0  0  0  0  0  0  0  0  0  0  0  0
    2.0800   -1.6550   -0.8640 N   0  0  0  0  0  0  0  0  0  0  0  0
    2.8210   -1.0960   -0.1580 C   0  0  0  0  0  0  0  0  0  0  0  0
    4.2350   -0.6850    0.0730 C   0  0  0  0  0  0  0  0  0  0  0  0
    5.1120   -1.0060   -0.7640 O   0  0  0  0  0  0  0  0  0  0  0  0
    4.6140    0.0360    1.1730 O   0  0  0  0  0  0  0  0  0  0  0  0
    5.9300    0.4370    1.4180 C   0  0  0  0  0  0  0  0  0  0  0  0
    6.4970    1.3330    0.3490 C   0  0  0  0  0  0  0  0  0  0  0  0
    8.2040    1.7720    0.8060 S   0  0  0  0  0  0  0  0  0  0  0  0
    1.5590   -0.5490    1.1890 S   0  0  0  0  0  0  0  0  0  0  0  0
  1  2  1  0
  2  3  1  0
  3  4  2  0
  5  3  1  6
  5  6  1  0
  5 10  1  0
  6  7  1  0
  7  8  1  0
  8  9  1  0
  8 10  2  0
 10 11  1  0
 11 12  1  0
 12 13  2  0
 12 22  1  0
 13 14  1  0
 14 15  2  0
 15 16  1  0
 15 22  1  0
 16 17  2  0
 16 18  1  0
 18 19  1  0
 19 20  1  0
 20 21  1  0
M  CHG  1   6   1
M  END
