
     RDKit          3D

 22 22  0  0  0  0  0  0  0  0999 V2000
   -8.2290    1.0360    0.3500 C   0  0  0  0  0  0  0  0  0  0  0  0
   -7.2650    0.3720   -0.2550 C   0  0  0  0  0  0  0  0  0  0  0  0
   -7.3910   -1.1130   -0.5510 C   0  0  0  0  0  0  0  0  0  0  0  0
   -5.8230   -1.3470    0.4750 S   0  0  0  0  0  0  0  0  0  0  0  0
   -5.0530    0.1020   -0.2390 C   0  0  0  0  0  0  0  0  0  0  0  0
   -3.8080    0.6240   -0.6080 N   0  0  0  0  0  0  0  0  0  0  0  0
   -2.6610    0.1230   -0.0230 C   0  0  0  0  0  0  0  0  0  0  0  0
   -2.8910   -0.7500    0.8290 O   0  0  0  0  0  0  0  0  0  0  0  0
   -1.3090    0.5980   -0.3710 C   0  0  0  0  0  0  0  0  0  0  0  0
   -0.4680    0.0610    0.6750 O   0  0  0  0  0  0  0  0  0  0  0  0
    0.8370    0.4480    0.6070 C   0  0  0  0  0  0  0  0  0  0  0  0
    1.2590    1.1980   -0.2860 O   0  0  0  0  0  0  0  0  0  0  0  0
    1.7580   -0.0730    1.6700 C   0  0  0  0  0  0  0  0  0  0  0  0
    2.5140   -1.6110    1.1900 S   0  0  0  0  0  0  0  0  0  0  0  0
    3.7130   -1.5720   -0.1110 C   0  0  0  0  0  0  0  0  0  0  0  0
    5.0490   -1.0360    0.2430 C   0  0  1  0  0  0  0  0  0  0  0  0
    5.9120   -1.1000   -0.9500 N   0  0  0  0  0  0  0  0  0  0  0  0
    5.1560    0.2750    0.9150 C   0  0  0  0  0  0  0  0  0  0  0  0
    4.5340    1.6560    0.0480 S   0  0  1  0  0  0  0  0  0  0  0  0
    5.6730    2.6690   -0.0980 O   0  0  0  0  0  0  0  0  0  0  0  0
    4.1290    1.3380   -1.3620 O   0  0  0  0  0  0  0  0  0  0  0  0
   -6.0000    0.8320   -0.5510 N   0  0  0  0  0  0  0  0  0  0  0  0
  1  2  2  0
  2  3  1  0
  2 22  1  0
  3  4  1  0
  4  5  1  0
  5  6  1  0
  5 22  2  0
  6  7  1  0
  7  8  2  0
  7  9  1  0
  9 10  1  0
 10 11  1  0
 11 12  2  0
 11 13  1  0
 13 14  1  0
 14 15  1  0
 15 16  1  0
 16 17  1  6
 16 18  1  0
 19 18  1  6
 19 20  2  0
 19 21  2  0
M  CHG  1  17   1
M  END
