
     RDKit          3D

 23 25  0  0  0  0  0  0  0  0999 V2000
    4.5630    3.1300    1.1530 C   0  0  0  0  0  0  0  0  0  0  0  0
    4.2520    1.6790    1.3020 C   0  0  0  0  0  0  0  0  0  0  0  0
    3.1770    1.0790    0.7610 C   0  0  0  0  0  0  0  0  0  0  0  0
    2.0820    1.6150   -0.0650 C   0  0  0  0  0  0  0  0  0  0  0  0
    1.0930    0.6070   -0.4550 C   0  0  0  0  0  0  0  0  0  0  0  0
    1.1480   -0.6510   -0.1190 C   0  0  0  0  0  0  0  0  0  0  0  0
    0.1700   -1.6750   -0.4980 C   0  0  0  0  0  0  0  0  0  0  0  0
   -0.9720   -1.3830   -1.3000 C   0  0  0  0  0  0  0  0  0  0  0  0
   -1.2910   -0.2880   -1.7670 O   0  0  0  0  0  0  0  0  0  0  0  0
   -1.8800   -2.4700   -1.6190 N   0  0  0  0  0  0  0  0  0  0  0  0
   -3.0300   -2.1510   -2.4310 C   0  0  0  0  0  0  0  0  0  0  0  0
   -3.8200   -1.1370   -1.7010 C   0  0  0  0  0  0  0  0  0  0  0  0
   -3.7870   -0.5020   -0.6340 N   0  0  0  0  0  0  0  0  0  0  0  0
   -4.6470    0.3670   -0.2190 C   0  0  0  0  0  0  0  0  0  0  0  0
   -4.6050    1.1510    1.1000 C   0  0  0  0  0  0  0  0  0  0  0  0
   -5.7310    0.6240   -1.0560 C   0  0  0  0  0  0  0  0  0  0  0  0
   -5.3590   -0.4990   -2.4450 S   0  0  0  0  0  0  0  0  0  0  0  0
    2.2770   -1.1440    0.7200 C   0  0  0  0  0  0  0  0  0  0  0  0
    2.3690   -2.4770    1.0970 O   0  0  0  0  0  0  0  0  0  0  0  0
    3.2080   -0.3190    1.1160 C   0  0  0  0  0  0  0  0  0  0  0  0
    4.4420   -0.5190    1.9510 C   0  0  2  0  0  0  0  0  0  0  0  0
    3.9980   -1.0650    3.5880 Cl  0  0  0  0  0  0  0  0  0  0  0  0
    4.9980    0.7600    1.9980 O   0  0  0  0  0  0  0  0  0  0  0  0
  1  2  1  0
  2  3  2  0
  2 23  1  0
  3  4  1  0
  3 20  1  0
  4  5  1  0
  5  6  2  0
  6  7  1  0
  6 18  1  0
  7  8  1  0
  8  9  2  0
  8 10  1  0
 10 11  1  0
 11 12  1  0
 12 13  2  0
 12 17  1  0
 13 14  1  0
 14 15  1  0
 14 16  2  0
 16 17  1  0
 18 19  1  0
 18 20  2  0
 20 21  1  0
 21 22  1  1
 21 23  1  0
M  END
