
     RDKit          3D

 23 25  0  0  0  0  0  0  0  0999 V2000
   -3.3890    3.7310    1.2390 C   0  0  0  0  0  0  0  0  0  0  0  0
   -3.5840    2.3150    0.7510 C   0  0  0  0  0  0  0  0  0  0  0  0
   -4.5890    1.6690    1.0570 O   0  0  0  0  0  0  0  0  0  0  0  0
   -2.5610    1.7350   -0.0680 N   0  0  0  0  0  0  0  0  0  0  0  0
   -2.7690    0.3740   -0.4620 C   0  0  0  0  0  0  0  0  0  0  0  0
   -3.7770   -0.1980   -1.1150 C   0  0  0  0  0  0  0  0  0  0  0  0
   -3.7490   -1.5600   -1.5460 C   0  0  0  0  0  0  0  0  0  0  0  0
   -2.6270   -2.2710   -1.2460 C   0  0  0  0  0  0  0  0  0  0  0  0
   -2.3310   -3.5590   -1.4710 O   0  0  0  0  0  0  0  0  0  0  0  0
   -1.1180   -3.7880   -0.9180 C   0  0  0  0  0  0  0  0  0  0  0  0
   -0.6080   -4.9550   -0.9620 O   0  0  0  0  0  0  0  0  0  0  0  0
   -0.6700   -2.6960   -0.3980 N   0  0  0  0  0  0  0  0  0  0  0  0
   -1.5550   -1.6750   -0.5660 C   0  0  0  0  0  0  0  0  0  0  0  0
   -1.5630   -0.4110   -0.1680 C   0  0  0  0  0  0  0  0  0  0  0  0
   -0.6320    0.3490    0.6310 C   0  0  0  0  0  0  0  0  0  0  0  0
    0.8870    0.8470    0.1800 S   0  0  0  0  0  0  0  0  0  0  0  0
    2.4160    0.2180   -0.0270 C   0  0  0  0  0  0  0  0  0  0  0  0
    3.3060    0.1250    1.0040 C   0  0  0  0  0  0  0  0  0  0  0  0
    4.5680   -0.4490    0.5160 C   0  0  1  0  0  0  0  0  0  0  0  0
    5.6720    0.5720    0.6550 C   0  0  0  0  0  0  0  0  0  0  0  0
    5.0150   -1.8980    1.4040 Cl  0  0  0  0  0  0  0  0  0  0  0  0
    4.2990   -0.7060   -0.9360 C   0  0  0  0  0  0  0  0  0  0  0  0
    3.0840   -0.3100   -1.1890 C   0  0  0  0  0  0  0  0  0  0  0  0
  1  2  1  0
  2  3  2  0
  2  4  1  0
  4  5  1  0
  5  6  2  0
  5 14  1  0
  6  7  1  0
  7  8  2  0
  8  9  1  0
  8 13  1  0
  9 10  1  0
 10 11  2  0
 10 12  1  0
 12 13  1  0
 13 14  2  0
 14 15  1  0
 15 16  1  0
 16 17  1  0
 17 18  2  0
 17 23  1  0
 18 19  1  0
 19 20  1  6
 19 21  1  0
 19 22  1  0
 22 23  2  0
M  END
