
     RDKit          3D

 23 25  0  0  0  0  0  0  0  0999 V2000
    4.6530   -1.9940   -0.0150 C   0  0  0  0  0  0  0  0  0  0  0  0
    4.9820   -0.5530   -0.0870 C   0  0  0  0  0  0  0  0  0  0  0  0
    6.2850   -0.1380   -0.1850 N   0  0  0  0  0  0  0  0  0  0  0  0
    6.3380    1.1950   -0.1990 C   0  0  0  0  0  0  0  0  0  0  0  0
    7.8200    2.1430   -0.3130 Cl  0  0  0  0  0  0  0  0  0  0  0  0
    5.0750    1.6980   -0.1120 C   0  0  0  0  0  0  0  0  0  0  0  0
    4.2060    0.5750   -0.0410 C   0  0  0  0  0  0  0  0  0  0  0  0
    2.7730    0.6820    0.0120 C   0  0  0  0  0  0  0  0  0  0  0  0
    2.3300    1.7600    0.5660 O   0  0  0  0  0  0  0  0  0  0  0  0
    1.7990   -0.2550   -0.4740 C   0  0  0  0  0  0  0  0  0  0  0  0
    2.0660   -1.3030   -1.0940 O   0  0  0  0  0  0  0  0  0  0  0  0
    0.3850   -0.0210   -0.2590 N   0  0  0  0  0  0  0  0  0  0  0  0
   -0.5970   -0.9560   -0.7430 C   0  0  0  0  0  0  0  0  0  0  0  0
   -1.9690   -0.5000   -0.4020 C   0  0  0  0  0  0  0  0  0  0  0  0
   -2.3490    0.6590    0.2400 C   0  0  0  0  0  0  0  0  0  0  0  0
   -3.7380    0.6610    0.3430 C   0  0  0  0  0  0  0  0  0  0  0  0
   -4.6610    1.5350    0.8740 C   0  0  0  0  0  0  0  0  0  0  0  0
   -6.0110    1.2750    0.8350 C   0  0  0  0  0  0  0  0  0  0  0  0
   -6.3930    0.0930    0.2370 C   0  0  0  0  0  0  0  0  0  0  0  0
   -8.1420   -0.3440    0.1340 S   0  0  0  0  0  0  0  0  0  0  0  0
   -5.4830   -0.7900   -0.2980 C   0  0  0  0  0  0  0  0  0  0  0  0
   -4.1230   -0.5190   -0.2540 C   0  0  0  0  0  0  0  0  0  0  0  0
   -3.0590   -1.1680   -0.6750 O   0  0  0  0  0  0  0  0  0  0  0  0
  1  2  1  0
  2  3  1  0
  2  7  2  0
  3  4  1  0
  4  5  1  0
  4  6  2  0
  6  7  1  0
  7  8  1  0
  8  9  2  0
  8 10  1  0
 10 11  2  0
 10 12  1  0
 12 13  1  0
 13 14  1  0
 14 15  2  0
 14 23  1  0
 15 16  1  0
 16 17  2  0
 16 22  1  0
 17 18  1  0
 18 19  2  0
 19 20  1  0
 19 21  1  0
 21 22  2  0
 22 23  1  0
M  END
