
     RDKit          3D

 23 25  0  0  0  0  0  0  0  0999 V2000
   -5.3180    2.2660   -2.3030 C   0  0  0  0  0  0  0  0  0  0  0  0
   -4.8470    1.4830   -1.3420 O   0  0  0  0  0  0  0  0  0  0  0  0
   -4.3980    0.7430   -0.4340 C   0  0  0  0  0  0  0  0  0  0  0  0
   -3.0140    0.3940   -0.2230 C   0  0  0  0  0  0  0  0  0  0  0  0
   -2.5780   -0.4100    0.7600 C   0  0  0  0  0  0  0  0  0  0  0  0
   -1.2760   -1.0420    0.9000 C   0  0  0  0  0  0  0  0  0  0  0  0
   -0.1170   -0.7140    0.4800 O   0  0  0  0  0  0  0  0  0  0  0  0
    1.0260   -0.6490   -0.1690 C   0  0  0  0  0  0  0  0  0  0  0  0
    1.4010   -1.5720   -1.1790 C   0  0  0  0  0  0  0  0  0  0  0  0
    2.6050   -1.4710   -1.7390 C   0  0  0  0  0  0  0  0  0  0  0  0
    3.5420   -0.4750   -1.3900 C   0  0  0  0  0  0  0  0  0  0  0  0
    3.1490    0.4010   -0.4240 C   0  0  0  0  0  0  0  0  0  0  0  0
    1.9430    0.3630    0.2040 C   0  0  0  0  0  0  0  0  0  0  0  0
    4.2510    1.3180   -0.1750 N   0  0  0  0  0  0  0  0  0  0  0  0
    5.6790    0.4680   -0.5380 S   0  0  0  0  0  0  0  0  0  0  0  0
    6.3870    0.8790    0.7820 C   0  0  0  0  0  0  0  0  0  0  0  0
    5.7880   -1.0950   -0.0580 O   0  0  0  0  0  0  0  0  0  0  0  0
    4.9050   -0.1550   -1.7350 N   0  0  0  0  0  0  0  0  0  0  0  0
   -3.5690   -0.9000    1.6220 C   0  0  0  0  0  0  0  0  0  0  0  0
   -3.0410   -1.5220    2.9320 C   0  0  0  0  0  0  0  0  0  0  0  0
   -4.9000   -0.6070    1.4920 C   0  0  0  0  0  0  0  0  0  0  0  0
   -5.3270    0.1920    0.4760 C   0  0  0  0  0  0  0  0  0  0  0  0
   -7.0310    0.5860    0.2770 Cl  0  0  0  0  0  0  0  0  0  0  0  0
  1  2  1  0
  2  3  1  0
  3  4  2  0
  3 22  1  0
  4  5  1  0
  5  6  1  0
  5 19  2  0
  6  7  1  0
  7  8  1  0
  8  9  2  0
  8 13  1  0
  9 10  1  0
 10 11  2  0
 11 12  1  0
 11 18  1  0
 12 13  2  0
 12 14  1  0
 14 15  1  0
 15 16  1  0
 15 17  2  0
 15 18  1  0
 19 20  1  0
 19 21  1  0
 21 22  2  0
 22 23  1  0
M  END
