
     RDKit          3D

 23 25  0  0  0  0  0  0  0  0999 V2000
    6.0430    2.3970    0.7230 C   0  0  0  0  0  0  0  0  0  0  0  0
    5.3830    1.9020   -0.4250 O   0  0  0  0  0  0  0  0  0  0  0  0
    4.3140    1.0430   -0.2340 C   0  0  0  0  0  0  0  0  0  0  0  0
    3.8430    0.6330    0.9950 C   0  0  0  0  0  0  0  0  0  0  0  0
    2.7780   -0.2220    1.1370 C   0  0  0  0  0  0  0  0  0  0  0  0
    2.1070   -0.7270    0.0120 C   0  0  0  0  0  0  0  0  0  0  0  0
    1.0130   -1.5850    0.2320 N   0  0  0  0  0  0  0  0  0  0  0  0
    0.4060   -2.4210   -0.7200 C   0  0  0  0  0  0  0  0  0  0  0  0
    0.8440   -2.4630   -1.8810 O   0  0  0  0  0  0  0  0  0  0  0  0
   -0.7750   -3.2750   -0.3290 C   0  0  0  0  0  0  0  0  0  0  0  0
   -1.4950   -2.6430    1.1960 S   0  0  0  0  0  0  0  0  0  0  0  0
   -2.3570   -1.1230    0.8720 C   0  0  0  0  0  0  0  0  0  0  0  0
   -1.7900    0.1110    1.0110 C   0  0  0  0  0  0  0  0  0  0  0  0
   -2.4780    1.2900    0.7430 C   0  0  0  0  0  0  0  0  0  0  0  0
   -3.7740    1.2160    0.3230 C   0  0  0  0  0  0  0  0  0  0  0  0
   -4.3670   -0.0140    0.1760 C   0  0  0  0  0  0  0  0  0  0  0  0
   -3.6900   -1.1620    0.4390 C   0  0  0  0  0  0  0  0  0  0  0  0
   -5.6970    0.2210   -0.2660 N   0  0  0  0  0  0  0  0  0  0  0  0
   -5.9370    1.6530   -0.2950 C   0  0  0  0  0  0  0  0  0  0  0  0
   -4.6950    2.2210   -0.0150 O   0  0  0  0  0  0  0  0  0  0  0  0
    2.5720   -0.3210   -1.2160 C   0  0  0  0  0  0  0  0  0  0  0  0
    3.6480    0.5420   -1.3310 C   0  0  0  0  0  0  0  0  0  0  0  0
    4.1940    1.0260   -2.9440 Cl  0  0  0  0  0  0  0  0  0  0  0  0
  1  2  1  0
  2  3  1  0
  3  4  2  0
  3 22  1  0
  4  5  1  0
  5  6  2  0
  6  7  1  0
  6 21  1  0
  7  8  1  0
  8  9  2  0
  8 10  1  0
 10 11  1  0
 11 12  1  0
 12 13  2  0
 12 17  1  0
 13 14  1  0
 14 15  2  0
 15 16  1  0
 15 20  1  0
 16 17  2  0
 16 18  1  0
 18 19  1  0
 19 20  1  0
 21 22  2  0
 22 23  1  0
M  END
