
     RDKit          3D

 23 25  0  0  0  0  0  0  0  0999 V2000
   -0.0210    0.8390   -2.0840 O   0  0  0  0  0  0  0  0  0  0  0  0
   -0.4110    0.5680   -0.9270 C   0  0  0  0  0  0  0  0  0  0  0  0
    0.4980    0.2300    0.1120 N   0  0  0  0  0  0  0  0  0  0  0  0
    1.8910    0.1540    0.0150 C   0  0  0  0  0  0  0  0  0  0  0  0
    2.6340   -0.4170    1.0130 C   0  0  0  0  0  0  0  0  0  0  0  0
    4.0030   -0.5260    1.0150 C   0  0  0  0  0  0  0  0  0  0  0  0
    4.7390   -0.0120   -0.0980 C   0  0  0  0  0  0  0  0  0  0  0  0
    6.0290   -0.0530   -0.2160 N   0  0  0  0  0  0  0  0  0  0  0  0
    6.6120    0.4740   -1.3320 C   0  0  0  0  0  0  0  0  0  0  0  0
    7.8280    0.5600   -1.6860 O   0  0  0  0  0  0  0  0  0  0  0  0
    5.1770    1.0710   -2.2760 S   0  0  0  0  0  0  0  0  0  0  0  0
    3.9460    0.5470   -1.0650 C   0  0  0  0  0  0  0  0  0  0  0  0
    2.5850    0.6490   -1.0560 C   0  0  0  0  0  0  0  0  0  0  0  0
   -1.8250    0.5960   -0.6100 C   0  0  1  0  0  0  0  0  0  0  0  0
   -2.6790    0.9230   -1.6630 O   0  0  0  0  0  0  0  0  0  0  0  0
   -4.0070    0.7000   -1.2220 C   0  0  0  0  0  0  0  0  0  0  0  0
   -4.3570    1.5100    0.0010 C   0  0  0  0  0  0  0  0  0  0  0  0
   -4.1700    0.7130    1.3010 C   0  0  0  0  0  0  0  0  0  0  0  0
   -3.4250   -0.5220    0.8920 C   0  0  0  0  0  0  0  0  0  0  0  0
   -2.3640   -0.6130    0.0330 C   0  0  0  0  0  0  0  0  0  0  0  0
   -1.8590   -1.9400   -0.1910 C   0  0  0  0  0  0  0  0  0  0  0  0
   -0.8860   -2.3470   -0.9540 C   0  0  0  0  0  0  0  0  0  0  0  0
   -0.5010   -4.0870   -1.0070 Cl  0  0  0  0  0  0  0  0  0  0  0  0
  1  2  2  0
  2  3  1  0
 14  2  1  6
  3  4  1  0
  4  5  2  0
  4 13  1  0
  5  6  1  0
  6  7  2  0
  7  8  1  0
  7 12  1  0
  8  9  1  0
  9 10  2  0
  9 11  1  0
 11 12  1  0
 12 13  2  0
 14 15  1  0
 14 20  1  0
 15 16  1  0
 16 17  1  0
 17 18  1  0
 18 19  1  0
 19 20  2  0
 20 21  1  0
 21 22  2  3
 22 23  1  0
M  END
