
     RDKit          3D

 23 25  0  0  0  0  0  0  0  0999 V2000
   -0.4580    2.2940    2.4460 C   0  0  0  0  0  0  0  0  0  0  0  0
    0.1010    2.3420    1.0020 C   0  0  0  0  0  0  0  0  0  0  0  0
   -0.9440    1.7360    0.1120 C   0  0  0  0  0  0  0  0  0  0  0  0
   -0.7520    0.7050   -0.6580 C   0  0  0  0  0  0  0  0  0  0  0  0
    0.5610    0.0420   -0.7240 C   0  0  0  0  0  0  0  0  0  0  0  0
    0.6030   -0.9620   -1.5250 O   0  0  0  0  0  0  0  0  0  0  0  0
    1.7010    0.3250   -0.0840 O   0  0  0  0  0  0  0  0  0  0  0  0
    2.9310   -0.3050   -0.1540 C   0  0  0  0  0  0  0  0  0  0  0  0
    3.2710   -1.3420   -0.8750 C   0  0  0  0  0  0  0  0  0  0  0  0
    4.7000   -1.6430   -0.6060 C   0  0  0  0  0  0  0  0  0  0  0  0
    5.1340   -0.6330    0.3710 C   0  0  0  0  0  0  0  0  0  0  0  0
    4.1010    0.1380    0.6270 C   0  0  0  0  0  0  0  0  0  0  0  0
    4.1490    1.4880    1.7410 Cl  0  0  0  0  0  0  0  0  0  0  0  0
   -1.8760    0.0960   -1.4280 C   0  0  1  0  0  0  0  0  0  0  0  0
   -2.2340   -1.1600   -0.8080 C   0  0  0  0  0  0  0  0  0  0  0  0
   -2.0390   -2.4610   -0.9210 C   0  0  0  0  0  0  0  0  0  0  0  0
   -2.5800   -3.3760   -0.0970 C   0  0  0  0  0  0  0  0  0  0  0  0
   -3.3840   -2.9400    0.9250 C   0  0  0  0  0  0  0  0  0  0  0  0
   -3.3460   -1.1200    0.6690 S   0  0  0  0  0  0  0  0  0  0  0  0
   -2.9710    0.9740   -1.6110 N   0  0  0  0  0  0  0  0  0  0  0  0
   -3.2060    2.0800   -0.7690 C   0  0  0  0  0  0  0  0  0  0  0  0
   -4.3400    2.6740   -0.8370 O   0  0  0  0  0  0  0  0  0  0  0  0
   -2.1990    2.4890    0.1080 N   0  0  0  0  0  0  0  0  0  0  0  0
  1  2  1  0
  2  3  1  0
  3  4  2  0
  3 23  1  0
  4  5  1  0
  4 14  1  0
  5  6  2  0
  5  7  1  0
  7  8  1  0
  8  9  2  0
  8 12  1  0
  9 10  1  0
 10 11  1  0
 11 12  2  0
 12 13  1  0
 14 15  1  1
 14 20  1  0
 15 16  2  0
 15 19  1  0
 16 17  1  0
 17 18  2  0
 18 19  1  0
 20 21  1  0
 21 22  2  0
 21 23  1  0
M  END
