
     RDKit          3D

 23 25  0  0  0  0  0  0  0  0999 V2000
    4.2660    1.4750    1.7680 C   0  0  0  0  0  0  0  0  0  0  0  0
    4.6410    0.0560    1.4350 C   0  0  0  0  0  0  0  0  0  0  0  0
    3.5460   -0.8170    1.3250 O   0  0  0  0  0  0  0  0  0  0  0  0
    2.5270   -0.6420    0.3840 C   0  0  0  0  0  0  0  0  0  0  0  0
    2.5220    0.3990   -0.5190 C   0  0  0  0  0  0  0  0  0  0  0  0
    1.4760    0.5330   -1.4460 C   0  0  0  0  0  0  0  0  0  0  0  0
    0.4440   -0.3680   -1.4670 C   0  0  0  0  0  0  0  0  0  0  0  0
   -0.6640   -0.2790   -2.4050 C   0  0  0  0  0  0  0  0  0  0  0  0
   -0.5780   -0.3530   -4.1650 S   0  0  0  0  0  0  0  0  0  0  0  0
   -2.4350   -0.1530   -4.3630 N   0  0  0  0  0  0  0  0  0  0  0  0
   -2.7430   -0.0780   -3.2720 N   0  0  0  0  0  0  0  0  0  0  0  0
   -1.9960   -0.1220   -2.1880 C   0  0  0  0  0  0  0  0  0  0  0  0
   -2.5370   -0.0100   -0.8140 C   0  0  0  0  0  0  0  0  0  0  0  0
   -2.2010    1.0220    0.0350 C   0  0  0  0  0  0  0  0  0  0  0  0
   -2.7150    1.1110    1.3140 C   0  0  0  0  0  0  0  0  0  0  0  0
   -2.2610    2.4390    2.3580 Cl  0  0  0  0  0  0  0  0  0  0  0  0
   -3.5910    0.1620    1.7950 C   0  0  0  0  0  0  0  0  0  0  0  0
   -4.1240    0.2280    3.0820 O   0  0  0  0  0  0  0  0  0  0  0  0
   -3.9370   -0.8770    0.9590 C   0  0  0  0  0  0  0  0  0  0  0  0
   -3.4130   -0.9600   -0.3340 C   0  0  0  0  0  0  0  0  0  0  0  0
   -3.7880   -2.0150   -1.1300 O   0  0  0  0  0  0  0  0  0  0  0  0
    0.4730   -1.3940   -0.5610 C   0  0  0  0  0  0  0  0  0  0  0  0
    1.4830   -1.5470    0.3540 C   0  0  0  0  0  0  0  0  0  0  0  0
  1  2  1  0
  2  3  1  0
  3  4  1  0
  4  5  2  0
  4 23  1  0
  5  6  1  0
  6  7  2  0
  7  8  1  0
  7 22  1  0
  8  9  1  0
  8 12  2  0
  9 10  1  0
 10 11  2  0
 11 12  1  0
 12 13  1  0
 13 14  2  0
 13 20  1  0
 14 15  1  0
 15 16  1  0
 15 17  2  0
 17 18  1  0
 17 19  1  0
 19 20  2  0
 20 21  1  0
 22 23  2  0
M  END
