
     RDKit          3D

 17 18  0  0  0  0  0  0  0  0999 V2000
   -4.9480    1.5740    1.8740 O   0  0  0  0  0  0  0  0  0  0  0  0
   -4.1700    1.0020    1.0770 C   0  0  0  0  0  0  0  0  0  0  0  0
   -2.7880    0.9860    1.2270 C   0  0  0  0  0  0  0  0  0  0  0  0
   -1.9680    0.3490    0.3350 C   0  0  0  0  0  0  0  0  0  0  0  0
   -0.5270    0.3320    0.4900 C   0  0  0  0  0  0  0  0  0  0  0  0
    0.2050   -0.2790   -0.3720 N   0  0  0  0  0  0  0  0  0  0  0  0
    1.6060   -0.3120   -0.2480 C   0  0  0  0  0  0  0  0  0  0  0  0
    2.3490    0.6890   -0.8220 C   0  0  0  0  0  0  0  0  0  0  0  0
    3.7170    0.6870   -0.7190 C   0  0  0  0  0  0  0  0  0  0  0  0
    4.3690   -0.3080   -0.0450 C   0  0  0  0  0  0  0  0  0  0  0  0
    5.7750   -0.3200    0.0660 O   0  0  0  0  0  0  0  0  0  0  0  0
    3.6300   -1.3180    0.5340 C   0  0  0  0  0  0  0  0  0  0  0  0
    2.2540   -1.3310    0.4410 C   0  0  0  0  0  0  0  0  0  0  0  0
   -2.5420   -0.2910   -0.7360 C   0  0  0  0  0  0  0  0  0  0  0  0
   -1.7610   -0.9520   -1.6700 O   0  0  0  0  0  0  0  0  0  0  0  0
   -3.9340   -0.2650   -0.8700 C   0  0  0  0  0  0  0  0  0  0  0  0
   -4.6990    0.3690    0.0230 N   0  0  0  0  0  0  0  0  0  0  0  0
  1  2  2  0
  2  3  1  0
  2 17  1  0
  3  4  2  0
  4  5  1  0
  4 14  1  0
  5  6  2  3
  6  7  1  0
  7  8  2  0
  7 13  1  0
  8  9  1  0
  9 10  2  0
 10 11  1  0
 10 12  1  0
 12 13  2  0
 14 15  1  0
 14 16  2  0
 16 17  1  0
M  END
