
     RDKit          3D

 17 18  0  0  0  0  0  0  0  0999 V2000
    4.4270   -1.5960   -0.6460 C   0  0  0  0  0  0  0  0  0  0  0  0
    3.6830   -0.2820   -0.4980 C   0  0  0  0  0  0  0  0  0  0  0  0
    2.2240   -0.4960   -0.4750 N   0  0  0  0  0  0  0  0  0  0  0  0
    1.4200    0.5710   -0.0950 C   0  0  0  0  0  0  0  0  0  0  0  0
    2.1010    1.8230    0.2260 N   0  0  0  0  0  0  0  0  0  0  0  0
    0.1140    0.6050    0.0160 C   0  0  0  0  0  0  0  0  0  0  0  0
   -0.4730    1.8950    0.4540 C   0  0  0  0  0  0  0  0  0  0  0  0
    0.1130    2.9360   -0.0180 O   0  0  0  0  0  0  0  0  0  0  0  0
   -1.6060    2.1070    1.3380 C   0  0  0  0  0  0  0  0  0  0  0  0
   -2.5490    1.1100    1.4860 O   0  0  0  0  0  0  0  0  0  0  0  0
   -3.0070    0.0750    0.6750 C   0  0  0  0  0  0  0  0  0  0  0  0
   -4.2420   -0.3370    0.5280 C   0  0  0  0  0  0  0  0  0  0  0  0
   -4.2710   -1.4680   -0.4380 C   0  0  0  0  0  0  0  0  0  0  0  0
   -2.8530   -1.6260   -0.8090 C   0  0  0  0  0  0  0  0  0  0  0  0
   -2.1350   -0.7300   -0.1620 C   0  0  0  0  0  0  0  0  0  0  0  0
   -0.6530   -0.6020   -0.2990 C   0  0  0  0  0  0  0  0  0  0  0  0
   -0.0600   -1.6080   -0.7120 O   0  0  0  0  0  0  0  0  0  0  0  0
  1  2  1  0
  2  3  1  0
  3  4  1  0
  4  5  1  0
  4  6  2  3
  6  7  1  0
  6 16  1  0
  7  8  2  0
  7  9  1  0
  9 10  1  0
 10 11  1  0
 11 12  2  0
 11 15  1  0
 12 13  1  0
 13 14  1  0
 14 15  2  0
 15 16  1  0
 16 17  2  0
M  END
