
     RDKit          3D

 17 18  0  0  0  0  0  0  0  0999 V2000
    3.8720   -0.5880    1.5010 C   0  0  0  0  0  0  0  0  0  0  0  0
    3.0080   -0.7370    0.4310 C   0  0  0  0  0  0  0  0  0  0  0  0
    1.6960   -0.3120    0.6820 C   0  0  0  0  0  0  0  0  0  0  0  0
    0.5950   -0.3140   -0.0210 C   0  0  0  0  0  0  0  0  0  0  0  0
    0.2290   -0.7520   -1.3480 C   0  0  0  0  0  0  0  0  0  0  0  0
    0.9380   -1.3150   -2.1970 O   0  0  0  0  0  0  0  0  0  0  0  0
   -1.1690   -0.4490   -1.6120 N   0  0  0  0  0  0  0  0  0  0  0  0
   -1.6760    0.1750   -0.4550 C   0  0  0  0  0  0  0  0  0  0  0  0
   -0.6970    0.2760    0.4920 C   0  0  0  0  0  0  0  0  0  0  0  0
   -1.0230    0.8680    1.7000 C   0  0  0  0  0  0  0  0  0  0  0  0
   -2.2420    1.3360    1.9680 N   0  0  0  0  0  0  0  0  0  0  0  0
   -3.2160    1.2450    1.0490 C   0  0  0  0  0  0  0  0  0  0  0  0
   -4.3830    1.6910    1.2990 O   0  0  0  0  0  0  0  0  0  0  0  0
   -2.9540    0.6700   -0.1660 C   0  0  0  0  0  0  0  0  0  0  0  0
   -4.0190    0.5580   -1.2020 C   0  0  0  0  0  0  0  0  0  0  0  0
    3.5720   -1.2900   -0.7920 C   0  0  0  0  0  0  0  0  0  0  0  0
    3.5180   -0.4840   -1.9030 O   0  0  0  0  0  0  0  0  0  0  0  0
  1  2  2  0
  2  3  1  0
  2 16  1  0
  3  4  2  3
  4  5  1  0
  4  9  1  0
  5  6  2  0
  5  7  1  0
  7  8  1  0
  8  9  1  0
  8 14  2  0
  9 10  2  0
 10 11  1  0
 11 12  1  0
 12 13  2  0
 12 14  1  0
 14 15  1  0
 16 17  1  0
M  END
