
     RDKit          3D

 17 18  0  0  0  0  0  0  0  0999 V2000
    5.4310   -0.0300    0.8470 C   0  0  0  0  0  0  0  0  0  0  0  0
    4.5210    0.4520    0.0300 C   0  0  0  0  0  0  0  0  0  0  0  0
    3.2910   -0.2400   -0.2010 C   0  0  0  0  0  0  0  0  0  0  0  0
    3.0000   -1.3490    0.3540 N   0  0  0  0  0  0  0  0  0  0  0  0
    2.3460    0.2780   -1.0590 O   0  0  0  0  0  0  0  0  0  0  0  0
    0.9810    0.2560   -0.8580 C   0  0  0  0  0  0  0  0  0  0  0  0
    0.1630    0.8230   -1.8410 C   0  0  0  0  0  0  0  0  0  0  0  0
   -1.1940    0.8720   -1.7750 C   0  0  0  0  0  0  0  0  0  0  0  0
   -1.8180    0.3310   -0.6720 C   0  0  0  0  0  0  0  0  0  0  0  0
   -3.2080    0.3740   -0.5900 C   0  0  0  0  0  0  0  0  0  0  0  0
   -3.8170   -0.1730    0.5220 C   0  0  0  0  0  0  0  0  0  0  0  0
   -5.2440   -0.1510    0.6470 N   0  0  0  0  0  0  0  0  0  0  0  0
   -3.0090   -0.7250    1.4760 C   0  0  0  0  0  0  0  0  0  0  0  0
   -3.5760   -1.2270    2.4970 O   0  0  0  0  0  0  0  0  0  0  0  0
   -1.6860   -0.7460    1.3610 O   0  0  0  0  0  0  0  0  0  0  0  0
   -1.0630   -0.2420    0.3290 C   0  0  0  0  0  0  0  0  0  0  0  0
    0.3280   -0.2730    0.2250 C   0  0  0  0  0  0  0  0  0  0  0  0
  1  2  2  0
  2  3  1  0
  3  4  2  0
  3  5  1  0
  5  6  1  0
  6  7  2  0
  6 17  1  0
  7  8  1  0
  8  9  2  0
  9 10  1  0
  9 16  1  0
 10 11  2  0
 11 12  1  0
 11 13  1  0
 13 14  2  0
 13 15  1  0
 15 16  1  0
 16 17  2  0
M  END
