
     RDKit          3D

 17 18  0  0  0  0  0  0  0  0999 V2000
   -1.2230    2.9140    0.6280 C   0  0  0  0  0  0  0  0  0  0  0  0
   -0.5210    1.8770    0.2740 C   0  0  0  0  0  0  0  0  0  0  0  0
   -1.1370    0.5680    0.0630 C   0  0  0  0  0  0  0  0  0  0  0  0
   -0.3670   -0.4620   -0.3000 C   0  0  0  0  0  0  0  0  0  0  0  0
    1.0300   -0.2580   -0.4710 N   0  0  0  0  0  0  0  0  0  0  0  0
    1.5220   -0.0830   -1.7090 C   0  0  0  0  0  0  0  0  0  0  0  0
    0.7550   -0.0970   -2.7160 O   0  0  0  0  0  0  0  0  0  0  0  0
    2.8060    0.1080   -1.9010 O   0  0  0  0  0  0  0  0  0  0  0  0
    3.6780    0.1390   -0.9170 C   0  0  0  0  0  0  0  0  0  0  0  0
    3.2590   -0.0330    0.3840 C   0  0  0  0  0  0  0  0  0  0  0  0
    4.1510   -0.0100    1.4880 N   0  0  0  0  0  0  0  0  0  0  0  0
    1.8910   -0.2340    0.5690 C   0  0  0  0  0  0  0  0  0  0  0  0
    1.4630   -0.3940    1.7310 O   0  0  0  0  0  0  0  0  0  0  0  0
   -0.9570   -1.7800   -0.5190 C   0  0  0  0  0  0  0  0  0  0  0  0
   -2.4430   -1.7560   -0.7000 C   0  0  0  0  0  0  0  0  0  0  0  0
   -3.0330   -0.9530    0.4480 C   0  0  0  0  0  0  0  0  0  0  0  0
   -2.6030    0.4660    0.2710 C   0  0  0  0  0  0  0  0  0  0  0  0
  1  2  2  0
  2  3  1  0
  3  4  2  0
  3 17  1  0
  4  5  1  0
  4 14  1  0
  5  6  1  0
  5 12  1  0
  6  7  2  0
  6  8  1  0
  8  9  1  0
  9 10  2  0
 10 11  1  0
 10 12  1  0
 12 13  2  0
 14 15  1  0
 15 16  1  0
 16 17  1  0
M  END
