
     RDKit          3D

 17 18  0  0  0  0  0  0  0  0999 V2000
    3.9900    2.0690   -0.6730 C   0  0  0  0  0  0  0  0  0  0  0  0
    3.0800    1.9010    0.2510 C   0  0  0  0  0  0  0  0  0  0  0  0
    2.3440    0.6580    0.3330 C   0  0  0  0  0  0  0  0  0  0  0  0
    2.6030   -0.4490   -0.6230 C   0  0  0  0  0  0  0  0  0  0  0  0
    1.4250    0.4780    1.2590 C   0  0  0  0  0  0  0  0  0  0  0  0
    1.1630    1.5150    2.1760 N   0  0  0  0  0  0  0  0  0  0  0  0
    0.7060   -0.7410    1.3370 N   0  0  0  0  0  0  0  0  0  0  0  0
   -0.5070   -0.8430    0.6160 C   0  0  0  0  0  0  0  0  0  0  0  0
   -1.2390   -2.0070    0.6620 C   0  0  0  0  0  0  0  0  0  0  0  0
   -2.4320   -2.1240   -0.0390 C   0  0  0  0  0  0  0  0  0  0  0  0
   -3.1470   -3.3060    0.0260 O   0  0  0  0  0  0  0  0  0  0  0  0
   -2.8760   -1.0660   -0.7800 C   0  0  0  0  0  0  0  0  0  0  0  0
   -2.1720    0.1100   -0.8490 C   0  0  0  0  0  0  0  0  0  0  0  0
   -1.0010    0.1940   -0.1470 C   0  0  0  0  0  0  0  0  0  0  0  0
   -2.8660    0.9700   -1.6620 O   0  0  0  0  0  0  0  0  0  0  0  0
   -4.2120    0.5450   -1.6890 C   0  0  0  0  0  0  0  0  0  0  0  0
   -4.0180   -0.8770   -1.5810 O   0  0  0  0  0  0  0  0  0  0  0  0
  1  2  2  0
  2  3  1  0
  3  4  1  0
  3  5  2  3
  5  6  1  0
  5  7  1  0
  7  8  1  0
  8  9  2  0
  8 14  1  0
  9 10  1  0
 10 11  1  0
 10 12  2  0
 12 13  1  0
 12 17  1  0
 13 14  2  0
 13 15  1  0
 15 16  1  0
 16 17  1  0
M  END
