
     RDKit          3D

 17 18  0  0  0  0  0  0  0  0999 V2000
    5.4840    0.3020   -0.7290 C   0  0  0  0  0  0  0  0  0  0  0  0
    4.2530    0.7060   -0.1990 O   0  0  0  0  0  0  0  0  0  0  0  0
    3.5950   -0.1380    0.6850 C   0  0  0  0  0  0  0  0  0  0  0  0
    4.0480   -1.2370    1.0290 O   0  0  0  0  0  0  0  0  0  0  0  0
    2.3510    0.3080    1.2000 N   0  0  0  0  0  0  0  0  0  0  0  0
    1.2760   -0.0560    0.6090 C   0  0  0  0  0  0  0  0  0  0  0  0
    0.0120    0.4350    1.1860 C   0  0  0  0  0  0  0  0  0  0  0  0
   -1.1520    0.1110    0.6430 C   0  0  0  0  0  0  0  0  0  0  0  0
   -2.2450    0.7380    1.4200 C   0  0  0  0  0  0  0  0  0  0  0  0
   -3.5590    0.0200    1.2530 C   0  0  0  0  0  0  0  0  0  0  0  0
   -4.1470    0.1620   -0.1120 C   0  0  0  0  0  0  0  0  0  0  0  0
   -3.5840   -0.8950   -0.9450 N   0  0  0  0  0  0  0  0  0  0  0  0
   -2.2100   -1.1600   -1.1990 C   0  0  0  0  0  0  0  0  0  0  0  0
   -1.1430   -0.7410   -0.5330 C   0  0  0  0  0  0  0  0  0  0  0  0
    0.1060   -1.2390   -1.1200 C   0  0  0  0  0  0  0  0  0  0  0  0
    1.2500   -0.9140   -0.5780 C   0  0  0  0  0  0  0  0  0  0  0  0
    2.4830   -1.3550   -1.0880 O   0  0  0  0  0  0  0  0  0  0  0  0
  1  2  1  0
  2  3  1  0
  3  4  2  0
  3  5  1  0
  5  6  2  3
  6  7  1  0
  6 16  1  0
  7  8  2  0
  8  9  1  0
  8 14  1  0
  9 10  1  0
 10 11  1  0
 11 12  1  0
 12 13  1  0
 13 14  2  0
 14 15  1  0
 15 16  2  0
 16 17  1  0
M  END
