
     RDKit          3D

 17 18  0  0  0  0  0  0  0  0999 V2000
   -2.3630   -2.4080    1.1590 O   0  0  0  0  0  0  0  0  0  0  0  0
   -2.4770   -1.2160    0.7970 C   0  0  0  0  0  0  0  0  0  0  0  0
   -3.7350   -0.8090    0.3280 C   0  0  0  0  0  0  0  0  0  0  0  0
   -4.1560    0.4460   -0.0490 C   0  0  0  0  0  0  0  0  0  0  0  0
   -3.4190    1.5640   -0.1400 N   0  0  0  0  0  0  0  0  0  0  0  0
   -2.0610    1.7000   -0.1230 C   0  0  0  0  0  0  0  0  0  0  0  0
   -1.5760    2.8070   -0.4320 O   0  0  0  0  0  0  0  0  0  0  0  0
   -1.0820    0.7480    0.2020 C   0  0  0  0  0  0  0  0  0  0  0  0
    0.2460    1.0310   -0.1760 N   0  0  0  0  0  0  0  0  0  0  0  0
    1.3720    0.2180   -0.1150 C   0  0  0  0  0  0  0  0  0  0  0  0
    1.2730   -1.1480   -0.1600 C   0  0  0  0  0  0  0  0  0  0  0  0
    2.4650   -1.8760   -0.0620 C   0  0  0  0  0  0  0  0  0  0  0  0
    3.6930   -1.2690    0.0730 C   0  0  0  0  0  0  0  0  0  0  0  0
    3.7950    0.0920    0.1170 C   0  0  0  0  0  0  0  0  0  0  0  0
    5.0440    0.6790    0.2530 O   0  0  0  0  0  0  0  0  0  0  0  0
    2.6340    0.8150    0.0220 C   0  0  0  0  0  0  0  0  0  0  0  0
   -1.3600   -0.4150    0.8930 C   0  0  0  0  0  0  0  0  0  0  0  0
  1  2  2  0
  2  3  1  0
  2 17  1  0
  3  4  2  0
  4  5  1  0
  5  6  1  0
  6  7  2  0
  6  8  1  0
  8  9  1  0
  8 17  2  0
  9 10  1  0
 10 11  2  0
 10 16  1  0
 11 12  1  0
 12 13  2  0
 13 14  1  0
 14 15  1  0
 14 16  2  0
M  END
