
     RDKit          3D

 17 17  0  0  0  0  0  0  0  0999 V2000
    4.1230    0.0020    1.5060 N   0  0  0  0  0  0  0  0  0  0  0  0
    3.3160    0.6890    0.4840 C   0  0  0  0  0  0  0  0  0  0  0  0
    2.2380   -0.2000    0.1530 N   0  0  0  0  0  0  0  0  0  0  0  0
    1.3880   -0.5520    1.2160 C   0  0  0  0  0  0  0  0  0  0  0  0
    0.0890    0.1920    1.2880 C   0  0  0  0  0  0  0  0  0  0  0  0
   -0.5050    0.3020   -0.0130 N   0  0  0  0  0  0  0  0  0  0  0  0
   -1.9210    0.0700   -0.1180 C   0  0  0  0  0  0  0  0  0  0  0  0
   -2.3090   -1.2780   -0.5100 C   0  0  0  0  0  0  0  0  0  0  0  0
   -1.4400   -2.2420   -0.7590 C   0  0  0  0  0  0  0  0  0  0  0  0
   -2.0310   -3.9690   -1.2630 Br  0  0  0  0  0  0  0  0  0  0  0  0
   -2.7610    1.0320    0.1310 C   0  0  0  0  0  0  0  0  0  0  0  0
   -4.2210    0.8870    0.0490 C   0  0  2  0  0  0  0  0  0  0  0  0
   -4.8820   -0.4510    1.2810 Br  0  0  0  0  0  0  0  0  0  0  0  0
   -4.7960    0.4020   -1.7360 Br  0  0  0  0  0  0  0  0  0  0  0  0
   -5.1130    2.5600    0.5070 Br  0  0  0  0  0  0  0  0  0  0  0  0
    0.3180    0.6340   -1.1420 C   0  0  0  0  0  0  0  0  0  0  0  0
    1.6600   -0.0160   -1.1180 C   0  0  0  0  0  0  0  0  0  0  0  0
  1  2  1  0
  2  3  1  0
  3  4  1  0
  3 17  1  0
  4  5  1  0
  5  6  1  0
  6  7  1  0
  6 16  1  0
  7  8  1  0
  7 11  2  3
  8  9  2  3
  9 10  1  0
 11 12  1  0
 12 13  1  1
 12 14  1  0
 12 15  1  0
 16 17  1  0
M  END
