
     RDKit          3D

 12 13  0  0  0  0  0  0  0  0999 V2000
   -1.5630   -1.7870    0.5080 C   0  0  0  0  0  0  0  0  0  0  0  0
   -1.2340   -0.3810    0.6300 N   0  0  2  0  0  0  0  0  0  0  0  0
   -2.4260    0.3610    0.2680 C   0  0  0  0  0  0  0  0  0  0  0  0
   -2.0260    1.6200   -0.4140 C   0  0  0  0  0  0  0  0  0  0  0  0
   -0.5470    1.5470   -0.5780 C   0  0  0  0  0  0  0  0  0  0  0  0
   -0.2640    0.0700   -0.3290 C   0  0  1  0  0  0  0  0  0  0  0  0
    1.1360   -0.0630    0.0510 C   0  0  0  0  0  0  0  0  0  0  0  0
    1.6450   -1.1960    0.6670 C   0  0  0  0  0  0  0  0  0  0  0  0
    2.9860   -1.2070    0.9730 C   0  0  0  0  0  0  0  0  0  0  0  0
    3.8110   -0.1400    0.6840 C   0  0  0  0  0  0  0  0  0  0  0  0
    3.2930    0.9480    0.0860 N   0  0  0  0  0  0  0  0  0  0  0  0
    1.9940    1.0090   -0.2320 C   0  0  0  0  0  0  0  0  0  0  0  0
  2  1  1  6
  2  3  1  0
  2  6  1  0
  3  4  1  0
  4  5  1  0
  5  6  1  0
  6  7  1  1
  7  8  2  0
  7 12  1  0
  8  9  1  0
  9 10  2  0
 10 11  1  0
 11 12  2  0
M  CHG  1   2   1
M  END
