
     RDKit          3D

 13 13  0  0  0  0  0  0  0  0999 V2000
   -3.0970   -1.0980    0.6790 C   0  0  0  0  0  0  0  0  0  0  0  0
   -1.8100   -0.4580    0.3330 C   0  0  0  0  0  0  0  0  0  0  0  0
   -0.7630   -1.2010    0.0980 C   0  0  0  0  0  0  0  0  0  0  0  0
    0.5700   -0.7210   -0.2530 C   0  0  0  0  0  0  0  0  0  0  0  0
    1.3510   -1.3980   -1.1980 C   0  0  0  0  0  0  0  0  0  0  0  0
    2.5500   -0.7200   -1.3230 C   0  0  0  0  0  0  0  0  0  0  0  0
    2.4410    0.3420   -0.4440 C   0  0  0  0  0  0  0  0  0  0  0  0
    3.4990    1.3800   -0.2140 C   0  0  1  0  0  0  0  0  0  0  0  0
    2.8670    2.9370   -0.8130 Cl  0  0  0  0  0  0  0  0  0  0  0  0
    3.9120    1.5200    1.5020 Cl  0  0  0  0  0  0  0  0  0  0  0  0
    1.2730    0.2900    0.1470 O   0  0  0  0  0  0  0  0  0  0  0  0
   -1.7390    1.0110    0.2550 C   0  0  0  0  0  0  0  0  0  0  0  0
   -2.6430    1.4940   -0.7230 O   0  0  0  0  0  0  0  0  0  0  0  0
  1  2  1  0
  2  3  2  3
  2 12  1  0
  3  4  1  0
  4  5  2  0
  4 11  1  0
  5  6  1  0
  6  7  2  0
  7  8  1  0
  7 11  1  0
  8  9  1  1
  8 10  1  0
 12 13  1  0
M  END
