
     RDKit          3D

 17 17  0  0  0  0  0  0  0  0999 V2000
    4.0580    0.1220    0.3270 C   0  0  0  0  0  0  0  0  0  0  0  0
    3.5200   -1.2600    0.5520 C   0  0  0  0  0  0  0  0  0  0  0  0
    2.1920   -1.1940    1.1750 N   0  0  0  0  0  0  0  0  0  0  0  0
    1.1290   -0.5260    0.5000 C   0  0  0  0  0  0  0  0  0  0  0  0
   -0.1350   -0.3920    0.9580 N   0  0  0  0  0  0  0  0  0  0  0  0
   -0.8980    0.2760    0.1160 C   0  0  0  0  0  0  0  0  0  0  0  0
   -2.3110    0.5610    0.0240 C   0  0  0  0  0  0  0  0  0  0  0  0
   -2.8590    1.8520   -0.3390 C   0  0  0  0  0  0  0  0  0  0  0  0
   -2.3710    2.9940   -0.6130 C   0  0  0  0  0  0  0  0  0  0  0  0
   -0.5660    3.5300   -0.6510 Br  0  0  0  0  0  0  0  0  0  0  0  0
   -3.6560    4.4060   -1.0610 Br  0  0  0  0  0  0  0  0  0  0  0  0
   -3.1740   -0.3930    0.3150 C   0  0  0  0  0  0  0  0  0  0  0  0
   -2.8320   -1.7350    0.7250 C   0  0  1  0  0  0  0  0  0  0  0  0
   -4.4810   -2.8120    0.6120 Br  0  0  0  0  0  0  0  0  0  0  0  0
   -1.5710   -2.5460   -0.5040 Br  0  0  0  0  0  0  0  0  0  0  0  0
   -0.0430    0.5830   -0.9580 C   0  0  0  0  0  0  0  0  0  0  0  0
    1.1910    0.0790   -0.6880 N   0  0  0  0  0  0  0  0  0  0  0  0
  1  2  1  0
  2  3  1  0
  3  4  1  0
  4  5  1  0
  4 17  2  0
  5  6  1  0
  6  7  1  0
  6 16  2  0
  7  8  1  0
  7 12  2  3
  8  9  2  3
  9 10  1  0
  9 11  1  0
 12 13  1  0
 13 14  1  6
 13 15  1  0
 16 17  1  0
M  CHG  1  17   1
M  END
