
     RDKit          3D

 13 13  0  0  0  0  0  0  0  0999 V2000
    3.8580    0.7290    0.6690 C   0  0  0  0  0  0  0  0  0  0  0  0
    2.7110   -0.1930    0.6700 C   0  0  0  0  0  0  0  0  0  0  0  0
    1.9710   -0.3650   -0.4020 C   0  0  0  0  0  0  0  0  0  0  0  0
    0.8840   -1.2230   -0.4430 O   0  0  0  0  0  0  0  0  0  0  0  0
   -0.3890   -0.7020   -0.3400 C   0  0  0  0  0  0  0  0  0  0  0  0
   -1.4790   -1.5850   -0.3830 C   0  0  0  0  0  0  0  0  0  0  0  0
   -2.7780   -1.1390   -0.2860 C   0  0  0  0  0  0  0  0  0  0  0  0
   -3.8360   -2.0540   -0.3340 O   0  0  0  0  0  0  0  0  0  0  0  0
   -3.0760    0.2050   -0.1410 C   0  0  0  0  0  0  0  0  0  0  0  0
   -4.7430    0.7500   -0.0190 Cl  0  0  0  0  0  0  0  0  0  0  0  0
   -2.0170    1.0750   -0.0970 C   0  0  0  0  0  0  0  0  0  0  0  0
   -0.7020    0.6270   -0.1950 C   0  0  0  0  0  0  0  0  0  0  0  0
    0.6360    1.7690   -0.1360 Cl  0  0  0  0  0  0  0  0  0  0  0  0
  1  2  1  0
  2  3  2  3
  3  4  1  0
  4  5  1  0
  5  6  2  0
  5 12  1  0
  6  7  1  0
  7  8  1  0
  7  9  2  0
  9 10  1  0
  9 11  1  0
 11 12  2  0
 12 13  1  0
M  END
