
     RDKit          3D

 46 48  0  0  0  0  0  0  0  0999 V2000
    4.1700   -3.1840    1.9450 C   0  0  0  0  0  0  0  0  0  0  0  0
    3.5490   -2.4460    0.8670 N   0  0  0  0  0  0  0  0  0  0  0  0
    4.2600   -2.0640   -0.2350 C   0  0  0  0  0  0  0  0  0  0  0  0
    5.4790   -2.4310   -0.2000 O   0  0  0  0  0  0  0  0  0  0  0  0
    3.7410   -1.3880   -1.2440 N   0  0  0  0  0  0  0  0  0  0  0  0
    4.4740   -0.9040   -2.3820 C   0  0  0  0  0  0  0  0  0  0  0  0
    4.8140    0.5250   -2.3890 C   0  0  0  0  0  0  0  0  0  0  0  0
    5.6470    1.0430   -1.2980 C   0  0  0  0  0  0  0  0  0  0  0  0
    6.1520    0.3420   -0.4080 O   0  0  0  0  0  0  0  0  0  0  0  0
    5.9200    2.4450   -1.2150 N   0  0  0  0  0  0  0  0  0  0  0  0
    6.7010    3.0910   -0.2370 C   0  0  0  0  0  0  0  0  0  0  0  0
    8.1440    2.7370   -0.1310 C   0  0  2  0  0  0  0  0  0  0  0  0
    8.7960    2.9300   -1.3640 O   0  0  0  0  0  0  0  0  0  0  0  0
    8.5070    1.4570    0.4480 C   0  0  0  0  0  0  0  0  0  0  0  0
    8.1100    1.0950    1.7700 N   0  0  0  0  0  0  0  0  0  0  0  0
    9.1980    0.5950   -0.1860 O   0  0  0  0  0  0  0  0  0  0  0  0
    2.4250   -1.0380   -1.2170 C   0  0  0  0  0  0  0  0  0  0  0  0
    1.8880   -0.3980   -2.1520 O   0  0  0  0  0  0  0  0  0  0  0  0
    1.6760   -1.3940   -0.1470 C   0  0  0  0  0  0  0  0  0  0  0  0
    0.3230   -1.0440   -0.0890 C   0  0  0  0  0  0  0  0  0  0  0  0
   -0.4640   -1.3830    0.9820 C   0  0  0  0  0  0  0  0  0  0  0  0
   -1.9010   -1.0360    1.1220 C   0  0  1  0  0  0  0  0  0  0  0  0
   -2.0040    0.2300    1.8760 C   0  0  2  0  0  0  0  0  0  0  0  0
   -3.3370    0.6590    2.0590 O   0  0  0  0  0  0  0  0  0  0  0  0
   -1.1020    1.3490    1.5030 C   0  0  0  0  0  0  0  0  0  0  0  0
   -1.7180    2.6330    2.0630 C   0  0  0  0  0  0  0  0  0  0  0  0
   -1.9920    3.6430    1.0200 C   0  0  0  0  0  0  0  0  0  0  0  0
   -1.0610    3.9320    0.1940 O   0  0  0  0  0  0  0  0  0  0  0  0
   -3.2230    4.3340    0.8540 N   0  0  0  0  0  0  0  0  0  0  0  0
   -4.5140    3.7490    0.8610 C   0  0  0  0  0  0  0  0  0  0  0  0
   -5.5010    4.3450    1.7580 N   0  0  0  0  0  0  0  0  0  0  0  0
   -4.8770    2.7220    0.1020 C   0  0  0  0  0  0  0  0  0  0  0  0
   -6.2310    2.2600    0.2460 N   0  0  0  0  0  0  0  0  0  0  0  0
   -4.0250    2.0300   -0.8780 C   0  0  0  0  0  0  0  0  0  0  0  0
   -4.2680    0.5120   -0.9160 C   0  0  0  0  0  0  0  0  0  0  0  0
   -2.9560   -0.2040   -1.0720 C   0  0  0  0  0  0  0  0  0  0  0  0
   -2.6820   -1.1970   -0.0580 N   0  0  0  0  0  0  0  0  0  0  0  0
   -3.2700   -2.4980   -0.2730 C   0  0  0  0  0  0  0  0  0  0  0  0
   -3.0860   -3.4190    0.5570 O   0  0  0  0  0  0  0  0  0  0  0  0
   -4.1000   -2.8170   -1.4480 C   0  0  0  0  0  0  0  0  0  0  0  0
   -4.5820   -4.1630   -1.4540 N   0  0  1  0  0  0  0  0  0  0  0  0
   -5.7820   -4.2160   -0.6170 C   0  0  0  0  0  0  0  0  0  0  0  0
   -5.0210   -4.5250   -2.8060 C   0  0  0  0  0  0  0  0  0  0  0  0
    0.1550   -2.0880    1.9950 C   0  0  0  0  0  0  0  0  0  0  0  0
    1.4800   -2.4560    1.9880 C   0  0  0  0  0  0  0  0  0  0  0  0
    2.2510   -2.1000    0.8940 C   0  0  0  0  0  0  0  0  0  0  0  0
  1  2  1  0
  2  3  1  0
  2 46  1  0
  3  4  2  0
  3  5  1  0
  5  6  1  0
  5 17  1  0
  6  7  1  0
  7  8  1  0
  8  9  2  0
  8 10  1  0
 10 11  1  0
 11 12  1  0
 12 13  1  6
 12 14  1  0
 14 15  1  0
 14 16  2  0
 17 18  2  0
 17 19  1  0
 19 20  2  0
 19 46  1  0
 20 21  1  0
 22 21  1  6
 21 44  2  0
 22 23  1  0
 22 37  1  0
 23 24  1  6
 23 25  1  0
 25 26  1  0
 26 27  1  0
 27 28  2  0
 27 29  1  0
 29 30  1  0
 30 31  1  0
 30 32  2  0
 32 33  1  0
 32 34  1  0
 34 35  1  0
 35 36  1  0
 36 37  1  0
 37 38  1  0
 38 39  2  0
 38 40  1  0
 40 41  1  0
 41 42  1  1
 41 43  1  0
 44 45  1  0
 45 46  2  0
M  CHG  2  31   1  41   1
M  END
