
     RDKit          3D

 46 48  0  0  0  0  0  0  0  0999 V2000
   -3.3630    2.6180    4.1470 C   0  0  0  0  0  0  0  0  0  0  0  0
   -4.2450    1.7040    3.5660 O   0  0  0  0  0  0  0  0  0  0  0  0
   -3.9340    1.6290    2.1790 C   0  0  0  0  0  0  0  0  0  0  0  0
   -4.8840    0.6460    1.5640 C   0  0  1  0  0  0  0  0  0  0  0  0
   -6.2580    1.1750    1.8200 N   0  0  0  0  0  0  0  0  0  0  0  0
   -4.7930    0.4940    0.0860 C   0  0  1  0  0  0  0  0  0  0  0  0
   -5.0930    1.8380   -0.5820 C   0  0  0  0  0  0  0  0  0  0  0  0
   -5.0110    1.7570   -2.0710 C   0  0  0  0  0  0  0  0  0  0  0  0
   -5.9460    0.8080   -2.5140 O   0  0  0  0  0  0  0  0  0  0  0  0
   -3.4520   -0.0290   -0.3650 C   0  0  2  0  0  0  0  0  0  0  0  0
   -3.1470   -1.3820    0.2190 C   0  0  0  0  0  0  0  0  0  0  0  0
   -3.2180   -2.4940   -0.7670 C   0  0  0  0  0  0  0  0  0  0  0  0
   -4.4740   -2.8830   -1.2210 C   0  0  0  0  0  0  0  0  0  0  0  0
   -4.6570   -3.9120   -2.1360 C   0  0  0  0  0  0  0  0  0  0  0  0
   -3.5790   -4.5960   -2.6340 C   0  0  0  0  0  0  0  0  0  0  0  0
   -2.3350   -4.2200   -2.1930 C   0  0  0  0  0  0  0  0  0  0  0  0
   -2.1520   -3.1810   -1.2690 C   0  0  0  0  0  0  0  0  0  0  0  0
   -0.7170   -2.9150   -0.8940 C   0  0  0  0  0  0  0  0  0  0  0  0
    0.1240   -3.2270   -2.0270 N   0  0  0  0  0  0  0  0  0  0  0  0
    1.4210   -3.7550   -2.0100 C   0  0  0  0  0  0  0  0  0  0  0  0
    1.6400   -4.8120   -2.7150 O   0  0  0  0  0  0  0  0  0  0  0  0
    2.5200   -3.2170   -1.2770 N   0  0  0  0  0  0  0  0  0  0  0  0
    2.9370   -1.8370   -1.3070 C   0  0  0  0  0  0  0  0  0  0  0  0
    2.8740   -1.2200    0.0740 C   0  0  0  0  0  0  0  0  0  0  0  0
    2.7910    0.2620    0.0580 C   0  0  2  0  0  0  0  0  0  0  0  0
    2.9350    0.8350   -1.3590 C   0  0  0  0  0  0  0  0  0  0  0  0
    3.8150    0.9270    0.8450 N   0  0  0  0  0  0  0  0  0  0  0  0
    5.1900    0.8070    0.6030 C   0  0  0  0  0  0  0  0  0  0  0  0
    5.4980    0.0640   -0.3760 O   0  0  0  0  0  0  0  0  0  0  0  0
    6.2660    1.4380    1.3460 C   0  0  0  0  0  0  0  0  0  0  0  0
    7.5600    1.3370    0.8180 C   0  0  0  0  0  0  0  0  0  0  0  0
    8.6640    1.9020    1.4170 C   0  0  0  0  0  0  0  0  0  0  0  0
   10.0030    1.7930    0.8510 C   0  0  0  0  0  0  0  0  0  0  0  0
   10.1890    1.0940   -0.3620 N   0  0  0  0  0  0  0  0  0  0  0  0
   10.9540    2.3320    1.4710 O   0  0  0  0  0  0  0  0  0  0  0  0
    8.4380    2.5770    2.5710 N   0  0  0  0  0  0  0  0  0  0  0  0
    7.2410    2.6790    3.0750 N   0  0  0  0  0  0  0  0  0  0  0  0
    6.1360    2.1340    2.5080 C   0  0  0  0  0  0  0  0  0  0  0  0
    5.0210    2.2710    3.0480 O   0  0  0  0  0  0  0  0  0  0  0  0
    1.4410    0.7350    0.5390 C   0  0  0  0  0  0  0  0  0  0  0  0
    1.1650    0.3310    1.7300 O   0  0  0  0  0  0  0  0  0  0  0  0
    0.6030    1.4990   -0.1840 O   0  0  0  0  0  0  0  0  0  0  0  0
   -0.3320    1.2330   -1.1740 C   0  0  0  0  0  0  0  0  0  0  0  0
   -1.6660    1.7280   -0.6670 C   0  0  0  0  0  0  0  0  0  0  0  0
   -1.8850    2.9590   -0.9090 O   0  0  0  0  0  0  0  0  0  0  0  0
   -2.4870    0.8940   -0.0310 O   0  0  0  0  0  0  0  0  0  0  0  0
  1  2  1  0
  2  3  1  0
  3  4  1  0
  4  5  1  6
  4  6  1  0
  6  7  1  6
  6 10  1  0
  7  8  1  0
  8  9  1  0
 10 11  1  1
 10 46  1  0
 11 12  1  0
 12 13  2  0
 12 17  1  0
 13 14  1  0
 14 15  2  0
 15 16  1  0
 16 17  2  0
 17 18  1  0
 18 19  1  0
 19 20  1  0
 20 21  2  0
 20 22  1  0
 22 23  1  0
 23 24  1  0
 24 25  1  0
 25 26  1  6
 25 27  1  0
 25 40  1  0
 27 28  1  0
 28 29  2  0
 28 30  1  0
 30 31  2  0
 30 38  1  0
 31 32  1  0
 32 33  1  0
 32 36  2  0
 33 34  1  0
 33 35  2  0
 36 37  1  0
 37 38  1  0
 38 39  2  0
 40 41  2  0
 40 42  1  0
 42 43  1  0
 43 44  1  0
 44 45  2  0
 44 46  1  0
M  CHG  1   5   1
M  END
