
     RDKit          3D

 46 49  0  0  0  0  0  0  0  0999 V2000
   -1.5400   -0.4470   -4.9830 C   0  0  0  0  0  0  0  0  0  0  0  0
   -2.0510   -0.9710   -3.5890 C   0  0  1  0  0  0  0  0  0  0  0  0
   -1.9250   -2.4930   -3.9460 C   0  0  0  0  0  0  0  0  0  0  0  0
   -0.9940   -0.4880   -2.6700 C   0  0  0  0  0  0  0  0  0  0  0  0
   -1.2930   -0.5290   -1.2150 C   0  0  2  0  0  0  0  0  0  0  0  0
   -2.4410    0.3950   -1.0190 N   0  0  0  0  0  0  0  0  0  0  0  0
   -2.8500    0.9050    0.1970 C   0  0  0  0  0  0  0  0  0  0  0  0
   -2.2780    0.6080    1.2890 O   0  0  0  0  0  0  0  0  0  0  0  0
   -3.9420    1.7980    0.2980 N   0  0  0  0  0  0  0  0  0  0  0  0
   -4.3770    2.3040    1.5930 C   0  0  2  0  0  0  0  0  0  0  0  0
   -5.1070    1.1060    2.1630 C   0  0  0  0  0  0  0  0  0  0  0  0
   -6.4210    0.6840    1.6070 N   0  0  0  0  0  0  0  0  0  0  0  0
   -4.6370    0.4440    3.0530 O   0  0  0  0  0  0  0  0  0  0  0  0
   -4.8840    3.6080    1.7550 C   0  0  1  0  0  0  0  0  0  0  0  0
   -6.0680    3.9290    1.1470 O   0  0  0  0  0  0  0  0  0  0  0  0
   -4.8420    4.0980    3.2180 C   0  0  0  0  0  0  0  0  0  0  0  0
   -5.8450    3.5190    4.0370 N   0  0  0  0  0  0  0  0  0  0  0  0
   -0.2970   -0.3540   -0.2310 C   0  0  0  0  0  0  0  0  0  0  0  0
   -0.0740   -0.2040    0.8860 O   0  0  0  0  0  0  0  0  0  0  0  0
    1.2400   -0.2930   -1.1350 N   0  0  0  0  0  0  0  0  0  0  0  0
    2.0180   -0.6100    0.0430 C   0  0  0  0  0  0  0  0  0  0  0  0
    1.9600   -0.9280    1.1230 O   0  0  0  0  0  0  0  0  0  0  0  0
    3.4120   -0.4420   -0.6580 N   0  0  0  0  0  0  0  0  0  0  0  0
    4.1630    0.3340    0.6140 C   0  0  0  0  0  0  0  0  0  0  0  0
    3.3540    0.7300    1.5190 O   0  0  0  0  0  0  0  0  0  0  0  0
    5.5480    0.4990    0.6980 C   0  0  0  0  0  0  0  0  0  0  0  0
    6.1200    0.2420    1.9800 C   0  0  0  0  0  0  0  0  0  0  0  0
    7.4500    0.4820    1.8550 C   0  0  0  0  0  0  0  0  0  0  0  0
    7.7020    0.8510    0.6040 N   0  0  0  0  0  0  0  0  0  0  0  0
    6.5890    0.8650   -0.1150 N   0  0  0  0  0  0  0  0  0  0  0  0
    9.1410    1.0690    0.1790 C   0  0  1  0  0  0  0  0  0  0  0  0
    9.2240    2.4780   -0.5020 C   0  0  0  0  0  0  0  0  0  0  0  0
   10.0490    1.1270    1.3000 C   0  0  0  0  0  0  0  0  0  0  0  0
   11.2430    1.6080    1.0850 O   0  0  0  0  0  0  0  0  0  0  0  0
    9.7600    0.6850    2.6240 N   0  0  0  0  0  0  0  0  0  0  0  0
    8.4060    0.3400    2.9780 C   0  0  0  0  0  0  0  0  0  0  0  0
    8.0980   -0.0150    4.0980 O   0  0  0  0  0  0  0  0  0  0  0  0
   -1.9260   -1.9210   -0.9090 C   0  0  0  0  0  0  0  0  0  0  0  0
   -3.2970   -2.0230   -0.9250 C   0  0  0  0  0  0  0  0  0  0  0  0
   -3.9160   -3.2260   -0.7600 C   0  0  0  0  0  0  0  0  0  0  0  0
   -3.0990   -4.3290   -0.5860 C   0  0  0  0  0  0  0  0  0  0  0  0
   -1.7590   -4.2150   -0.5750 C   0  0  0  0  0  0  0  0  0  0  0  0
   -1.1600   -2.9590   -0.7420 C   0  0  0  0  0  0  0  0  0  0  0  0
   -1.2960   -5.5370   -0.3750 O   0  0  0  0  0  0  0  0  0  0  0  0
   -2.3070   -6.3980   -0.8560 C   0  0  0  0  0  0  0  0  0  0  0  0
   -3.4980   -5.6900   -0.4110 O   0  0  0  0  0  0  0  0  0  0  0  0
  2  1  1  6
  2  3  1  0
  2  4  1  0
  5  4  1  6
  5  6  1  0
  5 18  1  0
  5 38  1  0
  6  7  1  0
  7  8  2  0
  7  9  1  0
 10  9  1  6
 10 11  1  0
 10 14  1  0
 11 12  1  0
 11 13  2  0
 14 15  1  1
 14 16  1  0
 16 17  1  0
 18 19  2  0
 18 20  1  0
 20 21  1  0
 21 22  2  0
 21 23  1  0
 23 24  1  0
 24 25  2  0
 24 26  1  0
 26 27  1  0
 26 30  2  0
 27 28  2  0
 28 29  1  0
 28 36  1  0
 29 30  1  0
 29 31  1  0
 31 32  1  1
 31 33  1  0
 33 34  2  0
 33 35  1  0
 35 36  1  0
 36 37  2  0
 38 39  2  0
 38 43  1  0
 39 40  1  0
 40 41  2  0
 41 42  1  0
 41 46  1  0
 42 43  2  0
 42 44  1  0
 44 45  1  0
 45 46  1  0
M  CHG  1  17   1
M  END
