
     RDKit          3D

 47 51  0  0  0  0  0  0  0  0999 V2000
    4.0400   -4.3190    0.3810 C   0  0  0  0  0  0  0  0  0  0  0  0
    3.0410   -3.3760   -0.2640 C   0  0  0  0  0  0  0  0  0  0  0  0
    3.7570   -2.0820   -0.6970 C   0  0  2  0  0  0  0  0  0  0  0  0
    4.3900   -1.3650    0.4440 C   0  0  0  0  0  0  0  0  0  0  0  0
    2.9660   -1.2820   -1.5780 N   0  0  0  0  0  0  0  0  0  0  0  0
    3.3790   -1.2640   -2.9890 C   0  0  0  0  0  0  0  0  0  0  0  0
    4.3480   -0.2010   -3.2800 C   0  0  0  0  0  0  0  0  0  0  0  0
    4.6340   -0.0080   -4.4970 O   0  0  0  0  0  0  0  0  0  0  0  0
    4.9730    0.6030   -2.3430 O   0  0  0  0  0  0  0  0  0  0  0  0
    5.8800    1.5850   -2.8030 C   0  0  0  0  0  0  0  0  0  0  0  0
    6.4730    2.3070   -1.6120 C   0  0  2  0  0  0  0  0  0  0  0  0
    7.2450    1.3100   -0.7420 C   0  0  0  0  0  0  0  0  0  0  0  0
    7.2350    2.0540    0.5750 C   0  0  0  0  0  0  0  0  0  0  0  0
    5.9500    2.8130    0.5080 C   0  0  0  0  0  0  0  0  0  0  0  0
    5.5600    2.9330   -0.8150 O   0  0  0  0  0  0  0  0  0  0  0  0
    1.8380   -0.5160   -1.2660 C   0  0  0  0  0  0  0  0  0  0  0  0
    1.2550    0.1130   -2.2230 O   0  0  0  0  0  0  0  0  0  0  0  0
    1.2450   -0.3550    0.0630 C   0  0  0  0  0  0  0  0  0  0  0  0
    0.0800    0.3860    0.3210 C   0  0  0  0  0  0  0  0  0  0  0  0
   -0.1430    0.2910    1.6770 C   0  0  0  0  0  0  0  0  0  0  0  0
   -1.2700    0.9180    2.3930 C   0  0  0  0  0  0  0  0  0  0  0  0
   -1.1960    2.3000    2.5940 C   0  0  0  0  0  0  0  0  0  0  0  0
   -2.1710    2.9990    3.2390 C   0  0  0  0  0  0  0  0  0  0  0  0
   -3.2640    2.3030    3.7040 C   0  0  0  0  0  0  0  0  0  0  0  0
   -3.3420    0.9440    3.5090 C   0  0  0  0  0  0  0  0  0  0  0  0
   -2.3560    0.2110    2.8530 C   0  0  0  0  0  0  0  0  0  0  0  0
   -2.4950   -1.2250    2.6930 C   0  0  1  0  0  0  0  0  0  0  0  0
   -3.6050   -1.7470    3.6610 C   0  0  0  0  0  0  0  0  0  0  0  0
   -2.7810   -1.7750    1.3420 C   0  0  0  0  0  0  0  0  0  0  0  0
   -4.0390   -1.3820    0.6980 C   0  0  0  0  0  0  0  0  0  0  0  0
   -5.1430   -2.1330    0.6610 O   0  0  0  0  0  0  0  0  0  0  0  0
   -6.0950   -1.5440    0.0290 N   0  0  0  0  0  0  0  0  0  0  0  0
   -5.6920   -0.3430   -0.4080 C   0  0  0  0  0  0  0  0  0  0  0  0
   -6.4440    0.6330   -1.1820 C   0  0  0  0  0  0  0  0  0  0  0  0
   -6.6360    1.9050   -0.7060 C   0  0  0  0  0  0  0  0  0  0  0  0
   -7.3680    2.8430   -1.4400 C   0  0  0  0  0  0  0  0  0  0  0  0
   -7.9150    2.5210   -2.6590 C   0  0  0  0  0  0  0  0  0  0  0  0
   -7.7060    1.2250   -3.1190 C   0  0  0  0  0  0  0  0  0  0  0  0
   -6.9860    0.2890   -2.4060 C   0  0  0  0  0  0  0  0  0  0  0  0
   -6.7990   -1.0860   -2.9650 C   0  0  0  0  0  0  0  0  0  0  0  0
   -4.3520   -0.2450    0.0330 C   0  0  0  0  0  0  0  0  0  0  0  0
   -3.5790    0.9520   -0.2670 C   0  0  0  0  0  0  0  0  0  0  0  0
   -3.5360    1.9770    0.4380 O   0  0  0  0  0  0  0  0  0  0  0  0
    0.8600   -0.4820    2.2130 C   0  0  0  0  0  0  0  0  0  0  0  0
    1.0430   -0.8580    3.6360 C   0  0  0  0  0  0  0  0  0  0  0  0
    2.0230   -1.5780    3.9450 O   0  0  0  0  0  0  0  0  0  0  0  0
    1.6190   -0.8150    1.2130 O   0  0  0  0  0  0  0  0  0  0  0  0
  1  2  1  0
  2  3  1  0
  3  4  1  1
  3  5  1  0
  5  6  1  0
  5 16  1  0
  6  7  1  0
  7  8  2  0
  7  9  1  0
  9 10  1  0
 11 10  1  6
 11 12  1  0
 11 15  1  0
 12 13  1  0
 13 14  1  0
 14 15  1  0
 16 17  2  0
 16 18  1  0
 18 19  2  0
 18 47  1  0
 19 20  1  0
 20 21  1  0
 20 44  2  0
 21 22  2  0
 21 26  1  0
 22 23  1  0
 23 24  2  0
 24 25  1  0
 25 26  2  0
 26 27  1  0
 27 28  1  1
 27 29  1  0
 29 30  1  0
 30 31  1  0
 30 41  2  0
 31 32  1  0
 32 33  2  0
 33 34  1  0
 33 41  1  0
 34 35  2  0
 34 39  1  0
 35 36  1  0
 36 37  2  0
 37 38  1  0
 38 39  2  0
 39 40  1  0
 41 42  1  0
 42 43  2  0
 44 45  1  0
 44 47  1  0
 45 46  2  0
M  END
