
     RDKit          3D

 47 51  0  0  0  0  0  0  0  0999 V2000
   -9.3810    1.6160   -0.9670 C   0  0  0  0  0  0  0  0  0  0  0  0
   -8.4240    0.8670   -1.5930 O   0  0  0  0  0  0  0  0  0  0  0  0
   -7.1240    1.0710   -1.1830 C   0  0  0  0  0  0  0  0  0  0  0  0
   -6.9560    0.7540    0.3030 C   0  0  0  0  0  0  0  0  0  0  0  0
   -5.6350    0.9380    0.8020 N   0  0  0  0  0  0  0  0  0  0  0  0
   -4.4230    0.3570    0.5390 C   0  0  0  0  0  0  0  0  0  0  0  0
   -3.8530   -0.8380    0.3540 C   0  0  0  0  0  0  0  0  0  0  0  0
   -4.7320   -1.9740    0.4340 C   0  0  0  0  0  0  0  0  0  0  0  0
   -4.4580   -3.4050    0.2590 C   0  0  0  0  0  0  0  0  0  0  0  0
   -5.9670   -1.7460    0.6990 O   0  0  0  0  0  0  0  0  0  0  0  0
   -2.4280   -0.7930    0.2220 C   0  0  0  0  0  0  0  0  0  0  0  0
   -1.9690    0.4790    0.4310 O   0  0  0  0  0  0  0  0  0  0  0  0
   -1.3870   -1.6120   -0.0420 N   0  0  0  0  0  0  0  0  0  0  0  0
   -1.3240   -2.9480   -0.5240 C   0  0  0  0  0  0  0  0  0  0  0  0
   -0.7710   -3.9140    0.5220 C   0  0  0  0  0  0  0  0  0  0  0  0
    0.6860   -3.5140    0.7200 C   0  0  2  0  0  0  0  0  0  0  0  0
    1.4220   -3.7980   -0.3830 O   0  0  0  0  0  0  0  0  0  0  0  0
    2.3740   -4.7590   -0.1020 C   0  0  0  0  0  0  0  0  0  0  0  0
    2.0750   -5.1750    1.3070 C   0  0  0  0  0  0  0  0  0  0  0  0
    1.1780   -4.2670    1.8100 O   0  0  0  0  0  0  0  0  0  0  0  0
    0.6980   -2.0790    1.1680 C   0  0  1  0  0  0  0  0  0  0  0  0
    2.0550   -1.5760    1.5590 C   0  0  0  0  0  0  0  0  0  0  0  0
    0.0170   -1.1030    0.2950 C   0  0  1  0  0  0  0  0  0  0  0  0
    0.6780   -0.6520   -0.9390 C   0  0  0  0  0  0  0  0  0  0  0  0
    1.9870   -0.1740   -0.6120 O   0  0  0  0  0  0  0  0  0  0  0  0
    2.8400    0.3310   -1.5590 C   0  0  0  0  0  0  0  0  0  0  0  0
    2.4840    0.3840   -2.7530 O   0  0  0  0  0  0  0  0  0  0  0  0
    4.1770    0.8160   -1.1900 C   0  0  0  0  0  0  0  0  0  0  0  0
    4.6310    0.7930    0.0910 C   0  0  0  0  0  0  0  0  0  0  0  0
    5.9070    1.2550    0.4150 C   0  0  0  0  0  0  0  0  0  0  0  0
    6.7680    1.7560   -0.5530 C   0  0  0  0  0  0  0  0  0  0  0  0
    6.3280    1.7910   -1.8650 C   0  0  0  0  0  0  0  0  0  0  0  0
    7.0460    2.2590   -2.8440 C   0  0  0  0  0  0  0  0  0  0  0  0
    8.3700    2.8400   -2.9770 C   0  0  0  0  0  0  0  0  0  0  0  0
    6.3390    2.1970   -4.2190 C   0  0  0  0  0  0  0  0  0  0  0  0
    5.0250    1.3100   -2.1460 C   0  0  0  0  0  0  0  0  0  0  0  0
    7.9590    2.1690   -0.1790 C   0  0  0  0  0  0  0  0  0  0  0  0
    8.4480    2.1340    1.2290 C   0  0  0  0  0  0  0  0  0  0  0  0
    7.6750    1.6710    2.1760 C   0  0  0  0  0  0  0  0  0  0  0  0
    6.3560    1.2080    1.7960 C   0  0  0  0  0  0  0  0  0  0  0  0
    5.5460    0.7440    2.6590 O   0  0  0  0  0  0  0  0  0  0  0  0
   -5.5040    2.0220    1.8250 C   0  0  0  0  0  0  0  0  0  0  0  0
   -5.6380    1.7100    3.1410 C   0  0  0  0  0  0  0  0  0  0  0  0
   -5.5100    2.7480    4.0950 C   0  0  0  0  0  0  0  0  0  0  0  0
   -5.2590    4.0430    3.7000 C   0  0  0  0  0  0  0  0  0  0  0  0
   -5.1310    4.3160    2.3430 C   0  0  0  0  0  0  0  0  0  0  0  0
   -5.2550    3.2920    1.3930 C   0  0  0  0  0  0  0  0  0  0  0  0
  1  2  1  0
  2  3  1  0
  3  4  1  0
  4  5  1  0
  5  6  1  0
  5 42  1  0
  6  7  2  3
  7  8  1  0
  7 11  1  0
  8  9  1  0
  8 10  2  0
 11 12  2  0
 11 13  1  0
 13 14  1  0
 13 23  1  0
 14 15  1  0
 16 15  1  6
 16 17  1  0
 16 20  1  0
 16 21  1  0
 17 18  1  0
 18 19  1  0
 19 20  1  0
 21 22  1  6
 21 23  1  0
 23 24  1  6
 24 25  1  0
 25 26  1  0
 26 27  2  0
 26 28  1  0
 28 29  1  0
 28 36  2  0
 29 30  2  0
 30 31  1  0
 30 40  1  0
 31 32  1  0
 31 37  2  0
 32 33  2  3
 32 36  1  0
 33 34  1  0
 33 35  1  0
 37 38  1  0
 38 39  2  0
 39 40  1  0
 40 41  2  0
 42 43  2  0
 42 47  1  0
 43 44  1  0
 44 45  2  0
 45 46  1  0
 46 47  2  0
M  END
