
     RDKit          3D

 46 48  0  0  0  0  0  0  0  0999 V2000
    6.3420    3.2160    0.8610 C   0  0  0  0  0  0  0  0  0  0  0  0
    6.7250    1.8690    0.2480 C   0  0  0  0  0  0  0  0  0  0  0  0
    5.5030    1.3000   -0.3370 N   0  0  0  0  0  0  0  0  0  0  0  0
    4.4280    1.0690    0.5290 C   0  0  0  0  0  0  0  0  0  0  0  0
    4.5770    1.3780    1.7630 O   0  0  0  0  0  0  0  0  0  0  0  0
    3.1450    0.4990    0.0950 C   0  0  1  0  0  0  0  0  0  0  0  0
    2.8680    0.3890   -1.3390 C   0  0  2  0  0  0  0  0  0  0  0  0
    3.7970   -0.4970   -2.1010 C   0  0  0  0  0  0  0  0  0  0  0  0
    2.8780    1.7350   -2.0570 C   0  0  0  0  0  0  0  0  0  0  0  0
    2.9120   -0.8510    0.7890 C   0  0  0  0  0  0  0  0  0  0  0  0
    3.6760   -1.9600    0.4000 N   0  0  0  0  0  0  0  0  0  0  0  0
    3.0810   -3.1850   -0.0690 C   0  0  0  0  0  0  0  0  0  0  0  0
    3.5560   -3.5970   -1.1980 O   0  0  0  0  0  0  0  0  0  0  0  0
    2.0530   -3.9560    0.5810 C   0  0  0  0  0  0  0  0  0  0  0  0
    2.0280   -5.2070    0.1750 O   0  0  0  0  0  0  0  0  0  0  0  0
    1.0920   -3.6580    1.5400 N   0  0  0  0  0  0  0  0  0  0  0  0
   -0.1060   -2.9390    1.5580 C   0  0  0  0  0  0  0  0  0  0  0  0
   -0.1390   -1.9320    2.3620 O   0  0  0  0  0  0  0  0  0  0  0  0
   -1.3500   -3.1530    0.7990 C   0  0  2  0  0  0  0  0  0  0  0  0
   -2.2310   -4.2040    1.5170 C   0  0  0  0  0  0  0  0  0  0  0  0
   -1.5570   -5.5210    1.6580 C   0  0  0  0  0  0  0  0  0  0  0  0
   -1.1550   -3.6810   -0.5770 C   0  0  0  0  0  0  0  0  0  0  0  0
   -2.4260   -3.9910   -1.1080 O   0  0  0  0  0  0  0  0  0  0  0  0
   -2.1680   -1.9780    0.7340 N   0  0  0  0  0  0  0  0  0  0  0  0
   -1.7890   -0.6280    0.8810 C   0  0  0  0  0  0  0  0  0  0  0  0
   -2.4360    0.0500    1.7510 O   0  0  0  0  0  0  0  0  0  0  0  0
   -0.7370    0.0610    0.1460 C   0  0  0  0  0  0  0  0  0  0  0  0
   -1.0310    1.2550   -0.6540 C   0  0  2  0  0  0  0  0  0  0  0  0
   -2.1530    2.0620   -0.0400 C   0  0  0  0  0  0  0  0  0  0  0  0
   -1.8630    3.1530    0.5010 O   0  0  0  0  0  0  0  0  0  0  0  0
   -3.4820    1.6380   -0.0590 N   0  0  0  0  0  0  0  0  0  0  0  0
   -4.5820    2.3210    0.4930 C   0  0  0  0  0  0  0  0  0  0  0  0
   -5.8810    1.9250    0.1270 C   0  0  0  0  0  0  0  0  0  0  0  0
   -7.0160    2.5030    0.6070 C   0  0  0  0  0  0  0  0  0  0  0  0
   -6.8920    3.5520    1.5180 C   0  0  0  0  0  0  0  0  0  0  0  0
   -8.0630    4.1230    1.9900 O   0  0  0  0  0  0  0  0  0  0  0  0
   -5.6500    3.9810    1.9110 C   0  0  0  0  0  0  0  0  0  0  0  0
   -5.5180    5.0170    2.8100 O   0  0  0  0  0  0  0  0  0  0  0  0
   -4.5330    3.3510    1.3870 C   0  0  0  0  0  0  0  0  0  0  0  0
   -1.2690    1.0490   -2.1190 C   0  0  2  0  0  0  0  0  0  0  0  0
   -2.2760    0.1750   -2.6830 C   0  0  0  0  0  0  0  0  0  0  0  0
   -0.7610   -0.0940   -2.9010 C   0  0  0  0  0  0  0  0  0  0  0  0
    0.1550    2.1310   -0.5710 N   0  0  0  0  0  0  0  0  0  0  0  0
    1.1840    2.1890    0.3390 C   0  0  0  0  0  0  0  0  0  0  0  0
    1.2930    3.3750    0.9190 O   0  0  0  0  0  0  0  0  0  0  0  0
    2.1450    1.3200    0.8060 N   0  0  0  0  0  0  0  0  0  0  0  0
  1  2  1  0
  2  3  1  0
  3  4  1  0
  4  5  2  0
  6  4  1  6
  6  7  1  0
  6 10  1  0
  6 46  1  0
  7  8  1  6
  7  9  1  0
 10 11  1  0
 11 12  1  0
 12 13  2  0
 12 14  1  0
 14 15  2  0
 14 16  1  0
 16 17  1  0
 17 18  2  0
 17 19  1  0
 19 20  1  1
 19 22  1  0
 19 24  1  0
 20 21  1  0
 22 23  1  0
 24 25  1  0
 25 26  2  0
 25 27  1  0
 27 28  1  0
 28 29  1  1
 28 40  1  0
 28 43  1  0
 29 30  2  0
 29 31  1  0
 31 32  1  0
 32 33  2  0
 32 39  1  0
 33 34  1  0
 34 35  2  0
 35 36  1  0
 35 37  1  0
 37 38  1  0
 37 39  2  0
 40 41  1  1
 40 42  1  0
 41 42  1  0
 43 44  1  0
 44 45  2  0
 44 46  1  0
M  END
