
     RDKit          3D

 12 11  0  0  0  0  0  0  0  0999 V2000
    0.5080    1.0100   -1.2600 N   0  0  0  0  0  0  0  0  0  0  0  0
   -0.0380    0.2490   -0.1350 C   0  0  2  0  0  0  0  0  0  0  0  0
    0.6150   -0.9530   -0.0950 O   0  0  0  0  0  0  0  0  0  0  0  0
    1.2700   -1.0590    1.0260 O   0  0  0  0  0  0  0  0  0  0  0  0
    2.0030    0.0460    1.1810 O   0  0  0  0  0  0  0  0  0  0  0  0
    3.2590   -0.1710    0.8910 O   0  0  0  0  0  0  0  0  0  0  0  0
   -1.5200    0.1230   -0.3840 C   0  0  2  0  0  0  0  0  0  0  0  0
   -1.8050   -0.7350   -1.9300 Cl  0  0  0  0  0  0  0  0  0  0  0  0
   -2.1440    1.7930   -0.6220 Cl  0  0  0  0  0  0  0  0  0  0  0  0
   -2.2580   -0.4660    0.7310 C   0  0  0  0  0  0  0  0  0  0  0  0
   -1.7030   -0.8090    1.7440 O   0  0  0  0  0  0  0  0  0  0  0  0
   -3.9820   -0.6800    0.5990 Cl  0  0  0  0  0  0  0  0  0  0  0  0
  2  1  1  6
  2  3  1  0
  2  7  1  0
  3  4  1  0
  4  5  1  0
  5  6  1  0
  7  8  1  6
  7  9  1  0
  7 10  1  0
 10 11  2  0
 10 12  1  0
M  END
