
     RDKit          3D

 12 12  0  0  0  0  0  0  0  0999 V2000
   -3.5550   -0.1970    0.5890 O   0  0  0  0  0  0  0  0  0  0  0  0
   -2.3820   -0.2480    0.2640 C   0  0  0  0  0  0  0  0  0  0  0  0
   -1.4680   -1.7700    0.3590 S   0  0  0  0  0  0  0  0  0  0  0  0
    0.1770   -1.3680   -0.2070 C   0  0  0  0  0  0  0  0  0  0  0  0
    1.3360   -2.6640   -0.2350 Cl  0  0  0  0  0  0  0  0  0  0  0  0
    0.4600   -0.1460   -0.5740 C   0  0  0  0  0  0  0  0  0  0  0  0
    1.7670    0.0670   -0.9990 O   0  0  0  0  0  0  0  0  0  0  0  0
    2.8190    0.0700   -0.1830 O   0  0  0  0  0  0  0  0  0  0  0  0
    2.8820    1.1330    0.5580 O   0  0  0  0  0  0  0  0  0  0  0  0
   -0.3970    0.9200   -0.5790 O   0  0  0  0  0  0  0  0  0  0  0  0
   -1.6900    0.8930   -0.2020 N   0  0  0  0  0  0  0  0  0  0  0  0
   -2.6010    2.3930   -0.2920 Cl  0  0  0  0  0  0  0  0  0  0  0  0
  1  2  2  0
  2  3  1  0
  2 11  1  0
  3  4  1  0
  4  5  1  0
  4  6  2  0
  6  7  1  0
  6 10  1  0
  7  8  1  0
  8  9  1  0
 10 11  1  0
 11 12  1  0
M  END
