
     RDKit          3D

 11 10  0  0  0  0  0  0  0  0999 V2000
    0.1930    2.3080    0.0890 C   0  0  0  0  0  0  0  0  0  0  0  0
    0.6450    0.9410    0.4260 C   0  0  0  0  0  0  0  0  0  0  0  0
   -0.2310    0.0850    0.9090 C   0  0  0  0  0  0  0  0  0  0  0  0
   -1.5630    0.4170    1.1140 O   0  0  0  0  0  0  0  0  0  0  0  0
   -2.5280   -0.3150    0.4970 N   0  0  0  0  0  0  0  0  0  0  0  0
   -2.9100   -1.4070    1.1520 O   0  0  0  0  0  0  0  0  0  0  0  0
   -2.2500   -0.4940   -0.7960 O   0  0  0  0  0  0  0  0  0  0  0  0
    2.3530    0.5230    0.1620 S   0  0  0  0  0  0  0  0  0  0  0  0
    2.6900   -1.0920    0.6070 O   0  0  0  0  0  0  0  0  0  0  0  0
    2.9910   -1.8300   -0.4530 O   0  0  0  0  0  0  0  0  0  0  0  0
    4.2640   -2.8940   -0.0870 Cl  0  0  0  0  0  0  0  0  0  0  0  0
  1  2  1  0
  2  3  2  3
  2  8  1  0
  3  4  1  0
  4  5  1  0
  5  6  1  0
  5  7  1  0
  8  9  1  0
  9 10  1  0
 10 11  1  0
M  END
