
     RDKit          3D

 12 11  0  0  0  0  0  0  0  0999 V2000
   -3.1250   -0.3540   -1.0130 O   0  0  0  0  0  0  0  0  0  0  0  0
   -2.2770   -0.1840   -0.0910 C   0  0  0  0  0  0  0  0  0  0  0  0
   -2.6230    0.7420    0.8900 O   0  0  0  0  0  0  0  0  0  0  0  0
   -1.0650   -0.8990   -0.0790 N   0  0  0  0  0  0  0  0  0  0  0  0
    0.0240   -0.2830    0.2220 C   0  0  0  0  0  0  0  0  0  0  0  0
    0.0060    1.0710    0.5310 O   0  0  0  0  0  0  0  0  0  0  0  0
    1.2900   -1.0580    0.2280 C   0  0  1  0  0  0  0  0  0  0  0  0
    1.9560   -0.9620    1.8730 Cl  0  0  0  0  0  0  0  0  0  0  0  0
    1.0170   -2.7060   -0.3050 Cl  0  0  0  0  0  0  0  0  0  0  0  0
    2.2030   -0.4450   -0.6210 O   0  0  0  0  0  0  0  0  0  0  0  0
    2.4000    0.7810   -0.1610 O   0  0  0  0  0  0  0  0  0  0  0  0
    4.0860    1.1200   -0.2050 Cl  0  0  0  0  0  0  0  0  0  0  0  0
  1  2  2  0
  2  3  1  0
  2  4  1  0
  4  5  2  3
  5  6  1  0
  5  7  1  0
  7  8  1  1
  7  9  1  0
  7 10  1  0
 10 11  1  0
 11 12  1  0
M  END
