
     RDKit          3D

 13 14  0  0  0  0  0  0  0  0999 V2000
   -3.0490   -0.1440    0.6790 N   0  0  0  0  0  0  0  0  0  0  0  0
   -2.4390   -0.8160   -0.4360 C   0  0  0  0  0  0  0  0  0  0  0  0
   -1.6170    0.0980   -1.2950 C   0  0  0  0  0  0  0  0  0  0  0  0
   -0.5120    0.7400   -0.5680 C   0  0  0  0  0  0  0  0  0  0  0  0
   -0.5060    2.0540   -0.1460 C   0  0  0  0  0  0  0  0  0  0  0  0
    0.6700    2.2620    0.4730 N   0  0  0  0  0  0  0  0  0  0  0  0
    1.4060    1.1330    0.4610 C   0  0  0  0  0  0  0  0  0  0  0  0
    2.6560    0.8120    0.9470 C   0  0  0  0  0  0  0  0  0  0  0  0
    3.1780   -0.4390    0.7940 C   0  0  0  0  0  0  0  0  0  0  0  0
    2.4540   -1.4010    0.1480 C   0  0  0  0  0  0  0  0  0  0  0  0
    2.9540   -2.6900   -0.0270 O   0  0  0  0  0  0  0  0  0  0  0  0
    1.2000   -1.1320   -0.3560 C   0  0  0  0  0  0  0  0  0  0  0  0
    0.6790    0.1460   -0.1950 C   0  0  0  0  0  0  0  0  0  0  0  0
  1  2  1  0
  2  3  1  0
  3  4  1  0
  4  5  2  0
  4 13  1  0
  5  6  1  0
  6  7  1  0
  7  8  2  0
  7 13  1  0
  8  9  1  0
  9 10  2  0
 10 11  1  0
 10 12  1  0
 12 13  2  0
M  CHG  1   1   1
M  END
