
     RDKit          3D

 14 14  0  0  0  0  0  0  0  0999 V2000
   -1.5180   -1.3160    0.8780 C   0  0  0  0  0  0  0  0  0  0  0  0
   -1.2400    0.1190    0.4770 C   0  0  2  0  0  0  0  0  0  0  0  0
   -2.1800    0.9150    1.0850 O   0  0  0  0  0  0  0  0  0  0  0  0
   -2.0740    2.1810    0.8370 O   0  0  0  0  0  0  0  0  0  0  0  0
   -1.2310    0.2320   -1.0290 C   0  0  0  0  0  0  0  0  0  0  0  0
   -0.8310   -0.9490   -1.6400 O   0  0  0  0  0  0  0  0  0  0  0  0
    0.4040   -1.3100   -1.3310 O   0  0  0  0  0  0  0  0  0  0  0  0
    1.4130   -0.7320   -0.6090 N   0  0  0  0  0  0  0  0  0  0  0  0
    1.2400    0.0610    0.3740 N   0  0  0  0  0  0  0  0  0  0  0  0
    2.3570    0.5590    0.9980 O   0  0  0  0  0  0  0  0  0  0  0  0
    3.6280    0.3790    0.5030 N   0  0  0  0  0  0  0  0  0  0  0  0
    4.6480    1.6310    1.1400 Cl  0  0  0  0  0  0  0  0  0  0  0  0
    4.2420   -1.2010    0.9480 Cl  0  0  0  0  0  0  0  0  0  0  0  0
    0.0630    0.5130    0.9290 O   0  0  0  0  0  0  0  0  0  0  0  0
  2  1  1  6
  2  3  1  0
  2  5  1  0
  2 14  1  0
  3  4  1  0
  5  6  1  0
  6  7  1  0
  7  8  1  0
  8  9  2  0
  9 10  1  0
  9 14  1  0
 10 11  1  0
 11 12  1  0
 11 13  1  0
M  CHG  1   9   1
M  END
