
     RDKit          3D

 11 10  0  0  0  0  0  0  0  0999 V2000
   -0.9350   -0.3830   -2.0190 O   0  0  0  0  0  0  0  0  0  0  0  0
   -0.8730   -0.3870   -0.7540 C   0  0  0  0  0  0  0  0  0  0  0  0
   -1.7910    0.4420   -0.1140 O   0  0  0  0  0  0  0  0  0  0  0  0
   -2.6740    1.1870   -0.8220 O   0  0  0  0  0  0  0  0  0  0  0  0
    0.1050   -1.2140   -0.0460 C   0  0  1  0  0  0  0  0  0  0  0  0
    0.9470   -2.2360   -1.2740 Cl  0  0  0  0  0  0  0  0  0  0  0  0
    1.0890   -0.4380    0.7310 C   0  0  0  0  0  0  0  0  0  0  0  0
    1.1620    0.8170    0.6950 N   0  0  0  0  0  0  0  0  0  0  0  0
    0.4490    1.7290    0.0180 O   0  0  0  0  0  0  0  0  0  0  0  0
    1.9840   -1.1320    1.5430 O   0  0  0  0  0  0  0  0  0  0  0  0
    3.5060   -0.4290    1.9810 Cl  0  0  0  0  0  0  0  0  0  0  0  0
  1  2  2  0
  2  3  1  0
  2  5  1  0
  3  4  1  0
  5  6  1  6
  5  7  1  0
  7  8  2  3
  7 10  1  0
  8  9  1  0
 10 11  1  0
M  END
