
     RDKit          3D

 12 12  0  0  0  0  0  0  0  0999 V2000
   -0.4230    2.6740   -0.2730 O   0  0  0  0  0  0  0  0  0  0  0  0
   -0.8650    1.5080   -0.1460 C   0  0  0  0  0  0  0  0  0  0  0  0
   -2.2090    1.1850   -0.1650 O   0  0  0  0  0  0  0  0  0  0  0  0
   -2.6740   -0.0480   -0.3220 O   0  0  0  0  0  0  0  0  0  0  0  0
   -1.8630   -1.0460    0.1300 C   0  0  0  0  0  0  0  0  0  0  0  0
   -0.4660   -0.7710    0.1560 N   0  0  0  0  0  0  0  0  0  0  0  0
    0.0680    0.4020    0.0330 C   0  0  0  0  0  0  0  0  0  0  0  0
    1.4370    0.6350    0.0640 O   0  0  0  0  0  0  0  0  0  0  0  0
    2.2710   -0.4170    0.4220 N   0  0  0  0  0  0  0  0  0  0  0  0
    2.9480   -0.2300    1.9790 Cl  0  0  0  0  0  0  0  0  0  0  0  0
    3.1430   -0.7170   -0.5390 O   0  0  0  0  0  0  0  0  0  0  0  0
    2.7880    0.1930   -1.9120 Cl  0  0  0  0  0  0  0  0  0  0  0  0
  1  2  2  0
  2  3  1  0
  2  7  1  0
  3  4  1  0
  4  5  1  0
  5  6  1  0
  6  7  2  0
  7  8  1  0
  8  9  1  0
  9 10  1  0
  9 11  1  0
 11 12  1  0
M  END
