
     RDKit          3D

 22 23  0  0  0  0  0  0  0  0999 V2000
   -5.2730   -1.8050   -1.7550 N   0  0  0  0  0  0  0  0  0  0  0  0
   -4.1370   -1.2600   -1.0540 C   0  0  0  0  0  0  0  0  0  0  0  0
   -3.3030   -2.0780   -0.3320 C   0  0  0  0  0  0  0  0  0  0  0  0
   -2.2080   -1.5070    0.3380 C   0  0  0  0  0  0  0  0  0  0  0  0
   -1.9350   -0.1630    0.3000 C   0  0  0  0  0  0  0  0  0  0  0  0
   -0.9000    0.3920    1.0840 N   0  0  0  0  0  0  0  0  0  0  0  0
    0.1950   -0.3350    1.6060 C   0  0  0  0  0  0  0  0  0  0  0  0
    0.3410   -1.5460    1.4040 O   0  0  0  0  0  0  0  0  0  0  0  0
    1.2280    0.3770    2.4390 C   0  0  0  0  0  0  0  0  0  0  0  0
    2.3700    1.3520    1.4950 S   0  0  0  0  0  0  0  0  0  0  0  0
    3.5040    0.4680    0.4750 C   0  0  0  0  0  0  0  0  0  0  0  0
    3.6230   -0.8340    0.4910 C   0  0  0  0  0  0  0  0  0  0  0  0
    4.5660   -1.5790   -0.3600 C   0  0  0  0  0  0  0  0  0  0  0  0
    5.3620   -0.7360   -1.1230 O   0  0  0  0  0  0  0  0  0  0  0  0
    5.2430    0.6430   -1.1500 C   0  0  0  0  0  0  0  0  0  0  0  0
    4.3690    1.2800   -0.4040 C   0  0  0  0  0  0  0  0  0  0  0  0
   -2.7710    0.6650   -0.4300 C   0  0  0  0  0  0  0  0  0  0  0  0
   -2.6220    1.9580   -0.5530 O   0  0  0  0  0  0  0  0  0  0  0  0
   -1.8640    3.0120   -0.3070 C   0  0  1  0  0  0  0  0  0  0  0  0
   -1.9000    3.9940   -1.3310 F   0  0  0  0  0  0  0  0  0  0  0  0
   -2.2080    3.7230    0.8640 F   0  0  0  0  0  0  0  0  0  0  0  0
   -3.8880    0.0740   -1.1080 C   0  0  0  0  0  0  0  0  0  0  0  0
  1  2  1  0
  2  3  2  0
  2 22  1  0
  3  4  1  0
  4  5  2  0
  5  6  1  0
  5 17  1  0
  6  7  1  0
  7  8  2  0
  7  9  1  0
  9 10  1  0
 10 11  1  0
 11 12  2  0
 11 16  1  0
 12 13  1  0
 13 14  1  0
 14 15  1  0
 15 16  2  0
 17 18  1  0
 17 22  2  0
 18 19  1  0
 19 20  1  6
 19 21  1  0
M  END
