
     RDKit          3D

 22 23  0  0  0  0  0  0  0  0999 V2000
   -4.5000   -0.2700   -2.3000 N   0  0  0  0  0  0  0  0  0  0  0  0
   -3.1140   -0.3310   -2.0120 C   0  0  0  0  0  0  0  0  0  0  0  0
   -2.3310   -0.2220   -3.0020 O   0  0  0  0  0  0  0  0  0  0  0  0
   -2.5970   -0.5080   -0.6660 C   0  0  0  0  0  0  0  0  0  0  0  0
   -3.4170   -0.6200    0.3590 C   0  0  0  0  0  0  0  0  0  0  0  0
   -2.9440   -0.7980    1.7170 C   0  0  0  0  0  0  0  0  0  0  0  0
   -3.8010   -0.9050    2.7060 C   0  0  0  0  0  0  0  0  0  0  0  0
   -5.1270   -0.8490    2.4500 F   0  0  0  0  0  0  0  0  0  0  0  0
   -3.3800   -1.0710    3.9810 F   0  0  0  0  0  0  0  0  0  0  0  0
   -1.2000   -0.5640   -0.4210 N   0  0  0  0  0  0  0  0  0  0  0  0
   -0.3800    0.5180   -0.7600 C   0  0  0  0  0  0  0  0  0  0  0  0
   -0.9460    1.5280   -1.2880 O   0  0  0  0  0  0  0  0  0  0  0  0
    1.0740    0.5730   -0.5540 C   0  0  0  0  0  0  0  0  0  0  0  0
    1.7550    1.7260   -0.9460 C   0  0  0  0  0  0  0  0  0  0  0  0
    3.1130    1.8450   -0.7830 C   0  0  0  0  0  0  0  0  0  0  0  0
    3.8020    0.7830   -0.2130 C   0  0  0  0  0  0  0  0  0  0  0  0
    3.1830   -0.3680    0.1880 C   0  0  0  0  0  0  0  0  0  0  0  0
    1.7910   -0.4340   -0.0040 C   0  0  0  0  0  0  0  0  0  0  0  0
    4.0200   -1.3760    0.7540 C   0  0  0  0  0  0  0  0  0  0  0  0
    3.7540   -2.6280    0.8250 O   0  0  0  0  0  0  0  0  0  0  0  0
    5.3040   -0.8650    1.2940 C   0  0  0  0  0  0  0  0  0  0  0  0
    5.5410    0.5700    0.1640 S   0  0  0  0  0  0  0  0  0  0  0  0
  1  2  1  0
  2  3  2  0
  2  4  1  0
  4  5  2  3
  4 10  1  0
  5  6  1  0
  6  7  2  3
  7  8  1  0
  7  9  1  0
 10 11  1  0
 11 12  2  0
 11 13  1  0
 13 14  2  0
 13 18  1  0
 14 15  1  0
 15 16  2  0
 16 17  1  0
 16 22  1  0
 17 18  2  0
 17 19  1  0
 19 20  2  0
 19 21  1  0
 21 22  1  0
M  END
