
     RDKit          3D

 21 22  0  0  0  0  0  0  0  0999 V2000
    4.9260    2.3790   -0.9630 C   0  0  0  0  0  0  0  0  0  0  0  0
    4.8350    1.1920   -0.0780 C   0  0  0  0  0  0  0  0  0  0  0  0
    5.8240    0.8440    0.6140 O   0  0  0  0  0  0  0  0  0  0  0  0
    3.6330    0.4250    0.0060 C   0  0  0  0  0  0  0  0  0  0  0  0
    2.1600    0.7890   -0.9040 S   0  0  0  0  0  0  0  0  0  0  0  0
    1.1490   -0.6270   -0.2330 C   0  0  0  0  0  0  0  0  0  0  0  0
   -0.2160   -0.8410   -0.6470 C   0  0  0  0  0  0  0  0  0  0  0  0
   -0.7880   -0.0870   -1.4770 O   0  0  0  0  0  0  0  0  0  0  0  0
   -0.9780   -1.9200   -0.1330 N   0  0  0  0  0  0  0  0  0  0  0  0
   -2.3410   -2.1590   -0.5270 C   0  0  0  0  0  0  0  0  0  0  0  0
   -3.2280   -1.0060   -0.2030 C   0  0  0  0  0  0  0  0  0  0  0  0
   -4.5750   -1.0050   -0.4890 C   0  0  0  0  0  0  0  0  0  0  0  0
   -5.0900    0.1970   -0.0640 C   0  0  0  0  0  0  0  0  0  0  0  0
   -4.0150    0.8910    0.4730 C   0  0  0  0  0  0  0  0  0  0  0  0
   -4.1170    2.2610    1.0600 C   0  0  2  0  0  0  0  0  0  0  0  0
   -4.9970    2.2170    2.1240 F   0  0  0  0  0  0  0  0  0  0  0  0
   -4.5300    3.1750    0.1170 F   0  0  0  0  0  0  0  0  0  0  0  0
   -2.9620    0.1270    0.3570 O   0  0  0  0  0  0  0  0  0  0  0  0
    2.0390   -1.1900    0.5840 C   0  0  0  0  0  0  0  0  0  0  0  0
    3.2710   -0.6940    0.7230 C   0  0  0  0  0  0  0  0  0  0  0  0
    4.2680   -1.2820    1.6050 N   0  0  0  0  0  0  0  0  0  0  0  0
  1  2  1  0
  2  3  2  0
  2  4  1  0
  4  5  1  0
  4 20  2  0
  5  6  1  0
  6  7  1  0
  6 19  2  0
  7  8  2  0
  7  9  1  0
  9 10  1  0
 10 11  1  0
 11 12  2  0
 11 18  1  0
 12 13  1  0
 13 14  2  0
 14 15  1  0
 14 18  1  0
 15 16  1  1
 15 17  1  0
 19 20  1  0
 20 21  1  0
M  END
