
     RDKit          3D

 12 12  0  0  0  0  0  0  0  0999 V2000
    2.7780   -0.8250   -0.6690 C   0  0  0  0  0  0  0  0  0  0  0  0
    1.4280   -0.2720   -0.3700 C   0  0  0  0  0  0  0  0  0  0  0  0
    0.4460   -1.0500    0.0320 C   0  0  0  0  0  0  0  0  0  0  0  0
   -0.9230   -0.5790    0.3500 C   0  0  1  0  0  0  0  0  0  0  0  0
   -1.9400   -1.2830   -0.5250 C   0  0  0  0  0  0  0  0  0  0  0  0
   -1.2070   -0.9880    1.7860 C   0  0  0  0  0  0  0  0  0  0  0  0
   -1.0630    0.8810    0.1620 C   0  0  0  0  0  0  0  0  0  0  0  0
   -2.1540    1.4640    0.3830 O   0  0  0  0  0  0  0  0  0  0  0  0
    0.0650    1.6860   -0.2850 C   0  0  0  0  0  0  0  0  0  0  0  0
   -0.1240    3.1200   -0.4550 C   0  0  0  0  0  0  0  0  0  0  0  0
    0.8020    3.8830   -0.8380 O   0  0  0  0  0  0  0  0  0  0  0  0
    1.2570    1.1750   -0.5460 C   0  0  0  0  0  0  0  0  0  0  0  0
  1  2  1  0
  2  3  2  0
  2 12  1  0
  3  4  1  0
  4  5  1  6
  4  6  1  0
  4  7  1  0
  7  8  2  0
  7  9  1  0
  9 10  1  0
  9 12  2  0
 10 11  2  0
M  END
