
     RDKit          3D

 22 23  0  0  0  0  0  0  0  0999 V2000
   -6.6300    0.3360   -0.3090 C   0  0  0  0  0  0  0  0  0  0  0  0
   -5.1030    0.5390   -0.2550 C   0  0  0  0  0  0  0  0  0  0  0  0
   -4.8240    1.7370   -0.3880 O   0  0  0  0  0  0  0  0  0  0  0  0
   -4.3020   -0.6150   -0.0720 C   0  0  0  0  0  0  0  0  0  0  0  0
   -3.0740   -0.9470    0.0210 C   0  0  0  0  0  0  0  0  0  0  0  0
   -1.8250   -0.2180   -0.0270 C   0  0  0  0  0  0  0  0  0  0  0  0
   -1.6860    1.0920   -0.3980 C   0  0  0  0  0  0  0  0  0  0  0  0
   -0.4390    1.6450   -0.3320 N   0  0  0  0  0  0  0  0  0  0  0  0
    0.6530    1.0120    0.0620 C   0  0  0  0  0  0  0  0  0  0  0  0
    1.7140    1.6800    0.0660 O   0  0  0  0  0  0  0  0  0  0  0  0
    0.5930   -0.3410    0.4570 C   0  0  0  0  0  0  0  0  0  0  0  0
    1.6240   -1.0770    0.9000 C   0  0  0  0  0  0  0  0  0  0  0  0
    3.0640   -0.7210    0.9420 C   0  0  0  0  0  0  0  0  0  0  0  0
    3.7510   -0.9410    1.9760 O   0  0  0  0  0  0  0  0  0  0  0  0
    3.7140   -0.1400   -0.1600 N   0  0  0  0  0  0  0  0  0  0  0  0
    5.1520    0.2140   -0.0700 C   0  0  0  0  0  0  0  0  0  0  0  0
    5.6060    0.8130   -1.3650 C   0  0  1  0  0  0  0  0  0  0  0  0
    4.8570    1.9540   -1.6150 F   0  0  0  0  0  0  0  0  0  0  0  0
    6.9410    1.1770   -1.1840 F   0  0  0  0  0  0  0  0  0  0  0  0
    1.3100   -2.3980    1.2780 C   0  0  0  0  0  0  0  0  0  0  0  0
   -0.4450   -2.5460    0.9830 S   0  0  0  0  0  0  0  0  0  0  0  0
   -0.6360   -0.8890    0.3960 C   0  0  0  0  0  0  0  0  0  0  0  0
  1  2  1  0
  2  3  2  0
  2  4  1  0
  4  5  2  3
  5  6  1  0
  6  7  2  0
  6 22  1  0
  7  8  1  0
  8  9  1  0
  9 10  2  0
  9 11  1  0
 11 12  1  0
 11 22  2  0
 12 13  1  0
 12 20  2  0
 13 14  2  0
 13 15  1  0
 15 16  1  0
 16 17  1  0
 17 18  1  1
 17 19  1  0
 20 21  1  0
 21 22  1  0
M  END
