
     RDKit          3D

 22 23  0  0  0  0  0  0  0  0999 V2000
    5.6000   -0.6100   -0.9410 N   0  0  0  0  0  0  0  0  0  0  0  0
    4.9390    0.0250    0.1640 C   0  0  0  0  0  0  0  0  0  0  0  0
    5.6590    0.3990    1.1200 O   0  0  0  0  0  0  0  0  0  0  0  0
    3.4930    0.2440    0.2080 C   0  0  2  0  0  0  0  0  0  0  0  0
    3.1660    0.8840    1.4090 O   0  0  0  0  0  0  0  0  0  0  0  0
    2.7070   -1.0160    0.0810 C   0  0  0  0  0  0  0  0  0  0  0  0
    1.2810   -0.8050   -0.3090 C   0  0  0  0  0  0  0  0  0  0  0  0
    0.7590    0.5020   -0.3050 N   0  0  0  0  0  0  0  0  0  0  0  0
   -0.5820    0.8730   -0.1830 C   0  0  0  0  0  0  0  0  0  0  0  0
   -0.8160    2.1960   -0.1700 O   0  0  0  0  0  0  0  0  0  0  0  0
   -1.8030    0.1440   -0.0680 C   0  0  0  0  0  0  0  0  0  0  0  0
   -2.9400    0.8770    0.0390 C   0  0  0  0  0  0  0  0  0  0  0  0
   -4.2350    0.3170    0.1670 C   0  0  0  0  0  0  0  0  0  0  0  0
   -5.4230    0.5820   -0.4770 C   0  0  0  0  0  0  0  0  0  0  0  0
   -6.5280   -0.0630   -0.1440 C   0  0  0  0  0  0  0  0  0  0  0  0
   -6.4580   -1.0140    0.8710 C   0  0  0  0  0  0  0  0  0  0  0  0
   -4.7350   -0.9880    1.3770 S   0  0  0  0  0  0  0  0  0  0  0  0
   -1.9440   -1.3090   -0.0770 C   0  0  2  0  0  0  0  0  0  0  0  0
   -1.6510   -1.9300    1.0990 F   0  0  0  0  0  0  0  0  0  0  0  0
   -1.3630   -1.9260   -1.1890 F   0  0  0  0  0  0  0  0  0  0  0  0
    1.6870    1.6750   -0.4730 C   0  0  0  0  0  0  0  0  0  0  0  0
    3.0170    1.1680   -0.9180 C   0  0  0  0  0  0  0  0  0  0  0  0
  1  2  1  0
  2  3  2  0
  2  4  1  0
  4  5  1  1
  4  6  1  0
  4 22  1  0
  6  7  1  0
  7  8  1  0
  8  9  1  0
  8 21  1  0
  9 10  2  0
  9 11  1  0
 11 12  2  3
 11 18  1  0
 12 13  1  0
 13 14  2  0
 13 17  1  0
 14 15  1  0
 15 16  2  0
 16 17  1  0
 18 19  1  1
 18 20  1  0
 21 22  1  0
M  END
