
     RDKit          3D

 12 12  0  0  0  0  0  0  0  0999 V2000
    0.3710    4.2380    0.9270 C   0  0  0  0  0  0  0  0  0  0  0  0
   -0.0030    2.9980    0.7840 C   0  0  0  0  0  0  0  0  0  0  0  0
   -0.4110    1.6920    0.6140 C   0  0  0  0  0  0  0  0  0  0  0  0
   -1.3100    1.1580    1.4440 C   0  0  0  0  0  0  0  0  0  0  0  0
   -1.9060   -0.1830    1.4980 C   0  0  0  0  0  0  0  0  0  0  0  0
   -1.7680   -0.9350    0.3250 O   0  0  0  0  0  0  0  0  0  0  0  0
   -0.4520   -1.4710    0.2760 C   0  0  0  0  0  0  0  0  0  0  0  0
    0.3490   -0.5820   -0.5790 C   0  0  0  0  0  0  0  0  0  0  0  0
    1.2810   -0.9470   -1.3970 C   0  0  0  0  0  0  0  0  0  0  0  0
    1.6440   -2.4020   -1.5470 C   0  0  0  0  0  0  0  0  0  0  0  0
    0.2050    0.9120   -0.4890 C   0  0  0  0  0  0  0  0  0  0  0  0
    0.6550    1.5920   -1.4380 O   0  0  0  0  0  0  0  0  0  0  0  0
  1  2  3  0
  2  3  1  0
  3  4  2  0
  3 11  1  0
  4  5  1  0
  5  6  1  0
  6  7  1  0
  7  8  1  0
  8  9  2  3
  8 11  1  0
  9 10  1  0
 11 12  2  0
M  END
