
     RDKit          3D

 22 23  0  0  0  0  0  0  0  0999 V2000
   -7.7580   -0.8730    0.4500 C   0  0  0  0  0  0  0  0  0  0  0  0
   -6.3890   -0.7850    0.0820 O   0  0  0  0  0  0  0  0  0  0  0  0
   -5.5930    0.1370    0.7350 C   0  0  0  0  0  0  0  0  0  0  0  0
   -6.0810    0.8690    1.6260 O   0  0  0  0  0  0  0  0  0  0  0  0
   -4.1970    0.2760    0.4100 N   0  0  0  0  0  0  0  0  0  0  0  0
   -3.4220    1.2470    1.1210 C   0  0  0  0  0  0  0  0  0  0  0  0
   -2.0240    1.2810    0.6940 C   0  0  0  0  0  0  0  0  0  0  0  0
   -1.2400    2.1230    1.2760 O   0  0  0  0  0  0  0  0  0  0  0  0
   -1.4250    0.4890   -0.2960 N   0  0  0  0  0  0  0  0  0  0  0  0
   -0.0240    0.5770   -0.6590 C   0  0  0  0  0  0  0  0  0  0  0  0
    0.8390    0.2440    0.5150 C   0  0  0  0  0  0  0  0  0  0  0  0
    2.2970    0.2830    0.2280 C   0  0  0  0  0  0  0  0  0  0  0  0
    3.3280    1.6450    0.6020 S   0  0  0  0  0  0  0  0  0  0  0  0
    4.8610    0.8990   -0.0810 C   0  0  0  0  0  0  0  0  0  0  0  0
    4.4440   -0.2990   -0.5200 C   0  0  0  0  0  0  0  0  0  0  0  0
    3.1320   -0.6280   -0.3680 C   0  0  0  0  0  0  0  0  0  0  0  0
    2.5340   -1.9650   -0.8000 C   0  0  0  0  0  0  0  0  0  0  0  0
    5.5460   -0.9190   -1.0480 C   0  0  0  0  0  0  0  0  0  0  0  0
    5.6420   -2.1410   -1.6160 F   0  0  0  0  0  0  0  0  0  0  0  0
    6.7120   -0.0260   -0.9140 C   0  0  0  0  0  0  0  0  0  0  0  0
    6.1280    1.1610   -0.2560 C   0  0  0  0  0  0  0  0  0  0  0  0
    6.7380    2.3190    0.1150 F   0  0  0  0  0  0  0  0  0  0  0  0
  1  2  1  0
  2  3  1  0
  3  4  2  0
  3  5  1  0
  5  6  1  0
  6  7  1  0
  7  8  2  0
  7  9  1  0
  9 10  1  0
 10 11  1  0
 11 12  1  0
 12 13  1  0
 12 16  2  0
 13 14  1  0
 14 15  1  0
 14 21  2  0
 15 16  1  0
 15 18  2  0
 16 17  1  0
 18 19  1  0
 18 20  1  0
 20 21  1  0
 21 22  1  0
M  END
