
     RDKit          3D

 22 23  0  0  0  0  0  0  0  0999 V2000
    5.2810    0.3130   -0.2380 C   0  0  0  0  0  0  0  0  0  0  0  0
    3.9600    0.4370    0.2510 O   0  0  0  0  0  0  0  0  0  0  0  0
    3.0880   -0.6230    0.0380 C   0  0  0  0  0  0  0  0  0  0  0  0
    3.5080   -1.6340   -0.5750 O   0  0  0  0  0  0  0  0  0  0  0  0
    1.6790   -0.6060    0.5050 C   0  0  2  0  0  0  0  0  0  0  0  0
    1.0880   -1.7800    0.1460 O   0  0  0  0  0  0  0  0  0  0  0  0
   -0.2880   -1.8300    0.3690 C   0  0  2  0  0  0  0  0  0  0  0  0
   -0.8020   -3.1270   -0.0850 C   0  0  0  0  0  0  0  0  0  0  0  0
   -0.0860   -4.0280   -0.5890 O   0  0  0  0  0  0  0  0  0  0  0  0
   -2.1590   -3.3900    0.0440 O   0  0  0  0  0  0  0  0  0  0  0  0
   -0.8840   -0.6570   -0.3180 C   0  0  1  0  0  0  0  0  0  0  0  0
   -0.6210   -0.7180   -1.7820 C   0  0  0  0  0  0  0  0  0  0  0  0
   -2.3230   -0.3880   -0.0230 C   0  0  1  0  0  0  0  0  0  0  0  0
   -2.5700   -0.3880    1.3470 O   0  0  0  0  0  0  0  0  0  0  0  0
   -2.4380    1.0810   -0.4590 C   0  0  0  0  0  0  0  0  0  0  0  0
   -1.0460    1.6720   -0.1910 C   0  0  1  0  0  0  0  0  0  0  0  0
   -0.5220    2.2610   -1.3280 O   0  0  0  0  0  0  0  0  0  0  0  0
   -1.2330    2.7000    0.9230 C   0  0  0  0  0  0  0  0  0  0  0  0
   -2.0930    3.7140    0.5490 O   0  0  0  0  0  0  0  0  0  0  0  0
   -0.2230    0.5640    0.3430 C   0  0  1  0  0  0  0  0  0  0  0  0
   -0.3330    0.4130    1.7240 O   0  0  0  0  0  0  0  0  0  0  0  0
    1.0870    0.5300   -0.0440 O   0  0  0  0  0  0  0  0  0  0  0  0
  1  2  1  0
  2  3  1  0
  3  4  2  0
  5  3  1  6
  5  6  1  0
  5 22  1  0
  6  7  1  0
  7  8  1  6
  7 11  1  0
  8  9  2  0
  8 10  1  0
 11 12  1  6
 11 13  1  0
 11 20  1  0
 13 14  1  1
 13 15  1  0
 15 16  1  0
 16 17  1  6
 16 18  1  0
 16 20  1  0
 18 19  1  0
 20 21  1  1
 20 22  1  0
M  END
