
     RDKit          3D

 22 22  0  0  0  0  0  0  0  0999 V2000
    2.6970    2.8830   -1.3600 O   0  0  0  0  0  0  0  0  0  0  0  0
    3.4030    1.7730   -1.8800 C   0  0  0  0  0  0  0  0  0  0  0  0
    3.0650    0.6090   -0.9750 C   0  0  1  0  0  0  0  0  0  0  0  0
    1.7140    0.3690   -0.9770 O   0  0  0  0  0  0  0  0  0  0  0  0
    1.1110    0.5870    0.2530 C   0  0  0  0  0  0  0  0  0  0  0  0
   -0.3650    0.2840    0.0970 C   0  0  1  0  0  0  0  0  0  0  0  0
   -0.4880   -1.0210   -0.2880 O   0  0  0  0  0  0  0  0  0  0  0  0
   -1.1490    0.6670    1.3160 C   0  0  0  0  0  0  0  0  0  0  0  0
   -2.4940    0.5240    1.2490 O   0  0  0  0  0  0  0  0  0  0  0  0
   -3.0310   -0.7060    1.0510 C   0  0  1  0  0  0  0  0  0  0  0  0
   -4.1340   -1.0500    2.0380 C   0  0  0  0  0  0  0  0  0  0  0  0
   -4.9600    0.0530    2.1280 O   0  0  0  0  0  0  0  0  0  0  0  0
   -5.6180    0.3410    0.9530 C   0  0  0  0  0  0  0  0  0  0  0  0
   -4.7280    0.4840   -0.2370 C   0  0  1  0  0  0  0  0  0  0  0  0
   -3.9980    1.6640   -0.1830 O   0  0  0  0  0  0  0  0  0  0  0  0
   -3.7430   -0.6610   -0.3120 C   0  0  2  0  0  0  0  0  0  0  0  0
   -4.4000   -1.8790   -0.4460 O   0  0  0  0  0  0  0  0  0  0  0  0
    3.7590   -0.5360   -1.2650 O   0  0  0  0  0  0  0  0  0  0  0  0
    4.5710   -0.9860   -0.2570 C   0  0  1  0  0  0  0  0  0  0  0  0
    4.2680   -2.2410    0.2060 O   0  0  0  0  0  0  0  0  0  0  0  0
    6.0380   -0.9500   -0.6290 C   0  0  0  0  0  0  0  0  0  0  0  0
    6.3470   -1.7210   -1.7220 O   0  0  0  0  0  0  0  0  0  0  0  0
  1  2  1  0
  3  2  1  6
  3  4  1  0
  3 18  1  0
  4  5  1  0
  5  6  1  0
  6  7  1  1
  6  8  1  0
  8  9  1  0
 10  9  1  1
 10 11  1  0
 10 16  1  0
 11 12  1  0
 12 13  1  0
 13 14  1  0
 14 15  1  1
 14 16  1  0
 16 17  1  1
 18 19  1  0
 19 20  1  6
 19 21  1  0
 21 22  1  0
M  END
