
     RDKit          3D

 22 24  0  0  0  0  0  0  0  0999 V2000
   -4.9220    1.9030   -0.1850 O   0  0  0  0  0  0  0  0  0  0  0  0
   -3.9040    1.2210    0.0220 C   0  0  0  0  0  0  0  0  0  0  0  0
   -2.9870    1.6190    0.9750 O   0  0  0  0  0  0  0  0  0  0  0  0
   -2.1010    0.6210    1.4690 C   0  0  2  0  0  0  0  0  0  0  0  0
   -1.2250    1.0970    2.3990 O   0  0  0  0  0  0  0  0  0  0  0  0
   -1.4320   -0.0110    0.2600 C   0  0  1  0  0  0  0  0  0  0  0  0
   -0.9500    1.0150   -0.7310 C   0  0  2  0  0  0  0  0  0  0  0  0
   -1.8460    1.1570   -1.8160 O   0  0  0  0  0  0  0  0  0  0  0  0
    0.3740    0.5890   -1.3760 C   0  0  1  0  0  0  0  0  0  0  0  0
    0.7610    1.6370   -2.2120 O   0  0  0  0  0  0  0  0  0  0  0  0
    1.4270    0.4420   -0.3180 C   0  0  2  0  0  0  0  0  0  0  0  0
    2.6930   -0.0480   -1.0080 C   0  0  0  0  0  0  0  0  0  0  0  0
    3.7440   -0.2290    0.0490 C   0  0  0  0  0  0  0  0  0  0  0  0
    3.1240   -1.0480    1.1720 C   0  0  0  0  0  0  0  0  0  0  0  0
    1.8830   -1.5600    0.7940 O   0  0  0  0  0  0  0  0  0  0  0  0
    0.9910   -0.4610    0.7950 C   0  0  1  0  0  0  0  0  0  0  0  0
    1.2190    0.2020    1.9990 O   0  0  0  0  0  0  0  0  0  0  0  0
   -0.3830   -1.0080    0.6530 C   0  0  2  0  0  0  0  0  0  0  0  0
   -0.3550   -2.0290   -0.3130 O   0  0  0  0  0  0  0  0  0  0  0  0
   -2.5590   -0.7870   -0.4400 C   0  0  2  0  0  0  0  0  0  0  0  0
   -2.1190   -1.4090   -1.5810 O   0  0  0  0  0  0  0  0  0  0  0  0
   -3.6760    0.0690   -0.6870 O   0  0  0  0  0  0  0  0  0  0  0  0
  1  2  2  0
  2  3  1  0
  2 22  1  0
  3  4  1  0
  4  5  1  1
  6  4  1  1
  6  7  1  0
  6 18  1  0
  6 20  1  0
  7  8  1  6
  7  9  1  0
  9 10  1  6
  9 11  1  0
 11 12  1  6
 11 16  1  0
 12 13  1  0
 13 14  1  0
 14 15  1  0
 15 16  1  0
 16 17  1  1
 16 18  1  0
 18 19  1  6
 20 21  1  6
 20 22  1  0
M  END
