
     RDKit          3D

 23 23  0  0  0  0  0  0  0  0999 V2000
   -2.0160    0.9220    1.7440 C   0  0  0  0  0  0  0  0  0  0  0  0
   -1.9760   -0.1660    0.6360 C   0  0  1  0  0  0  0  0  0  0  0  0
   -2.7460   -1.2120    1.2200 O   0  0  0  0  0  0  0  0  0  0  0  0
   -2.7190    0.3880   -0.4950 C   0  0  2  0  0  0  0  0  0  0  0  0
   -4.1470    0.6580   -0.0670 C   0  0  0  0  0  0  0  0  0  0  0  0
   -4.3000    1.5470    0.9580 O   0  0  0  0  0  0  0  0  0  0  0  0
   -2.8380   -0.4840   -1.7320 C   0  0  0  0  0  0  0  0  0  0  0  0
   -3.6070    0.2010   -2.7170 O   0  0  0  0  0  0  0  0  0  0  0  0
   -0.5810   -0.5770    0.5380 C   0  0  2  0  0  0  0  0  0  0  0  0
   -0.1390   -0.7650    1.8950 O   0  0  0  0  0  0  0  0  0  0  0  0
    0.3860    0.3840   -0.0770 C   0  0  0  0  0  0  0  0  0  0  0  0
    1.5360   -0.5440   -0.4670 C   0  0  1  0  0  0  0  0  0  0  0  0
    1.7290   -0.6020   -1.8260 O   0  0  0  0  0  0  0  0  0  0  0  0
    2.7870   -0.0470    0.1550 C   0  0  0  0  0  0  0  0  0  0  0  0
    2.8420    0.0890    1.4160 O   0  0  0  0  0  0  0  0  0  0  0  0
    3.9240    0.2850   -0.5610 O   0  0  0  0  0  0  0  0  0  0  0  0
    5.1070    0.7530    0.0090 C   0  0  0  0  0  0  0  0  0  0  0  0
    6.1210    1.0120   -1.0370 C   0  0  0  0  0  0  0  0  0  0  0  0
    5.8220    0.7960   -2.2330 O   0  0  0  0  0  0  0  0  0  0  0  0
    7.3730    1.4810   -0.7120 O   0  0  0  0  0  0  0  0  0  0  0  0
    1.1870   -1.8160   -0.0250 O   0  0  0  0  0  0  0  0  0  0  0  0
   -0.2320   -1.8710   -0.1160 C   0  0  1  0  0  0  0  0  0  0  0  0
   -0.5820   -2.9800    0.6790 O   0  0  0  0  0  0  0  0  0  0  0  0
  2  1  1  1
  2  3  1  0
  2  4  1  0
  2  9  1  0
  4  5  1  1
  4  7  1  0
  5  6  1  0
  7  8  1  0
  9 10  1  1
  9 11  1  0
  9 22  1  0
 11 12  1  0
 12 13  1  6
 12 14  1  0
 12 21  1  0
 14 15  2  0
 14 16  1  0
 16 17  1  0
 17 18  1  0
 18 19  2  0
 18 20  1  0
 21 22  1  0
 22 23  1  1
M  END
