
     RDKit          3D

 22 22  0  0  0  0  0  0  0  0999 V2000
    6.1380    0.2620    0.0300 O   0  0  0  0  0  0  0  0  0  0  0  0
    5.0720    0.2070    0.6990 C   0  0  0  0  0  0  0  0  0  0  0  0
    5.0750   -0.0360    2.0630 O   0  0  0  0  0  0  0  0  0  0  0  0
    3.8740    0.3960    0.0330 O   0  0  0  0  0  0  0  0  0  0  0  0
    3.8540    0.6490   -1.3800 C   0  0  0  0  0  0  0  0  0  0  0  0
    2.3960    0.8140   -1.8230 C   0  0  2  0  0  0  0  0  0  0  0  0
    1.8340    1.8650   -1.1510 O   0  0  0  0  0  0  0  0  0  0  0  0
    1.6510   -0.4720   -1.6930 C   0  0  1  0  0  0  0  0  0  0  0  0
    2.4040   -1.4400   -2.4760 O   0  0  0  0  0  0  0  0  0  0  0  0
    1.6000   -0.9310   -0.4150 O   0  0  0  0  0  0  0  0  0  0  0  0
    0.4550   -1.3980    0.0990 C   0  0  0  0  0  0  0  0  0  0  0  0
   -0.7180   -0.4860    0.3100 C   0  0  2  0  0  0  0  0  0  0  0  0
   -1.0910    0.0990   -0.8650 O   0  0  0  0  0  0  0  0  0  0  0  0
   -0.4260    0.5760    1.3470 C   0  0  0  0  0  0  0  0  0  0  0  0
   -1.6740    1.2420    1.8390 C   0  0  0  0  0  0  0  0  0  0  0  0
   -2.8880    0.9440    1.0120 C   0  0  0  0  0  0  0  0  0  0  0  0
   -3.1360   -0.5250    0.8500 C   0  0  1  0  0  0  0  0  0  0  0  0
   -4.0350   -0.8420   -0.3330 C   0  0  1  0  0  0  0  0  0  0  0  0
   -5.2920   -0.2150   -0.1610 O   0  0  0  0  0  0  0  0  0  0  0  0
   -3.5420   -0.3750   -1.5400 O   0  0  0  0  0  0  0  0  0  0  0  0
   -1.8830   -1.3040    0.9000 C   0  0  1  0  0  0  0  0  0  0  0  0
   -1.9610   -2.5440    0.2650 O   0  0  0  0  0  0  0  0  0  0  0  0
  1  2  2  0
  2  3  1  0
  2  4  1  0
  4  5  1  0
  5  6  1  0
  6  7  1  1
  6  8  1  0
  8  9  1  6
  8 10  1  0
 10 11  1  0
 11 12  1  0
 12 13  1  6
 12 14  1  0
 12 21  1  0
 14 15  1  0
 15 16  1  0
 17 16  1  6
 17 18  1  0
 17 21  1  0
 18 19  1  1
 18 20  1  0
 21 22  1  6
M  END
