
     RDKit          3D

 23 24  0  0  0  0  0  0  0  0999 V2000
   -2.5690    2.1340    0.2730 O   0  0  0  0  0  0  0  0  0  0  0  0
   -3.0890    1.5440    1.3990 C   0  0  0  0  0  0  0  0  0  0  0  0
   -2.8750    0.0420    1.4530 C   0  0  2  0  0  0  0  0  0  0  0  0
   -1.5500   -0.2370    1.4300 O   0  0  0  0  0  0  0  0  0  0  0  0
   -0.9160   -0.2630    0.2170 C   0  0  1  0  0  0  0  0  0  0  0  0
    0.3060   -0.9030    0.3730 O   0  0  0  0  0  0  0  0  0  0  0  0
    1.3790   -0.1840   -0.0830 C   0  0  1  0  0  0  0  0  0  0  0  0
    2.2700    0.1360    1.1030 C   0  0  2  0  0  0  0  0  0  0  0  0
    2.3700    1.6540    1.2980 C   0  0  0  0  0  0  0  0  0  0  0  0
    1.0730    2.1610    1.3740 O   0  0  0  0  0  0  0  0  0  0  0  0
    3.5120   -0.4490    1.0170 O   0  0  0  0  0  0  0  0  0  0  0  0
    4.2430   -0.0810   -0.0870 C   0  0  1  0  0  0  0  0  0  0  0  0
    5.3710   -0.9340   -0.1280 O   0  0  0  0  0  0  0  0  0  0  0  0
    3.4970   -0.2230   -1.3710 C   0  0  2  0  0  0  0  0  0  0  0  0
    3.3330    1.0120   -2.0390 O   0  0  0  0  0  0  0  0  0  0  0  0
    2.1280   -0.8510   -1.2030 C   0  0  1  0  0  0  0  0  0  0  0  0
    2.3230   -2.2110   -0.9840 O   0  0  0  0  0  0  0  0  0  0  0  0
   -1.6990   -1.1150   -0.7710 C   0  0  2  0  0  0  0  0  0  0  0  0
   -1.1230   -1.1380   -2.0160 O   0  0  0  0  0  0  0  0  0  0  0  0
   -3.0950   -0.5020   -0.9330 C   0  0  1  0  0  0  0  0  0  0  0  0
   -3.7370   -1.3340   -1.8660 O   0  0  0  0  0  0  0  0  0  0  0  0
   -3.7440   -0.5950    0.4200 C   0  0  2  0  0  0  0  0  0  0  0  0
   -4.9990    0.0290    0.3380 O   0  0  0  0  0  0  0  0  0  0  0  0
  1  2  1  0
  3  2  1  6
  3  4  1  0
  3 22  1  0
  4  5  1  0
  5  6  1  1
  5 18  1  0
  7  6  1  1
  7  8  1  0
  7 16  1  0
  8  9  1  6
  8 11  1  0
  9 10  1  0
 11 12  1  0
 12 13  1  6
 12 14  1  0
 14 15  1  1
 14 16  1  0
 16 17  1  1
 18 19  1  6
 18 20  1  0
 20 21  1  6
 20 22  1  0
 22 23  1  6
M  END
