
     RDKit          3D

 28 30  0  0  0  0  0  0  0  0999 V2000
    8.9550    0.6310   -0.8840 C   0  0  0  0  0  0  0  0  0  0  0  0
    8.6380    0.4510    0.5440 C   0  0  0  0  0  0  0  0  0  0  0  0
    9.7040    0.4610    1.5190 C   0  0  0  0  0  0  0  0  0  0  0  0
    9.5110    0.3130    2.7570 O   0  0  0  0  0  0  0  0  0  0  0  0
    7.4000    0.2820    0.9230 C   0  0  0  0  0  0  0  0  0  0  0  0
    6.3640    0.2740   -0.0470 N   0  0  0  0  0  0  0  0  0  0  0  0
    4.9850    0.0890    0.3460 C   0  0  0  0  0  0  0  0  0  0  0  0
    4.7500   -0.0600    1.5480 O   0  0  0  0  0  0  0  0  0  0  0  0
    3.9450    0.0770   -0.5920 N   0  0  0  0  0  0  0  0  0  0  0  0
    2.5640   -0.0810   -0.3810 C   0  0  0  0  0  0  0  0  0  0  0  0
    2.0400   -0.0870    0.8820 C   0  0  0  0  0  0  0  0  0  0  0  0
    0.6680   -0.2540    1.1250 C   0  0  0  0  0  0  0  0  0  0  0  0
   -0.1460   -0.4140    0.0410 C   0  0  0  0  0  0  0  0  0  0  0  0
    0.3550   -0.4120   -1.2340 C   0  0  0  0  0  0  0  0  0  0  0  0
    1.6900   -0.2480   -1.4490 C   0  0  0  0  0  0  0  0  0  0  0  0
   -0.7620   -0.6030   -2.1390 C   0  0  0  0  0  0  0  0  0  0  0  0
   -0.7210   -0.6580   -3.3780 O   0  0  0  0  0  0  0  0  0  0  0  0
   -1.9760   -0.7210   -1.3190 C   0  0  0  0  0  0  0  0  0  0  0  0
   -3.3070   -0.9080   -1.5950 C   0  0  0  0  0  0  0  0  0  0  0  0
   -4.2760   -0.9840   -0.5780 C   0  0  0  0  0  0  0  0  0  0  0  0
   -5.6250   -1.2180   -0.9050 N   0  0  0  0  0  0  0  0  0  0  0  0
   -6.6870   -0.9280    0.0140 C   0  0  0  0  0  0  0  0  0  0  0  0
   -6.9710    0.5280    0.0580 C   0  0  2  0  0  0  0  0  0  0  0  0
   -5.8800    1.4430    0.4720 C   0  0  0  0  0  0  0  0  0  0  0  0
   -8.1260    0.7210    1.0560 C   0  0  0  0  0  0  0  0  0  0  0  0
   -3.8760   -0.8680    0.7210 C   0  0  0  0  0  0  0  0  0  0  0  0
   -2.5460   -0.6800    1.0130 C   0  0  0  0  0  0  0  0  0  0  0  0
   -1.6020   -0.6070    0.0030 C   0  0  0  0  0  0  0  0  0  0  0  0
  1  2  1  0
  2  3  1  0
  2  5  2  3
  3  4  2  0
  5  6  1  0
  6  7  1  0
  7  8  2  0
  7  9  1  0
  9 10  1  0
 10 11  2  0
 10 15  1  0
 11 12  1  0
 12 13  2  0
 13 14  1  0
 13 28  1  0
 14 15  2  0
 14 16  1  0
 16 17  2  0
 16 18  1  0
 18 19  2  0
 18 28  1  0
 19 20  1  0
 20 21  1  0
 20 26  2  0
 21 22  1  0
 22 23  1  0
 23 24  1  1
 23 25  1  0
 26 27  1  0
 27 28  2  0
M  END
