
     RDKit          3D

 28 31  0  0  0  0  0  0  0  0999 V2000
    3.8530    0.3840   -2.6460 C   0  0  0  0  0  0  0  0  0  0  0  0
    2.6900    1.1060   -2.1550 C   0  0  0  0  0  0  0  0  0  0  0  0
    2.0750    1.0220   -1.0050 C   0  0  0  0  0  0  0  0  0  0  0  0
    0.8610    1.8740   -0.7440 C   0  0  0  0  0  0  0  0  0  0  0  0
   -0.3300    1.0090   -0.5870 C   0  0  0  0  0  0  0  0  0  0  0  0
   -1.5190    1.3980   -1.0120 N   0  0  0  0  0  0  0  0  0  0  0  0
   -2.4780    0.4460   -0.7680 C   0  0  0  0  0  0  0  0  0  0  0  0
   -3.8850    0.5230   -1.0700 C   0  0  0  0  0  0  0  0  0  0  0  0
   -4.2700    1.6430   -1.6340 O   0  0  0  0  0  0  0  0  0  0  0  0
   -4.8810   -0.3660   -0.8690 O   0  0  0  0  0  0  0  0  0  0  0  0
   -6.2270   -0.1900   -1.1980 C   0  0  0  0  0  0  0  0  0  0  0  0
   -6.8810    0.9730   -0.4660 C   0  0  0  0  0  0  0  0  0  0  0  0
   -1.7900   -0.5760   -0.1500 C   0  0  0  0  0  0  0  0  0  0  0  0
   -2.3950   -1.8520    0.3380 C   0  0  0  0  0  0  0  0  0  0  0  0
   -3.2710   -1.5310    1.5280 C   0  0  0  0  0  0  0  0  0  0  0  0
   -2.9380   -0.4830    2.4180 N   0  0  0  0  0  0  0  0  0  0  0  0
   -4.3080   -2.2670    1.6540 O   0  0  0  0  0  0  0  0  0  0  0  0
   -0.4350   -0.2190   -0.0400 C   0  0  0  0  0  0  0  0  0  0  0  0
    0.4710   -1.2000    0.5680 C   0  0  0  0  0  0  0  0  0  0  0  0
    1.8950   -0.8570    0.5680 C   0  0  0  0  0  0  0  0  0  0  0  0
    2.8110   -1.5440    1.3200 C   0  0  0  0  0  0  0  0  0  0  0  0
    4.0690   -0.9870    1.1850 C   0  0  0  0  0  0  0  0  0  0  0  0
    5.3180   -1.2460    1.6970 C   0  0  0  0  0  0  0  0  0  0  0  0
    6.3430   -0.4140    1.3170 C   0  0  0  0  0  0  0  0  0  0  0  0
    6.1770    0.6420    0.4680 C   0  0  0  0  0  0  0  0  0  0  0  0
    4.9410    0.9090   -0.0480 C   0  0  0  0  0  0  0  0  0  0  0  0
    3.8970    0.0910    0.3060 C   0  0  0  0  0  0  0  0  0  0  0  0
    2.5940    0.1200   -0.0340 N   0  0  0  0  0  0  0  0  0  0  0  0
  1  2  1  0
  2  3  2  3
  3  4  1  0
  3 28  1  0
  4  5  1  0
  5  6  1  0
  5 18  2  0
  6  7  1  0
  7  8  1  0
  7 13  2  0
  8  9  2  0
  8 10  1  0
 10 11  1  0
 11 12  1  0
 13 14  1  0
 13 18  1  0
 14 15  1  0
 15 16  1  0
 15 17  2  0
 18 19  1  0
 19 20  1  0
 20 21  2  0
 20 28  1  0
 21 22  1  0
 22 23  2  0
 22 27  1  0
 23 24  1  0
 24 25  2  0
 25 26  1  0
 26 27  2  0
 27 28  1  0
M  END
