
     RDKit          3D

 28 30  0  0  0  0  0  0  0  0999 V2000
   -0.5480   -1.6210    2.7400 C   0  0  0  0  0  0  0  0  0  0  0  0
   -0.3990   -0.6270    1.6450 C   0  0  0  0  0  0  0  0  0  0  0  0
   -1.4810    0.0810    1.1850 C   0  0  0  0  0  0  0  0  0  0  0  0
   -1.3630    1.0160    0.1610 C   0  0  0  0  0  0  0  0  0  0  0  0
   -2.4950    1.7420   -0.3040 N   0  0  0  0  0  0  0  0  0  0  0  0
   -3.7780    1.5370    0.2610 C   0  0  0  0  0  0  0  0  0  0  0  0
   -4.5060    0.4530   -0.0660 C   0  0  0  0  0  0  0  0  0  0  0  0
   -3.9810   -0.5150   -1.0020 C   0  0  0  0  0  0  0  0  0  0  0  0
   -4.6710   -1.5760   -1.3350 C   0  0  0  0  0  0  0  0  0  0  0  0
   -5.9890   -1.7880   -0.7560 C   0  0  0  0  0  0  0  0  0  0  0  0
   -6.5250   -0.9400    0.1060 C   0  0  0  0  0  0  0  0  0  0  0  0
   -5.8320    0.2740    0.5400 C   0  0  2  0  0  0  0  0  0  0  0  0
   -6.7230    1.4700    0.2170 C   0  0  0  0  0  0  0  0  0  0  0  0
   -0.1090    1.2020   -0.3740 C   0  0  0  0  0  0  0  0  0  0  0  0
    1.0330    0.5190    0.0430 C   0  0  0  0  0  0  0  0  0  0  0  0
    2.2580    0.8030   -0.6010 N   0  0  0  0  0  0  0  0  0  0  0  0
    3.5150    0.3180   -0.2240 C   0  0  0  0  0  0  0  0  0  0  0  0
    3.6450   -0.4290    0.7550 O   0  0  0  0  0  0  0  0  0  0  0  0
    4.7160    0.6450   -0.9300 N   0  0  0  0  0  0  0  0  0  0  0  0
    6.0000    0.1690   -0.5710 C   0  0  0  0  0  0  0  0  0  0  0  0
    6.9150    1.0870   -0.2670 C   0  0  0  0  0  0  0  0  0  0  0  0
    8.2790    0.7170    0.1180 C   0  0  0  0  0  0  0  0  0  0  0  0
    9.1340    1.6050    0.4040 O   0  0  0  0  0  0  0  0  0  0  0  0
    8.6090   -0.6930    0.1600 C   0  0  0  0  0  0  0  0  0  0  0  0
    9.7780   -1.0680    0.4890 O   0  0  0  0  0  0  0  0  0  0  0  0
    7.5660   -1.6530   -0.1830 C   0  0  0  0  0  0  0  0  0  0  0  0
    6.3480   -1.2430   -0.5240 C   0  0  0  0  0  0  0  0  0  0  0  0
    0.8480   -0.3880    1.0550 C   0  0  0  0  0  0  0  0  0  0  0  0
  1  2  1  0
  2  3  2  0
  2 28  1  0
  3  4  1  0
  4  5  1  0
  4 14  2  0
  5  6  1  0
  6  7  2  3
  7  8  1  0
  7 12  1  0
  8  9  2  0
  9 10  1  0
 10 11  2  0
 11 12  1  0
 12 13  1  6
 14 15  1  0
 15 16  1  0
 15 28  2  0
 16 17  1  0
 17 18  2  0
 17 19  1  0
 19 20  1  0
 20 21  2  0
 20 27  1  0
 21 22  1  0
 22 23  2  0
 22 24  1  0
 24 25  2  0
 24 26  1  0
 26 27  2  0
M  END
