
     RDKit          3D

 28 30  0  0  0  0  0  0  0  0999 V2000
   -4.5340    1.3680    1.8140 C   0  0  0  0  0  0  0  0  0  0  0  0
   -5.1970    1.6370    0.7270 C   0  0  0  0  0  0  0  0  0  0  0  0
   -4.7590    1.3140   -0.6130 C   0  0  0  0  0  0  0  0  0  0  0  0
   -5.5210    1.6400   -1.6350 C   0  0  0  0  0  0  0  0  0  0  0  0
   -5.1270    1.3350   -3.0430 C   0  0  0  0  0  0  0  0  0  0  0  0
   -3.4680    0.6270   -0.8840 C   0  0  0  0  0  0  0  0  0  0  0  0
   -3.4270   -0.6510   -0.2640 N   0  0  0  0  0  0  0  0  0  0  0  0
   -4.3380   -1.6300   -0.8230 C   0  0  0  0  0  0  0  0  0  0  0  0
   -4.4060   -2.7500    0.2260 C   0  0  0  0  0  0  0  0  0  0  0  0
   -3.1550   -3.2540    0.4730 O   0  0  0  0  0  0  0  0  0  0  0  0
   -2.2230   -2.3080    0.9020 C   0  0  0  0  0  0  0  0  0  0  0  0
   -2.1350   -1.2760   -0.2030 C   0  0  2  0  0  0  0  0  0  0  0  0
   -0.9940   -0.3320   -0.0820 C   0  0  0  0  0  0  0  0  0  0  0  0
    0.2340   -1.1020   -0.0280 N   0  0  0  0  0  0  0  0  0  0  0  0
    1.5110   -0.4220    0.0960 C   0  0  0  0  0  0  0  0  0  0  0  0
    1.4200    0.8160    0.1460 O   0  0  0  0  0  0  0  0  0  0  0  0
    2.7120   -1.1630    0.1510 N   0  0  0  0  0  0  0  0  0  0  0  0
    3.9950   -0.5670    0.2710 C   0  0  0  0  0  0  0  0  0  0  0  0
    4.2130    0.7830    0.3320 C   0  0  0  0  0  0  0  0  0  0  0  0
    5.5020    1.2880    0.4510 C   0  0  0  0  0  0  0  0  0  0  0  0
    5.6760    2.6690    0.5100 C   0  0  0  0  0  0  0  0  0  0  0  0
    6.9550    3.1590    0.6280 C   0  0  0  0  0  0  0  0  0  0  0  0
    8.0570    2.3300    0.6890 C   0  0  0  0  0  0  0  0  0  0  0  0
    7.8900    0.9680    0.6310 C   0  0  0  0  0  0  0  0  0  0  0  0
    6.6060    0.4650    0.5120 C   0  0  0  0  0  0  0  0  0  0  0  0
    6.3550   -0.8850    0.4480 C   0  0  0  0  0  0  0  0  0  0  0  0
    5.0920   -1.4200    0.3310 C   0  0  0  0  0  0  0  0  0  0  0  0
    4.9780   -2.8140    0.2770 O   0  0  0  0  0  0  0  0  0  0  0  0
  1  2  2  0
  2  3  1  0
  3  4  2  3
  3  6  1  0
  4  5  1  0
  6  7  1  0
  7  8  1  0
  7 12  1  0
  8  9  1  0
  9 10  1  0
 10 11  1  0
 11 12  1  0
 12 13  1  1
 13 14  1  0
 14 15  1  0
 15 16  2  0
 15 17  1  0
 17 18  1  0
 18 19  2  0
 18 27  1  0
 19 20  1  0
 20 21  2  0
 20 25  1  0
 21 22  1  0
 22 23  2  0
 23 24  1  0
 24 25  2  0
 25 26  1  0
 26 27  2  0
 27 28  1  0
M  END
