
     RDKit          3D

 28 31  0  0  0  0  0  0  0  0999 V2000
    0.3280    3.2170   -3.6900 N   0  0  0  0  0  0  0  0  0  0  0  0
   -0.9990    2.7340   -3.5480 C   0  0  0  0  0  0  0  0  0  0  0  0
   -1.9220    2.8870   -4.5490 C   0  0  0  0  0  0  0  0  0  0  0  0
   -3.1690    2.4220   -4.3880 N   0  0  0  0  0  0  0  0  0  0  0  0
   -3.5450    1.8030   -3.2720 C   0  0  0  0  0  0  0  0  0  0  0  0
   -2.6490    1.6110   -2.2100 C   0  0  0  0  0  0  0  0  0  0  0  0
   -3.0610    0.8300   -1.0620 C   0  0  0  0  0  0  0  0  0  0  0  0
   -4.1200    1.1410   -0.4240 O   0  0  0  0  0  0  0  0  0  0  0  0
   -2.3950   -0.3050   -0.5420 N   0  0  0  0  0  0  0  0  0  0  0  0
   -2.8240   -1.0440    0.6000 C   0  0  2  0  0  0  0  0  0  0  0  0
   -1.8830   -1.0090    1.7740 C   0  0  0  0  0  0  0  0  0  0  0  0
   -2.6640   -1.9100    2.7460 C   0  0  0  0  0  0  0  0  0  0  0  0
   -3.1680   -2.9910    1.8440 C   0  0  0  0  0  0  0  0  0  0  0  0
   -3.0410   -2.5010    0.4100 C   0  0  0  0  0  0  0  0  0  0  0  0
   -1.3830    2.0820   -2.3580 C   0  0  0  0  0  0  0  0  0  0  0  0
   -0.3850    2.0090   -1.2980 C   0  0  0  0  0  0  0  0  0  0  0  0
   -0.5410    1.5010   -0.1740 O   0  0  0  0  0  0  0  0  0  0  0  0
    0.9020    2.5530   -1.5100 O   0  0  0  0  0  0  0  0  0  0  0  0
    1.8970    2.5080   -0.5290 C   0  0  0  0  0  0  0  0  0  0  0  0
    2.2380    1.1240   -0.1510 C   0  0  0  0  0  0  0  0  0  0  0  0
    1.8260    0.0800   -0.9250 C   0  0  0  0  0  0  0  0  0  0  0  0
    2.1510   -1.2100   -0.5540 C   0  0  0  0  0  0  0  0  0  0  0  0
    2.8870   -1.4140    0.5940 C   0  0  0  0  0  0  0  0  0  0  0  0
    3.3130   -0.3670    1.3910 C   0  0  0  0  0  0  0  0  0  0  0  0
    4.0970   -0.6570    2.6030 C   0  0  1  0  0  0  0  0  0  0  0  0
    3.9410   -1.9520    3.3090 C   0  0  0  0  0  0  0  0  0  0  0  0
    5.1940   -1.6860    2.5390 C   0  0  0  0  0  0  0  0  0  0  0  0
    2.9850    0.9030    1.0120 C   0  0  0  0  0  0  0  0  0  0  0  0
  1  2  1  0
  2  3  2  0
  2 15  1  0
  3  4  1  0
  4  5  2  0
  5  6  1  0
  6  7  1  0
  6 15  2  0
  7  8  2  0
  7  9  1  0
 10  9  1  6
 10 11  1  0
 10 14  1  0
 11 12  1  0
 12 13  1  0
 13 14  1  0
 15 16  1  0
 16 17  2  0
 16 18  1  0
 18 19  1  0
 19 20  1  0
 20 21  2  0
 20 28  1  0
 21 22  1  0
 22 23  2  0
 23 24  1  0
 25 24  1  6
 24 28  2  0
 25 26  1  0
 25 27  1  0
 26 27  1  0
M  END
