
     RDKit          3D

 28 31  0  0  0  0  0  0  0  0999 V2000
    5.5420    2.2330    0.1950 C   0  0  0  0  0  0  0  0  0  0  0  0
    4.9100    1.3920   -0.8660 C   0  0  0  0  0  0  0  0  0  0  0  0
    3.8390    0.4970   -0.3660 C   0  0  0  0  0  0  0  0  0  0  0  0
    2.6070    1.0030   -0.0630 C   0  0  0  0  0  0  0  0  0  0  0  0
    2.3420    2.4500   -0.2380 C   0  0  0  0  0  0  0  0  0  0  0  0
    1.5960    0.1450    0.4120 C   0  0  0  0  0  0  0  0  0  0  0  0
    0.3650    0.7460    0.6990 N   0  0  0  0  0  0  0  0  0  0  0  0
   -0.8040    0.0560    1.1650 C   0  0  0  0  0  0  0  0  0  0  0  0
   -0.7880   -1.1830    1.3510 O   0  0  0  0  0  0  0  0  0  0  0  0
   -2.0270    0.7880    1.4290 C   0  0  0  0  0  0  0  0  0  0  0  0
   -3.3150    0.1460    1.5980 C   0  0  0  0  0  0  0  0  0  0  0  0
   -3.8030   -0.5350    0.4360 N   0  0  0  0  0  0  0  0  0  0  0  0
   -3.2590   -1.7820   -0.0260 C   0  0  0  0  0  0  0  0  0  0  0  0
   -4.2820   -2.5750   -0.7700 C   0  0  0  0  0  0  0  0  0  0  0  0
   -4.1960   -3.8210   -0.7340 O   0  0  0  0  0  0  0  0  0  0  0  0
   -5.2990   -1.9900   -1.4830 O   0  0  0  0  0  0  0  0  0  0  0  0
   -5.5880   -0.6560   -1.2490 C   0  0  0  0  0  0  0  0  0  0  0  0
   -6.6140   -0.0460   -1.9640 C   0  0  0  0  0  0  0  0  0  0  0  0
   -6.9490    1.2780   -1.7810 C   0  0  0  0  0  0  0  0  0  0  0  0
   -6.2240    1.9870   -0.8530 C   0  0  0  0  0  0  0  0  0  0  0  0
   -5.1930    1.3600   -0.1370 C   0  0  0  0  0  0  0  0  0  0  0  0
   -4.8700    0.0610   -0.3210 C   0  0  0  0  0  0  0  0  0  0  0  0
    1.9150   -1.1850    0.5470 C   0  0  0  0  0  0  0  0  0  0  0  0
    3.1690   -1.7220    0.2420 C   0  0  0  0  0  0  0  0  0  0  0  0
    4.1310   -0.8670   -0.2170 C   0  0  0  0  0  0  0  0  0  0  0  0
    5.3510   -1.6490   -0.4690 C   0  0  0  0  0  0  0  0  0  0  0  0
    5.1100   -2.9500    0.2450 C   0  0  0  0  0  0  0  0  0  0  0  0
    3.6600   -3.0670    0.3260 N   0  0  0  0  0  0  0  0  0  0  0  0
  1  2  1  0
  2  3  1  0
  3  4  2  0
  3 25  1  0
  4  5  1  0
  4  6  1  0
  6  7  1  0
  6 23  2  0
  7  8  1  0
  8  9  2  0
  8 10  1  0
 10 11  1  0
 11 12  1  0
 12 13  1  0
 12 22  1  0
 13 14  1  0
 14 15  2  0
 14 16  1  0
 16 17  1  0
 17 18  2  0
 17 22  1  0
 18 19  1  0
 19 20  2  0
 20 21  1  0
 21 22  2  0
 23 24  1  0
 24 25  2  0
 24 28  1  0
 25 26  1  0
 26 27  1  0
 27 28  1  0
M  END
