
     RDKit          3D

 28 31  0  0  0  0  0  0  0  0999 V2000
   -0.4610    5.9930    1.1170 O   0  0  0  0  0  0  0  0  0  0  0  0
   -1.1250    6.2130    0.0900 C   0  0  0  0  0  0  0  0  0  0  0  0
   -1.9710    5.2170   -0.4330 N   0  0  0  0  0  0  0  0  0  0  0  0
   -2.1390    3.9480    0.1170 N   0  0  0  0  0  0  0  0  0  0  0  0
   -1.5460    2.7730   -0.4990 C   0  0  0  0  0  0  0  0  0  0  0  0
   -0.9030    3.0050   -1.5240 O   0  0  0  0  0  0  0  0  0  0  0  0
   -1.7960    1.4950    0.1760 C   0  0  0  0  0  0  0  0  0  0  0  0
   -1.2430    0.2680   -0.4940 C   0  0  1  0  0  0  0  0  0  0  0  0
    0.2280    0.3890   -0.5630 C   0  0  0  0  0  0  0  0  0  0  0  0
    0.8420    0.7650   -1.7230 C   0  0  0  0  0  0  0  0  0  0  0  0
    2.2370    0.8650   -1.8030 C   0  0  0  0  0  0  0  0  0  0  0  0
    2.9780    0.5690   -0.6730 C   0  0  0  0  0  0  0  0  0  0  0  0
    2.3840    0.1850    0.5120 C   0  0  0  0  0  0  0  0  0  0  0  0
    1.0220    0.1030    0.5430 C   0  0  0  0  0  0  0  0  0  0  0  0
    3.2820   -0.1300    1.6580 C   0  0  0  0  0  0  0  0  0  0  0  0
    4.4120   -0.8880    1.1460 N   0  0  0  0  0  0  0  0  0  0  0  0
    5.1750   -0.1450    0.1630 C   0  0  0  0  0  0  0  0  0  0  0  0
    4.3650    0.6460   -0.6880 O   0  0  0  0  0  0  0  0  0  0  0  0
   -1.7070   -0.9480    0.2180 C   0  0  0  0  0  0  0  0  0  0  0  0
   -2.3760   -0.8610    1.4200 C   0  0  0  0  0  0  0  0  0  0  0  0
   -2.8070   -1.9620    2.1270 C   0  0  0  0  0  0  0  0  0  0  0  0
   -2.5760   -3.2270    1.6410 C   0  0  0  0  0  0  0  0  0  0  0  0
   -1.9090   -3.3410    0.4390 C   0  0  0  0  0  0  0  0  0  0  0  0
   -1.6890   -4.6090   -0.0320 C   0  0  0  0  0  0  0  0  0  0  0  0
   -1.0330   -4.8240   -1.2240 C   0  0  0  0  0  0  0  0  0  0  0  0
   -0.6130   -3.7240   -1.9130 C   0  0  0  0  0  0  0  0  0  0  0  0
   -0.8290   -2.4180   -1.4510 C   0  0  0  0  0  0  0  0  0  0  0  0
   -1.4790   -2.2110   -0.2660 C   0  0  0  0  0  0  0  0  0  0  0  0
  1  2  2  0
  2  3  1  0
  3  4  1  0
  4  5  1  0
  5  6  2  0
  5  7  1  0
  8  7  1  1
  8  9  1  0
  8 19  1  0
  9 10  2  0
  9 14  1  0
 10 11  1  0
 11 12  2  0
 12 13  1  0
 12 18  1  0
 13 14  2  0
 13 15  1  0
 15 16  1  0
 16 17  1  0
 17 18  1  0
 19 20  2  0
 19 28  1  0
 20 21  1  0
 21 22  2  0
 22 23  1  0
 23 24  2  0
 23 28  1  0
 24 25  1  0
 25 26  2  0
 26 27  1  0
 27 28  2  0
M  END
