
     RDKit          3D

 28 31  0  0  0  0  0  0  0  0999 V2000
   -6.6890   -0.1790   -0.3940 C   0  0  0  0  0  0  0  0  0  0  0  0
   -5.9130    1.0610   -0.0140 C   0  0  1  0  0  0  0  0  0  0  0  0
   -6.9420    2.1960    0.0650 C   0  0  0  0  0  0  0  0  0  0  0  0
   -5.3190    0.9390    1.3650 C   0  0  0  0  0  0  0  0  0  0  0  0
   -4.3630   -0.2300    1.4820 C   0  0  0  0  0  0  0  0  0  0  0  0
   -3.2210   -0.0410    0.4870 C   0  0  0  0  0  0  0  0  0  0  0  0
   -2.2670   -1.1880    0.5900 C   0  0  1  0  0  0  0  0  0  0  0  0
   -2.9700   -2.5230    0.2840 C   0  0  0  0  0  0  0  0  0  0  0  0
   -1.0760   -1.1430   -0.2330 C   0  0  1  0  0  0  0  0  0  0  0  0
   -1.2570   -1.0810   -1.7180 C   0  0  0  0  0  0  0  0  0  0  0  0
    0.1040   -0.6010   -2.2620 C   0  0  0  0  0  0  0  0  0  0  0  0
    0.9300   -0.5650   -1.0480 C   0  0  1  0  0  0  0  0  0  0  0  0
    2.2030    0.1420   -1.0360 C   0  0  2  0  0  0  0  0  0  0  0  0
    3.1040   -0.2910   -2.1610 C   0  0  0  0  0  0  0  0  0  0  0  0
    4.2830    0.6920   -2.1130 C   0  0  0  0  0  0  0  0  0  0  0  0
    4.9620    0.4230   -0.8120 C   0  0  0  0  0  0  0  0  0  0  0  0
    6.2850    0.4270   -0.8130 C   0  0  0  0  0  0  0  0  0  0  0  0
    6.9890    0.1680    0.4340 C   0  0  0  0  0  0  0  0  0  0  0  0
    8.0530    0.7830    0.7040 O   0  0  0  0  0  0  0  0  0  0  0  0
    6.3880   -0.8380    1.3390 C   0  0  0  0  0  0  0  0  0  0  0  0
    4.9340   -1.0360    1.1330 C   0  0  0  0  0  0  0  0  0  0  0  0
    4.2640    0.1610    0.4430 C   0  0  1  0  0  0  0  0  0  0  0  0
    4.4130    1.3170    1.4410 C   0  0  0  0  0  0  0  0  0  0  0  0
    2.8270   -0.1590    0.3360 C   0  0  1  0  0  0  0  0  0  0  0  0
    1.9430    0.6220    1.3090 C   0  0  0  0  0  0  0  0  0  0  0  0
    0.5570   -0.0390    1.3230 C   0  0  0  0  0  0  0  0  0  0  0  0
   -0.0810   -0.0350   -0.0140 C   0  0  2  0  0  0  0  0  0  0  0  0
   -0.5330    1.2980   -0.5060 C   0  0  0  0  0  0  0  0  0  0  0  0
  2  1  1  1
  2  3  1  0
  2  4  1  0
  4  5  1  0
  5  6  1  0
  6  7  1  0
  7  8  1  6
  7  9  1  0
  9 10  1  6
  9 27  1  0
 10 11  1  0
 12 11  1  6
 12 13  1  0
 12 27  1  0
 13 14  1  6
 13 24  1  0
 14 15  1  0
 15 16  1  0
 16 17  2  0
 16 22  1  0
 17 18  1  0
 18 19  2  0
 18 20  1  0
 20 21  1  0
 21 22  1  0
 22 23  1  1
 22 24  1  0
 24 25  1  1
 25 26  1  0
 26 27  1  0
 27 28  1  6
M  END
