
     RDKit          3D

 28 30  0  0  0  0  0  0  0  0999 V2000
   -5.6280   -2.7460    1.2510 C   0  0  0  0  0  0  0  0  0  0  0  0
   -4.6390   -2.1940    2.2410 C   0  0  0  0  0  0  0  0  0  0  0  0
   -3.6880   -1.3540    1.5350 N   0  0  0  0  0  0  0  0  0  0  0  0
   -4.3150   -0.1480    1.0270 C   0  0  0  0  0  0  0  0  0  0  0  0
   -3.2860    0.6460    0.3310 C   0  0  0  0  0  0  0  0  0  0  0  0
   -1.9660    0.1780    0.2590 C   0  0  0  0  0  0  0  0  0  0  0  0
   -0.9900    0.8930   -0.3800 C   0  0  0  0  0  0  0  0  0  0  0  0
    0.3670    0.5220   -0.5160 N   0  0  0  0  0  0  0  0  0  0  0  0
    0.9640   -0.6600   -0.0170 C   0  0  0  0  0  0  0  0  0  0  0  0
    0.2700   -1.4820    0.6080 O   0  0  0  0  0  0  0  0  0  0  0  0
    2.4040   -0.9030   -0.2440 C   0  0  0  0  0  0  0  0  0  0  0  0
    3.2890   -0.1460   -0.8710 N   0  0  0  0  0  0  0  0  0  0  0  0
    4.5080   -0.7050   -0.8720 C   0  0  0  0  0  0  0  0  0  0  0  0
    4.4080   -1.9020   -0.2030 C   0  0  0  0  0  0  0  0  0  0  0  0
    3.0730   -2.0190    0.1910 C   0  0  0  0  0  0  0  0  0  0  0  0
    2.5570   -3.1890    0.9490 C   0  0  0  0  0  0  0  0  0  0  0  0
    5.5820   -2.7520   -0.0360 C   0  0  0  0  0  0  0  0  0  0  0  0
    5.4180   -3.9690    0.1950 O   0  0  0  0  0  0  0  0  0  0  0  0
    6.9050   -2.0840   -0.1560 C   0  0  0  0  0  0  0  0  0  0  0  0
    6.8420   -1.2950   -1.4530 C   0  0  0  0  0  0  0  0  0  0  0  0
    5.8090   -0.2260   -1.4520 C   0  0  0  0  0  0  0  0  0  0  0  0
   -1.3890    2.1090   -0.9510 C   0  0  0  0  0  0  0  0  0  0  0  0
   -0.4310    2.8410   -1.5950 O   0  0  0  0  0  0  0  0  0  0  0  0
   -0.5640    4.0670   -2.2360 C   0  0  0  0  0  0  0  0  0  0  0  0
   -1.0250    5.1930   -1.3610 C   0  0  0  0  0  0  0  0  0  0  0  0
   -2.7060    2.5640   -0.8720 C   0  0  0  0  0  0  0  0  0  0  0  0
   -3.6680    1.8320   -0.2270 C   0  0  0  0  0  0  0  0  0  0  0  0
   -5.0770    2.2830   -0.1220 C   0  0  0  0  0  0  0  0  0  0  0  0
  1  2  1  0
  2  3  1  0
  3  4  1  0
  4  5  1  0
  5  6  2  0
  5 27  1  0
  6  7  1  0
  7  8  1  0
  7 22  2  0
  8  9  1  0
  9 10  2  0
  9 11  1  0
 11 12  1  0
 11 15  2  0
 12 13  1  0
 13 14  2  0
 13 21  1  0
 14 15  1  0
 14 17  1  0
 15 16  1  0
 17 18  2  0
 17 19  1  0
 19 20  1  0
 20 21  1  0
 22 23  1  0
 22 26  1  0
 23 24  1  0
 24 25  1  0
 26 27  2  0
 27 28  1  0
M  END
