
     RDKit          3D

 23 25  0  0  0  0  0  0  0  0999 V2000
    1.8770    0.5730   -1.1200 O   0  0  0  0  0  0  0  0  0  0  0  0
    1.7200   -0.1930   -0.1420 C   0  0  0  0  0  0  0  0  0  0  0  0
    2.9160   -0.5760    0.6500 C   0  0  0  0  0  0  0  0  0  0  0  0
    4.0790    0.1120    0.2000 N   0  0  0  0  0  0  0  0  0  0  0  0
    4.4730    1.3300    0.6810 C   0  0  0  0  0  0  0  0  0  0  0  0
    3.8280    1.9770    1.5770 O   0  0  0  0  0  0  0  0  0  0  0  0
    5.5940    1.6560    0.0340 N   0  0  0  0  0  0  0  0  0  0  0  0
    5.8620    0.6640   -0.8130 N   0  0  0  0  0  0  0  0  0  0  0  0
    4.9500   -0.2930   -0.7270 C   0  0  0  0  0  0  0  0  0  0  0  0
    4.9780   -1.3380   -1.4080 O   0  0  0  0  0  0  0  0  0  0  0  0
    0.4060   -0.6560    0.1650 N   0  0  0  0  0  0  0  0  0  0  0  0
    0.1120   -1.5170    1.1950 C   0  0  0  0  0  0  0  0  0  0  0  0
   -1.2080   -1.7200    1.2440 N   0  0  0  0  0  0  0  0  0  0  0  0
   -1.7760   -0.9850    0.2520 C   0  0  0  0  0  0  0  0  0  0  0  0
   -3.2280   -0.8640   -0.0840 C   0  0  2  0  0  0  0  0  0  0  0  0
   -3.5340   -2.0570   -0.7620 O   0  0  0  0  0  0  0  0  0  0  0  0
   -3.3930    0.2610   -1.0600 C   0  0  0  0  0  0  0  0  0  0  0  0
   -4.8340    0.7330   -1.1520 C   0  0  0  0  0  0  0  0  0  0  0  0
   -5.1640    1.5240   -0.0650 O   0  0  0  0  0  0  0  0  0  0  0  0
   -4.7760    0.6610    1.3680 P   0  0  0  0  0  0  0  0  0  0  0  0
   -4.0480    1.6280    2.5600 O   0  0  0  0  0  0  0  0  0  0  0  0
   -4.0060   -0.8110    1.0250 O   0  0  0  0  0  0  0  0  0  0  0  0
   -0.7530   -0.3650   -0.3700 N   0  0  0  0  0  0  0  0  0  0  0  0
  1  2  2  0
  2  3  1  0
  2 11  1  0
  3  4  1  0
  4  5  1  0
  4  9  1  0
  5  6  2  0
  5  7  1  0
  7  8  1  0
  8  9  1  0
  9 10  2  0
 11 12  1  0
 11 23  1  0
 12 13  2  0
 13 14  1  0
 14 15  1  0
 14 23  2  0
 15 16  1  6
 15 17  1  0
 15 22  1  0
 17 18  1  0
 18 19  1  0
 19 20  1  0
 20 21  1  0
 20 22  1  0
M  END
