
     RDKit          3D

 23 24  0  0  0  0  0  0  0  0999 V2000
    0.3130    0.0980    1.7450 C   0  0  0  0  0  0  0  0  0  0  0  0
    0.2330    0.0540    0.3270 N   0  0  0  0  0  0  0  0  0  0  0  0
    0.1730   -1.2470   -0.2500 C   0  0  0  0  0  0  0  0  0  0  0  0
   -0.7210   -2.1720    0.4680 C   0  0  0  0  0  0  0  0  0  0  0  0
   -0.2150   -2.7550    1.4910 O   0  0  0  0  0  0  0  0  0  0  0  0
   -2.0960   -2.4980    0.1540 C   0  0  0  0  0  0  0  0  0  0  0  0
   -2.3460   -3.7680   -0.0130 O   0  0  0  0  0  0  0  0  0  0  0  0
   -3.1470   -1.6460    0.0120 O   0  0  0  0  0  0  0  0  0  0  0  0
   -3.7610   -0.7920    0.9290 C   0  0  0  0  0  0  0  0  0  0  0  0
   -3.3090    0.6090    0.7260 C   0  0  0  0  0  0  0  0  0  0  0  0
   -3.6480    1.8170    1.2010 N   0  0  0  0  0  0  0  0  0  0  0  0
   -2.8660    2.7350    0.6560 N   0  0  0  0  0  0  0  0  0  0  0  0
   -2.0240    2.0980   -0.1720 C   0  0  0  0  0  0  0  0  0  0  0  0
   -2.3090    0.8010   -0.1170 N   0  0  0  0  0  0  0  0  0  0  0  0
   -0.9600    2.6030   -1.0120 N   0  0  0  0  0  0  0  0  0  0  0  0
    0.2120    1.8550   -1.3080 C   0  0  0  0  0  0  0  0  0  0  0  0
    0.6100    1.9350   -2.5200 O   0  0  0  0  0  0  0  0  0  0  0  0
    0.9810    1.0260   -0.3720 C   0  0  2  0  0  0  0  0  0  0  0  0
    2.1710    0.4310   -1.1280 C   0  0  0  0  0  0  0  0  0  0  0  0
    3.0440   -0.2050   -0.2120 O   0  0  0  0  0  0  0  0  0  0  0  0
    4.3980   -0.8900   -1.0150 P   0  0  0  0  0  0  0  0  0  0  0  0
    4.1090   -2.5140   -1.5380 O   0  0  0  0  0  0  0  0  0  0  0  0
    5.8360   -0.7800   -0.0480 O   0  0  0  0  0  0  0  0  0  0  0  0
  1  2  1  0
  2  3  1  0
  2 18  1  0
  3  4  1  0
  4  5  2  0
  4  6  1  0
  6  7  2  0
  6  8  1  0
  8  9  1  0
  9 10  1  0
 10 11  2  0
 10 14  1  0
 11 12  1  0
 12 13  1  0
 13 14  2  0
 13 15  1  0
 15 16  1  0
 16 17  2  0
 16 18  1  0
 18 19  1  6
 19 20  1  0
 20 21  1  0
 21 22  1  0
 21 23  1  0
M  END
