
     RDKit          3D

 16 16  0  0  0  0  0  0  0  0999 V2000
    6.0780   -0.8560    0.3920 O   0  0  0  0  0  0  0  0  0  0  0  0
    4.7900   -0.9370    0.1450 O   0  0  0  0  0  0  0  0  0  0  0  0
    4.0360   -0.1960    1.0390 C   0  0  0  0  0  0  0  0  0  0  0  0
    2.5800   -0.3420    0.6880 C   0  0  0  0  0  0  0  0  0  0  0  0
    2.3330    0.1090   -0.5880 O   0  0  0  0  0  0  0  0  0  0  0  0
    1.0510   -0.0350   -0.8590 O   0  0  0  0  0  0  0  0  0  0  0  0
    0.3650    1.1660   -0.7820 C   0  0  0  0  0  0  0  0  0  0  0  0
   -1.0830    0.9140   -1.1030 C   0  0  0  0  0  0  0  0  0  0  0  0
   -1.6720   -0.0670   -0.1200 C   0  0  1  0  0  0  0  0  0  0  0  0
   -0.7890   -1.7630   -0.1260 Br  0  0  0  0  0  0  0  0  0  0  0  0
   -1.6310    0.4330    1.1890 O   0  0  0  0  0  0  0  0  0  0  0  0
   -2.4960   -0.3670    1.8170 O   0  0  0  0  0  0  0  0  0  0  0  0
   -3.6730   -0.0450    1.1040 C   0  0  0  0  0  0  0  0  0  0  0  0
   -3.1650   -0.1990   -0.3350 C   0  0  2  0  0  0  0  0  0  0  0  0
   -3.4680   -1.4420   -0.8450 O   0  0  0  0  0  0  0  0  0  0  0  0
   -4.1830   -1.2720   -1.9360 O   0  0  0  0  0  0  0  0  0  0  0  0
  1  2  1  0
  2  3  1  0
  3  4  1  0
  4  5  1  0
  5  6  1  0
  6  7  1  0
  7  8  1  0
  8  9  1  0
  9 10  1  1
  9 11  1  0
  9 14  1  0
 11 12  1  0
 12 13  1  0
 13 14  1  0
 14 15  1  1
 15 16  1  0
M  END
