
     RDKit          3D

 23 24  0  0  0  0  0  0  0  0999 V2000
    3.4740   -2.1770   -0.2110 N   0  0  0  0  0  0  0  0  0  0  0  0
    3.3490   -0.9100    0.0310 C   0  0  0  0  0  0  0  0  0  0  0  0
    4.5770   -0.3130    0.4910 N   0  0  0  0  0  0  0  0  0  0  0  0
    4.3560    1.2200    1.4440 P   0  0  0  0  0  0  0  0  0  0  0  0
    5.7960    2.1730    1.1280 O   0  0  0  0  0  0  0  0  0  0  0  0
    2.9950    1.9770    0.5750 O   0  0  0  0  0  0  0  0  0  0  0  0
    1.9190    1.1770    0.1090 C   0  0  0  0  0  0  0  0  0  0  0  0
    0.8480    1.8360   -0.0310 N   0  0  0  0  0  0  0  0  0  0  0  0
   -0.3790    1.5920   -0.4130 O   0  0  0  0  0  0  0  0  0  0  0  0
   -1.5290    1.9230    0.3090 C   0  0  1  0  0  0  0  0  0  0  0  0
   -1.7270    3.3890    0.3950 C   0  0  0  0  0  0  0  0  0  0  0  0
   -0.9390    4.2200   -0.1290 O   0  0  0  0  0  0  0  0  0  0  0  0
   -2.8210    3.8720    1.0770 O   0  0  0  0  0  0  0  0  0  0  0  0
   -2.7510    1.3370   -0.3930 C   0  0  0  0  0  0  0  0  0  0  0  0
   -3.2300    0.0740    0.2470 C   0  0  0  0  0  0  0  0  0  0  0  0
   -3.0750   -0.9920   -0.6580 O   0  0  0  0  0  0  0  0  0  0  0  0
   -2.6100   -2.0770    0.0800 C   0  0  0  0  0  0  0  0  0  0  0  0
   -1.5040   -2.8150   -0.6440 C   0  0  0  0  0  0  0  0  0  0  0  0
   -0.3330   -2.9840    0.2280 N   0  0  0  0  0  0  0  0  0  0  0  0
    0.6030   -1.9630    0.4480 C   0  0  0  0  0  0  0  0  0  0  0  0
    1.0960   -1.8300    1.5960 O   0  0  0  0  0  0  0  0  0  0  0  0
    1.0290   -1.0370   -0.6310 C   0  0  0  0  0  0  0  0  0  0  0  0
    2.1350   -0.1840   -0.1340 N   0  0  0  0  0  0  0  0  0  0  0  0
  1  2  2  0
  2  3  1  0
  2 23  1  0
  3  4  1  0
  4  5  1  0
  4  6  1  0
  6  7  1  0
  7  8  2  0
  7 23  1  0
  8  9  1  0
  9 10  1  0
 10 11  1  6
 10 14  1  0
 11 12  2  0
 11 13  1  0
 14 15  1  0
 15 16  1  0
 16 17  1  0
 17 18  1  0
 18 19  1  0
 19 20  1  0
 20 21  2  0
 20 22  1  0
 22 23  1  0
M  END
