
     RDKit          3D

  9  8  0  0  0  0  0  0  0  0999 V2000
    1.9160   -1.1840   -1.2210 O   0  0  0  0  0  0  0  0  0  0  0  0
    1.8880   -0.2350   -0.3530 C   0  0  0  0  0  0  0  0  0  0  0  0
    2.6040   -0.5110    0.8800 O   0  0  0  0  0  0  0  0  0  0  0  0
    1.2010    1.0480   -0.5290 C   0  0  0  0  0  0  0  0  0  0  0  0
   -0.0420    0.7640   -1.0070 O   0  0  0  0  0  0  0  0  0  0  0  0
   -1.0470    0.0510    0.0610 P   0  0  0  0  0  0  0  0  0  0  0  0
   -2.2610    0.8530    0.8960 O   0  0  0  0  0  0  0  0  0  0  0  0
   -0.7190   -1.5560    0.4250 O   0  0  0  0  0  0  0  0  0  0  0  0
   -2.0900   -0.3230   -1.0160 O   0  0  0  0  0  0  0  0  0  0  0  0
  1  2  2  0
  2  3  1  0
  2  4  1  0
  4  5  1  0
  5  6  1  0
  6  7  1  0
  6  8  1  0
  6  9  1  0
M  END
