
     RDKit          3D

 27 29  0  0  0  0  0  0  0  0999 V2000
    7.4290    1.9650    0.5530 C   0  0  0  0  0  0  0  0  0  0  0  0
    6.3520    1.2550    0.1410 O   0  0  0  0  0  0  0  0  0  0  0  0
    6.4940   -0.1010    0.1700 C   0  0  0  0  0  0  0  0  0  0  0  0
    5.2220   -0.7920   -0.2660 C   0  0  0  0  0  0  0  0  0  0  0  0
    4.1210   -0.1450   -0.5920 N   0  0  0  0  0  0  0  0  0  0  0  0
    3.1090   -0.5250   -0.9220 C   0  0  0  0  0  0  0  0  0  0  0  0
    1.7910    0.0290   -1.2440 N   0  0  0  0  0  0  0  0  0  0  0  0
    0.8910   -0.0850   -0.3160 C   0  0  0  0  0  0  0  0  0  0  0  0
    1.2050   -0.7160    0.9130 O   0  0  0  0  0  0  0  0  0  0  0  0
    0.1070   -0.7220    1.7460 C   0  0  0  0  0  0  0  0  0  0  0  0
    0.0380   -1.2120    2.9160 O   0  0  0  0  0  0  0  0  0  0  0  0
   -0.9470   -0.0590    1.0060 C   0  0  0  0  0  0  0  0  0  0  0  0
   -0.4790    0.3010   -0.1810 C   0  0  0  0  0  0  0  0  0  0  0  0
   -1.2650    0.9650   -1.2830 C   0  0  0  0  0  0  0  0  0  0  0  0
   -2.6520    1.0380   -0.7530 C   0  0  0  0  0  0  0  0  0  0  0  0
   -3.4030   -0.1450   -0.8780 C   0  0  0  0  0  0  0  0  0  0  0  0
   -4.6360   -0.3000   -0.3290 C   0  0  0  0  0  0  0  0  0  0  0  0
   -5.4450   -1.5180   -0.4300 C   0  0  0  0  0  0  0  0  0  0  0  0
   -5.1160    0.8200    0.3750 C   0  0  0  0  0  0  0  0  0  0  0  0
   -6.4250    0.6320    1.0650 C   0  0  0  0  0  0  0  0  0  0  0  0
   -7.4900    0.2770    0.1550 N   0  0  0  0  0  0  0  0  0  0  0  0
   -4.4090    1.9810    0.5050 C   0  0  0  0  0  0  0  0  0  0  0  0
   -3.1370    2.1090   -0.0680 C   0  0  0  0  0  0  0  0  0  0  0  0
   -2.4290    3.2960    0.0710 O   0  0  0  0  0  0  0  0  0  0  0  0
    3.3880   -2.3830   -0.8950 S   0  0  0  0  0  0  0  0  0  0  0  0
    5.1120   -2.1380   -0.3430 C   0  0  0  0  0  0  0  0  0  0  0  0
    6.0250   -3.2770   -0.0680 C   0  0  0  0  0  0  0  0  0  0  0  0
  1  2  1  0
  2  3  1  0
  3  4  1  0
  4  5  1  0
  4 26  2  0
  5  6  2  0
  6  7  1  0
  6 25  1  0
  7  8  2  3
  8  9  1  0
  8 13  1  0
  9 10  1  0
 10 11  2  0
 10 12  1  0
 12 13  2  0
 13 14  1  0
 14 15  1  0
 15 16  2  0
 15 23  1  0
 16 17  1  0
 17 18  1  0
 17 19  2  0
 19 20  1  0
 19 22  1  0
 20 21  1  0
 22 23  2  0
 23 24  1  0
 25 26  1  0
 26 27  1  0
M  END
