
     RDKit          3D

 27 29  0  0  0  0  0  0  0  0999 V2000
    6.7140    3.3110    0.4960 C   0  0  0  0  0  0  0  0  0  0  0  0
    7.0210    1.9590    0.3450 O   0  0  0  0  0  0  0  0  0  0  0  0
    6.0980    1.0090   -0.0950 C   0  0  0  0  0  0  0  0  0  0  0  0
    4.8020    1.3840   -0.4080 C   0  0  0  0  0  0  0  0  0  0  0  0
    3.8610    0.4470   -0.8510 C   0  0  0  0  0  0  0  0  0  0  0  0
    4.2020   -0.8820   -0.9880 C   0  0  0  0  0  0  0  0  0  0  0  0
    3.2510   -1.8080   -1.4320 N   0  0  0  0  0  0  0  0  0  0  0  0
    2.1980   -2.1660   -0.8410 C   0  0  0  0  0  0  0  0  0  0  0  0
    1.5580   -1.8600    0.3680 N   0  0  0  0  0  0  0  0  0  0  0  0
    0.1490   -2.0390    0.3850 C   0  0  0  0  0  0  0  0  0  0  0  0
   -0.5200   -1.7980    1.4330 O   0  0  0  0  0  0  0  0  0  0  0  0
   -0.4170   -2.5030   -0.8370 C   0  0  0  0  0  0  0  0  0  0  0  0
   -1.5050   -2.4190   -1.4780 C   0  0  0  0  0  0  0  0  0  0  0  0
   -2.7840   -1.7810   -1.3030 C   0  0  0  0  0  0  0  0  0  0  0  0
   -3.6450   -2.0030   -2.2210 O   0  0  0  0  0  0  0  0  0  0  0  0
   -3.1980   -0.9530   -0.2650 N   0  0  0  0  0  0  0  0  0  0  0  0
   -4.4810   -0.3280   -0.0950 C   0  0  0  0  0  0  0  0  0  0  0  0
   -5.5310   -0.4440   -0.9470 C   0  0  0  0  0  0  0  0  0  0  0  0
   -6.7460    0.1960   -0.7120 C   0  0  0  0  0  0  0  0  0  0  0  0
   -6.8930    0.9600    0.4010 C   0  0  0  0  0  0  0  0  0  0  0  0
   -5.8270    1.0790    1.2690 C   0  0  0  0  0  0  0  0  0  0  0  0
   -4.6290    0.4550    1.0480 C   0  0  0  0  0  0  0  0  0  0  0  0
   -3.5760    0.6040    1.9560 O   0  0  0  0  0  0  0  0  0  0  0  0
   -3.7140    1.3940    3.1150 C   0  0  0  0  0  0  0  0  0  0  0  0
    1.0510   -3.3980   -1.5600 S   0  0  0  0  0  0  0  0  0  0  0  0
    5.4990   -1.2300   -0.6700 C   0  0  0  0  0  0  0  0  0  0  0  0
    6.4330   -0.3200   -0.2340 C   0  0  0  0  0  0  0  0  0  0  0  0
  1  2  1  0
  2  3  1  0
  3  4  2  0
  3 27  1  0
  4  5  1  0
  5  6  2  0
  6  7  1  0
  6 26  1  0
  7  8  2  3
  8  9  1  0
  8 25  1  0
  9 10  1  0
 10 11  2  0
 10 12  1  0
 12 13  2  3
 12 25  1  0
 13 14  1  0
 14 15  2  0
 14 16  1  0
 16 17  1  0
 17 18  2  0
 17 22  1  0
 18 19  1  0
 19 20  2  0
 20 21  1  0
 21 22  2  0
 22 23  1  0
 23 24  1  0
 26 27  2  0
M  END
