
     RDKit          3D

 27 29  0  0  0  0  0  0  0  0999 V2000
    0.5400   -3.8630    1.7590 C   0  0  0  0  0  0  0  0  0  0  0  0
    0.0700   -2.4840    1.9160 N   0  0  0  0  0  0  0  0  0  0  0  0
   -0.3170   -1.7890    0.7520 C   0  0  0  0  0  0  0  0  0  0  0  0
   -1.6540   -1.7840    0.3200 N   0  0  0  0  0  0  0  0  0  0  0  0
   -2.5040   -0.6640    0.4150 C   0  0  0  0  0  0  0  0  0  0  0  0
   -2.0220    0.5050    0.9580 C   0  0  0  0  0  0  0  0  0  0  0  0
   -2.8470    1.5950    1.0520 C   0  0  0  0  0  0  0  0  0  0  0  0
   -2.3670    2.7720    1.5970 O   0  0  0  0  0  0  0  0  0  0  0  0
   -1.0410    2.8370    2.0490 C   0  0  0  0  0  0  0  0  0  0  0  0
   -4.1400    1.5200    0.6070 C   0  0  0  0  0  0  0  0  0  0  0  0
   -4.5920    0.3730    0.0810 N   0  0  0  0  0  0  0  0  0  0  0  0
   -3.7980   -0.7140   -0.0220 C   0  0  0  0  0  0  0  0  0  0  0  0
   -4.2690   -1.8970   -0.5660 O   0  0  0  0  0  0  0  0  0  0  0  0
   -5.5850   -1.9770   -1.0190 C   0  0  0  0  0  0  0  0  0  0  0  0
    0.6160   -1.1390    0.0730 C   0  0  0  0  0  0  0  0  0  0  0  0
    2.0080   -1.1090    0.4700 C   0  0  0  0  0  0  0  0  0  0  0  0
    2.3140   -1.3120    1.6610 O   0  0  0  0  0  0  0  0  0  0  0  0
    3.0460   -0.8410   -0.5310 C   0  0  0  0  0  0  0  0  0  0  0  0
    2.6770    0.1570   -1.5900 C   0  0  2  0  0  0  0  0  0  0  0  0
    3.5550    1.3370   -1.5970 C   0  0  0  0  0  0  0  0  0  0  0  0
    3.8700    2.2980   -0.7440 C   0  0  0  0  0  0  0  0  0  0  0  0
    4.7420    3.2690   -1.0670 C   0  0  0  0  0  0  0  0  0  0  0  0
    5.3120    3.2640   -2.2930 C   0  0  0  0  0  0  0  0  0  0  0  0
    4.5360    1.7490   -3.0390 S   0  0  0  0  0  0  0  0  0  0  0  0
    1.2620    0.6650   -1.5090 C   0  0  0  0  0  0  0  0  0  0  0  0
    0.2830   -0.3900   -1.1540 C   0  0  0  0  0  0  0  0  0  0  0  0
   -0.7450   -0.6680   -1.7910 O   0  0  0  0  0  0  0  0  0  0  0  0
  1  2  1  0
  2  3  1  0
  3  4  1  0
  3 15  2  3
  4  5  1  0
  5  6  2  0
  5 12  1  0
  6  7  1  0
  7  8  1  0
  7 10  2  0
  8  9  1  0
 10 11  1  0
 11 12  2  0
 12 13  1  0
 13 14  1  0
 15 16  1  0
 15 26  1  0
 16 17  2  0
 16 18  1  0
 18 19  1  0
 19 20  1  1
 19 25  1  0
 20 21  2  0
 20 24  1  0
 21 22  1  0
 22 23  2  0
 23 24  1  0
 25 26  1  0
 26 27  2  0
M  END
