
     RDKit          3D

 27 29  0  0  0  0  0  0  0  0999 V2000
    9.5140    2.0020   -0.1430 C   0  0  0  0  0  0  0  0  0  0  0  0
    8.4960    1.0770   -0.4980 O   0  0  0  0  0  0  0  0  0  0  0  0
    7.1950    1.2900   -0.0710 C   0  0  0  0  0  0  0  0  0  0  0  0
    6.9720    2.3060    0.6200 O   0  0  0  0  0  0  0  0  0  0  0  0
    6.1320    0.3350   -0.4340 C   0  0  0  0  0  0  0  0  0  0  0  0
    4.7900    0.7670    0.1400 C   0  0  0  0  0  0  0  0  0  0  0  0
    3.7300   -0.2420   -0.2580 C   0  0  0  0  0  0  0  0  0  0  0  0
    4.0530   -1.2310   -0.9550 O   0  0  0  0  0  0  0  0  0  0  0  0
    2.3990   -0.0840    0.1410 N   0  0  0  0  0  0  0  0  0  0  0  0
    1.3110   -0.9280   -0.1390 C   0  0  0  0  0  0  0  0  0  0  0  0
    1.5070   -2.1920   -0.6220 C   0  0  0  0  0  0  0  0  0  0  0  0
    0.4300   -3.0340   -0.9190 C   0  0  0  0  0  0  0  0  0  0  0  0
   -0.8490   -2.5440   -0.7080 C   0  0  0  0  0  0  0  0  0  0  0  0
   -1.1010   -1.2830   -0.2250 C   0  0  0  0  0  0  0  0  0  0  0  0
   -2.3800   -0.7280   -0.0020 N   0  0  0  0  0  0  0  0  0  0  0  0
   -3.6320   -1.2460   -0.3660 C   0  0  0  0  0  0  0  0  0  0  0  0
   -3.6580   -2.3670   -0.9730 O   0  0  0  0  0  0  0  0  0  0  0  0
   -4.8910   -0.6320   -0.1150 N   0  0  0  0  0  0  0  0  0  0  0  0
   -6.1230   -1.3380   -0.4750 C   0  0  0  0  0  0  0  0  0  0  0  0
   -6.9520   -1.6970    0.7300 C   0  0  0  0  0  0  0  0  0  0  0  0
   -6.9980   -0.4340    2.0040 S   0  0  0  0  0  0  0  0  0  0  0  0
   -5.9660    0.9370    1.5270 C   0  0  0  0  0  0  0  0  0  0  0  0
   -5.8610    2.1970    1.8960 C   0  0  0  0  0  0  0  0  0  0  0  0
   -4.7890    2.8460    1.1130 C   0  0  0  0  0  0  0  0  0  0  0  0
   -4.2970    1.7650    0.2130 C   0  0  0  0  0  0  0  0  0  0  0  0
   -4.9760    0.6590    0.4610 C   0  0  0  0  0  0  0  0  0  0  0  0
    0.0040   -0.4960    0.0510 C   0  0  0  0  0  0  0  0  0  0  0  0
  1  2  1  0
  2  3  1  0
  3  4  2  0
  3  5  1  0
  5  6  1  0
  6  7  1  0
  7  8  2  0
  7  9  1  0
  9 10  1  0
 10 11  2  0
 10 27  1  0
 11 12  1  0
 12 13  2  0
 13 14  1  0
 14 15  1  0
 14 27  2  0
 15 16  1  0
 16 17  2  0
 16 18  1  0
 18 19  1  0
 18 26  1  0
 19 20  1  0
 20 21  1  0
 21 22  1  0
 22 23  2  0
 22 26  1  0
 23 24  1  0
 24 25  1  0
 25 26  2  0
M  END
