
     RDKit          3D

 27 29  0  0  0  0  0  0  0  0999 V2000
   -7.1930    2.1340    0.4430 C   0  0  0  0  0  0  0  0  0  0  0  0
   -6.3810    1.1560    0.1440 C   0  0  0  0  0  0  0  0  0  0  0  0
   -6.4720   -0.5120    0.8730 S   0  0  0  0  0  0  0  0  0  0  0  0
   -4.7560   -0.9790    0.5180 C   0  0  0  0  0  0  0  0  0  0  0  0
   -4.2200    0.1460   -0.2700 C   0  0  0  0  0  0  0  0  0  0  0  0
   -2.9600    0.3060   -0.5040 N   0  0  0  0  0  0  0  0  0  0  0  0
   -2.0540   -0.6200    0.0060 N   0  0  0  0  0  0  0  0  0  0  0  0
   -0.6410   -0.3150   -0.1030 C   0  0  0  0  0  0  0  0  0  0  0  0
   -0.3770    0.7790   -0.6610 O   0  0  0  0  0  0  0  0  0  0  0  0
    0.2880   -1.2720    0.4240 C   0  0  0  0  0  0  0  0  0  0  0  0
    1.5720   -1.1840    0.4220 C   0  0  0  0  0  0  0  0  0  0  0  0
    2.3830   -0.1340   -0.0940 C   0  0  0  0  0  0  0  0  0  0  0  0
    1.9690    0.9220   -0.6550 O   0  0  0  0  0  0  0  0  0  0  0  0
    3.8610   -0.2270    0.0050 C   0  0  0  0  0  0  0  0  0  0  0  0
    4.5110   -1.2920    0.5780 C   0  0  0  0  0  0  0  0  0  0  0  0
    5.9020   -1.3380    0.6490 C   0  0  0  0  0  0  0  0  0  0  0  0
    6.6120   -0.3000    0.1360 C   0  0  0  0  0  0  0  0  0  0  0  0
    6.0070    0.7820   -0.4440 C   0  0  0  0  0  0  0  0  0  0  0  0
    4.6460    0.8030   -0.5020 C   0  0  0  0  0  0  0  0  0  0  0  0
    7.0170    1.6740   -0.8720 N   0  0  0  0  0  0  0  0  0  0  0  0
    8.2880    1.0820   -0.5270 C   0  0  0  0  0  0  0  0  0  0  0  0
    8.0020   -0.1350    0.0980 O   0  0  0  0  0  0  0  0  0  0  0  0
   -0.2570   -2.4620    1.0210 O   0  0  0  0  0  0  0  0  0  0  0  0
   -0.0570   -3.6700    0.2920 C   0  0  0  0  0  0  0  0  0  0  0  0
   -5.2500    1.0520   -0.7610 C   0  0  0  0  0  0  0  0  0  0  0  0
   -5.1820    1.7080   -1.9050 C   0  0  0  0  0  0  0  0  0  0  0  0
   -6.2110    2.6230   -2.4350 C   0  0  0  0  0  0  0  0  0  0  0  0
  1  2  2  0
  2  3  1  0
  2 25  1  0
  3  4  1  0
  4  5  1  0
  5  6  2  3
  5 25  1  0
  6  7  1  0
  7  8  1  0
  8  9  2  0
  8 10  1  0
 10 11  2  3
 10 23  1  0
 11 12  1  0
 12 13  2  0
 12 14  1  0
 14 15  2  0
 14 19  1  0
 15 16  1  0
 16 17  2  0
 17 18  1  0
 17 22  1  0
 18 19  2  0
 18 20  1  0
 20 21  1  0
 21 22  1  0
 23 24  1  0
 25 26  2  3
 26 27  1  0
M  END
