
     RDKit          3D

 22 22  0  0  0  0  0  0  0  0999 V2000
   -3.1680   -2.4330    1.8920 C   0  0  0  0  0  0  0  0  0  0  0  0
   -2.6070   -1.9870    0.5370 C   0  0  0  0  0  0  0  0  0  0  0  0
   -1.4700   -2.5650    0.2120 C   0  0  0  0  0  0  0  0  0  0  0  0
   -0.6330   -2.4170   -0.9590 C   0  0  0  0  0  0  0  0  0  0  0  0
   -0.7390   -3.3460   -1.8750 O   0  0  0  0  0  0  0  0  0  0  0  0
    0.2790   -1.4350   -1.2700 O   0  0  0  0  0  0  0  0  0  0  0  0
    1.4420   -1.0810   -0.5450 C   0  0  0  0  0  0  0  0  0  0  0  0
    2.0250    0.2120   -1.0410 C   0  0  2  0  0  0  0  0  0  0  0  0
    3.4730    0.3860   -0.7170 C   0  0  0  0  0  0  0  0  0  0  0  0
    4.3980   -0.6480   -1.2830 C   0  0  0  0  0  0  0  0  0  0  0  0
    5.7130   -0.3350   -0.8910 O   0  0  0  0  0  0  0  0  0  0  0  0
    1.2530    1.2550   -0.4890 O   0  0  0  0  0  0  0  0  0  0  0  0
    1.6380    1.5610    0.8080 C   0  0  0  0  0  0  0  0  0  0  0  0
    0.5640    2.3370    1.5370 C   0  0  1  0  0  0  0  0  0  0  0  0
    1.0300    3.5930    1.9020 O   0  0  0  0  0  0  0  0  0  0  0  0
   -0.6540    2.5410    0.6520 C   0  0  0  0  0  0  0  0  0  0  0  0
   -1.6020    1.3670    0.7480 C   0  0  2  0  0  0  0  0  0  0  0  0
   -1.0130    0.3610    1.4510 O   0  0  0  0  0  0  0  0  0  0  0  0
   -2.0840    1.0330   -0.6300 C   0  0  0  0  0  0  0  0  0  0  0  0
   -3.2460    0.1310   -0.6660 C   0  0  0  0  0  0  0  0  0  0  0  0
   -3.4310   -1.0550   -0.1990 C   0  0  0  0  0  0  0  0  0  0  0  0
   -4.7700   -1.5600   -0.4780 O   0  0  0  0  0  0  0  0  0  0  0  0
  1  2  1  0
  2  3  2  0
  2 21  1  0
  3  4  1  0
  4  5  2  0
  4  6  1  0
  6  7  1  0
  7  8  1  0
  8  9  1  1
  8 12  1  0
  9 10  1  0
 10 11  1  0
 12 13  1  0
 13 14  1  0
 14 15  1  6
 14 16  1  0
 16 17  1  0
 17 18  1  6
 17 19  1  0
 19 20  1  0
 20 21  2  0
 21 22  1  0
M  END
