
     RDKit          3D

 22 23  0  0  0  0  0  0  0  0999 V2000
    3.5760    2.3130   -2.1820 C   0  0  0  0  0  0  0  0  0  0  0  0
    3.9440    1.6910   -1.0950 C   0  0  0  0  0  0  0  0  0  0  0  0
    4.7090    2.3600   -0.1460 O   0  0  0  0  0  0  0  0  0  0  0  0
    4.6140    2.0280    1.1600 O   0  0  0  0  0  0  0  0  0  0  0  0
    4.9030    0.7010    1.3090 C   0  0  0  0  0  0  0  0  0  0  0  0
    4.0890   -0.1230    0.3820 C   0  0  0  0  0  0  0  0  0  0  0  0
    3.6130    0.3090   -0.7730 C   0  0  0  0  0  0  0  0  0  0  0  0
    2.8730   -0.4650   -1.6030 O   0  0  0  0  0  0  0  0  0  0  0  0
    1.5080   -0.4560   -1.8090 C   0  0  0  0  0  0  0  0  0  0  0  0
    0.7020   -0.7510   -0.5490 C   0  0  1  0  0  0  0  0  0  0  0  0
    0.9530    0.1760    0.4320 O   0  0  0  0  0  0  0  0  0  0  0  0
   -0.7480   -0.7960   -0.9800 C   0  0  1  0  0  0  0  0  0  0  0  0
   -0.8680   -1.7630   -1.9650 O   0  0  0  0  0  0  0  0  0  0  0  0
   -1.6820   -1.0250    0.1790 C   0  0  2  0  0  0  0  0  0  0  0  0
   -1.4320   -2.3060    0.8990 C   0  0  0  0  0  0  0  0  0  0  0  0
   -2.3530   -2.4020    1.9420 O   0  0  0  0  0  0  0  0  0  0  0  0
   -3.0910   -1.0790   -0.3900 C   0  0  0  0  0  0  0  0  0  0  0  0
   -3.6060    0.3190   -0.6890 C   0  0  0  0  0  0  0  0  0  0  0  0
   -3.7400    1.1390    0.5720 C   0  0  2  0  0  0  0  0  0  0  0  0
   -3.2240    2.4120    0.3050 O   0  0  0  0  0  0  0  0  0  0  0  0
   -2.9370    0.5260    1.7000 C   0  0  0  0  0  0  0  0  0  0  0  0
   -1.5850    0.1230    1.1330 C   0  0  0  0  0  0  0  0  0  0  0  0
  1  2  2  0
  2  3  1  0
  2  7  1  0
  3  4  1  0
  4  5  1  0
  5  6  1  0
  6  7  2  0
  7  8  1  0
  8  9  1  0
  9 10  1  0
 10 11  1  1
 10 12  1  0
 12 13  1  6
 12 14  1  0
 14 15  1  1
 14 17  1  0
 14 22  1  0
 15 16  1  0
 17 18  1  0
 18 19  1  0
 19 20  1  6
 19 21  1  0
 21 22  1  0
M  END
