
     RDKit          3D

 23 25  0  0  0  0  0  0  0  0999 V2000
   -4.4120   -2.9700   -1.2220 C   0  0  0  0  0  0  0  0  0  0  0  0
   -3.8200   -2.4840    0.0580 C   0  0  0  0  0  0  0  0  0  0  0  0
   -3.1860   -1.1620   -0.0480 C   0  0  0  0  0  0  0  0  0  0  0  0
   -4.0110   -0.0350   -0.0930 C   0  0  0  0  0  0  0  0  0  0  0  0
   -5.4260   -0.1900   -0.0370 N   0  0  0  0  0  0  0  0  0  0  0  0
   -3.4160    1.1220   -0.1850 O   0  0  0  0  0  0  0  0  0  0  0  0
   -2.1070    1.3010   -0.2400 C   0  0  0  0  0  0  0  0  0  0  0  0
   -1.6100    2.5870   -0.3350 C   0  0  0  0  0  0  0  0  0  0  0  0
   -2.7020    3.9480   -0.3850 Cl  0  0  0  0  0  0  0  0  0  0  0  0
   -0.2480    2.7510   -0.3880 C   0  0  0  0  0  0  0  0  0  0  0  0
    0.3090    4.1440   -0.4920 C   0  0  0  0  0  0  0  0  0  0  0  0
    0.6370    1.7070   -0.3530 C   0  0  0  0  0  0  0  0  0  0  0  0
    0.1310    0.4120   -0.2570 C   0  0  0  0  0  0  0  0  0  0  0  0
    1.0040   -0.6910   -0.2830 N   0  0  0  0  0  0  0  0  0  0  0  0
    2.4070   -0.4860   -0.0580 C   0  0  0  0  0  0  0  0  0  0  0  0
    2.9370    0.3050    0.8430 N   0  0  0  0  0  0  0  0  0  0  0  0
    4.3670    0.2630    0.7830 C   0  0  1  0  0  0  0  0  0  0  0  0
    4.9650    0.0510    2.1750 C   0  0  0  0  0  0  0  0  0  0  0  0
    4.7380   -0.9560   -0.0430 C   0  0  0  0  0  0  0  0  0  0  0  0
    3.4660   -1.1940   -0.8260 C   0  0  0  0  0  0  0  0  0  0  0  0
   -1.2380    0.1960   -0.2000 C   0  0  0  0  0  0  0  0  0  0  0  0
   -1.8190   -1.0520   -0.1000 C   0  0  0  0  0  0  0  0  0  0  0  0
   -1.1550   -2.0910   -0.0540 O   0  0  0  0  0  0  0  0  0  0  0  0
  1  2  1  0
  2  3  1  0
  3  4  2  0
  3 22  1  0
  4  5  1  0
  4  6  1  0
  6  7  1  0
  7  8  2  0
  7 21  1  0
  8  9  1  0
  8 10  1  0
 10 11  1  0
 10 12  2  0
 12 13  1  0
 13 14  1  0
 13 21  2  0
 14 15  1  0
 15 16  2  0
 15 20  1  0
 16 17  1  0
 17 18  1  1
 17 19  1  0
 19 20  1  0
 21 22  1  0
 22 23  2  0
M  CHG  1  16   1
M  END
