
     RDKit          3D

 21 22  0  0  0  0  0  0  0  0999 V2000
    4.0720   -2.0180    0.9480 C   0  0  0  0  0  0  0  0  0  0  0  0
    3.3390   -1.1950    0.0600 O   0  0  0  0  0  0  0  0  0  0  0  0
    2.2300   -0.5280    0.5000 C   0  0  0  0  0  0  0  0  0  0  0  0
    1.8500   -0.6370    1.6930 O   0  0  0  0  0  0  0  0  0  0  0  0
    1.4130    0.3560   -0.3900 C   0  0  2  0  0  0  0  0  0  0  0  0
    2.3530    1.4500   -0.8570 C   0  0  0  0  0  0  0  0  0  0  0  0
    2.9180    2.2490    0.2740 C   0  0  0  0  0  0  0  0  0  0  0  0
    3.6260    1.3630    1.1050 O   0  0  0  0  0  0  0  0  0  0  0  0
    0.1930    0.8610    0.2880 C   0  0  1  0  0  0  0  0  0  0  0  0
    0.0390    2.2430    0.1920 O   0  0  0  0  0  0  0  0  0  0  0  0
   -1.0190    0.1730   -0.3290 C   0  0  2  0  0  0  0  0  0  0  0  0
   -2.1570    1.1340   -0.2100 C   0  0  0  0  0  0  0  0  0  0  0  0
   -3.2310    0.6880    0.7410 C   0  0  0  0  0  0  0  0  0  0  0  0
   -4.1540   -0.2080   -0.0480 C   0  0  0  0  0  0  0  0  0  0  0  0
   -3.5010   -1.4240   -0.5820 C   0  0  0  0  0  0  0  0  0  0  0  0
   -2.3360   -1.9420    0.1820 C   0  0  0  0  0  0  0  0  0  0  0  0
   -1.1900   -1.1020    0.4330 C   0  0  0  0  0  0  0  0  0  0  0  0
   -0.5400   -0.0190   -1.7380 C   0  0  1  0  0  0  0  0  0  0  0  0
   -0.7410    1.1690   -2.4380 O   0  0  0  0  0  0  0  0  0  0  0  0
    0.9280   -0.3640   -1.6170 C   0  0  2  0  0  0  0  0  0  0  0  0
    1.1740   -1.7210   -1.6050 O   0  0  0  0  0  0  0  0  0  0  0  0
  1  2  1  0
  2  3  1  0
  3  4  2  0
  3  5  1  0
  5  6  1  6
  5  9  1  0
  5 20  1  0
  6  7  1  0
  7  8  1  0
  9 10  1  6
  9 11  1  0
 11 12  1  6
 11 17  1  0
 11 18  1  0
 12 13  1  0
 13 14  1  0
 14 15  1  0
 15 16  1  0
 16 17  1  0
 18 19  1  6
 18 20  1  0
 20 21  1  1
M  END
