
     RDKit          3D

 24 26  0  0  0  0  0  0  0  0999 V2000
    6.0930    1.3510    1.2110 C   0  0  0  0  0  0  0  0  0  0  0  0
    5.2530    0.5760    0.5450 C   0  0  0  0  0  0  0  0  0  0  0  0
    5.1100    0.6280   -0.9340 C   0  0  0  0  0  0  0  0  0  0  0  0
    4.3520   -0.6200   -1.2710 C   0  0  1  0  0  0  0  0  0  0  0  0
    5.1990   -1.7180   -1.2670 O   0  0  0  0  0  0  0  0  0  0  0  0
    3.3650   -0.7270   -0.1080 C   0  0  2  0  0  0  0  0  0  0  0  0
    2.3620    0.2950   -0.2560 N   0  0  0  0  0  0  0  0  0  0  0  0
    0.9510    0.0250   -0.3130 C   0  0  0  0  0  0  0  0  0  0  0  0
    0.6260   -1.1560   -0.2270 O   0  0  0  0  0  0  0  0  0  0  0  0
   -0.0030    1.0420   -0.4580 N   0  0  0  0  0  0  0  0  0  0  0  0
   -1.3870    0.8460   -0.5170 C   0  0  0  0  0  0  0  0  0  0  0  0
   -2.2060    1.9590   -0.7610 C   0  0  0  0  0  0  0  0  0  0  0  0
   -3.5780    1.8910   -0.8340 C   0  0  0  0  0  0  0  0  0  0  0  0
   -4.2110    0.6760   -0.6640 C   0  0  0  0  0  0  0  0  0  0  0  0
   -3.4380   -0.4360   -0.4230 C   0  0  0  0  0  0  0  0  0  0  0  0
   -2.0620   -0.3320   -0.3550 C   0  0  0  0  0  0  0  0  0  0  0  0
   -4.1770   -1.7100   -0.2440 C   0  0  0  0  0  0  0  0  0  0  0  0
   -5.2940   -1.4040    0.7330 C   0  0  0  0  0  0  0  0  0  0  0  0
   -6.1880   -0.3980    0.2730 N   0  0  0  0  0  0  0  0  0  0  0  0
   -5.6670    0.4970   -0.7270 C   0  0  0  0  0  0  0  0  0  0  0  0
    4.3300   -0.4300    1.0150 C   0  0  0  0  0  0  0  0  0  0  0  0
    4.3000   -1.0120    2.1690 C   0  0  0  0  0  0  0  0  0  0  0  0
    3.3580   -1.9420    2.4500 F   0  0  0  0  0  0  0  0  0  0  0  0
    5.4580   -0.6530    3.4070 Cl  0  0  0  0  0  0  0  0  0  0  0  0
  1  2  2  0
  2  3  1  0
  2 21  1  0
  3  4  1  0
  4  5  1  1
  4  6  1  0
  6  7  1  6
  6 21  1  0
  7  8  1  0
  8  9  2  0
  8 10  1  0
 10 11  1  0
 11 12  2  0
 11 16  1  0
 12 13  1  0
 13 14  2  0
 14 15  1  0
 14 20  1  0
 15 16  2  0
 15 17  1  0
 17 18  1  0
 18 19  1  0
 19 20  1  0
 21 22  2  3
 22 23  1  0
 22 24  1  0
M  CHG  1  19   1
M  END
