
     RDKit          3D

 15 16  0  0  0  0  0  0  0  0999 V2000
    3.8990    0.6690    0.4800 C   0  0  0  0  0  0  0  0  0  0  0  0
    2.6330    0.7430   -0.3520 C   0  0  0  0  0  0  0  0  0  0  0  0
    2.3700   -0.5740   -1.0250 C   0  0  0  0  0  0  0  0  0  0  0  0
    1.1470   -0.6240   -1.8570 C   0  0  0  0  0  0  0  0  0  0  0  0
   -0.1250   -0.4250   -1.1600 C   0  0  0  0  0  0  0  0  0  0  0  0
   -1.3200   -0.3220   -1.7640 N   0  0  0  0  0  0  0  0  0  0  0  0
   -2.2830   -0.1720   -0.8410 C   0  0  0  0  0  0  0  0  0  0  0  0
   -3.6660   -0.0220   -0.9030 C   0  0  0  0  0  0  0  0  0  0  0  0
   -4.2270   -0.0140   -2.0340 O   0  0  0  0  0  0  0  0  0  0  0  0
   -4.3440    0.1080    0.2500 N   0  0  0  0  0  0  0  0  0  0  0  0
   -3.7480    0.0990    1.4300 N   0  0  0  0  0  0  0  0  0  0  0  0
   -2.4210   -0.0410    1.5670 C   0  0  0  0  0  0  0  0  0  0  0  0
   -1.8280   -0.0530    2.6770 O   0  0  0  0  0  0  0  0  0  0  0  0
   -1.6820   -0.1790    0.3990 C   0  0  0  0  0  0  0  0  0  0  0  0
   -0.3480   -0.3380    0.1470 N   0  0  0  0  0  0  0  0  0  0  0  0
  1  2  1  0
  2  3  1  0
  3  4  1  0
  4  5  1  0
  5  6  2  0
  5 15  1  0
  6  7  1  0
  7  8  1  0
  7 14  2  0
  8  9  2  0
  8 10  1  0
 10 11  1  0
 11 12  1  0
 12 13  2  0
 12 14  1  0
 14 15  1  0
M  END
