
     RDKit          3D

 40 43  0  0  0  0  0  0  0  0999 V2000
   -1.5100   -2.1410    0.6880 C   0  0  0  0  0  0  0  0  0  0  0  0
   -0.3360   -1.2080    0.3790 C   0  0  0  0  0  0  0  0  0  0  0  0
    0.8650   -1.5320    0.7480 N   0  0  0  0  0  0  0  0  0  0  0  0
    1.8950   -0.8100    0.5000 C   0  0  0  0  0  0  0  0  0  0  0  0
    3.3590   -1.0110    0.8400 C   0  0  2  0  0  0  0  0  0  0  0  0
    4.2190   -0.0970    0.0320 C   0  0  0  0  0  0  0  0  0  0  0  0
    5.3920   -0.7120   -0.5370 N   0  0  0  0  0  0  0  0  0  0  0  0
    6.6640   -0.0860   -0.5610 C   0  0  0  0  0  0  0  0  0  0  0  0
    6.8520    1.0720   -0.0750 O   0  0  0  0  0  0  0  0  0  0  0  0
    7.8160   -0.7120   -1.1310 N   0  0  0  0  0  0  0  0  0  0  0  0
    9.0830   -0.0790   -1.1510 C   0  0  0  0  0  0  0  0  0  0  0  0
    9.4350    1.1310   -0.6810 N   0  0  0  0  0  0  0  0  0  0  0  0
   10.7420    1.3070   -0.9260 C   0  0  0  0  0  0  0  0  0  0  0  0
   11.4640    2.3100   -0.6430 O   0  0  0  0  0  0  0  0  0  0  0  0
   11.2180    0.2250   -1.5450 N   0  0  0  0  0  0  0  0  0  0  0  0
   10.1970   -0.6090   -1.6740 N   0  0  0  0  0  0  0  0  0  0  0  0
    5.2360   -2.0520   -1.1150 C   0  0  0  0  0  0  0  0  0  0  0  0
    3.7900   -2.4750   -0.8190 C   0  0  0  0  0  0  0  0  0  0  0  0
    3.6350   -2.3240    0.5460 O   0  0  0  0  0  0  0  0  0  0  0  0
    1.2250    0.5380   -0.3630 S   0  0  0  0  0  0  0  0  0  0  0  0
   -0.5500   -0.0540   -0.3030 C   0  0  0  0  0  0  0  0  0  0  0  0
   -1.6440    0.7040   -0.8750 C   0  0  0  0  0  0  0  0  0  0  0  0
   -2.4580    1.5540    0.0140 C   0  0  0  0  0  0  0  0  0  0  0  0
   -3.2290    0.9360    1.1160 C   0  0  2  0  0  0  0  0  0  0  0  0
   -4.2490   -0.0360    0.7360 C   0  0  0  0  0  0  0  0  0  0  0  0
   -4.4510   -1.0830    1.3900 O   0  0  0  0  0  0  0  0  0  0  0  0
   -5.0910    0.0460   -0.3330 N   0  0  0  0  0  0  0  0  0  0  0  0
   -6.1410   -0.8580   -0.7590 C   0  0  0  0  0  0  0  0  0  0  0  0
   -6.4970   -0.4310   -1.9260 N   0  0  0  0  0  0  0  0  0  0  0  0
   -7.7180   -1.4540   -2.5270 S   0  0  0  0  0  0  0  0  0  0  0  0
   -7.0000   -2.4250   -3.5380 O   0  0  0  0  0  0  0  0  0  0  0  0
   -7.9850   -2.4040   -1.1150 N   0  0  0  0  0  0  0  0  0  0  0  0
   -6.9140   -1.9340   -0.2710 C   0  0  2  0  0  0  0  0  0  0  0  0
   -7.7250   -1.6090    1.3360 Cl  0  0  0  0  0  0  0  0  0  0  0  0
   -3.9250    2.0370    1.9010 C   0  0  1  0  0  0  0  0  0  0  0  0
   -2.9010    2.9890    2.4640 C   0  0  0  0  0  0  0  0  0  0  0  0
   -4.9240    2.6990    1.1270 N   0  0  0  0  0  0  0  0  0  0  0  0
   -6.2940    2.6850    1.5120 C   0  0  0  0  0  0  0  0  0  0  0  0
   -7.2730    3.3480    0.7290 N   0  0  0  0  0  0  0  0  0  0  0  0
   -6.6970    2.0940    2.5490 O   0  0  0  0  0  0  0  0  0  0  0  0
  1  2  1  0
  2  3  1  0
  2 21  2  0
  3  4  2  0
  5  4  1  6
  4 20  1  0
  5  6  1  0
  5 19  1  0
  6  7  1  0
  7  8  1  0
  7 17  1  0
  8  9  2  0
  8 10  1  0
 10 11  1  0
 11 12  2  0
 11 16  1  0
 12 13  1  0
 13 14  2  0
 13 15  1  0
 15 16  1  0
 17 18  1  0
 18 19  1  0
 20 21  1  0
 21 22  1  0
 22 23  1  0
 24 23  1  6
 24 25  1  0
 24 35  1  0
 25 26  2  0
 25 27  1  0
 27 28  1  0
 28 29  2  0
 28 33  1  0
 29 30  1  0
 30 31  2  0
 30 32  1  1
 32 33  1  0
 33 34  1  1
 35 36  1  6
 35 37  1  0
 37 38  1  0
 38 39  1  0
 38 40  2  0
M  END
