
     RDKit          3D

 40 43  0  0  0  0  0  0  0  0999 V2000
   -3.2060   -3.8080    3.0480 C   0  0  0  0  0  0  0  0  0  0  0  0
   -2.6310   -2.5510    2.9880 O   0  0  0  0  0  0  0  0  0  0  0  0
   -3.1800   -1.4750    2.2740 C   0  0  0  0  0  0  0  0  0  0  0  0
   -4.0710   -0.6960    2.9190 C   0  0  0  0  0  0  0  0  0  0  0  0
   -4.8210    0.4810    2.5270 C   0  0  0  0  0  0  0  0  0  0  0  0
   -5.2200    0.9610    1.3840 C   0  0  0  0  0  0  0  0  0  0  0  0
   -5.5940    1.3810    0.1270 C   0  0  0  0  0  0  0  0  0  0  0  0
   -5.0040    1.9660   -0.9180 C   0  0  0  0  0  0  0  0  0  0  0  0
   -3.5990    2.4390   -1.1720 C   0  0  0  0  0  0  0  0  0  0  0  0
   -2.8920    1.9400   -2.2110 C   0  0  0  0  0  0  0  0  0  0  0  0
   -3.4100    2.1620   -3.6060 C   0  0  0  0  0  0  0  0  0  0  0  0
   -2.5240    2.2970   -4.5200 O   0  0  0  0  0  0  0  0  0  0  0  0
   -4.7300    2.2570   -4.1360 N   0  0  0  0  0  0  0  0  0  0  0  0
   -5.9180    2.1650   -3.4130 N   0  0  0  0  0  0  0  0  0  0  0  0
   -6.0160    2.0910   -1.9840 C   0  0  0  0  0  0  0  0  0  0  0  0
   -7.2350    2.1470   -1.6320 O   0  0  0  0  0  0  0  0  0  0  0  0
   -1.6850    1.1540   -2.3680 C   0  0  0  0  0  0  0  0  0  0  0  0
   -0.8340    1.5230   -3.2620 O   0  0  0  0  0  0  0  0  0  0  0  0
   -1.2120   -0.0050   -1.7150 N   0  0  0  0  0  0  0  0  0  0  0  0
    0.1430    0.0010   -1.2060 C   0  0  1  0  0  0  0  0  0  0  0  0
    1.2000   -0.0520   -2.3060 C   0  0  0  0  0  0  0  0  0  0  0  0
    2.4900   -0.3790   -1.5230 C   0  0  0  0  0  0  0  0  0  0  0  0
    2.8800    0.9140   -0.8550 C   0  0  2  0  0  0  0  0  0  0  0  0
    4.2130    0.8140   -0.1850 C   0  0  0  0  0  0  0  0  0  0  0  0
    5.1350    1.5500   -0.6410 O   0  0  0  0  0  0  0  0  0  0  0  0
    4.4810   -0.0550    0.9160 C   0  0  0  0  0  0  0  0  0  0  0  0
    5.6390   -0.1440    1.5240 C   0  0  0  0  0  0  0  0  0  0  0  0
    6.8130    0.6920    1.0960 C   0  0  0  0  0  0  0  0  0  0  0  0
    7.9090    0.4880    2.1220 C   0  0  0  0  0  0  0  0  0  0  0  0
    8.2780   -0.9490    2.3310 C   0  0  0  0  0  0  0  0  0  0  0  0
    7.0970   -1.8670    2.4190 C   0  0  0  0  0  0  0  0  0  0  0  0
    5.8600   -1.0520    2.6700 C   0  0  0  0  0  0  0  0  0  0  0  0
    1.8250    1.2430    0.1730 C   0  0  0  0  0  0  0  0  0  0  0  0
    0.4370    1.1430   -0.3120 C   0  0  0  0  0  0  0  0  0  0  0  0
   -1.9400   -1.2430   -1.5250 C   0  0  0  0  0  0  0  0  0  0  0  0
   -2.8930   -1.3580   -0.3530 C   0  0  0  0  0  0  0  0  0  0  0  0
   -4.2540   -1.5100   -0.9320 C   0  0  0  0  0  0  0  0  0  0  0  0
   -4.3310   -1.4020   -2.3490 N   0  0  0  0  0  0  0  0  0  0  0  0
   -5.3560   -1.7070   -0.4560 O   0  0  0  0  0  0  0  0  0  0  0  0
   -2.6600   -1.3860    0.9180 C   0  0  0  0  0  0  0  0  0  0  0  0
  1  2  1  0
  2  3  1  0
  3  4  2  0
  3 40  1  0
  4  5  1  0
  5  6  2  0
  6  7  1  0
  7  8  2  0
  8  9  1  0
  8 15  1  0
  9 10  2  0
 10 11  1  0
 10 17  1  0
 11 12  2  0
 11 13  1  0
 13 14  1  0
 14 15  1  0
 15 16  2  0
 17 18  2  0
 17 19  1  0
 20 19  1  6
 19 35  1  0
 20 21  1  0
 20 34  1  0
 21 22  1  0
 22 23  1  0
 23 24  1  1
 23 33  1  0
 24 25  2  0
 24 26  1  0
 26 27  2  3
 27 28  1  0
 27 32  1  0
 28 29  1  0
 29 30  1  0
 30 31  1  0
 31 32  1  0
 33 34  1  0
 35 36  1  0
 36 37  1  0
 36 40  2  0
 37 38  1  0
 37 39  2  0
M  END
