
     RDKit          3D

 40 43  0  0  0  0  0  0  0  0999 V2000
    4.7520   -4.2580   -0.8940 C   0  0  0  0  0  0  0  0  0  0  0  0
    4.9140   -2.8160   -1.0750 C   0  0  0  0  0  0  0  0  0  0  0  0
    3.8280   -1.9290   -1.5120 C   0  0  0  0  0  0  0  0  0  0  0  0
    2.5570   -1.9300   -0.6520 C   0  0  1  0  0  0  0  0  0  0  0  0
    2.9210   -1.6540    0.7580 C   0  0  0  0  0  0  0  0  0  0  0  0
    1.7010   -0.9150   -1.0890 O   0  0  0  0  0  0  0  0  0  0  0  0
    2.0950    0.3030   -1.3420 C   0  0  2  0  0  0  0  0  0  0  0  0
    2.4260    1.2560   -0.2310 C   0  0  0  0  0  0  0  0  0  0  0  0
    0.9760    1.0890   -2.1000 C   0  0  1  0  0  0  0  0  0  0  0  0
    1.5950    2.1880   -2.6660 O   0  0  0  0  0  0  0  0  0  0  0  0
    1.1240    3.4230   -2.4290 C   0  0  0  0  0  0  0  0  0  0  0  0
    0.4480    0.2780   -3.2590 C   0  0  0  0  0  0  0  0  0  0  0  0
   -0.8340   -0.0160   -3.1430 O   0  0  0  0  0  0  0  0  0  0  0  0
   -1.7230    0.4490   -2.2390 C   0  0  0  0  0  0  0  0  0  0  0  0
   -2.1600    1.8610   -2.4090 C   0  0  0  0  0  0  0  0  0  0  0  0
   -2.5490    2.3140   -3.7170 C   0  0  0  0  0  0  0  0  0  0  0  0
   -2.8670    3.6550   -3.5180 C   0  0  0  0  0  0  0  0  0  0  0  0
   -2.6970    3.9620   -2.2630 N   0  0  0  0  0  0  0  0  0  0  0  0
   -2.2580    2.8740   -1.5280 C   0  0  0  0  0  0  0  0  0  0  0  0
   -2.0240    2.8780   -0.0540 C   0  0  0  0  0  0  0  0  0  0  0  0
   -3.1840    2.2790    0.6990 C   0  0  2  0  0  0  0  0  0  0  0  0
   -3.4330    2.8660    2.0640 C   0  0  0  0  0  0  0  0  0  0  0  0
   -3.9170    1.9460    2.9350 O   0  0  0  0  0  0  0  0  0  0  0  0
   -3.1690    0.9970    3.5010 C   0  0  0  0  0  0  0  0  0  0  0  0
   -1.8590    0.6350    2.8360 C   0  0  2  0  0  0  0  0  0  0  0  0
   -0.9430    1.7870    3.0100 C   0  0  0  0  0  0  0  0  0  0  0  0
   -0.1570    2.7830    3.1660 N   0  0  0  0  0  0  0  0  0  0  0  0
   -2.0860    0.2660    1.4170 C   0  0  0  0  0  0  0  0  0  0  0  0
   -3.2740    0.8820    0.8230 N   0  0  0  0  0  0  0  0  0  0  0  0
   -1.1200   -0.4660    3.5550 C   0  0  2  0  0  0  0  0  0  0  0  0
    0.1040    0.0330    4.1550 O   0  0  0  0  0  0  0  0  0  0  0  0
   -0.8080   -1.7140    2.7690 C   0  0  0  0  0  0  0  0  0  0  0  0
   -1.1390   -2.8320    3.4600 C   0  0  0  0  0  0  0  0  0  0  0  0
   -0.9360   -4.1620    3.0670 C   0  0  0  0  0  0  0  0  0  0  0  0
   -0.3390   -4.2240    1.8340 C   0  0  0  0  0  0  0  0  0  0  0  0
    0.0440   -3.1100    1.0300 C   0  0  0  0  0  0  0  0  0  0  0  0
   -0.1940   -1.8290    1.5050 C   0  0  0  0  0  0  0  0  0  0  0  0
    0.5900   -3.5720   -0.1860 N   0  0  0  0  0  0  0  0  0  0  0  0
    1.7800   -3.1590   -0.9380 C   0  0  0  0  0  0  0  0  0  0  0  0
    2.2060   -3.8830   -1.9200 O   0  0  0  0  0  0  0  0  0  0  0  0
  1  2  1  0
  2  3  1  0
  3  4  1  0
  4  5  1  1
  4  6  1  0
  4 39  1  0
  6  7  1  0
  7  8  1  1
  7  9  1  0
  9 10  1  6
  9 12  1  0
 10 11  1  0
 12 13  1  0
 13 14  1  0
 14 15  1  0
 15 16  1  0
 15 19  2  0
 16 17  2  0
 17 18  1  0
 18 19  1  0
 19 20  1  0
 21 20  1  1
 21 22  1  0
 21 29  1  0
 22 23  1  0
 23 24  1  0
 24 25  1  0
 25 26  1  6
 25 28  1  0
 25 30  1  0
 26 27  3  0
 28 29  1  0
 30 31  1  6
 30 32  1  0
 32 33  1  0
 32 37  2  0
 33 34  2  0
 34 35  1  0
 35 36  2  0
 36 37  1  0
 36 38  1  0
 38 39  1  0
 39 40  2  0
M  CHG  1  29   1
M  END
