
     RDKit          3D

 40 43  0  0  0  0  0  0  0  0999 V2000
   -6.6870    5.0900   -0.4180 C   0  0  0  0  0  0  0  0  0  0  0  0
   -6.0280    3.8870   -0.6360 O   0  0  0  0  0  0  0  0  0  0  0  0
   -4.7550    3.5250   -0.1230 C   0  0  0  0  0  0  0  0  0  0  0  0
   -4.0610    4.3570    0.6330 C   0  0  0  0  0  0  0  0  0  0  0  0
   -2.7680    3.9820    1.1880 C   0  0  0  0  0  0  0  0  0  0  0  0
   -2.3960    2.6840    0.8320 C   0  0  0  0  0  0  0  0  0  0  0  0
   -3.0410    1.8280    0.0880 C   0  0  0  0  0  0  0  0  0  0  0  0
   -2.6750    0.4980   -0.2960 C   0  0  0  0  0  0  0  0  0  0  0  0
   -3.5670   -0.1360   -1.0270 O   0  0  0  0  0  0  0  0  0  0  0  0
   -1.5560   -0.3390   -0.0750 N   0  0  0  0  0  0  0  0  0  0  0  0
   -1.7960   -1.7160   -0.5690 C   0  0  0  0  0  0  0  0  0  0  0  0
   -3.1250   -2.2070    0.0240 C   0  0  2  0  0  0  0  0  0  0  0  0
   -3.3640   -1.4920    1.2270 O   0  0  0  0  0  0  0  0  0  0  0  0
   -2.9240   -3.6710    0.4040 C   0  0  0  0  0  0  0  0  0  0  0  0
   -2.6780   -3.8000    1.8700 N   0  0  0  0  0  0  0  0  0  0  0  0
   -1.6660   -4.6950    2.1520 C   0  0  0  0  0  0  0  0  0  0  0  0
   -0.3730   -4.4860    1.5650 C   0  0  0  0  0  0  0  0  0  0  0  0
    0.7380   -4.3140    1.0620 C   0  0  0  0  0  0  0  0  0  0  0  0
    2.0130   -4.0920    0.4900 C   0  0  0  0  0  0  0  0  0  0  0  0
    1.9370   -3.4650   -0.7120 O   0  0  0  0  0  0  0  0  0  0  0  0
    1.4670   -2.5430   -1.5150 C   0  0  0  0  0  0  0  0  0  0  0  0
    1.4280   -2.8590   -2.9030 C   0  0  0  0  0  0  0  0  0  0  0  0
    0.9260   -1.9820   -3.8790 C   0  0  0  0  0  0  0  0  0  0  0  0
    0.4840   -0.7870   -3.4270 C   0  0  0  0  0  0  0  0  0  0  0  0
    0.4770   -0.4040   -2.1340 C   0  0  0  0  0  0  0  0  0  0  0  0
    0.9790   -1.3000   -1.1570 C   0  0  0  0  0  0  0  0  0  0  0  0
    0.9210   -0.6960    0.2070 C   0  0  1  0  0  0  0  0  0  0  0  0
    2.0100    0.3000    0.2750 N   0  0  0  0  0  0  0  0  0  0  0  0
    3.3210    0.0420    0.6690 C   0  0  0  0  0  0  0  0  0  0  0  0
    3.5980   -1.1910    1.0130 O   0  0  0  0  0  0  0  0  0  0  0  0
    4.4620    0.9320    0.7650 C   0  0  2  0  0  0  0  0  0  0  0  0
    4.3600    2.0690    1.7290 C   0  0  0  0  0  0  0  0  0  0  0  0
    4.6880    3.3140    1.2020 O   0  0  0  0  0  0  0  0  0  0  0  0
    6.0160    3.3030    0.6470 C   0  0  0  0  0  0  0  0  0  0  0  0
    6.2040    2.2010   -0.2560 C   0  0  2  0  0  0  0  0  0  0  0  0
    6.9440    2.4000   -1.5600 C   0  0  0  0  0  0  0  0  0  0  0  0
    7.4870    2.5300   -2.5300 N   0  0  0  0  0  0  0  0  0  0  0  0
    4.8340    1.5750   -0.6140 C   0  0  0  0  0  0  0  0  0  0  0  0
   -0.3420    0.0740    0.5080 C   0  0  0  0  0  0  0  0  0  0  0  0
   -4.3080    2.2350   -0.4500 C   0  0  0  0  0  0  0  0  0  0  0  0
  1  2  1  0
  2  3  1  0
  3  4  2  0
  3 40  1  0
  4  5  1  0
  5  6  2  0
  6  7  1  0
  7  8  1  0
  7 40  2  0
  8  9  2  0
  8 10  1  0
 10 11  1  0
 10 39  1  0
 11 12  1  0
 12 13  1  1
 12 14  1  0
 14 15  1  0
 15 16  1  0
 16 17  1  0
 17 18  3  0
 18 19  1  0
 19 20  1  0
 20 21  1  0
 21 22  2  0
 21 26  1  0
 22 23  1  0
 23 24  2  0
 24 25  1  0
 25 26  2  0
 26 27  1  0
 27 28  1  6
 27 39  1  0
 28 29  1  0
 29 30  2  0
 31 29  1  6
 31 32  1  0
 31 38  1  0
 32 33  1  0
 33 34  1  0
 34 35  1  0
 35 36  1  6
 35 38  1  0
 36 37  3  0
M  CHG  1  15   1
M  END
