
     RDKit          3D

 40 44  0  0  0  0  0  0  0  0999 V2000
   -2.6380    0.7860    2.5560 C   0  0  0  0  0  0  0  0  0  0  0  0
   -2.8950   -0.6360    2.0970 C   0  0  2  0  0  0  0  0  0  0  0  0
   -2.6200   -1.5470    3.2750 C   0  0  0  0  0  0  0  0  0  0  0  0
   -1.9160   -1.0320    0.9990 C   0  0  0  0  0  0  0  0  0  0  0  0
   -1.9950   -0.2200   -0.1440 N   0  0  0  0  0  0  0  0  0  0  0  0
   -0.9040    0.6200   -0.4020 C   0  0  0  0  0  0  0  0  0  0  0  0
    0.3760   -0.0130   -0.7540 C   0  0  1  0  0  0  0  0  0  0  0  0
    0.3530   -0.7870   -1.8970 O   0  0  0  0  0  0  0  0  0  0  0  0
    1.5560    0.9130   -0.7450 C   0  0  2  0  0  0  0  0  0  0  0  0
    1.7760    1.7640   -1.9380 C   0  0  0  0  0  0  0  0  0  0  0  0
    0.7570    2.7050   -2.3670 C   0  0  0  0  0  0  0  0  0  0  0  0
   -0.1610    2.4750   -3.4030 C   0  0  0  0  0  0  0  0  0  0  0  0
   -1.1090    3.4080   -3.7660 C   0  0  0  0  0  0  0  0  0  0  0  0
   -1.1720    4.6190   -3.0970 C   0  0  0  0  0  0  0  0  0  0  0  0
   -0.2820    4.8720   -2.0750 C   0  0  0  0  0  0  0  0  0  0  0  0
    0.6520    3.9260   -1.7340 C   0  0  0  0  0  0  0  0  0  0  0  0
    2.7360   -0.0370   -0.6680 N   0  0  0  0  0  0  0  0  0  0  0  0
    3.5320   -0.0180    0.4980 C   0  0  0  0  0  0  0  0  0  0  0  0
    3.2440    0.7750    1.4260 O   0  0  0  0  0  0  0  0  0  0  0  0
    4.6140   -0.8900    0.5680 O   0  0  0  0  0  0  0  0  0  0  0  0
    5.4200   -0.9020    1.7060 C   0  0  1  0  0  0  0  0  0  0  0  0
    5.4910   -2.2670    2.3490 C   0  0  0  0  0  0  0  0  0  0  0  0
    6.7720   -2.5130    2.7400 O   0  0  0  0  0  0  0  0  0  0  0  0
    7.5390   -1.3890    2.5560 C   0  0  1  0  0  0  0  0  0  0  0  0
    8.7950   -1.6510    2.0420 O   0  0  0  0  0  0  0  0  0  0  0  0
    8.5030   -2.1780    0.7970 C   0  0  0  0  0  0  0  0  0  0  0  0
    7.4140   -1.2710    0.2080 C   0  0  0  0  0  0  0  0  0  0  0  0
    6.8790   -0.6050    1.4300 C   0  0  1  0  0  0  0  0  0  0  0  0
   -2.9360   -0.8270   -1.3720 S   0  0  2  0  0  0  0  0  0  0  0  0
   -2.4990   -2.2320   -1.8000 O   0  0  0  0  0  0  0  0  0  0  0  0
   -3.0120    0.0620   -2.5930 O   0  0  0  0  0  0  0  0  0  0  0  0
   -4.5910   -1.0170   -0.8360 C   0  0  0  0  0  0  0  0  0  0  0  0
   -5.0780   -2.2150   -0.3550 C   0  0  0  0  0  0  0  0  0  0  0  0
   -6.3900   -2.3220    0.0570 C   0  0  0  0  0  0  0  0  0  0  0  0
   -7.2520   -1.2470    0.0040 C   0  0  0  0  0  0  0  0  0  0  0  0
   -6.7750   -0.0410   -0.4760 C   0  0  0  0  0  0  0  0  0  0  0  0
   -5.4610    0.0520   -0.8850 C   0  0  0  0  0  0  0  0  0  0  0  0
   -7.8520    0.8620   -0.4170 O   0  0  0  0  0  0  0  0  0  0  0  0
   -9.0380    0.0530   -0.4420 C   0  0  0  0  0  0  0  0  0  0  0  0
   -8.6030   -1.0520    0.3430 O   0  0  0  0  0  0  0  0  0  0  0  0
  2  1  1  1
  2  3  1  0
  2  4  1  0
  4  5  1  0
  5  6  1  0
 29  5  1  1
  6  7  1  0
  7  8  1  6
  7  9  1  0
  9 10  1  6
  9 17  1  0
 10 11  1  0
 11 12  2  0
 11 16  1  0
 12 13  1  0
 13 14  2  0
 14 15  1  0
 15 16  2  0
 17 18  1  0
 18 19  2  0
 18 20  1  0
 21 20  1  6
 21 22  1  0
 21 28  1  0
 22 23  1  0
 24 23  1  6
 24 25  1  0
 24 28  1  0
 25 26  1  0
 26 27  1  0
 28 27  1  6
 29 30  2  0
 29 31  2  0
 29 32  1  0
 32 33  2  0
 32 37  1  0
 33 34  1  0
 34 35  2  0
 35 36  1  0
 35 40  1  0
 36 37  2  0
 36 38  1  0
 38 39  1  0
 39 40  1  0
M  END
