
     RDKit          3D

 40 42  0  0  0  0  0  0  0  0999 V2000
   -4.8670   -4.9970   -1.4340 C   0  0  0  0  0  0  0  0  0  0  0  0
   -5.5220   -3.7970   -0.8590 C   0  0  0  0  0  0  0  0  0  0  0  0
   -4.8250   -2.7720   -0.3280 C   0  0  0  0  0  0  0  0  0  0  0  0
   -3.3540   -2.9510   -0.3680 C   0  0  0  0  0  0  0  0  0  0  0  0
   -2.6850   -2.4080    0.7860 N   0  0  0  0  0  0  0  0  0  0  0  0
   -1.2930   -2.2770    0.9380 C   0  0  0  0  0  0  0  0  0  0  0  0
   -0.7840   -2.6370    2.0510 O   0  0  0  0  0  0  0  0  0  0  0  0
   -0.3400   -1.7540   -0.0720 C   0  0  0  0  0  0  0  0  0  0  0  0
    0.8780   -2.5820   -0.0690 C   0  0  0  0  0  0  0  0  0  0  0  0
    2.1530   -1.9950   -0.4470 C   0  0  0  0  0  0  0  0  0  0  0  0
    2.7960   -2.6300   -1.3760 O   0  0  0  0  0  0  0  0  0  0  0  0
    2.8270   -0.8510    0.0180 N   0  0  0  0  0  0  0  0  0  0  0  0
    4.2210   -0.9620    0.4990 C   0  0  0  0  0  0  0  0  0  0  0  0
    5.0330    0.0170   -0.3130 C   0  0  2  0  0  0  0  0  0  0  0  0
    6.4560   -0.1550    0.0990 C   0  0  0  0  0  0  0  0  0  0  0  0
    6.9450   -1.3020   -0.0430 O   0  0  0  0  0  0  0  0  0  0  0  0
    7.2460    0.8770    0.6200 N   0  0  0  0  0  0  0  0  0  0  0  0
    8.6200    0.6790    1.0090 C   0  0  0  0  0  0  0  0  0  0  0  0
    9.4900    0.2180   -0.1580 C   0  0  0  0  0  0  0  0  0  0  0  0
   10.8040    0.0380    0.2430 O   0  0  0  0  0  0  0  0  0  0  0  0
    4.5930    1.3140   -0.1100 O   0  0  0  0  0  0  0  0  0  0  0  0
    3.4730    1.3750    0.6990 C   0  0  0  0  0  0  0  0  0  0  0  0
    2.3350    0.5060    0.1100 C   0  0  1  0  0  0  0  0  0  0  0  0
    1.9730    1.0790   -1.2180 C   0  0  0  0  0  0  0  0  0  0  0  0
    2.4860    0.4970   -2.2350 O   0  0  0  0  0  0  0  0  0  0  0  0
    1.1160    2.2000   -1.4130 N   0  0  0  0  0  0  0  0  0  0  0  0
   -0.2300    2.4450   -0.9890 C   0  0  0  0  0  0  0  0  0  0  0  0
   -1.3420    1.6280   -1.0040 C   0  0  0  0  0  0  0  0  0  0  0  0
   -2.5180    2.1190   -0.4960 C   0  0  0  0  0  0  0  0  0  0  0  0
   -2.5570    3.4510    0.0270 C   0  0  0  0  0  0  0  0  0  0  0  0
   -1.4820    4.2810    0.0540 C   0  0  0  0  0  0  0  0  0  0  0  0
   -0.3210    3.7590   -0.4610 C   0  0  0  0  0  0  0  0  0  0  0  0
    0.8550    4.7120   -0.4550 C   0  0  0  0  0  0  0  0  0  0  0  0
   -3.8820    1.5600   -0.3030 C   0  0  2  0  0  0  0  0  0  0  0  0
   -4.9500    2.6040   -0.7100 C   0  0  0  0  0  0  0  0  0  0  0  0
   -4.0330    1.4850    1.2400 C   0  0  0  0  0  0  0  0  0  0  0  0
   -4.3450    0.2950   -0.8570 C   0  0  0  0  0  0  0  0  0  0  0  0
   -5.3510   -0.3600    0.0120 C   0  0  0  0  0  0  0  0  0  0  0  0
   -5.5370   -1.6410    0.2190 C   0  0  0  0  0  0  0  0  0  0  0  0
   -6.6920   -1.9970    1.1490 C   0  0  0  0  0  0  0  0  0  0  0  0
  1  2  1  0
  2  3  2  3
  3  4  1  0
  3 39  1  0
  4  5  1  0
  5  6  1  0
  6  7  2  0
  6  8  1  0
  8  9  1  0
  9 10  1  0
 10 11  2  0
 10 12  1  0
 12 13  1  0
 12 23  1  0
 13 14  1  0
 14 15  1  1
 14 21  1  0
 15 16  2  0
 15 17  1  0
 17 18  1  0
 18 19  1  0
 19 20  1  0
 21 22  1  0
 23 22  1  6
 23 24  1  0
 24 25  2  0
 24 26  1  0
 26 27  1  0
 27 28  1  0
 27 32  2  0
 28 29  2  0
 29 30  1  0
 29 34  1  0
 30 31  2  0
 31 32  1  0
 32 33  1  0
 34 35  1  6
 34 36  1  0
 34 37  1  0
 37 38  1  0
 38 39  2  0
 39 40  1  0
M  END
