
     RDKit          3D

 31 32  0  0  0  0  0  0  0  0999 V2000
   -7.6770   -2.6770    1.5780 C   0  0  0  0  0  0  0  0  0  0  0  0
   -6.3270   -2.2280    1.3240 C   0  0  0  0  0  0  0  0  0  0  0  0
   -5.9190   -1.9680    0.0420 C   0  0  0  0  0  0  0  0  0  0  0  0
   -6.9110   -2.1750   -0.9680 C   0  0  0  0  0  0  0  0  0  0  0  0
   -6.9770   -2.0630   -2.2520 C   0  0  0  0  0  0  0  0  0  0  0  0
   -6.0670   -1.6820   -3.1850 O   0  0  0  0  0  0  0  0  0  0  0  0
   -6.2690   -0.4110   -4.3560 P   0  0  0  0  0  0  0  0  0  0  0  0
   -7.2230    0.9050   -3.7550 O   0  0  0  0  0  0  0  0  0  0  0  0
   -6.8460   -0.9900   -5.8740 O   0  0  0  0  0  0  0  0  0  0  0  0
   -4.5800   -1.5530    0.0420 C   0  0  0  0  0  0  0  0  0  0  0  0
   -3.9630   -1.4770    1.1950 O   0  0  0  0  0  0  0  0  0  0  0  0
   -3.7780   -1.2080   -0.9500 N   0  0  0  0  0  0  0  0  0  0  0  0
   -2.4750   -0.8430   -0.9760 C   0  0  0  0  0  0  0  0  0  0  0  0
   -2.4240   -0.7240   -2.3630 O   0  0  0  0  0  0  0  0  0  0  0  0
   -1.2120   -0.5060   -0.7700 N   0  0  0  0  0  0  0  0  0  0  0  0
   -0.4990   -0.2860    0.3560 C   0  0  0  0  0  0  0  0  0  0  0  0
   -1.0680   -0.5340    1.4240 O   0  0  0  0  0  0  0  0  0  0  0  0
    0.8460    0.2210    0.2960 C   0  0  0  0  0  0  0  0  0  0  0  0
    1.4140    0.3610   -0.8170 O   0  0  0  0  0  0  0  0  0  0  0  0
    1.4760    0.5470    1.4650 O   0  0  0  0  0  0  0  0  0  0  0  0
    2.7720    1.0570    1.4740 C   0  0  0  0  0  0  0  0  0  0  0  0
    3.8070    0.1120    0.9230 C   0  0  0  0  0  0  0  0  0  0  0  0
    5.1370    0.7130    0.9660 N   0  0  0  0  0  0  0  0  0  0  0  0
    5.5700    1.4740   -0.1890 C   0  0  0  0  0  0  0  0  0  0  0  0
    6.8830    2.1410    0.1620 C   0  0  1  0  0  0  0  0  0  0  0  0
    6.7660    3.0700    1.3410 C   0  0  0  0  0  0  0  0  0  0  0  0
    7.5760    2.3660    2.4360 C   0  0  0  0  0  0  0  0  0  0  0  0
    7.4350    0.9140    1.9610 C   0  0  2  0  0  0  0  0  0  0  0  0
    7.8080    1.0840    0.5480 N   0  0  0  0  0  0  0  0  0  0  0  0
    5.9980    0.5840    2.0640 C   0  0  0  0  0  0  0  0  0  0  0  0
    5.5510    0.1830    3.1580 O   0  0  0  0  0  0  0  0  0  0  0  0
  1  2  1  0
  2  3  2  3
  3  4  1  0
  3 10  1  0
  4  5  2  3
  5  6  1  0
  6  7  1  0
  7  8  1  0
  7  9  1  0
 10 11  2  0
 10 12  1  0
 12 13  1  0
 13 14  2  0
 13 15  1  0
 15 16  1  0
 16 17  2  0
 16 18  1  0
 18 19  2  0
 18 20  1  0
 20 21  1  0
 21 22  1  0
 22 23  1  0
 23 24  1  0
 23 30  1  0
 25 24  1  1
 25 26  1  0
 25 29  1  0
 26 27  1  0
 28 27  1  1
 28 29  1  0
 28 30  1  0
 30 31  2  0
M  END
