
     RDKit          3D

 31 33  0  0  0  0  0  0  0  0999 V2000
   -3.5130   -3.8200   -0.7420 C   0  0  0  0  0  0  0  0  0  0  0  0
   -2.9090   -2.4840   -0.4960 C   0  0  0  0  0  0  0  0  0  0  0  0
   -3.5780   -1.3470   -0.8930 C   0  0  0  0  0  0  0  0  0  0  0  0
   -3.0650   -0.0840   -0.6910 C   0  0  0  0  0  0  0  0  0  0  0  0
   -3.7590    0.9980   -1.0890 N   0  0  0  0  0  0  0  0  0  0  0  0
   -3.2720    2.2280   -0.8890 C   0  0  0  0  0  0  0  0  0  0  0  0
   -3.9270    3.3960   -1.2690 C   0  0  0  0  0  0  0  0  0  0  0  0
   -5.0400    3.3220   -1.8340 O   0  0  0  0  0  0  0  0  0  0  0  0
   -3.3050    4.5700   -0.9990 N   0  0  0  0  0  0  0  0  0  0  0  0
   -2.1110    4.6630   -0.3930 C   0  0  0  0  0  0  0  0  0  0  0  0
   -1.6070    5.8160   -0.1810 O   0  0  0  0  0  0  0  0  0  0  0  0
   -1.4310    3.5580   -0.0020 N   0  0  0  0  0  0  0  0  0  0  0  0
   -1.9840    2.3690   -0.2380 C   0  0  0  0  0  0  0  0  0  0  0  0
   -1.3310    1.2430    0.1400 N   0  0  0  0  0  0  0  0  0  0  0  0
   -0.0520    1.4370    0.7860 C   0  0  0  0  0  0  0  0  0  0  0  0
    0.9680    1.5250   -0.3350 C   0  0  2  0  0  0  0  0  0  0  0  0
    0.9370    0.3780   -1.0560 O   0  0  0  0  0  0  0  0  0  0  0  0
    2.3040    1.9870    0.1250 C   0  0  2  0  0  0  0  0  0  0  0  0
    3.1060    2.2040   -0.9940 O   0  0  0  0  0  0  0  0  0  0  0  0
    3.0200    1.0850    1.0630 C   0  0  2  0  0  0  0  0  0  0  0  0
    4.2210    1.6810    1.4500 O   0  0  0  0  0  0  0  0  0  0  0  0
    3.3290   -0.2720    0.5410 C   0  0  0  0  0  0  0  0  0  0  0  0
    3.9460   -0.9900    1.5920 O   0  0  0  0  0  0  0  0  0  0  0  0
    4.3410   -2.5610    1.0990 P   0  0  1  0  0  0  0  0  0  0  0  0
    4.2470   -2.6630   -0.4160 O   0  0  0  0  0  0  0  0  0  0  0  0
    5.9310   -2.9530    1.5160 O   0  0  0  0  0  0  0  0  0  0  0  0
    3.2660   -3.6950    1.7370 O   0  0  0  0  0  0  0  0  0  0  0  0
   -1.8150    0.0040   -0.0560 C   0  0  0  0  0  0  0  0  0  0  0  0
   -1.1600   -1.1390    0.3350 C   0  0  0  0  0  0  0  0  0  0  0  0
   -1.6850   -2.3950    0.1260 C   0  0  0  0  0  0  0  0  0  0  0  0
   -0.9730   -3.6410    0.5500 C   0  0  0  0  0  0  0  0  0  0  0  0
  1  2  1  0
  2  3  2  0
  2 30  1  0
  3  4  1  0
  4  5  1  0
  4 28  2  0
  5  6  2  0
  6  7  1  0
  6 13  1  0
  7  8  2  0
  7  9  1  0
  9 10  1  0
 10 11  2  0
 10 12  1  0
 12 13  2  0
 13 14  1  0
 14 15  1  0
 14 28  1  0
 15 16  1  0
 16 17  1  1
 16 18  1  0
 18 19  1  6
 18 20  1  0
 20 21  1  6
 20 22  1  0
 22 23  1  0
 23 24  1  0
 24 25  2  0
 24 26  1  1
 24 27  1  0
 28 29  1  0
 29 30  2  0
 30 31  1  0
M  END
