
     RDKit          3D

 31 33  0  0  0  0  0  0  0  0999 V2000
   -0.3720   -1.3940    0.5680 O   0  0  0  0  0  0  0  0  0  0  0  0
   -1.5430   -1.1370    0.2140 C   0  0  0  0  0  0  0  0  0  0  0  0
   -2.4850   -2.1890    0.0600 N   0  0  0  0  0  0  0  0  0  0  0  0
   -2.1900   -3.5760    0.2830 C   0  0  0  0  0  0  0  0  0  0  0  0
   -1.1080   -4.0130   -0.6550 C   0  0  0  0  0  0  0  0  0  0  0  0
   -1.5770   -3.8150   -1.9600 O   0  0  0  0  0  0  0  0  0  0  0  0
   -1.9970    0.2220   -0.0520 C   0  0  0  0  0  0  0  0  0  0  0  0
   -1.1210    1.1940    0.0930 C   0  0  0  0  0  0  0  0  0  0  0  0
    0.1970    0.8800    0.4930 N   0  0  0  0  0  0  0  0  0  0  0  0
    1.1520    1.5900    0.0120 C   0  0  0  0  0  0  0  0  0  0  0  0
    0.9390    2.6200   -0.8580 N   0  0  0  0  0  0  0  0  0  0  0  0
    1.9630    3.3360   -1.3370 C   0  0  0  0  0  0  0  0  0  0  0  0
    3.2080    3.0470   -0.9660 N   0  0  0  0  0  0  0  0  0  0  0  0
    3.4720    2.0330   -0.1030 C   0  0  0  0  0  0  0  0  0  0  0  0
    2.4390    1.2890    0.3970 C   0  0  0  0  0  0  0  0  0  0  0  0
    2.6330    0.2370    1.3600 C   0  0  0  0  0  0  0  0  0  0  0  0
    1.7850    0.1490    2.3220 O   0  0  0  0  0  0  0  0  0  0  0  0
    3.6930   -0.7460    1.3590 C   0  0  0  0  0  0  0  0  0  0  0  0
    4.6230   -0.8670    0.4390 C   0  0  0  0  0  0  0  0  0  0  0  0
    5.7170   -1.8760    0.4400 C   0  0  0  0  0  0  0  0  0  0  0  0
    5.6680   -2.7250    1.5460 O   0  0  0  0  0  0  0  0  0  0  0  0
    4.7260   -2.6420    2.5280 C   0  0  0  0  0  0  0  0  0  0  0  0
    3.7840   -1.7230    2.4700 C   0  0  0  0  0  0  0  0  0  0  0  0
   -1.5060    2.4990   -0.1490 O   0  0  0  0  0  0  0  0  0  0  0  0
   -2.6580    2.7630   -0.9270 C   0  0  0  0  0  0  0  0  0  0  0  0
   -3.7760    1.8120   -0.6240 C   0  0  1  0  0  0  0  0  0  0  0  0
   -4.6600    1.8060   -1.7110 O   0  0  0  0  0  0  0  0  0  0  0  0
   -6.2280    2.3710   -1.2980 P   0  0  0  0  0  0  0  0  0  0  0  0
   -6.8850    1.5450    0.0540 O   0  0  0  0  0  0  0  0  0  0  0  0
   -6.2980    4.0760   -1.0620 O   0  0  0  0  0  0  0  0  0  0  0  0
   -3.3240    0.4810   -0.4500 O   0  0  0  0  0  0  0  0  0  0  0  0
  1  2  2  0
  2  3  1  0
  2  7  1  0
  3  4  1  0
  4  5  1  0
  5  6  1  0
  7  8  2  0
  7 31  1  0
  8  9  1  0
  8 24  1  0
  9 10  2  3
 10 11  1  0
 10 15  1  0
 11 12  2  0
 12 13  1  0
 13 14  1  0
 14 15  2  0
 15 16  1  0
 16 17  2  0
 16 18  1  0
 18 19  2  0
 18 23  1  0
 19 20  1  0
 20 21  1  0
 21 22  1  0
 22 23  2  0
 24 25  1  0
 25 26  1  0
 26 27  1  6
 26 31  1  0
 27 28  1  0
 28 29  1  0
 28 30  1  0
M  END
