
     RDKit          3D

 31 33  0  0  0  0  0  0  0  0999 V2000
    7.5510   -1.5070   -1.1260 O   0  0  0  0  0  0  0  0  0  0  0  0
    6.2930   -1.4660   -0.9100 C   0  0  0  0  0  0  0  0  0  0  0  0
    5.4890   -0.3520   -1.3680 C   0  0  0  0  0  0  0  0  0  0  0  0
    4.1940   -0.2190   -1.1950 C   0  0  0  0  0  0  0  0  0  0  0  0
    3.3680   -1.1820   -0.5120 C   0  0  0  0  0  0  0  0  0  0  0  0
    2.0910   -1.0870   -0.3220 C   0  0  0  0  0  0  0  0  0  0  0  0
    1.2580   -2.0660    0.3840 C   0  0  0  0  0  0  0  0  0  0  0  0
    1.4700   -2.7740    1.4540 C   0  0  0  0  0  0  0  0  0  0  0  0
    2.6370   -2.8000    2.3160 C   0  0  0  0  0  0  0  0  0  0  0  0
    3.7120   -2.1480    2.2830 N   0  0  0  0  0  0  0  0  0  0  0  0
    4.5880   -2.4710    3.2990 O   0  0  0  0  0  0  0  0  0  0  0  0
    4.1390   -3.7500    3.7830 C   0  0  0  0  0  0  0  0  0  0  0  0
    2.7680   -3.6530    3.4520 O   0  0  0  0  0  0  0  0  0  0  0  0
   -0.0560   -2.0360   -0.2710 N   0  0  0  0  0  0  0  0  0  0  0  0
    0.0200   -1.0690   -1.3020 C   0  0  0  0  0  0  0  0  0  0  0  0
   -0.6100   -0.9800   -2.3440 O   0  0  0  0  0  0  0  0  0  0  0  0
    1.0950   -0.1070   -0.8370 C   0  0  1  0  0  0  0  0  0  0  0  0
    0.5070    0.7860    0.1930 C   0  0  0  0  0  0  0  0  0  0  0  0
    0.0050    1.9010   -0.5880 N   0  0  0  0  0  0  0  0  0  0  0  0
   -0.9850    2.8900   -0.2050 C   0  0  0  0  0  0  0  0  0  0  0  0
   -2.3480    2.4470   -0.5710 C   0  0  0  0  0  0  0  0  0  0  0  0
   -2.4860    1.3400   -1.1330 O   0  0  0  0  0  0  0  0  0  0  0  0
   -3.4740    3.2430   -0.2980 N   0  0  0  0  0  0  0  0  0  0  0  0
   -4.7810    2.8030   -0.6530 C   0  0  0  0  0  0  0  0  0  0  0  0
   -5.2070    1.5220    0.0090 C   0  0  0  0  0  0  0  0  0  0  0  0
   -6.9230    1.0270   -0.5040 P   0  0  0  0  0  0  0  0  0  0  0  0
   -7.0570   -0.6860   -0.4110 O   0  0  0  0  0  0  0  0  0  0  0  0
   -8.1310    1.8380    0.4050 O   0  0  0  0  0  0  0  0  0  0  0  0
    0.6900    1.8380   -1.8400 C   0  0  0  0  0  0  0  0  0  0  0  0
    0.5440    2.6930   -2.7570 O   0  0  0  0  0  0  0  0  0  0  0  0
    1.5070    0.7140   -1.8570 O   0  0  0  0  0  0  0  0  0  0  0  0
  1  2  2  0
  2  3  1  0
  3  4  2  3
  4  5  1  0
  5  6  2  3
  6  7  1  0
  6 17  1  0
  7  8  2  3
  7 14  1  0
  8  9  1  0
  9 10  2  0
  9 13  1  0
 10 11  1  0
 11 12  1  0
 12 13  1  0
 14 15  1  0
 15 16  2  0
 15 17  1  0
 17 18  1  1
 17 31  1  0
 18 19  1  0
 19 20  1  0
 19 29  1  0
 20 21  1  0
 21 22  2  0
 21 23  1  0
 23 24  1  0
 24 25  1  0
 25 26  1  0
 26 27  1  0
 26 28  1  0
 29 30  2  0
 29 31  1  0
M  END
