
     RDKit          3D

 30 32  0  0  0  0  0  0  0  0999 V2000
    0.2790   -4.9630   -0.1790 C   0  0  0  0  0  0  0  0  0  0  0  0
   -0.3400   -3.7070   -0.1500 O   0  0  0  0  0  0  0  0  0  0  0  0
    0.4230   -2.5720    0.0840 C   0  0  0  0  0  0  0  0  0  0  0  0
    1.6560   -2.7350    0.2610 O   0  0  0  0  0  0  0  0  0  0  0  0
   -0.1410   -1.2100    0.1330 C   0  0  2  0  0  0  0  0  0  0  0  0
    0.9420   -0.2510    0.4140 C   0  0  0  0  0  0  0  0  0  0  0  0
    2.1820   -0.1500   -0.1030 N   0  0  0  0  0  0  0  0  0  0  0  0
    2.8170    0.8890    0.4620 C   0  0  0  0  0  0  0  0  0  0  0  0
    4.1540    1.3960    0.2390 C   0  0  0  0  0  0  0  0  0  0  0  0
    4.6670    2.4870    0.9070 C   0  0  0  0  0  0  0  0  0  0  0  0
    5.9310    2.9490    0.6820 C   0  0  0  0  0  0  0  0  0  0  0  0
    6.6950    2.2660   -0.2630 C   0  0  0  0  0  0  0  0  0  0  0  0
    7.9900    2.6790   -0.5430 O   0  0  0  0  0  0  0  0  0  0  0  0
    6.1690    1.1910   -0.9100 C   0  0  0  0  0  0  0  0  0  0  0  0
    4.9150    0.7500   -0.6730 N   0  0  0  0  0  0  0  0  0  0  0  0
    1.9470    1.4220    1.3310 N   0  0  0  0  0  0  0  0  0  0  0  0
    0.8580    0.7290    1.2780 O   0  0  0  0  0  0  0  0  0  0  0  0
   -1.2100   -1.0820    1.2070 C   0  0  0  0  0  0  0  0  0  0  0  0
   -2.1940   -0.2930    0.6280 N   0  0  0  0  0  0  0  0  0  0  0  0
   -3.2040    0.2870    1.3740 C   0  0  0  0  0  0  0  0  0  0  0  0
   -4.1390    1.0880    0.5150 C   0  0  1  0  0  0  0  0  0  0  0  0
   -4.7570    0.3170   -0.4610 O   0  0  0  0  0  0  0  0  0  0  0  0
   -5.4170    1.9700    1.5610 P   0  0  0  0  0  0  0  0  0  0  0  0
   -6.2140    3.1250    0.5420 O   0  0  0  0  0  0  0  0  0  0  0  0
   -4.6130    2.8090    2.8380 O   0  0  0  0  0  0  0  0  0  0  0  0
   -1.7860    0.2780   -0.5940 C   0  0  0  0  0  0  0  0  0  0  0  0
   -0.8960   -0.8330   -1.1190 C   0  0  1  0  0  0  0  0  0  0  0  0
   -0.0020   -0.3760   -2.2310 C   0  0  0  0  0  0  0  0  0  0  0  0
   -1.7770   -1.9230   -1.6160 C   0  0  0  0  0  0  0  0  0  0  0  0
   -2.7510   -2.3040   -0.6770 O   0  0  0  0  0  0  0  0  0  0  0  0
  1  2  1  0
  2  3  1  0
  3  4  2  0
  5  3  1  6
  5  6  1  0
  5 18  1  0
  5 27  1  0
  6  7  2  0
  6 17  1  0
  7  8  1  0
  8  9  1  0
  8 16  2  0
  9 10  2  0
  9 15  1  0
 10 11  1  0
 11 12  2  0
 12 13  1  0
 12 14  1  0
 14 15  2  0
 16 17  1  0
 18 19  1  0
 19 20  1  0
 19 26  1  0
 20 21  1  0
 21 22  1  6
 21 23  1  0
 23 24  1  0
 23 25  1  0
 26 27  1  0
 27 28  1  6
 27 29  1  0
 29 30  1  0
M  END
