
     RDKit          3D

 30 32  0  0  0  0  0  0  0  0999 V2000
   -0.4760   -6.1220    0.1120 O   0  0  0  0  0  0  0  0  0  0  0  0
   -1.3950   -5.3300    0.4390 C   0  0  0  0  0  0  0  0  0  0  0  0
   -2.5850   -5.8890    0.8940 O   0  0  0  0  0  0  0  0  0  0  0  0
   -1.2120   -3.9430    0.3420 N   0  0  0  0  0  0  0  0  0  0  0  0
   -2.1700   -3.1800   -0.0260 C   0  0  0  0  0  0  0  0  0  0  0  0
   -3.4540   -3.6200   -0.3610 O   0  0  0  0  0  0  0  0  0  0  0  0
   -4.1250   -3.0780   -1.4760 C   0  0  0  0  0  0  0  0  0  0  0  0
   -4.0970   -1.5700   -1.5290 C   0  0  0  0  0  0  0  0  0  0  0  0
   -3.1660   -1.0220   -0.5570 N   0  0  0  0  0  0  0  0  0  0  0  0
   -2.0080   -1.7070   -0.1380 C   0  0  0  0  0  0  0  0  0  0  0  0
   -0.8580   -1.1630    0.1500 C   0  0  0  0  0  0  0  0  0  0  0  0
   -0.5450    0.2410    0.0890 C   0  0  0  0  0  0  0  0  0  0  0  0
   -1.4230    1.0930   -0.2750 N   0  0  0  0  0  0  0  0  0  0  0  0
   -1.1590    2.4320   -0.3440 O   0  0  0  0  0  0  0  0  0  0  0  0
   -2.2190    3.3040   -0.6220 C   0  0  0  0  0  0  0  0  0  0  0  0
   -1.6950    4.7360   -0.6490 C   0  0  1  0  0  0  0  0  0  0  0  0
   -2.6780    5.8420   -0.9340 C   0  0  0  0  0  0  0  0  0  0  0  0
   -2.1520    5.6550    0.4490 C   0  0  0  0  0  0  0  0  0  0  0  0
    0.8140    0.7690    0.4480 C   0  0  1  0  0  0  0  0  0  0  0  0
    1.0560    0.3770    1.8890 C   0  0  0  0  0  0  0  0  0  0  0  0
    1.5310   -0.9170    1.9320 O   0  0  0  0  0  0  0  0  0  0  0  0
    2.8850   -1.0090    2.2100 C   0  0  0  0  0  0  0  0  0  0  0  0
    3.7310   -0.2960    1.1900 C   0  0  1  0  0  0  0  0  0  0  0  0
    5.0850   -0.9070    1.0700 C   0  0  0  0  0  0  0  0  0  0  0  0
    6.0910   -0.0030   -0.1930 P   0  0  0  0  0  0  0  0  0  0  0  0
    6.6510   -1.0170   -1.4560 O   0  0  0  0  0  0  0  0  0  0  0  0
    5.2740    1.4030   -0.7850 O   0  0  0  0  0  0  0  0  0  0  0  0
    3.0300   -0.4160   -0.1210 C   0  0  0  0  0  0  0  0  0  0  0  0
    3.6450   -1.0650   -1.0330 O   0  0  0  0  0  0  0  0  0  0  0  0
    1.7630    0.1180   -0.4360 N   0  0  0  0  0  0  0  0  0  0  0  0
  1  2  2  0
  2  3  1  0
  2  4  1  0
  4  5  2  3
  5  6  1  0
  5 10  1  0
  6  7  1  0
  7  8  1  0
  8  9  1  0
  9 10  1  0
 10 11  2  3
 11 12  1  0
 12 13  2  3
 19 12  1  6
 13 14  1  0
 14 15  1  0
 16 15  1  1
 16 17  1  0
 16 18  1  0
 17 18  1  0
 19 20  1  0
 19 30  1  0
 20 21  1  0
 21 22  1  0
 22 23  1  0
 23 24  1  6
 23 28  1  0
 24 25  1  0
 25 26  1  0
 25 27  1  0
 28 29  2  0
 28 30  1  0
M  END
