
     RDKit          3D

 31 33  0  0  0  0  0  0  0  0999 V2000
   -4.1360   -3.5530    0.6620 C   0  0  0  0  0  0  0  0  0  0  0  0
   -4.7060   -2.2430    0.7910 C   0  0  0  0  0  0  0  0  0  0  0  0
   -3.9810   -1.0770    0.7220 C   0  0  0  0  0  0  0  0  0  0  0  0
   -2.5840   -1.2580    0.5070 C   0  0  0  0  0  0  0  0  0  0  0  0
   -2.1040   -2.4770    0.3950 O   0  0  0  0  0  0  0  0  0  0  0  0
   -1.5850   -0.2820    0.3910 N   0  0  0  0  0  0  0  0  0  0  0  0
   -0.1980   -0.6260    0.1730 C   0  0  0  0  0  0  0  0  0  0  0  0
    0.7080    0.3310    0.0700 C   0  0  0  0  0  0  0  0  0  0  0  0
    0.4940    1.7240    0.1490 O   0  0  0  0  0  0  0  0  0  0  0  0
    1.7430    2.3830   -0.1480 C   0  0  0  0  0  0  0  0  0  0  0  0
    2.7060    1.4020    0.4610 C   0  0  2  0  0  0  0  0  0  0  0  0
    4.1120    1.5640    0.1970 C   0  0  0  0  0  0  0  0  0  0  0  0
    4.6240    2.7150    0.4330 O   0  0  0  0  0  0  0  0  0  0  0  0
    4.9260    0.5040   -0.3070 N   0  0  0  0  0  0  0  0  0  0  0  0
    6.3600    0.7370   -0.3560 C   0  0  1  0  0  0  0  0  0  0  0  0
    6.9910   -0.3400    0.4270 C   0  0  0  0  0  0  0  0  0  0  0  0
    7.7090   -1.0550   -0.3440 N   0  0  0  0  0  0  0  0  0  0  0  0
    7.6880   -0.6220   -1.6600 N   0  0  0  0  0  0  0  0  0  0  0  0
    6.8460    0.5150   -1.7310 C   0  0  0  0  0  0  0  0  0  0  0  0
    6.5750    1.1890   -2.7540 O   0  0  0  0  0  0  0  0  0  0  0  0
    4.3370   -0.7090   -0.7340 C   0  0  0  0  0  0  0  0  0  0  0  0
    5.0710   -1.6180   -1.1760 O   0  0  0  0  0  0  0  0  0  0  0  0
    2.8740   -0.8160   -0.6230 C   0  0  0  0  0  0  0  0  0  0  0  0
    2.1320    0.1340   -0.1500 C   0  0  0  0  0  0  0  0  0  0  0  0
   -4.7970    0.0830    0.8830 C   0  0  0  0  0  0  0  0  0  0  0  0
   -4.5920    1.3250    0.8940 C   0  0  0  0  0  0  0  0  0  0  0  0
   -3.5060    2.1520    0.7590 O   0  0  0  0  0  0  0  0  0  0  0  0
   -6.2110   -0.2620    1.0820 O   0  0  0  0  0  0  0  0  0  0  0  0
   -7.4340    0.7410    0.3430 P   0  0  0  0  0  0  0  0  0  0  0  0
   -8.8140   -0.2000   -0.1230 O   0  0  0  0  0  0  0  0  0  0  0  0
   -6.7300    1.5760   -0.9940 O   0  0  0  0  0  0  0  0  0  0  0  0
  1  2  1  0
  2  3  2  3
  3  4  1  0
  3 25  1  0
  4  5  2  0
  4  6  1  0
  6  7  1  0
  7  8  2  3
  8  9  1  0
  8 24  1  0
  9 10  1  0
 11 10  1  6
 11 12  1  0
 11 24  1  0
 12 13  2  0
 12 14  1  0
 15 14  1  6
 14 21  1  0
 15 16  1  0
 15 19  1  0
 16 17  2  0
 17 18  1  0
 18 19  1  0
 19 20  2  0
 21 22  2  0
 21 23  1  0
 23 24  2  0
 25 26  2  3
 25 28  1  0
 26 27  1  0
 28 29  1  0
 29 30  1  0
 29 31  1  0
M  END
