
     RDKit          3D

 31 33  0  0  0  0  0  0  0  0999 V2000
    7.6060    0.2760    0.2740 O   0  0  0  0  0  0  0  0  0  0  0  0
    6.7940   -0.5260    0.1490 C   0  0  0  0  0  0  0  0  0  0  0  0
    7.2690   -1.8980   -0.1800 O   0  0  0  0  0  0  0  0  0  0  0  0
    5.3330   -0.5280    0.3420 C   0  0  0  0  0  0  0  0  0  0  0  0
    4.5560   -1.6060    0.2750 C   0  0  0  0  0  0  0  0  0  0  0  0
    3.1700   -1.5190    0.2860 C   0  0  0  0  0  0  0  0  0  0  0  0
    2.6200   -0.2460    0.3660 C   0  0  0  0  0  0  0  0  0  0  0  0
    1.3050    0.0980    0.4020 N   0  0  0  0  0  0  0  0  0  0  0  0
    0.5450    0.5720   -0.6630 C   0  0  0  0  0  0  0  0  0  0  0  0
    0.9850    0.5280   -1.8720 O   0  0  0  0  0  0  0  0  0  0  0  0
   -0.8090    1.0680   -0.3390 C   0  0  2  0  0  0  0  0  0  0  0  0
   -0.5180    2.3640    0.3800 C   0  0  0  0  0  0  0  0  0  0  0  0
   -1.7350    3.0910    0.7680 C   0  0  0  0  0  0  0  0  0  0  0  0
   -2.6270    4.0370   -0.5230 P   0  0  0  0  0  0  0  0  0  0  0  0
   -3.4360    5.3490    0.3500 O   0  0  0  0  0  0  0  0  0  0  0  0
   -1.5320    4.7180   -1.6980 O   0  0  0  0  0  0  0  0  0  0  0  0
   -1.2850    0.1400    0.7360 N   0  0  0  0  0  0  0  0  0  0  0  0
   -2.1850   -0.8820    0.5010 C   0  0  0  0  0  0  0  0  0  0  0  0
   -2.0140   -1.7650   -0.4760 N   0  0  0  0  0  0  0  0  0  0  0  0
   -3.1440   -2.6390   -0.3830 C   0  0  0  0  0  0  0  0  0  0  0  0
   -3.5120   -3.7350   -1.0460 N   0  0  0  0  0  0  0  0  0  0  0  0
   -4.5410   -4.4740   -0.7020 C   0  0  0  0  0  0  0  0  0  0  0  0
   -4.8830   -5.5240   -1.3170 O   0  0  0  0  0  0  0  0  0  0  0  0
   -5.3400   -4.1420    0.3270 O   0  0  0  0  0  0  0  0  0  0  0  0
   -5.0980   -3.0630    0.9720 C   0  0  0  0  0  0  0  0  0  0  0  0
   -5.8200   -2.6770    1.9790 O   0  0  0  0  0  0  0  0  0  0  0  0
   -4.0340   -2.2620    0.6700 C   0  0  0  0  0  0  0  0  0  0  0  0
   -3.3780   -1.1550    1.2300 C   0  0  0  0  0  0  0  0  0  0  0  0
   -3.8740   -0.4810    2.2930 O   0  0  0  0  0  0  0  0  0  0  0  0
    3.4880    0.9010    0.4890 C   0  0  0  0  0  0  0  0  0  0  0  0
    4.8180    0.7980    0.4790 C   0  0  0  0  0  0  0  0  0  0  0  0
  1  2  2  0
  2  3  1  0
  2  4  1  0
  4  5  2  0
  4 31  1  0
  5  6  1  0
  6  7  2  0
  7  8  1  0
  7 30  1  0
  8  9  1  0
  9 10  2  0
  9 11  1  0
 11 12  1  1
 11 17  1  0
 12 13  1  0
 13 14  1  0
 14 15  1  0
 14 16  1  0
 17 18  1  0
 18 19  2  0
 18 28  1  0
 19 20  1  0
 20 21  1  0
 20 27  2  0
 21 22  1  0
 22 23  2  0
 22 24  1  0
 24 25  1  0
 25 26  2  0
 25 27  1  0
 27 28  1  0
 28 29  2  0
 30 31  2  0
M  END
