
     RDKit          3D

 30 32  0  0  0  0  0  0  0  0999 V2000
   -3.9130   -2.7500    1.0260 O   0  0  0  0  0  0  0  0  0  0  0  0
   -4.0790   -1.9160    0.1200 C   0  0  0  0  0  0  0  0  0  0  0  0
   -3.2930   -1.9710   -1.0880 N   0  0  0  0  0  0  0  0  0  0  0  0
   -3.2420   -0.7120   -1.7890 C   0  0  0  0  0  0  0  0  0  0  0  0
   -3.2070   -0.7010   -3.0160 O   0  0  0  0  0  0  0  0  0  0  0  0
   -3.2370    0.5220   -0.9560 C   0  0  2  0  0  0  0  0  0  0  0  0
   -1.9130    0.5100   -0.2320 C   0  0  0  0  0  0  0  0  0  0  0  0
   -2.0040    0.0840    0.9590 O   0  0  0  0  0  0  0  0  0  0  0  0
   -0.6990    0.9150   -0.7720 N   0  0  0  0  0  0  0  0  0  0  0  0
   -0.5960    1.4320   -2.1080 C   0  0  0  0  0  0  0  0  0  0  0  0
   -0.1920    2.8940   -1.9650 C   0  0  0  0  0  0  0  0  0  0  0  0
    0.4810    3.1370   -0.7910 O   0  0  0  0  0  0  0  0  0  0  0  0
    1.3160    2.1050   -0.4000 C   0  0  0  0  0  0  0  0  0  0  0  0
    0.5150    0.8400   -0.0370 C   0  0  1  0  0  0  0  0  0  0  0  0
    0.4000    0.6870    1.4450 C   0  0  0  0  0  0  0  0  0  0  0  0
   -0.2940    1.7200    2.0610 O   0  0  0  0  0  0  0  0  0  0  0  0
    1.3800   -0.3500   -0.5130 C   0  0  0  0  0  0  0  0  0  0  0  0
    2.5640   -0.3080    0.3050 N   0  0  0  0  0  0  0  0  0  0  0  0
    3.5260   -1.3280    0.0320 C   0  0  0  0  0  0  0  0  0  0  0  0
    4.6850   -1.1130    0.9950 C   0  0  0  0  0  0  0  0  0  0  0  0
    5.7790   -2.1360    0.8020 C   0  0  0  0  0  0  0  0  0  0  0  0
    6.4930   -2.0920   -0.8900 P   0  0  0  0  0  0  0  0  0  0  0  0
    8.2140   -2.3340   -0.7720 O   0  0  0  0  0  0  0  0  0  0  0  0
    6.2230   -0.5850   -1.6970 O   0  0  0  0  0  0  0  0  0  0  0  0
   -4.3290    0.4340    0.0240 N   0  0  0  0  0  0  0  0  0  0  0  0
   -4.8740    1.3520    0.9540 C   0  0  0  0  0  0  0  0  0  0  0  0
   -4.4240    2.5170    1.1220 O   0  0  0  0  0  0  0  0  0  0  0  0
   -6.0220    0.7530    1.6790 C   0  0  0  0  0  0  0  0  0  0  0  0
   -5.8180   -0.7200    1.4450 C   0  0  0  0  0  0  0  0  0  0  0  0
   -5.0590   -0.8000    0.1440 C   0  0  2  0  0  0  0  0  0  0  0  0
  1  2  2  0
  2  3  1  0
  2 30  1  0
  3  4  1  0
  4  5  2  0
  4  6  1  0
  6  7  1  1
  6 25  1  0
  7  8  2  0
  7  9  1  0
  9 10  1  0
  9 14  1  0
 10 11  1  0
 11 12  1  0
 12 13  1  0
 13 14  1  0
 14 15  1  1
 14 17  1  0
 15 16  1  0
 17 18  1  0
 18 19  1  0
 19 20  1  0
 20 21  1  0
 21 22  1  0
 22 23  1  0
 22 24  1  0
 25 26  1  0
 25 30  1  0
 26 27  2  0
 26 28  1  0
 28 29  1  0
 30 29  1  1
M  END
