
     RDKit          3D

 24 26  0  0  0  0  0  0  0  0999 V2000
   -1.6710   -2.8600   -1.1250 C   0  0  0  0  0  0  0  0  0  0  0  0
   -2.1130   -1.4860   -1.6490 C   0  0  1  0  0  0  0  0  0  0  0  0
   -3.1650   -0.9820   -0.7300 C   0  0  2  0  0  0  0  0  0  0  0  0
   -4.3940   -1.0420   -1.4280 O   0  0  0  0  0  0  0  0  0  0  0  0
   -2.9970    0.4090   -0.2470 C   0  0  0  0  0  0  0  0  0  0  0  0
   -1.6420    0.7450    0.2800 C   0  0  1  0  0  0  0  0  0  0  0  0
   -1.3030    2.1890   -0.0440 C   0  0  0  0  0  0  0  0  0  0  0  0
   -2.3350    3.0660    0.6110 C   0  0  0  0  0  0  0  0  0  0  0  0
   -2.9630    2.4880    1.6850 O   0  0  0  0  0  0  0  0  0  0  0  0
   -2.0300    1.8790    2.4860 C   0  0  0  0  0  0  0  0  0  0  0  0
   -1.5540    0.6190    1.7930 C   0  0  0  0  0  0  0  0  0  0  0  0
   -0.5980   -0.2030   -0.2680 C   0  0  2  0  0  0  0  0  0  0  0  0
    0.7120    0.2210   -0.0370 O   0  0  0  0  0  0  0  0  0  0  0  0
    1.6380   -0.4020    0.7510 C   0  0  0  0  0  0  0  0  0  0  0  0
    1.3130   -1.4530    1.3330 O   0  0  0  0  0  0  0  0  0  0  0  0
    2.9780    0.2350    0.8500 C   0  0  1  0  0  0  0  0  0  0  0  0
    3.8520   -0.5820    1.7490 C   0  0  0  0  0  0  0  0  0  0  0  0
    4.5800   -1.6430    0.9350 C   0  0  0  0  0  0  0  0  0  0  0  0
    3.9010   -1.9950   -0.2070 O   0  0  0  0  0  0  0  0  0  0  0  0
    3.9140   -0.9580   -1.1510 C   0  0  0  0  0  0  0  0  0  0  0  0
    3.6260    0.3740   -0.5080 C   0  0  1  0  0  0  0  0  0  0  0  0
    2.8920    1.2180   -1.3370 O   0  0  0  0  0  0  0  0  0  0  0  0
   -0.8930   -0.5540   -1.6980 C   0  0  2  0  0  0  0  0  0  0  0  0
   -1.2600    0.5130   -2.4780 O   0  0  0  0  0  0  0  0  0  0  0  0
  2  1  1  1
  2  3  1  0
  2 23  1  0
  3  4  1  6
  3  5  1  0
  6  5  1  6
  6  7  1  0
  6 11  1  0
  6 12  1  0
  7  8  1  0
  8  9  1  0
  9 10  1  0
 10 11  1  0
 12 13  1  6
 12 23  1  0
 13 14  1  0
 14 15  2  0
 16 14  1  6
 16 17  1  0
 16 21  1  0
 17 18  1  0
 18 19  1  0
 19 20  1  0
 20 21  1  0
 21 22  1  6
 23 24  1  6
M  END
