
     RDKit          3D

 24 26  0  0  0  0  0  0  0  0999 V2000
    4.1600   -1.0200    0.5390 C   0  0  0  0  0  0  0  0  0  0  0  0
    3.7660   -0.0450   -0.5860 C   0  0  2  0  0  0  0  0  0  0  0  0
    3.1250    1.1950   -0.0010 C   0  0  0  0  0  0  0  0  0  0  0  0
    2.2850    1.7430   -0.9830 O   0  0  0  0  0  0  0  0  0  0  0  0
    1.1300    2.5150   -0.7860 C   0  0  0  0  0  0  0  0  0  0  0  0
    1.1500    3.5790   -1.5260 O   0  0  0  0  0  0  0  0  0  0  0  0
    0.2310    2.0990    0.0640 O   0  0  0  0  0  0  0  0  0  0  0  0
   -1.0210    1.7890    0.4060 C   0  0  2  0  0  0  0  0  0  0  0  0
   -0.9940    0.8640    1.6110 C   0  0  0  0  0  0  0  0  0  0  0  0
   -1.2290   -0.4970    1.0730 C   0  0  2  0  0  0  0  0  0  0  0  0
   -1.9750   -1.3440    2.0800 C   0  0  0  0  0  0  0  0  0  0  0  0
   -2.2190   -2.6170    1.6310 O   0  0  0  0  0  0  0  0  0  0  0  0
    0.0960   -1.1110    0.7020 C   0  0  0  0  0  0  0  0  0  0  0  0
    0.1040   -1.1610   -0.8050 C   0  0  2  0  0  0  0  0  0  0  0  0
   -1.3390   -1.3450   -1.1180 C   0  0  0  0  0  0  0  0  0  0  0  0
   -1.9970   -0.3520   -0.2190 C   0  0  1  0  0  0  0  0  0  0  0  0
   -3.2840   -0.8290    0.0320 O   0  0  0  0  0  0  0  0  0  0  0  0
   -1.9120    1.0750   -0.5550 C   0  0  1  0  0  0  0  0  0  0  0  0
   -3.3390    1.6240   -0.2960 C   0  0  0  0  0  0  0  0  0  0  0  0
   -1.6700    1.4120   -1.9980 C   0  0  0  0  0  0  0  0  0  0  0  0
    1.0090   -2.2510   -1.2050 C   0  0  0  0  0  0  0  0  0  0  0  0
    0.4900   -3.3270   -1.5460 O   0  0  0  0  0  0  0  0  0  0  0  0
    2.3470   -1.9450   -1.1540 O   0  0  0  0  0  0  0  0  0  0  0  0
    2.9590   -0.7640   -1.6040 C   0  0  0  0  0  0  0  0  0  0  0  0
  2  1  1  1
  2  3  1  0
  2 24  1  0
  3  4  1  0
  4  5  1  0
  5  6  2  0
  5  7  1  0
  8  7  1  6
  8  9  1  0
  8 18  1  0
  9 10  1  0
 10 11  1  1
 10 13  1  0
 10 16  1  0
 11 12  1  0
 13 14  1  0
 14 15  1  1
 14 21  1  0
 15 16  1  0
 16 17  1  1
 16 18  1  0
 18 19  1  1
 18 20  1  0
 21 22  2  0
 21 23  1  0
 23 24  1  0
M  END
