
     RDKit          3D

 24 27  0  0  0  0  0  0  0  0999 V2000
    1.9950   -1.2200    2.5430 O   0  0  0  0  0  0  0  0  0  0  0  0
    1.5860   -0.7840    1.4480 C   0  0  0  0  0  0  0  0  0  0  0  0
    0.1470   -0.7600    1.1440 C   0  0  0  0  0  0  0  0  0  0  0  0
   -0.0030   -0.2270   -0.2660 C   0  0  1  0  0  0  0  0  0  0  0  0
    0.7500   -1.1770   -1.1570 C   0  0  0  0  0  0  0  0  0  0  0  0
   -0.0010   -1.7420   -2.3140 C   0  0  0  0  0  0  0  0  0  0  0  0
   -0.9880   -0.9250   -2.8070 O   0  0  0  0  0  0  0  0  0  0  0  0
   -1.8850   -0.4880   -1.8970 C   0  0  1  0  0  0  0  0  0  0  0  0
   -2.3760   -1.5240   -0.8600 C   0  0  0  0  0  0  0  0  0  0  0  0
   -2.5860   -0.3430   -0.0420 C   0  0  1  0  0  0  0  0  0  0  0  0
   -2.4890   -0.1770    1.2630 O   0  0  0  0  0  0  0  0  0  0  0  0
   -2.8400    1.1760    1.5170 C   0  0  2  0  0  0  0  0  0  0  0  0
   -4.2950    1.1550    1.9450 C   0  0  0  0  0  0  0  0  0  0  0  0
   -4.6500    2.4830    2.1980 O   0  0  0  0  0  0  0  0  0  0  0  0
   -2.6020    2.0750    0.3780 C   0  0  0  0  0  0  0  0  0  0  0  0
   -1.5470    1.7030   -0.6030 C   0  0  0  0  0  0  0  0  0  0  0  0
   -1.3100    0.2160   -0.6950 C   0  0  1  0  0  0  0  0  0  0  0  0
    2.4920   -0.3270    0.5300 O   0  0  0  0  0  0  0  0  0  0  0  0
    3.8900   -0.3110    0.7370 C   0  0  1  0  0  0  0  0  0  0  0  0
    4.5430   -0.9700   -0.4470 C   0  0  0  0  0  0  0  0  0  0  0  0
    5.9140   -0.3040   -0.4200 C   0  0  0  0  0  0  0  0  0  0  0  0
    5.5580    1.0470   -0.1350 O   0  0  0  0  0  0  0  0  0  0  0  0
    4.3620    1.1040    0.5610 C   0  0  0  0  0  0  0  0  0  0  0  0
    3.8050    2.1440    0.9530 O   0  0  0  0  0  0  0  0  0  0  0  0
  1  2  2  0
  2  3  1  0
  2 18  1  0
  4  3  1  1
  4  5  1  0
  4 17  1  0
  5  6  1  0
  6  7  1  0
  7  8  1  0
  8  9  1  1
  8 17  1  0
 10  9  1  1
 10 11  1  0
 10 17  1  0
 11 12  1  0
 12 13  1  6
 12 15  1  0
 13 14  1  0
 15 16  1  0
 17 16  1  6
 19 18  1  6
 19 20  1  0
 19 23  1  0
 20 21  1  0
 21 22  1  0
 22 23  1  0
 23 24  2  0
M  END
