
     RDKit          3D

 24 26  0  0  0  0  0  0  0  0999 V2000
   -3.1530   -1.3390    2.4500 C   0  0  0  0  0  0  0  0  0  0  0  0
   -2.5960   -0.7890    1.1260 C   0  0  1  0  0  0  0  0  0  0  0  0
   -2.0890    0.5830    1.3720 C   0  0  0  0  0  0  0  0  0  0  0  0
   -0.6070    0.7230    0.9550 C   0  0  2  0  0  0  0  0  0  0  0  0
   -0.3650    2.2030    1.0230 C   0  0  0  0  0  0  0  0  0  0  0  0
   -1.0400    2.9870   -0.0470 C   0  0  0  0  0  0  0  0  0  0  0  0
   -1.0500    2.3580   -1.3920 C   0  0  0  0  0  0  0  0  0  0  0  0
   -1.3410    0.9010   -1.3240 C   0  0  0  0  0  0  0  0  0  0  0  0
   -0.3650    0.1310   -0.3840 C   0  0  1  0  0  0  0  0  0  0  0  0
    0.9670    0.3760   -0.9360 C   0  0  2  0  0  0  0  0  0  0  0  0
    0.9690   -0.2480   -2.2840 O   0  0  0  0  0  0  0  0  0  0  0  0
    2.2120   -0.1170   -0.2950 C   0  0  1  0  0  0  0  0  0  0  0  0
    3.2990    0.1630   -1.2200 O   0  0  0  0  0  0  0  0  0  0  0  0
    2.7180    0.6090    0.9210 C   0  0  0  0  0  0  0  0  0  0  0  0
    3.9160    0.1490    1.4100 O   0  0  0  0  0  0  0  0  0  0  0  0
    5.1630    0.1790    0.8960 C   0  0  0  0  0  0  0  0  0  0  0  0
    5.4130    0.6950   -0.2030 O   0  0  0  0  0  0  0  0  0  0  0  0
    6.2470   -0.3900    1.6110 O   0  0  0  0  0  0  0  0  0  0  0  0
   -0.8830   -1.2620   -0.3920 C   0  0  2  0  0  0  0  0  0  0  0  0
    0.0730   -2.3890   -0.6130 C   0  0  0  0  0  0  0  0  0  0  0  0
   -0.9200   -3.4970   -1.0340 C   0  0  0  0  0  0  0  0  0  0  0  0
   -2.1510   -2.9160   -1.1660 O   0  0  0  0  0  0  0  0  0  0  0  0
   -1.8280   -1.5880   -1.5400 C   0  0  0  0  0  0  0  0  0  0  0  0
   -1.5880   -1.6260    0.7670 O   0  0  0  0  0  0  0  0  0  0  0  0
  2  1  1  1
  2  3  1  0
  2 24  1  0
  4  3  1  6
  4  5  1  0
  4  9  1  0
  5  6  1  0
  6  7  1  0
  7  8  1  0
  9  8  1  6
  9 10  1  0
  9 19  1  0
 10 11  1  6
 10 12  1  0
 12 13  1  6
 12 14  1  0
 14 15  1  0
 15 16  1  0
 16 17  2  0
 16 18  1  0
 19 20  1  6
 19 23  1  0
 19 24  1  0
 20 21  1  0
 21 22  1  0
 22 23  1  0
M  END
