
     RDKit          3D

 24 26  0  0  0  0  0  0  0  0999 V2000
    1.7490   -0.2290    1.5410 C   0  0  0  0  0  0  0  0  0  0  0  0
    1.6430   -0.4670    0.0760 C   0  0  1  0  0  0  0  0  0  0  0  0
    1.4950   -1.8570   -0.2110 O   0  0  0  0  0  0  0  0  0  0  0  0
    0.5780    0.3200   -0.5990 C   0  0  0  0  0  0  0  0  0  0  0  0
   -0.7090    0.0540   -0.3790 O   0  0  0  0  0  0  0  0  0  0  0  0
   -1.3280    0.1840    0.8040 C   0  0  2  0  0  0  0  0  0  0  0  0
   -1.7750   -1.1520    1.3800 C   0  0  0  0  0  0  0  0  0  0  0  0
   -2.9730   -1.7120    0.6720 C   0  0  2  0  0  0  0  0  0  0  0  0
   -2.6630   -2.2030   -0.5900 O   0  0  0  0  0  0  0  0  0  0  0  0
   -4.1070   -0.7160    0.6340 C   0  0  0  0  0  0  0  0  0  0  0  0
   -3.7070    0.6250    0.1200 C   0  0  1  0  0  0  0  0  0  0  0  0
   -3.6030    0.6230   -1.3860 C   0  0  0  0  0  0  0  0  0  0  0  0
   -4.9940    1.0750   -1.7890 C   0  0  0  0  0  0  0  0  0  0  0  0
   -5.2850    2.0790   -0.7310 C   0  0  0  0  0  0  0  0  0  0  0  0
   -5.8750    3.1770   -0.9170 O   0  0  0  0  0  0  0  0  0  0  0  0
   -4.7730    1.5320    0.4370 O   0  0  0  0  0  0  0  0  0  0  0  0
   -2.4790    1.1760    0.7810 C   0  0  0  0  0  0  0  0  0  0  0  0
    2.9990   -0.1560   -0.5980 C   0  0  1  0  0  0  0  0  0  0  0  0
    3.4620    1.2310   -0.3850 C   0  0  0  0  0  0  0  0  0  0  0  0
    4.9400    1.4320   -0.4490 C   0  0  0  0  0  0  0  0  0  0  0  0
    5.7080    0.3210   -0.4700 O   0  0  0  0  0  0  0  0  0  0  0  0
    5.2440   -0.7670   -1.1600 C   0  0  0  0  0  0  0  0  0  0  0  0
    3.9810   -1.2470   -0.4310 C   0  0  1  0  0  0  0  0  0  0  0  0
    4.3370   -1.6060    0.8350 O   0  0  0  0  0  0  0  0  0  0  0  0
  2  1  1  1
  2  3  1  0
  2  4  1  0
  2 18  1  0
  4  5  1  0
  6  5  1  6
  6  7  1  0
  6 17  1  0
  7  8  1  0
  8  9  1  6
  8 10  1  0
 11 10  1  1
 11 12  1  0
 11 16  1  0
 11 17  1  0
 12 13  1  0
 13 14  1  0
 14 15  2  0
 14 16  1  0
 18 19  1  1
 18 23  1  0
 19 20  1  0
 20 21  1  0
 21 22  1  0
 22 23  1  0
 23 24  1  1
M  END
