
     RDKit          3D

 24 27  0  0  0  0  0  0  0  0999 V2000
   -4.5110   -2.6160    0.6280 O   0  0  0  0  0  0  0  0  0  0  0  0
   -3.6190   -1.5610    0.8600 C   0  0  0  0  0  0  0  0  0  0  0  0
   -4.0470   -0.3460    0.0340 C   0  0  1  0  0  0  0  0  0  0  0  0
   -3.2830    0.7280    0.1600 O   0  0  0  0  0  0  0  0  0  0  0  0
   -2.0400    0.9020   -0.2330 C   0  0  1  0  0  0  0  0  0  0  0  0
   -1.1430    1.0150    1.0110 C   0  0  0  0  0  0  0  0  0  0  0  0
    0.3100    1.1090    0.6300 C   0  0  1  0  0  0  0  0  0  0  0  0
    1.0590    0.5900    1.6550 O   0  0  0  0  0  0  0  0  0  0  0  0
    2.4150    0.6910    1.5150 C   0  0  1  0  0  0  0  0  0  0  0  0
    3.0220   -0.2660    2.5510 C   0  0  0  0  0  0  0  0  0  0  0  0
    4.4670   -0.1050    2.6940 C   0  0  0  0  0  0  0  0  0  0  0  0
    5.4160    0.0220    1.7800 C   0  0  0  0  0  0  0  0  0  0  0  0
    5.2540    0.0360    0.2870 C   0  0  0  0  0  0  0  0  0  0  0  0
    4.2120    0.9570    0.0290 O   0  0  0  0  0  0  0  0  0  0  0  0
    2.9610    0.3160    0.1840 C   0  0  2  0  0  0  0  0  0  0  0  0
    2.0880    0.7260   -0.9820 C   0  0  1  0  0  0  0  0  0  0  0  0
    2.5230    0.0330   -2.1220 O   0  0  0  0  0  0  0  0  0  0  0  0
    0.6720    0.4100   -0.6320 C   0  0  2  0  0  0  0  0  0  0  0  0
   -0.2270    0.6750   -1.6600 O   0  0  0  0  0  0  0  0  0  0  0  0
   -1.4180    0.0100   -1.2610 C   0  0  2  0  0  0  0  0  0  0  0  0
   -2.3000   -0.0200   -2.4340 C   0  0  0  0  0  0  0  0  0  0  0  0
   -3.5760   -0.3520   -2.4310 C   0  0  0  0  0  0  0  0  0  0  0  0
   -4.4680   -0.7670   -1.3530 C   0  0  2  0  0  0  0  0  0  0  0  0
   -5.7630   -0.2990   -1.6820 O   0  0  0  0  0  0  0  0  0  0  0  0
  1  2  1  0
  3  2  1  6
  3  4  1  0
  3 23  1  0
  4  5  1  0
  5  6  1  1
  5 20  1  0
  7  6  1  1
  7  8  1  0
  7 18  1  0
  8  9  1  0
  9 10  1  1
  9 15  1  0
 10 11  1  0
 11 12  2  0
 12 13  1  0
 13 14  1  0
 15 14  1  6
 15 16  1  0
 16 17  1  6
 16 18  1  0
 18 19  1  6
 20 19  1  6
 20 21  1  0
 21 22  2  0
 22 23  1  0
 23 24  1  6
M  END
