
     RDKit          3D

 24 26  0  0  0  0  0  0  0  0999 V2000
   -6.3130    0.2880   -0.6040 C   0  0  0  0  0  0  0  0  0  0  0  0
   -5.3890   -0.5360   -1.4600 C   0  0  1  0  0  0  0  0  0  0  0  0
   -5.8560   -0.4930   -2.7680 O   0  0  0  0  0  0  0  0  0  0  0  0
   -3.9970    0.0300   -1.4650 C   0  0  0  0  0  0  0  0  0  0  0  0
   -3.4460    0.4410   -2.5200 O   0  0  0  0  0  0  0  0  0  0  0  0
   -3.2480    0.1260   -0.2950 O   0  0  0  0  0  0  0  0  0  0  0  0
   -1.9200    0.6720   -0.3350 C   0  0  1  0  0  0  0  0  0  0  0  0
   -1.8070    1.7390    0.7210 C   0  0  0  0  0  0  0  0  0  0  0  0
   -1.1290    0.7240    1.6150 C   0  0  2  0  0  0  0  0  0  0  0  0
    0.0650    1.1550    2.1830 O   0  0  0  0  0  0  0  0  0  0  0  0
   -0.9960   -0.1820    0.4390 C   0  0  1  0  0  0  0  0  0  0  0  0
   -1.4430   -1.6090    0.6750 C   0  0  0  0  0  0  0  0  0  0  0  0
   -0.7740   -2.4120   -0.4210 C   0  0  0  0  0  0  0  0  0  0  0  0
    0.1680   -1.4610   -1.1300 C   0  0  0  0  0  0  0  0  0  0  0  0
    0.4020   -0.3870   -0.1090 C   0  0  2  0  0  0  0  0  0  0  0  0
    1.1550   -0.8670    0.9470 O   0  0  0  0  0  0  0  0  0  0  0  0
    0.9850    0.8400   -0.6950 C   0  0  0  0  0  0  0  0  0  0  0  0
    2.2610    0.7180   -1.1720 O   0  0  0  0  0  0  0  0  0  0  0  0
    3.2740    0.4680   -0.3060 C   0  0  2  0  0  0  0  0  0  0  0  0
    4.3720    1.5520   -0.4490 C   0  0  0  0  0  0  0  0  0  0  0  0
    5.6500    1.1540    0.1930 C   0  0  0  0  0  0  0  0  0  0  0  0
    5.6670   -0.1590    0.8600 C   0  0  0  0  0  0  0  0  0  0  0  0
    4.8540   -1.1250    0.3880 O   0  0  0  0  0  0  0  0  0  0  0  0
    4.0310   -0.8080   -0.6740 C   0  0  0  0  0  0  0  0  0  0  0  0
  2  1  1  1
  2  3  1  0
  2  4  1  0
  4  5  2  0
  4  6  1  0
  7  6  1  1
  7  8  1  0
  7 11  1  0
  8  9  1  0
  9 10  1  6
  9 11  1  0
 11 12  1  1
 11 15  1  0
 12 13  1  0
 13 14  1  0
 14 15  1  0
 15 16  1  1
 15 17  1  0
 17 18  1  0
 19 18  1  6
 19 20  1  0
 19 24  1  0
 20 21  1  0
 21 22  1  0
 22 23  1  0
 23 24  1  0
M  END
