
     RDKit          3D

 19 20  0  0  0  0  0  0  0  0999 V2000
    1.8960    1.9390    1.9870 O   0  0  0  0  0  0  0  0  0  0  0  0
    2.0830    1.3930    0.8520 C   0  0  0  0  0  0  0  0  0  0  0  0
    1.4870    2.0630   -0.3210 C   0  0  0  0  0  0  0  0  0  0  0  0
    0.2090    2.6940    0.0390 N   0  0  0  0  0  0  0  0  0  0  0  0
   -1.0330    2.4380   -0.5950 C   0  0  0  0  0  0  0  0  0  0  0  0
   -1.6810    3.4990   -0.9480 O   0  0  0  0  0  0  0  0  0  0  0  0
   -1.5730    1.1490   -0.8480 N   0  0  0  0  0  0  0  0  0  0  0  0
   -1.3620   -0.0350   -0.0500 C   0  0  1  0  0  0  0  0  0  0  0  0
   -2.4080    0.0750    1.0810 C   0  0  0  0  0  0  0  0  0  0  0  0
   -2.2270    1.2100    1.8270 O   0  0  0  0  0  0  0  0  0  0  0  0
   -1.6460   -1.3180   -0.7310 C   0  0  1  0  0  0  0  0  0  0  0  0
   -1.7460   -1.3330   -2.1860 C   0  0  0  0  0  0  0  0  0  0  0  0
   -0.6250   -1.9700   -1.4870 C   0  0  0  0  0  0  0  0  0  0  0  0
    0.3910   -2.5570   -1.0590 N   0  0  0  0  0  0  0  0  0  0  0  0
    0.9430   -2.8240    0.1400 C   0  0  0  0  0  0  0  0  0  0  0  0
    1.9140   -2.0050    0.5950 C   0  0  0  0  0  0  0  0  0  0  0  0
    2.5190   -2.2280    1.8230 O   0  0  0  0  0  0  0  0  0  0  0  0
    2.3870   -0.8280   -0.1830 C   0  0  0  0  0  0  0  0  0  0  0  0
    2.8240    0.2060    0.7140 N   0  0  0  0  0  0  0  0  0  0  0  0
  1  2  2  0
  2  3  1  0
  2 19  1  0
  3  4  1  0
  4  5  1  0
  5  6  2  0
  5  7  1  0
  7  8  1  0
  8  9  1  1
  8 11  1  0
  9 10  1  0
 11 12  1  6
 11 13  1  0
 12 13  1  0
 13 14  2  0
 14 15  1  0
 15 16  2  0
 16 17  1  0
 16 18  1  0
 18 19  1  0
M  END
