
     RDKit          3D

 13 14  0  0  0  0  0  0  0  0999 V2000
   -3.6510   -1.2120    0.5660 N   0  0  0  0  0  0  0  0  0  0  0  0
   -2.3590   -0.6750    0.3240 C   0  0  0  0  0  0  0  0  0  0  0  0
   -2.1730    0.6120   -0.0210 N   0  0  0  0  0  0  0  0  0  0  0  0
   -0.9520    1.1190   -0.2500 C   0  0  0  0  0  0  0  0  0  0  0  0
   -0.8280    2.4820   -0.6090 N   0  0  0  0  0  0  0  0  0  0  0  0
    0.1580    0.3360   -0.1390 C   0  0  0  0  0  0  0  0  0  0  0  0
    1.3920    0.8970   -0.3830 C   0  0  0  0  0  0  0  0  0  0  0  0
    2.5000    0.0730   -0.2620 C   0  0  0  0  0  0  0  0  0  0  0  0
    3.7910    0.5480   -0.4880 O   0  0  0  0  0  0  0  0  0  0  0  0
    2.3550   -1.2600    0.0910 C   0  0  0  0  0  0  0  0  0  0  0  0
    1.1040   -1.7830    0.3270 C   0  0  0  0  0  0  0  0  0  0  0  0
   -0.0240   -0.9860    0.2140 C   0  0  0  0  0  0  0  0  0  0  0  0
   -1.2600   -1.4690    0.4380 N   0  0  0  0  0  0  0  0  0  0  0  0
  1  2  1  0
  2  3  2  0
  2 13  1  0
  3  4  1  0
  4  5  1  0
  4  6  2  0
  6  7  1  0
  6 12  1  0
  7  8  2  0
  8  9  1  0
  8 10  1  0
 10 11  2  0
 11 12  1  0
 12 13  2  0
M  END
