
     RDKit          3D

 13 14  0  0  0  0  0  0  0  0999 V2000
    3.1160    1.0440    0.5430 N   0  0  0  0  0  0  0  0  0  0  0  0
    1.7680    0.6180    0.2980 C   0  0  0  0  0  0  0  0  0  0  0  0
    0.8500    1.4310   -0.3020 C   0  0  0  0  0  0  0  0  0  0  0  0
   -0.4340    1.0150   -0.5300 C   0  0  0  0  0  0  0  0  0  0  0  0
   -1.3310    1.8390   -1.1280 N   0  0  0  0  0  0  0  0  0  0  0  0
   -2.5870    1.4090   -1.3430 C   0  0  0  0  0  0  0  0  0  0  0  0
   -2.9150    0.1630   -0.9540 N   0  0  0  0  0  0  0  0  0  0  0  0
   -2.0570   -0.6810   -0.3600 C   0  0  0  0  0  0  0  0  0  0  0  0
   -2.4470   -1.9850    0.0330 N   0  0  0  0  0  0  0  0  0  0  0  0
   -0.7730   -0.2610   -0.1330 C   0  0  0  0  0  0  0  0  0  0  0  0
    0.1380   -1.1000    0.4750 C   0  0  0  0  0  0  0  0  0  0  0  0
    1.4290   -0.6590    0.6960 C   0  0  0  0  0  0  0  0  0  0  0  0
    2.3340   -1.5110    1.3080 O   0  0  0  0  0  0  0  0  0  0  0  0
  1  2  1  0
  2  3  2  0
  2 12  1  0
  3  4  1  0
  4  5  2  0
  4 10  1  0
  5  6  1  0
  6  7  2  0
  7  8  1  0
  8  9  1  0
  8 10  2  0
 10 11  1  0
 11 12  2  0
 12 13  1  0
M  END
