
     RDKit          3D

 13 14  0  0  0  0  0  0  0  0999 V2000
   -0.5370    2.7070    0.0750 N   0  0  0  0  0  0  0  0  0  0  0  0
   -0.9130    1.3350    0.1370 C   0  0  0  0  0  0  0  0  0  0  0  0
   -2.1610    1.0770    0.3190 N   0  0  0  0  0  0  0  0  0  0  0  0
   -2.8150   -0.2040    0.4200 C   0  0  0  0  0  0  0  0  0  0  0  0
   -2.3310   -1.4310    0.3120 C   0  0  0  0  0  0  0  0  0  0  0  0
   -0.9670   -1.8020    0.0530 N   0  0  0  0  0  0  0  0  0  0  0  0
    0.1760   -0.9610   -0.0570 C   0  0  0  0  0  0  0  0  0  0  0  0
    1.3690   -1.6410   -0.2160 C   0  0  0  0  0  0  0  0  0  0  0  0
    2.5690   -0.9480   -0.3370 C   0  0  0  0  0  0  0  0  0  0  0  0
    3.6450   -1.5840   -0.4820 O   0  0  0  0  0  0  0  0  0  0  0  0
    2.5990    0.3960   -0.3020 N   0  0  0  0  0  0  0  0  0  0  0  0
    1.4410    1.0750   -0.1470 C   0  0  0  0  0  0  0  0  0  0  0  0
    0.2180    0.4170   -0.0220 C   0  0  0  0  0  0  0  0  0  0  0  0
  1  2  1  0
  2  3  2  0
  2 13  1  0
  3  4  1  0
  4  5  2  0
  5  6  1  0
  6  7  1  0
  7  8  2  0
  7 13  1  0
  8  9  1  0
  9 10  2  0
  9 11  1  0
 11 12  1  0
 12 13  2  0
M  END
