
     RDKit          3D

 19 20  0  0  0  0  0  0  0  0999 V2000
   -4.3200    0.3270    1.7980 C   0  0  0  0  0  0  0  0  0  0  0  0
   -3.5750    0.5170    0.4740 C   0  0  1  0  0  0  0  0  0  0  0  0
   -2.1120    0.4580    0.6740 C   0  0  0  0  0  0  0  0  0  0  0  0
   -1.3440   -0.2430   -0.4050 C   0  0  1  0  0  0  0  0  0  0  0  0
   -0.0090   -0.3610   -0.0020 O   0  0  0  0  0  0  0  0  0  0  0  0
    1.0260    0.2560   -0.6560 C   0  0  0  0  0  0  0  0  0  0  0  0
    0.7600    0.9580   -1.6620 O   0  0  0  0  0  0  0  0  0  0  0  0
    2.3870    0.0890   -0.1800 C   0  0  0  0  0  0  0  0  0  0  0  0
    3.3760    0.6890   -0.8190 C   0  0  0  0  0  0  0  0  0  0  0  0
    3.1520    1.5060   -1.9750 N   0  0  0  0  0  0  0  0  0  0  0  0
    4.6940    0.5040   -0.3270 N   0  0  0  0  0  0  0  0  0  0  0  0
    4.9200    0.1730    1.0490 C   0  0  0  0  0  0  0  0  0  0  0  0
    3.9900   -0.8750    1.4260 N   0  0  0  0  0  0  0  0  0  0  0  0
    2.6390   -0.7350    0.9890 C   0  0  0  0  0  0  0  0  0  0  0  0
    1.7290   -1.3280    1.6330 O   0  0  0  0  0  0  0  0  0  0  0  0
   -1.9400   -1.5610   -0.8120 C   0  0  0  0  0  0  0  0  0  0  0  0
   -3.3310   -1.3030   -1.2680 C   0  0  0  0  0  0  0  0  0  0  0  0
   -3.7940   -1.8280   -2.3300 O   0  0  0  0  0  0  0  0  0  0  0  0
   -4.1080   -0.4380   -0.4500 N   0  0  0  0  0  0  0  0  0  0  0  0
  2  1  1  1
  2  3  1  0
  2 19  1  0
  3  4  1  0
  4  5  1  1
  4 16  1  0
  5  6  1  0
  6  7  2  0
  6  8  1  0
  8  9  2  0
  8 14  1  0
  9 10  1  0
  9 11  1  0
 11 12  1  0
 12 13  1  0
 13 14  1  0
 14 15  2  0
 16 17  1  0
 17 18  2  0
 17 19  1  0
M  END
