
     RDKit          3D

 16 16  0  0  0  0  0  0  0  0999 V2000
   -4.6390   -2.2290    1.2710 O   0  0  0  0  0  0  0  0  0  0  0  0
   -4.2760   -1.2220    0.5780 C   0  0  0  0  0  0  0  0  0  0  0  0
   -5.0970    0.0100    0.7410 C   0  0  0  0  0  0  0  0  0  0  0  0
   -4.1940    1.3350   -0.1550 S   0  0  0  0  0  0  0  0  0  0  0  0
   -2.4410    0.9680    0.1540 C   0  0  0  0  0  0  0  0  0  0  0  0
   -2.1410   -0.3540   -0.4640 C   0  0  1  0  0  0  0  0  0  0  0  0
   -0.8180   -0.8990   -0.0280 C   0  0  0  0  0  0  0  0  0  0  0  0
   -0.7430   -2.0520    0.4270 O   0  0  0  0  0  0  0  0  0  0  0  0
    0.3490   -0.1100   -0.1320 N   0  0  0  0  0  0  0  0  0  0  0  0
    1.6060   -0.6820    0.3030 C   0  0  0  0  0  0  0  0  0  0  0  0
    2.7240    0.2550    0.1350 C   0  0  0  0  0  0  0  0  0  0  0  0
    2.6650    1.4670    0.8140 O   0  0  0  0  0  0  0  0  0  0  0  0
    3.7750   -0.0040   -0.6290 C   0  0  0  0  0  0  0  0  0  0  0  0
    4.8760    0.9810   -0.7620 C   0  0  0  0  0  0  0  0  0  0  0  0
    6.0870    0.4290   -0.3230 O   0  0  0  0  0  0  0  0  0  0  0  0
   -3.1670   -1.3400   -0.2610 N   0  0  0  0  0  0  0  0  0  0  0  0
  1  2  2  0
  2  3  1  0
  2 16  1  0
  3  4  1  0
  4  5  1  0
  5  6  1  0
  6  7  1  1
  6 16  1  0
  7  8  2  0
  7  9  1  0
  9 10  1  0
 10 11  1  0
 11 12  1  0
 11 13  2  3
 13 14  1  0
 14 15  1  0
M  END
