
     RDKit          3D

 16 16  0  0  0  0  0  0  0  0999 V2000
   -1.5560   -2.0640   -0.4760 C   0  0  0  0  0  0  0  0  0  0  0  0
   -2.2570   -0.7630   -0.2950 C   0  0  0  0  0  0  0  0  0  0  0  0
   -3.3440   -0.4620   -1.0290 C   0  0  0  0  0  0  0  0  0  0  0  0
   -3.9990    0.7440   -0.8660 O   0  0  0  0  0  0  0  0  0  0  0  0
   -3.5980    1.6950    0.0680 C   0  0  0  0  0  0  0  0  0  0  0  0
   -2.4110    1.3210    0.8400 C   0  0  0  0  0  0  0  0  0  0  0  0
   -1.7460    0.1580    0.6940 C   0  0  0  0  0  0  0  0  0  0  0  0
   -0.3540   -0.1250    1.6710 S   0  0  1  0  0  0  0  0  0  0  0  0
   -0.5490    0.6430    2.9750 O   0  0  0  0  0  0  0  0  0  0  0  0
   -0.1070   -1.5260    2.0650 O   0  0  0  0  0  0  0  0  0  0  0  0
    1.1110    0.4990    0.9960 N   0  0  0  0  0  0  0  0  0  0  0  0
    1.3520   -0.1480   -0.2540 C   0  0  0  0  0  0  0  0  0  0  0  0
    2.5980    0.3060   -0.9400 C   0  0  0  0  0  0  0  0  0  0  0  0
    3.8270    0.0460   -0.1710 C   0  0  0  0  0  0  0  0  0  0  0  0
    5.0960    0.5410   -0.5910 N   0  0  0  0  0  0  0  0  0  0  0  0
    3.7840   -0.6260    0.8830 O   0  0  0  0  0  0  0  0  0  0  0  0
  1  2  1  0
  2  3  2  0
  2  7  1  0
  3  4  1  0
  4  5  1  0
  5  6  1  0
  6  7  2  0
  7  8  1  0
  8  9  2  0
  8 10  2  0
  8 11  1  6
 11 12  1  0
 12 13  1  0
 13 14  1  0
 14 15  1  0
 14 16  2  0
M  END
