
     RDKit          3D

 15 15  0  0  0  0  0  0  0  0999 V2000
    3.9100    1.3460    0.1440 C   0  0  0  0  0  0  0  0  0  0  0  0
    4.3960    0.1690   -0.2100 C   0  0  0  0  0  0  0  0  0  0  0  0
    3.5160   -0.9300   -0.5700 C   0  0  0  0  0  0  0  0  0  0  0  0
    3.9860   -2.0400   -0.9030 O   0  0  0  0  0  0  0  0  0  0  0  0
    2.1340   -0.8180   -0.5660 O   0  0  0  0  0  0  0  0  0  0  0  0
    1.3250   -1.9180   -0.9250 C   0  0  0  0  0  0  0  0  0  0  0  0
   -0.1410   -1.5290   -0.8380 C   0  0  0  0  0  0  0  0  0  0  0  0
   -1.0260   -2.3680   -1.1170 O   0  0  0  0  0  0  0  0  0  0  0  0
   -0.5190   -0.2310   -0.4440 N   0  0  0  0  0  0  0  0  0  0  0  0
   -1.8630    0.2670   -0.3200 C   0  0  0  0  0  0  0  0  0  0  0  0
   -2.9430   -0.3810   -0.5450 C   0  0  0  0  0  0  0  0  0  0  0  0
   -4.2420    0.2820   -0.3690 C   0  0  0  0  0  0  0  0  0  0  0  0
   -3.7100    2.0390   -0.4680 S   0  0  0  0  0  0  0  0  0  0  0  0
   -2.0250    1.7010    0.1220 C   0  0  1  0  0  0  0  0  0  0  0  0
   -1.9610    1.7080    1.5680 N   0  0  0  0  0  0  0  0  0  0  0  0
  1  2  2  0
  2  3  1  0
  3  4  2  0
  3  5  1  0
  5  6  1  0
  6  7  1  0
  7  8  2  0
  7  9  1  0
  9 10  1  0
 10 11  2  0
 10 14  1  0
 11 12  1  0
 12 13  1  0
 13 14  1  0
 14 15  1  1
M  END
