
     RDKit          3D

 16 16  0  0  0  0  0  0  0  0999 V2000
    5.6420    0.2950   -0.2050 N   0  0  0  0  0  0  0  0  0  0  0  0
    4.4730    0.2790    0.6010 C   0  0  0  0  0  0  0  0  0  0  0  0
    4.5790    0.4320    1.8440 O   0  0  0  0  0  0  0  0  0  0  0  0
    3.1340    0.0900    0.0410 C   0  0  0  0  0  0  0  0  0  0  0  0
    2.0480    0.1090    1.0920 C   0  0  0  0  0  0  0  0  0  0  0  0
    0.7080   -0.0870    0.4750 C   0  0  0  0  0  0  0  0  0  0  0  0
    0.5950   -0.2430   -0.7880 O   0  0  0  0  0  0  0  0  0  0  0  0
   -0.4820   -0.1090    1.2440 N   0  0  0  0  0  0  0  0  0  0  0  0
   -1.7410   -0.3040    0.5770 C   0  0  0  0  0  0  0  0  0  0  0  0
   -2.4830   -1.3430    0.8980 C   0  0  0  0  0  0  0  0  0  0  0  0
   -3.7820   -1.5740    0.2340 C   0  0  0  0  0  0  0  0  0  0  0  0
   -4.1420   -0.6320   -0.7270 O   0  0  0  0  0  0  0  0  0  0  0  0
   -3.3420    0.4420   -1.0380 C   0  0  0  0  0  0  0  0  0  0  0  0
   -3.8360    1.6140   -2.2640 S   0  0  0  0  0  0  0  0  0  0  0  0
   -4.4810    2.8260   -1.6110 O   0  0  0  0  0  0  0  0  0  0  0  0
   -2.1810    0.6410   -0.4390 C   0  0  0  0  0  0  0  0  0  0  0  0
  1  2  1  0
  2  3  2  0
  2  4  1  0
  4  5  1  0
  5  6  1  0
  6  7  2  0
  6  8  1  0
  8  9  1  0
  9 10  2  0
  9 16  1  0
 10 11  1  0
 11 12  1  0
 12 13  1  0
 13 14  1  0
 13 16  2  0
 14 15  2  0
M  END
