
     RDKit          3D

 16 16  0  0  0  0  0  0  0  0999 V2000
   -2.2950   -3.4420   -0.1930 C   0  0  0  0  0  0  0  0  0  0  0  0
   -1.3280   -2.8340    0.6270 O   0  0  0  0  0  0  0  0  0  0  0  0
   -1.2000   -1.4680    0.6650 C   0  0  0  0  0  0  0  0  0  0  0  0
   -0.2360   -0.9180   -0.0390 C   0  0  0  0  0  0  0  0  0  0  0  0
    0.1230    0.4640   -0.1820 C   0  0  0  0  0  0  0  0  0  0  0  0
    1.4090    0.7430   -0.6710 O   0  0  0  0  0  0  0  0  0  0  0  0
    2.5270   -0.0250   -0.3630 C   0  0  0  0  0  0  0  0  0  0  0  0
    3.7090    0.5440   -1.0390 C   0  0  0  0  0  0  0  0  0  0  0  0
    5.0160   -0.0240   -0.9180 N   0  0  0  0  0  0  0  0  0  0  0  0
    3.6130    1.5690   -1.7600 O   0  0  0  0  0  0  0  0  0  0  0  0
   -0.5720    1.5540    0.0750 C   0  0  0  0  0  0  0  0  0  0  0  0
   -1.9180    1.7710    0.5840 C   0  0  0  0  0  0  0  0  0  0  0  0
   -2.2580    2.9750    0.9170 N   0  0  0  0  0  0  0  0  0  0  0  0
   -1.4460    4.0540    0.8260 O   0  0  0  0  0  0  0  0  0  0  0  0
   -3.0040    0.7820    0.7870 C   0  0  0  0  0  0  0  0  0  0  0  0
   -2.4290   -0.6640    1.7150 S   0  0  0  0  0  0  0  0  0  0  0  0
  1  2  1  0
  2  3  1  0
  3  4  2  0
  3 16  1  0
  4  5  1  0
  5  6  1  0
  5 11  2  0
  6  7  1  0
  7  8  1  0
  8  9  1  0
  8 10  2  0
 11 12  1  0
 12 13  2  3
 12 15  1  0
 13 14  1  0
 15 16  1  0
M  END
