
     RDKit          3D

 16 16  0  0  0  0  0  0  0  0999 V2000
    3.2170   -3.5020    1.1290 O   0  0  0  0  0  0  0  0  0  0  0  0
    2.4220   -2.5110    1.0300 C   0  0  0  0  0  0  0  0  0  0  0  0
    2.4540   -1.6720    0.0030 N   0  0  0  0  0  0  0  0  0  0  0  0
    1.6200   -0.6180   -0.1180 C   0  0  0  0  0  0  0  0  0  0  0  0
    1.6880    0.3050   -1.2920 C   0  0  0  0  0  0  0  0  0  0  0  0
    2.3590    1.6000   -0.8810 C   0  0  0  0  0  0  0  0  0  0  0  0
    3.6560    1.3920   -0.4160 O   0  0  0  0  0  0  0  0  0  0  0  0
    0.6980   -0.4230    0.8840 C   0  0  0  0  0  0  0  0  0  0  0  0
   -0.4210    0.9550    0.7630 S   0  0  0  0  0  0  0  0  0  0  0  0
   -1.8900    0.4200   -0.1180 C   0  0  0  0  0  0  0  0  0  0  0  0
   -2.9060    1.5430   -0.2680 C   0  0  0  0  0  0  0  0  0  0  0  0
   -4.0880    0.9430   -1.0290 C   0  0  0  0  0  0  0  0  0  0  0  0
   -3.5570    0.5130   -2.2620 O   0  0  0  0  0  0  0  0  0  0  0  0
    0.6820   -1.3030    1.9370 C   0  0  0  0  0  0  0  0  0  0  0  0
   -0.1480   -1.1610    2.8790 O   0  0  0  0  0  0  0  0  0  0  0  0
    1.5400   -2.3500    2.0190 N   0  0  0  0  0  0  0  0  0  0  0  0
  1  2  2  0
  2  3  1  0
  2 16  1  0
  3  4  1  0
  4  5  1  0
  4  8  2  0
  5  6  1  0
  6  7  1  0
  8  9  1  0
  8 14  1  0
  9 10  1  0
 10 11  1  0
 11 12  1  0
 12 13  1  0
 14 15  2  0
 14 16  1  0
M  END
