
     RDKit          3D

 16 16  0  0  0  0  0  0  0  0999 V2000
    4.3640    0.8140   -0.3600 C   0  0  0  0  0  0  0  0  0  0  0  0
    3.9150   -0.2130    0.6530 C   0  0  0  0  0  0  0  0  0  0  0  0
    2.4680   -0.5880    0.2970 C   0  0  1  0  0  0  0  0  0  0  0  0
    1.9770   -1.5310    1.1750 O   0  0  0  0  0  0  0  0  0  0  0  0
    1.6900    0.6820    0.2190 C   0  0  0  0  0  0  0  0  0  0  0  0
    0.3650    0.5830   -0.1780 O   0  0  0  0  0  0  0  0  0  0  0  0
   -0.6710   -0.0780    0.4160 C   0  0  0  0  0  0  0  0  0  0  0  0
   -0.4440   -0.6980    1.4800 O   0  0  0  0  0  0  0  0  0  0  0  0
   -2.0380   -0.0760   -0.1630 C   0  0  0  0  0  0  0  0  0  0  0  0
   -2.9640   -0.7310    0.4690 C   0  0  0  0  0  0  0  0  0  0  0  0
   -2.6880   -1.4310    1.6790 N   0  0  0  0  0  0  0  0  0  0  0  0
   -4.6410   -0.8120   -0.1230 S   0  0  0  0  0  0  0  0  0  0  0  0
   -4.8560    0.5780   -1.2620 C   0  0  0  0  0  0  0  0  0  0  0  0
   -3.6180    0.6900   -2.0080 N   0  0  0  0  0  0  0  0  0  0  0  0
   -2.3450    0.6270   -1.3820 C   0  0  0  0  0  0  0  0  0  0  0  0
   -1.3900    1.2470   -1.9490 O   0  0  0  0  0  0  0  0  0  0  0  0
  1  2  1  0
  2  3  1  0
  3  4  1  1
  3  5  1  0
  5  6  1  0
  6  7  1  0
  7  8  2  0
  7  9  1  0
  9 10  2  0
  9 15  1  0
 10 11  1  0
 10 12  1  0
 12 13  1  0
 13 14  1  0
 14 15  1  0
 15 16  2  0
M  END
