
     RDKit          3D

 16 16  0  0  0  0  0  0  0  0999 V2000
    4.8690   -0.6530    0.7490 N   0  0  0  0  0  0  0  0  0  0  0  0
    3.4390   -0.3740    0.9700 C   0  0  0  0  0  0  0  0  0  0  0  0
    2.7020   -0.9990   -0.1500 C   0  0  0  0  0  0  0  0  0  0  0  0
    1.9390   -0.4230   -1.0230 C   0  0  0  0  0  0  0  0  0  0  0  0
    1.3260   -1.1960   -2.0140 O   0  0  0  0  0  0  0  0  0  0  0  0
    1.6520    1.0200   -1.0660 C   0  0  0  0  0  0  0  0  0  0  0  0
    0.2370    1.2980   -0.9210 N   0  0  0  0  0  0  0  0  0  0  0  0
   -0.5030    0.9050    0.2430 C   0  0  0  0  0  0  0  0  0  0  0  0
    0.1070    0.3020    1.1530 O   0  0  0  0  0  0  0  0  0  0  0  0
   -1.9520    1.1870    0.3990 C   0  0  2  0  0  0  0  0  0  0  0  0
   -2.4490    0.6730    1.6830 C   0  0  0  0  0  0  0  0  0  0  0  0
   -2.8250   -0.7770    1.5460 C   0  0  0  0  0  0  0  0  0  0  0  0
   -3.6320   -0.7580   -0.0490 S   0  0  1  0  0  0  0  0  0  0  0  0
   -3.3810   -2.0100   -0.8160 O   0  0  0  0  0  0  0  0  0  0  0  0
   -5.0830   -0.4690    0.1520 O   0  0  0  0  0  0  0  0  0  0  0  0
   -2.7730    0.6400   -0.7330 C   0  0  0  0  0  0  0  0  0  0  0  0
  1  2  1  0
  2  3  1  0
  3  4  2  3
  4  5  1  0
  4  6  1  0
  6  7  1  0
  7  8  1  0
  8  9  2  0
 10  8  1  6
 10 11  1  0
 10 16  1  0
 11 12  1  0
 13 12  1  1
 13 14  2  0
 13 15  2  0
 13 16  1  0
M  END
