
     RDKit          3D

 29 32  0  0  0  0  0  0  0  0999 V2000
    0.6760   -0.9080   -2.6490 O   0  0  0  0  0  0  0  0  0  0  0  0
    1.1940   -0.2410   -1.6930 C   0  0  0  0  0  0  0  0  0  0  0  0
    0.3880    0.6470   -0.8370 C   0  0  0  0  0  0  0  0  0  0  0  0
   -1.0900    0.6270   -1.1230 C   0  0  0  0  0  0  0  0  0  0  0  0
   -1.6670   -0.7230   -0.8560 C   0  0  0  0  0  0  0  0  0  0  0  0
   -3.0810   -0.8000   -1.0680 N   0  0  0  0  0  0  0  0  0  0  0  0
   -4.0090   -0.6170   -0.1650 C   0  0  0  0  0  0  0  0  0  0  0  0
   -3.7400   -0.2480    1.2250 C   0  0  0  0  0  0  0  0  0  0  0  0
   -2.6670    0.0990    1.8730 C   0  0  0  0  0  0  0  0  0  0  0  0
   -2.9390    0.3780    3.3200 C   0  0  0  0  0  0  0  0  0  0  0  0
   -4.3610    0.1310    3.4260 C   0  0  0  0  0  0  0  0  0  0  0  0
   -4.8150   -0.2220    2.2420 C   0  0  0  0  0  0  0  0  0  0  0  0
   -5.3500   -0.7380   -0.5330 N   0  0  0  0  0  0  0  0  0  0  0  0
   -5.7310   -1.0270   -1.7470 C   0  0  0  0  0  0  0  0  0  0  0  0
   -4.7850   -1.2250   -2.7260 C   0  0  0  0  0  0  0  0  0  0  0  0
   -3.4730   -1.1040   -2.3500 C   0  0  0  0  0  0  0  0  0  0  0  0
   -2.6050   -1.2880   -3.2570 O   0  0  0  0  0  0  0  0  0  0  0  0
    2.5910   -0.4230   -1.5260 N   0  0  0  0  0  0  0  0  0  0  0  0
    3.2860   -1.2490   -2.3180 N   0  0  0  0  0  0  0  0  0  0  0  0
    4.6040   -1.4280   -2.1820 C   0  0  0  0  0  0  0  0  0  0  0  0
    5.2950   -0.7620   -1.2120 C   0  0  0  0  0  0  0  0  0  0  0  0
    4.6200    0.0830   -0.3920 C   0  0  0  0  0  0  0  0  0  0  0  0
    5.3810    0.7950    0.6500 C   0  0  0  0  0  0  0  0  0  0  0  0
    6.5020    0.8850    1.0440 N   0  0  0  0  0  0  0  0  0  0  0  0
    6.9590    1.6130    2.0250 C   0  0  0  0  0  0  0  0  0  0  0  0
    6.0570    2.3650    2.6860 C   0  0  0  0  0  0  0  0  0  0  0  0
    4.4950    1.9550    1.7990 S   0  0  0  0  0  0  0  0  0  0  0  0
    3.2520    0.2370   -0.5710 C   0  0  0  0  0  0  0  0  0  0  0  0
    2.7020    1.0350    0.2250 O   0  0  0  0  0  0  0  0  0  0  0  0
  1  2  2  0
  2  3  1  0
  2 18  1  0
  3  4  1  0
  4  5  1  0
  5  6  1  0
  6  7  1  0
  6 16  1  0
  7  8  1  0
  7 13  2  0
  8  9  2  0
  8 12  1  0
  9 10  1  0
 10 11  1  0
 11 12  2  0
 13 14  1  0
 14 15  2  0
 15 16  1  0
 16 17  2  0
 18 19  1  0
 18 28  1  0
 19 20  2  0
 20 21  1  0
 21 22  2  0
 22 23  1  0
 22 28  1  0
 23 24  2  0
 23 27  1  0
 24 25  1  0
 25 26  2  0
 26 27  1  0
 28 29  2  0
M  END
