
     RDKit          3D

 30 34  0  0  0  0  0  0  0  0999 V2000
    6.4030    2.4220    1.4910 C   0  0  0  0  0  0  0  0  0  0  0  0
    6.5950    0.9310    1.6530 C   0  0  0  0  0  0  0  0  0  0  0  0
    5.7290    0.1390    0.7180 C   0  0  2  0  0  0  0  0  0  0  0  0
    5.9850    0.4250   -0.7240 C   0  0  0  0  0  0  0  0  0  0  0  0
    5.2050   -0.4970   -1.5250 N   0  0  0  0  0  0  0  0  0  0  0  0
    3.9320   -0.9150   -1.0460 C   0  0  0  0  0  0  0  0  0  0  0  0
    3.1020   -1.7440   -1.7580 C   0  0  0  0  0  0  0  0  0  0  0  0
    1.8750   -2.1480   -1.2970 C   0  0  0  0  0  0  0  0  0  0  0  0
    1.4400   -1.7160   -0.0740 C   0  0  0  0  0  0  0  0  0  0  0  0
    0.1200   -2.1360    0.4540 C   0  0  0  0  0  0  0  0  0  0  0  0
   -0.9810   -1.3380   -0.0200 N   0  0  0  0  0  0  0  0  0  0  0  0
   -1.7170   -1.6600   -1.2450 C   0  0  0  0  0  0  0  0  0  0  0  0
   -3.1540   -1.6530   -0.9610 N   0  0  0  0  0  0  0  0  0  0  0  0
   -3.6960   -0.4980   -0.3210 C   0  0  0  0  0  0  0  0  0  0  0  0
   -2.8260    0.2360    0.4900 C   0  0  0  0  0  0  0  0  0  0  0  0
   -3.3110    1.3470    1.1140 C   0  0  0  0  0  0  0  0  0  0  0  0
   -2.5370    2.0190    1.8500 O   0  0  0  0  0  0  0  0  0  0  0  0
   -4.6220    1.6810    0.9090 C   0  0  0  0  0  0  0  0  0  0  0  0
   -5.3420    2.7220    1.4010 C   0  0  0  0  0  0  0  0  0  0  0  0
   -6.5770    2.6320    0.9200 N   0  0  0  0  0  0  0  0  0  0  0  0
   -6.6930    1.5530    0.1180 N   0  0  0  0  0  0  0  0  0  0  0  0
   -7.8730    1.1320   -0.5840 C   0  0  0  0  0  0  0  0  0  0  0  0
   -5.4970    0.9490    0.0980 C   0  0  0  0  0  0  0  0  0  0  0  0
   -4.9860   -0.1640   -0.5190 N   0  0  0  0  0  0  0  0  0  0  0  0
   -5.8760   -0.9340   -1.3630 C   0  0  0  0  0  0  0  0  0  0  0  0
   -1.4390   -0.1780    0.6560 C   0  0  0  0  0  0  0  0  0  0  0  0
   -0.6260    0.4710    1.3920 O   0  0  0  0  0  0  0  0  0  0  0  0
    2.2360   -0.8850    0.6740 C   0  0  0  0  0  0  0  0  0  0  0  0
    3.4660   -0.4960    0.1840 C   0  0  0  0  0  0  0  0  0  0  0  0
    4.2870    0.4120    1.0510 C   0  0  0  0  0  0  0  0  0  0  0  0
  1  2  1  0
  3  2  1  1
  3  4  1  0
  3 30  1  0
  4  5  1  0
  5  6  1  0
  6  7  2  0
  6 29  1  0
  7  8  1  0
  8  9  2  0
  9 10  1  0
  9 28  1  0
 10 11  1  0
 11 12  1  0
 11 26  1  0
 12 13  1  0
 13 14  1  0
 14 15  2  0
 14 24  1  0
 15 16  1  0
 15 26  1  0
 16 17  2  0
 16 18  1  0
 18 19  1  0
 18 23  2  0
 19 20  2  0
 20 21  1  0
 21 22  1  0
 21 23  1  0
 23 24  1  0
 24 25  1  0
 26 27  2  0
 28 29  2  0
 29 30  1  0
M  END
