
     RDKit          3D

 29 32  0  0  0  0  0  0  0  0999 V2000
    2.5320    0.9940    2.5000 C   0  0  0  0  0  0  0  0  0  0  0  0
    3.4000   -0.1570    2.2140 C   0  0  0  0  0  0  0  0  0  0  0  0
    3.7270   -0.9200    3.2110 O   0  0  0  0  0  0  0  0  0  0  0  0
    3.9160   -0.4620    0.8900 C   0  0  0  0  0  0  0  0  0  0  0  0
    5.1540   -1.1580    0.8990 C   0  0  0  0  0  0  0  0  0  0  0  0
    5.8570   -1.2390   -0.2730 C   0  0  0  0  0  0  0  0  0  0  0  0
    5.3930   -0.6690   -1.4330 C   0  0  0  0  0  0  0  0  0  0  0  0
    4.1980   -0.0030   -1.4470 C   0  0  0  0  0  0  0  0  0  0  0  0
    3.4330    0.0960   -0.2360 C   0  0  0  0  0  0  0  0  0  0  0  0
    2.0800    0.5490   -0.4360 C   0  0  0  0  0  0  0  0  0  0  0  0
    1.0450    0.1150    0.1990 C   0  0  0  0  0  0  0  0  0  0  0  0
   -0.3430    0.6320   -0.0520 C   0  0  0  0  0  0  0  0  0  0  0  0
   -0.8500    1.2220    1.2380 C   0  0  0  0  0  0  0  0  0  0  0  0
   -2.1810    1.7570    1.0940 N   0  0  0  0  0  0  0  0  0  0  0  0
   -2.3860    3.0360    0.7040 C   0  0  0  0  0  0  0  0  0  0  0  0
   -3.7110    3.2190    0.6810 N   0  0  0  0  0  0  0  0  0  0  0  0
   -4.3040    2.0830    1.0460 N   0  0  0  0  0  0  0  0  0  0  0  0
   -3.3440    1.1490    1.3090 C   0  0  0  0  0  0  0  0  0  0  0  0
   -3.6120   -0.5330    1.8170 S   0  0  0  0  0  0  0  0  0  0  0  0
   -3.8230   -1.5810    0.3800 C   0  0  0  0  0  0  0  0  0  0  0  0
   -5.1130   -1.1810   -0.2750 C   0  0  0  0  0  0  0  0  0  0  0  0
   -5.0580   -0.2220   -1.2070 N   0  0  0  0  0  0  0  0  0  0  0  0
   -6.1840    0.2050   -1.8540 C   0  0  0  0  0  0  0  0  0  0  0  0
   -7.4060   -0.3550   -1.5510 C   0  0  0  0  0  0  0  0  0  0  0  0
   -7.4310   -1.3400   -0.5880 C   0  0  0  0  0  0  0  0  0  0  0  0
   -6.2870   -1.7340    0.0300 N   0  0  0  0  0  0  0  0  0  0  0  0
    6.3250   -0.9160   -2.4410 O   0  0  0  0  0  0  0  0  0  0  0  0
    7.1510   -1.9670   -1.9680 C   0  0  0  0  0  0  0  0  0  0  0  0
    7.0930   -1.8580   -0.5450 O   0  0  0  0  0  0  0  0  0  0  0  0
  1  2  1  0
  2  3  2  0
  2  4  1  0
  4  5  2  0
  4  9  1  0
  5  6  1  0
  6  7  2  0
  6 29  1  0
  7  8  1  0
  7 27  1  0
  8  9  2  0
  9 10  1  0
 10 11  2  3
 11 12  1  0
 12 13  1  0
 13 14  1  0
 14 15  1  0
 14 18  1  0
 15 16  2  0
 16 17  1  0
 17 18  2  0
 18 19  1  0
 19 20  1  0
 20 21  1  0
 21 22  2  0
 21 26  1  0
 22 23  1  0
 23 24  2  0
 24 25  1  0
 25 26  2  0
 27 28  1  0
 28 29  1  0
M  END
