
     RDKit          3D

 28 31  0  0  0  0  0  0  0  0999 V2000
    4.9040   -3.2850   -0.9150 C   0  0  0  0  0  0  0  0  0  0  0  0
    4.8600   -2.0290   -0.3660 O   0  0  0  0  0  0  0  0  0  0  0  0
    4.9790   -1.0070   -1.2690 C   0  0  0  0  0  0  0  0  0  0  0  0
    3.8740   -1.0480   -2.2760 C   0  0  0  0  0  0  0  0  0  0  0  0
    2.2380   -0.8990   -1.4770 S   0  0  0  0  0  0  0  0  0  0  0  0
    2.0670    0.7220   -0.7480 C   0  0  0  0  0  0  0  0  0  0  0  0
    3.0820    1.5920   -0.8570 N   0  0  0  0  0  0  0  0  0  0  0  0
    2.9530    2.8000   -0.3130 C   0  0  0  0  0  0  0  0  0  0  0  0
    1.8190    3.1260    0.3300 N   0  0  0  0  0  0  0  0  0  0  0  0
    0.7830    2.2780    0.4580 C   0  0  0  0  0  0  0  0  0  0  0  0
   -0.3770    2.6390    1.1270 O   0  0  0  0  0  0  0  0  0  0  0  0
   -0.5030    3.9130    1.7030 C   0  0  1  0  0  0  0  0  0  0  0  0
   -1.6150    4.7220    1.0340 C   0  0  0  0  0  0  0  0  0  0  0  0
   -0.8080    3.8810    3.1640 C   0  0  0  0  0  0  0  0  0  0  0  0
    0.8900    1.0210   -0.0950 C   0  0  0  0  0  0  0  0  0  0  0  0
   -0.2290    0.1000    0.0470 C   0  0  0  0  0  0  0  0  0  0  0  0
   -0.3370   -0.7430    1.0960 N   0  0  0  0  0  0  0  0  0  0  0  0
   -1.4540   -1.4800    0.9910 C   0  0  0  0  0  0  0  0  0  0  0  0
   -2.0060   -2.4610    1.7850 C   0  0  0  0  0  0  0  0  0  0  0  0
   -3.1920   -3.0550    1.4140 C   0  0  0  0  0  0  0  0  0  0  0  0
   -3.9720   -4.0520    2.0010 C   0  0  0  0  0  0  0  0  0  0  0  0
   -5.0470   -4.2190    1.1560 C   0  0  0  0  0  0  0  0  0  0  0  0
   -4.9080   -3.3670    0.1280 N   0  0  0  0  0  0  0  0  0  0  0  0
   -3.7990   -2.6460    0.2490 C   0  0  0  0  0  0  0  0  0  0  0  0
   -3.2490   -1.6700   -0.5400 C   0  0  0  0  0  0  0  0  0  0  0  0
   -2.0550   -1.0490   -0.1990 C   0  0  0  0  0  0  0  0  0  0  0  0
   -1.2860   -0.0910   -0.7440 N   0  0  0  0  0  0  0  0  0  0  0  0
   -1.5820    0.5890   -1.9720 C   0  0  0  0  0  0  0  0  0  0  0  0
  1  2  1  0
  2  3  1  0
  3  4  1  0
  4  5  1  0
  5  6  1  0
  6  7  2  0
  6 15  1  0
  7  8  1  0
  8  9  2  0
  9 10  1  0
 10 11  1  0
 10 15  2  0
 11 12  1  0
 12 13  1  6
 12 14  1  0
 15 16  1  0
 16 17  2  0
 16 27  1  0
 17 18  1  0
 18 19  2  0
 18 26  1  0
 19 20  1  0
 20 21  1  0
 20 24  2  0
 21 22  2  0
 22 23  1  0
 23 24  1  0
 24 25  1  0
 25 26  2  0
 26 27  1  0
 27 28  1  0
M  END
