
     RDKit          3D

 30 34  0  0  0  0  0  0  0  0999 V2000
    3.0440    0.9310    2.0060 C   0  0  0  0  0  0  0  0  0  0  0  0
    1.8530    0.0320    1.9070 C   0  0  0  0  0  0  0  0  0  0  0  0
    1.4060   -0.8220    2.8700 N   0  0  0  0  0  0  0  0  0  0  0  0
    0.3270   -1.4470    2.4590 N   0  0  0  0  0  0  0  0  0  0  0  0
    0.0120   -1.0420    1.2230 C   0  0  0  0  0  0  0  0  0  0  0  0
    0.9630   -0.1110    0.8560 C   0  0  0  0  0  0  0  0  0  0  0  0
    0.9680    0.5720   -0.4670 C   0  0  1  0  0  0  0  0  0  0  0  0
    2.0370    0.0580   -1.2480 O   0  0  0  0  0  0  0  0  0  0  0  0
    3.1280    0.8040   -1.6420 C   0  0  0  0  0  0  0  0  0  0  0  0
    3.1580    2.0210   -1.2720 O   0  0  0  0  0  0  0  0  0  0  0  0
    4.2590    0.2480   -2.4670 C   0  0  0  0  0  0  0  0  0  0  0  0
    5.3860    0.0490   -1.4730 C   0  0  0  0  0  0  0  0  0  0  0  0
    6.3470    0.8950   -1.0460 C   0  0  0  0  0  0  0  0  0  0  0  0
    7.1370    0.2410   -0.1320 C   0  0  0  0  0  0  0  0  0  0  0  0
    6.6220   -1.0540   -0.0080 C   0  0  0  0  0  0  0  0  0  0  0  0
    5.5720   -1.1350   -0.8270 N   0  0  0  0  0  0  0  0  0  0  0  0
   -0.3440    0.4400   -1.1650 C   0  0  0  0  0  0  0  0  0  0  0  0
   -1.4200   -0.0650   -0.3810 N   0  0  0  0  0  0  0  0  0  0  0  0
   -2.0360    0.8690    0.4830 C   0  0  0  0  0  0  0  0  0  0  0  0
   -3.1200    0.2840    1.3450 C   0  0  0  0  0  0  0  0  0  0  0  0
   -2.9530   -0.0560    2.6370 N   0  0  0  0  0  0  0  0  0  0  0  0
   -4.1070   -0.5290    3.0880 C   0  0  0  0  0  0  0  0  0  0  0  0
   -5.0020   -0.4790    2.0590 C   0  0  0  0  0  0  0  0  0  0  0  0
   -4.3660    0.0370    0.9600 N   0  0  0  0  0  0  0  0  0  0  0  0
   -5.0240    0.2180   -0.3170 C   0  0  0  0  0  0  0  0  0  0  0  0
   -6.3170   -0.0620   -0.5100 C   0  0  0  0  0  0  0  0  0  0  0  0
   -6.7340    0.2090   -1.8990 C   0  0  0  0  0  0  0  0  0  0  0  0
   -5.4940    0.6920   -2.5210 C   0  0  0  0  0  0  0  0  0  0  0  0
   -4.5380    0.6800   -1.5750 C   0  0  0  0  0  0  0  0  0  0  0  0
   -1.0680   -1.3310    0.2280 C   0  0  0  0  0  0  0  0  0  0  0  0
  1  2  1  0
  2  3  1  0
  2  6  2  0
  3  4  1  0
  4  5  2  0
  5  6  1  0
  5 30  1  0
  6  7  1  0
  7  8  1  6
  7 17  1  0
  8  9  1  0
  9 10  2  0
  9 11  1  0
 11 12  1  0
 12 13  2  0
 12 16  1  0
 13 14  1  0
 14 15  2  0
 15 16  1  0
 17 18  1  0
 18 19  1  0
 18 30  1  0
 19 20  1  0
 20 21  2  0
 20 24  1  0
 21 22  1  0
 22 23  2  0
 23 24  1  0
 24 25  1  0
 25 26  2  0
 25 29  1  0
 26 27  1  0
 27 28  1  0
 28 29  2  0
M  END
