
     RDKit          3D

 31 35  0  0  0  0  0  0  0  0999 V2000
   -5.4430   -3.3870    0.6070 N   0  0  0  0  0  0  0  0  0  0  0  0
   -6.2580   -2.5640    1.5220 C   0  0  0  0  0  0  0  0  0  0  0  0
   -6.1040   -1.2010    1.0110 C   0  0  0  0  0  0  0  0  0  0  0  0
   -7.1060   -0.4850    0.4270 C   0  0  0  0  0  0  0  0  0  0  0  0
   -6.8970    0.7790   -0.2130 C   0  0  0  0  0  0  0  0  0  0  0  0
   -5.5850    1.2490   -0.2200 C   0  0  0  0  0  0  0  0  0  0  0  0
   -4.5560    0.5360    0.3720 C   0  0  0  0  0  0  0  0  0  0  0  0
   -4.8440   -0.6280    0.9550 C   0  0  0  0  0  0  0  0  0  0  0  0
   -3.2660    1.3090    0.0990 C   0  0  2  0  0  0  0  0  0  0  0  0
   -2.7450    0.6480   -1.1290 C   0  0  0  0  0  0  0  0  0  0  0  0
   -1.2070    0.5130   -1.2030 C   0  0  0  0  0  0  0  0  0  0  0  0
   -0.5840    1.3100   -0.2850 N   0  0  0  0  0  0  0  0  0  0  0  0
    0.7280    1.9360   -0.2370 C   0  0  0  0  0  0  0  0  0  0  0  0
    0.8210    3.0200    0.3740 O   0  0  0  0  0  0  0  0  0  0  0  0
    1.8510    1.2120   -0.8370 C   0  0  0  0  0  0  0  0  0  0  0  0
    2.1040    0.2840   -1.7420 C   0  0  0  0  0  0  0  0  0  0  0  0
    3.4630   -0.0050   -1.6960 C   0  0  0  0  0  0  0  0  0  0  0  0
    4.0330    1.0430   -0.4760 C   0  0  0  0  0  0  0  0  0  0  0  0
    5.5330    0.6080   -0.5410 C   0  0  0  0  0  0  0  0  0  0  0  0
    6.6640    0.2710   -0.6060 C   0  0  0  0  0  0  0  0  0  0  0  0
    7.9100   -0.1010   -0.6550 C   0  0  0  0  0  0  0  0  0  0  0  0
    8.3550   -1.3340   -1.2660 C   0  0  0  0  0  0  0  0  0  0  0  0
    9.5670   -1.8740   -1.0550 C   0  0  0  0  0  0  0  0  0  0  0  0
   10.5020   -1.2720   -0.2300 C   0  0  0  0  0  0  0  0  0  0  0  0
   10.1590   -0.0810    0.3830 C   0  0  0  0  0  0  0  0  0  0  0  0
    8.9280    0.4880    0.1890 C   0  0  0  0  0  0  0  0  0  0  0  0
    3.0520    1.3410   -0.4190 O   0  0  0  0  0  0  0  0  0  0  0  0
   -1.0150    0.9770    1.1660 C   0  0  0  0  0  0  0  0  0  0  0  0
   -2.4250    1.2630    1.3210 C   0  0  0  0  0  0  0  0  0  0  0  0
   -3.8250    2.6970   -0.1250 C   0  0  0  0  0  0  0  0  0  0  0  0
   -5.0490    2.4360   -0.7740 O   0  0  0  0  0  0  0  0  0  0  0  0
  1  2  1  0
  2  3  1  0
  3  4  2  0
  3  8  1  0
  4  5  1  0
  5  6  2  0
  6  7  1  0
  6 31  1  0
  7  8  2  0
  7  9  1  0
  9 10  1  6
  9 29  1  0
  9 30  1  0
 10 11  1  0
 11 12  1  0
 12 13  1  0
 12 28  1  0
 13 14  2  0
 13 15  1  0
 15 16  2  0
 15 27  1  0
 16 17  1  0
 17 18  2  0
 18 19  1  0
 18 27  1  0
 19 20  3  0
 20 21  1  0
 21 22  2  0
 21 26  1  0
 22 23  1  0
 23 24  2  0
 24 25  1  0
 25 26  2  0
 28 29  1  0
 30 31  1  0
M  CHG  1   1   1
M  END
