
     RDKit          3D

 15 16  0  0  0  0  0  0  0  0999 V2000
    4.1460    1.5420    1.0190 N   0  0  0  0  0  0  0  0  0  0  0  0
    3.2810    1.1160   -0.0230 C   0  0  0  0  0  0  0  0  0  0  0  0
    3.5380    1.5060   -1.1870 O   0  0  0  0  0  0  0  0  0  0  0  0
    2.0990    0.2440    0.1810 C   0  0  2  0  0  0  0  0  0  0  0  0
    2.5810   -0.9980    0.8650 C   0  0  0  0  0  0  0  0  0  0  0  0
    1.2140   -2.1340    0.3900 S   0  0  0  0  0  0  0  0  0  0  0  0
    0.6760   -1.0770   -0.9890 C   0  0  1  0  0  0  0  0  0  0  0  0
   -0.7930   -0.8290   -0.8930 C   0  0  1  0  0  0  0  0  0  0  0  0
   -1.1830   -0.2350    0.4450 C   0  0  0  0  0  0  0  0  0  0  0  0
   -2.6800   -0.5380    0.5840 C   0  0  1  0  0  0  0  0  0  0  0  0
   -3.1790   -0.1720    1.8020 O   0  0  0  0  0  0  0  0  0  0  0  0
   -3.3440    0.1510   -0.5810 C   0  0  0  0  0  0  0  0  0  0  0  0
   -2.3660    0.7380   -1.5570 C   0  0  0  0  0  0  0  0  0  0  0  0
   -1.3130   -0.0530   -1.8820 O   0  0  0  0  0  0  0  0  0  0  0  0
    1.4750    0.0060   -0.9570 O   0  0  0  0  0  0  0  0  0  0  0  0
  1  2  1  0
  2  3  2  0
  4  2  1  6
  4  5  1  0
  4 15  1  0
  5  6  1  0
  6  7  1  0
  7  8  1  0
  7 15  1  1
  8  9  1  1
  8 14  1  0
  9 10  1  0
 10 11  1  1
 10 12  1  0
 12 13  1  0
 13 14  1  0
M  END
