
     RDKit          3D

 16 16  0  0  0  0  0  0  0  0999 V2000
    2.6200    1.8010   -3.3140 C   0  0  0  0  0  0  0  0  0  0  0  0
    2.3220    0.6360   -2.6060 O   0  0  0  0  0  0  0  0  0  0  0  0
    1.0820    0.5080   -1.8910 C   0  0  0  0  0  0  0  0  0  0  0  0
    0.3540    1.5090   -1.9910 O   0  0  0  0  0  0  0  0  0  0  0  0
    0.7360   -0.6380   -1.1630 N   0  0  0  0  0  0  0  0  0  0  0  0
   -0.3810   -0.9600   -0.4420 C   0  0  0  0  0  0  0  0  0  0  0  0
   -0.8250   -0.3300    0.8350 C   0  0  1  0  0  0  0  0  0  0  0  0
   -1.1030    1.1630    0.6460 C   0  0  0  0  0  0  0  0  0  0  0  0
   -2.0770    1.3400   -0.2840 O   0  0  0  0  0  0  0  0  0  0  0  0
   -2.2170   -0.9110    1.1090 C   0  0  0  0  0  0  0  0  0  0  0  0
   -1.8040   -2.2550    2.2670 S   0  0  0  0  0  0  0  0  0  0  0  0
   -0.4100   -1.3230    3.0690 C   0  0  0  0  0  0  0  0  0  0  0  0
    0.1430   -0.6220    1.8810 C   0  0  1  0  0  0  0  0  0  0  0  0
    1.2430   -1.3680    1.4350 O   0  0  0  0  0  0  0  0  0  0  0  0
    0.7370    0.6780    2.4000 C   0  0  0  0  0  0  0  0  0  0  0  0
    1.1530    1.6260    2.7860 N   0  0  0  0  0  0  0  0  0  0  0  0
  1  2  1  0
  2  3  1  0
  3  4  2  0
  3  5  1  0
  5  6  1  0
  7  6  1  6
  7  8  1  0
  7 10  1  0
  7 13  1  0
  8  9  1  0
 10 11  1  0
 11 12  1  0
 12 13  1  0
 13 14  1  6
 13 15  1  0
 15 16  3  0
M  END
