
     RDKit          3D

 16 16  0  0  0  0  0  0  0  0999 V2000
    5.3370   -0.6560   -0.8270 C   0  0  0  0  0  0  0  0  0  0  0  0
    4.3920    0.3820   -0.6130 O   0  0  0  0  0  0  0  0  0  0  0  0
    3.1510    0.0930   -0.0370 C   0  0  0  0  0  0  0  0  0  0  0  0
    2.9420   -1.1090    0.2650 O   0  0  0  0  0  0  0  0  0  0  0  0
    2.1440    1.1440    0.2020 C   0  0  2  0  0  0  0  0  0  0  0  0
    2.6720    2.3110    0.9620 C   0  0  0  0  0  0  0  0  0  0  0  0
    0.9800    0.5320    0.8020 N   0  0  0  0  0  0  0  0  0  0  0  0
   -0.2760    0.4670    0.1370 C   0  0  0  0  0  0  0  0  0  0  0  0
   -0.3220    0.9770   -1.0200 O   0  0  0  0  0  0  0  0  0  0  0  0
   -1.4220   -0.1350    0.7270 N   0  0  0  0  0  0  0  0  0  0  0  0
   -2.6580   -0.1720    0.0120 C   0  0  2  0  0  0  0  0  0  0  0  0
   -3.7680    0.5350    0.8030 C   0  0  0  0  0  0  0  0  0  0  0  0
   -5.2390   -0.1100   -0.0910 S   0  0  0  0  0  0  0  0  0  0  0  0
   -4.3950   -1.4400   -1.0390 C   0  0  0  0  0  0  0  0  0  0  0  0
   -3.1460   -1.6050   -0.1620 C   0  0  1  0  0  0  0  0  0  0  0  0
   -2.1670   -2.2950   -0.8320 O   0  0  0  0  0  0  0  0  0  0  0  0
  1  2  1  0
  2  3  1  0
  3  4  2  0
  3  5  1  0
  5  6  1  1
  5  7  1  0
  7  8  1  0
  8  9  2  0
  8 10  1  0
 11 10  1  1
 11 12  1  0
 11 15  1  0
 12 13  1  0
 13 14  1  0
 14 15  1  0
 15 16  1  6
M  END
