
     RDKit          3D

 16 16  0  0  0  0  0  0  0  0999 V2000
   -3.1480    1.5030    0.4410 C   0  0  0  0  0  0  0  0  0  0  0  0
   -1.9510    1.2660   -0.3740 N   0  0  0  0  0  0  0  0  0  0  0  0
   -1.1470    0.2490    0.2580 C   0  0  1  0  0  0  0  0  0  0  0  0
   -1.9560   -1.0500    0.1900 C   0  0  0  0  0  0  0  0  0  0  0  0
   -1.0820   -2.0720    0.0470 O   0  0  0  0  0  0  0  0  0  0  0  0
    0.1810   -1.6060   -0.1850 C   0  0  2  0  0  0  0  0  0  0  0  0
    0.7150   -2.3010   -1.4180 C   0  0  0  0  0  0  0  0  0  0  0  0
    1.0070   -1.9530    1.0370 C   0  0  0  0  0  0  0  0  0  0  0  0
    0.0870   -0.1150   -0.4420 C   0  0  2  0  0  0  0  0  0  0  0  0
    1.3240    0.5880    0.1470 C   0  0  0  0  0  0  0  0  0  0  0  0
    1.4540    0.4910    1.5500 N   0  0  0  0  0  0  0  0  0  0  0  0
    2.9320    1.3540    1.9550 S   0  0  1  0  0  0  0  0  0  0  0  0
    3.4940    0.8020    3.2340 O   0  0  0  0  0  0  0  0  0  0  0  0
    3.9180    1.1670    0.8500 O   0  0  0  0  0  0  0  0  0  0  0  0
    0.0640    0.0570   -1.7760 O   0  0  0  0  0  0  0  0  0  0  0  0
    0.0410    1.2310   -2.3990 C   0  0  0  0  0  0  0  0  0  0  0  0
  1  2  1  0
  3  2  1  6
  3  4  1  0
  3  9  1  0
  4  5  1  0
  5  6  1  0
  6  7  1  6
  6  8  1  0
  6  9  1  0
  9 10  1  1
  9 15  1  0
 10 11  1  0
 12 11  1  6
 12 13  2  0
 12 14  2  0
 15 16  1  0
M  END
