
     RDKit          3D

 16 17  0  0  0  0  0  0  0  0999 V2000
    3.5300   -1.4010   -1.4610 C   0  0  0  0  0  0  0  0  0  0  0  0
    2.8360   -1.1690   -0.1410 C   0  0  2  0  0  0  0  0  0  0  0  0
    1.8030   -0.1870   -0.2820 O   0  0  0  0  0  0  0  0  0  0  0  0
    0.4820   -0.5470   -0.0200 C   0  0  0  0  0  0  0  0  0  0  0  0
    0.2700   -1.7540    0.3360 O   0  0  0  0  0  0  0  0  0  0  0  0
   -0.6070    0.3500   -0.1310 N   0  0  0  0  0  0  0  0  0  0  0  0
   -1.9270   -0.0950    0.1540 C   0  0  1  0  0  0  0  0  0  0  0  0
   -2.5740    0.7030    1.2950 C   0  0  0  0  0  0  0  0  0  0  0  0
   -3.8570    1.1150    0.6780 C   0  0  2  0  0  0  0  0  0  0  0  0
   -4.1250    0.1150   -0.2820 O   0  0  0  0  0  0  0  0  0  0  0  0
   -2.8960    0.0150   -0.9730 C   0  0  1  0  0  0  0  0  0  0  0  0
   -2.7750    1.3110   -1.7660 C   0  0  0  0  0  0  0  0  0  0  0  0
   -3.4700    2.4680   -0.5090 S   0  0  0  0  0  0  0  0  0  0  0  0
    3.8060   -0.7080    0.8680 C   0  0  0  0  0  0  0  0  0  0  0  0
    3.6560    0.5400    1.5490 N   0  0  0  0  0  0  0  0  0  0  0  0
    4.7980   -1.4280    1.1450 O   0  0  0  0  0  0  0  0  0  0  0  0
  2  1  1  6
  2  3  1  0
  2 14  1  0
  3  4  1  0
  4  5  2  0
  4  6  1  0
  7  6  1  6
  7  8  1  0
  7 11  1  0
  9  8  1  1
  9 10  1  0
  9 13  1  0
 10 11  1  0
 11 12  1  1
 12 13  1  0
 14 15  1  0
 14 16  2  0
M  END
