
     RDKit          3D

 16 16  0  0  0  0  0  0  0  0999 V2000
   -2.8870    2.3810   -0.7490 C   0  0  0  0  0  0  0  0  0  0  0  0
   -3.1250    1.0020   -0.8320 O   0  0  0  0  0  0  0  0  0  0  0  0
   -2.5730    0.3520    0.2460 C   0  0  1  0  0  0  0  0  0  0  0  0
   -3.4940   -0.4380    0.8730 O   0  0  0  0  0  0  0  0  0  0  0  0
   -3.1430   -1.7550    0.7280 C   0  0  0  0  0  0  0  0  0  0  0  0
   -1.6090   -1.6690    0.7460 C   0  0  1  0  0  0  0  0  0  0  0  0
   -1.0140   -2.8420    0.4260 O   0  0  0  0  0  0  0  0  0  0  0  0
   -1.4510   -0.5530   -0.2820 C   0  0  2  0  0  0  0  0  0  0  0  0
   -0.1720    0.1130   -0.1660 N   0  0  0  0  0  0  0  0  0  0  0  0
    0.9730   -0.5000   -0.7110 C   0  0  0  0  0  0  0  0  0  0  0  0
    0.8130   -1.9440   -1.4860 S   0  0  0  0  0  0  0  0  0  0  0  0
    2.2630    0.0480   -0.6530 N   0  0  0  0  0  0  0  0  0  0  0  0
    3.4100   -0.6630   -1.2490 C   0  0  0  0  0  0  0  0  0  0  0  0
    2.5210    1.3040   -0.0210 C   0  0  0  0  0  0  0  0  0  0  0  0
    3.3480    1.0430    1.2470 C   0  0  0  0  0  0  0  0  0  0  0  0
    2.6640    0.2170    2.1310 O   0  0  0  0  0  0  0  0  0  0  0  0
  1  2  1  0
  3  2  1  6
  3  4  1  0
  3  8  1  0
  4  5  1  0
  5  6  1  0
  6  7  1  6
  6  8  1  0
  8  9  1  1
  9 10  1  0
 10 11  2  0
 10 12  1  0
 12 13  1  0
 12 14  1  0
 14 15  1  0
 15 16  1  0
M  END
