
     RDKit          3D

 22 24  0  0  0  0  0  0  0  0999 V2000
    5.5820    1.7400    0.3470 C   0  0  0  0  0  0  0  0  0  0  0  0
    4.2610    1.1040    0.4240 C   0  0  0  0  0  0  0  0  0  0  0  0
    3.2150    1.4280   -0.3420 C   0  0  0  0  0  0  0  0  0  0  0  0
    1.9030    0.7610   -0.2310 C   0  0  0  0  0  0  0  0  0  0  0  0
    2.0180   -0.6240    0.1790 N   0  0  0  0  0  0  0  0  0  0  0  0
    0.9090   -1.5020    0.1150 C   0  0  0  0  0  0  0  0  0  0  0  0
    1.1130   -2.7040    0.4990 O   0  0  0  0  0  0  0  0  0  0  0  0
   -0.3990   -1.1100   -0.3500 C   0  0  0  0  0  0  0  0  0  0  0  0
   -0.8580   -1.1700   -1.6520 C   0  0  0  0  0  0  0  0  0  0  0  0
   -0.0680   -1.6570   -2.8080 C   0  0  0  0  0  0  0  0  0  0  0  0
   -2.1440   -0.7160   -1.7120 N   0  0  0  0  0  0  0  0  0  0  0  0
   -2.5080   -0.3670   -0.4690 C   0  0  0  0  0  0  0  0  0  0  0  0
   -1.4270   -0.6090    0.3900 C   0  0  0  0  0  0  0  0  0  0  0  0
   -1.6720   -0.2880    1.8060 C   0  0  0  0  0  0  0  0  0  0  0  0
   -3.0020   -0.8590    2.2530 C   0  0  0  0  0  0  0  0  0  0  0  0
   -4.1810   -0.3990    1.4610 C   0  0  0  0  0  0  0  0  0  0  0  0
   -3.7130    0.1660    0.1360 C   0  0  0  0  0  0  0  0  0  0  0  0
   -4.3610    1.1320   -0.4240 C   0  0  0  0  0  0  0  0  0  0  0  0
   -3.9650    1.7890   -1.6860 C   0  0  0  0  0  0  0  0  0  0  0  0
   -3.8100    3.1750   -1.4460 F   0  0  0  0  0  0  0  0  0  0  0  0
    3.2910   -1.1010    0.6570 C   0  0  0  0  0  0  0  0  0  0  0  0
    4.0030   -0.0010    1.4150 C   0  0  0  0  0  0  0  0  0  0  0  0
  1  2  1  0
  2  3  2  0
  2 22  1  0
  3  4  1  0
  4  5  1  0
  5  6  1  0
  5 21  1  0
  6  7  2  0
  6  8  1  0
  8  9  2  0
  8 13  1  0
  9 10  1  0
  9 11  1  0
 11 12  1  0
 12 13  2  0
 12 17  1  0
 13 14  1  0
 14 15  1  0
 15 16  1  0
 16 17  1  0
 17 18  2  3
 18 19  1  0
 19 20  1  0
 21 22  1  0
M  END
