
     RDKit          3D

 22 24  0  0  0  0  0  0  0  0999 V2000
    0.1590   -4.2500    0.2380 O   0  0  0  0  0  0  0  0  0  0  0  0
    0.0390   -3.3710   -0.8360 C   0  0  0  0  0  0  0  0  0  0  0  0
    0.2720   -2.0020   -0.3070 C   0  0  0  0  0  0  0  0  0  0  0  0
   -0.8430   -1.2980    0.1520 C   0  0  0  0  0  0  0  0  0  0  0  0
   -0.6650   -0.0280    0.6470 C   0  0  0  0  0  0  0  0  0  0  0  0
   -1.7270    0.7850    1.1060 N   0  0  0  0  0  0  0  0  0  0  0  0
   -3.0060    0.8550    0.5180 C   0  0  0  0  0  0  0  0  0  0  0  0
   -3.3300    0.3230   -0.7120 C   0  0  0  0  0  0  0  0  0  0  0  0
   -4.6000    0.4410   -1.2850 C   0  0  0  0  0  0  0  0  0  0  0  0
   -5.5710    1.1220   -0.5840 C   0  0  0  0  0  0  0  0  0  0  0  0
   -5.2670    1.6610    0.6450 C   0  0  0  0  0  0  0  0  0  0  0  0
   -4.0100    1.5290    1.1840 C   0  0  0  0  0  0  0  0  0  0  0  0
   -3.7120    2.0610    2.4000 F   0  0  0  0  0  0  0  0  0  0  0  0
    0.6410    0.4760    0.6580 C   0  0  0  0  0  0  0  0  0  0  0  0
    1.7280   -0.2210    0.2070 C   0  0  0  0  0  0  0  0  0  0  0  0
    3.0810    0.3210    0.2270 C   0  0  0  0  0  0  0  0  0  0  0  0
    3.3950    1.5740    0.6960 C   0  0  0  0  0  0  0  0  0  0  0  0
    4.7080    2.0550    0.6960 C   0  0  0  0  0  0  0  0  0  0  0  0
    5.7440    1.2840    0.2220 C   0  0  0  0  0  0  0  0  0  0  0  0
    5.4440    0.0250   -0.2510 C   0  0  0  0  0  0  0  0  0  0  0  0
    4.1510   -0.4460   -0.2500 C   0  0  0  0  0  0  0  0  0  0  0  0
    1.5050   -1.4710   -0.2740 N   0  0  0  0  0  0  0  0  0  0  0  0
  1  2  1  0
  2  3  1  0
  3  4  2  0
  3 22  1  0
  4  5  1  0
  5  6  1  0
  5 14  2  0
  6  7  1  0
  7  8  2  0
  7 12  1  0
  8  9  1  0
  9 10  2  0
 10 11  1  0
 11 12  2  0
 12 13  1  0
 14 15  1  0
 15 16  1  0
 15 22  2  0
 16 17  2  0
 16 21  1  0
 17 18  1  0
 18 19  2  0
 19 20  1  0
 20 21  2  0
M  END
