
     RDKit          3D

 22 24  0  0  0  0  0  0  0  0999 V2000
    5.3280    0.7840    0.7790 C   0  0  0  0  0  0  0  0  0  0  0  0
    4.1240   -0.0860    0.4580 C   0  0  0  0  0  0  0  0  0  0  0  0
    3.5130    0.0350   -0.6990 C   0  0  0  0  0  0  0  0  0  0  0  0
    4.0220    1.0350   -1.6970 C   0  0  0  0  0  0  0  0  0  0  0  0
    2.9870    1.9160   -1.9350 F   0  0  0  0  0  0  0  0  0  0  0  0
    2.3220   -0.7200   -1.0890 C   0  0  0  0  0  0  0  0  0  0  0  0
    1.7990   -1.5680   -0.0080 C   0  0  0  0  0  0  0  0  0  0  0  0
    1.2220   -0.9190    1.1900 C   0  0  0  0  0  0  0  0  0  0  0  0
    0.0570   -0.0900    0.8290 N   0  0  0  0  0  0  0  0  0  0  0  0
    0.0920    1.2030    0.5050 C   0  0  0  0  0  0  0  0  0  0  0  0
    1.1290    1.9040    0.4650 O   0  0  0  0  0  0  0  0  0  0  0  0
   -1.1760    1.6170    0.2320 N   0  0  0  0  0  0  0  0  0  0  0  0
   -2.0170    0.5820    0.3830 C   0  0  0  0  0  0  0  0  0  0  0  0
   -3.3760    0.4160    0.2450 C   0  0  0  0  0  0  0  0  0  0  0  0
   -4.1030    1.5300   -0.1340 C   0  0  0  0  0  0  0  0  0  0  0  0
   -5.4820    1.3980   -0.2830 C   0  0  0  0  0  0  0  0  0  0  0  0
   -6.0730    0.1870   -0.0540 C   0  0  0  0  0  0  0  0  0  0  0  0
   -5.3760   -0.9340    0.3230 C   0  0  0  0  0  0  0  0  0  0  0  0
   -4.0020   -0.7980    0.4710 C   0  0  0  0  0  0  0  0  0  0  0  0
   -3.2160   -1.8600    0.8450 C   0  0  0  0  0  0  0  0  0  0  0  0
   -1.8540   -1.6920    0.9820 C   0  0  0  0  0  0  0  0  0  0  0  0
   -1.2190   -0.5020    0.7640 C   0  0  0  0  0  0  0  0  0  0  0  0
  1  2  1  0
  2  3  2  3
  3  4  1  0
  3  6  1  0
  4  5  1  0
  6  7  1  0
  7  8  1  0
  8  9  1  0
  9 10  1  0
  9 22  1  0
 10 11  2  0
 10 12  1  0
 12 13  1  0
 13 14  2  0
 13 22  1  0
 14 15  1  0
 14 19  1  0
 15 16  2  0
 16 17  1  0
 17 18  2  0
 18 19  1  0
 19 20  2  0
 20 21  1  0
 21 22  2  0
M  END
