
     RDKit          3D

 22 24  0  0  0  0  0  0  0  0999 V2000
   -1.6770    3.6890    1.9090 C   0  0  0  0  0  0  0  0  0  0  0  0
   -1.9630    3.2080    0.5190 C   0  0  0  0  0  0  0  0  0  0  0  0
   -1.5960    1.7900    0.3010 C   0  0  0  0  0  0  0  0  0  0  0  0
   -2.5820    0.8270    0.2600 C   0  0  0  0  0  0  0  0  0  0  0  0
   -2.2780   -0.5120    0.0580 C   0  0  0  0  0  0  0  0  0  0  0  0
   -3.3920   -1.5170    0.0220 C   0  0  2  0  0  0  0  0  0  0  0  0
   -4.4010   -1.1490   -1.0160 C   0  0  0  0  0  0  0  0  0  0  0  0
   -4.0390   -1.4810    1.4130 C   0  0  0  0  0  0  0  0  0  0  0  0
   -0.9560   -0.9160   -0.1080 C   0  0  0  0  0  0  0  0  0  0  0  0
    0.0360    0.0390   -0.0680 C   0  0  0  0  0  0  0  0  0  0  0  0
    1.3510   -0.3080   -0.2260 O   0  0  0  0  0  0  0  0  0  0  0  0
    1.9010   -1.5620   -0.4350 C   0  0  1  0  0  0  0  0  0  0  0  0
    2.6580   -1.5120   -1.7570 C   0  0  0  0  0  0  0  0  0  0  0  0
    3.7800   -0.5310   -1.7610 C   0  0  0  0  0  0  0  0  0  0  0  0
    4.2690   -0.1570   -0.4230 C   0  0  0  0  0  0  0  0  0  0  0  0
    5.1570    0.7810   -0.0810 N   0  0  0  0  0  0  0  0  0  0  0  0
    5.3000    0.7770    1.2220 N   0  0  0  0  0  0  0  0  0  0  0  0
    4.5300   -0.1470    1.7930 C   0  0  0  0  0  0  0  0  0  0  0  0
    3.8540   -0.7640    0.7460 C   0  0  0  0  0  0  0  0  0  0  0  0
    2.8590   -1.8580    0.6990 C   0  0  0  0  0  0  0  0  0  0  0  0
   -0.2990    1.3600    0.1340 C   0  0  0  0  0  0  0  0  0  0  0  0
    0.6800    2.2690    0.1690 F   0  0  0  0  0  0  0  0  0  0  0  0
  1  2  1  0
  2  3  1  0
  3  4  2  0
  3 21  1  0
  4  5  1  0
  5  6  1  0
  5  9  2  0
  6  7  1  6
  6  8  1  0
  9 10  1  0
 10 11  1  0
 10 21  2  0
 12 11  1  1
 12 13  1  0
 12 20  1  0
 13 14  1  0
 14 15  1  0
 15 16  1  0
 15 19  2  0
 16 17  1  0
 17 18  2  0
 18 19  1  0
 19 20  1  0
 21 22  1  0
M  END
