
     RDKit          3D

 22 24  0  0  0  0  0  0  0  0999 V2000
    6.0550    1.7130   -0.6740 O   0  0  0  0  0  0  0  0  0  0  0  0
    5.8900    0.3120   -0.6300 C   0  0  0  0  0  0  0  0  0  0  0  0
    4.5150    0.0160   -0.1170 C   0  0  0  0  0  0  0  0  0  0  0  0
    4.2830   -0.1150    1.2280 C   0  0  0  0  0  0  0  0  0  0  0  0
    3.0130   -0.3880    1.6790 C   0  0  0  0  0  0  0  0  0  0  0  0
    1.9370   -0.5380    0.7960 C   0  0  0  0  0  0  0  0  0  0  0  0
    2.1560   -0.4090   -0.5480 C   0  0  0  0  0  0  0  0  0  0  0  0
    1.1200   -0.5460   -1.5550 C   0  0  0  0  0  0  0  0  0  0  0  0
   -0.0850   -0.7960   -1.3690 N   0  0  0  0  0  0  0  0  0  0  0  0
   -0.8180   -1.0140   -0.2840 N   0  0  0  0  0  0  0  0  0  0  0  0
   -1.7900   -0.0630    0.2160 C   0  0  0  0  0  0  0  0  0  0  0  0
   -1.4640    0.9780    1.0460 C   0  0  0  0  0  0  0  0  0  0  0  0
   -2.4570    1.8600    1.4980 C   0  0  0  0  0  0  0  0  0  0  0  0
   -3.7490    1.6380    1.0810 C   0  0  0  0  0  0  0  0  0  0  0  0
   -4.7380    2.4660    1.4940 F   0  0  0  0  0  0  0  0  0  0  0  0
   -4.0970    0.5950    0.2450 C   0  0  0  0  0  0  0  0  0  0  0  0
   -5.3800    0.3720   -0.1700 C   0  0  0  0  0  0  0  0  0  0  0  0
   -5.6960   -0.6810   -1.0050 C   0  0  0  0  0  0  0  0  0  0  0  0
   -4.7270   -1.5560   -1.4570 C   0  0  0  0  0  0  0  0  0  0  0  0
   -3.4250   -1.3220   -1.0290 C   0  0  0  0  0  0  0  0  0  0  0  0
   -3.1010   -0.2730   -0.1960 C   0  0  0  0  0  0  0  0  0  0  0  0
    3.4670   -0.1290   -0.9940 C   0  0  0  0  0  0  0  0  0  0  0  0
  1  2  1  0
  2  3  1  0
  3  4  2  0
  3 22  1  0
  4  5  1  0
  5  6  2  0
  6  7  1  0
  7  8  1  0
  7 22  2  0
  8  9  2  3
  9 10  1  0
 10 11  1  0
 11 12  2  0
 11 21  1  0
 12 13  1  0
 13 14  2  0
 14 15  1  0
 14 16  1  0
 16 17  2  0
 16 21  1  0
 17 18  1  0
 18 19  2  0
 19 20  1  0
 20 21  2  0
M  END
