
     RDKit          3D

 21 22  0  0  0  0  0  0  0  0999 V2000
    1.4550    1.7870    0.3110 O   0  0  0  0  0  0  0  0  0  0  0  0
    1.8870    0.6420    0.0700 C   0  0  0  0  0  0  0  0  0  0  0  0
    3.3260    0.4770   -0.2350 C   0  0  0  0  0  0  0  0  0  0  0  0
    3.9950    1.6950   -0.2000 O   0  0  0  0  0  0  0  0  0  0  0  0
    5.2570    1.5930   -0.4610 O   0  0  0  0  0  0  0  0  0  0  0  0
    5.8490    0.5690    0.0640 O   0  0  0  0  0  0  0  0  0  0  0  0
    5.8640   -0.4410   -0.7840 O   0  0  0  0  0  0  0  0  0  0  0  0
    1.0550   -0.4530    0.0840 O   0  0  0  0  0  0  0  0  0  0  0  0
   -0.3260   -0.3770    0.3650 C   0  0  0  0  0  0  0  0  0  0  0  0
   -0.8830    0.6530    0.6150 N   0  0  0  0  0  0  0  0  0  0  0  0
   -1.1010    1.9470    0.8330 C   0  0  0  0  0  0  0  0  0  0  0  0
   -1.0340    2.5800    2.0480 N   0  0  0  0  0  0  0  0  0  0  0  0
   -1.3040    3.8680    1.9290 C   0  0  0  0  0  0  0  0  0  0  0  0
   -1.5590    4.1090    0.6060 C   0  0  0  0  0  0  0  0  0  0  0  0
   -1.4340    2.9550   -0.0330 N   0  0  0  0  0  0  0  0  0  0  0  0
   -1.0870   -1.7030    0.3340 C   0  0  1  0  0  0  0  0  0  0  0  0
   -2.5430   -1.4450    0.6580 C   0  0  0  0  0  0  0  0  0  0  0  0
   -3.1060   -2.7300    0.7960 O   0  0  0  0  0  0  0  0  0  0  0  0
   -3.0750   -3.3860   -0.3980 C   0  0  0  0  0  0  0  0  0  0  0  0
   -1.8890   -3.2010   -1.2440 C   0  0  0  0  0  0  0  0  0  0  0  0
   -1.0350   -2.1950   -0.9390 O   0  0  0  0  0  0  0  0  0  0  0  0
  1  2  2  0
  2  3  1  0
  2  8  1  0
  3  4  1  0
  4  5  1  0
  5  6  1  0
  6  7  1  0
  8  9  1  0
  9 10  2  3
 16  9  1  6
 10 11  1  0
 11 12  2  0
 11 15  1  0
 12 13  1  0
 13 14  2  0
 14 15  1  0
 16 17  1  0
 16 21  1  0
 17 18  1  0
 18 19  1  0
 19 20  1  0
 20 21  1  0
M  END
