
     RDKit          3D

 21 22  0  0  0  0  0  0  0  0999 V2000
   -2.1240    3.6310    0.0830 C   0  0  0  0  0  0  0  0  0  0  0  0
   -1.3620    2.3470   -0.1740 N   0  0  0  0  0  0  0  0  0  0  0  0
   -2.0450    1.3380   -0.9170 C   0  0  0  0  0  0  0  0  0  0  0  0
   -2.5320    1.7310   -2.0290 O   0  0  0  0  0  0  0  0  0  0  0  0
   -2.2870   -0.0260   -0.6540 N   0  0  0  0  0  0  0  0  0  0  0  0
   -2.5290   -0.6700    0.6120 C   0  0  0  0  0  0  0  0  0  0  0  0
   -2.0110   -2.0380    0.7460 C   0  0  0  0  0  0  0  0  0  0  0  0
   -1.5120   -2.3790   -0.5300 O   0  0  0  0  0  0  0  0  0  0  0  0
   -0.2040   -2.7900   -0.6610 C   0  0  0  0  0  0  0  0  0  0  0  0
    0.1570   -3.7050   -1.4570 O   0  0  0  0  0  0  0  0  0  0  0  0
    0.8250   -2.1220    0.1740 C   0  0  1  0  0  0  0  0  0  0  0  0
    2.0220   -1.9400   -0.7370 C   0  0  0  0  0  0  0  0  0  0  0  0
    1.8310   -0.5020   -1.1760 C   0  0  0  0  0  0  0  0  0  0  0  0
    1.3480    0.0360    0.1890 C   0  0  1  0  0  0  0  0  0  0  0  0
    2.4900   -0.1970    1.0160 O   0  0  0  0  0  0  0  0  0  0  0  0
    3.4900    0.4830    0.4950 O   0  0  0  0  0  0  0  0  0  0  0  0
    4.5710    0.2880    1.1970 O   0  0  0  0  0  0  0  0  0  0  0  0
    1.0560    1.4150    0.0690 N   0  0  0  0  0  0  0  0  0  0  0  0
   -0.0320    2.2500    0.3440 C   0  0  0  0  0  0  0  0  0  0  0  0
    0.1970    3.1340    1.2660 O   0  0  0  0  0  0  0  0  0  0  0  0
    0.4310   -0.8550    0.6200 O   0  0  0  0  0  0  0  0  0  0  0  0
  1  2  1  0
  2  3  1  0
  2 19  1  0
  3  4  2  0
  3  5  1  0
  5  6  1  0
  6  7  1  0
  7  8  1  0
  8  9  1  0
  9 10  2  0
  9 11  1  0
 11 12  1  6
 11 21  1  0
 12 13  1  0
 13 14  1  0
 14 15  1  1
 14 18  1  0
 14 21  1  0
 15 16  1  0
 16 17  1  0
 18 19  1  0
 19 20  2  0
M  END
