
     RDKit          3D

 21 22  0  0  0  0  0  0  0  0999 V2000
    2.5780   -1.2660    1.4920 O   0  0  0  0  0  0  0  0  0  0  0  0
    2.8110   -0.3280    0.6980 C   0  0  0  0  0  0  0  0  0  0  0  0
    4.2070    0.0810    0.4000 C   0  0  0  0  0  0  0  0  0  0  0  0
    5.0890   -0.7210    1.1180 O   0  0  0  0  0  0  0  0  0  0  0  0
    6.3170   -0.3410    0.8380 O   0  0  0  0  0  0  0  0  0  0  0  0
    1.7110    0.3640    0.0660 N   0  0  0  0  0  0  0  0  0  0  0  0
    0.3710    0.0060    0.3240 C   0  0  0  0  0  0  0  0  0  0  0  0
    0.2380   -0.9640    1.1480 O   0  0  0  0  0  0  0  0  0  0  0  0
   -0.7860    0.5900   -0.2200 N   0  0  0  0  0  0  0  0  0  0  0  0
   -0.5960    1.7280   -1.0800 C   0  0  0  0  0  0  0  0  0  0  0  0
   -1.2880    2.9580   -0.5010 C   0  0  0  0  0  0  0  0  0  0  0  0
   -2.7660    2.8760   -0.5750 C   0  0  0  0  0  0  0  0  0  0  0  0
   -3.2840    3.7820   -1.2770 O   0  0  0  0  0  0  0  0  0  0  0  0
   -3.5700    1.9260    0.0380 O   0  0  0  0  0  0  0  0  0  0  0  0
   -3.2090    0.6880    0.5480 O   0  0  0  0  0  0  0  0  0  0  0  0
   -2.0430   -0.0030    0.1400 C   0  0  0  0  0  0  0  0  0  0  0  0
   -2.1110   -1.3190    0.0790 C   0  0  0  0  0  0  0  0  0  0  0  0
   -3.3000   -2.0600    0.4140 N   0  0  0  0  0  0  0  0  0  0  0  0
   -3.0230   -3.4410    0.2330 C   0  0  0  0  0  0  0  0  0  0  0  0
   -1.7730   -3.5540   -0.1800 C   0  0  0  0  0  0  0  0  0  0  0  0
   -1.2010   -2.2890   -0.2800 O   0  0  0  0  0  0  0  0  0  0  0  0
  1  2  2  0
  2  3  1  0
  2  6  1  0
  3  4  1  0
  4  5  1  0
  6  7  1  0
  7  8  2  0
  7  9  1  0
  9 10  1  0
  9 16  1  0
 10 11  1  0
 11 12  1  0
 12 13  2  0
 12 14  1  0
 14 15  1  0
 15 16  1  0
 16 17  2  3
 17 18  1  0
 17 21  1  0
 18 19  1  0
 19 20  2  0
 20 21  1  0
M  END
