
     RDKit          3D

 21 22  0  0  0  0  0  0  0  0999 V2000
    0.8950    3.3870    2.2110 O   0  0  0  0  0  0  0  0  0  0  0  0
    0.6830    2.3560    1.4680 C   0  0  0  0  0  0  0  0  0  0  0  0
    1.6780    1.3300    1.2700 N   0  0  0  0  0  0  0  0  0  0  0  0
    1.4500   -0.0120    0.9070 C   0  0  0  0  0  0  0  0  0  0  0  0
    2.0920   -0.5360   -0.1180 C   0  0  0  0  0  0  0  0  0  0  0  0
    3.0740    0.1360   -0.9900 C   0  0  0  0  0  0  0  0  0  0  0  0
    3.2960    1.4410   -0.6500 O   0  0  0  0  0  0  0  0  0  0  0  0
    4.1620    2.0490   -1.4080 O   0  0  0  0  0  0  0  0  0  0  0  0
    0.5130   -0.9530    1.5860 C   0  0  0  0  0  0  0  0  0  0  0  0
   -0.6070   -1.4260    0.8380 N   0  0  0  0  0  0  0  0  0  0  0  0
   -1.8960   -1.2570    1.5840 C   0  0  0  0  0  0  0  0  0  0  0  0
   -2.9640   -1.1620    0.4870 C   0  0  0  0  0  0  0  0  0  0  0  0
   -2.5150   -0.3810   -0.6520 N   0  0  0  0  0  0  0  0  0  0  0  0
   -1.4610   -1.1200   -1.4160 C   0  0  0  0  0  0  0  0  0  0  0  0
   -0.6930   -2.0020   -0.4520 C   0  0  0  0  0  0  0  0  0  0  0  0
   -0.2930   -3.0560   -0.9810 O   0  0  0  0  0  0  0  0  0  0  0  0
   -2.9510    0.9030   -1.0210 C   0  0  0  0  0  0  0  0  0  0  0  0
   -3.8800    1.3250   -1.7910 O   0  0  0  0  0  0  0  0  0  0  0  0
   -2.2280    1.9700   -0.4300 O   0  0  0  0  0  0  0  0  0  0  0  0
   -0.9000    1.8970   -0.2940 O   0  0  0  0  0  0  0  0  0  0  0  0
   -0.5720    2.3400    0.8960 O   0  0  0  0  0  0  0  0  0  0  0  0
  1  2  2  0
  2  3  1  0
  2 21  1  0
  3  4  1  0
  4  5  2  3
  4  9  1  0
  5  6  1  0
  6  7  1  0
  7  8  1  0
  9 10  1  0
 10 11  1  0
 10 15  1  0
 11 12  1  0
 12 13  1  0
 13 14  1  0
 13 17  1  0
 14 15  1  0
 15 16  2  0
 17 18  2  0
 17 19  1  0
 19 20  1  0
 20 21  1  0
M  END
