
     RDKit          3D

 25 26  0  0  0  0  0  0  0  0999 V2000
   -5.4340    2.4970    0.8960 O   0  0  0  0  0  0  0  0  0  0  0  0
   -4.8910    0.9060    0.9250 P   0  0  0  0  0  0  0  0  0  0  0  0
   -5.7680    0.6150   -0.3130 O   0  0  0  0  0  0  0  0  0  0  0  0
   -5.7800   -0.2520    1.7460 O   0  0  0  0  0  0  0  0  0  0  0  0
   -3.3820    0.4750    0.2320 C   0  0  1  0  0  0  0  0  0  0  0  0
   -2.1260    0.5500    1.0150 C   0  0  0  0  0  0  0  0  0  0  0  0
   -0.8720    0.1660    0.3510 C   0  0  0  0  0  0  0  0  0  0  0  0
   -0.5230    0.9750   -0.8670 C   0  0  0  0  0  0  0  0  0  0  0  0
    0.7630    0.4470   -1.3970 C   0  0  0  0  0  0  0  0  0  0  0  0
    0.7810   -0.5700   -2.3290 C   0  0  0  0  0  0  0  0  0  0  0  0
    1.9530   -1.0860   -2.8440 C   0  0  0  0  0  0  0  0  0  0  0  0
    3.1670   -0.5740   -2.4200 C   0  0  0  0  0  0  0  0  0  0  0  0
    3.1800    0.4430   -1.4900 C   0  0  0  0  0  0  0  0  0  0  0  0
    4.4190    0.9390   -1.0810 O   0  0  0  0  0  0  0  0  0  0  0  0
    5.1020    0.4180   -0.0090 C   0  0  0  0  0  0  0  0  0  0  0  0
    6.0130   -0.6110   -0.0860 C   0  0  0  0  0  0  0  0  0  0  0  0
    6.6720   -1.0950    1.0290 C   0  0  0  0  0  0  0  0  0  0  0  0
    6.4270   -0.5450    2.2780 C   0  0  0  0  0  0  0  0  0  0  0  0
    5.5180    0.4860    2.3690 C   0  0  0  0  0  0  0  0  0  0  0  0
    4.8650    0.9590    1.2380 C   0  0  0  0  0  0  0  0  0  0  0  0
    1.9920    0.9390   -0.9920 C   0  0  0  0  0  0  0  0  0  0  0  0
   -3.5570   -1.1780   -0.4780 S   0  0  2  0  0  0  0  0  0  0  0  0
   -3.8050   -2.1490    0.9660 O   0  0  0  0  0  0  0  0  0  0  0  0
   -2.4390   -1.6900   -1.2150 O   0  0  0  0  0  0  0  0  0  0  0  0
   -5.0310   -1.2390   -1.1670 O   0  0  0  0  0  0  0  0  0  0  0  0
  1  2  1  0
  2  3  1  0
  2  4  1  0
  2  5  1  0
  5  6  1  1
  5 22  1  0
  6  7  1  0
  7  8  1  0
  8  9  1  0
  9 10  2  0
  9 21  1  0
 10 11  1  0
 11 12  2  0
 12 13  1  0
 13 14  1  0
 13 21  2  0
 14 15  1  0
 15 16  2  0
 15 20  1  0
 16 17  1  0
 17 18  2  0
 18 19  1  0
 19 20  2  0
 22 23  1  1
 22 24  1  0
 22 25  1  0
M  END
