
     RDKit          3D

 21 22  0  0  0  0  0  0  0  0999 V2000
   -2.9000   -1.3340   -1.4880 O   0  0  0  0  0  0  0  0  0  0  0  0
   -3.6020   -0.9410   -0.5480 C   0  0  0  0  0  0  0  0  0  0  0  0
   -4.9180   -1.4390   -0.3660 O   0  0  0  0  0  0  0  0  0  0  0  0
   -5.7130   -0.5700    0.2860 O   0  0  0  0  0  0  0  0  0  0  0  0
   -5.4870    0.7080   -0.0790 N   0  0  0  0  0  0  0  0  0  0  0  0
   -4.1890    1.2150    0.2940 C   0  0  0  0  0  0  0  0  0  0  0  0
   -3.2270    0.0510    0.4840 C   0  0  2  0  0  0  0  0  0  0  0  0
   -1.7920    0.4820    0.4390 C   0  0  0  0  0  0  0  0  0  0  0  0
   -0.9150   -0.7020    0.6540 C   0  0  0  0  0  0  0  0  0  0  0  0
    0.5660   -0.4160    0.6470 C   0  0  1  0  0  0  0  0  0  0  0  0
    1.2480   -1.7340    0.8990 C   0  0  0  0  0  0  0  0  0  0  0  0
    2.6180   -1.6430    1.1200 O   0  0  0  0  0  0  0  0  0  0  0  0
    3.5920   -1.2530    0.2110 C   0  0  0  0  0  0  0  0  0  0  0  0
    4.7120   -1.8460    0.2220 O   0  0  0  0  0  0  0  0  0  0  0  0
    3.4100   -0.2090   -0.7530 N   0  0  0  0  0  0  0  0  0  0  0  0
    4.6240    0.2600   -1.3960 C   0  0  0  0  0  0  0  0  0  0  0  0
    5.2260    1.3000   -0.7270 O   0  0  0  0  0  0  0  0  0  0  0  0
    5.5660    0.9710    0.4940 O   0  0  0  0  0  0  0  0  0  0  0  0
    2.2210    0.4490   -1.1870 C   0  0  0  0  0  0  0  0  0  0  0  0
    2.2760    1.2970   -2.1100 O   0  0  0  0  0  0  0  0  0  0  0  0
    0.9260    0.1790   -0.5990 N   0  0  0  0  0  0  0  0  0  0  0  0
  1  2  2  0
  2  3  1  0
  2  7  1  0
  3  4  1  0
  4  5  1  0
  5  6  1  0
  6  7  1  0
  7  8  1  6
  8  9  1  0
 10  9  1  6
 10 11  1  0
 10 21  1  0
 11 12  1  0
 12 13  1  0
 13 14  2  0
 13 15  1  0
 15 16  1  0
 15 19  1  0
 16 17  1  0
 17 18  1  0
 19 20  2  0
 19 21  1  0
M  END
