
     RDKit          3D

 21 21  0  0  0  0  0  0  0  0999 V2000
    3.7120    0.5770    1.5530 O   0  0  0  0  0  0  0  0  0  0  0  0
    4.5330    0.5940    0.6060 C   0  0  0  0  0  0  0  0  0  0  0  0
    5.7770    1.1720    0.8680 O   0  0  0  0  0  0  0  0  0  0  0  0
    4.1970    0.0490   -0.6610 N   0  0  0  0  0  0  0  0  0  0  0  0
    2.8960   -0.5350   -0.8730 C   0  0  0  0  0  0  0  0  0  0  0  0
    1.7940    0.4460   -0.6480 C   0  0  0  0  0  0  0  0  0  0  0  0
    2.1620    1.6170   -0.3110 O   0  0  0  0  0  0  0  0  0  0  0  0
    0.4280    0.1030   -0.7980 N   0  0  0  0  0  0  0  0  0  0  0  0
    0.0950   -1.2450   -1.1850 C   0  0  0  0  0  0  0  0  0  0  0  0
   -0.4560   -1.9710    0.0480 C   0  0  0  0  0  0  0  0  0  0  0  0
   -1.4150   -1.2080    0.7070 O   0  0  0  0  0  0  0  0  0  0  0  0
   -2.7080   -1.5930    0.4710 C   0  0  0  0  0  0  0  0  0  0  0  0
   -3.4450   -0.7900   -0.5440 C   0  0  0  0  0  0  0  0  0  0  0  0
   -4.2170    0.2490   -0.0580 O   0  0  0  0  0  0  0  0  0  0  0  0
   -3.9880    1.6150   -0.0950 C   0  0  0  0  0  0  0  0  0  0  0  0
   -4.9300    2.3100   -0.6480 O   0  0  0  0  0  0  0  0  0  0  0  0
   -2.8660    2.0920    0.4200 O   0  0  0  0  0  0  0  0  0  0  0  0
   -1.8780    1.9460    1.2690 C   0  0  0  0  0  0  0  0  0  0  0  0
   -1.8330    2.0100    2.5520 O   0  0  0  0  0  0  0  0  0  0  0  0
   -0.5200    1.6480    0.7200 C   0  0  0  0  0  0  0  0  0  0  0  0
   -0.5610    1.0300   -0.5810 N   0  0  0  0  0  0  0  0  0  0  0  0
  1  2  2  0
  2  3  1  0
  2  4  1  0
  4  5  1  0
  5  6  1  0
  6  7  2  0
  6  8  1  0
  8  9  1  0
  8 21  1  0
  9 10  1  0
 10 11  1  0
 11 12  1  0
 12 13  1  0
 13 14  1  0
 14 15  1  0
 15 16  2  0
 15 17  1  0
 17 18  1  0
 18 19  2  0
 18 20  1  0
 20 21  1  0
M  END
