
     RDKit          3D

 21 22  0  0  0  0  0  0  0  0999 V2000
   -5.8780    0.1910   -3.0100 O   0  0  0  0  0  0  0  0  0  0  0  0
   -5.0160    0.4420   -2.1000 C   0  0  0  0  0  0  0  0  0  0  0  0
   -5.0430    1.5660   -1.2370 N   0  0  0  0  0  0  0  0  0  0  0  0
   -3.8950    1.4400   -0.3870 C   0  0  0  0  0  0  0  0  0  0  0  0
   -3.4010    2.3980    0.2520 O   0  0  0  0  0  0  0  0  0  0  0  0
   -3.5140    0.0140   -0.4800 C   0  0  2  0  0  0  0  0  0  0  0  0
   -4.2580   -0.8250    0.5190 C   0  0  0  0  0  0  0  0  0  0  0  0
   -3.9810   -2.1650    0.2870 O   0  0  0  0  0  0  0  0  0  0  0  0
   -2.0440   -0.1740   -0.3410 C   0  0  0  0  0  0  0  0  0  0  0  0
   -1.2010    0.7580   -0.1640 N   0  0  0  0  0  0  0  0  0  0  0  0
    0.1130    0.2270   -0.0740 C   0  0  0  0  0  0  0  0  0  0  0  0
    1.2520    0.8150   -0.1700 N   0  0  0  0  0  0  0  0  0  0  0  0
    2.4450    0.1550   -0.0580 O   0  0  0  0  0  0  0  0  0  0  0  0
    3.2570    0.2830    1.0990 C   0  0  0  0  0  0  0  0  0  0  0  0
    4.5020   -0.5330    0.9780 C   0  0  0  0  0  0  0  0  0  0  0  0
    5.3580   -0.1340   -0.2000 C   0  0  0  0  0  0  0  0  0  0  0  0
    5.7760    1.1710   -0.1460 O   0  0  0  0  0  0  0  0  0  0  0  0
    6.5040    1.4320   -1.1910 O   0  0  0  0  0  0  0  0  0  0  0  0
   -0.1160   -1.2390    0.1710 C   0  0  0  0  0  0  0  0  0  0  0  0
   -1.4030   -1.3860   -0.3860 O   0  0  0  0  0  0  0  0  0  0  0  0
   -3.9030   -0.3160   -1.7780 O   0  0  0  0  0  0  0  0  0  0  0  0
  1  2  2  0
  2  3  1  0
  2 21  1  0
  3  4  1  0
  4  5  2  0
  4  6  1  0
  6  7  1  1
  6  9  1  0
  6 21  1  0
  7  8  1  0
  9 10  2  0
  9 20  1  0
 10 11  1  0
 11 12  2  3
 11 19  1  0
 12 13  1  0
 13 14  1  0
 14 15  1  0
 15 16  1  0
 16 17  1  0
 17 18  1  0
 19 20  1  0
M  END
