
     RDKit          3D

 21 22  0  0  0  0  0  0  0  0999 V2000
    0.2100    1.3560   -2.8930 O   0  0  0  0  0  0  0  0  0  0  0  0
   -0.0210    1.3830   -1.6430 C   0  0  0  0  0  0  0  0  0  0  0  0
   -1.1640    2.1200   -1.2460 N   0  0  0  0  0  0  0  0  0  0  0  0
   -1.8370    1.9800    0.0340 C   0  0  0  0  0  0  0  0  0  0  0  0
   -3.2030    1.3900   -0.0810 C   0  0  0  0  0  0  0  0  0  0  0  0
   -3.5790    0.4120    0.8570 N   0  0  0  0  0  0  0  0  0  0  0  0
   -4.0030   -0.7920    0.1040 C   0  0  0  0  0  0  0  0  0  0  0  0
   -2.5030   -1.0120    0.0970 C   0  0  1  0  0  0  0  0  0  0  0  0
   -2.6070   -0.3890    1.3810 N   0  0  0  0  0  0  0  0  0  0  0  0
   -2.0930   -2.3020    0.2130 O   0  0  0  0  0  0  0  0  0  0  0  0
   -0.7270   -2.2940    0.4900 C   0  0  0  0  0  0  0  0  0  0  0  0
    0.1140   -1.5980   -0.5300 C   0  0  0  0  0  0  0  0  0  0  0  0
    0.8080   -0.3640   -0.0060 C   0  0  1  0  0  0  0  0  0  0  0  0
    2.2530   -0.7060    0.1840 C   0  0  0  0  0  0  0  0  0  0  0  0
    2.5180   -1.7150    0.8760 O   0  0  0  0  0  0  0  0  0  0  0  0
    3.2820    0.0240   -0.3550 O   0  0  0  0  0  0  0  0  0  0  0  0
    4.6490   -0.2890   -0.1830 C   0  0  0  0  0  0  0  0  0  0  0  0
    5.0410   -0.2840    1.1430 O   0  0  0  0  0  0  0  0  0  0  0  0
    4.8550    0.8790    1.6850 O   0  0  0  0  0  0  0  0  0  0  0  0
    5.6110    1.8280    1.1870 O   0  0  0  0  0  0  0  0  0  0  0  0
    0.7690    0.7560   -0.7820 O   0  0  0  0  0  0  0  0  0  0  0  0
  1  2  2  0
  2  3  1  0
  2 21  1  0
  3  4  1  0
  4  5  1  0
  5  6  1  0
  6  7  1  0
  6  9  1  0
  7  8  1  0
  8  9  1  1
  8 10  1  0
 10 11  1  0
 11 12  1  0
 12 13  1  0
 13 14  1  6
 13 21  1  0
 14 15  2  0
 14 16  1  0
 16 17  1  0
 17 18  1  0
 18 19  1  0
 19 20  1  0
M  END
