
     RDKit          3D

 21 20  0  0  0  0  0  0  0  0999 V2000
    5.3390    0.8920    0.9610 C   0  0  0  0  0  0  0  0  0  0  0  0
    4.4000    0.3130   -0.0580 C   0  0  0  0  0  0  0  0  0  0  0  0
    3.4330   -0.4140    0.6160 O   0  0  0  0  0  0  0  0  0  0  0  0
    2.5320   -0.9700   -0.3540 C   0  0  1  0  0  0  0  0  0  0  0  0
    2.6240   -2.3590   -0.2430 F   0  0  0  0  0  0  0  0  0  0  0  0
    1.2090   -0.5460    0.0470 C   0  0  0  0  0  0  0  0  0  0  0  0
    1.0290    0.0970    1.1290 O   0  0  0  0  0  0  0  0  0  0  0  0
    0.0150   -0.8150   -0.7360 N   0  0  0  0  0  0  0  0  0  0  0  0
    0.2030   -1.4900   -1.9310 C   0  0  0  0  0  0  0  0  0  0  0  0
    1.3400   -1.9610   -2.2710 O   0  0  0  0  0  0  0  0  0  0  0  0
   -0.7650   -1.7020   -2.8410 F   0  0  0  0  0  0  0  0  0  0  0  0
   -1.1720   -0.3320   -0.1480 C   0  0  0  0  0  0  0  0  0  0  0  0
   -1.0240    0.4920    0.8530 O   0  0  0  0  0  0  0  0  0  0  0  0
   -2.5160   -0.6140   -0.4890 C   0  0  0  0  0  0  0  0  0  0  0  0
   -3.6410    0.1420    0.0970 C   0  0  0  0  0  0  0  0  0  0  0  0
   -3.5730    1.2520    0.7640 C   0  0  0  0  0  0  0  0  0  0  0  0
   -4.8410    1.8410    1.2670 C   0  0  0  0  0  0  0  0  0  0  0  0
   -5.8930    1.2330    1.0170 O   0  0  0  0  0  0  0  0  0  0  0  0
   -4.8840    3.0150    1.9860 O   0  0  0  0  0  0  0  0  0  0  0  0
   -2.8790   -1.7390   -1.1560 C   0  0  0  0  0  0  0  0  0  0  0  0
   -4.2010   -1.9470   -1.4670 F   0  0  0  0  0  0  0  0  0  0  0  0
  1  2  1  0
  2  3  1  0
  3  4  1  0
  4  5  1  1
  4  6  1  0
  6  7  2  0
  6  8  1  0
  8  9  1  0
  8 12  1  0
  9 10  2  0
  9 11  1  0
 12 13  2  0
 12 14  1  0
 14 15  1  0
 14 20  2  3
 15 16  2  3
 16 17  1  0
 17 18  2  0
 17 19  1  0
 20 21  1  0
M  END
