
     RDKit          3D

 20 20  0  0  0  0  0  0  0  0999 V2000
   -0.2460   -1.4620   -1.1640 O   0  0  0  0  0  0  0  0  0  0  0  0
   -0.3350   -0.3610   -0.5750 C   0  0  0  0  0  0  0  0  0  0  0  0
    0.7080    0.5040   -0.3600 O   0  0  0  0  0  0  0  0  0  0  0  0
    1.9840    0.0410   -0.8200 C   0  0  0  0  0  0  0  0  0  0  0  0
    2.3560   -1.0800    0.0790 C   0  0  0  0  0  0  0  0  0  0  0  0
    3.5230   -1.7340   -0.0500 O   0  0  0  0  0  0  0  0  0  0  0  0
    4.6250   -1.0950    0.4540 C   0  0  0  0  0  0  0  0  0  0  0  0
    4.9060    0.5260   -0.3090 P   0  0  0  0  0  0  0  0  0  0  0  0
    4.5140    1.8410    0.7560 O   0  0  0  0  0  0  0  0  0  0  0  0
    6.5310    0.7070   -0.9260 O   0  0  0  0  0  0  0  0  0  0  0  0
   -1.6880    0.0060   -0.0770 C   0  0  0  0  0  0  0  0  0  0  0  0
   -1.9750    1.1300    0.6750 C   0  0  0  0  0  0  0  0  0  0  0  0
   -3.3130    1.0830    0.9110 N   0  0  0  0  0  0  0  0  0  0  0  0
   -3.8290   -0.0280    0.3140 C   0  0  0  0  0  0  0  0  0  0  0  0
   -5.2310   -0.5020    0.2950 C   0  0  1  0  0  0  0  0  0  0  0  0
   -5.3810   -1.4360   -0.7270 F   0  0  0  0  0  0  0  0  0  0  0  0
   -5.4990   -1.1770    1.4910 F   0  0  0  0  0  0  0  0  0  0  0  0
   -6.2520    0.5730    0.0640 C   0  0  0  0  0  0  0  0  0  0  0  0
   -6.0250    1.2600   -1.1250 F   0  0  0  0  0  0  0  0  0  0  0  0
   -2.7890   -0.6300   -0.2620 O   0  0  0  0  0  0  0  0  0  0  0  0
  1  2  2  0
  2  3  1  0
  2 11  1  0
  3  4  1  0
  4  5  1  0
  5  6  1  0
  6  7  1  0
  7  8  1  0
  8  9  1  0
  8 10  1  0
 11 12  2  0
 11 20  1  0
 12 13  1  0
 13 14  2  0
 14 15  1  0
 14 20  1  0
 15 16  1  6
 15 17  1  0
 15 18  1  0
 18 19  1  0
M  END
