
     RDKit          3D

 22 22  0  0  0  0  0  0  0  0999 V2000
    0.6600    5.3350    2.0920 C   0  0  0  0  0  0  0  0  0  0  0  0
    0.6600    3.9480    2.1570 O   0  0  0  0  0  0  0  0  0  0  0  0
   -0.5950    3.3410    1.1630 P   0  0  0  0  0  0  0  0  0  0  0  0
   -1.6800    4.5840    0.6330 O   0  0  0  0  0  0  0  0  0  0  0  0
    0.0030    2.2800   -0.2180 C   0  0  0  0  0  0  0  0  0  0  0  0
    0.0690    0.8400    0.2210 N   0  0  0  0  0  0  0  0  0  0  0  0
    1.2860    0.3680    0.7620 C   0  0  0  0  0  0  0  0  0  0  0  0
    2.3100   -0.1260   -0.1950 C   0  0  0  0  0  0  0  0  0  0  0  0
    1.9540   -1.2050   -1.0420 N   0  0  0  0  0  0  0  0  0  0  0  0
    3.0530   -1.4430   -1.9830 C   0  0  0  0  0  0  0  0  0  0  0  0
    4.2850   -1.9760   -1.3380 C   0  0  0  0  0  0  0  0  0  0  0  0
    4.1500   -3.1750   -0.6850 O   0  0  0  0  0  0  0  0  0  0  0  0
   -1.1030    0.1340    0.0010 C   0  0  0  0  0  0  0  0  0  0  0  0
   -2.0380    0.8300   -0.5870 O   0  0  0  0  0  0  0  0  0  0  0  0
   -1.4180   -1.2480    0.3360 C   0  0  0  0  0  0  0  0  0  0  0  0
   -0.6770   -2.1580    0.9280 C   0  0  0  0  0  0  0  0  0  0  0  0
   -1.3650   -3.4100    1.0730 N   0  0  0  0  0  0  0  0  0  0  0  0
   -2.5680   -3.2210    0.5400 O   0  0  0  0  0  0  0  0  0  0  0  0
   -2.7140   -1.8960    0.0440 C   0  0  0  0  0  0  0  0  0  0  0  0
   -3.8050   -1.4590   -0.5290 C   0  0  0  0  0  0  0  0  0  0  0  0
   -4.9640   -2.4330   -0.6600 C   0  0  0  0  0  0  0  0  0  0  0  0
   -4.0560   -0.2270   -1.0350 O   0  0  0  0  0  0  0  0  0  0  0  0
  1  2  1  0
  2  3  1  0
  3  4  1  0
  3  5  1  0
  5  6  1  0
  6  7  1  0
  6 13  1  0
  7  8  1  0
  8  9  1  0
  9 10  1  0
 10 11  1  0
 11 12  1  0
 13 14  2  0
 13 15  1  0
 15 16  2  0
 15 19  1  0
 16 17  1  0
 17 18  1  0
 18 19  1  0
 19 20  2  3
 20 21  1  0
 20 22  1  0
M  END
