
     RDKit          3D

 22 22  0  0  0  0  0  0  0  0999 V2000
    2.0640   -3.3480   -0.7940 C   0  0  0  0  0  0  0  0  0  0  0  0
    1.2020   -2.6600    0.1270 O   0  0  0  0  0  0  0  0  0  0  0  0
    1.0000   -1.3330   -0.0560 C   0  0  0  0  0  0  0  0  0  0  0  0
   -0.0990   -0.7410   -0.3640 C   0  0  0  0  0  0  0  0  0  0  0  0
   -1.4320   -1.0790   -0.6280 C   0  0  0  0  0  0  0  0  0  0  0  0
   -2.0770   -2.3620   -0.6250 C   0  0  0  0  0  0  0  0  0  0  0  0
   -1.6760   -3.5490   -0.3960 C   0  0  0  0  0  0  0  0  0  0  0  0
   -2.6610   -4.6130   -0.4960 O   0  0  0  0  0  0  0  0  0  0  0  0
   -2.3040   -0.0630   -0.9420 C   0  0  0  0  0  0  0  0  0  0  0  0
   -1.9500    1.3280   -1.0260 C   0  0  0  0  0  0  0  0  0  0  0  0
   -2.6840    2.0690    0.0970 C   0  0  0  0  0  0  0  0  0  0  0  0
   -4.5080    1.8300   -0.1580 P   0  0  0  0  0  0  0  0  0  0  0  0
   -5.1460    0.7970    1.0540 O   0  0  0  0  0  0  0  0  0  0  0  0
   -5.2650    3.3870   -0.1460 O   0  0  0  0  0  0  0  0  0  0  0  0
    2.2320   -0.5090    0.1340 C   0  0  0  0  0  0  0  0  0  0  0  0
    2.2620    0.8200    0.0020 N   0  0  0  0  0  0  0  0  0  0  0  0
    3.5190    1.2590    0.2380 C   0  0  0  0  0  0  0  0  0  0  0  0
    4.0640    2.6300    0.2170 C   0  0  1  0  0  0  0  0  0  0  0  0
    4.9190    2.8480    1.3940 N   0  0  0  0  0  0  0  0  0  0  0  0
    4.8350    2.8140   -0.9350 O   0  0  0  0  0  0  0  0  0  0  0  0
    4.2340    0.1480    0.5160 N   0  0  0  0  0  0  0  0  0  0  0  0
    3.4270   -0.8870    0.4420 O   0  0  0  0  0  0  0  0  0  0  0  0
  1  2  1  0
  2  3  1  0
  3  4  2  3
  3 15  1  0
  4  5  1  0
  5  6  1  0
  5  9  2  3
  6  7  2  3
  7  8  1  0
  9 10  1  0
 10 11  1  0
 11 12  1  0
 12 13  1  0
 12 14  1  0
 15 16  2  0
 15 22  1  0
 16 17  1  0
 17 18  1  0
 17 21  2  0
 18 19  1  1
 18 20  1  0
 21 22  1  0
M  END
