
     RDKit          3D

 28 29  0  0  0  0  0  0  0  0999 V2000
    7.8330   -0.2190   -2.0440 C   0  0  0  0  0  0  0  0  0  0  0  0
    6.9810   -1.2820   -1.4310 C   0  0  0  0  0  0  0  0  0  0  0  0
    7.3060   -1.4690    0.0010 C   0  0  0  0  0  0  0  0  0  0  0  0
    7.0430   -0.2430    0.8100 C   0  0  0  0  0  0  0  0  0  0  0  0
    5.6160    0.0970    0.7400 C   0  0  0  0  0  0  0  0  0  0  0  0
    5.1560    0.9760   -0.1920 C   0  0  0  0  0  0  0  0  0  0  0  0
    3.7820    1.2760   -0.2410 C   0  0  0  0  0  0  0  0  0  0  0  0
    2.8990    0.7000    0.6330 C   0  0  0  0  0  0  0  0  0  0  0  0
    1.4760    0.9930    0.6050 C   0  0  0  0  0  0  0  0  0  0  0  0
    0.8080    1.2960   -0.5780 C   0  0  0  0  0  0  0  0  0  0  0  0
   -0.5400    1.5800   -0.6190 C   0  0  0  0  0  0  0  0  0  0  0  0
   -1.2620    1.5650    0.5520 C   0  0  0  0  0  0  0  0  0  0  0  0
   -2.7180    1.8590    0.6090 C   0  0  0  0  0  0  0  0  0  0  0  0
   -3.4400    0.5520    0.4300 C   0  0  0  0  0  0  0  0  0  0  0  0
   -4.9460    0.7320    0.4720 C   0  0  0  0  0  0  0  0  0  0  0  0
   -5.5720   -0.5860    0.2910 C   0  0  2  0  0  0  0  0  0  0  0  0
   -5.0850   -1.3130   -1.3280 P   0  0  0  0  0  0  0  0  0  0  0  0
   -6.4650   -2.0610   -2.0400 O   0  0  0  0  0  0  0  0  0  0  0  0
   -4.5060   -0.0950   -2.3940 O   0  0  0  0  0  0  0  0  0  0  0  0
   -3.8340   -2.4940   -1.0820 O   0  0  0  0  0  0  0  0  0  0  0  0
   -7.3150   -0.3510    0.1600 S   0  0  1  0  0  0  0  0  0  0  0  0
   -7.5730    0.2720    1.9130 O   0  0  0  0  0  0  0  0  0  0  0  0
   -7.6060    0.8290   -0.6510 O   0  0  0  0  0  0  0  0  0  0  0  0
   -7.9680   -1.7140    0.1430 O   0  0  0  0  0  0  0  0  0  0  0  0
   -0.6540    1.2710    1.7610 C   0  0  0  0  0  0  0  0  0  0  0  0
    0.6940    0.9950    1.7460 C   0  0  0  0  0  0  0  0  0  0  0  0
    3.4000   -0.1830    1.5620 C   0  0  0  0  0  0  0  0  0  0  0  0
    4.7520   -0.4880    1.6210 C   0  0  0  0  0  0  0  0  0  0  0  0
  1  2  1  0
  2  3  1  0
  3  4  1  0
  4  5  1  0
  5  6  2  0
  5 28  1  0
  6  7  1  0
  7  8  2  0
  8  9  1  0
  8 27  1  0
  9 10  2  0
  9 26  1  0
 10 11  1  0
 11 12  2  0
 12 13  1  0
 12 25  1  0
 13 14  1  0
 14 15  1  0
 16 15  1  6
 16 17  1  0
 16 21  1  0
 17 18  1  0
 17 19  1  0
 17 20  1  0
 21 22  1  1
 21 23  1  0
 21 24  1  0
 25 26  2  0
 27 28  2  0
M  END
