
     RDKit          3D

 22 21  0  0  0  0  0  0  0  0999 V2000
    3.3200   -0.4350    1.3090 C   0  0  0  0  0  0  0  0  0  0  0  0
    2.6130   -0.0550    0.2620 C   0  0  0  0  0  0  0  0  0  0  0  0
    3.2040    0.3500   -1.0380 C   0  0  0  0  0  0  0  0  0  0  0  0
    5.0470    0.2350   -0.9400 P   0  0  0  0  0  0  0  0  0  0  0  0
    5.6230    1.2550    0.3220 O   0  0  0  0  0  0  0  0  0  0  0  0
    5.4630   -1.4040   -0.5670 O   0  0  0  0  0  0  0  0  0  0  0  0
    1.1460   -0.0410    0.4190 C   0  0  0  0  0  0  0  0  0  0  0  0
    0.6260   -0.3800    1.5080 O   0  0  0  0  0  0  0  0  0  0  0  0
    0.3060    0.3540   -0.6570 N   0  0  0  0  0  0  0  0  0  0  0  0
   -1.1100    0.3630   -0.4940 C   0  0  0  0  0  0  0  0  0  0  0  0
   -1.7490    1.5120   -0.6480 C   0  0  0  0  0  0  0  0  0  0  0  0
   -1.0310    2.7190   -0.9720 C   0  0  0  0  0  0  0  0  0  0  0  0
   -1.6840    3.8520   -1.1210 C   0  0  0  0  0  0  0  0  0  0  0  0
   -3.0570    3.8830   -0.9680 O   0  0  0  0  0  0  0  0  0  0  0  0
   -1.8550   -0.7880   -0.1770 N   0  0  0  0  0  0  0  0  0  0  0  0
   -1.8430   -1.9070   -1.0740 C   0  0  0  0  0  0  0  0  0  0  0  0
   -0.7590   -2.9040   -0.7880 C   0  0  0  0  0  0  0  0  0  0  0  0
   -0.8400   -3.9430   -1.7120 O   0  0  0  0  0  0  0  0  0  0  0  0
   -2.6090   -0.8360    1.0070 C   0  0  0  0  0  0  0  0  0  0  0  0
   -3.3000   -1.8690    1.3180 O   0  0  0  0  0  0  0  0  0  0  0  0
   -2.6240    0.2640    1.8940 N   0  0  0  0  0  0  0  0  0  0  0  0
   -3.4170    0.1730    3.1060 C   0  0  0  0  0  0  0  0  0  0  0  0
  1  2  2  0
  2  3  1  0
  2  7  1  0
  3  4  1  0
  4  5  1  0
  4  6  1  0
  7  8  2  0
  7  9  1  0
  9 10  1  0
 10 11  2  3
 10 15  1  0
 11 12  1  0
 12 13  2  3
 13 14  1  0
 15 16  1  0
 15 19  1  0
 16 17  1  0
 17 18  1  0
 19 20  2  0
 19 21  1  0
 21 22  1  0
M  END
