
     RDKit          3D

 21 21  0  0  0  0  0  0  0  0999 V2000
   -3.8020   -2.2420    1.2840 N   0  0  0  0  0  0  0  0  0  0  0  0
   -4.5280   -1.6440    0.4190 C   0  0  0  0  0  0  0  0  0  0  0  0
   -5.7120   -2.3510    0.0090 N   0  0  0  0  0  0  0  0  0  0  0  0
   -4.2160   -0.3560   -0.1470 N   0  0  0  0  0  0  0  0  0  0  0  0
   -5.0620    0.3150   -1.0670 C   0  0  0  0  0  0  0  0  0  0  0  0
   -6.1670   -0.1390   -1.5110 O   0  0  0  0  0  0  0  0  0  0  0  0
   -4.4180    1.5720   -1.3740 C   0  0  0  0  0  0  0  0  0  0  0  0
   -3.2850    1.6830   -0.7270 C   0  0  0  0  0  0  0  0  0  0  0  0
   -3.0720    0.4660    0.0830 C   0  0  2  0  0  0  0  0  0  0  0  0
   -1.8850   -0.2350   -0.5830 C   0  0  0  0  0  0  0  0  0  0  0  0
   -0.6830    0.4400   -0.4470 O   0  0  0  0  0  0  0  0  0  0  0  0
   -0.1210    0.6600    0.7830 C   0  0  0  0  0  0  0  0  0  0  0  0
   -0.6900    0.2430    1.8080 O   0  0  0  0  0  0  0  0  0  0  0  0
    1.1600    1.3880    0.9040 C   0  0  0  0  0  0  0  0  0  0  0  0
    2.2770    0.4260    0.5060 C   0  0  0  0  0  0  0  0  0  0  0  0
    3.5920    1.1730    0.6220 C   0  0  0  0  0  0  0  0  0  0  0  0
    4.6960    0.2130    0.1990 C   0  0  0  0  0  0  0  0  0  0  0  0
    4.4250   -0.1720   -1.1290 O   0  0  0  0  0  0  0  0  0  0  0  0
    5.6740   -1.2670   -1.6140 P   0  0  0  0  0  0  0  0  0  0  0  0
    7.1560   -0.3580   -1.8070 O   0  0  0  0  0  0  0  0  0  0  0  0
    5.9210   -2.4410   -0.3650 O   0  0  0  0  0  0  0  0  0  0  0  0
  1  2  2  0
  2  3  1  0
  2  4  1  0
  4  5  1  0
  4  9  1  0
  5  6  2  0
  5  7  1  0
  7  8  2  0
  8  9  1  0
  9 10  1  6
 10 11  1  0
 11 12  1  0
 12 13  2  0
 12 14  1  0
 14 15  1  0
 15 16  1  0
 16 17  1  0
 17 18  1  0
 18 19  1  0
 19 20  1  0
 19 21  1  0
M  END
