
     RDKit          3D

 28 29  0  0  0  0  0  0  0  0999 V2000
    6.6620    2.2790   -0.4680 O   0  0  0  0  0  0  0  0  0  0  0  0
    5.9310    1.2940   -0.7550 C   0  0  0  0  0  0  0  0  0  0  0  0
    4.4920    1.2200   -0.7380 N   0  0  0  0  0  0  0  0  0  0  0  0
    4.1070   -0.0780   -1.1320 C   0  0  0  0  0  0  0  0  0  0  0  0
    3.0000   -0.6770   -1.0020 N   0  0  0  0  0  0  0  0  0  0  0  0
    1.8430   -0.1280   -0.3940 C   0  0  0  0  0  0  0  0  0  0  0  0
    1.9640    0.9220    0.3350 N   0  0  0  0  0  0  0  0  0  0  0  0
    0.9420    1.5510    0.9750 O   0  0  0  0  0  0  0  0  0  0  0  0
    0.4890    2.8080    0.5720 C   0  0  0  0  0  0  0  0  0  0  0  0
   -1.0030    2.9810    0.7550 C   0  0  0  0  0  0  0  0  0  0  0  0
   -1.4230    2.5390    1.9920 O   0  0  0  0  0  0  0  0  0  0  0  0
   -3.0680    1.9850    1.9470 P   0  0  0  0  0  0  0  0  0  0  0  0
   -3.9340    2.8180    0.6640 O   0  0  0  0  0  0  0  0  0  0  0  0
   -3.0180    0.2660    1.6320 O   0  0  0  0  0  0  0  0  0  0  0  0
   -3.4250   -0.0340    0.3460 C   0  0  0  0  0  0  0  0  0  0  0  0
   -3.7310   -1.4860    0.2280 C   0  0  0  0  0  0  0  0  0  0  0  0
   -4.9710   -1.7610    0.0490 O   0  0  0  0  0  0  0  0  0  0  0  0
   -2.8280   -2.5550    0.2890 N   0  0  0  0  0  0  0  0  0  0  0  0
   -3.1610   -3.7470   -0.4570 C   0  0  0  0  0  0  0  0  0  0  0  0
   -4.2230   -3.7580   -1.1030 O   0  0  0  0  0  0  0  0  0  0  0  0
   -2.3660   -4.8590   -0.4850 O   0  0  0  0  0  0  0  0  0  0  0  0
   -1.6260   -2.5530    1.0260 N   0  0  0  0  0  0  0  0  0  0  0  0
   -0.8210   -1.4730    1.4020 C   0  0  0  0  0  0  0  0  0  0  0  0
   -0.5550   -1.2460    2.6500 O   0  0  0  0  0  0  0  0  0  0  0  0
   -0.2310   -0.5480    0.5400 O   0  0  0  0  0  0  0  0  0  0  0  0
    0.4990   -0.7800   -0.6100 C   0  0  0  0  0  0  0  0  0  0  0  0
    5.3410   -0.6510   -1.7690 C   0  0  0  0  0  0  0  0  0  0  0  0
    6.4140    0.0510   -1.1560 O   0  0  0  0  0  0  0  0  0  0  0  0
  1  2  2  0
  2  3  1  0
  2 28  1  0
  3  4  1  0
  4  5  2  3
  4 27  1  0
  5  6  1  0
  6  7  2  0
  6 26  1  0
  7  8  1  0
  8  9  1  0
  9 10  1  0
 10 11  1  0
 11 12  1  0
 12 13  1  0
 12 14  1  0
 14 15  1  0
 15 16  1  0
 16 17  2  0
 16 18  1  0
 18 19  1  0
 18 22  1  0
 19 20  2  0
 19 21  1  0
 22 23  1  0
 23 24  2  0
 23 25  1  0
 25 26  1  0
 27 28  1  0
M  END
