
     RDKit          3D

 17 16  0  0  0  0  0  0  0  0999 V2000
   -2.7410    4.2180   -0.6640 C   0  0  0  0  0  0  0  0  0  0  0  0
   -3.4460    3.0250   -0.5470 O   0  0  0  0  0  0  0  0  0  0  0  0
   -2.5480    1.8030    0.2710 P   0  0  0  0  0  0  0  0  0  0  0  0
   -1.2120    1.0620   -0.3730 C   0  0  0  0  0  0  0  0  0  0  0  0
   -0.7400    1.3880   -1.6180 F   0  0  0  0  0  0  0  0  0  0  0  0
   -0.3370   -0.2070    0.5610 P   0  0  0  0  0  0  0  0  0  0  0  0
    1.4310   -0.1160    0.3930 N   0  0  0  0  0  0  0  0  0  0  0  0
    2.0590   -0.4000   -0.7060 C   0  0  0  0  0  0  0  0  0  0  0  0
    1.3750   -0.8110   -1.8750 N   0  0  0  0  0  0  0  0  0  0  0  0
    3.4860   -0.2730   -0.6660 N   0  0  0  0  0  0  0  0  0  0  0  0
    4.1250   -0.4040    0.5070 O   0  0  0  0  0  0  0  0  0  0  0  0
    5.0530    0.9900    0.8890 P   0  0  0  0  0  0  0  0  0  0  0  0
   -0.8970   -1.7890    0.3320 O   0  0  0  0  0  0  0  0  0  0  0  0
   -2.1680   -1.9200    0.1300 O   0  0  0  0  0  0  0  0  0  0  0  0
   -2.4780   -3.2160    0.4670 N   0  0  0  0  0  0  0  0  0  0  0  0
   -2.1040   -3.3760    1.8750 C   0  0  0  0  0  0  0  0  0  0  0  0
   -1.4480   -4.2690   -0.4930 Cl  0  0  0  0  0  0  0  0  0  0  0  0
  1  2  1  0
  2  3  1  0
  3  4  2  3
  4  5  1  0
  4  6  1  0
  6  7  1  0
  6 13  1  0
  7  8  2  3
  8  9  1  0
  8 10  1  0
 10 11  1  0
 11 12  1  0
 13 14  1  0
 14 15  1  0
 15 16  1  0
 15 17  1  0
M  END
