
     RDKit          3D

 17 16  0  0  0  0  0  0  0  0999 V2000
   -2.1220   -1.6830   -0.1760 C   0  0  0  0  0  0  0  0  0  0  0  0
   -2.0400   -0.2800   -0.7010 C   0  0  2  0  0  0  0  0  0  0  0  0
   -0.5800    0.0540   -0.8500 C   0  0  0  0  0  0  0  0  0  0  0  0
    0.0150    1.5000   -0.3180 P   0  0  0  0  0  0  0  0  0  0  0  0
    2.1380    2.0400   -0.5100 P   0  0  0  0  0  0  0  0  0  0  0  0
    2.8660    1.9710    1.0340 O   0  0  0  0  0  0  0  0  0  0  0  0
    3.9090    1.1670    1.1370 N   0  0  0  0  0  0  0  0  0  0  0  0
    3.6370   -0.1570    1.3660 N   0  0  0  0  0  0  0  0  0  0  0  0
    4.9310    1.4180    0.3320 O   0  0  0  0  0  0  0  0  0  0  0  0
    6.0460    1.2740    1.0540 O   0  0  0  0  0  0  0  0  0  0  0  0
   -2.7510    0.7320    0.0800 C   0  0  0  0  0  0  0  0  0  0  0  0
   -2.6180    2.4000   -0.5970 Cl  0  0  0  0  0  0  0  0  0  0  0  0
   -3.4240    0.6510    1.1160 N   0  0  0  0  0  0  0  0  0  0  0  0
   -3.7730   -0.7630    2.0460 P   0  0  0  0  0  0  0  0  0  0  0  0
   -2.5890   -0.2520   -2.0650 N   0  0  0  0  0  0  0  0  0  0  0  0
   -2.5430    0.9810   -2.5890 O   0  0  0  0  0  0  0  0  0  0  0  0
   -2.0310   -1.1750   -2.8470 F   0  0  0  0  0  0  0  0  0  0  0  0
  2  1  1  1
  2  3  1  0
  2 11  1  0
  2 15  1  0
  3  4  2  3
  4  5  1  0
  5  6  1  0
  6  7  1  0
  7  8  1  0
  7  9  1  0
  9 10  1  0
 11 12  1  0
 11 13  2  3
 13 14  1  0
 15 16  1  0
 15 17  1  0
M  END
