
     RDKit          3D

 17 16  0  0  0  0  0  0  0  0999 V2000
   -4.0660   -1.0330    2.6420 N   0  0  0  0  0  0  0  0  0  0  0  0
   -3.9860   -0.3770    1.4400 O   0  0  0  0  0  0  0  0  0  0  0  0
   -2.8030   -0.0230    0.8310 C   0  0  0  0  0  0  0  0  0  0  0  0
   -1.7340    0.3770    1.5970 O   0  0  0  0  0  0  0  0  0  0  0  0
   -2.6990   -0.0690   -0.4710 C   0  0  0  0  0  0  0  0  0  0  0  0
   -3.8120   -0.4860   -1.2700 N   0  0  0  0  0  0  0  0  0  0  0  0
   -5.4980   -0.0080   -0.9280 P   0  0  0  0  0  0  0  0  0  0  0  0
   -1.1190    0.4040   -1.2620 P   0  0  0  0  0  0  0  0  0  0  0  0
    0.3110    0.0800   -0.5920 N   0  0  0  0  0  0  0  0  0  0  0  0
    1.8100    0.5510   -1.3830 P   0  0  0  0  0  0  0  0  0  0  0  0
    1.5450    0.3760   -3.4890 Cl  0  0  0  0  0  0  0  0  0  0  0  0
    3.1210   -0.4460   -0.8260 O   0  0  0  0  0  0  0  0  0  0  0  0
    4.4510   -0.1710   -1.0140 C   0  0  0  0  0  0  0  0  0  0  0  0
    4.9510   -0.0860   -2.2630 F   0  0  0  0  0  0  0  0  0  0  0  0
    5.2560    0.0140    0.0080 C   0  0  0  0  0  0  0  0  0  0  0  0
    6.6190    0.2950   -0.2250 N   0  0  0  0  0  0  0  0  0  0  0  0
    4.8200   -0.0560    1.3300 O   0  0  0  0  0  0  0  0  0  0  0  0
  1  2  1  0
  2  3  1  0
  3  4  1  0
  3  5  2  3
  5  6  1  0
  5  8  1  0
  6  7  1  0
  8  9  2  3
  9 10  1  0
 10 11  1  0
 10 12  1  0
 12 13  1  0
 13 14  1  0
 13 15  2  3
 15 16  1  0
 15 17  1  0
M  END
