
     RDKit          3D

 17 16  0  0  0  0  0  0  0  0999 V2000
    2.6150    0.9850   -0.6660 N   0  0  0  0  0  0  0  0  0  0  0  0
    1.9890    0.0950    0.0130 C   0  0  0  0  0  0  0  0  0  0  0  0
    2.5580   -0.4120    1.1740 O   0  0  0  0  0  0  0  0  0  0  0  0
    3.5710    0.2000    1.8030 O   0  0  0  0  0  0  0  0  0  0  0  0
    0.7080   -0.3640   -0.4390 N   0  0  0  0  0  0  0  0  0  0  0  0
    0.7200   -1.3860   -1.4270 C   0  0  0  0  0  0  0  0  0  0  0  0
    0.5740   -0.9860   -3.0520 P   0  0  0  0  0  0  0  0  0  0  0  0
   -0.5230    0.1810    0.0800 C   0  0  2  0  0  0  0  0  0  0  0  0
   -0.4670    1.5780   -0.1380 O   0  0  0  0  0  0  0  0  0  0  0  0
   -0.3540    1.7270   -1.4480 F   0  0  0  0  0  0  0  0  0  0  0  0
   -0.6210   -0.0280    1.5400 C   0  0  0  0  0  0  0  0  0  0  0  0
    0.3580    0.5230    2.4060 N   0  0  0  0  0  0  0  0  0  0  0  0
   -1.8670   -0.9040    2.1900 P   0  0  0  0  0  0  0  0  0  0  0  0
   -1.9290   -0.4770   -0.8690 P   0  0  0  0  0  0  0  0  0  0  0  0
   -1.8430   -2.5180   -1.2630 Cl  0  0  0  0  0  0  0  0  0  0  0  0
   -3.4570    0.0890   -0.3790 O   0  0  0  0  0  0  0  0  0  0  0  0
   -3.5590    1.4100   -0.6500 N   0  0  0  0  0  0  0  0  0  0  0  0
  1  2  2  0
  2  3  1  0
  2  5  1  0
  3  4  1  0
  5  6  1  0
  5  8  1  0
  6  7  2  0
  8  9  1  1
  8 11  1  0
  8 14  1  0
  9 10  1  0
 11 12  1  0
 11 13  2  0
 14 15  1  0
 14 16  1  0
 16 17  1  0
M  END
