
     RDKit          3D

 28 30  0  0  0  0  0  0  0  0999 V2000
    2.9590    2.5220   -1.3890 O   0  0  0  0  0  0  0  0  0  0  0  0
    3.0650    1.4720   -0.7400 C   0  0  0  0  0  0  0  0  0  0  0  0
    4.0490    0.5800   -1.1480 O   0  0  0  0  0  0  0  0  0  0  0  0
    4.8180    0.8720   -2.1850 O   0  0  0  0  0  0  0  0  0  0  0  0
    2.1870    1.2160    0.3900 N   0  0  0  0  0  0  0  0  0  0  0  0
    1.2330    2.2680    0.6330 C   0  0  0  0  0  0  0  0  0  0  0  0
    0.2920    2.6080   -0.5210 C   0  0  0  0  0  0  0  0  0  0  0  0
   -0.6050    1.5660   -0.8620 N   0  0  0  0  0  0  0  0  0  0  0  0
   -0.4240    0.2880   -1.5360 C   0  0  0  0  0  0  0  0  0  0  0  0
    0.6590   -0.1600   -2.1370 O   0  0  0  0  0  0  0  0  0  0  0  0
   -1.7090   -0.3240   -1.3820 N   0  0  0  0  0  0  0  0  0  0  0  0
   -2.7080    0.7650   -1.5580 C   0  0  0  0  0  0  0  0  0  0  0  0
   -2.0100    1.5760   -0.4220 C   0  0  0  0  0  0  0  0  0  0  0  0
   -2.6010    2.0550    0.5530 N   0  0  0  0  0  0  0  0  0  0  0  0
   -3.9140    2.0000    0.8580 O   0  0  0  0  0  0  0  0  0  0  0  0
   -4.3430    2.5780    1.9930 O   0  0  0  0  0  0  0  0  0  0  0  0
   -2.0480   -1.6720   -0.9810 C   0  0  0  0  0  0  0  0  0  0  0  0
   -3.0270   -2.2880   -1.4950 O   0  0  0  0  0  0  0  0  0  0  0  0
   -1.3000   -2.3590    0.0090 N   0  0  0  0  0  0  0  0  0  0  0  0
   -0.6450   -1.6290    1.0750 C   0  0  0  0  0  0  0  0  0  0  0  0
    0.8500   -1.9870    0.9950 C   0  0  2  0  0  0  0  0  0  0  0  0
    1.0100   -3.3910    1.4090 C   0  0  0  0  0  0  0  0  0  0  0  0
    0.0810   -4.2290    0.7210 O   0  0  0  0  0  0  0  0  0  0  0  0
   -1.0450   -3.7450    0.0220 C   0  0  0  0  0  0  0  0  0  0  0  0
   -1.7970   -4.5460   -0.5760 O   0  0  0  0  0  0  0  0  0  0  0  0
    1.5460   -0.9700    1.5500 O   0  0  0  0  0  0  0  0  0  0  0  0
    2.3740    0.0260    1.1620 C   0  0  0  0  0  0  0  0  0  0  0  0
    3.6040   -0.1060    1.5670 O   0  0  0  0  0  0  0  0  0  0  0  0
  1  2  2  0
  2  3  1  0
  2  5  1  0
  3  4  1  0
  5  6  1  0
  5 27  1  0
  6  7  1  0
  7  8  1  0
  8  9  1  0
  8 13  1  0
  9 10  2  0
  9 11  1  0
 11 12  1  0
 11 17  1  0
 12 13  1  0
 13 14  2  3
 14 15  1  0
 15 16  1  0
 17 18  2  0
 17 19  1  0
 19 20  1  0
 19 24  1  0
 20 21  1  0
 21 22  1  1
 21 26  1  0
 22 23  1  0
 23 24  1  0
 24 25  2  0
 26 27  1  0
 27 28  2  0
M  END
