
     RDKit          3D

 24 25  0  0  0  0  0  0  0  0999 V2000
   -5.3150   -1.5820   -1.0560 O   0  0  0  0  0  0  0  0  0  0  0  0
   -4.4540   -0.1580   -1.0000 P   0  0  0  0  0  0  0  0  0  0  0  0
   -4.9170    1.0550   -2.0620 O   0  0  0  0  0  0  0  0  0  0  0  0
   -5.4530    0.4070    0.0140 O   0  0  0  0  0  0  0  0  0  0  0  0
   -3.0180   -0.0490   -0.0400 C   0  0  1  0  0  0  0  0  0  0  0  0
   -2.1250    1.0540   -0.5450 C   0  0  0  0  0  0  0  0  0  0  0  0
   -1.6660    0.8740   -1.9360 C   0  0  0  0  0  0  0  0  0  0  0  0
   -0.8140   -0.3310   -2.1780 C   0  0  0  0  0  0  0  0  0  0  0  0
    0.4760   -0.3160   -1.4280 C   0  0  0  0  0  0  0  0  0  0  0  0
    1.5960    0.3140   -1.9920 C   0  0  0  0  0  0  0  0  0  0  0  0
    2.8100    0.3480   -1.3470 C   0  0  0  0  0  0  0  0  0  0  0  0
    2.9950   -0.2350   -0.1110 C   0  0  0  0  0  0  0  0  0  0  0  0
    4.2950   -0.1810    0.5460 C   0  0  0  0  0  0  0  0  0  0  0  0
    4.3740   -0.1490    1.9220 C   0  0  0  0  0  0  0  0  0  0  0  0
    5.5830   -0.0970    2.5770 C   0  0  0  0  0  0  0  0  0  0  0  0
    6.7760   -0.0750    1.8780 C   0  0  0  0  0  0  0  0  0  0  0  0
    6.7090   -0.1070    0.5020 C   0  0  0  0  0  0  0  0  0  0  0  0
    5.4900   -0.1590   -0.1420 C   0  0  0  0  0  0  0  0  0  0  0  0
    1.9030   -0.8560    0.4510 C   0  0  0  0  0  0  0  0  0  0  0  0
    0.6610   -0.8930   -0.2030 C   0  0  0  0  0  0  0  0  0  0  0  0
   -3.2320    0.2310    1.6860 S   0  0  1  0  0  0  0  0  0  0  0  0
   -4.0440   -1.2650    2.2180 O   0  0  0  0  0  0  0  0  0  0  0  0
   -1.6420   -0.1250    2.3360 O   0  0  0  0  0  0  0  0  0  0  0  0
   -3.8030    1.3240    2.2440 O   0  0  0  0  0  0  0  0  0  0  0  0
  1  2  1  0
  2  3  1  0
  2  4  1  0
  2  5  1  0
  5  6  1  6
  5 21  1  0
  6  7  1  0
  7  8  1  0
  8  9  1  0
  9 10  2  0
  9 20  1  0
 10 11  1  0
 11 12  2  0
 12 13  1  0
 12 19  1  0
 13 14  2  0
 13 18  1  0
 14 15  1  0
 15 16  2  0
 16 17  1  0
 17 18  2  0
 19 20  2  0
 21 22  1  1
 21 23  1  0
 21 24  1  0
M  END
