
     RDKit          3D

 17 16  0  0  0  0  0  0  0  0999 V2000
   -1.0020   -2.2920   -1.4920 N   0  0  0  0  0  0  0  0  0  0  0  0
   -1.9000   -1.6330   -0.9240 C   0  0  0  0  0  0  0  0  0  0  0  0
   -1.8190   -0.5850    0.0570 C   0  0  0  0  0  0  0  0  0  0  0  0
   -0.7120   -0.1320    0.5350 C   0  0  0  0  0  0  0  0  0  0  0  0
    0.5540   -0.6070    0.1570 N   0  0  0  0  0  0  0  0  0  0  0  0
    1.3580   -0.0090   -0.7610 O   0  0  0  0  0  0  0  0  0  0  0  0
    2.9630   -0.1990   -0.3250 P   0  0  0  0  0  0  0  0  0  0  0  0
    3.5230   -1.7600   -0.0120 O   0  0  0  0  0  0  0  0  0  0  0  0
    3.7780    1.1260    0.4460 N   0  0  0  0  0  0  0  0  0  0  0  0
    4.2240    2.3380   -0.7290 Cl  0  0  0  0  0  0  0  0  0  0  0  0
    4.7790    0.8090    1.2620 O   0  0  0  0  0  0  0  0  0  0  0  0
    6.2530    0.4460    0.4240 P   0  0  0  0  0  0  0  0  0  0  0  0
    6.3620   -1.2040   -0.0100 F   0  0  0  0  0  0  0  0  0  0  0  0
   -3.0920    0.0570    0.5900 C   0  0  0  0  0  0  0  0  0  0  0  0
   -4.0380    0.8310   -0.8230 P   0  0  0  0  0  0  0  0  0  0  0  0
   -3.4870    2.5230   -1.0830 N   0  0  0  0  0  0  0  0  0  0  0  0
   -5.7240    0.8970   -0.4110 O   0  0  0  0  0  0  0  0  0  0  0  0
  1  2  2  0
  2  3  1  0
  3  4  2  3
  3 14  1  0
  4  5  1  0
  5  6  1  0
  6  7  1  0
  7  8  1  0
  7  9  1  0
  9 10  1  0
  9 11  1  0
 11 12  1  0
 12 13  1  0
 14 15  1  0
 15 16  1  0
 15 17  1  0
M  END
