
     RDKit          3D

 17 17  0  0  0  0  0  0  0  0999 V2000
   -4.5810    0.8040   -1.1630 C   0  0  0  0  0  0  0  0  0  0  0  0
   -3.3930    0.4860   -1.7740 O   0  0  0  0  0  0  0  0  0  0  0  0
   -2.9040    1.4770   -2.4660 O   0  0  0  0  0  0  0  0  0  0  0  0
   -1.1980    1.5840   -2.2260 P   0  0  0  0  0  0  0  0  0  0  0  0
   -0.7700    3.4780   -1.3880 Cl  0  0  0  0  0  0  0  0  0  0  0  0
   -0.5640    0.3130   -1.1830 N   0  0  0  0  0  0  0  0  0  0  0  0
   -1.5610   -1.0670   -0.6820 P   0  0  0  0  0  0  0  0  0  0  0  0
   -0.3960   -2.1350    0.0920 O   0  0  0  0  0  0  0  0  0  0  0  0
    0.3980   -1.4930    0.9150 N   0  0  0  0  0  0  0  0  0  0  0  0
    1.1570   -2.4330    1.6230 N   0  0  0  0  0  0  0  0  0  0  0  0
    1.1630   -2.0190    2.9190 O   0  0  0  0  0  0  0  0  0  0  0  0
    2.8090   -2.2120    3.4870 P   0  0  0  0  0  0  0  0  0  0  0  0
    1.0960   -0.3530    0.5380 C   0  0  2  0  0  0  0  0  0  0  0  0
    0.9920    0.6000    1.5630 F   0  0  0  0  0  0  0  0  0  0  0  0
    0.7580    0.3400   -0.7080 C   0  0  0  0  0  0  0  0  0  0  0  0
    1.7110    1.0050   -1.3980 C   0  0  0  0  0  0  0  0  0  0  0  0
    3.0160    0.9810   -0.8480 N   0  0  0  0  0  0  0  0  0  0  0  0
  1  2  1  0
  2  3  1  0
  3  4  1  0
  4  5  1  0
  4  6  1  0
  6  7  1  0
  6 15  1  0
  7  8  1  0
  8  9  1  0
  9 10  1  0
  9 13  1  0
 10 11  1  0
 11 12  1  0
 13 14  1  1
 13 15  1  0
 15 16  2  3
 16 17  1  0
M  END
