
     RDKit          3D

 17 17  0  0  0  0  0  0  0  0999 V2000
    4.9110   -1.5140   -0.3610 C   0  0  0  0  0  0  0  0  0  0  0  0
    3.3780   -0.8240    0.3890 P   0  0  0  0  0  0  0  0  0  0  0  0
    1.8840   -1.2320   -0.6410 C   0  0  0  0  0  0  0  0  0  0  0  0
    0.9630   -0.2010   -0.4420 O   0  0  0  0  0  0  0  0  0  0  0  0
    0.6180   -0.1000    0.8260 O   0  0  0  0  0  0  0  0  0  0  0  0
   -0.6780    0.3840    0.7910 N   0  0  0  0  0  0  0  0  0  0  0  0
   -0.5750    1.6510    0.1400 C   0  0  0  0  0  0  0  0  0  0  0  0
   -2.2140    2.5120    0.0040 P   0  0  0  0  0  0  0  0  0  0  0  0
   -2.4080    4.4810    0.3790 P   0  0  0  0  0  0  0  0  0  0  0  0
   -1.0030    5.4160    0.8450 O   0  0  0  0  0  0  0  0  0  0  0  0
   -1.4140   -0.5830    0.2280 N   0  0  0  0  0  0  0  0  0  0  0  0
   -1.9450   -0.7030   -1.0020 N   0  0  0  0  0  0  0  0  0  0  0  0
   -2.2430    0.2580   -1.8530 F   0  0  0  0  0  0  0  0  0  0  0  0
   -2.7460   -0.8670    0.2270 C   0  0  1  0  0  0  0  0  0  0  0  0
   -3.1100   -2.2490    0.5880 N   0  0  0  0  0  0  0  0  0  0  0  0
   -3.7840    0.0210    0.3270 O   0  0  0  0  0  0  0  0  0  0  0  0
   -5.2470   -0.8410    0.2700 Cl  0  0  0  0  0  0  0  0  0  0  0  0
  1  2  1  0
  2  3  1  0
  3  4  1  0
  4  5  1  0
  5  6  1  0
  6  7  1  0
  6 11  1  0
  7  8  1  0
  8  9  2  3
  9 10  1  0
 11 12  1  0
 11 14  1  0
 12 13  1  0
 12 14  1  0
 14 15  1  1
 14 16  1  0
 16 17  1  0
M  END
