
     RDKit          3D

 29 31  0  0  0  0  0  0  0  0999 V2000
   -6.4280   -1.1320   -1.3000 C   0  0  0  0  0  0  0  0  0  0  0  0
   -5.4540   -0.5700   -0.5700 C   0  0  0  0  0  0  0  0  0  0  0  0
   -5.0700   -1.2690    0.6930 C   0  0  0  0  0  0  0  0  0  0  0  0
   -3.7060   -0.9140    1.0650 N   0  0  0  0  0  0  0  0  0  0  0  0
   -2.8050   -1.0060   -0.0430 C   0  0  0  0  0  0  0  0  0  0  0  0
   -2.3790    0.2840   -0.6550 C   0  0  2  0  0  0  0  0  0  0  0  0
   -1.7850    1.2840    0.2720 C   0  0  0  0  0  0  0  0  0  0  0  0
   -0.6580    0.6870    0.9570 N   0  0  0  0  0  0  0  0  0  0  0  0
   -0.7910    0.0180    2.2230 C   0  0  0  0  0  0  0  0  0  0  0  0
    0.6700    0.7590    0.3810 C   0  0  0  0  0  0  0  0  0  0  0  0
    0.7990    1.3440   -0.6970 O   0  0  0  0  0  0  0  0  0  0  0  0
    1.7810    0.1890    1.0090 N   0  0  0  0  0  0  0  0  0  0  0  0
    3.1030    0.1850    0.5650 N   0  0  0  0  0  0  0  0  0  0  0  0
    4.1040   -0.4120    1.2810 C   0  0  0  0  0  0  0  0  0  0  0  0
    4.1720   -1.0990    2.4790 C   0  0  0  0  0  0  0  0  0  0  0  0
    5.3800   -1.5890    2.9340 C   0  0  0  0  0  0  0  0  0  0  0  0
    6.5390   -1.3950    2.1900 C   0  0  0  0  0  0  0  0  0  0  0  0
    6.5240   -0.7400    1.0310 N   0  0  0  0  0  0  0  0  0  0  0  0
    5.3540   -0.2490    0.5610 C   0  0  0  0  0  0  0  0  0  0  0  0
    5.0480    0.4420   -0.5620 C   0  0  0  0  0  0  0  0  0  0  0  0
    5.9860    0.8620   -1.6330 C   0  0  0  0  0  0  0  0  0  0  0  0
    6.3570   -0.2950   -2.5150 C   0  0  0  0  0  0  0  0  0  0  0  0
    3.6730    0.6870   -0.5230 C   0  0  0  0  0  0  0  0  0  0  0  0
    3.1320    1.3190   -1.4600 O   0  0  0  0  0  0  0  0  0  0  0  0
   -3.5040    0.8160   -1.3810 O   0  0  0  0  0  0  0  0  0  0  0  0
   -4.8830    0.6430   -1.1060 C   0  0  0  0  0  0  0  0  0  0  0  0
   -5.6730    1.6510   -1.3490 C   0  0  0  0  0  0  0  0  0  0  0  0
   -7.1080    1.8460   -1.1740 C   0  0  0  0  0  0  0  0  0  0  0  0
   -7.8330    0.8620   -0.5790 F   0  0  0  0  0  0  0  0  0  0  0  0
  1  2  2  0
  2  3  1  0
  2 26  1  0
  3  4  1  0
  4  5  1  0
  5  6  1  0
  6  7  1  1
  6 25  1  0
  7  8  1  0
  8  9  1  0
  8 10  1  0
 10 11  2  0
 10 12  1  0
 12 13  1  0
 13 14  1  0
 13 23  1  0
 14 15  2  0
 14 19  1  0
 15 16  1  0
 16 17  2  0
 17 18  1  0
 18 19  1  0
 19 20  2  0
 20 21  1  0
 20 23  1  0
 21 22  1  0
 23 24  2  0
 25 26  1  0
 26 27  2  3
 27 28  1  0
 28 29  1  0
M  END
