
     RDKit          3D

 29 31  0  0  0  0  0  0  0  0999 V2000
   -5.6620    1.3530    0.8670 C   0  0  0  0  0  0  0  0  0  0  0  0
   -6.1210    1.6420   -0.4380 N   0  0  0  0  0  0  0  0  0  0  0  0
   -5.4600    1.7140   -1.5340 C   0  0  0  0  0  0  0  0  0  0  0  0
   -6.1200    2.0280   -2.7840 N   0  0  0  0  0  0  0  0  0  0  0  0
   -4.0640    1.4750   -1.5030 N   0  0  0  0  0  0  0  0  0  0  0  0
   -3.4760    0.3090   -0.9590 C   0  0  0  0  0  0  0  0  0  0  0  0
   -4.1290   -0.8460   -0.6290 C   0  0  0  0  0  0  0  0  0  0  0  0
   -3.4660   -1.9310   -0.0880 C   0  0  0  0  0  0  0  0  0  0  0  0
   -2.1290   -1.9110    0.1460 C   0  0  0  0  0  0  0  0  0  0  0  0
   -1.4310   -2.9870    0.6890 O   0  0  0  0  0  0  0  0  0  0  0  0
   -2.0780   -4.1800    1.0360 C   0  0  0  0  0  0  0  0  0  0  0  0
   -1.3970   -0.7370   -0.1780 C   0  0  0  0  0  0  0  0  0  0  0  0
   -0.0910   -0.7560    0.0650 O   0  0  0  0  0  0  0  0  0  0  0  0
    1.0870   -0.1950    0.0600 C   0  0  0  0  0  0  0  0  0  0  0  0
    1.3430    1.0820   -0.3890 C   0  0  0  0  0  0  0  0  0  0  0  0
    2.6160    1.6580   -0.3830 C   0  0  0  0  0  0  0  0  0  0  0  0
    3.6520    0.9010    0.0970 C   0  0  0  0  0  0  0  0  0  0  0  0
    5.0080    1.4460    0.1300 C   0  0  0  0  0  0  0  0  0  0  0  0
    6.0380    0.7110    0.6010 N   0  0  0  0  0  0  0  0  0  0  0  0
    7.2890    1.1590    0.6530 C   0  0  0  0  0  0  0  0  0  0  0  0
    7.5510    2.4360    0.2050 C   0  0  0  0  0  0  0  0  0  0  0  0
    6.4900    3.1790   -0.2750 C   0  0  0  0  0  0  0  0  0  0  0  0
    6.7430    4.4260   -0.7130 F   0  0  0  0  0  0  0  0  0  0  0  0
    5.2450    2.6780   -0.3050 N   0  0  0  0  0  0  0  0  0  0  0  0
    3.4180   -0.3820    0.5530 C   0  0  0  0  0  0  0  0  0  0  0  0
    2.1850   -0.9440    0.5490 C   0  0  0  0  0  0  0  0  0  0  0  0
    1.9680   -2.2440    1.0140 O   0  0  0  0  0  0  0  0  0  0  0  0
    3.0380   -3.0230    1.5100 C   0  0  0  0  0  0  0  0  0  0  0  0
   -2.1160    0.3230   -0.7190 C   0  0  0  0  0  0  0  0  0  0  0  0
  1  2  1  0
  2  3  2  3
  3  4  1  0
  3  5  1  0
  5  6  1  0
  6  7  2  0
  6 29  1  0
  7  8  1  0
  8  9  2  0
  9 10  1  0
  9 12  1  0
 10 11  1  0
 12 13  1  0
 12 29  2  0
 13 14  1  0
 14 15  2  0
 14 26  1  0
 15 16  1  0
 16 17  2  0
 17 18  1  0
 17 25  1  0
 18 19  2  0
 18 24  1  0
 19 20  1  0
 20 21  2  0
 21 22  1  0
 22 23  1  0
 22 24  2  0
 25 26  2  0
 26 27  1  0
 27 28  1  0
M  END
