
     RDKit          3D

 29 31  0  0  0  0  0  0  0  0999 V2000
    8.1680   -1.7460   -0.0990 C   0  0  0  0  0  0  0  0  0  0  0  0
    7.4170   -0.6580    0.1280 C   0  0  0  0  0  0  0  0  0  0  0  0
    6.1980   -0.4390   -0.6310 C   0  0  0  0  0  0  0  0  0  0  0  0
    5.4180    0.6130   -0.4530 C   0  0  0  0  0  0  0  0  0  0  0  0
    4.2230    0.8570   -1.1750 N   0  0  0  0  0  0  0  0  0  0  0  0
    2.9500    0.9730   -0.5090 C   0  0  0  0  0  0  0  0  0  0  0  0
    3.0020    0.8400    0.7390 O   0  0  0  0  0  0  0  0  0  0  0  0
    1.7590    1.2170   -1.2360 N   0  0  0  0  0  0  0  0  0  0  0  0
    0.4780    1.3230   -0.5700 C   0  0  0  0  0  0  0  0  0  0  0  0
    0.1780    0.0170    0.1210 C   0  0  0  0  0  0  0  0  0  0  0  0
    0.1080   -1.1130   -0.8460 C   0  0  0  0  0  0  0  0  0  0  0  0
   -0.9690   -1.0630   -1.8640 C   0  0  0  0  0  0  0  0  0  0  0  0
   -2.2780   -1.1240   -1.2170 N   0  0  0  0  0  0  0  0  0  0  0  0
   -2.9700   -2.3610   -0.9130 C   0  0  0  0  0  0  0  0  0  0  0  0
   -2.6430   -3.4520   -1.4330 O   0  0  0  0  0  0  0  0  0  0  0  0
   -4.0270   -2.0500    0.0440 C   0  0  0  0  0  0  0  0  0  0  0  0
   -4.3000   -0.6090   -0.2220 C   0  0  0  0  0  0  0  0  0  0  0  0
   -5.4410    0.0040    0.0370 C   0  0  0  0  0  0  0  0  0  0  0  0
   -6.6260   -0.5360    0.6040 N   0  0  0  0  0  0  0  0  0  0  0  0
   -7.6220    0.5030    0.7020 C   0  0  0  0  0  0  0  0  0  0  0  0
   -8.7380    0.4720    1.4070 C   0  0  0  0  0  0  0  0  0  0  0  0
   -7.1690    1.6180   -0.1340 C   0  0  2  0  0  0  0  0  0  0  0  0
   -7.6520    1.4460   -1.4360 F   0  0  0  0  0  0  0  0  0  0  0  0
   -5.7390    1.3880   -0.2060 N   0  0  0  0  0  0  0  0  0  0  0  0
   -3.0660   -0.0640   -0.8080 C   0  0  0  0  0  0  0  0  0  0  0  0
   -2.8720    1.1620   -0.8730 O   0  0  0  0  0  0  0  0  0  0  0  0
    5.8630    1.5540    0.5670 C   0  0  0  0  0  0  0  0  0  0  0  0
    6.9340    1.4300    1.2840 C   0  0  0  0  0  0  0  0  0  0  0  0
    7.8500    0.2980    1.1500 C   0  0  0  0  0  0  0  0  0  0  0  0
  1  2  2  0
  2  3  1  0
  2 29  1  0
  3  4  2  0
  4  5  1  0
  4 27  1  0
  5  6  1  0
  6  7  2  0
  6  8  1  0
  8  9  1  0
  9 10  1  0
 10 11  1  0
 11 12  1  0
 12 13  1  0
 13 14  1  0
 13 25  1  0
 14 15  2  0
 14 16  1  0
 16 17  1  0
 17 18  2  3
 17 25  1  0
 18 19  1  0
 18 24  1  0
 19 20  1  0
 20 21  2  0
 20 22  1  0
 22 23  1  6
 22 24  1  0
 25 26  2  0
 27 28  2  0
 28 29  1  0
M  END
