
     RDKit          3D

 29 32  0  0  0  0  0  0  0  0999 V2000
   -1.9480   -4.6650    0.8560 C   0  0  0  0  0  0  0  0  0  0  0  0
   -0.7870   -3.7700    0.9060 C   0  0  0  0  0  0  0  0  0  0  0  0
    0.3230   -4.1670    1.6100 N   0  0  0  0  0  0  0  0  0  0  0  0
    1.4330   -3.4530    1.7310 C   0  0  0  0  0  0  0  0  0  0  0  0
    2.5040   -3.9220    2.4550 F   0  0  0  0  0  0  0  0  0  0  0  0
    1.5020   -2.2310    1.1200 C   0  0  0  0  0  0  0  0  0  0  0  0
    0.4090   -1.7640    0.3870 C   0  0  0  0  0  0  0  0  0  0  0  0
    0.5150   -0.5310   -0.2140 C   0  0  0  0  0  0  0  0  0  0  0  0
    1.7420    0.2060   -0.0610 N   0  0  0  0  0  0  0  0  0  0  0  0
    1.9740    1.0850    1.0030 C   0  0  0  0  0  0  0  0  0  0  0  0
    1.0300    1.2060    1.8500 O   0  0  0  0  0  0  0  0  0  0  0  0
    3.2130    1.8230    1.1450 C   0  0  0  0  0  0  0  0  0  0  0  0
    4.1980    1.7130    0.2840 C   0  0  0  0  0  0  0  0  0  0  0  0
    5.4250    2.4490    0.4320 N   0  0  0  0  0  0  0  0  0  0  0  0
   -0.5620   -0.0880   -0.9270 C   0  0  0  0  0  0  0  0  0  0  0  0
   -0.5020    1.1380   -1.5440 O   0  0  0  0  0  0  0  0  0  0  0  0
   -0.8960    2.3450   -1.0210 C   0  0  0  0  0  0  0  0  0  0  0  0
   -0.7290    3.4660   -1.8090 C   0  0  0  0  0  0  0  0  0  0  0  0
   -1.1190    4.7080   -1.3080 C   0  0  0  0  0  0  0  0  0  0  0  0
   -1.6610    4.8510   -0.0620 C   0  0  0  0  0  0  0  0  0  0  0  0
   -1.8170    3.7520    0.6940 N   0  0  0  0  0  0  0  0  0  0  0  0
   -1.4450    2.5220    0.2320 C   0  0  0  0  0  0  0  0  0  0  0  0
   -1.7140   -0.8560   -1.0380 C   0  0  0  0  0  0  0  0  0  0  0  0
   -2.9140   -0.6250   -1.6960 C   0  0  0  0  0  0  0  0  0  0  0  0
   -3.6950   -1.7210   -1.4690 C   0  0  0  0  0  0  0  0  0  0  0  0
   -4.9730   -1.8560   -1.9690 F   0  0  0  0  0  0  0  0  0  0  0  0
   -3.0310   -2.6170   -0.7020 N   0  0  0  0  0  0  0  0  0  0  0  0
   -1.8250   -2.0950   -0.4380 C   0  0  0  0  0  0  0  0  0  0  0  0
   -0.7450   -2.5580    0.2880 C   0  0  0  0  0  0  0  0  0  0  0  0
  1  2  1  0
  2  3  2  0
  2 29  1  0
  3  4  1  0
  4  5  1  0
  4  6  2  0
  6  7  1  0
  7  8  2  0
  7 29  1  0
  8  9  1  0
  8 15  1  0
  9 10  1  0
 10 11  2  0
 10 12  1  0
 12 13  2  3
 13 14  1  0
 15 16  1  0
 15 23  2  0
 16 17  1  0
 17 18  2  0
 17 22  1  0
 18 19  1  0
 19 20  2  0
 20 21  1  0
 21 22  2  0
 23 24  1  0
 23 28  1  0
 24 25  2  0
 25 26  1  0
 25 27  1  0
 27 28  1  0
 28 29  2  0
M  END
