
     RDKit          3D

 29 31  0  0  0  0  0  0  0  0999 V2000
    7.0580    1.4090   -1.1270 C   0  0  0  0  0  0  0  0  0  0  0  0
    6.0820    1.4740   -0.0450 N   0  0  0  0  0  0  0  0  0  0  0  0
    6.0430    0.3190    0.8420 C   0  0  0  0  0  0  0  0  0  0  0  0
    7.1410    0.0910    1.5570 C   0  0  0  0  0  0  0  0  0  0  0  0
    7.3350   -0.9750    2.4880 C   0  0  0  0  0  0  0  0  0  0  0  0
    8.4730   -1.0630    3.1130 O   0  0  0  0  0  0  0  0  0  0  0  0
    6.4780   -1.9470    2.8300 F   0  0  0  0  0  0  0  0  0  0  0  0
    4.8520   -0.4680    0.8900 C   0  0  0  0  0  0  0  0  0  0  0  0
    3.7640   -0.2990    0.2220 C   0  0  0  0  0  0  0  0  0  0  0  0
    3.5110    0.7600   -0.7550 C   0  0  0  0  0  0  0  0  0  0  0  0
    2.2670    0.3490   -1.5630 C   0  0  0  0  0  0  0  0  0  0  0  0
    1.1210    0.2880   -0.5550 C   0  0  1  0  0  0  0  0  0  0  0  0
   -0.1520    0.1340   -1.3240 C   0  0  0  0  0  0  0  0  0  0  0  0
   -1.3410    0.0640   -0.4430 C   0  0  0  0  0  0  0  0  0  0  0  0
   -1.3390    0.1250    0.8930 N   0  0  0  0  0  0  0  0  0  0  0  0
   -2.5570    0.0330    1.3630 N   0  0  0  0  0  0  0  0  0  0  0  0
   -3.4080   -0.0950    0.2870 C   0  0  0  0  0  0  0  0  0  0  0  0
   -4.8530   -0.2240    0.4080 C   0  0  0  0  0  0  0  0  0  0  0  0
   -5.7330   -0.3560   -0.6160 C   0  0  0  0  0  0  0  0  0  0  0  0
   -7.1120   -0.4730   -0.4070 C   0  0  0  0  0  0  0  0  0  0  0  0
   -7.6500   -0.4600    0.8610 C   0  0  0  0  0  0  0  0  0  0  0  0
   -9.0520   -0.5790    1.0870 N   0  0  0  0  0  0  0  0  0  0  0  0
   -6.7590   -0.3260    1.9100 C   0  0  0  0  0  0  0  0  0  0  0  0
   -7.2680   -0.3100    3.2040 O   0  0  0  0  0  0  0  0  0  0  0  0
   -5.4030   -0.2110    1.6920 C   0  0  0  0  0  0  0  0  0  0  0  0
   -2.6330   -0.0730   -0.8100 N   0  0  0  0  0  0  0  0  0  0  0  0
   -3.0390   -0.1730   -2.1820 C   0  0  0  0  0  0  0  0  0  0  0  0
    1.3460   -0.8450    0.4240 C   0  0  0  0  0  0  0  0  0  0  0  0
    2.7170   -1.2220    0.4540 O   0  0  0  0  0  0  0  0  0  0  0  0
  1  2  1  0
  2  3  1  0
  3  4  2  3
  3  8  1  0
  4  5  1  0
  5  6  2  0
  5  7  1  0
  8  9  2  3
  9 10  1  0
  9 29  1  0
 10 11  1  0
 11 12  1  0
 12 13  1  6
 12 28  1  0
 13 14  1  0
 14 15  2  0
 14 26  1  0
 15 16  1  0
 16 17  2  0
 17 18  1  0
 17 26  1  0
 18 19  2  0
 18 25  1  0
 19 20  1  0
 20 21  2  0
 21 22  1  0
 21 23  1  0
 23 24  1  0
 23 25  2  0
 26 27  1  0
 28 29  1  0
M  END
