
     RDKit          3D

 29 31  0  0  0  0  0  0  0  0999 V2000
    3.4130   -3.8920    2.1600 C   0  0  0  0  0  0  0  0  0  0  0  0
    2.6000   -2.8080    1.5810 C   0  0  0  0  0  0  0  0  0  0  0  0
    3.1120   -1.8160    0.8880 C   0  0  0  0  0  0  0  0  0  0  0  0
    4.5300   -1.8340    0.7140 N   0  0  0  0  0  0  0  0  0  0  0  0
    4.9990   -2.0880   -0.4750 C   0  0  0  0  0  0  0  0  0  0  0  0
    4.1720   -2.3300   -1.5150 F   0  0  0  0  0  0  0  0  0  0  0  0
    2.2820   -0.7600    0.3290 C   0  0  0  0  0  0  0  0  0  0  0  0
    2.9010    0.1360   -0.3180 O   0  0  0  0  0  0  0  0  0  0  0  0
    0.8790   -0.6830    0.4630 N   0  0  0  0  0  0  0  0  0  0  0  0
    0.1210    0.3970   -0.1210 C   0  0  2  0  0  0  0  0  0  0  0  0
   -1.2940    0.2650    0.1250 N   0  0  0  0  0  0  0  0  0  0  0  0
   -2.1020   -0.8150   -0.2470 C   0  0  0  0  0  0  0  0  0  0  0  0
   -1.5620   -1.9020   -0.8940 C   0  0  0  0  0  0  0  0  0  0  0  0
   -2.4140   -2.9340   -1.2290 C   0  0  0  0  0  0  0  0  0  0  0  0
   -3.7680   -2.8910   -0.9300 C   0  0  0  0  0  0  0  0  0  0  0  0
   -4.3200   -1.8000   -0.2780 C   0  0  0  0  0  0  0  0  0  0  0  0
   -5.5900   -1.4700    0.1460 C   0  0  0  0  0  0  0  0  0  0  0  0
   -5.5180   -0.2250    0.7460 C   0  0  0  0  0  0  0  0  0  0  0  0
   -4.2390    0.1530    0.6700 N   0  0  0  0  0  0  0  0  0  0  0  0
   -3.4700   -0.7700    0.0560 C   0  0  0  0  0  0  0  0  0  0  0  0
    0.3450    0.3810   -1.6130 C   0  0  0  0  0  0  0  0  0  0  0  0
    0.8290    1.7170   -1.9750 C   0  0  0  0  0  0  0  0  0  0  0  0
    1.2680    2.0120   -3.1260 O   0  0  0  0  0  0  0  0  0  0  0  0
    0.7110    2.5580   -0.8420 N   0  0  0  0  0  0  0  0  0  0  0  0
    0.6780    4.0070   -0.8610 C   0  0  1  0  0  0  0  0  0  0  0  0
   -0.5980    4.5530   -0.2640 C   0  0  0  0  0  0  0  0  0  0  0  0
    1.8910    4.5640   -0.1080 C   0  0  0  0  0  0  0  0  0  0  0  0
    0.6330    1.7260    0.3090 C   0  0  0  0  0  0  0  0  0  0  0  0
    0.9410    2.0590    1.4750 O   0  0  0  0  0  0  0  0  0  0  0  0
  1  2  1  0
  2  3  2  3
  3  4  1  0
  3  7  1  0
  4  5  2  3
  5  6  1  0
  7  8  2  0
  7  9  1  0
 10  9  1  1
 10 11  1  0
 10 21  1  0
 10 28  1  0
 11 12  1  0
 12 13  2  0
 12 20  1  0
 13 14  1  0
 14 15  2  0
 15 16  1  0
 16 17  1  0
 16 20  2  0
 17 18  2  0
 18 19  1  0
 19 20  1  0
 21 22  1  0
 22 23  2  0
 22 24  1  0
 24 25  1  0
 24 28  1  0
 25 26  1  1
 25 27  1  0
 28 29  2  0
M  END
