
     RDKit          3D

 29 31  0  0  0  0  0  0  0  0999 V2000
   -5.8930    0.0820    4.1790 N   0  0  0  0  0  0  0  0  0  0  0  0
   -6.2720    0.1140    2.7930 C   0  0  0  0  0  0  0  0  0  0  0  0
   -7.2910    0.7980    2.4580 N   0  0  0  0  0  0  0  0  0  0  0  0
   -5.4880   -0.6310    1.8270 C   0  0  0  0  0  0  0  0  0  0  0  0
   -5.7910   -0.6520    0.4880 C   0  0  0  0  0  0  0  0  0  0  0  0
   -5.0150   -1.3820   -0.4240 C   0  0  0  0  0  0  0  0  0  0  0  0
   -3.9220   -2.1030   -0.0100 C   0  0  0  0  0  0  0  0  0  0  0  0
   -3.1450   -2.8570   -1.0130 C   0  0  0  0  0  0  0  0  0  0  0  0
   -2.3180   -1.9330   -1.7420 N   0  0  0  0  0  0  0  0  0  0  0  0
   -1.0860   -1.3740   -1.1950 C   0  0  0  0  0  0  0  0  0  0  0  0
   -0.8470   -1.7930   -0.0420 O   0  0  0  0  0  0  0  0  0  0  0  0
   -0.3300   -0.4500   -2.0120 C   0  0  2  0  0  0  0  0  0  0  0  0
    0.2610   -1.2330   -3.2160 C   0  0  0  0  0  0  0  0  0  0  0  0
    0.9710   -0.1010   -3.9020 C   0  0  0  0  0  0  0  0  0  0  0  0
    1.3700    0.8490   -2.7520 C   0  0  0  0  0  0  0  0  0  0  0  0
    0.8370    0.1870   -1.5310 N   0  0  0  0  0  0  0  0  0  0  0  0
    1.4770    0.3130   -0.2940 C   0  0  0  0  0  0  0  0  0  0  0  0
    0.9540   -0.3580    0.6730 O   0  0  0  0  0  0  0  0  0  0  0  0
    2.6620    1.0910    0.0930 C   0  0  2  0  0  0  0  0  0  0  0  0
    3.0320    2.2050   -0.6850 N   0  0  0  0  0  0  0  0  0  0  0  0
    3.8250    0.1260    0.3390 C   0  0  0  0  0  0  0  0  0  0  0  0
    5.0660    0.7960    0.7310 C   0  0  0  0  0  0  0  0  0  0  0  0
    5.2880    1.0520    2.0610 C   0  0  0  0  0  0  0  0  0  0  0  0
    6.4490    1.6790    2.5130 C   0  0  0  0  0  0  0  0  0  0  0  0
    7.3710    2.0340    1.5560 C   0  0  0  0  0  0  0  0  0  0  0  0
    7.1590    1.7820    0.2190 C   0  0  0  0  0  0  0  0  0  0  0  0
    6.0050    1.1620   -0.1920 C   0  0  0  0  0  0  0  0  0  0  0  0
   -3.6110   -2.0870    1.3270 C   0  0  0  0  0  0  0  0  0  0  0  0
   -4.3730   -1.3690    2.2350 C   0  0  0  0  0  0  0  0  0  0  0  0
  1  2  1  0
  2  3  2  0
  2  4  1  0
  4  5  2  0
  4 29  1  0
  5  6  1  0
  6  7  2  0
  7  8  1  0
  7 28  1  0
  8  9  1  0
  9 10  1  0
 10 11  2  0
 12 10  1  1
 12 13  1  0
 12 16  1  0
 13 14  1  0
 14 15  1  0
 15 16  1  0
 16 17  1  0
 17 18  2  0
 17 19  1  0
 19 20  1  6
 19 21  1  0
 21 22  1  0
 22 23  2  0
 22 27  1  0
 23 24  1  0
 24 25  2  0
 25 26  1  0
 26 27  2  0
 28 29  2  0
M  CHG  2   3   1  20   1
M  END
