
     RDKit          3D

 29 31  0  0  0  0  0  0  0  0999 V2000
   -7.8810    2.1380   -2.9790 C   0  0  0  0  0  0  0  0  0  0  0  0
   -6.8410    1.4770   -2.1530 C   0  0  0  0  0  0  0  0  0  0  0  0
   -5.6150    2.0530   -1.9190 C   0  0  0  0  0  0  0  0  0  0  0  0
   -4.6360    1.4260   -1.1380 C   0  0  0  0  0  0  0  0  0  0  0  0
   -4.8510    0.2030   -0.5650 C   0  0  0  0  0  0  0  0  0  0  0  0
   -3.9010   -0.4970    0.2180 N   0  0  0  0  0  0  0  0  0  0  0  0
   -2.6110   -0.0690    0.5820 C   0  0  0  0  0  0  0  0  0  0  0  0
   -2.2040    1.0440    0.2110 O   0  0  0  0  0  0  0  0  0  0  0  0
   -1.7440   -0.9150    1.3850 N   0  0  0  0  0  0  0  0  0  0  0  0
   -0.4370   -0.3660    1.6830 C   0  0  1  0  0  0  0  0  0  0  0  0
   -0.4230   -0.0720    3.1920 C   0  0  0  0  0  0  0  0  0  0  0  0
    0.6610   -1.3320    1.3730 C   0  0  0  0  0  0  0  0  0  0  0  0
    0.4670   -2.5660    1.3890 O   0  0  0  0  0  0  0  0  0  0  0  0
    1.9240   -0.8260    1.0570 N   0  0  0  0  0  0  0  0  0  0  0  0
    3.0940   -1.5790    0.7510 C   0  0  0  0  0  0  0  0  0  0  0  0
    3.1800   -2.9440    0.7920 C   0  0  0  0  0  0  0  0  0  0  0  0
    4.3590   -3.5800    0.4510 C   0  0  0  0  0  0  0  0  0  0  0  0
    5.4660   -2.8920    0.0660 C   0  0  0  0  0  0  0  0  0  0  0  0
    5.3440   -1.5000    0.0340 C   0  0  0  0  0  0  0  0  0  0  0  0
    6.4850   -0.8330   -0.3620 O   0  0  0  0  0  0  0  0  0  0  0  0
    6.5230    0.5410   -0.4550 C   0  0  0  0  0  0  0  0  0  0  0  0
    6.7990    1.1670   -1.6020 C   0  0  0  0  0  0  0  0  0  0  0  0
    6.7530    2.6120   -1.3280 C   0  0  0  0  0  0  0  0  0  0  0  0
    6.4290    2.6960    0.0580 N   0  0  0  0  0  0  0  0  0  0  0  0
    6.2900    1.5330    0.5890 C   0  0  0  0  0  0  0  0  0  0  0  0
    4.2070   -0.8950    0.3640 N   0  0  0  0  0  0  0  0  0  0  0  0
   -6.1050   -0.3830   -0.8060 C   0  0  0  0  0  0  0  0  0  0  0  0
   -6.3780   -1.6130   -0.2540 F   0  0  0  0  0  0  0  0  0  0  0  0
   -7.0500    0.2440   -1.5720 C   0  0  0  0  0  0  0  0  0  0  0  0
  1  2  1  0
  2  3  2  0
  2 29  1  0
  3  4  1  0
  4  5  2  0
  5  6  1  0
  5 27  1  0
  6  7  1  0
  7  8  2  0
  7  9  1  0
  9 10  1  0
 10 11  1  1
 10 12  1  0
 12 13  2  0
 12 14  1  0
 14 15  1  0
 15 16  2  0
 15 26  1  0
 16 17  1  0
 17 18  2  0
 18 19  1  0
 19 20  1  0
 19 26  2  0
 20 21  1  0
 21 22  2  0
 21 25  1  0
 22 23  1  0
 23 24  1  0
 24 25  2  0
 27 28  1  0
 27 29  2  0
M  END
