
     RDKit          3D

 11 11  0  0  0  0  0  0  0  0999 V2000
    4.5880    0.4930   -0.1270 C   0  0  0  0  0  0  0  0  0  0  0  0
    3.4620   -0.4280   -0.4780 C   0  0  0  0  0  0  0  0  0  0  0  0
    2.2150    0.2840   -0.6770 N   0  0  0  0  0  0  0  0  0  0  0  0
    1.0680   -0.5970   -0.5700 C   0  0  0  0  0  0  0  0  0  0  0  0
    0.1510   -0.0370    0.4890 C   0  0  0  0  0  0  0  0  0  0  0  0
   -1.0820   -0.8890    0.6770 C   0  0  2  0  0  0  0  0  0  0  0  0
   -1.8960   -1.0010   -0.5880 C   0  0  0  0  0  0  0  0  0  0  0  0
   -2.4890    0.3300   -0.9920 C   0  0  0  0  0  0  0  0  0  0  0  0
   -3.4440    0.7400    0.1120 C   0  0  0  0  0  0  0  0  0  0  0  0
   -2.5750    1.0210    1.3390 C   0  0  0  0  0  0  0  0  0  0  0  0
   -1.9310   -0.2810    1.7610 C   0  0  0  0  0  0  0  0  0  0  0  0
  1  2  1  0
  2  3  1  0
  3  4  1  0
  4  5  1  0
  6  5  1  6
  6  7  1  0
  6 11  1  0
  7  8  1  0
  8  9  1  0
  9 10  1  0
 10 11  1  0
M  CHG  1   3   1
M  END
