
     RDKit          3D

 11 11  0  0  0  0  0  0  0  0999 V2000
   -3.4310    1.7220   -0.8300 C   0  0  0  0  0  0  0  0  0  0  0  0
   -2.3040    0.8250   -0.4350 C   0  0  1  0  0  0  0  0  0  0  0  0
   -2.6680   -0.6520   -0.6050 C   0  0  0  0  0  0  0  0  0  0  0  0
   -1.6920   -1.4010    0.2980 C   0  0  0  0  0  0  0  0  0  0  0  0
   -0.4190   -0.6500    0.4940 C   0  0  0  0  0  0  0  0  0  0  0  0
    0.0260    0.1190   -0.7250 C   0  0  2  0  0  0  0  0  0  0  0  0
    1.1780    0.9980   -0.3030 C   0  0  0  0  0  0  0  0  0  0  0  0
    2.3490    0.2450    0.2350 C   0  0  0  0  0  0  0  0  0  0  0  0
    2.9140   -0.7090   -0.7760 C   0  0  0  0  0  0  0  0  0  0  0  0
    4.0570   -1.3940   -0.1480 N   0  0  0  0  0  0  0  0  0  0  0  0
   -1.0570    1.0430   -1.2410 C   0  0  0  0  0  0  0  0  0  0  0  0
  2  1  1  6
  2  3  1  0
  2 11  1  0
  3  4  1  0
  4  5  1  0
  5  6  1  0
  6  7  1  1
  6 11  1  0
  7  8  1  0
  8  9  1  0
  9 10  1  0
M  CHG  1  10   1
M  END
