
     RDKit          3D

 11 11  0  0  0  0  0  0  0  0999 V2000
    4.2050    1.6730   -0.2080 C   0  0  0  0  0  0  0  0  0  0  0  0
    2.9280    1.0990    0.3650 C   0  0  0  0  0  0  0  0  0  0  0  0
    2.5400   -0.1820   -0.3490 C   0  0  0  0  0  0  0  0  0  0  0  0
    1.2660   -0.7660    0.2160 C   0  0  2  0  0  0  0  0  0  0  0  0
    0.9870   -1.9770   -0.5300 N   0  0  0  0  0  0  0  0  0  0  0  0
    0.0810    0.1570    0.0840 C   0  0  0  0  0  0  0  0  0  0  0  0
   -1.1090   -0.5540    0.6850 C   0  0  0  0  0  0  0  0  0  0  0  0
   -2.3720    0.2660    0.6180 C   0  0  1  0  0  0  0  0  0  0  0  0
   -2.8350    0.6580   -0.7510 C   0  0  0  0  0  0  0  0  0  0  0  0
   -4.2580    0.3020   -0.3020 C   0  0  0  0  0  0  0  0  0  0  0  0
   -3.5970   -0.6560    0.6950 C   0  0  0  0  0  0  0  0  0  0  0  0
  1  2  1  0
  2  3  1  0
  3  4  1  0
  4  5  1  6
  4  6  1  0
  6  7  1  0
  8  7  1  6
  8  9  1  0
  8 11  1  0
  9 10  1  0
 10 11  1  0
M  CHG  1   5   1
M  END
