
     RDKit          3D

 11 11  0  0  0  0  0  0  0  0999 V2000
    2.5090    1.0890   -0.2960 C   0  0  0  0  0  0  0  0  0  0  0  0
    2.2430   -0.1750    0.4610 C   0  0  2  0  0  0  0  0  0  0  0  0
    3.4100   -1.1340    0.1530 C   0  0  0  0  0  0  0  0  0  0  0  0
    0.9980   -0.8430    0.0470 C   0  0  0  0  0  0  0  0  0  0  0  0
   -0.3020   -0.1570    0.1910 C   0  0  1  0  0  0  0  0  0  0  0  0
   -0.6180    0.2410    1.5430 N   0  0  0  0  0  0  0  0  0  0  0  0
   -0.5100    0.9240   -0.7850 C   0  0  0  0  0  0  0  0  0  0  0  0
   -1.9240    1.3450   -1.0430 C   0  0  0  0  0  0  0  0  0  0  0  0
   -2.9950    0.6500   -0.3090 C   0  0  0  0  0  0  0  0  0  0  0  0
   -2.7380   -0.7790    0.0390 C   0  0  0  0  0  0  0  0  0  0  0  0
   -1.3470   -1.2430   -0.2080 C   0  0  0  0  0  0  0  0  0  0  0  0
  2  1  1  6
  2  3  1  0
  2  4  1  0
  4  5  1  0
  5  6  1  1
  5  7  1  0
  5 11  1  0
  7  8  1  0
  8  9  1  0
  9 10  1  0
 10 11  1  0
M  CHG  1   6   1
M  END
