
     RDKit          3D

 28 30  0  0  0  0  0  0  0  0999 V2000
    8.0860   -1.0950    2.0780 N   0  0  0  0  0  0  0  0  0  0  0  0
    7.0500   -1.7580    1.3240 C   0  0  0  0  0  0  0  0  0  0  0  0
    6.9190   -3.0190    1.4870 N   0  0  0  0  0  0  0  0  0  0  0  0
    6.2190   -0.9720    0.4300 C   0  0  0  0  0  0  0  0  0  0  0  0
    6.4610    0.4030    0.3380 C   0  0  0  0  0  0  0  0  0  0  0  0
    5.6810    1.1380   -0.5000 C   0  0  0  0  0  0  0  0  0  0  0  0
    4.6800    0.5890   -1.2460 C   0  0  0  0  0  0  0  0  0  0  0  0
    3.8760    1.4690   -2.1350 C   0  0  0  0  0  0  0  0  0  0  0  0
    2.8060    2.1410   -1.4240 N   0  0  0  0  0  0  0  0  0  0  0  0
    1.5990    1.5310   -1.0110 C   0  0  0  0  0  0  0  0  0  0  0  0
    1.4470    0.3160   -1.2810 O   0  0  0  0  0  0  0  0  0  0  0  0
    0.5480    2.3050   -0.2830 C   0  0  2  0  0  0  0  0  0  0  0  0
    0.9910    2.8060    1.0570 C   0  0  0  0  0  0  0  0  0  0  0  0
    0.8270    1.5880    1.9330 C   0  0  0  0  0  0  0  0  0  0  0  0
   -0.0040    0.6090    1.1670 C   0  0  0  0  0  0  0  0  0  0  0  0
   -0.5000    1.3800    0.0580 N   0  0  0  0  0  0  0  0  0  0  0  0
   -1.7810    1.1950   -0.5240 C   0  0  0  0  0  0  0  0  0  0  0  0
   -2.0890    1.9450   -1.5030 O   0  0  0  0  0  0  0  0  0  0  0  0
   -2.7510    0.1930   -0.0540 C   0  0  0  0  0  0  0  0  0  0  0  0
   -3.9950    0.1520   -0.8980 C   0  0  0  0  0  0  0  0  0  0  0  0
   -4.9910   -0.8630   -0.4260 C   0  0  2  0  0  0  0  0  0  0  0  0
   -6.1820   -0.7790   -1.3860 C   0  0  0  0  0  0  0  0  0  0  0  0
   -7.1460   -1.9010   -1.1210 C   0  0  0  0  0  0  0  0  0  0  0  0
   -7.4600   -1.9270    0.3450 C   0  0  0  0  0  0  0  0  0  0  0  0
   -6.9130   -0.7200    1.0700 C   0  0  0  0  0  0  0  0  0  0  0  0
   -5.3920   -0.7060    0.9980 C   0  0  0  0  0  0  0  0  0  0  0  0
    4.4500   -0.7630   -1.1480 C   0  0  0  0  0  0  0  0  0  0  0  0
    5.2200   -1.5670   -0.3050 C   0  0  0  0  0  0  0  0  0  0  0  0
  1  2  1  0
  2  3  2  0
  2  4  1  0
  4  5  2  0
  4 28  1  0
  5  6  1  0
  6  7  2  0
  7  8  1  0
  7 27  1  0
  8  9  1  0
  9 10  1  0
 10 11  2  0
 12 10  1  1
 12 13  1  0
 12 16  1  0
 13 14  1  0
 14 15  1  0
 15 16  1  0
 16 17  1  0
 17 18  2  0
 17 19  1  0
 19 20  1  0
 21 20  1  6
 21 22  1  0
 21 26  1  0
 22 23  1  0
 23 24  1  0
 24 25  1  0
 25 26  1  0
 27 28  2  0
M  CHG  1   3   1
M  END
