
     RDKit          3D

 11 11  0  0  0  0  0  0  0  0999 V2000
   -3.0480    1.4340    0.0900 C   0  0  0  0  0  0  0  0  0  0  0  0
   -2.1700    0.6340    1.0020 C   0  0  0  0  0  0  0  0  0  0  0  0
   -0.9670    0.0750    0.2190 C   0  0  0  0  0  0  0  0  0  0  0  0
    0.1840    0.4210    0.6030 C   0  0  0  0  0  0  0  0  0  0  0  0
    1.5350    0.1370    0.1700 C   0  0  0  0  0  0  0  0  0  0  0  0
    2.6110    0.6740    0.7910 C   0  0  0  0  0  0  0  0  0  0  0  0
    3.8580    0.2220    0.1510 C   0  0  0  0  0  0  0  0  0  0  0  0
    3.3550   -0.6460   -0.9130 C   0  0  0  0  0  0  0  0  0  0  0  0
    2.0340   -0.6920   -0.9010 C   0  0  0  0  0  0  0  0  0  0  0  0
   -1.3650   -0.7800   -0.8870 C   0  0  0  0  0  0  0  0  0  0  0  0
   -2.0970   -1.9220   -0.3320 N   0  0  0  0  0  0  0  0  0  0  0  0
  1  2  1  0
  2  3  1  0
  3  4  2  3
  3 10  1  0
  4  5  1  0
  5  6  2  0
  5  9  1  0
  6  7  1  0
  7  8  1  0
  8  9  2  0
 10 11  1  0
M  END
