
     RDKit          3D

 11 11  0  0  0  0  0  0  0  0999 V2000
   -2.0720   -2.0390    0.7450 C   0  0  0  0  0  0  0  0  0  0  0  0
   -1.4620   -0.7690    0.2080 C   0  0  0  0  0  0  0  0  0  0  0  0
   -0.3050   -0.4680    0.7650 C   0  0  0  0  0  0  0  0  0  0  0  0
    0.5730    0.6720    0.5060 C   0  0  0  0  0  0  0  0  0  0  0  0
    1.9720    0.6180    0.8570 C   0  0  0  0  0  0  0  0  0  0  0  0
    2.8050   -0.4340    0.2240 C   0  0  0  0  0  0  0  0  0  0  0  0
    2.8430   -0.3470   -1.2240 N   0  0  0  0  0  0  0  0  0  0  0  0
    0.1520    1.7980   -0.0480 C   0  0  0  0  0  0  0  0  0  0  0  0
   -1.1970    2.1790   -0.5160 C   0  0  0  0  0  0  0  0  0  0  0  0
   -2.1890    1.3740   -0.8400 C   0  0  0  0  0  0  0  0  0  0  0  0
   -2.2240   -0.0870   -0.8270 C   0  0  0  0  0  0  0  0  0  0  0  0
  1  2  1  0
  2  3  2  0
  2 11  1  0
  3  4  1  0
  4  5  1  0
  4  8  2  0
  5  6  1  0
  6  7  1  0
  8  9  1  0
  9 10  2  0
 10 11  1  0
M  END
