
     RDKit          3D

 11 11  0  0  0  0  0  0  0  0999 V2000
   -2.0980    1.5490   -0.8410 C   0  0  0  0  0  0  0  0  0  0  0  0
   -1.5850    1.0910    0.4760 C   0  0  0  0  0  0  0  0  0  0  0  0
   -0.6940   -0.0950    0.4790 C   0  0  1  0  0  0  0  0  0  0  0  0
   -1.4480   -1.2690   -0.1100 C   0  0  0  0  0  0  0  0  0  0  0  0
   -2.6930   -1.5630    0.7170 C   0  0  0  0  0  0  0  0  0  0  0  0
    0.6520    0.0700   -0.1180 C   0  0  2  0  0  0  0  0  0  0  0  0
    0.6540    0.4420   -1.5180 N   0  0  0  0  0  0  0  0  0  0  0  0
    1.4800   -1.1840    0.0390 C   0  0  0  0  0  0  0  0  0  0  0  0
    2.8350   -0.7990    0.5550 C   0  0  0  0  0  0  0  0  0  0  0  0
    2.9300    0.6590    0.2420 C   0  0  0  0  0  0  0  0  0  0  0  0
    1.4990    1.1310    0.5560 C   0  0  0  0  0  0  0  0  0  0  0  0
  1  2  1  0
  3  2  1  6
  3  4  1  0
  3  6  1  0
  4  5  1  0
  6  7  1  6
  6  8  1  0
  6 11  1  0
  8  9  1  0
  9 10  1  0
 10 11  1  0
M  CHG  1   7   1
M  END
