
     RDKit          3D

 27 31  0  0  0  0  0  0  0  0999 V2000
    6.4220    1.2540   -0.7930 C   0  0  0  0  0  0  0  0  0  0  0  0
    6.3110   -0.0400   -0.2030 N   0  0  0  0  0  0  0  0  0  0  0  0
    7.3790   -0.8050    0.1100 N   0  0  0  0  0  0  0  0  0  0  0  0
    6.9180   -1.9320    0.6350 C   0  0  0  0  0  0  0  0  0  0  0  0
    5.5990   -1.8550    0.6420 N   0  0  0  0  0  0  0  0  0  0  0  0
    5.1840   -0.6630    0.1150 C   0  0  0  0  0  0  0  0  0  0  0  0
    3.7810   -0.3120    0.0000 C   0  0  0  0  0  0  0  0  0  0  0  0
    3.2950    0.8590   -0.5150 C   0  0  0  0  0  0  0  0  0  0  0  0
    1.9200    1.1320   -0.5950 C   0  0  0  0  0  0  0  0  0  0  0  0
    0.9980    0.2260   -0.1550 C   0  0  0  0  0  0  0  0  0  0  0  0
   -0.4370    0.4620   -0.2170 C   0  0  0  0  0  0  0  0  0  0  0  0
   -0.9440    1.6180   -0.7240 C   0  0  0  0  0  0  0  0  0  0  0  0
   -2.3270    1.8110   -0.7680 C   0  0  0  0  0  0  0  0  0  0  0  0
   -3.1800    0.8480   -0.3050 C   0  0  0  0  0  0  0  0  0  0  0  0
   -2.6990   -0.3290    0.2130 C   0  0  0  0  0  0  0  0  0  0  0  0
   -1.3360   -0.5060    0.2500 C   0  0  0  0  0  0  0  0  0  0  0  0
   -3.7830   -1.0780    0.5870 C   0  0  0  0  0  0  0  0  0  0  0  0
   -3.9250   -2.3110    1.1500 C   0  0  0  0  0  0  0  0  0  0  0  0
   -5.2000   -2.7910    1.4080 C   0  0  0  0  0  0  0  0  0  0  0  0
   -6.2970   -2.0660    1.1140 N   0  0  0  0  0  0  0  0  0  0  0  0
   -6.1900   -0.8320    0.5510 C   0  0  0  0  0  0  0  0  0  0  0  0
   -7.2930   -0.1010    0.2550 F   0  0  0  0  0  0  0  0  0  0  0  0
   -4.9250   -0.3270    0.2830 C   0  0  0  0  0  0  0  0  0  0  0  0
   -4.5360    0.8430   -0.2600 N   0  0  0  0  0  0  0  0  0  0  0  0
   -5.4480    1.8900   -0.7050 C   0  0  0  0  0  0  0  0  0  0  0  0
    1.4860   -0.9380    0.3570 N   0  0  0  0  0  0  0  0  0  0  0  0
    2.7940   -1.2010    0.4340 C   0  0  0  0  0  0  0  0  0  0  0  0
  1  2  1  0
  2  3  1  0
  2  6  1  0
  3  4  2  0
  4  5  1  0
  5  6  2  0
  6  7  1  0
  7  8  2  0
  7 27  1  0
  8  9  1  0
  9 10  2  0
 10 11  1  0
 10 26  1  0
 11 12  2  0
 11 16  1  0
 12 13  1  0
 13 14  2  0
 14 15  1  0
 14 24  1  0
 15 16  2  0
 15 17  1  0
 17 18  2  0
 17 23  1  0
 18 19  1  0
 19 20  2  0
 20 21  1  0
 21 22  1  0
 21 23  2  0
 23 24  1  0
 24 25  1  0
 26 27  2  0
M  END
