
     RDKit          3D

 27 31  0  0  0  0  0  0  0  0999 V2000
   -2.4790   -2.7100    2.0990 C   0  0  0  0  0  0  0  0  0  0  0  0
   -2.6390   -1.4040    1.5070 C   0  0  0  0  0  0  0  0  0  0  0  0
   -1.6750   -0.7640    0.6580 C   0  0  0  0  0  0  0  0  0  0  0  0
   -0.4510   -1.3980    0.2660 C   0  0  0  0  0  0  0  0  0  0  0  0
    0.7460   -0.9430    0.0880 C   0  0  0  0  0  0  0  0  0  0  0  0
    1.8360   -1.8780   -0.3410 C   0  0  0  0  0  0  0  0  0  0  0  0
    1.6700   -3.1980   -0.5650 N   0  0  0  0  0  0  0  0  0  0  0  0
    2.8400   -3.7490   -0.9370 C   0  0  0  0  0  0  0  0  0  0  0  0
    3.7550   -2.7170   -0.9380 C   0  0  0  0  0  0  0  0  0  0  0  0
    3.1190   -1.5790   -0.5700 N   0  0  0  0  0  0  0  0  0  0  0  0
    3.6790   -0.2750   -0.4380 C   0  0  0  0  0  0  0  0  0  0  0  0
    3.3010    0.8060   -1.1660 C   0  0  0  0  0  0  0  0  0  0  0  0
    3.9060    2.0350   -0.9640 C   0  0  0  0  0  0  0  0  0  0  0  0
    4.9010    2.1400   -0.0070 C   0  0  0  0  0  0  0  0  0  0  0  0
    5.2640    1.0200    0.7190 C   0  0  0  0  0  0  0  0  0  0  0  0
    4.6580   -0.1390    0.4930 N   0  0  0  0  0  0  0  0  0  0  0  0
   -2.1620    0.4190    0.2950 N   0  0  0  0  0  0  0  0  0  0  0  0
   -3.3470    0.4890    0.8970 C   0  0  0  0  0  0  0  0  0  0  0  0
   -4.2830    1.4580    0.8820 C   0  0  0  0  0  0  0  0  0  0  0  0
   -5.3010    0.9540    1.6880 C   0  0  0  0  0  0  0  0  0  0  0  0
   -4.8970   -0.2860    2.1270 N   0  0  0  0  0  0  0  0  0  0  0  0
   -3.6740   -0.5610    1.6220 N   0  0  0  0  0  0  0  0  0  0  0  0
   -3.9870    2.6570    0.0660 C   0  0  0  0  0  0  0  0  0  0  0  0
   -2.6700    2.5450   -0.6160 C   0  0  0  0  0  0  0  0  0  0  0  0
   -1.8190    1.5360   -0.5270 C   0  0  0  0  0  0  0  0  0  0  0  0
   -0.6100    1.4910   -1.3520 C   0  0  0  0  0  0  0  0  0  0  0  0
   -0.6570    0.3320   -2.1440 F   0  0  0  0  0  0  0  0  0  0  0  0
  1  2  1  0
  2  3  2  0
  2 22  1  0
  3  4  1  0
  3 17  1  0
  4  5  2  3
  5  6  1  0
  6  7  2  0
  6 10  1  0
  7  8  1  0
  8  9  2  0
  9 10  1  0
 10 11  1  0
 11 12  2  0
 11 16  1  0
 12 13  1  0
 13 14  2  0
 14 15  1  0
 15 16  2  0
 17 18  1  0
 17 25  1  0
 18 19  2  0
 18 22  1  0
 19 20  1  0
 19 23  1  0
 20 21  2  0
 21 22  1  0
 23 24  1  0
 24 25  2  0
 25 26  1  0
 26 27  1  0
M  END
