
     RDKit          3D

 27 31  0  0  0  0  0  0  0  0999 V2000
   -5.8750   -2.4410   -1.0470 C   0  0  0  0  0  0  0  0  0  0  0  0
   -5.6610   -0.9770   -0.9750 C   0  0  0  0  0  0  0  0  0  0  0  0
   -4.5280   -0.4990   -0.4980 C   0  0  0  0  0  0  0  0  0  0  0  0
   -3.4530   -1.1520   -0.0320 N   0  0  0  0  0  0  0  0  0  0  0  0
   -2.5000   -0.3140    0.3630 C   0  0  0  0  0  0  0  0  0  0  0  0
   -1.1950   -0.6650    0.9240 C   0  0  0  0  0  0  0  0  0  0  0  0
   -0.7170   -1.9330    1.1440 C   0  0  0  0  0  0  0  0  0  0  0  0
    0.5490   -1.8110    1.6810 C   0  0  0  0  0  0  0  0  0  0  0  0
    0.8570   -0.5050    1.7960 N   0  0  0  0  0  0  0  0  0  0  0  0
    2.1050    0.0140    2.3210 C   0  0  0  0  0  0  0  0  0  0  0  0
    3.1210    0.1920    1.2310 C   0  0  0  0  0  0  0  0  0  0  0  0
    3.3010    1.3070    0.4910 N   0  0  0  0  0  0  0  0  0  0  0  0
    4.2950    1.1180   -0.3940 C   0  0  0  0  0  0  0  0  0  0  0  0
    4.9060    1.8700   -1.3760 C   0  0  0  0  0  0  0  0  0  0  0  0
    5.9410    1.4130   -2.1650 C   0  0  0  0  0  0  0  0  0  0  0  0
    6.3660    0.1490   -1.9460 N   0  0  0  0  0  0  0  0  0  0  0  0
    5.8040   -0.6240   -1.0030 C   0  0  0  0  0  0  0  0  0  0  0  0
    4.7690   -0.1790   -0.2080 C   0  0  0  0  0  0  0  0  0  0  0  0
    4.0270   -0.6890    0.7820 N   0  0  0  0  0  0  0  0  0  0  0  0
    4.1750   -2.0280    1.3110 C   0  0  0  0  0  0  0  0  0  0  0  0
   -0.2000    0.1910    1.3370 C   0  0  0  0  0  0  0  0  0  0  0  0
   -2.9760    0.9230    0.1440 N   0  0  0  0  0  0  0  0  0  0  0  0
   -4.2030    0.8580   -0.3770 C   0  0  0  0  0  0  0  0  0  0  0  0
   -4.7100    2.0500   -0.6090 C   0  0  0  0  0  0  0  0  0  0  0  0
   -5.9490    2.3210   -1.1400 F   0  0  0  0  0  0  0  0  0  0  0  0
   -3.7360    3.0680   -0.2070 C   0  0  0  0  0  0  0  0  0  0  0  0
   -2.5640    2.3020    0.3020 C   0  0  0  0  0  0  0  0  0  0  0  0
  1  2  1  0
  2  3  2  3
  3  4  1  0
  3 23  1  0
  4  5  2  0
  5  6  1  0
  5 22  1  0
  6  7  1  0
  6 21  2  0
  7  8  2  0
  8  9  1  0
  9 10  1  0
  9 21  1  0
 10 11  1  0
 11 12  2  0
 11 19  1  0
 12 13  1  0
 13 14  2  0
 13 18  1  0
 14 15  1  0
 15 16  2  0
 16 17  1  0
 17 18  2  0
 18 19  1  0
 19 20  1  0
 22 23  1  0
 22 27  1  0
 23 24  2  0
 24 25  1  0
 24 26  1  0
 26 27  1  0
M  END
