
     RDKit          3D

 26 30  0  0  0  0  0  0  0  0999 V2000
    6.5790   -2.4190   -0.1800 C   0  0  0  0  0  0  0  0  0  0  0  0
    5.4490   -3.0830    0.2350 C   0  0  0  0  0  0  0  0  0  0  0  0
    4.2890   -2.4010    0.4690 C   0  0  0  0  0  0  0  0  0  0  0  0
    4.2430   -1.0450    0.2920 C   0  0  0  0  0  0  0  0  0  0  0  0
    3.0550   -0.2940    0.5240 N   0  0  0  0  0  0  0  0  0  0  0  0
    1.8010   -0.5360    0.0520 C   0  0  0  0  0  0  0  0  0  0  0  0
    0.9630    0.4480    0.5320 C   0  0  0  0  0  0  0  0  0  0  0  0
   -0.4680    0.5870    0.2810 C   0  0  0  0  0  0  0  0  0  0  0  0
   -1.4250   -0.3600    0.3140 N   0  0  0  0  0  0  0  0  0  0  0  0
   -2.6090    0.1570    0.0290 N   0  0  0  0  0  0  0  0  0  0  0  0
   -3.8320   -0.5860   -0.0190 C   0  0  0  0  0  0  0  0  0  0  0  0
   -3.9000   -1.8160    0.5440 N   0  0  0  0  0  0  0  0  0  0  0  0
   -5.0490   -2.5140    0.4990 C   0  0  0  0  0  0  0  0  0  0  0  0
   -6.1910   -2.0300   -0.1070 C   0  0  0  0  0  0  0  0  0  0  0  0
   -6.0970   -0.7690   -0.6760 C   0  0  0  0  0  0  0  0  0  0  0  0
   -4.9250   -0.1100   -0.6050 N   0  0  0  0  0  0  0  0  0  0  0  0
   -2.4930    1.4760   -0.2070 C   0  0  0  0  0  0  0  0  0  0  0  0
   -3.4200    2.4680   -0.5440 C   0  0  0  0  0  0  0  0  0  0  0  0
   -2.9660    3.7620   -0.7220 C   0  0  0  0  0  0  0  0  0  0  0  0
   -1.6230    4.0310   -0.5640 C   0  0  0  0  0  0  0  0  0  0  0  0
   -0.7070    3.0570   -0.2330 C   0  0  0  0  0  0  0  0  0  0  0  0
   -1.1520    1.7600   -0.0520 C   0  0  0  0  0  0  0  0  0  0  0  0
    1.7420    1.2880    1.3030 C   0  0  0  0  0  0  0  0  0  0  0  0
    2.9960    0.8040    1.2710 N   0  0  0  0  0  0  0  0  0  0  0  0
    5.3730   -0.3870   -0.1220 C   0  0  0  0  0  0  0  0  0  0  0  0
    6.5590   -1.0420   -0.3670 C   0  0  0  0  0  0  0  0  0  0  0  0
  1  2  2  0
  1 26  1  0
  2  3  1  0
  3  4  2  0
  4  5  1  0
  4 25  1  0
  5  6  1  0
  5 24  1  0
  6  7  2  0
  7  8  1  0
  7 23  1  0
  8  9  2  0
  8 22  1  0
  9 10  1  0
 10 11  1  0
 10 17  1  0
 11 12  2  0
 11 16  1  0
 12 13  1  0
 13 14  2  0
 14 15  1  0
 15 16  2  0
 17 18  2  0
 17 22  1  0
 18 19  1  0
 19 20  2  0
 20 21  1  0
 21 22  2  0
 23 24  2  0
 25 26  2  0
M  END
