
     RDKit          3D

 27 31  0  0  0  0  0  0  0  0999 V2000
    5.5010    0.0530   -2.0210 C   0  0  0  0  0  0  0  0  0  0  0  0
    4.6530   -1.2160   -1.9500 C   0  0  0  0  0  0  0  0  0  0  0  0
    4.3310   -1.5590   -0.5440 C   0  0  0  0  0  0  0  0  0  0  0  0
    4.9980   -2.3200    0.3080 N   0  0  0  0  0  0  0  0  0  0  0  0
    4.3460   -2.3540    1.4640 N   0  0  0  0  0  0  0  0  0  0  0  0
    3.2330   -1.6020    1.3640 C   0  0  0  0  0  0  0  0  0  0  0  0
    2.2170   -1.2940    2.2440 C   0  0  0  0  0  0  0  0  0  0  0  0
    1.1590   -0.4780    1.8910 C   0  0  0  0  0  0  0  0  0  0  0  0
    0.1400   -0.1540    2.7340 C   0  0  0  0  0  0  0  0  0  0  0  0
   -0.8780    0.6780    2.2750 C   0  0  0  0  0  0  0  0  0  0  0  0
   -0.8730    1.1760    0.9910 C   0  0  0  0  0  0  0  0  0  0  0  0
   -1.9170    2.0670    0.5060 N   0  0  0  0  0  0  0  0  0  0  0  0
   -1.8520    3.4080    0.6710 C   0  0  0  0  0  0  0  0  0  0  0  0
   -2.9610    3.9820    0.1210 C   0  0  0  0  0  0  0  0  0  0  0  0
   -3.6690    2.9620   -0.3650 N   0  0  0  0  0  0  0  0  0  0  0  0
   -3.0250    1.7730   -0.1280 C   0  0  0  0  0  0  0  0  0  0  0  0
   -3.5580    0.4780   -0.5450 C   0  0  0  0  0  0  0  0  0  0  0  0
   -4.7640    0.4500   -1.2070 C   0  0  0  0  0  0  0  0  0  0  0  0
   -5.3670   -0.7000   -1.6480 C   0  0  0  0  0  0  0  0  0  0  0  0
   -4.7390   -1.8890   -1.4200 C   0  0  0  0  0  0  0  0  0  0  0  0
   -5.3420   -3.0330   -1.8610 F   0  0  0  0  0  0  0  0  0  0  0  0
   -3.5390   -1.8990   -0.7650 C   0  0  0  0  0  0  0  0  0  0  0  0
   -2.9390   -0.7060   -0.3220 C   0  0  0  0  0  0  0  0  0  0  0  0
    0.1470    0.8360    0.1890 N   0  0  0  0  0  0  0  0  0  0  0  0
    1.1610    0.0210    0.6100 C   0  0  0  0  0  0  0  0  0  0  0  0
    2.2000   -0.3150   -0.2340 C   0  0  0  0  0  0  0  0  0  0  0  0
    3.2340   -1.1120    0.1100 N   0  0  0  0  0  0  0  0  0  0  0  0
  1  2  1  0
  2  3  1  0
  3  4  2  0
  3 27  1  0
  4  5  1  0
  5  6  2  0
  6  7  1  0
  6 27  1  0
  7  8  2  0
  8  9  1  0
  8 25  1  0
  9 10  2  0
 10 11  1  0
 11 12  1  0
 11 24  2  0
 12 13  1  0
 12 16  1  0
 13 14  2  0
 14 15  1  0
 15 16  2  0
 16 17  1  0
 17 18  2  0
 17 23  1  0
 18 19  1  0
 19 20  2  0
 20 21  1  0
 20 22  1  0
 22 23  2  0
 24 25  1  0
 25 26  2  0
 26 27  1  0
M  END
