
     RDKit          3D

 27 29  0  0  0  0  0  0  0  0999 V2000
    6.8780   -1.7560    0.7380 N   0  0  0  0  0  0  0  0  0  0  0  0
    7.0330   -0.3980    0.2750 C   0  0  0  0  0  0  0  0  0  0  0  0
    8.1740   -0.0190   -0.1380 N   0  0  0  0  0  0  0  0  0  0  0  0
    5.8950    0.5070    0.2850 C   0  0  0  0  0  0  0  0  0  0  0  0
    4.6570    0.0500    0.7610 C   0  0  0  0  0  0  0  0  0  0  0  0
    3.5720    0.8620    0.7830 C   0  0  0  0  0  0  0  0  0  0  0  0
    3.6260    2.1680    0.3450 C   0  0  0  0  0  0  0  0  0  0  0  0
    2.4110    3.0460    0.3840 C   0  0  0  0  0  0  0  0  0  0  0  0
    1.2830    2.3270    0.9300 N   0  0  0  0  0  0  0  0  0  0  0  0
    0.5550    1.3530    0.1180 C   0  0  0  0  0  0  0  0  0  0  0  0
    1.0000    1.2360   -1.0290 O   0  0  0  0  0  0  0  0  0  0  0  0
   -0.5500    0.6960    0.7780 C   0  0  2  0  0  0  0  0  0  0  0  0
   -0.0790   -0.1810    1.9450 C   0  0  0  0  0  0  0  0  0  0  0  0
   -1.3430   -0.9320    2.2790 C   0  0  0  0  0  0  0  0  0  0  0  0
   -2.3120   -0.6740    1.1410 C   0  0  0  0  0  0  0  0  0  0  0  0
   -1.3860   -0.2100    0.0780 N   0  0  0  0  0  0  0  0  0  0  0  0
   -1.5090   -0.6760   -1.2360 C   0  0  0  0  0  0  0  0  0  0  0  0
   -0.5900   -0.3000   -2.0920 O   0  0  0  0  0  0  0  0  0  0  0  0
   -2.5070   -1.5380   -1.8510 C   0  0  0  0  0  0  0  0  0  0  0  0
   -3.7070   -1.6960   -1.2800 O   0  0  0  0  0  0  0  0  0  0  0  0
   -4.5730   -0.6490   -1.2030 C   0  0  2  0  0  0  0  0  0  0  0  0
   -5.4360   -0.4680   -0.0380 C   0  0  0  0  0  0  0  0  0  0  0  0
   -6.8400   -0.9770   -0.3580 C   0  0  0  0  0  0  0  0  0  0  0  0
   -6.7190   -1.5570   -1.7230 C   0  0  0  0  0  0  0  0  0  0  0  0
   -5.6130   -0.7800   -2.3790 C   0  0  0  0  0  0  0  0  0  0  0  0
    4.8320    2.6250   -0.1230 C   0  0  0  0  0  0  0  0  0  0  0  0
    5.9580    1.8020   -0.1530 C   0  0  0  0  0  0  0  0  0  0  0  0
  1  2  1  0
  2  3  2  0
  2  4  1  0
  4  5  2  0
  4 27  1  0
  5  6  1  0
  6  7  2  0
  7  8  1  0
  7 26  1  0
  8  9  1  0
  9 10  1  0
 10 11  2  0
 12 10  1  6
 12 13  1  0
 12 16  1  0
 13 14  1  0
 14 15  1  0
 15 16  1  0
 16 17  1  0
 17 18  2  0
 17 19  1  0
 19 20  1  0
 21 20  1  1
 21 22  1  0
 21 25  1  0
 22 23  1  0
 23 24  1  0
 24 25  1  0
 26 27  2  0
M  CHG  1   3   1
M  END
