
     RDKit          3D

 26 30  0  0  0  0  0  0  0  0999 V2000
   -3.2330   -3.9330   -0.9370 C   0  0  0  0  0  0  0  0  0  0  0  0
   -2.6860   -2.5470   -0.8790 C   0  0  0  0  0  0  0  0  0  0  0  0
   -3.0240   -1.6150    0.0770 C   0  0  0  0  0  0  0  0  0  0  0  0
   -2.3090   -0.4530   -0.2050 C   0  0  0  0  0  0  0  0  0  0  0  0
   -2.3990    0.7270    0.6480 C   0  0  0  0  0  0  0  0  0  0  0  0
   -3.0980    0.6330    1.8610 C   0  0  0  0  0  0  0  0  0  0  0  0
   -3.2220    1.7150    2.6830 C   0  0  0  0  0  0  0  0  0  0  0  0
   -2.6670    2.9260    2.3500 C   0  0  0  0  0  0  0  0  0  0  0  0
   -2.0010    3.0340    1.2020 N   0  0  0  0  0  0  0  0  0  0  0  0
   -1.8780    1.9470    0.3770 C   0  0  0  0  0  0  0  0  0  0  0  0
   -1.5780   -0.6760   -1.2770 N   0  0  0  0  0  0  0  0  0  0  0  0
   -0.6450    0.1480   -1.9930 C   0  0  0  0  0  0  0  0  0  0  0  0
    0.7430    0.0020   -1.4510 C   0  0  0  0  0  0  0  0  0  0  0  0
    1.3870    0.9320   -0.6820 C   0  0  0  0  0  0  0  0  0  0  0  0
    2.6930    0.7240   -0.2130 C   0  0  0  0  0  0  0  0  0  0  0  0
    3.3200   -0.4540   -0.5500 C   0  0  0  0  0  0  0  0  0  0  0  0
    2.6800   -1.3970   -1.3240 C   0  0  0  0  0  0  0  0  0  0  0  0
    1.3960   -1.1930   -1.7840 C   0  0  0  0  0  0  0  0  0  0  0  0
    0.7450   -2.1030   -2.5460 F   0  0  0  0  0  0  0  0  0  0  0  0
    4.6710   -0.4520    0.0470 C   0  0  0  0  0  0  0  0  0  0  0  0
    4.7340    0.8440    0.7650 C   0  0  0  0  0  0  0  0  0  0  0  0
    5.5410    1.5990    1.5290 N   0  0  0  0  0  0  0  0  0  0  0  0
    4.9070    2.7390    1.8460 N   0  0  0  0  0  0  0  0  0  0  0  0
    3.7010    2.6640    1.2620 C   0  0  0  0  0  0  0  0  0  0  0  0
    3.5580    1.5110    0.5880 N   0  0  0  0  0  0  0  0  0  0  0  0
   -1.8110   -1.9580   -1.6880 N   0  0  0  0  0  0  0  0  0  0  0  0
  1  2  1  0
  2  3  1  0
  2 26  2  0
  3  4  2  0
  4  5  1  0
  4 11  1  0
  5  6  2  0
  5 10  1  0
  6  7  1  0
  7  8  2  0
  8  9  1  0
  9 10  2  0
 11 12  1  0
 11 26  1  0
 12 13  1  0
 13 14  2  0
 13 18  1  0
 14 15  1  0
 15 16  2  0
 15 25  1  0
 16 17  1  0
 16 20  1  0
 17 18  2  0
 18 19  1  0
 20 21  1  0
 21 22  2  0
 21 25  1  0
 22 23  1  0
 23 24  2  0
 24 25  1  0
M  END
