
     RDKit          3D

 23 25  0  0  0  0  0  0  0  0999 V2000
   -3.7580   -0.6550   -1.3420 C   0  0  0  0  0  0  0  0  0  0  0  0
   -2.4580   -0.1180   -0.7870 C   0  0  1  0  0  0  0  0  0  0  0  0
   -2.6630    0.9130    0.2880 C   0  0  2  0  0  0  0  0  0  0  0  0
   -4.0390    0.9250    0.5990 O   0  0  0  0  0  0  0  0  0  0  0  0
   -2.2770    2.3110   -0.1590 C   0  0  1  0  0  0  0  0  0  0  0  0
   -3.4340    3.1120   -0.3080 O   0  0  0  0  0  0  0  0  0  0  0  0
   -1.4340    3.0100    0.8420 C   0  0  0  0  0  0  0  0  0  0  0  0
   -0.1620    3.2750    0.7470 C   0  0  0  0  0  0  0  0  0  0  0  0
    0.7410    2.9400   -0.3840 C   0  0  0  0  0  0  0  0  0  0  0  0
    1.9110    2.1650    0.2130 C   0  0  0  0  0  0  0  0  0  0  0  0
    2.2180    0.9120   -0.5600 C   0  0  1  0  0  0  0  0  0  0  0  0
    3.6000    1.0670   -1.1600 C   0  0  0  0  0  0  0  0  0  0  0  0
    4.5890    0.9630   -0.0440 C   0  0  0  0  0  0  0  0  0  0  0  0
    4.4930   -0.1550    0.7060 C   0  0  0  0  0  0  0  0  0  0  0  0
    3.3970   -1.0970    0.2750 C   0  0  0  0  0  0  0  0  0  0  0  0
    2.0950   -0.3360    0.2850 C   0  0  2  0  0  0  0  0  0  0  0  0
    0.9660   -1.2160   -0.1300 C   0  0  1  0  0  0  0  0  0  0  0  0
    1.1680   -2.5990    0.4100 C   0  0  0  0  0  0  0  0  0  0  0  0
    0.0090   -3.5210    0.1150 C   0  0  0  0  0  0  0  0  0  0  0  0
   -1.1970   -3.2690    0.9500 C   0  0  0  0  0  0  0  0  0  0  0  0
   -2.2160   -2.4010    0.2390 C   0  0  0  0  0  0  0  0  0  0  0  0
   -1.5190   -1.2210   -0.3980 C   0  0  2  0  0  0  0  0  0  0  0  0
   -0.3780   -0.7230    0.4230 C   0  0  0  0  0  0  0  0  0  0  0  0
  2  1  1  1
  2  3  1  0
  2 22  1  0
  3  4  1  6
  3  5  1  0
  5  6  1  1
  5  7  1  0
  7  8  2  0
  8  9  1  0
  9 10  1  0
 11 10  1  1
 11 12  1  0
 11 16  1  0
 12 13  1  0
 13 14  2  0
 14 15  1  0
 16 15  1  6
 16 17  1  0
 17 18  1  1
 17 23  1  0
 18 19  1  0
 19 20  1  0
 20 21  1  0
 22 21  1  1
 22 23  1  0
M  END
