
     RDKit          3D

 23 26  0  0  0  0  0  0  0  0999 V2000
    3.1070    0.7130    2.6910 C   0  0  0  0  0  0  0  0  0  0  0  0
    3.4830   -0.2380    1.5840 C   0  0  1  0  0  0  0  0  0  0  0  0
    2.5250   -1.3710    1.4190 C   0  0  0  0  0  0  0  0  0  0  0  0
    2.2930   -1.5640   -0.0740 C   0  0  1  0  0  0  0  0  0  0  0  0
    1.0080   -0.9470   -0.4920 C   0  0  0  0  0  0  0  0  0  0  0  0
    1.0230    0.5510   -0.5990 C   0  0  1  0  0  0  0  0  0  0  0  0
   -0.2960    1.0490   -0.0590 C   0  0  2  0  0  0  0  0  0  0  0  0
   -0.4690    0.6730    1.2830 O   0  0  0  0  0  0  0  0  0  0  0  0
   -1.4980    0.5390   -0.7970 C   0  0  2  0  0  0  0  0  0  0  0  0
   -1.4870    0.9480   -2.2370 C   0  0  0  0  0  0  0  0  0  0  0  0
   -2.5490    2.0280   -2.2840 C   0  0  0  0  0  0  0  0  0  0  0  0
   -3.4270    1.7820   -1.2640 O   0  0  0  0  0  0  0  0  0  0  0  0
   -2.7870    1.0860   -0.2500 C   0  0  1  0  0  0  0  0  0  0  0  0
   -3.7340   -0.0120    0.1830 C   0  0  2  0  0  0  0  0  0  0  0  0
   -4.1330   -0.9700   -0.9090 C   0  0  0  0  0  0  0  0  0  0  0  0
   -4.9910    0.5320    0.8740 C   0  0  0  0  0  0  0  0  0  0  0  0
   -4.9360   -0.7050    1.7430 C   0  0  0  0  0  0  0  0  0  0  0  0
   -3.4260   -0.7190    1.4570 C   0  0  0  0  0  0  0  0  0  0  0  0
    2.1390    1.2000    0.1620 C   0  0  0  0  0  0  0  0  0  0  0  0
    3.4090    0.4480    0.2100 C   0  0  2  0  0  0  0  0  0  0  0  0
    3.4450   -0.7850   -0.6570 C   0  0  1  0  0  0  0  0  0  0  0  0
    4.7110   -1.5420   -0.3150 C   0  0  0  0  0  0  0  0  0  0  0  0
    3.3810   -0.5410   -2.1000 C   0  0  0  0  0  0  0  0  0  0  0  0
  2  1  1  1
  2  3  1  0
  2 20  1  0
  4  3  1  1
  4  5  1  0
  4 21  1  0
  6  5  1  1
  6  7  1  0
  6 19  1  0
  7  8  1  1
  7  9  1  0
  9 10  1  6
  9 13  1  0
 10 11  1  0
 11 12  1  0
 13 12  1  6
 13 14  1  0
 14 15  1  6
 14 16  1  0
 14 18  1  0
 16 17  1  0
 17 18  1  0
 20 19  1  1
 20 21  1  0
 21 22  1  6
 21 23  1  0
M  END
