
     RDKit          3D

 23 25  0  0  0  0  0  0  0  0999 V2000
    3.3760   -0.0510    2.7530 C   0  0  0  0  0  0  0  0  0  0  0  0
    3.7230   -0.5370    1.3610 C   0  0  0  0  0  0  0  0  0  0  0  0
    3.2360    0.4640    0.3390 C   0  0  2  0  0  0  0  0  0  0  0  0
    1.7270    0.6630    0.4100 C   0  0  0  0  0  0  0  0  0  0  0  0
    1.1320    0.0310   -0.7750 C   0  0  2  0  0  0  0  0  0  0  0  0
   -0.3530    0.1000   -0.9680 C   0  0  2  0  0  0  0  0  0  0  0  0
   -0.7800    1.5440   -1.0410 C   0  0  0  0  0  0  0  0  0  0  0  0
   -1.7190    2.0200   -0.0070 C   0  0  2  0  0  0  0  0  0  0  0  0
   -2.4800    3.2350   -0.5710 C   0  0  0  0  0  0  0  0  0  0  0  0
   -1.0240    2.5830    1.2400 C   0  0  0  0  0  0  0  0  0  0  0  0
   -2.7570    1.0310    0.4060 C   0  0  0  0  0  0  0  0  0  0  0  0
   -2.6470   -0.2980   -0.3090 C   0  0  2  0  0  0  0  0  0  0  0  0
   -3.1330   -0.2300   -1.7350 C   0  0  0  0  0  0  0  0  0  0  0  0
   -3.5960   -1.2390    0.4250 C   0  0  0  0  0  0  0  0  0  0  0  0
   -2.9840   -2.5850    0.6030 C   0  0  0  0  0  0  0  0  0  0  0  0
   -1.7930   -2.4580    1.4810 C   0  0  0  0  0  0  0  0  0  0  0  0
   -0.9380   -1.2220    1.1500 C   0  0  0  0  0  0  0  0  0  0  0  0
   -1.2080   -0.8410   -0.2540 C   0  0  2  0  0  0  0  0  0  0  0  0
    1.6920   -1.3340   -1.1400 C   0  0  0  0  0  0  0  0  0  0  0  0
    3.1390   -1.1780   -1.5560 C   0  0  1  0  0  0  0  0  0  0  0  0
    3.2440   -1.1960   -2.9470 O   0  0  0  0  0  0  0  0  0  0  0  0
    3.7020    0.1010   -1.0470 C   0  0  2  0  0  0  0  0  0  0  0  0
    5.0990   -0.0630   -0.9540 O   0  0  0  0  0  0  0  0  0  0  0  0
  1  2  1  0
  3  2  1  1
  3  4  1  0
  3 22  1  0
  5  4  1  1
  5  6  1  0
  5 19  1  0
  6  7  1  1
  6 18  1  0
  7  8  1  0
  8  9  1  6
  8 10  1  0
  8 11  1  0
 11 12  1  0
 12 13  1  6
 12 14  1  0
 12 18  1  0
 14 15  1  0
 15 16  1  0
 16 17  1  0
 18 17  1  1
 19 20  1  0
 20 21  1  6
 20 22  1  0
 22 23  1  1
M  END
