
     RDKit          3D

 23 26  0  0  0  0  0  0  0  0999 V2000
   -5.3430    2.5150    0.2340 C   0  0  0  0  0  0  0  0  0  0  0  0
   -4.0470    1.8080    0.5930 C   0  0  0  0  0  0  0  0  0  0  0  0
   -3.4160    1.1930   -0.6360 C   0  0  2  0  0  0  0  0  0  0  0  0
   -4.2530    0.1880   -1.3230 C   0  0  0  0  0  0  0  0  0  0  0  0
   -4.2250   -1.1840   -0.8010 C   0  0  0  0  0  0  0  0  0  0  0  0
   -2.9560   -1.6310   -0.1560 C   0  0  2  0  0  0  0  0  0  0  0  0
   -3.2730   -2.5560    0.8640 O   0  0  0  0  0  0  0  0  0  0  0  0
   -2.1620   -0.5370    0.4840 C   0  0  1  0  0  0  0  0  0  0  0  0
   -0.8290   -1.1260    0.8960 C   0  0  2  0  0  0  0  0  0  0  0  0
    0.0500   -0.1030    1.5520 C   0  0  0  0  0  0  0  0  0  0  0  0
    1.1680    0.3840    0.6510 C   0  0  0  0  0  0  0  0  0  0  0  0
    1.8580   -0.7620   -0.0370 C   0  0  1  0  0  0  0  0  0  0  0  0
    3.2920   -0.7920    0.3750 C   0  0  1  0  0  0  0  0  0  0  0  0
    4.0580   -1.9290   -0.2720 C   0  0  0  0  0  0  0  0  0  0  0  0
    5.4930   -1.4090   -0.1180 C   0  0  0  0  0  0  0  0  0  0  0  0
    5.3240    0.0450   -0.4740 C   0  0  0  0  0  0  0  0  0  0  0  0
    5.9620    1.0920   -0.9590 C   0  0  0  0  0  0  0  0  0  0  0  0
    5.0480    2.2590   -1.0090 C   0  0  0  0  0  0  0  0  0  0  0  0
    3.7910    1.7250   -0.4800 C   0  0  0  0  0  0  0  0  0  0  0  0
    3.9510    0.4480   -0.1710 C   0  0  0  0  0  0  0  0  0  0  0  0
    1.1190   -2.0310    0.2740 C   0  0  0  0  0  0  0  0  0  0  0  0
   -0.2210   -1.8210   -0.1260 O   0  0  0  0  0  0  0  0  0  0  0  0
   -2.0200    0.6910   -0.3490 C   0  0  0  0  0  0  0  0  0  0  0  0
  1  2  1  0
  3  2  1  1
  3  4  1  0
  3 23  1  0
  4  5  1  0
  5  6  1  0
  6  7  1  1
  6  8  1  0
  8  9  1  0
  8 23  1  6
  9 10  1  6
  9 22  1  0
 10 11  1  0
 12 11  1  1
 12 13  1  0
 12 21  1  0
 13 14  1  6
 13 20  1  0
 14 15  1  0
 15 16  1  0
 16 17  2  0
 16 20  1  0
 17 18  1  0
 18 19  1  0
 19 20  2  0
 21 22  1  0
M  END
