
     RDKit          3D

 23 25  0  0  0  0  0  0  0  0999 V2000
   -2.7800   -3.3080   -2.1420 C   0  0  0  0  0  0  0  0  0  0  0  0
   -1.6230   -2.7140   -1.4770 C   0  0  0  0  0  0  0  0  0  0  0  0
   -1.6340   -1.4760   -1.0200 C   0  0  0  0  0  0  0  0  0  0  0  0
   -2.8750   -0.6930   -1.2040 C   0  0  0  0  0  0  0  0  0  0  0  0
   -3.0730    0.4910   -0.3500 C   0  0  1  0  0  0  0  0  0  0  0  0
   -4.2930    0.2380    0.5280 C   0  0  0  0  0  0  0  0  0  0  0  0
   -4.5700    1.4070    1.4400 C   0  0  0  0  0  0  0  0  0  0  0  0
   -1.8790    0.8780    0.4460 C   0  0  1  0  0  0  0  0  0  0  0  0
   -1.8550    0.1120    1.6170 O   0  0  0  0  0  0  0  0  0  0  0  0
   -0.6280    0.6010   -0.4110 C   0  0  1  0  0  0  0  0  0  0  0  0
    0.4150    1.5280   -0.0180 C   0  0  0  0  0  0  0  0  0  0  0  0
    0.7440    1.6550    1.4480 C   0  0  2  0  0  0  0  0  0  0  0  0
    1.2460    2.9500    1.9830 C   0  0  0  0  0  0  0  0  0  0  0  0
    2.2590    1.9510    1.5200 C   0  0  2  0  0  0  0  0  0  0  0  0
    2.7970    2.1320    0.2730 O   0  0  0  0  0  0  0  0  0  0  0  0
    4.0450    1.5900    0.1570 C   0  0  0  0  0  0  0  0  0  0  0  0
    4.2080    0.5630   -0.9270 C   0  0  0  0  0  0  0  0  0  0  0  0
    3.2600   -0.5820   -0.8880 C   0  0  1  0  0  0  0  0  0  0  0  0
    3.9910   -1.7820   -1.5040 C   0  0  0  0  0  0  0  0  0  0  0  0
    2.8480   -0.8860    0.5020 C   0  0  0  0  0  0  0  0  0  0  0  0
    1.6840   -1.3050    0.9290 C   0  0  0  0  0  0  0  0  0  0  0  0
    0.4590   -1.5990    0.2140 C   0  0  0  0  0  0  0  0  0  0  0  0
   -0.4530   -0.8510   -0.3340 C   0  0  0  0  0  0  0  0  0  0  0  0
  1  2  1  0
  2  3  2  3
  3  4  1  0
  3 23  1  0
  4  5  1  0
  5  6  1  1
  5  8  1  0
  6  7  1  0
  8  9  1  1
  8 10  1  0
 10 11  1  1
 10 23  1  0
 12 11  1  6
 12 13  1  0
 12 14  1  0
 14 13  1  1
 14 15  1  0
 15 16  1  0
 16 17  1  0
 17 18  1  0
 18 19  1  1
 18 20  1  0
 20 21  2  0
 21 22  1  0
 22 23  2  0
M  END
