
     RDKit          3D

 28 30  0  0  0  0  0  0  0  0999 V2000
   -7.8780    2.6730    3.2310 N   0  0  0  0  0  0  0  0  0  0  0  0
   -7.5010    2.3280    1.8850 C   0  0  0  0  0  0  0  0  0  0  0  0
   -8.3230    2.5870    0.9600 N   0  0  0  0  0  0  0  0  0  0  0  0
   -6.2220    1.7030    1.6110 C   0  0  0  0  0  0  0  0  0  0  0  0
   -5.7990    1.3440    0.3570 C   0  0  0  0  0  0  0  0  0  0  0  0
   -4.5520    0.7400    0.1420 C   0  0  0  0  0  0  0  0  0  0  0  0
   -3.6840    0.4730    1.1710 C   0  0  0  0  0  0  0  0  0  0  0  0
   -2.3610   -0.1600    0.9850 C   0  0  0  0  0  0  0  0  0  0  0  0
   -1.8470    0.0030   -0.3320 N   0  0  0  0  0  0  0  0  0  0  0  0
   -0.6220   -0.6720   -0.6560 C   0  0  0  0  0  0  0  0  0  0  0  0
   -0.0200   -1.3840    0.1920 O   0  0  0  0  0  0  0  0  0  0  0  0
   -0.0630   -0.5230   -2.0170 C   0  0  2  0  0  0  0  0  0  0  0  0
   -1.0550   -1.0650   -3.0390 C   0  0  0  0  0  0  0  0  0  0  0  0
   -0.2250   -2.0410   -3.8750 C   0  0  0  0  0  0  0  0  0  0  0  0
    0.7890   -2.5250   -2.8340 C   0  0  0  0  0  0  0  0  0  0  0  0
    1.1510   -1.2720   -2.2140 N   0  0  0  0  0  0  0  0  0  0  0  0
    2.4770   -0.8750   -1.8720 C   0  0  0  0  0  0  0  0  0  0  0  0
    3.4650   -1.6240   -2.1020 O   0  0  0  0  0  0  0  0  0  0  0  0
    2.7220    0.4320   -1.2380 C   0  0  0  0  0  0  0  0  0  0  0  0
    4.0090    0.7560   -0.9570 O   0  0  0  0  0  0  0  0  0  0  0  0
    4.7110   -0.0650   -0.1170 C   0  0  2  0  0  0  0  0  0  0  0  0
    5.0520    0.6780    1.1980 C   0  0  0  0  0  0  0  0  0  0  0  0
    5.5850   -0.3980    2.1220 C   0  0  0  0  0  0  0  0  0  0  0  0
    6.9110   -0.8800    1.5550 C   0  0  0  0  0  0  0  0  0  0  0  0
    6.7700   -1.3980    0.1470 C   0  0  0  0  0  0  0  0  0  0  0  0
    6.0480   -0.3900   -0.7260 C   0  0  0  0  0  0  0  0  0  0  0  0
   -4.1030    0.8330    2.4540 C   0  0  0  0  0  0  0  0  0  0  0  0
   -5.3260    1.4250    2.6550 C   0  0  0  0  0  0  0  0  0  0  0  0
  1  2  1  0
  2  3  2  0
  2  4  1  0
  4  5  2  0
  4 28  1  0
  5  6  1  0
  6  7  2  0
  7  8  1  0
  7 27  1  0
  8  9  1  0
  9 10  1  0
 10 11  2  0
 12 10  1  1
 12 13  1  0
 12 16  1  0
 13 14  1  0
 14 15  1  0
 15 16  1  0
 16 17  1  0
 17 18  2  0
 17 19  1  0
 19 20  1  0
 21 20  1  6
 21 22  1  0
 21 26  1  0
 22 23  1  0
 23 24  1  0
 24 25  1  0
 25 26  1  0
 27 28  2  0
M  CHG  1   3   1
M  END
