
     RDKit          3D

 23 26  0  0  0  0  0  0  0  0999 V2000
   -1.3310   -3.6540   -0.3210 C   0  0  0  0  0  0  0  0  0  0  0  0
   -0.4530   -2.4520   -0.0090 C   0  0  1  0  0  0  0  0  0  0  0  0
    0.7080   -2.4750   -0.9580 C   0  0  0  0  0  0  0  0  0  0  0  0
    0.8300   -1.0770   -1.4490 C   0  0  0  0  0  0  0  0  0  0  0  0
    0.1480   -0.2180   -0.3520 C   0  0  2  0  0  0  0  0  0  0  0  0
    0.9860   -0.1940    0.8410 C   0  0  0  0  0  0  0  0  0  0  0  0
    2.3800    0.2770    0.8680 C   0  0  2  0  0  0  0  0  0  0  0  0
    2.8830    0.0650    2.3520 C   0  0  0  0  0  0  0  0  0  0  0  0
    4.2820    0.5600    2.2090 C   0  0  0  0  0  0  0  0  0  0  0  0
    4.1490    1.7560    1.3270 C   0  0  0  0  0  0  0  0  0  0  0  0
    2.6720    1.7380    0.8120 C   0  0  0  0  0  0  0  0  0  0  0  0
   -1.0600   -1.1540   -0.2590 C   0  0  2  0  0  0  0  0  0  0  0  0
   -2.2200   -0.7110    0.5080 C   0  0  2  0  0  0  0  0  0  0  0  0
   -2.1920   -0.8140    1.9880 C   0  0  0  0  0  0  0  0  0  0  0  0
   -3.4290   -1.5210    0.0510 C   0  0  0  0  0  0  0  0  0  0  0  0
   -2.5150    0.7300    0.1380 C   0  0  0  0  0  0  0  0  0  0  0  0
   -1.7580    1.1610   -1.0850 C   0  0  1  0  0  0  0  0  0  0  0  0
   -2.1730    2.5920   -1.3520 C   0  0  0  0  0  0  0  0  0  0  0  0
   -1.2960    3.2390   -2.2070 O   0  0  0  0  0  0  0  0  0  0  0  0
   -0.6250    2.2910   -2.9650 C   0  0  0  0  0  0  0  0  0  0  0  0
    0.4380    1.5680   -2.1170 C   0  0  0  0  0  0  0  0  0  0  0  0
   -0.2460    1.1160   -0.8530 C   0  0  2  0  0  0  0  0  0  0  0  0
   -0.0380    2.1390    0.0710 O   0  0  0  0  0  0  0  0  0  0  0  0
  2  1  1  6
  2  3  1  0
 12  2  1  1
  3  4  1  0
  4  5  1  0
  5  6  1  1
  5 12  1  0
  5 22  1  0
  7  6  1  1
  7  8  1  0
  7 11  1  0
  8  9  1  0
  9 10  1  0
 10 11  1  0
 12 13  1  0
 13 14  1  1
 13 15  1  0
 13 16  1  0
 17 16  1  1
 17 18  1  0
 17 22  1  0
 18 19  1  0
 19 20  1  0
 20 21  1  0
 21 22  1  0
 22 23  1  1
M  END
