
     RDKit          3D

 23 26  0  0  0  0  0  0  0  0999 V2000
   -1.7200   -2.1760    0.3690 C   0  0  0  0  0  0  0  0  0  0  0  0
   -1.8020   -1.1420   -0.7180 C   0  0  1  0  0  0  0  0  0  0  0  0
   -0.9090   -1.5700   -1.8740 C   0  0  0  0  0  0  0  0  0  0  0  0
   -3.2140   -1.3320   -1.3200 C   0  0  0  0  0  0  0  0  0  0  0  0
   -4.2730   -1.2720   -0.2770 C   0  0  0  0  0  0  0  0  0  0  0  0
   -4.0220   -0.0630    0.5550 C   0  0  0  0  0  0  0  0  0  0  0  0
   -3.0720    0.8820   -0.1620 C   0  0  1  0  0  0  0  0  0  0  0  0
   -3.0730    2.1160    0.6680 C   0  0  0  0  0  0  0  0  0  0  0  0
   -1.9070    3.0060    0.5000 C   0  0  0  0  0  0  0  0  0  0  0  0
   -0.5820    2.2160    0.4930 C   0  0  0  0  0  0  0  0  0  0  0  0
   -0.8430    0.7450    0.7580 C   0  0  2  0  0  0  0  0  0  0  0  0
    0.3140    0.0600    1.2580 C   0  0  0  0  0  0  0  0  0  0  0  0
    1.6030   -0.0890    0.5220 C   0  0  2  0  0  0  0  0  0  0  0  0
    2.5840   -0.8780    1.3620 C   0  0  0  0  0  0  0  0  0  0  0  0
    3.9950   -0.4910    1.3430 C   0  0  1  0  0  0  0  0  0  0  0  0
    4.7910   -1.3470    0.3820 C   0  0  0  0  0  0  0  0  0  0  0  0
    4.2300   -1.1390   -1.0010 C   0  0  0  0  0  0  0  0  0  0  0  0
    4.0810    0.1650   -1.3440 O   0  0  0  0  0  0  0  0  0  0  0  0
    3.6400    1.0540   -0.4260 C   0  0  2  0  0  0  0  0  0  0  0  0
    4.2920    0.9410    0.9500 C   0  0  0  0  0  0  0  0  0  0  0  0
    2.1510    1.0750   -0.1760 C   0  0  0  0  0  0  0  0  0  0  0  0
   -1.6760    0.2640   -0.3530 C   0  0  1  0  0  0  0  0  0  0  0  0
   -1.2020    0.9290   -1.5220 O   0  0  0  0  0  0  0  0  0  0  0  0
  2  1  1  1
  2  3  1  0
  2  4  1  0
  2 22  1  0
  4  5  1  0
  5  6  1  0
  7  6  1  1
  7  8  1  0
  7 22  1  0
  8  9  1  0
  9 10  1  0
 10 11  1  0
 11 12  1  6
 11 22  1  0
 13 12  1  1
 13 14  1  0
 13 21  1  0
 15 14  1  6
 15 16  1  0
 15 20  1  0
 16 17  1  0
 17 18  1  0
 18 19  1  0
 19 20  1  0
 19 21  1  1
 22 23  1  6
M  END
