
     RDKit          3D

 23 26  0  0  0  0  0  0  0  0999 V2000
    3.1950   -1.2410   -2.2030 C   0  0  0  0  0  0  0  0  0  0  0  0
    3.9570   -0.4310   -1.2250 C   0  0  0  0  0  0  0  0  0  0  0  0
    5.2140   -0.1060   -1.5430 C   0  0  0  0  0  0  0  0  0  0  0  0
    6.1820    0.6670   -0.7940 C   0  0  0  0  0  0  0  0  0  0  0  0
    6.3340    0.5080    0.6400 C   0  0  0  0  0  0  0  0  0  0  0  0
    5.3050   -0.0900    1.4850 C   0  0  0  0  0  0  0  0  0  0  0  0
    3.9060    0.0900    1.1790 C   0  0  0  0  0  0  0  0  0  0  0  0
    3.2680   -0.0530   -0.0120 C   0  0  0  0  0  0  0  0  0  0  0  0
    1.8540    0.2930   -0.0380 C   0  0  0  0  0  0  0  0  0  0  0  0
    0.7650   -0.6480   -0.2470 C   0  0  2  0  0  0  0  0  0  0  0  0
    0.5930   -1.3840   -1.3640 O   0  0  0  0  0  0  0  0  0  0  0  0
   -0.6000    0.1030   -0.0680 C   0  0  1  0  0  0  0  0  0  0  0  0
   -0.9190    0.8750   -1.3300 C   0  0  0  0  0  0  0  0  0  0  0  0
   -2.3630    1.2720   -1.2680 C   0  0  0  0  0  0  0  0  0  0  0  0
   -2.9720    1.0630    0.1090 C   0  0  1  0  0  0  0  0  0  0  0  0
   -4.3880    1.5130    0.0600 C   0  0  0  0  0  0  0  0  0  0  0  0
   -5.3970    0.4470    0.3760 C   0  0  2  0  0  0  0  0  0  0  0  0
   -5.3290    0.0250    1.8280 C   0  0  0  0  0  0  0  0  0  0  0  0
   -4.6220   -1.3120    1.8650 C   0  0  0  0  0  0  0  0  0  0  0  0
   -3.8430   -1.2630    0.5400 C   0  0  1  0  0  0  0  0  0  0  0  0
   -4.9740   -0.8080   -0.3580 C   0  0  0  0  0  0  0  0  0  0  0  0
   -2.7330   -0.2880    0.6620 C   0  0  1  0  0  0  0  0  0  0  0  0
   -1.5900   -0.8750    0.0690 O   0  0  0  0  0  0  0  0  0  0  0  0
  1  2  1  0
  2  3  2  0
  2  8  1  0
  3  4  1  0
  4  5  1  0
  5  6  1  0
  6  7  1  0
  7  8  2  0
  8  9  1  0
  9 10  1  0
 10 11  1  6
 10 12  1  0
 12 13  1  6
 12 23  1  0
 13 14  1  0
 15 14  1  6
 15 16  1  0
 15 22  1  0
 17 16  1  1
 17 18  1  0
 17 21  1  0
 18 19  1  0
 20 19  1  1
 20 21  1  0
 20 22  1  0
 22 23  1  6
M  END
