
     RDKit          3D

 23 26  0  0  0  0  0  0  0  0999 V2000
    1.4040   -3.1980   -0.4960 C   0  0  0  0  0  0  0  0  0  0  0  0
    0.5080   -2.3810   -1.3270 C   0  0  0  0  0  0  0  0  0  0  0  0
    0.2950   -0.9520   -1.0380 C   0  0  2  0  0  0  0  0  0  0  0  0
    1.6640   -0.3020   -1.1130 C   0  0  0  0  0  0  0  0  0  0  0  0
    1.8960    0.2390    0.2360 C   0  0  1  0  0  0  0  0  0  0  0  0
    3.1010   -0.2260    0.9820 C   0  0  0  0  0  0  0  0  0  0  0  0
    4.2480    0.2770    0.1330 C   0  0  0  0  0  0  0  0  0  0  0  0
    3.8120    1.7250   -0.0450 C   0  0  0  0  0  0  0  0  0  0  0  0
    2.2790    1.7080    0.0570 C   0  0  0  0  0  0  0  0  0  0  0  0
    0.6040    0.0560    1.0300 C   0  0  1  0  0  0  0  0  0  0  0  0
    0.2980    1.3190    1.4620 O   0  0  0  0  0  0  0  0  0  0  0  0
   -0.7610    1.8520    0.8410 C   0  0  1  0  0  0  0  0  0  0  0  0
   -1.7240    2.2880    1.9640 C   0  0  0  0  0  0  0  0  0  0  0  0
   -0.5700    3.1030    0.0310 C   0  0  0  0  0  0  0  0  0  0  0  0
   -1.3170    0.7670   -0.0350 C   0  0  1  0  0  0  0  0  0  0  0  0
   -1.6650    1.1790   -1.4230 C   0  0  0  0  0  0  0  0  0  0  0  0
   -2.7810    0.3130   -1.9070 C   0  0  0  0  0  0  0  0  0  0  0  0
   -2.9000   -1.0510   -1.3960 C   0  0  0  0  0  0  0  0  0  0  0  0
   -2.7690   -1.4180   -0.0020 C   0  0  0  0  0  0  0  0  0  0  0  0
   -1.4360   -1.4600    0.7000 C   0  0  1  0  0  0  0  0  0  0  0  0
   -1.7620   -1.0240    2.1460 C   0  0  0  0  0  0  0  0  0  0  0  0
   -0.9530   -2.7330    0.8510 O   0  0  0  0  0  0  0  0  0  0  0  0
   -0.4520   -0.4610    0.1050 C   0  0  1  0  0  0  0  0  0  0  0  0
  1  2  1  0
  3  2  1  1
  3  4  1  0
 23  3  1  6
  5  4  1  6
  5  6  1  0
  5  9  1  0
  5 10  1  0
  6  7  1  0
  7  8  1  0
  8  9  1  0
 10 11  1  6
 10 23  1  0
 11 12  1  0
 12 13  1  1
 12 14  1  0
 12 15  1  0
 15 16  1  6
 15 23  1  0
 16 17  1  0
 17 18  1  0
 18 19  1  0
 19 20  1  0
 20 21  1  1
 20 22  1  0
 20 23  1  0
M  END
