
     RDKit          3D

 25 25  0  0  0  0  0  0  0  0999 V2000
    0.6900    4.6780    0.8970 O   0  0  0  0  0  0  0  0  0  0  0  0
    0.8150    3.5870    0.2870 C   0  0  0  0  0  0  0  0  0  0  0  0
   -0.0020    3.1330   -0.6860 O   0  0  0  0  0  0  0  0  0  0  0  0
   -0.9070    2.1010   -0.7610 C   0  0  0  0  0  0  0  0  0  0  0  0
   -1.4540    1.5880    0.5310 C   0  0  2  0  0  0  0  0  0  0  0  0
   -0.5890    1.5210    1.5920 O   0  0  0  0  0  0  0  0  0  0  0  0
   -2.3080    0.4190    0.3220 C   0  0  2  0  0  0  0  0  0  0  0  0
   -3.0160    0.2450    1.5510 O   0  0  0  0  0  0  0  0  0  0  0  0
   -1.7550   -0.8660   -0.1380 C   0  0  0  0  0  0  0  0  0  0  0  0
   -2.5240   -1.9060    0.3010 C   0  0  0  0  0  0  0  0  0  0  0  0
   -2.2580   -3.3140    0.0210 C   0  0  1  0  0  0  0  0  0  0  0  0
   -2.4000   -4.0280    1.1930 F   0  0  0  0  0  0  0  0  0  0  0  0
   -3.1560   -3.8060   -0.9200 F   0  0  0  0  0  0  0  0  0  0  0  0
   -0.9880   -3.5160   -0.4420 F   0  0  0  0  0  0  0  0  0  0  0  0
   -0.6460   -1.2000   -0.9570 C   0  0  0  0  0  0  0  0  0  0  0  0
    0.6670   -1.2220   -0.9030 C   0  0  0  0  0  0  0  0  0  0  0  0
    1.6660   -0.8880    0.0910 C   0  0  0  0  0  0  0  0  0  0  0  0
    2.4590   -1.8290    0.6680 C   0  0  0  0  0  0  0  0  0  0  0  0
    2.2710   -3.2380    0.2370 C   0  0  2  0  0  0  0  0  0  0  0  0
    1.4840   -3.8440    1.2240 F   0  0  0  0  0  0  0  0  0  0  0  0
    3.4720   -3.9140    0.1590 F   0  0  0  0  0  0  0  0  0  0  0  0
    1.9320    0.4150    0.5640 O   0  0  0  0  0  0  0  0  0  0  0  0
    2.1940    1.5750   -0.1900 C   0  0  0  0  0  0  0  0  0  0  0  0
    1.9780    2.7650    0.7090 C   0  0  1  0  0  0  0  0  0  0  0  0
    3.0950    3.6230    0.5800 O   0  0  0  0  0  0  0  0  0  0  0  0
  1  2  2  0
  2  3  1  0
  2 24  1  0
  3  4  1  0
  4  5  1  0
  5  6  1  1
  5  7  1  0
  7  8  1  1
  7  9  1  0
  9 10  2  3
  9 15  1  0
 10 11  1  0
 11 12  1  1
 11 13  1  0
 11 14  1  0
 15 16  2  0
 16 17  1  0
 17 18  2  3
 17 22  1  0
 18 19  1  0
 19 20  1  1
 19 21  1  0
 22 23  1  0
 23 24  1  0
 24 25  1  6
M  END
