
     RDKit          3D

 25 26  0  0  0  0  0  0  0  0999 V2000
   -5.6170    1.3260   -1.4910 O   0  0  0  0  0  0  0  0  0  0  0  0
   -5.0880    0.7720   -0.3280 C   0  0  0  0  0  0  0  0  0  0  0  0
   -3.7030    0.2120   -0.5980 C   0  0  0  0  0  0  0  0  0  0  0  0
   -3.1300   -0.3900    0.6690 C   0  0  2  0  0  0  0  0  0  0  0  0
   -3.0610    0.6410    1.6290 O   0  0  0  0  0  0  0  0  0  0  0  0
   -1.7480   -0.9240    0.4640 C   0  0  1  0  0  0  0  0  0  0  0  0
   -1.8160   -1.9500   -0.4910 O   0  0  0  0  0  0  0  0  0  0  0  0
   -0.6520   -1.9150   -1.2290 C   0  0  0  0  0  0  0  0  0  0  0  0
    0.4970   -1.7140   -0.2310 C   0  0  0  0  0  0  0  0  0  0  0  0
    0.4270   -0.2490    0.1620 C   0  0  1  0  0  0  0  0  0  0  0  0
    0.9500    0.0130    1.5380 C   0  0  0  0  0  0  0  0  0  0  0  0
    2.1400   -0.7810    1.7080 O   0  0  0  0  0  0  0  0  0  0  0  0
    3.0160   -0.6260    0.5920 C   0  0  0  0  0  0  0  0  0  0  0  0
    4.0330   -1.4060    0.4080 C   0  0  0  0  0  0  0  0  0  0  0  0
    4.9080   -1.3710   -0.5800 F   0  0  0  0  0  0  0  0  0  0  0  0
    4.2330   -2.3720    1.3520 F   0  0  0  0  0  0  0  0  0  0  0  0
    2.6610    0.4670   -0.2920 C   0  0  0  0  0  0  0  0  0  0  0  0
    3.5050    1.4330   -0.5330 C   0  0  0  0  0  0  0  0  0  0  0  0
    4.8630    1.6030   -0.0000 C   0  0  1  0  0  0  0  0  0  0  0  0
    5.0600    2.9850    0.3210 F   0  0  0  0  0  0  0  0  0  0  0  0
    5.0960    0.9260    1.1710 F   0  0  0  0  0  0  0  0  0  0  0  0
    5.8350    1.3130   -0.9360 F   0  0  0  0  0  0  0  0  0  0  0  0
    1.2600    0.5030   -0.8890 C   0  0  2  0  0  0  0  0  0  0  0  0
    0.8250    1.7860   -1.0800 O   0  0  0  0  0  0  0  0  0  0  0  0
   -0.9280    0.1180    0.0350 O   0  0  0  0  0  0  0  0  0  0  0  0
  1  2  1  0
  2  3  1  0
  3  4  1  0
  4  5  1  1
  4  6  1  0
  6  7  1  6
  6 25  1  0
  7  8  1  0
  8  9  1  0
 10  9  1  6
 10 11  1  0
 10 23  1  0
 10 25  1  0
 11 12  1  0
 12 13  1  0
 13 14  2  3
 13 17  1  0
 14 15  1  0
 14 16  1  0
 17 18  2  3
 17 23  1  0
 18 19  1  0
 19 20  1  1
 19 21  1  0
 19 22  1  0
 23 24  1  1
M  END
