
     RDKit          3D

 25 25  0  0  0  0  0  0  0  0999 V2000
    0.1040    2.8430   -1.8240 O   0  0  0  0  0  0  0  0  0  0  0  0
   -0.2550    1.6690   -1.1390 C   0  0  1  0  0  0  0  0  0  0  0  0
    0.8770    1.1880   -0.2770 C   0  0  0  0  0  0  0  0  0  0  0  0
    1.6020   -0.0170   -0.8390 C   0  0  1  0  0  0  0  0  0  0  0  0
    1.9910    0.4260   -2.1540 O   0  0  0  0  0  0  0  0  0  0  0  0
    2.8840   -0.2890   -0.1390 C   0  0  0  0  0  0  0  0  0  0  0  0
    2.8300   -0.5380    1.3210 C   0  0  0  0  0  0  0  0  0  0  0  0
    4.2810   -0.7860    1.7720 C   0  0  0  0  0  0  0  0  0  0  0  0
    4.3270   -1.0300    3.1320 F   0  0  0  0  0  0  0  0  0  0  0  0
    0.6850   -1.1660   -1.0710 C   0  0  0  0  0  0  0  0  0  0  0  0
    0.9040   -2.3540   -0.2100 C   0  0  0  0  0  0  0  0  0  0  0  0
    2.1060   -2.9900   -0.4120 F   0  0  0  0  0  0  0  0  0  0  0  0
    0.0110   -2.7880    0.6710 C   0  0  0  0  0  0  0  0  0  0  0  0
   -1.2080   -2.1800    0.8740 O   0  0  0  0  0  0  0  0  0  0  0  0
   -2.3620   -2.2500    0.0880 C   0  0  0  0  0  0  0  0  0  0  0  0
   -3.2870   -1.0820    0.3320 C   0  0  2  0  0  0  0  0  0  0  0  0
   -4.0510   -0.9230   -0.8340 O   0  0  0  0  0  0  0  0  0  0  0  0
   -2.5110    0.1410    0.6920 C   0  0  2  0  0  0  0  0  0  0  0  0
   -3.1160    0.8850    1.7090 O   0  0  0  0  0  0  0  0  0  0  0  0
   -2.3740    0.9100   -0.4700 O   0  0  0  0  0  0  0  0  0  0  0  0
   -1.5000    1.9600   -0.3310 C   0  0  2  0  0  0  0  0  0  0  0  0
   -2.0820    3.2660   -0.8390 C   0  0  2  0  0  0  0  0  0  0  0  0
   -3.2180    3.6360   -0.1810 F   0  0  0  0  0  0  0  0  0  0  0  0
   -2.3480    3.1990   -2.1830 F   0  0  0  0  0  0  0  0  0  0  0  0
   -1.1230    4.2420   -0.6080 F   0  0  0  0  0  0  0  0  0  0  0  0
  2  1  1  1
  2  3  1  0
  2 21  1  0
  3  4  1  0
  4  5  1  6
  4  6  1  0
  4 10  1  0
  6  7  1  0
  7  8  1  0
  8  9  1  0
 10 11  1  0
 11 12  1  0
 11 13  2  0
 13 14  1  0
 14 15  1  0
 15 16  1  0
 16 17  1  6
 16 18  1  0
 18 19  1  1
 18 20  1  0
 21 20  1  6
 21 22  1  0
 22 23  1  1
 22 24  1  0
 22 25  1  0
M  END
