
     RDKit          3D

 21 22  0  0  0  0  0  0  0  0999 V2000
    1.6170   -1.2060   -1.7770 C   0  0  0  0  0  0  0  0  0  0  0  0
    1.0120   -0.4140   -0.6800 C   0  0  0  0  0  0  0  0  0  0  0  0
    1.7140    0.1690    0.2260 N   0  0  0  0  0  0  0  0  0  0  0  0
    3.1240    0.1330    0.2920 C   0  0  0  0  0  0  0  0  0  0  0  0
    4.0100    1.0050   -0.1250 O   0  0  0  0  0  0  0  0  0  0  0  0
    5.2240    0.6160    0.1170 C   0  0  0  0  0  0  0  0  0  0  0  0
    6.8770    1.4950   -0.2770 Br  0  0  0  0  0  0  0  0  0  0  0  0
    5.1550   -0.6030    0.7390 C   0  0  0  0  0  0  0  0  0  0  0  0
    3.8280   -0.9130    0.8530 C   0  0  0  0  0  0  0  0  0  0  0  0
    3.0740   -2.5010    1.6410 Br  0  0  0  0  0  0  0  0  0  0  0  0
   -0.4340   -0.2920   -0.6240 C   0  0  0  0  0  0  0  0  0  0  0  0
   -0.9750    0.4630    0.4250 C   0  0  0  0  0  0  0  0  0  0  0  0
   -2.3380    0.6280    0.5500 C   0  0  0  0  0  0  0  0  0  0  0  0
   -2.9230    1.4060    1.6290 C   0  0  0  0  0  0  0  0  0  0  0  0
   -2.0140    2.0050    2.5750 N   0  0  0  0  0  0  0  0  0  0  0  0
   -4.1340    1.5820    1.7830 O   0  0  0  0  0  0  0  0  0  0  0  0
   -3.1090    0.0140   -0.4050 C   0  0  0  0  0  0  0  0  0  0  0  0
   -4.5870    0.1430   -0.3430 C   0  0  0  0  0  0  0  0  0  0  0  0
   -2.5940   -0.7100   -1.4120 N   0  0  0  0  0  0  0  0  0  0  0  0
   -1.2790   -0.8780   -1.5450 C   0  0  0  0  0  0  0  0  0  0  0  0
   -0.8050   -1.5590   -2.4930 O   0  0  0  0  0  0  0  0  0  0  0  0
  1  2  1  0
  2  3  2  3
  2 11  1  0
  3  4  1  0
  4  5  1  0
  4  9  2  0
  5  6  1  0
  6  7  1  0
  6  8  2  0
  8  9  1  0
  9 10  1  0
 11 12  2  0
 11 20  1  0
 12 13  1  0
 13 14  1  0
 13 17  2  0
 14 15  1  0
 14 16  2  0
 17 18  1  0
 17 19  1  0
 19 20  1  0
 20 21  2  0
M  END
