
     RDKit          3D

 24 25  0  0  0  0  0  0  0  0999 V2000
    0.4160   -1.1350   -0.7880 O   0  0  0  0  0  0  0  0  0  0  0  0
   -0.5950   -0.1450   -0.6250 C   0  0  2  0  0  0  0  0  0  0  0  0
   -0.2970    0.4340    0.7620 C   0  0  0  0  0  0  0  0  0  0  0  0
    1.1130    1.0230    0.7740 C   0  0  1  0  0  0  0  0  0  0  0  0
    1.3600    1.5390    2.0330 O   0  0  0  0  0  0  0  0  0  0  0  0
    1.8530    0.5590    2.8860 C   0  0  0  0  0  0  0  0  0  0  0  0
    3.2070    0.1700    2.3550 C   0  0  0  0  0  0  0  0  0  0  0  0
    3.2450   -0.0800    1.0590 C   0  0  0  0  0  0  0  0  0  0  0  0
    4.4890   -0.4700    0.4000 C   0  0  0  0  0  0  0  0  0  0  0  0
    5.6110   -0.5730    1.1360 F   0  0  0  0  0  0  0  0  0  0  0  0
    4.5510   -0.7230   -0.8920 C   0  0  0  0  0  0  0  0  0  0  0  0
    5.8230   -1.1130   -1.5210 C   0  0  2  0  0  0  0  0  0  0  0  0
    5.5530   -1.9220   -2.6270 F   0  0  0  0  0  0  0  0  0  0  0  0
    6.6480   -1.8060   -0.6750 F   0  0  0  0  0  0  0  0  0  0  0  0
    6.4680    0.0180   -1.9930 F   0  0  0  0  0  0  0  0  0  0  0  0
    2.0530    0.0470    0.3660 O   0  0  0  0  0  0  0  0  0  0  0  0
   -1.9110   -0.8310   -0.7130 C   0  0  1  0  0  0  0  0  0  0  0  0
   -2.1570   -1.7880    0.2360 O   0  0  0  0  0  0  0  0  0  0  0  0
   -3.0670    0.1210   -0.8190 C   0  0  1  0  0  0  0  0  0  0  0  0
   -2.8320    1.1230   -1.7670 O   0  0  0  0  0  0  0  0  0  0  0  0
   -4.3040   -0.6300   -1.3380 C   0  0  0  0  0  0  0  0  0  0  0  0
   -5.3980    0.1970   -0.7000 C   0  0  0  0  0  0  0  0  0  0  0  0
   -4.9350    0.5050    0.5720 O   0  0  0  0  0  0  0  0  0  0  0  0
   -3.5640    0.6620    0.4790 C   0  0  0  0  0  0  0  0  0  0  0  0
  2  1  1  1
  2  3  1  0
  2 17  1  0
  4  3  1  1
  4  5  1  0
  4 16  1  0
  5  6  1  0
  6  7  1  0
  7  8  2  0
  8  9  1  0
  8 16  1  0
  9 10  1  0
  9 11  2  3
 11 12  1  0
 12 13  1  6
 12 14  1  0
 12 15  1  0
 17 18  1  1
 17 19  1  0
 19 20  1  6
 19 21  1  0
 19 24  1  0
 21 22  1  0
 22 23  1  0
 23 24  1  0
M  END
