
     RDKit          3D

 21 21  0  0  0  0  0  0  0  0999 V2000
   -3.2570   -1.9080   -1.9860 C   0  0  0  0  0  0  0  0  0  0  0  0
   -2.0490   -1.7740   -1.3960 C   0  0  0  0  0  0  0  0  0  0  0  0
   -1.3050   -3.0130   -1.3030 C   0  0  0  0  0  0  0  0  0  0  0  0
   -1.6600   -0.4640   -0.9160 C   0  0  0  0  0  0  0  0  0  0  0  0
   -0.5480   -0.0170   -0.3290 C   0  0  0  0  0  0  0  0  0  0  0  0
    0.5540   -0.8740   -0.0620 C   0  0  0  0  0  0  0  0  0  0  0  0
    0.8460   -1.9960   -0.2070 O   0  0  0  0  0  0  0  0  0  0  0  0
    1.8280    0.0230    0.6940 N   0  0  0  0  0  0  0  0  0  0  0  0
    2.6910   -0.9970    0.7610 C   0  0  0  0  0  0  0  0  0  0  0  0
    2.6460   -2.2510    0.4730 O   0  0  0  0  0  0  0  0  0  0  0  0
    3.9670   -0.7240    1.2470 N   0  0  0  0  0  0  0  0  0  0  0  0
    5.1420   -0.4140    1.7070 C   0  0  0  0  0  0  0  0  0  0  0  0
    5.8820    0.7160    2.1880 C   0  0  0  0  0  0  0  0  0  0  0  0
    5.8200   -1.5990    1.6930 O   0  0  0  0  0  0  0  0  0  0  0  0
   -0.7030    1.3820   -0.0380 N   0  0  0  0  0  0  0  0  0  0  0  0
   -1.9590    1.8350   -0.4540 C   0  0  0  0  0  0  0  0  0  0  0  0
   -2.4800    3.0720   -0.3130 C   0  0  0  0  0  0  0  0  0  0  0  0
   -3.8390    3.3590   -0.8200 C   0  0  0  0  0  0  0  0  0  0  0  0
   -2.6110    0.7040   -1.0730 C   0  0  1  0  0  0  0  0  0  0  0  0
   -2.8180    0.9740   -3.0030 Br  0  0  0  0  0  0  0  0  0  0  0  0
   -4.3220    0.3320   -0.2330 Br  0  0  0  0  0  0  0  0  0  0  0  0
  1  2  2  0
  2  3  1  0
  2  4  1  0
  4  5  2  0
  4 19  1  0
  5  6  1  0
  5 15  1  0
  6  7  2  0
  6  8  1  0
  8  9  1  0
  9 10  2  0
  9 11  1  0
 11 12  1  0
 12 13  1  0
 12 14  2  0
 15 16  1  0
 16 17  2  3
 16 19  1  0
 17 18  1  0
 19 20  1  6
 19 21  1  0
M  END
