
     RDKit          3D

 24 25  0  0  0  0  0  0  0  0999 V2000
   -2.1990    2.5480    0.2880 O   0  0  0  0  0  0  0  0  0  0  0  0
   -3.1470    1.9000   -0.2130 C   0  0  0  0  0  0  0  0  0  0  0  0
   -3.8390    2.4660   -1.2670 O   0  0  0  0  0  0  0  0  0  0  0  0
   -3.4910    0.5730    0.3270 C   0  0  0  0  0  0  0  0  0  0  0  0
   -2.5360   -0.4900   -0.1170 C   0  0  2  0  0  0  0  0  0  0  0  0
   -2.5700   -0.5520   -1.5140 O   0  0  0  0  0  0  0  0  0  0  0  0
   -2.9360   -1.8250    0.4500 C   0  0  0  0  0  0  0  0  0  0  0  0
   -1.5740   -2.4460    0.6990 C   0  0  0  0  0  0  0  0  0  0  0  0
   -0.8020   -1.3930    1.1460 O   0  0  0  0  0  0  0  0  0  0  0  0
   -1.1180   -0.2620    0.4060 C   0  0  1  0  0  0  0  0  0  0  0  0
   -0.2550   -0.0670   -0.7780 C   0  0  0  0  0  0  0  0  0  0  0  0
    1.1680    0.1860   -0.6100 C   0  0  1  0  0  0  0  0  0  0  0  0
    1.7990    0.3430   -1.8740 O   0  0  0  0  0  0  0  0  0  0  0  0
    1.5720    1.4140    0.1720 C   0  0  0  0  0  0  0  0  0  0  0  0
    3.0520    1.1880    0.2390 C   0  0  0  0  0  0  0  0  0  0  0  0
    3.9590    2.1150    0.4800 C   0  0  0  0  0  0  0  0  0  0  0  0
    3.6380    3.4160    0.7000 F   0  0  0  0  0  0  0  0  0  0  0  0
    5.2830    1.8150    0.5220 F   0  0  0  0  0  0  0  0  0  0  0  0
    3.3360   -0.2170   -0.0020 C   0  0  0  0  0  0  0  0  0  0  0  0
    4.4520   -0.8480   -0.2530 C   0  0  0  0  0  0  0  0  0  0  0  0
    4.4590   -2.1900   -0.4450 F   0  0  0  0  0  0  0  0  0  0  0  0
    1.9800   -0.8710    0.1020 C   0  0  1  0  0  0  0  0  0  0  0  0
    1.7140   -0.9150    1.4800 O   0  0  0  0  0  0  0  0  0  0  0  0
    1.9490   -2.0900   -0.4970 F   0  0  0  0  0  0  0  0  0  0  0  0
  1  2  2  0
  2  3  1  0
  2  4  1  0
  4  5  1  0
  5  6  1  6
  5  7  1  0
  5 10  1  0
  7  8  1  0
  8  9  1  0
  9 10  1  0
 10 11  1  6
 11 12  1  0
 12 13  1  6
 12 14  1  0
 12 22  1  0
 14 15  1  0
 15 16  2  3
 15 19  1  0
 16 17  1  0
 16 18  1  0
 19 20  2  3
 19 22  1  0
 20 21  1  0
 22 23  1  1
 22 24  1  0
M  END
