
     RDKit          3D

 24 25  0  0  0  0  0  0  0  0999 V2000
    0.9470   -2.0680    1.1110 C   0  0  0  0  0  0  0  0  0  0  0  0
    0.9200   -0.9550    0.0290 C   0  0  1  0  0  0  0  0  0  0  0  0
    1.6880    0.2010    0.5570 C   0  0  0  0  0  0  0  0  0  0  0  0
    1.9500    1.4040   -0.1710 C   0  0  0  0  0  0  0  0  0  0  0  0
    1.6570    1.8010   -1.3740 C   0  0  0  0  0  0  0  0  0  0  0  0
    2.1050    3.0900   -1.7300 F   0  0  0  0  0  0  0  0  0  0  0  0
    0.9910    1.1910   -2.3610 F   0  0  0  0  0  0  0  0  0  0  0  0
    2.1690    0.1580    1.8130 C   0  0  0  0  0  0  0  0  0  0  0  0
    2.9460    1.2600    2.4220 C   0  0  2  0  0  0  0  0  0  0  0  0
    3.4250    0.8270    3.6480 F   0  0  0  0  0  0  0  0  0  0  0  0
    2.1480    2.3820    2.6400 F   0  0  0  0  0  0  0  0  0  0  0  0
    1.6170   -1.4860   -1.1670 C   0  0  0  0  0  0  0  0  0  0  0  0
    0.8630   -2.1410   -2.0630 O   0  0  0  0  0  0  0  0  0  0  0  0
   -0.3420   -1.7030   -2.4470 C   0  0  0  0  0  0  0  0  0  0  0  0
   -1.2020   -1.1330   -1.3770 C   0  0  2  0  0  0  0  0  0  0  0  0
   -2.0730   -2.1830   -0.9690 O   0  0  0  0  0  0  0  0  0  0  0  0
   -2.1190   -0.0720   -1.9280 C   0  0  0  0  0  0  0  0  0  0  0  0
   -2.8620    0.4750   -0.8840 O   0  0  0  0  0  0  0  0  0  0  0  0
   -2.0160    1.1140   -0.0130 C   0  0  1  0  0  0  0  0  0  0  0  0
   -2.0530    2.4970   -0.2950 O   0  0  0  0  0  0  0  0  0  0  0  0
   -2.5630    0.9680    1.4100 C   0  0  0  0  0  0  0  0  0  0  0  0
   -3.8290    1.5310    1.5060 O   0  0  0  0  0  0  0  0  0  0  0  0
   -0.6980    0.7480   -0.0760 O   0  0  0  0  0  0  0  0  0  0  0  0
   -0.5080   -0.6510   -0.1750 C   0  0  2  0  0  0  0  0  0  0  0  0
  2  1  1  1
  2  3  1  0
  2 12  1  0
  2 24  1  0
  3  4  1  0
  3  8  2  3
  4  5  2  3
  5  6  1  0
  5  7  1  0
  8  9  1  0
  9 10  1  1
  9 11  1  0
 12 13  1  0
 13 14  1  0
 14 15  1  0
 15 16  1  1
 15 17  1  0
 15 24  1  0
 17 18  1  0
 18 19  1  0
 19 20  1  6
 19 21  1  0
 19 23  1  0
 21 22  1  0
 24 23  1  6
M  END
