
     RDKit          3D

 22 23  0  0  0  0  0  0  0  0999 V2000
   -3.5710    2.3260    0.4770 C   0  0  0  0  0  0  0  0  0  0  0  0
   -3.1270    2.3760   -0.7320 C   0  0  0  0  0  0  0  0  0  0  0  0
   -1.7600    2.1340   -1.0990 C   0  0  0  0  0  0  0  0  0  0  0  0
   -1.5280    2.2950   -2.4270 C   0  0  0  0  0  0  0  0  0  0  0  0
    0.0360    2.0710   -3.1490 Cl  0  0  0  0  0  0  0  0  0  0  0  0
   -0.6430    1.7860   -0.2790 C   0  0  0  0  0  0  0  0  0  0  0  0
   -0.3810    0.4070    0.1810 C   0  0  2  0  0  0  0  0  0  0  0  0
    0.8690    0.4390    1.0050 C   0  0  0  0  0  0  0  0  0  0  0  0
    0.6660    0.1610    2.2740 O   0  0  0  0  0  0  0  0  0  0  0  0
    2.1740    0.7030    0.6750 N   0  0  0  0  0  0  0  0  0  0  0  0
    3.1700    0.6400    1.8060 C   0  0  0  0  0  0  0  0  0  0  0  0
    4.1460   -0.4840    1.5690 C   0  0  0  0  0  0  0  0  0  0  0  0
    4.1910   -0.9170    0.1880 N   0  0  0  0  0  0  0  0  0  0  0  0
    3.7880   -0.0880   -0.8740 C   0  0  0  0  0  0  0  0  0  0  0  0
    4.2280   -0.2900   -2.0250 O   0  0  0  0  0  0  0  0  0  0  0  0
    2.8200    1.0320   -0.5550 C   0  0  0  0  0  0  0  0  0  0  0  0
   -0.0650   -0.5730   -0.9640 C   0  0  0  0  0  0  0  0  0  0  0  0
   -0.3890   -1.9950   -0.4960 C   0  0  0  0  0  0  0  0  0  0  0  0
   -1.9050   -2.0930   -0.4940 C   0  0  1  0  0  0  0  0  0  0  0  0
   -2.2620   -3.4160   -0.0520 N   0  0  0  0  0  0  0  0  0  0  0  0
   -2.4800   -0.9990    0.4020 C   0  0  0  0  0  0  0  0  0  0  0  0
   -1.4140   -0.2300    1.0820 C   0  0  0  0  0  0  0  0  0  0  0  0
  1  2  2  0
  2  3  1  0
  3  4  2  3
  3  6  1  0
  4  5  1  0
  7  6  1  6
  7  8  1  0
  7 17  1  0
  7 22  1  0
  8  9  2  0
  8 10  1  0
 10 11  1  0
 10 16  1  0
 11 12  1  0
 12 13  1  0
 13 14  1  0
 14 15  2  0
 14 16  1  0
 17 18  1  0
 18 19  1  0
 19 20  1  1
 19 21  1  0
 21 22  1  0
M  CHG  1  20   1
M  END
