
     RDKit          3D

 22 23  0  0  0  0  0  0  0  0999 V2000
   -4.2330   -1.0270    3.0720 C   0  0  0  0  0  0  0  0  0  0  0  0
   -3.0290   -0.1670    2.8530 C   0  0  0  0  0  0  0  0  0  0  0  0
   -2.3240   -0.4790    1.5290 C   0  0  2  0  0  0  0  0  0  0  0  0
   -1.1390    0.4060    1.3710 C   0  0  0  0  0  0  0  0  0  0  0  0
   -0.7780    0.6850    0.0210 N   0  0  0  0  0  0  0  0  0  0  0  0
    0.4040    1.4580   -0.3120 C   0  0  0  0  0  0  0  0  0  0  0  0
    1.6320    0.9150   -0.4050 C   0  0  0  0  0  0  0  0  0  0  0  0
    1.8920   -0.4950   -0.1790 C   0  0  0  0  0  0  0  0  0  0  0  0
    2.9490   -1.1980   -0.1980 C   0  0  0  0  0  0  0  0  0  0  0  0
    2.6570   -2.9640    0.1670 Cl  0  0  0  0  0  0  0  0  0  0  0  0
    4.3320   -0.9240   -0.4040 C   0  0  0  0  0  0  0  0  0  0  0  0
    5.3860   -2.0110   -0.3810 C   0  0  0  0  0  0  0  0  0  0  0  0
    4.7950    0.2040   -0.6170 O   0  0  0  0  0  0  0  0  0  0  0  0
    2.6050    1.9780   -0.7990 C   0  0  0  0  0  0  0  0  0  0  0  0
    1.7210    3.1510   -1.2110 C   0  0  0  0  0  0  0  0  0  0  0  0
    0.4130    2.9170   -0.5670 C   0  0  0  0  0  0  0  0  0  0  0  0
   -1.6020    0.1910   -1.0380 C   0  0  0  0  0  0  0  0  0  0  0  0
   -1.0640    0.2550   -2.4100 C   0  0  0  0  0  0  0  0  0  0  0  0
   -1.8610   -0.2280   -3.4730 N   0  0  0  0  0  0  0  0  0  0  0  0
    0.0690    0.7200   -2.6710 O   0  0  0  0  0  0  0  0  0  0  0  0
   -2.8100   -0.3160   -0.8490 C   0  0  0  0  0  0  0  0  0  0  0  0
   -3.2930   -0.3610    0.4860 N   0  0  0  0  0  0  0  0  0  0  0  0
  1  2  1  0
  3  2  1  1
  3  4  1  0
  3 22  1  0
  4  5  1  0
  5  6  1  0
  5 17  1  0
  6  7  2  0
  6 16  1  0
  7  8  1  0
  7 14  1  0
  8  9  2  3
  9 10  1  0
  9 11  1  0
 11 12  1  0
 11 13  2  0
 14 15  1  0
 15 16  1  0
 17 18  1  0
 17 21  2  0
 18 19  1  0
 18 20  2  0
 21 22  1  0
M  END
