
     RDKit          3D

 22 23  0  0  0  0  0  0  0  0999 V2000
   -4.7390    3.1730   -0.2050 C   0  0  0  0  0  0  0  0  0  0  0  0
   -4.1870    1.7920    0.0390 C   0  0  0  0  0  0  0  0  0  0  0  0
   -2.9130    1.5130   -0.4140 C   0  0  0  0  0  0  0  0  0  0  0  0
   -2.3410    0.2820   -0.1090 C   0  0  0  0  0  0  0  0  0  0  0  0
   -0.9860   -0.1290   -0.1620 C   0  0  0  0  0  0  0  0  0  0  0  0
   -0.1700   -0.5610   -1.2220 N   0  0  0  0  0  0  0  0  0  0  0  0
    0.9150   -1.2730   -0.3310 C   0  0  0  0  0  0  0  0  0  0  0  0
    1.8430   -0.2050    0.1120 C   0  0  1  0  0  0  0  0  0  0  0  0
    2.5140   -0.5690    1.4470 C   0  0  0  0  0  0  0  0  0  0  0  0
    3.2570    0.6750    1.8550 C   0  0  0  0  0  0  0  0  0  0  0  0
    4.5740    0.6580    1.4610 O   0  0  0  0  0  0  0  0  0  0  0  0
    4.7720    1.2480    0.2380 C   0  0  0  0  0  0  0  0  0  0  0  0
    3.7400    1.0160   -0.8020 C   0  0  0  0  0  0  0  0  0  0  0  0
    3.0480   -0.2300   -0.8040 N   0  0  0  0  0  0  0  0  0  0  0  0
    3.9070   -1.3540   -0.5490 C   0  0  0  0  0  0  0  0  0  0  0  0
   -3.2070   -0.5600    0.6600 C   0  0  0  0  0  0  0  0  0  0  0  0
   -2.7170   -1.9300    0.8490 C   0  0  0  0  0  0  0  0  0  0  0  0
   -3.6230   -2.8800    0.6870 C   0  0  0  0  0  0  0  0  0  0  0  0
   -4.9330   -2.8000    0.3540 O   0  0  0  0  0  0  0  0  0  0  0  0
   -4.4260   -0.2250    1.0690 C   0  0  0  0  0  0  0  0  0  0  0  0
   -5.3910   -1.1590    2.2070 Cl  0  0  0  0  0  0  0  0  0  0  0  0
   -4.9420    0.9650    0.7540 N   0  0  0  0  0  0  0  0  0  0  0  0
  1  2  1  0
  2  3  2  0
  2 22  1  0
  3  4  1  0
  4  5  1  0
  4 16  2  0
  5  6  1  0
  6  7  1  0
  8  7  1  6
  8  9  1  0
  8 14  1  0
  9 10  1  0
 10 11  1  0
 11 12  1  0
 12 13  1  0
 13 14  1  0
 14 15  1  0
 16 17  1  0
 16 20  1  0
 17 18  2  3
 18 19  1  0
 20 21  1  0
 20 22  2  0
M  CHG  1   6   1
M  END
