
     RDKit          3D

 22 23  0  0  0  0  0  0  0  0999 V2000
    5.3670   -0.9120   -0.5960 C   0  0  0  0  0  0  0  0  0  0  0  0
    4.1720   -0.5040   -0.2670 C   0  0  0  0  0  0  0  0  0  0  0  0
    3.8150    0.8040   -0.1340 C   0  0  0  0  0  0  0  0  0  0  0  0
    4.5900    1.8290   -0.3070 C   0  0  0  0  0  0  0  0  0  0  0  0
    5.9810    1.9160   -0.6710 C   0  0  0  0  0  0  0  0  0  0  0  0
    6.4490    3.6820   -0.7000 Cl  0  0  0  0  0  0  0  0  0  0  0  0
    2.5050    1.1040    0.2210 N   0  0  0  0  0  0  0  0  0  0  0  0
    1.5750    0.1790    0.4400 C   0  0  0  0  0  0  0  0  0  0  0  0
    0.2710    0.5810    0.8030 N   0  0  0  0  0  0  0  0  0  0  0  0
   -0.8260   -0.3360    1.0610 C   0  0  2  0  0  0  0  0  0  0  0  0
   -1.2070   -1.1010   -0.1370 C   0  0  0  0  0  0  0  0  0  0  0  0
   -2.5300   -0.8910   -0.7410 C   0  0  2  0  0  0  0  0  0  0  0  0
   -3.1250   -2.2260   -1.2330 C   0  0  0  0  0  0  0  0  0  0  0  0
   -2.3910   -0.0850   -2.0470 C   0  0  0  0  0  0  0  0  0  0  0  0
   -3.5770   -0.2320    0.0650 C   0  0  0  0  0  0  0  0  0  0  0  0
   -3.0790    0.8010    1.0360 C   0  0  2  0  0  0  0  0  0  0  0  0
   -4.2180    1.0360    2.0370 C   0  0  0  0  0  0  0  0  0  0  0  0
   -2.9170    2.0210    0.3690 O   0  0  0  0  0  0  0  0  0  0  0  0
   -1.8880    0.3750    1.8070 C   0  0  0  0  0  0  0  0  0  0  0  0
    1.9470   -1.0960    0.3050 N   0  0  0  0  0  0  0  0  0  0  0  0
    3.1750   -1.4710   -0.0310 C   0  0  0  0  0  0  0  0  0  0  0  0
    3.5020   -2.6860   -0.1530 O   0  0  0  0  0  0  0  0  0  0  0  0
  1  2  2  0
  2  3  1  0
  2 21  1  0
  3  4  2  3
  3  7  1  0
  4  5  1  0
  5  6  1  0
  7  8  2  0
  8  9  1  0
  8 20  1  0
 10  9  1  6
 10 11  1  0
 10 19  1  0
 11 12  1  0
 12 13  1  6
 12 14  1  0
 12 15  1  0
 15 16  1  0
 16 17  1  1
 16 18  1  0
 16 19  1  0
 20 21  1  0
 21 22  2  0
M  END
