
     RDKit          3D

 21 22  0  0  0  0  0  0  0  0999 V2000
   -7.0000    0.2250   -0.5530 C   0  0  0  0  0  0  0  0  0  0  0  0
   -5.7600   -0.0490   -0.2140 C   0  0  0  0  0  0  0  0  0  0  0  0
   -5.3610   -1.1790    0.4380 N   0  0  0  0  0  0  0  0  0  0  0  0
   -4.0440   -1.1440    0.6560 C   0  0  0  0  0  0  0  0  0  0  0  0
   -3.5450    0.0180    0.1470 C   0  0  0  0  0  0  0  0  0  0  0  0
   -2.1260    0.4880    0.0280 C   0  0  1  0  0  0  0  0  0  0  0  0
   -1.8070    1.1480    1.3620 C   0  0  0  0  0  0  0  0  0  0  0  0
   -1.3080   -0.7660   -0.0010 N   0  0  0  0  0  0  0  0  0  0  0  0
    0.0510   -0.5520    0.3420 C   0  0  0  0  0  0  0  0  0  0  0  0
    0.7660    0.2370   -0.6810 C   0  0  0  0  0  0  0  0  0  0  0  0
    2.1790    0.4360   -0.3810 N   0  0  0  0  0  0  0  0  0  0  0  0
    3.0300   -0.7050   -0.2880 C   0  0  0  0  0  0  0  0  0  0  0  0
    2.5230   -1.8590   -0.4760 O   0  0  0  0  0  0  0  0  0  0  0  0
    4.4540   -0.5860    0.0150 C   0  0  0  0  0  0  0  0  0  0  0  0
    5.2730   -1.6330    0.1030 C   0  0  0  0  0  0  0  0  0  0  0  0
    6.6590   -1.1840    0.4210 C   0  0  0  0  0  0  0  0  0  0  0  0
    6.6220    0.2330   -0.1810 C   0  0  0  0  0  0  0  0  0  0  0  0
    5.2190    0.6520    0.2890 C   0  0  0  0  0  0  0  0  0  0  0  0
   -4.6340    0.7220   -0.4130 C   0  0  0  0  0  0  0  0  0  0  0  0
   -4.5270    1.9120   -0.9200 C   0  0  0  0  0  0  0  0  0  0  0  0
   -5.8070    2.9150   -1.5230 Cl  0  0  0  0  0  0  0  0  0  0  0  0
  1  2  2  0
  2  3  1  0
  2 19  1  0
  3  4  1  0
  4  5  2  0
  5  6  1  0
  5 19  1  0
  6  7  1  1
  6  8  1  0
  8  9  1  0
  9 10  1  0
 10 11  1  0
 11 12  1  0
 12 13  2  0
 12 14  1  0
 14 15  2  0
 14 18  1  0
 15 16  1  0
 16 17  1  0
 17 18  1  0
 19 20  2  3
 20 21  1  0
M  CHG  1   8   1
M  END
