
     RDKit          3D

 21 22  0  0  0  0  0  0  0  0999 V2000
    5.4790    0.5350   -1.9820 C   0  0  0  0  0  0  0  0  0  0  0  0
    6.1610    1.6120   -1.2390 C   0  0  0  0  0  0  0  0  0  0  0  0
    5.5920    2.1240   -0.1720 C   0  0  0  0  0  0  0  0  0  0  0  0
    4.2980    1.6350    0.2750 C   0  0  0  0  0  0  0  0  0  0  0  0
    3.6470    2.1420    1.4000 C   0  0  0  0  0  0  0  0  0  0  0  0
    2.4740    1.4300    1.4850 C   0  0  0  0  0  0  0  0  0  0  0  0
    2.4510    0.5360    0.4380 C   0  0  0  0  0  0  0  0  0  0  0  0
    1.4160   -0.4400    0.0980 C   0  0  0  0  0  0  0  0  0  0  0  0
    1.5200   -1.2040   -0.8990 O   0  0  0  0  0  0  0  0  0  0  0  0
    0.2270   -0.5890    0.8710 N   0  0  0  0  0  0  0  0  0  0  0  0
   -0.7990   -1.5570    0.5330 C   0  0  1  0  0  0  0  0  0  0  0  0
   -0.8860   -2.5540    1.6410 C   0  0  0  0  0  0  0  0  0  0  0  0
   -1.2200   -2.0000    2.9160 N   0  0  0  0  0  0  0  0  0  0  0  0
   -2.1070   -0.8520    0.3770 C   0  0  0  0  0  0  0  0  0  0  0  0
   -2.1500    0.1500   -0.6280 N   0  0  0  0  0  0  0  0  0  0  0  0
   -2.0560   -0.2780   -1.9700 C   0  0  0  0  0  0  0  0  0  0  0  0
   -3.3990   -0.2540   -2.6140 C   0  0  0  0  0  0  0  0  0  0  0  0
   -4.3320    0.2710   -1.5750 C   0  0  0  0  0  0  0  0  0  0  0  0
   -3.3860    0.8690   -0.5570 C   0  0  1  0  0  0  0  0  0  0  0  0
   -4.0720    0.7780    0.7850 C   0  0  0  0  0  0  0  0  0  0  0  0
    3.5480    0.6960   -0.2460 O   0  0  0  0  0  0  0  0  0  0  0  0
  1  2  1  0
  2  3  2  3
  3  4  1  0
  4  5  2  0
  4 21  1  0
  5  6  1  0
  6  7  2  0
  7  8  1  0
  7 21  1  0
  8  9  2  0
  8 10  1  0
 10 11  1  0
 11 12  1  1
 11 14  1  0
 12 13  1  0
 14 15  1  0
 15 16  1  0
 15 19  1  0
 16 17  1  0
 17 18  1  0
 18 19  1  0
 19 20  1  1
M  CHG  1  13   1
M  END
