
     RDKit          3D

 22 23  0  0  0  0  0  0  0  0999 V2000
    5.8310    0.7260   -0.2450 C   0  0  0  0  0  0  0  0  0  0  0  0
    4.7020    0.1880    0.5800 C   0  0  0  0  0  0  0  0  0  0  0  0
    3.3450    0.7510    0.1240 C   0  0  1  0  0  0  0  0  0  0  0  0
    3.1090    0.4000   -1.2320 N   0  0  0  0  0  0  0  0  0  0  0  0
    2.3210    0.4580    1.1060 C   0  0  0  0  0  0  0  0  0  0  0  0
    2.5640    0.9390    2.2890 O   0  0  0  0  0  0  0  0  0  0  0  0
    1.1200   -0.2510    1.0030 N   0  0  0  0  0  0  0  0  0  0  0  0
    0.1540   -0.4310    2.1270 C   0  0  0  0  0  0  0  0  0  0  0  0
    0.1040   -1.9530    2.1360 C   0  0  0  0  0  0  0  0  0  0  0  0
   -0.0620   -2.1990    0.6410 C   0  0  0  0  0  0  0  0  0  0  0  0
    0.4600   -0.9740   -0.0580 C   0  0  1  0  0  0  0  0  0  0  0  0
   -0.5600   -0.1130   -0.6320 C   0  0  0  0  0  0  0  0  0  0  0  0
   -0.7250    1.0520   -0.1920 O   0  0  0  0  0  0  0  0  0  0  0  0
   -1.4320   -0.4910   -1.7010 N   0  0  0  0  0  0  0  0  0  0  0  0
   -2.4270    0.4220   -2.2230 C   0  0  0  0  0  0  0  0  0  0  0  0
   -3.5930    0.5730   -1.3700 C   0  0  0  0  0  0  0  0  0  0  0  0
   -4.6230    1.4050   -1.7390 C   0  0  0  0  0  0  0  0  0  0  0  0
   -5.7500    1.5650   -0.9360 C   0  0  0  0  0  0  0  0  0  0  0  0
   -5.8340    0.8780    0.2480 C   0  0  0  0  0  0  0  0  0  0  0  0
   -4.8240    0.0440    0.6390 C   0  0  0  0  0  0  0  0  0  0  0  0
   -4.9640   -0.8170    2.1550 Cl  0  0  0  0  0  0  0  0  0  0  0  0
   -3.7050   -0.1030   -0.1790 C   0  0  0  0  0  0  0  0  0  0  0  0
  1  2  1  0
  2  3  1  0
  3  4  1  6
  3  5  1  0
  5  6  2  0
  5  7  1  0
  7  8  1  0
  7 11  1  0
  8  9  1  0
  9 10  1  0
 10 11  1  0
 11 12  1  1
 12 13  2  0
 12 14  1  0
 14 15  1  0
 15 16  1  0
 16 17  2  0
 16 22  1  0
 17 18  1  0
 18 19  2  0
 19 20  1  0
 20 21  1  0
 20 22  2  0
M  CHG  1   4   1
M  END
