
     RDKit          3D

 22 23  0  0  0  0  0  0  0  0999 V2000
    7.9430   -0.0010   -0.3850 C   0  0  0  0  0  0  0  0  0  0  0  0
    6.5870    0.6180   -0.5650 C   0  0  0  0  0  0  0  0  0  0  0  0
    6.3330    1.5400    0.5670 C   0  0  0  0  0  0  0  0  0  0  0  0
    7.3690    2.9570    0.7600 Cl  0  0  0  0  0  0  0  0  0  0  0  0
    5.3740    1.3230    1.4030 C   0  0  0  0  0  0  0  0  0  0  0  0
    4.4260    0.2110    1.4020 C   0  0  0  0  0  0  0  0  0  0  0  0
    4.6570   -1.1290    1.2040 C   0  0  0  0  0  0  0  0  0  0  0  0
    3.4450   -1.7680    1.2980 C   0  0  0  0  0  0  0  0  0  0  0  0
    2.5030   -0.8030    1.5520 C   0  0  0  0  0  0  0  0  0  0  0  0
    1.0610   -1.0660    1.7260 C   0  0  0  0  0  0  0  0  0  0  0  0
    0.2700   -0.3310    0.7310 N   0  0  0  0  0  0  0  0  0  0  0  0
   -1.1290   -0.4000    0.6820 C   0  0  0  0  0  0  0  0  0  0  0  0
   -1.7050   -1.1300    1.5350 O   0  0  0  0  0  0  0  0  0  0  0  0
   -1.9570    0.2800   -0.2440 N   0  0  0  0  0  0  0  0  0  0  0  0
   -3.4080    0.1500   -0.2230 C   0  0  2  0  0  0  0  0  0  0  0  0
   -3.9770   -0.4080   -1.4870 C   0  0  0  0  0  0  0  0  0  0  0  0
   -5.1540   -1.2810   -1.1750 C   0  0  0  0  0  0  0  0  0  0  0  0
   -6.0000   -0.8160   -0.0350 C   0  0  0  0  0  0  0  0  0  0  0  0
   -6.2720    0.6090   -0.0490 N   0  0  0  0  0  0  0  0  0  0  0  0
   -5.3510    1.3520    0.7720 C   0  0  0  0  0  0  0  0  0  0  0  0
   -3.9930    1.4990    0.1180 C   0  0  0  0  0  0  0  0  0  0  0  0
    3.1340    0.3410    1.6030 O   0  0  0  0  0  0  0  0  0  0  0  0
  1  2  1  0
  2  3  1  0
  3  4  1  0
  3  5  2  3
  5  6  1  0
  6  7  2  0
  6 22  1  0
  7  8  1  0
  8  9  2  0
  9 10  1  0
  9 22  1  0
 10 11  1  0
 11 12  1  0
 12 13  2  0
 12 14  1  0
 15 14  1  6
 15 16  1  0
 15 21  1  0
 16 17  1  0
 17 18  1  0
 18 19  1  0
 19 20  1  0
 20 21  1  0
M  CHG  1  19   1
M  END
