
     RDKit          3D

 22 23  0  0  0  0  0  0  0  0999 V2000
    4.0350   -2.5780   -1.8420 C   0  0  0  0  0  0  0  0  0  0  0  0
    3.7400   -1.6190   -0.8760 O   0  0  0  0  0  0  0  0  0  0  0  0
    4.2250   -0.3740   -1.2700 C   0  0  0  0  0  0  0  0  0  0  0  0
    3.9410    0.7000   -0.2770 C   0  0  2  0  0  0  0  0  0  0  0  0
    4.4540    0.3820    1.1050 C   0  0  0  0  0  0  0  0  0  0  0  0
    3.7150    1.4170    1.9470 C   0  0  0  0  0  0  0  0  0  0  0  0
    2.4670    1.7550    1.1290 C   0  0  0  0  0  0  0  0  0  0  0  0
    2.5260    0.8900   -0.0320 N   0  0  0  0  0  0  0  0  0  0  0  0
    1.4090    0.3810   -0.7240 C   0  0  0  0  0  0  0  0  0  0  0  0
    1.5860   -0.3600   -1.7190 O   0  0  0  0  0  0  0  0  0  0  0  0
    0.0560    0.7100   -0.2910 C   0  0  0  0  0  0  0  0  0  0  0  0
   -0.9750    0.1190   -1.0920 N   0  0  0  0  0  0  0  0  0  0  0  0
   -2.3720    0.3640   -0.7730 C   0  0  0  0  0  0  0  0  0  0  0  0
   -2.7530    1.6130   -0.8820 C   0  0  0  0  0  0  0  0  0  0  0  0
   -4.0200    2.2230   -0.6580 C   0  0  0  0  0  0  0  0  0  0  0  0
   -4.1860    3.5220   -0.8300 C   0  0  0  0  0  0  0  0  0  0  0  0
   -2.8030    4.4680   -1.3410 Cl  0  0  0  0  0  0  0  0  0  0  0  0
   -3.2020   -0.7390   -0.3730 C   0  0  0  0  0  0  0  0  0  0  0  0
   -2.7410   -2.0010   -0.2840 C   0  0  0  0  0  0  0  0  0  0  0  0
   -3.7730   -2.9370    0.1410 C   0  0  0  0  0  0  0  0  0  0  0  0
   -4.9380   -2.1590    0.3470 N   0  0  0  0  0  0  0  0  0  0  0  0
   -4.6100   -0.8120    0.0140 C   0  0  0  0  0  0  0  0  0  0  0  0
  1  2  1  0
  2  3  1  0
  4  3  1  6
  4  5  1  0
  4  8  1  0
  5  6  1  0
  6  7  1  0
  7  8  1  0
  8  9  1  0
  9 10  2  0
  9 11  1  0
 11 12  1  0
 12 13  1  0
 13 14  2  3
 13 18  1  0
 14 15  1  0
 15 16  2  3
 16 17  1  0
 18 19  2  0
 18 22  1  0
 19 20  1  0
 20 21  1  0
 21 22  1  0
M  CHG  1  21   1
M  END
