
     RDKit          3D

 31 31  0  0  0  0  0  0  0  0999 V2000
   -2.8820   -5.2250   -4.1630 C   0  0  0  0  0  0  0  0  0  0  0  0
   -2.9120   -4.5410   -2.9350 O   0  0  0  0  0  0  0  0  0  0  0  0
   -1.9730   -3.5730   -2.5740 C   0  0  0  0  0  0  0  0  0  0  0  0
   -1.0540   -3.2800   -3.3540 O   0  0  0  0  0  0  0  0  0  0  0  0
   -2.0450   -2.9020   -1.3100 N   0  0  0  0  0  0  0  0  0  0  0  0
   -1.0580   -1.9010   -0.9570 C   0  0  0  0  0  0  0  0  0  0  0  0
   -1.3840   -1.3670    0.4230 C   0  0  1  0  0  0  0  0  0  0  0  0
   -0.3830   -0.3250    0.8270 C   0  0  0  0  0  0  0  0  0  0  0  0
   -0.7310    0.8290    1.2050 O   0  0  0  0  0  0  0  0  0  0  0  0
    1.0170   -0.5840    0.8040 N   0  0  0  0  0  0  0  0  0  0  0  0
    1.9970    0.4150    1.1920 C   0  0  0  0  0  0  0  0  0  0  0  0
    3.3670   -0.2070    1.0420 C   0  0  2  0  0  0  0  0  0  0  0  0
    3.5440   -1.3180    1.8280 O   0  0  0  0  0  0  0  0  0  0  0  0
    4.4520    0.8600    1.2600 C   0  0  2  0  0  0  0  0  0  0  0  0
    4.3760    1.4690    2.6110 C   0  0  0  0  0  0  0  0  0  0  0  0
    5.3120    2.4730    2.9490 N   0  0  0  0  0  0  0  0  0  0  0  0
    4.8950    1.5930    0.0610 C   0  0  2  0  0  0  0  0  0  0  0  0
    4.1160    1.3940   -1.1470 N   0  0  0  0  0  0  0  0  0  0  0  0
    5.7450    0.4790    0.6110 C   0  0  1  0  0  0  0  0  0  0  0  0
    7.0180    0.7450    1.1880 N   0  0  0  0  0  0  0  0  0  0  0  0
   -2.7280   -0.8680    0.5210 N   0  0  0  0  0  0  0  0  0  0  0  0
   -3.6760   -1.5020    1.4170 C   0  0  0  0  0  0  0  0  0  0  0  0
   -3.1650    0.2470   -0.2470 C   0  0  0  0  0  0  0  0  0  0  0  0
   -2.4060    0.8560   -1.0490 O   0  0  0  0  0  0  0  0  0  0  0  0
   -4.4970    0.7370   -0.1480 N   0  0  0  0  0  0  0  0  0  0  0  0
   -4.9370    1.8620   -0.9220 C   0  0  1  0  0  0  0  0  0  0  0  0
   -6.0470    1.4600   -1.8950 C   0  0  0  0  0  0  0  0  0  0  0  0
   -5.5180    0.4880   -2.7280 F   0  0  0  0  0  0  0  0  0  0  0  0
   -5.3730    2.9840   -0.0480 C   0  0  0  0  0  0  0  0  0  0  0  0
   -5.8430    4.1910   -0.6240 N   0  0  0  0  0  0  0  0  0  0  0  0
   -5.3380    2.9000    1.2070 O   0  0  0  0  0  0  0  0  0  0  0  0
  1  2  1  0
  2  3  1  0
  3  4  2  0
  3  5  1  0
  5  6  1  0
  7  6  1  6
  7  8  1  0
  7 21  1  0
  8  9  2  0
  8 10  1  0
 10 11  1  0
 11 12  1  0
 12 13  1  1
 12 14  1  0
 14 15  1  1
 14 17  1  0
 14 19  1  0
 15 16  1  0
 17 18  1  6
 17 19  1  0
 19 20  1  1
 21 22  1  0
 21 23  1  0
 23 24  2  0
 23 25  1  0
 25 26  1  0
 26 27  1  1
 26 29  1  0
 27 28  1  0
 29 30  1  0
 29 31  2  0
M  CHG  2  16   1  20   1
M  END
