
     RDKit          3D

 31 31  0  0  0  0  0  0  0  0999 V2000
   -5.9510    3.0990    0.6730 N   0  0  0  0  0  0  0  0  0  0  0  0
   -6.2300    1.7930    0.2170 C   0  0  0  0  0  0  0  0  0  0  0  0
   -7.3580    1.3020    0.4080 O   0  0  0  0  0  0  0  0  0  0  0  0
   -5.2270    0.9700   -0.4880 C   0  0  0  0  0  0  0  0  0  0  0  0
   -4.1160    1.4590   -0.6750 O   0  0  0  0  0  0  0  0  0  0  0  0
   -5.5030   -0.3280   -0.9390 N   0  0  0  0  0  0  0  0  0  0  0  0
   -4.7000   -1.2770   -1.6070 C   0  0  0  0  0  0  0  0  0  0  0  0
   -3.5280   -1.8950   -0.9640 C   0  0  1  0  0  0  0  0  0  0  0  0
   -2.4470   -1.0870   -0.5620 N   0  0  0  0  0  0  0  0  0  0  0  0
   -1.1270   -1.4310   -1.0530 C   0  0  0  0  0  0  0  0  0  0  0  0
   -0.9940   -2.4380   -1.8160 O   0  0  0  0  0  0  0  0  0  0  0  0
    0.1070   -0.7130   -0.7450 C   0  0  2  0  0  0  0  0  0  0  0  0
    0.9500   -1.4440    0.2880 C   0  0  0  0  0  0  0  0  0  0  0  0
    2.2900   -0.7300    0.3400 C   0  0  2  0  0  0  0  0  0  0  0  0
    3.1910   -1.4490    1.3170 C   0  0  0  0  0  0  0  0  0  0  0  0
    4.5510   -0.8280    1.4210 C   0  0  0  0  0  0  0  0  0  0  0  0
    5.2410   -0.8530    0.1430 N   0  0  0  0  0  0  0  0  0  0  0  0
    5.7830    0.4130   -0.0810 N   0  0  0  0  0  0  0  0  0  0  0  0
    6.6530    0.9360    0.9080 C   0  0  0  0  0  0  0  0  0  0  0  0
    6.9250    0.2720    1.9560 O   0  0  0  0  0  0  0  0  0  0  0  0
    7.2760    2.2670    0.7610 C   0  0  0  0  0  0  0  0  0  0  0  0
    8.0660    2.5710    1.8350 F   0  0  0  0  0  0  0  0  0  0  0  0
    2.0970    0.6830    0.8680 C   0  0  0  0  0  0  0  0  0  0  0  0
    0.6080    1.0040    0.9570 C   0  0  0  0  0  0  0  0  0  0  0  0
   -0.0650    0.6400   -0.2620 N   0  0  0  0  0  0  0  0  0  0  0  0
   -0.8500    1.5960   -0.9460 C   0  0  0  0  0  0  0  0  0  0  0  0
   -1.0890    2.9160   -0.5540 N   0  0  0  0  0  0  0  0  0  0  0  0
   -1.4010    1.2190   -2.0390 O   0  0  0  0  0  0  0  0  0  0  0  0
   -3.9670   -2.8130    0.1510 C   0  0  0  0  0  0  0  0  0  0  0  0
   -5.0270   -3.6890   -0.0670 N   0  0  0  0  0  0  0  0  0  0  0  0
   -3.3650   -2.7510    1.2210 O   0  0  0  0  0  0  0  0  0  0  0  0
  1  2  1  0
  2  3  2  0
  2  4  1  0
  4  5  2  0
  4  6  1  0
  6  7  1  0
  8  7  1  1
  8  9  1  0
  8 29  1  0
  9 10  1  0
 10 11  2  0
 12 10  1  1
 12 13  1  0
 12 25  1  0
 13 14  1  0
 14 15  1  1
 14 23  1  0
 15 16  1  0
 16 17  1  0
 17 18  1  0
 18 19  1  0
 19 20  2  0
 19 21  1  0
 21 22  1  0
 23 24  1  0
 24 25  1  0
 25 26  1  0
 26 27  1  0
 26 28  2  0
 29 30  1  0
 29 31  2  0
M  CHG  2  17   1  27   1
M  END
