
     RDKit          3D

 31 31  0  0  0  0  0  0  0  0999 V2000
    2.4630    4.2690   -2.0380 C   0  0  0  0  0  0  0  0  0  0  0  0
    1.6320    3.2740   -1.6180 O   0  0  0  0  0  0  0  0  0  0  0  0
    0.9250    2.3840   -1.2710 C   0  0  0  0  0  0  0  0  0  0  0  0
    0.7780    1.0010   -1.4400 C   0  0  0  0  0  0  0  0  0  0  0  0
   -0.0440    0.1290   -0.9670 C   0  0  0  0  0  0  0  0  0  0  0  0
    0.2150   -1.4110   -0.9160 C   0  0  1  0  0  0  0  0  0  0  0  0
    0.8690   -1.3290    0.4700 N   0  0  0  0  0  0  0  0  0  0  0  0
    2.1680   -0.8400    0.5520 C   0  0  0  0  0  0  0  0  0  0  0  0
    2.8060   -0.5770   -0.5340 O   0  0  0  0  0  0  0  0  0  0  0  0
    2.8830   -0.5600    1.8290 C   0  0  0  0  0  0  0  0  0  0  0  0
    2.5280   -1.0160    2.9300 O   0  0  0  0  0  0  0  0  0  0  0  0
    4.0340    0.3050    1.7810 N   0  0  0  0  0  0  0  0  0  0  0  0
    4.6000    0.6120    3.0650 N   0  0  0  0  0  0  0  0  0  0  0  0
    4.8790    1.9420    3.3260 C   0  0  0  0  0  0  0  0  0  0  0  0
    4.7300    2.9200    2.5790 O   0  0  0  0  0  0  0  0  0  0  0  0
    5.4620    2.4070    4.7000 C   0  0  0  0  0  0  0  0  0  0  0  0
    5.6000    1.2500    5.5230 N   0  0  0  0  0  0  0  0  0  0  0  0
   -1.0920   -1.9840   -0.7670 C   0  0  0  0  0  0  0  0  0  0  0  0
   -1.4040   -2.3830    0.4300 O   0  0  0  0  0  0  0  0  0  0  0  0
   -2.1030   -2.1650   -1.7590 N   0  0  0  0  0  0  0  0  0  0  0  0
   -3.3520   -2.7340   -1.3940 C   0  0  1  0  0  0  0  0  0  0  0  0
   -4.1070   -1.7530   -0.4660 C   0  0  0  0  0  0  0  0  0  0  0  0
   -5.3400   -2.2440   -0.1080 O   0  0  0  0  0  0  0  0  0  0  0  0
   -4.1800   -3.2490   -2.4020 N   0  0  0  0  0  0  0  0  0  0  0  0
   -5.0080   -2.3950   -3.1880 C   0  0  0  0  0  0  0  0  0  0  0  0
   -4.5980   -1.1850   -3.4600 N   0  0  0  0  0  0  0  0  0  0  0  0
   -6.2660   -2.8070   -3.6970 N   0  0  0  0  0  0  0  0  0  0  0  0
   -1.0490    0.5910   -0.1120 C   0  0  0  0  0  0  0  0  0  0  0  0
   -1.0370    1.9680    0.1520 C   0  0  0  0  0  0  0  0  0  0  0  0
   -0.2230    2.8330   -0.2960 C   0  0  0  0  0  0  0  0  0  0  0  0
   -0.1170    4.1620   -0.0690 F   0  0  0  0  0  0  0  0  0  0  0  0
  1  2  1  0
  2  3  1  0
  3  4  2  0
  3 30  1  0
  4  5  1  0
  5  6  1  0
  5 28  2  0
  6  7  1  1
  6 18  1  0
  7  8  1  0
  8  9  2  0
  8 10  1  0
 10 11  2  0
 10 12  1  0
 12 13  1  0
 13 14  1  0
 14 15  2  0
 14 16  1  0
 16 17  1  0
 18 19  2  0
 18 20  1  0
 20 21  1  0
 21 22  1  6
 21 24  1  0
 22 23  1  0
 24 25  1  0
 25 26  2  0
 25 27  1  0
 28 29  1  0
 29 30  2  0
 30 31  1  0
M  CHG  3  17   1  26   1  27   1
M  END
