
     RDKit          3D

 29 31  0  0  0  0  0  0  0  0999 V2000
    8.7360    0.3910   -0.3940 N   0  0  0  0  0  0  0  0  0  0  0  0
    7.6570    0.2150   -1.3350 C   0  0  0  0  0  0  0  0  0  0  0  0
    7.9760   -0.3910   -2.4170 N   0  0  0  0  0  0  0  0  0  0  0  0
    6.3310    0.7090   -1.0200 C   0  0  0  0  0  0  0  0  0  0  0  0
    6.1050    1.3480    0.1770 C   0  0  0  0  0  0  0  0  0  0  0  0
    4.8600    1.8190    0.4940 C   0  0  0  0  0  0  0  0  0  0  0  0
    3.7780    1.6750   -0.3700 C   0  0  0  0  0  0  0  0  0  0  0  0
    2.4340    2.1790   -0.0370 C   0  0  0  0  0  0  0  0  0  0  0  0
    1.6840    1.2790    0.7910 N   0  0  0  0  0  0  0  0  0  0  0  0
    1.0590    0.0920    0.3330 C   0  0  0  0  0  0  0  0  0  0  0  0
    1.1620   -0.2000   -0.8810 O   0  0  0  0  0  0  0  0  0  0  0  0
    0.3000   -0.7820    1.2780 C   0  0  2  0  0  0  0  0  0  0  0  0
    1.3150   -1.4060    2.2210 C   0  0  0  0  0  0  0  0  0  0  0  0
    1.8550   -2.5490    1.4020 C   0  0  0  0  0  0  0  0  0  0  0  0
    0.8630   -2.8030    0.2850 C   0  0  0  0  0  0  0  0  0  0  0  0
   -0.2380   -1.9410    0.6160 N   0  0  0  0  0  0  0  0  0  0  0  0
   -1.5990   -2.1790    0.3460 C   0  0  0  0  0  0  0  0  0  0  0  0
   -1.9180   -3.2480   -0.2470 O   0  0  0  0  0  0  0  0  0  0  0  0
   -2.6690   -1.1970    0.7450 C   0  0  0  0  0  0  0  0  0  0  0  0
   -3.9370   -1.7260    0.3370 N   0  0  0  0  0  0  0  0  0  0  0  0
   -4.9650   -0.7310    0.1260 C   0  0  2  0  0  0  0  0  0  0  0  0
   -5.0880   -0.4560   -1.3420 C   0  0  0  0  0  0  0  0  0  0  0  0
   -6.0970    0.5720   -1.7060 C   0  0  0  0  0  0  0  0  0  0  0  0
   -6.8680    1.1370   -0.5420 C   0  0  0  0  0  0  0  0  0  0  0  0
   -6.0490    2.3040   -0.0080 C   0  0  0  0  0  0  0  0  0  0  0  0
   -4.6490    1.7580    0.2300 C   0  0  0  0  0  0  0  0  0  0  0  0
   -4.7960    0.4600    0.9800 C   0  0  0  0  0  0  0  0  0  0  0  0
    4.0110    1.0380   -1.5610 C   0  0  0  0  0  0  0  0  0  0  0  0
    5.2930    0.5560   -1.8800 C   0  0  0  0  0  0  0  0  0  0  0  0
  1  2  1  0
  2  3  2  0
  2  4  1  0
  4  5  2  0
  4 29  1  0
  5  6  1  0
  6  7  2  0
  7  8  1  0
  7 28  1  0
  8  9  1  0
  9 10  1  0
 10 11  2  0
 12 10  1  6
 12 13  1  0
 12 16  1  0
 13 14  1  0
 14 15  1  0
 15 16  1  0
 16 17  1  0
 17 18  2  0
 17 19  1  0
 19 20  1  0
 21 20  1  6
 21 22  1  0
 21 27  1  0
 22 23  1  0
 23 24  1  0
 24 25  1  0
 25 26  1  0
 26 27  1  0
 28 29  2  0
M  CHG  2   3   1  20   1
M  END
