
     RDKit          3D

 30 31  0  0  0  0  0  0  0  0999 V2000
    1.5920   -2.2380   -2.6940 N   0  0  0  0  0  0  0  0  0  0  0  0
    2.6560   -2.0550   -1.7450 C   0  0  0  0  0  0  0  0  0  0  0  0
    3.5620   -2.9120   -1.7930 O   0  0  0  0  0  0  0  0  0  0  0  0
    2.6060   -0.9340   -0.8350 C   0  0  0  0  0  0  0  0  0  0  0  0
    1.4720   -0.1770   -0.8140 N   0  0  0  0  0  0  0  0  0  0  0  0
    1.3520    0.8620    0.0260 C   0  0  0  0  0  0  0  0  0  0  0  0
    0.0800    1.6210   -0.0290 C   0  0  2  0  0  0  0  0  0  0  0  0
    0.0070    2.6620    1.0700 C   0  0  0  0  0  0  0  0  0  0  0  0
   -1.2880    3.4090    0.9630 C   0  0  0  0  0  0  0  0  0  0  0  0
   -1.3990    4.1240   -0.3710 C   0  0  0  0  0  0  0  0  0  0  0  0
   -0.2930    5.0430   -0.4930 N   0  0  0  0  0  0  0  0  0  0  0  0
   -1.0450    0.7400   -0.0720 N   0  0  0  0  0  0  0  0  0  0  0  0
   -1.7290    0.1990    1.0260 C   0  0  0  0  0  0  0  0  0  0  0  0
   -1.3700    0.4640    2.1950 O   0  0  0  0  0  0  0  0  0  0  0  0
   -2.8610   -0.6740    0.8610 N   0  0  0  0  0  0  0  0  0  0  0  0
   -3.5880   -1.2270    1.9870 C   0  0  0  0  0  0  0  0  0  0  0  0
   -5.0010   -1.4050    1.4460 C   0  0  0  0  0  0  0  0  0  0  0  0
   -4.7040   -1.8680    0.0470 C   0  0  0  0  0  0  0  0  0  0  0  0
   -3.4590   -1.1410   -0.3400 C   0  0  2  0  0  0  0  0  0  0  0  0
   -2.5490   -1.9870   -1.1530 C   0  0  0  0  0  0  0  0  0  0  0  0
   -2.9700   -2.4850   -2.3890 N   0  0  0  0  0  0  0  0  0  0  0  0
   -1.4120   -2.2470   -0.7240 O   0  0  0  0  0  0  0  0  0  0  0  0
    2.3500    1.1880    0.8720 N   0  0  0  0  0  0  0  0  0  0  0  0
    3.4730    0.4670    0.8750 C   0  0  0  0  0  0  0  0  0  0  0  0
    4.3990    0.7590    1.6530 O   0  0  0  0  0  0  0  0  0  0  0  0
    3.6350   -0.6250    0.0120 C   0  0  0  0  0  0  0  0  0  0  0  0
    4.9350   -1.3390    0.0370 C   0  0  2  0  0  0  0  0  0  0  0  0
    5.4750   -1.4810   -1.2250 O   0  0  0  0  0  0  0  0  0  0  0  0
    4.7470   -2.6420    0.5450 O   0  0  0  0  0  0  0  0  0  0  0  0
    5.4870   -2.8120    1.6750 N   0  0  0  0  0  0  0  0  0  0  0  0
  1  2  1  0
  2  3  2  0
  2  4  1  0
  4  5  1  0
  4 26  2  0
  5  6  1  0
  6  7  1  0
  6 23  2  0
  7  8  1  1
  7 12  1  0
  8  9  1  0
  9 10  1  0
 10 11  1  0
 12 13  1  0
 13 14  2  0
 13 15  1  0
 15 16  1  0
 15 19  1  0
 16 17  1  0
 17 18  1  0
 18 19  1  0
 19 20  1  1
 20 21  1  0
 20 22  2  0
 23 24  1  0
 24 25  2  0
 24 26  1  0
 26 27  1  0
 27 28  1  6
 27 29  1  0
 29 30  1  0
M  CHG  2  11   1  30   1
M  END
