
     RDKit          3D

 30 33  0  0  0  0  0  0  0  0999 V2000
    0.1030   -1.7100    0.6000 O   0  0  0  0  0  0  0  0  0  0  0  0
    0.2580   -1.0200   -0.4100 C   0  0  0  0  0  0  0  0  0  0  0  0
   -0.7930   -0.2590   -0.9380 N   0  0  0  0  0  0  0  0  0  0  0  0
   -2.1160   -0.1650   -0.4330 C   0  0  0  0  0  0  0  0  0  0  0  0
   -2.5630   -0.8260    0.6750 C   0  0  0  0  0  0  0  0  0  0  0  0
   -3.8830   -0.6920    1.1250 C   0  0  0  0  0  0  0  0  0  0  0  0
   -4.4080   -1.5610    2.5680 Cl  0  0  0  0  0  0  0  0  0  0  0  0
   -4.7970    0.1070    0.4810 C   0  0  0  0  0  0  0  0  0  0  0  0
   -6.1670    0.2470    0.9340 C   0  0  0  0  0  0  0  0  0  0  0  0
   -6.7420    1.4850    1.0490 C   0  0  0  0  0  0  0  0  0  0  0  0
   -8.0680    1.6160    1.4820 C   0  0  0  0  0  0  0  0  0  0  0  0
   -8.7770    0.5220    1.7840 N   0  0  0  0  0  0  0  0  0  0  0  0
   -8.2400   -0.7200    1.6820 C   0  0  0  0  0  0  0  0  0  0  0  0
   -6.9080   -0.8580    1.2480 C   0  0  0  0  0  0  0  0  0  0  0  0
   -4.3350    0.7790   -0.6490 C   0  0  0  0  0  0  0  0  0  0  0  0
   -3.0570    0.6420   -1.0740 C   0  0  0  0  0  0  0  0  0  0  0  0
   -2.5840    1.3190   -2.2170 O   0  0  0  0  0  0  0  0  0  0  0  0
    1.6030   -1.0340   -1.0350 C   0  0  0  0  0  0  0  0  0  0  0  0
    2.0000   -0.3740   -2.1200 N   0  0  0  0  0  0  0  0  0  0  0  0
    3.1640   -0.4760   -2.5390 N   0  0  0  0  0  0  0  0  0  0  0  0
    4.0860   -1.2200   -1.9720 C   0  0  0  0  0  0  0  0  0  0  0  0
    5.7540   -1.6270   -2.2200 S   0  0  0  0  0  0  0  0  0  0  0  0
    6.8120   -0.4780   -1.3680 C   0  0  0  0  0  0  0  0  0  0  0  0
    7.7190   -0.9050   -0.5090 C   0  0  0  0  0  0  0  0  0  0  0  0
    8.5800    0.0480    0.1840 C   0  0  0  0  0  0  0  0  0  0  0  0
    8.5920    1.4180    0.0720 C   0  0  0  0  0  0  0  0  0  0  0  0
    9.5400    1.8740    0.8880 N   0  0  0  0  0  0  0  0  0  0  0  0
   10.1060    0.8250    1.4940 C   0  0  0  0  0  0  0  0  0  0  0  0
    9.5090   -0.2510    1.0510 O   0  0  0  0  0  0  0  0  0  0  0  0
    3.0090   -1.8700   -0.5760 S   0  0  0  0  0  0  0  0  0  0  0  0
  1  2  2  0
  2  3  1  0
  2 18  1  0
  3  4  1  0
  4  5  2  0
  4 16  1  0
  5  6  1  0
  6  7  1  0
  6  8  2  0
  8  9  1  0
  8 15  1  0
  9 10  2  0
  9 14  1  0
 10 11  1  0
 11 12  2  0
 12 13  1  0
 13 14  2  0
 15 16  2  0
 16 17  1  0
 18 19  2  0
 18 30  1  0
 19 20  1  0
 20 21  2  0
 21 22  1  0
 21 30  1  0
 22 23  1  0
 23 24  2  3
 24 25  1  0
 25 26  2  0
 25 29  1  0
 26 27  1  0
 27 28  2  0
 28 29  1  0
M  END
