
     RDKit          3D

 30 33  0  0  0  0  0  0  0  0999 V2000
   -3.9810    5.0710    0.3440 O   0  0  0  0  0  0  0  0  0  0  0  0
   -4.5910    4.1930   -1.0020 S   0  0  0  0  0  0  0  0  0  0  0  0
   -5.0740    2.5030   -0.4890 C   0  0  0  0  0  0  0  0  0  0  0  0
   -3.8860    1.7210   -0.0780 C   0  0  0  0  0  0  0  0  0  0  0  0
   -3.0390    1.2930   -0.9660 N   0  0  0  0  0  0  0  0  0  0  0  0
   -1.8930    0.5470   -0.6390 C   0  0  0  0  0  0  0  0  0  0  0  0
   -0.6520    1.0640   -0.6110 N   0  0  0  0  0  0  0  0  0  0  0  0
    0.1910    0.0800   -0.2610 C   0  0  0  0  0  0  0  0  0  0  0  0
    1.6580    0.1750   -0.1000 C   0  0  0  0  0  0  0  0  0  0  0  0
    2.3310   -0.9550    0.2760 C   0  0  0  0  0  0  0  0  0  0  0  0
    3.7020   -0.8870    0.4320 C   0  0  0  0  0  0  0  0  0  0  0  0
    4.4070   -2.0270    0.8150 O   0  0  0  0  0  0  0  0  0  0  0  0
    4.3720    0.2670    0.2190 C   0  0  0  0  0  0  0  0  0  0  0  0
    5.8640    0.4050    0.3770 C   0  0  0  0  0  0  0  0  0  0  0  0
    6.7050    1.1430    0.2870 N   0  0  0  0  0  0  0  0  0  0  0  0
    8.0090    0.9770    0.5030 C   0  0  0  0  0  0  0  0  0  0  0  0
    8.3940   -0.2190    0.8760 C   0  0  0  0  0  0  0  0  0  0  0  0
    6.7890   -1.1490    0.9170 S   0  0  0  0  0  0  0  0  0  0  0  0
    3.6560    1.3840   -0.1600 C   0  0  0  0  0  0  0  0  0  0  0  0
    2.2890    1.3560   -0.3250 C   0  0  0  0  0  0  0  0  0  0  0  0
    1.5500    2.4600   -0.7030 O   0  0  0  0  0  0  0  0  0  0  0  0
   -0.5750   -1.0090   -0.0880 N   0  0  0  0  0  0  0  0  0  0  0  0
   -1.8540   -0.7530   -0.3120 N   0  0  0  0  0  0  0  0  0  0  0  0
   -2.9080   -1.6940   -0.2130 C   0  0  0  0  0  0  0  0  0  0  0  0
   -4.1020   -1.6000   -0.8770 C   0  0  0  0  0  0  0  0  0  0  0  0
   -5.0960   -2.5400   -0.7500 C   0  0  0  0  0  0  0  0  0  0  0  0
   -4.9180   -3.6380    0.0740 C   0  0  0  0  0  0  0  0  0  0  0  0
   -6.1430   -4.8670    0.2780 Cl  0  0  0  0  0  0  0  0  0  0  0  0
   -3.7370   -3.7570    0.7490 C   0  0  0  0  0  0  0  0  0  0  0  0
   -2.7580   -2.8000    0.6020 C   0  0  0  0  0  0  0  0  0  0  0  0
  1  2  1  0
  2  3  1  0
  3  4  1  0
  4  5  2  3
  5  6  1  0
  6  7  2  0
  6 23  1  0
  7  8  1  0
  8  9  1  0
  8 22  2  0
  9 10  2  0
  9 20  1  0
 10 11  1  0
 11 12  1  0
 11 13  2  0
 13 14  1  0
 13 19  1  0
 14 15  2  0
 14 18  1  0
 15 16  1  0
 16 17  2  0
 17 18  1  0
 19 20  2  0
 20 21  1  0
 22 23  1  0
 23 24  1  0
 24 25  2  0
 24 30  1  0
 25 26  1  0
 26 27  2  0
 27 28  1  0
 27 29  1  0
 29 30  2  0
M  END
