
     RDKit          3D

 30 33  0  0  0  0  0  0  0  0999 V2000
   -6.7620    0.6730    0.5580 O   0  0  0  0  0  0  0  0  0  0  0  0
   -6.3640   -0.2740    1.2730 N   0  0  0  0  0  0  0  0  0  0  0  0
   -5.8920   -1.4480    0.6420 C   0  0  0  0  0  0  0  0  0  0  0  0
   -6.5300   -2.6680    0.7350 C   0  0  0  0  0  0  0  0  0  0  0  0
   -6.0140   -3.7660    0.0960 C   0  0  0  0  0  0  0  0  0  0  0  0
   -4.8820   -3.6280   -0.6180 N   0  0  0  0  0  0  0  0  0  0  0  0
   -4.2280   -2.4710   -0.7390 C   0  0  0  0  0  0  0  0  0  0  0  0
   -4.7250   -1.3570   -0.1080 C   0  0  0  0  0  0  0  0  0  0  0  0
   -4.0380   -0.1240   -0.2300 N   0  0  0  0  0  0  0  0  0  0  0  0
   -2.7000   -0.2440   -0.1720 C   0  0  0  0  0  0  0  0  0  0  0  0
   -1.4910   -1.0920   -0.0330 S   0  0  0  0  0  0  0  0  0  0  0  0
    0.0480   -0.2090   -0.0800 C   0  0  0  0  0  0  0  0  0  0  0  0
    1.3160   -0.9690    0.0900 C   0  0  0  0  0  0  0  0  0  0  0  0
    1.2240   -2.2490    0.0010 O   0  0  0  0  0  0  0  0  0  0  0  0
    2.5750   -0.4460    0.3470 N   0  0  0  0  0  0  0  0  0  0  0  0
    3.7080   -1.3390    0.4670 C   0  0  0  0  0  0  0  0  0  0  0  0
    4.4990   -1.4970    1.5160 C   0  0  0  0  0  0  0  0  0  0  0  0
    5.5110   -2.5070    1.1840 C   0  0  0  0  0  0  0  0  0  0  0  0
    5.2090   -2.9030   -0.1590 N   0  0  0  0  0  0  0  0  0  0  0  0
    4.1850   -2.2390   -0.5650 C   0  0  0  0  0  0  0  0  0  0  0  0
   -0.1850    1.1000   -0.2490 C   0  0  0  0  0  0  0  0  0  0  0  0
    0.7760    2.2610   -0.3880 C   0  0  0  0  0  0  0  0  0  0  0  0
    0.4430    3.4920    0.1540 C   0  0  0  0  0  0  0  0  0  0  0  0
    1.1740    4.6230   -0.0540 C   0  0  0  0  0  0  0  0  0  0  0  0
    2.2990    4.5320   -0.8410 C   0  0  0  0  0  0  0  0  0  0  0  0
    3.0850    5.6690   -1.0840 O   0  0  0  0  0  0  0  0  0  0  0  0
    2.6400    3.3130   -1.3850 C   0  0  0  0  0  0  0  0  0  0  0  0
    4.0710    3.2310   -2.3790 Cl  0  0  0  0  0  0  0  0  0  0  0  0
    1.8740    2.1750   -1.1570 C   0  0  0  0  0  0  0  0  0  0  0  0
   -1.8940    1.4300   -0.3400 S   0  0  0  0  0  0  0  0  0  0  0  0
  1  2  2  0
  2  3  1  0
  3  4  2  0
  3  8  1  0
  4  5  1  0
  5  6  2  0
  6  7  1  0
  7  8  2  0
  8  9  1  0
  9 10  2  3
 10 11  1  0
 10 30  1  0
 11 12  1  0
 12 13  1  0
 12 21  2  0
 13 14  2  0
 13 15  1  0
 15 16  1  0
 16 17  2  0
 16 20  1  0
 17 18  1  0
 18 19  1  0
 19 20  2  0
 21 22  1  0
 21 30  1  0
 22 23  2  0
 22 29  1  0
 23 24  1  0
 24 25  2  0
 25 26  1  0
 25 27  1  0
 27 28  1  0
 27 29  2  0
M  END
