
     RDKit          3D

 29 32  0  0  0  0  0  0  0  0999 V2000
    1.3200   -0.7520   -0.8280 O   0  0  0  0  0  0  0  0  0  0  0  0
    1.6780   -0.9830    0.3510 C   0  0  0  0  0  0  0  0  0  0  0  0
    3.0420   -0.6160    0.7640 C   0  0  0  0  0  0  0  0  0  0  0  0
    3.7400   -0.0380   -0.3010 O   0  0  0  0  0  0  0  0  0  0  0  0
    3.3700    1.1010   -0.9630 C   0  0  0  0  0  0  0  0  0  0  0  0
    4.1030    1.6210   -2.0070 C   0  0  0  0  0  0  0  0  0  0  0  0
    3.6900    2.7520   -2.6270 N   0  0  0  0  0  0  0  0  0  0  0  0
    2.5670    3.3770   -2.2340 C   0  0  0  0  0  0  0  0  0  0  0  0
    1.8350    2.8730   -1.2050 C   0  0  0  0  0  0  0  0  0  0  0  0
    2.2560    1.7450   -0.5940 N   0  0  0  0  0  0  0  0  0  0  0  0
    0.7280   -1.5900    1.2080 N   0  0  0  0  0  0  0  0  0  0  0  0
   -0.6220   -1.9320    0.7320 C   0  0  0  0  0  0  0  0  0  0  0  0
   -1.5930   -1.0010    0.8590 C   0  0  0  0  0  0  0  0  0  0  0  0
   -1.6370    0.2960    1.3640 N   0  0  0  0  0  0  0  0  0  0  0  0
   -2.1760    1.2420    0.6750 C   0  0  0  0  0  0  0  0  0  0  0  0
   -2.2540    2.6000    1.1350 C   0  0  0  0  0  0  0  0  0  0  0  0
   -2.7910    3.7040    0.5210 C   0  0  0  0  0  0  0  0  0  0  0  0
   -2.7380    4.8590    1.1620 C   0  0  0  0  0  0  0  0  0  0  0  0
   -2.1720    4.9710    2.3950 C   0  0  0  0  0  0  0  0  0  0  0  0
   -1.9400    6.2750    3.4780 Cl  0  0  0  0  0  0  0  0  0  0  0  0
   -1.6420    3.2190    2.6970 S   0  0  0  0  0  0  0  0  0  0  0  0
   -3.0430   -1.8760    0.1460 S   0  0  0  0  0  0  0  0  0  0  0  0
   -2.2060   -3.3320   -0.2240 C   0  0  0  0  0  0  0  0  0  0  0  0
   -2.6520   -4.5310   -0.8140 C   0  0  0  0  0  0  0  0  0  0  0  0
   -1.7790   -5.5780   -1.0120 C   0  0  0  0  0  0  0  0  0  0  0  0
   -0.5130   -5.3450   -0.6000 N   0  0  0  0  0  0  0  0  0  0  0  0
   -0.0710   -4.2300   -0.0450 C   0  0  0  0  0  0  0  0  0  0  0  0
    1.1500   -4.2000    0.2740 O   0  0  0  0  0  0  0  0  0  0  0  0
   -0.9280   -3.1280    0.1790 C   0  0  0  0  0  0  0  0  0  0  0  0
  1  2  2  0
  2  3  1  0
  2 11  1  0
  3  4  1  0
  4  5  1  0
  5  6  2  0
  5 10  1  0
  6  7  1  0
  7  8  2  0
  8  9  1  0
  9 10  2  0
 11 12  1  0
 12 13  2  0
 12 29  1  0
 13 14  1  0
 13 22  1  0
 14 15  2  3
 15 16  1  0
 16 17  2  0
 16 21  1  0
 17 18  1  0
 18 19  2  0
 19 20  1  0
 19 21  1  0
 22 23  1  0
 23 24  1  0
 23 29  2  0
 24 25  2  0
 25 26  1  0
 26 27  1  0
 27 28  2  0
 27 29  1  0
M  END
