
     RDKit          3D

 27 28  0  0  0  0  0  0  0  0999 V2000
   -1.1160   -1.0450   -0.5480 C   0  0  0  0  0  0  0  0  0  0  0  0
   -0.7540    0.3910   -0.5690 C   0  0  0  0  0  0  0  0  0  0  0  0
   -1.6690    1.3220   -0.7590 C   0  0  0  0  0  0  0  0  0  0  0  0
   -3.0750    1.2430   -0.9620 C   0  0  0  0  0  0  0  0  0  0  0  0
   -3.6450    2.4250   -1.1120 O   0  0  0  0  0  0  0  0  0  0  0  0
   -3.9890    0.1140   -1.0360 C   0  0  0  0  0  0  0  0  0  0  0  0
   -4.7420   -0.1730    0.2550 C   0  0  2  0  0  0  0  0  0  0  0  0
   -5.6600   -1.3620    0.0970 C   0  0  0  0  0  0  0  0  0  0  0  0
   -6.8290   -1.0760   -0.8050 C   0  0  0  0  0  0  0  0  0  0  0  0
   -7.5050    0.1440   -0.5060 N   0  0  0  0  0  0  0  0  0  0  0  0
   -7.7160    0.3080    0.9170 C   0  0  0  0  0  0  0  0  0  0  0  0
   -6.4710    0.7870    1.6270 C   0  0  0  0  0  0  0  0  0  0  0  0
   -5.4440    0.9910    0.6690 N   0  0  0  0  0  0  0  0  0  0  0  0
    0.5870    0.7430   -0.2050 N   0  0  0  0  0  0  0  0  0  0  0  0
    1.6630    0.0340   -0.5170 C   0  0  0  0  0  0  0  0  0  0  0  0
    1.5960   -1.0790   -1.5030 C   0  0  0  0  0  0  0  0  0  0  0  0
    2.9550    0.3060   -0.0290 C   0  0  0  0  0  0  0  0  0  0  0  0
    4.1000   -0.5420   -0.4130 C   0  0  0  0  0  0  0  0  0  0  0  0
    5.3070   -0.0490    0.2180 N   0  0  0  0  0  0  0  0  0  0  0  0
    6.4480   -0.8890   -0.0950 C   0  0  0  0  0  0  0  0  0  0  0  0
    7.7160   -0.4270    0.5230 C   0  0  1  0  0  0  0  0  0  0  0  0
    8.8090   -1.4110    0.1000 C   0  0  0  0  0  0  0  0  0  0  0  0
    8.1390    0.8790    0.1190 N   0  0  0  0  0  0  0  0  0  0  0  0
    3.1530    1.3630    0.8220 C   0  0  0  0  0  0  0  0  0  0  0  0
    2.0490    2.1050    1.1500 C   0  0  0  0  0  0  0  0  0  0  0  0
    0.7990    1.7980    0.6460 C   0  0  0  0  0  0  0  0  0  0  0  0
   -0.2010    2.4980    0.9730 O   0  0  0  0  0  0  0  0  0  0  0  0
  1  2  1  0
  2  3  2  3
  2 14  1  0
  3  4  1  0
  4  5  2  0
  4  6  1  0
  7  6  1  6
  7  8  1  0
  7 13  1  0
  8  9  1  0
  9 10  1  0
 10 11  1  0
 11 12  1  0
 12 13  1  0
 14 15  1  0
 14 26  1  0
 15 16  1  0
 15 17  2  0
 17 18  1  0
 17 24  1  0
 18 19  1  0
 19 20  1  0
 20 21  1  0
 21 22  1  6
 21 23  1  0
 24 25  2  0
 25 26  1  0
 26 27  2  0
M  CHG  2  10   1  23   1
M  END
