
     RDKit          3D

 27 29  0  0  0  0  0  0  0  0999 V2000
    4.8180    1.7350   -2.1210 C   0  0  0  0  0  0  0  0  0  0  0  0
    4.1660    0.9210   -1.0880 N   0  0  0  0  0  0  0  0  0  0  0  0
    5.1940    0.4270   -0.2480 C   0  0  0  0  0  0  0  0  0  0  0  0
    4.8340   -0.2570    1.0070 C   0  0  0  0  0  0  0  0  0  0  0  0
    4.0370   -1.4460    0.9170 N   0  0  0  0  0  0  0  0  0  0  0  0
    2.6420   -1.4900    0.6690 C   0  0  0  0  0  0  0  0  0  0  0  0
    1.9370   -0.3210    0.5810 N   0  0  0  0  0  0  0  0  0  0  0  0
    0.6120   -0.2890    0.3880 C   0  0  0  0  0  0  0  0  0  0  0  0
    0.0080    1.0470    0.3170 C   0  0  0  0  0  0  0  0  0  0  0  0
   -1.3940    1.1190    0.1180 N   0  0  1  0  0  0  0  0  0  0  0  0
   -1.8670    2.3630    0.7130 C   0  0  0  0  0  0  0  0  0  0  0  0
   -3.1450    2.2040    1.4840 C   0  0  0  0  0  0  0  0  0  0  0  0
   -4.0310    1.2770    0.7750 C   0  0  0  0  0  0  0  0  0  0  0  0
   -4.9750    0.7640    1.6460 C   0  0  0  0  0  0  0  0  0  0  0  0
   -5.9310   -0.1340    1.2250 C   0  0  0  0  0  0  0  0  0  0  0  0
   -5.9780   -0.5560   -0.0930 C   0  0  0  0  0  0  0  0  0  0  0  0
   -5.0320   -0.0340   -0.9380 C   0  0  0  0  0  0  0  0  0  0  0  0
   -4.0690    0.8650   -0.5360 C   0  0  0  0  0  0  0  0  0  0  0  0
   -3.1380    1.3050   -1.6150 C   0  0  2  0  0  0  0  0  0  0  0  0
   -3.4760    0.5680   -2.7510 O   0  0  0  0  0  0  0  0  0  0  0  0
   -1.7140    1.0460   -1.2910 C   0  0  0  0  0  0  0  0  0  0  0  0
   -0.1210   -1.4480    0.2670 C   0  0  0  0  0  0  0  0  0  0  0  0
    0.5470   -2.6370    0.3490 C   0  0  0  0  0  0  0  0  0  0  0  0
    1.9450   -2.6620    0.5530 C   0  0  0  0  0  0  0  0  0  0  0  0
    2.5800   -3.9620    0.6150 C   0  0  0  0  0  0  0  0  0  0  0  0
    1.7540   -5.1490    0.4890 N   0  0  0  0  0  0  0  0  0  0  0  0
    3.7790   -4.2110    0.7680 O   0  0  0  0  0  0  0  0  0  0  0  0
  1  2  1  0
  2  3  1  0
  3  4  1  0
  4  5  1  0
  5  6  1  0
  6  7  2  0
  6 24  1  0
  7  8  1  0
  8  9  1  0
  8 22  2  0
 10  9  1  6
 10 11  1  0
 10 21  1  0
 11 12  1  0
 12 13  1  0
 13 14  2  0
 13 18  1  0
 14 15  1  0
 15 16  2  0
 16 17  1  0
 17 18  2  0
 18 19  1  0
 19 20  1  6
 19 21  1  0
 22 23  1  0
 23 24  2  0
 24 25  1  0
 25 26  1  0
 25 27  2  0
M  CHG  2   2   1  10   1
M  END
