
     RDKit          3D

 27 29  0  0  0  0  0  0  0  0999 V2000
    7.1320    3.4080    0.4380 N   0  0  0  0  0  0  0  0  0  0  0  0
    6.0140    2.6040    0.0750 C   0  0  0  0  0  0  0  0  0  0  0  0
    6.0100    1.2910    0.1940 C   0  0  0  0  0  0  0  0  0  0  0  0
    4.8610    0.5270   -0.1840 C   0  0  0  0  0  0  0  0  0  0  0  0
    4.7840   -0.8030   -0.0920 C   0  0  0  0  0  0  0  0  0  0  0  0
    5.7570   -1.7710    0.3760 C   0  0  0  0  0  0  0  0  0  0  0  0
    6.9060   -1.4780    0.8000 O   0  0  0  0  0  0  0  0  0  0  0  0
    5.1680   -3.0680    0.2610 N   0  0  0  0  0  0  0  0  0  0  0  0
    3.8610   -2.8940   -0.2670 C   0  0  0  0  0  0  0  0  0  0  0  0
    2.9470   -3.9540   -0.5300 N   0  0  0  0  0  0  0  0  0  0  0  0
    3.6120   -1.5910   -0.4800 C   0  0  0  0  0  0  0  0  0  0  0  0
    2.3530   -1.0240   -1.0280 C   0  0  0  0  0  0  0  0  0  0  0  0
    1.7860   -0.1300   -0.0370 N   0  0  0  0  0  0  0  0  0  0  0  0
    0.5350   -0.7380    0.3840 C   0  0  0  0  0  0  0  0  0  0  0  0
   -0.5970   -0.3320   -0.4530 C   0  0  0  0  0  0  0  0  0  0  0  0
   -0.4080    0.4570   -1.4060 O   0  0  0  0  0  0  0  0  0  0  0  0
   -1.8960   -0.8330   -0.1830 N   0  0  0  0  0  0  0  0  0  0  0  0
   -2.1570   -1.7500    0.9110 C   0  0  0  0  0  0  0  0  0  0  0  0
   -3.1820   -1.1290    1.8110 C   0  0  0  0  0  0  0  0  0  0  0  0
   -4.4130   -0.7460    1.0220 C   0  0  0  0  0  0  0  0  0  0  0  0
   -4.0640    0.2420   -0.0770 C   0  0  1  0  0  0  0  0  0  0  0  0
   -5.3070    0.4970   -0.8810 C   0  0  0  0  0  0  0  0  0  0  0  0
   -5.1910    1.6750   -1.8010 C   0  0  0  0  0  0  0  0  0  0  0  0
   -4.7970    2.8850   -0.9640 C   0  0  0  0  0  0  0  0  0  0  0  0
   -3.3870    2.6110   -0.4610 C   0  0  0  0  0  0  0  0  0  0  0  0
   -3.4540    1.4730    0.5090 C   0  0  0  0  0  0  0  0  0  0  0  0
   -3.0530   -0.4560   -0.9890 C   0  0  0  0  0  0  0  0  0  0  0  0
  1  2  1  0
  2  3  2  3
  3  4  1  0
  4  5  2  3
  5  6  1  0
  5 11  1  0
  6  7  2  0
  6  8  1  0
  8  9  1  0
  9 10  1  0
  9 11  2  0
 11 12  1  0
 12 13  1  0
 13 14  1  0
 14 15  1  0
 15 16  2  0
 15 17  1  0
 17 18  1  0
 17 27  1  0
 18 19  1  0
 19 20  1  0
 21 20  1  1
 21 22  1  0
 21 26  1  0
 21 27  1  0
 22 23  1  0
 23 24  1  0
 24 25  1  0
 25 26  1  0
M  CHG  1  13   1
M  END
