
     RDKit          3D

 27 29  0  0  0  0  0  0  0  0999 V2000
   -1.1320   -1.9480   -2.0030 C   0  0  0  0  0  0  0  0  0  0  0  0
   -1.3030   -2.0910   -0.5100 C   0  0  1  0  0  0  0  0  0  0  0  0
   -0.5610   -3.2600    0.0310 C   0  0  0  0  0  0  0  0  0  0  0  0
   -1.0620   -0.7860    0.2380 C   0  0  1  0  0  0  0  0  0  0  0  0
    0.2800   -0.2240    0.0380 C   0  0  0  0  0  0  0  0  0  0  0  0
    0.3860    0.9590   -0.4530 O   0  0  0  0  0  0  0  0  0  0  0  0
    1.4980   -0.8790    0.3440 N   0  0  0  0  0  0  0  0  0  0  0  0
    2.7600   -0.1780    0.0810 C   0  0  0  0  0  0  0  0  0  0  0  0
    3.9400   -1.0280    0.4670 C   0  0  0  0  0  0  0  0  0  0  0  0
    5.1910   -0.2780    0.1860 C   0  0  0  0  0  0  0  0  0  0  0  0
    5.2190    0.9900   -0.3410 C   0  0  0  0  0  0  0  0  0  0  0  0
    6.4110    1.6710   -0.5960 C   0  0  0  0  0  0  0  0  0  0  0  0
    7.6110    1.0510   -0.3110 C   0  0  0  0  0  0  0  0  0  0  0  0
    7.5590   -0.2250    0.2190 C   0  0  0  0  0  0  0  0  0  0  0  0
    8.8050   -0.8520    0.5090 N   0  0  0  0  0  0  0  0  0  0  0  0
    6.3910   -0.8520    0.4520 N   0  0  0  0  0  0  0  0  0  0  0  0
   -2.1120    0.1670   -0.0310 N   0  0  0  0  0  0  0  0  0  0  0  0
   -3.1230    0.6360    0.9130 C   0  0  0  0  0  0  0  0  0  0  0  0
   -4.3650    0.6020    0.0310 C   0  0  1  0  0  0  0  0  0  0  0  0
   -5.4770    1.3760    0.6260 C   0  0  0  0  0  0  0  0  0  0  0  0
   -6.0420    2.5010    0.2370 C   0  0  0  0  0  0  0  0  0  0  0  0
   -7.0870    2.8880    1.1180 N   0  0  0  0  0  0  0  0  0  0  0  0
   -7.1130    1.8740    2.1080 C   0  0  0  0  0  0  0  0  0  0  0  0
   -6.1770    0.9740    1.8410 C   0  0  0  0  0  0  0  0  0  0  0  0
   -3.8520    1.2800   -1.2200 C   0  0  0  0  0  0  0  0  0  0  0  0
   -2.4260    0.8650   -1.2390 C   0  0  0  0  0  0  0  0  0  0  0  0
   -1.6070    1.0890   -2.1700 O   0  0  0  0  0  0  0  0  0  0  0  0
  2  1  1  6
  2  3  1  0
  2  4  1  0
  4  5  1  0
  4 17  1  6
  5  6  2  0
  5  7  1  0
  7  8  1  0
  8  9  1  0
  9 10  1  0
 10 11  2  0
 10 16  1  0
 11 12  1  0
 12 13  2  0
 13 14  1  0
 14 15  1  0
 14 16  2  0
 17 18  1  0
 17 26  1  0
 18 19  1  0
 19 20  1  1
 19 25  1  0
 20 21  2  0
 20 24  1  0
 21 22  1  0
 22 23  1  0
 23 24  2  0
 25 26  1  0
 26 27  2  0
M  CHG  2  16   1  22   1
M  END
