
     RDKit          3D

 27 29  0  0  0  0  0  0  0  0999 V2000
    5.4970   -0.5990   -2.1470 C   0  0  0  0  0  0  0  0  0  0  0  0
    5.4600   -0.7930   -0.8120 C   0  0  0  0  0  0  0  0  0  0  0  0
    5.2000   -2.1580   -0.3910 C   0  0  0  0  0  0  0  0  0  0  0  0
    5.1350   -2.5790    0.8210 N   0  0  0  0  0  0  0  0  0  0  0  0
    5.6730    0.3660    0.0460 C   0  0  2  0  0  0  0  0  0  0  0  0
    6.7870    0.0530    1.0650 C   0  0  0  0  0  0  0  0  0  0  0  0
    7.9860   -0.2520    0.3210 N   0  0  0  0  0  0  0  0  0  0  0  0
    4.5970    1.0950    0.5570 N   0  0  0  0  0  0  0  0  0  0  0  0
    3.3980    0.4900    0.9930 C   0  0  0  0  0  0  0  0  0  0  0  0
    2.1750    0.9380    0.1990 C   0  0  1  0  0  0  0  0  0  0  0  0
    2.3390    0.5630   -1.2170 C   0  0  0  0  0  0  0  0  0  0  0  0
    1.1650    0.6070   -1.9630 O   0  0  0  0  0  0  0  0  0  0  0  0
    0.2780   -0.3190   -1.3480 C   0  0  0  0  0  0  0  0  0  0  0  0
   -0.2410    0.3910   -0.1550 C   0  0  1  0  0  0  0  0  0  0  0  0
   -1.3750   -0.1030    0.5120 N   0  0  0  0  0  0  0  0  0  0  0  0
   -2.1520    0.9500    1.1480 C   0  0  0  0  0  0  0  0  0  0  0  0
   -3.4260    1.2150    0.3690 C   0  0  0  0  0  0  0  0  0  0  0  0
   -4.2410   -0.0120    0.3510 N   0  0  0  0  0  0  0  0  0  0  0  0
   -5.4510    0.3380   -0.3320 C   0  0  0  0  0  0  0  0  0  0  0  0
   -6.4730   -0.7630   -0.3380 C   0  0  2  0  0  0  0  0  0  0  0  0
   -7.7910   -0.1970   -0.8670 C   0  0  0  0  0  0  0  0  0  0  0  0
   -8.2260    0.6400    0.3290 C   0  0  0  0  0  0  0  0  0  0  0  0
   -7.5140   -0.0040    1.4670 C   0  0  0  0  0  0  0  0  0  0  0  0
   -6.8470   -1.1240    0.9600 O   0  0  0  0  0  0  0  0  0  0  0  0
   -3.4960   -0.9350   -0.4830 C   0  0  0  0  0  0  0  0  0  0  0  0
   -2.1080   -1.1720   -0.0260 C   0  0  0  0  0  0  0  0  0  0  0  0
    0.8850    0.5890    0.8330 C   0  0  0  0  0  0  0  0  0  0  0  0
  1  2  2  0
  2  3  1  0
  2  5  1  0
  3  4  2  0
  5  6  1  1
  5  8  1  0
  6  7  1  0
  8  9  1  0
 10  9  1  1
 10 11  1  0
 10 27  1  0
 11 12  1  0
 12 13  1  0
 13 14  1  0
 14 15  1  1
 14 27  1  0
 15 16  1  0
 15 26  1  0
 16 17  1  0
 17 18  1  0
 18 19  1  0
 18 25  1  0
 20 19  1  1
 20 21  1  0
 20 24  1  0
 21 22  1  0
 22 23  1  0
 23 24  1  0
 25 26  1  0
M  CHG  2   7   1   8   1
M  END
