
     RDKit          3D

 27 29  0  0  0  0  0  0  0  0999 V2000
   -6.4020   -1.7770    1.1180 C   0  0  0  0  0  0  0  0  0  0  0  0
   -5.4850   -1.0450    0.1650 C   0  0  2  0  0  0  0  0  0  0  0  0
   -5.3240   -1.8360   -1.1400 C   0  0  0  0  0  0  0  0  0  0  0  0
   -4.4570   -0.9640   -2.0110 C   0  0  0  0  0  0  0  0  0  0  0  0
   -3.2360   -0.6730   -1.5270 O   0  0  0  0  0  0  0  0  0  0  0  0
   -3.0730   -0.4120   -0.1960 C   0  0  2  0  0  0  0  0  0  0  0  0
   -3.0650    1.0970   -0.0640 C   0  0  0  0  0  0  0  0  0  0  0  0
   -4.3120    1.5200   -0.5960 O   0  0  0  0  0  0  0  0  0  0  0  0
   -1.6860   -0.8930    0.2840 C   0  0  0  0  0  0  0  0  0  0  0  0
   -0.5860   -0.2040   -0.4600 C   0  0  0  0  0  0  0  0  0  0  0  0
   -0.1460   -0.5800   -1.6680 N   0  0  0  0  0  0  0  0  0  0  0  0
    0.8540    0.2150   -2.0420 C   0  0  0  0  0  0  0  0  0  0  0  0
    1.0340    1.1140   -1.0240 C   0  0  0  0  0  0  0  0  0  0  0  0
    0.1310    0.8370   -0.0490 N   0  0  0  0  0  0  0  0  0  0  0  0
    0.0690    1.5860    1.2210 C   0  0  0  0  0  0  0  0  0  0  0  0
    1.0720    0.8900    2.1600 C   0  0  0  0  0  0  0  0  0  0  0  0
    2.4500    0.9210    1.5960 C   0  0  0  0  0  0  0  0  0  0  0  0
    2.9090   -0.1040    0.7990 C   0  0  0  0  0  0  0  0  0  0  0  0
    4.1980   -0.0920    0.2570 C   0  0  0  0  0  0  0  0  0  0  0  0
    5.0710    0.9400    0.4930 C   0  0  0  0  0  0  0  0  0  0  0  0
    6.3950    1.0330    0.0030 N   0  0  0  0  0  0  0  0  0  0  0  0
    7.0140   -0.0870   -0.5790 C   0  0  0  0  0  0  0  0  0  0  0  0
    7.7520    0.0500   -1.8170 N   0  0  0  0  0  0  0  0  0  0  0  0
    6.9470   -1.2390   -0.0150 N   0  0  0  0  0  0  0  0  0  0  0  0
    4.5880    1.9770    1.3070 C   0  0  0  0  0  0  0  0  0  0  0  0
    3.3200    1.9630    1.8380 C   0  0  0  0  0  0  0  0  0  0  0  0
   -4.0970   -0.9410    0.7390 C   0  0  0  0  0  0  0  0  0  0  0  0
  2  1  1  1
  2  3  1  0
  2 27  1  0
  3  4  1  0
  4  5  1  0
  5  6  1  0
  6  7  1  6
  6  9  1  0
  6 27  1  0
  7  8  1  0
  9 10  1  0
 10 11  2  0
 10 14  1  0
 11 12  1  0
 12 13  2  0
 13 14  1  0
 14 15  1  0
 15 16  1  0
 16 17  1  0
 17 18  2  0
 17 26  1  0
 18 19  1  0
 19 20  2  0
 20 21  1  0
 20 25  1  0
 21 22  1  0
 22 23  1  0
 22 24  2  0
 25 26  2  0
M  CHG  2  11   1  24   1
M  END
