
     RDKit          3D

 27 28  0  0  0  0  0  0  0  0999 V2000
   -8.5250    1.8350   -1.3090 C   0  0  0  0  0  0  0  0  0  0  0  0
   -7.4590    2.0770   -0.2520 C   0  0  0  0  0  0  0  0  0  0  0  0
   -7.0350    0.7550    0.2610 C   0  0  0  0  0  0  0  0  0  0  0  0
   -5.7700    0.3390    0.1620 C   0  0  0  0  0  0  0  0  0  0  0  0
   -4.6860    1.0530   -0.4160 N   0  0  0  0  0  0  0  0  0  0  0  0
   -3.6020    0.3560   -0.3440 C   0  0  0  0  0  0  0  0  0  0  0  0
   -2.3080    0.8550   -0.8710 C   0  0  0  0  0  0  0  0  0  0  0  0
   -1.4140   -0.3000   -1.1850 C   0  0  0  0  0  0  0  0  0  0  0  0
   -0.7630   -0.9270   -0.0080 C   0  0  1  0  0  0  0  0  0  0  0  0
    0.2530   -0.0500    0.5360 N   0  0  0  0  0  0  0  0  0  0  0  0
    1.5420   -0.2720   -0.1110 C   0  0  0  0  0  0  0  0  0  0  0  0
    2.4950   -0.8460    0.8650 C   0  0  0  0  0  0  0  0  0  0  0  0
    3.8790   -1.1390    0.3450 C   0  0  0  0  0  0  0  0  0  0  0  0
    4.6010    0.0410   -0.1400 C   0  0  0  0  0  0  0  0  0  0  0  0
    4.0140    1.1620    0.0190 O   0  0  0  0  0  0  0  0  0  0  0  0
    5.8560   -0.0370   -0.7390 N   0  0  0  0  0  0  0  0  0  0  0  0
    6.4610    1.2370   -1.1820 C   0  0  0  0  0  0  0  0  0  0  0  0
    7.2590    1.7410   -0.0030 C   0  0  0  0  0  0  0  0  0  0  0  0
    7.9000    2.9900   -0.3220 N   0  0  0  0  0  0  0  0  0  0  0  0
    6.5690   -1.2210   -0.9440 C   0  0  0  0  0  0  0  0  0  0  0  0
    6.1360   -2.5050   -0.5810 N   0  0  0  0  0  0  0  0  0  0  0  0
    7.7150   -1.1220   -1.5120 O   0  0  0  0  0  0  0  0  0  0  0  0
   -1.6920   -1.3480    1.0780 C   0  0  0  0  0  0  0  0  0  0  0  0
   -2.9600   -1.9920    0.5910 C   0  0  0  0  0  0  0  0  0  0  0  0
   -3.9290   -0.8990    0.3100 C   0  0  0  0  0  0  0  0  0  0  0  0
   -5.2170   -0.9250    0.6170 C   0  0  0  0  0  0  0  0  0  0  0  0
   -5.9300   -2.0230    1.2870 C   0  0  0  0  0  0  0  0  0  0  0  0
  1  2  1  0
  2  3  1  0
  3  4  2  3
  4  5  1  0
  4 26  1  0
  5  6  2  0
  6  7  1  0
  6 25  1  0
  7  8  1  0
  8  9  1  0
  9 10  1  1
  9 23  1  0
 10 11  1  0
 11 12  1  0
 12 13  1  0
 13 14  1  0
 14 15  2  0
 14 16  1  0
 16 17  1  0
 16 20  1  0
 17 18  1  0
 18 19  1  0
 20 21  1  0
 20 22  2  0
 23 24  1  0
 24 25  1  0
 25 26  2  0
 26 27  1  0
M  CHG  2  10   1  19   1
M  END
