
     RDKit          3D

 26 28  0  0  0  0  0  0  0  0999 V2000
    6.3900    1.9430    0.9820 C   0  0  0  0  0  0  0  0  0  0  0  0
    6.9700    0.6210    0.7000 C   0  0  0  0  0  0  0  0  0  0  0  0
    6.4220   -0.5080    0.4520 C   0  0  0  0  0  0  0  0  0  0  0  0
    7.3590   -1.6180    0.2190 N   0  0  0  0  0  0  0  0  0  0  0  0
    7.4340   -1.7700   -1.1160 F   0  0  0  0  0  0  0  0  0  0  0  0
    5.0500   -0.8760    0.3610 C   0  0  0  0  0  0  0  0  0  0  0  0
    4.7440   -2.1160    0.0910 O   0  0  0  0  0  0  0  0  0  0  0  0
    3.9840    0.0220    0.5440 N   0  0  0  0  0  0  0  0  0  0  0  0
    2.6440   -0.3900    0.4290 C   0  0  0  0  0  0  0  0  0  0  0  0
    2.2370   -1.4120   -0.3780 C   0  0  0  0  0  0  0  0  0  0  0  0
    0.8790   -1.7710   -0.3990 C   0  0  0  0  0  0  0  0  0  0  0  0
   -0.0720   -1.1360    0.3630 C   0  0  0  0  0  0  0  0  0  0  0  0
   -1.8010   -1.6200    0.3170 S   0  0  0  0  0  0  0  0  0  0  0  0
   -2.6680   -0.6920   -0.9850 C   0  0  2  0  0  0  0  0  0  0  0  0
   -2.6950    0.7540   -0.6020 C   0  0  0  0  0  0  0  0  0  0  0  0
   -3.9560    1.1670   -0.0160 N   0  0  0  0  0  0  0  0  0  0  0  0
   -4.2380    0.5670    1.2450 C   0  0  0  0  0  0  0  0  0  0  0  0
   -5.7240    0.2280    1.3750 C   0  0  0  0  0  0  0  0  0  0  0  0
   -6.5400    1.2000    0.8660 O   0  0  0  0  0  0  0  0  0  0  0  0
   -6.2730    1.6020   -0.4110 C   0  0  0  0  0  0  0  0  0  0  0  0
   -4.9970    1.0710   -0.9910 C   0  0  2  0  0  0  0  0  0  0  0  0
   -5.1470   -0.2840   -1.6130 C   0  0  0  0  0  0  0  0  0  0  0  0
   -4.0430   -1.1790   -1.1820 C   0  0  0  0  0  0  0  0  0  0  0  0
   -4.2890   -2.3540   -0.9860 O   0  0  0  0  0  0  0  0  0  0  0  0
    0.3810   -0.1100    1.1630 C   0  0  0  0  0  0  0  0  0  0  0  0
    1.6970    0.2710    1.2130 C   0  0  0  0  0  0  0  0  0  0  0  0
  1  2  1  0
  2  3  2  3
  3  4  1  0
  3  6  1  0
  4  5  1  0
  6  7  2  0
  6  8  1  0
  8  9  1  0
  9 10  2  0
  9 26  1  0
 10 11  1  0
 11 12  2  0
 12 13  1  0
 12 25  1  0
 14 13  1  1
 14 15  1  0
 14 23  1  0
 15 16  1  0
 16 17  1  0
 16 21  1  0
 17 18  1  0
 18 19  1  0
 19 20  1  0
 21 20  1  1
 21 22  1  0
 22 23  1  0
 23 24  2  0
 25 26  2  0
M  CHG  1   4   1
M  END
