
     RDKit          3D

 26 28  0  0  0  0  0  0  0  0999 V2000
    4.6080    0.7530    1.5660 N   0  0  0  0  0  0  0  0  0  0  0  0
    4.8830    0.3590    0.2380 C   0  0  0  0  0  0  0  0  0  0  0  0
    6.1760    0.2120   -0.1210 C   0  0  0  0  0  0  0  0  0  0  0  0
    7.4390    0.4940    1.0070 S   0  0  2  0  0  0  0  0  0  0  0  0
    8.0120   -0.8220    1.5000 O   0  0  0  0  0  0  0  0  0  0  0  0
    6.9850    1.2700    2.2030 O   0  0  0  0  0  0  0  0  0  0  0  0
    3.8080    0.1120   -0.7380 C   0  0  0  0  0  0  0  0  0  0  0  0
    2.8530   -0.9140   -0.3940 N   0  0  0  0  0  0  0  0  0  0  0  0
    2.1050   -1.3180   -1.5930 C   0  0  0  0  0  0  0  0  0  0  0  0
    1.1740   -0.2510   -2.0420 C   0  0  0  0  0  0  0  0  0  0  0  0
    0.1250   -0.1240   -1.0140 N   0  0  2  0  0  0  0  0  0  0  0  0
   -0.6590    1.0200   -1.4510 C   0  0  0  0  0  0  0  0  0  0  0  0
   -2.0270    1.0680   -0.9600 C   0  0  0  0  0  0  0  0  0  0  0  0
   -2.8140    2.2220   -1.0720 C   0  0  0  0  0  0  0  0  0  0  0  0
   -4.0410    1.9420   -0.5230 C   0  0  0  0  0  0  0  0  0  0  0  0
   -3.9550    0.6350   -0.0990 C   0  0  0  0  0  0  0  0  0  0  0  0
   -5.0420   -0.0870    0.5510 C   0  0  0  0  0  0  0  0  0  0  0  0
   -6.2360    0.5330    0.8490 C   0  0  0  0  0  0  0  0  0  0  0  0
   -7.2760   -0.1680    1.4480 C   0  0  0  0  0  0  0  0  0  0  0  0
   -7.1500   -1.5060    1.7640 C   0  0  0  0  0  0  0  0  0  0  0  0
   -8.1700   -2.2100    2.3510 F   0  0  0  0  0  0  0  0  0  0  0  0
   -5.9630   -2.1340    1.4720 C   0  0  0  0  0  0  0  0  0  0  0  0
   -4.9380   -1.4180    0.8760 C   0  0  0  0  0  0  0  0  0  0  0  0
   -2.7490    0.1650   -0.3800 O   0  0  0  0  0  0  0  0  0  0  0  0
    0.6940    0.1490    0.2570 C   0  0  0  0  0  0  0  0  0  0  0  0
    1.9320   -0.5500    0.6540 C   0  0  0  0  0  0  0  0  0  0  0  0
  1  2  1  0
  2  3  2  3
  2  7  1  0
  4  3  1  6
  4  5  2  0
  4  6  2  0
  7  8  1  0
  8  9  1  0
  8 26  1  0
  9 10  1  0
 10 11  1  0
 11 12  1  6
 11 25  1  0
 12 13  1  0
 13 14  2  0
 13 24  1  0
 14 15  1  0
 15 16  2  0
 16 17  1  0
 16 24  1  0
 17 18  2  0
 17 23  1  0
 18 19  1  0
 19 20  2  0
 20 21  1  0
 20 22  1  0
 22 23  2  0
 25 26  1  0
M  CHG  1  11   1
M  END
