
     RDKit          3D

 26 28  0  0  0  0  0  0  0  0999 V2000
   -3.4730   -2.8360    1.7210 C   0  0  0  0  0  0  0  0  0  0  0  0
   -4.4330   -1.8330    1.5860 O   0  0  0  0  0  0  0  0  0  0  0  0
   -4.2140   -0.5920    1.0120 C   0  0  0  0  0  0  0  0  0  0  0  0
   -2.9750   -0.2190    0.5000 C   0  0  0  0  0  0  0  0  0  0  0  0
   -2.7550    1.0070   -0.0690 C   0  0  0  0  0  0  0  0  0  0  0  0
   -1.4810    1.4580   -0.6250 C   0  0  0  0  0  0  0  0  0  0  0  0
   -0.3950    0.5390   -0.5460 N   0  0  2  0  0  0  0  0  0  0  0  0
    0.3170    0.7210    0.7020 C   0  0  0  0  0  0  0  0  0  0  0  0
    1.5610   -0.0760    0.8150 C   0  0  0  0  0  0  0  0  0  0  0  0
    2.4100    0.0720   -0.4360 C   0  0  1  0  0  0  0  0  0  0  0  0
    3.4290   -0.9370   -0.4380 N   0  0  0  0  0  0  0  0  0  0  0  0
    4.7770   -0.5760   -0.4310 C   0  0  0  0  0  0  0  0  0  0  0  0
    5.1930    0.5720   -0.4330 O   0  0  0  0  0  0  0  0  0  0  0  0
    5.7650   -1.5530   -0.4160 N   0  0  0  0  0  0  0  0  0  0  0  0
    7.0980   -1.3170   -0.4130 C   0  0  0  0  0  0  0  0  0  0  0  0
    7.5850   -2.5750   -0.3600 N   0  0  0  0  0  0  0  0  0  0  0  0
    8.1560   -0.3460   -0.4470 C   0  0  0  0  0  0  0  0  0  0  0  0
    9.4350   -0.9520   -0.4610 F   0  0  0  0  0  0  0  0  0  0  0  0
    1.5480   -0.2170   -1.6670 C   0  0  0  0  0  0  0  0  0  0  0  0
    0.4950    0.8410   -1.6830 C   0  0  0  0  0  0  0  0  0  0  0  0
   -3.8160    1.9030   -0.1310 C   0  0  0  0  0  0  0  0  0  0  0  0
   -5.0660    1.5770    0.3650 C   0  0  0  0  0  0  0  0  0  0  0  0
   -5.2480    0.3170    0.9370 C   0  0  0  0  0  0  0  0  0  0  0  0
   -6.5910    0.2430    1.3550 O   0  0  0  0  0  0  0  0  0  0  0  0
   -7.3430    1.1340    0.5160 C   0  0  0  0  0  0  0  0  0  0  0  0
   -6.3790    2.3030    0.4490 C   0  0  0  0  0  0  0  0  0  0  0  0
  1  2  1  0
  2  3  1  0
  3  4  2  0
  3 23  1  0
  4  5  1  0
  5  6  1  0
  5 21  2  0
  7  6  1  1
  7  8  1  0
  7 20  1  0
  8  9  1  0
  9 10  1  0
 10 11  1  1
 10 19  1  0
 11 12  1  0
 12 13  2  0
 12 14  1  0
 14 15  1  0
 15 16  2  0
 15 17  1  0
 17 18  1  0
 19 20  1  0
 21 22  1  0
 22 23  2  0
 22 26  1  0
 23 24  1  0
 24 25  1  0
 25 26  1  0
M  CHG  1   7   1
M  END
