
     RDKit          3D

 26 28  0  0  0  0  0  0  0  0999 V2000
    3.1090   -0.8090   -2.5230 O   0  0  0  0  0  0  0  0  0  0  0  0
    2.3000   -0.4580   -1.5830 C   0  0  0  0  0  0  0  0  0  0  0  0
    0.8760   -0.4170   -1.9250 C   0  0  0  0  0  0  0  0  0  0  0  0
   -0.0760   -0.0430   -0.9560 N   0  0  2  0  0  0  0  0  0  0  0  0
    0.0950    1.2080   -0.2910 C   0  0  0  0  0  0  0  0  0  0  0  0
   -1.1340    2.1230   -0.5270 C   0  0  0  0  0  0  0  0  0  0  0  0
   -2.3240    1.5370    0.1380 C   0  0  0  0  0  0  0  0  0  0  0  0
   -3.1640    2.3520    0.6500 O   0  0  0  0  0  0  0  0  0  0  0  0
   -2.6410    0.1600    0.2730 N   0  0  0  0  0  0  0  0  0  0  0  0
   -4.0730   -0.0600    0.3940 C   0  0  0  0  0  0  0  0  0  0  0  0
   -4.8840    0.3100   -0.5490 C   0  0  0  0  0  0  0  0  0  0  0  0
   -6.3510    0.1760   -0.6140 C   0  0  0  0  0  0  0  0  0  0  0  0
   -7.0310   -0.6100    0.8370 S   0  0  0  0  0  0  0  0  0  0  0  0
   -5.7090   -1.0030    1.9440 C   0  0  0  0  0  0  0  0  0  0  0  0
   -6.0050   -1.6050    3.1060 F   0  0  0  0  0  0  0  0  0  0  0  0
   -4.4700   -0.7120    1.6350 C   0  0  0  0  0  0  0  0  0  0  0  0
   -1.8290   -1.0120    0.3110 C   0  0  0  0  0  0  0  0  0  0  0  0
   -2.3930   -2.0600    0.7080 O   0  0  0  0  0  0  0  0  0  0  0  0
   -0.3720   -1.1560   -0.0670 C   0  0  0  0  0  0  0  0  0  0  0  0
    2.8070   -0.1430   -0.3160 N   0  0  0  0  0  0  0  0  0  0  0  0
    4.1760   -0.1980   -0.0020 C   0  0  0  0  0  0  0  0  0  0  0  0
    4.6460    0.5240    1.0940 C   0  0  0  0  0  0  0  0  0  0  0  0
    5.9600    0.5180    1.4980 C   0  0  0  0  0  0  0  0  0  0  0  0
    6.8420   -0.2410    0.7780 C   0  0  0  0  0  0  0  0  0  0  0  0
    6.4340   -0.9620   -0.2960 C   0  0  0  0  0  0  0  0  0  0  0  0
    5.0840   -0.9340   -0.6820 C   0  0  0  0  0  0  0  0  0  0  0  0
  1  2  2  0
  2  3  1  0
  2 20  1  0
  4  3  1  1
  4  5  1  0
  4 19  1  0
  5  6  1  0
  6  7  1  0
  7  8  2  0
  7  9  1  0
  9 10  1  0
  9 17  1  0
 10 11  2  0
 10 16  1  0
 11 12  1  0
 12 13  1  0
 13 14  1  0
 14 15  1  0
 14 16  2  0
 17 18  2  0
 17 19  1  0
 20 21  1  0
 21 22  2  0
 21 26  1  0
 22 23  1  0
 23 24  2  0
 24 25  1  0
 25 26  2  0
M  CHG  1   4   1
M  END
