
     RDKit          3D

 24 25  0  0  0  0  0  0  0  0999 V2000
   -5.0980   -2.0450    1.6880 C   0  0  0  0  0  0  0  0  0  0  0  0
   -3.9700   -1.6660    0.7860 C   0  0  0  0  0  0  0  0  0  0  0  0
   -4.1430   -0.2900    0.1490 C   0  0  1  0  0  0  0  0  0  0  0  0
   -4.2350    0.7430    1.1160 N   0  0  0  0  0  0  0  0  0  0  0  0
   -3.1210   -0.1820   -0.8930 C   0  0  0  0  0  0  0  0  0  0  0  0
   -3.0200   -1.2680   -1.6200 O   0  0  0  0  0  0  0  0  0  0  0  0
   -2.2670    0.8980   -1.1990 N   0  0  0  0  0  0  0  0  0  0  0  0
   -2.2370    2.1850   -0.5690 C   0  0  0  0  0  0  0  0  0  0  0  0
   -1.6310    3.1030   -1.6360 C   0  0  0  0  0  0  0  0  0  0  0  0
   -0.5900    2.1950   -2.2230 C   0  0  0  0  0  0  0  0  0  0  0  0
   -1.2400    0.8500   -2.2390 C   0  0  1  0  0  0  0  0  0  0  0  0
   -0.1910   -0.1520   -1.9430 C   0  0  0  0  0  0  0  0  0  0  0  0
    0.6880   -0.3480   -2.8200 O   0  0  0  0  0  0  0  0  0  0  0  0
   -0.1310   -0.8830   -0.7490 N   0  0  0  0  0  0  0  0  0  0  0  0
    0.8560   -1.8610   -0.4190 C   0  0  0  0  0  0  0  0  0  0  0  0
    2.1600   -1.3390   -0.0190 C   0  0  0  0  0  0  0  0  0  0  0  0
    2.4210    0.0070    0.0600 C   0  0  0  0  0  0  0  0  0  0  0  0
    3.6490    0.4960    0.4380 C   0  0  0  0  0  0  0  0  0  0  0  0
    4.6980   -0.3800    0.7620 C   0  0  0  0  0  0  0  0  0  0  0  0
    5.9930    0.1620    1.1590 C   0  0  0  0  0  0  0  0  0  0  0  0
    6.1990    1.5810    1.2190 N   0  0  0  0  0  0  0  0  0  0  0  0
    6.9650   -0.5890    1.4600 N   0  0  0  0  0  0  0  0  0  0  0  0
    4.4460   -1.7100    0.6860 C   0  0  0  0  0  0  0  0  0  0  0  0
    3.1890   -2.1920    0.2990 C   0  0  0  0  0  0  0  0  0  0  0  0
  1  2  1  0
  2  3  1  0
  3  4  1  1
  3  5  1  0
  5  6  2  0
  5  7  1  0
  7  8  1  0
  7 11  1  0
  8  9  1  0
  9 10  1  0
 10 11  1  0
 11 12  1  1
 12 13  2  0
 12 14  1  0
 14 15  1  0
 15 16  1  0
 16 17  2  0
 16 24  1  0
 17 18  1  0
 18 19  2  0
 19 20  1  0
 19 23  1  0
 20 21  1  0
 20 22  2  0
 23 24  2  0
M  CHG  2   4   1  22   1
M  END
