
     RDKit          3D

 26 28  0  0  0  0  0  0  0  0999 V2000
    7.5620   -2.0720    2.0410 C   0  0  0  0  0  0  0  0  0  0  0  0
    6.9060   -0.8540    1.4560 N   0  0  0  0  0  0  0  0  0  0  0  0
    6.0740   -0.9310    0.4790 C   0  0  0  0  0  0  0  0  0  0  0  0
    5.4740    0.2350   -0.0450 C   0  0  0  0  0  0  0  0  0  0  0  0
    4.5350    0.4510   -1.1070 C   0  0  0  0  0  0  0  0  0  0  0  0
    3.1270    0.3570   -0.5540 C   0  0  0  0  0  0  0  0  0  0  0  0
    2.9720    0.1210    0.6650 O   0  0  0  0  0  0  0  0  0  0  0  0
    2.0090    0.5290   -1.3770 N   0  0  0  0  0  0  0  0  0  0  0  0
    0.6460    0.4710   -1.0090 C   0  0  0  0  0  0  0  0  0  0  0  0
    0.1950    0.2300    0.2460 C   0  0  0  0  0  0  0  0  0  0  0  0
   -1.1720    0.1810    0.5720 C   0  0  0  0  0  0  0  0  0  0  0  0
   -2.1170    0.3810   -0.4080 C   0  0  0  0  0  0  0  0  0  0  0  0
   -3.5680    0.3300   -0.0670 C   0  0  2  0  0  0  0  0  0  0  0  0
   -3.7420    0.3370    1.4210 C   0  0  0  0  0  0  0  0  0  0  0  0
   -4.1700   -0.9510   -0.6560 C   0  0  0  0  0  0  0  0  0  0  0  0
   -5.5620   -1.0060   -0.3290 N   0  0  0  0  0  0  0  0  0  0  0  0
   -6.3410    0.0500   -0.9050 C   0  0  0  0  0  0  0  0  0  0  0  0
   -5.4900    1.1270   -1.5370 C   0  0  0  0  0  0  0  0  0  0  0  0
   -4.3110    1.4580   -0.6900 C   0  0  0  0  0  0  0  0  0  0  0  0
   -3.9460    2.5890   -0.4960 O   0  0  0  0  0  0  0  0  0  0  0  0
   -1.6740    0.6260   -1.6830 C   0  0  0  0  0  0  0  0  0  0  0  0
   -0.3460    0.6720   -1.9860 C   0  0  0  0  0  0  0  0  0  0  0  0
    0.0580    0.9160   -3.2570 F   0  0  0  0  0  0  0  0  0  0  0  0
    6.2330    1.5070    1.0260 S   0  0  0  0  0  0  0  0  0  0  0  0
    7.2380    0.3210    2.0170 C   0  0  0  0  0  0  0  0  0  0  0  0
    8.0060    0.6570    2.9580 O   0  0  0  0  0  0  0  0  0  0  0  0
  1  2  1  0
  2  3  1  0
  2 25  1  0
  3  4  2  0
  4  5  1  0
  4 24  1  0
  5  6  1  0
  6  7  2  0
  6  8  1  0
  8  9  1  0
  9 10  2  0
  9 22  1  0
 10 11  1  0
 11 12  2  0
 12 13  1  0
 12 21  1  0
 13 14  1  1
 13 15  1  0
 13 19  1  0
 15 16  1  0
 16 17  1  0
 17 18  1  0
 18 19  1  0
 19 20  2  0
 21 22  2  0
 22 23  1  0
 24 25  1  0
 25 26  2  0
M  CHG  1  16   1
M  END
