
     RDKit          3D

 26 28  0  0  0  0  0  0  0  0999 V2000
   -0.3890   -1.4190   -2.9330 C   0  0  0  0  0  0  0  0  0  0  0  0
   -0.6340   -2.6530   -2.9050 C   0  0  0  0  0  0  0  0  0  0  0  0
   -0.7250   -3.2870   -4.1950 C   0  0  0  0  0  0  0  0  0  0  0  0
   -1.0840   -4.5800   -4.3040 C   0  0  0  0  0  0  0  0  0  0  0  0
   -1.3600   -5.2870   -3.1770 C   0  0  0  0  0  0  0  0  0  0  0  0
   -1.7050   -6.5970   -3.3290 F   0  0  0  0  0  0  0  0  0  0  0  0
   -1.2840   -4.7360   -1.9250 C   0  0  0  0  0  0  0  0  0  0  0  0
   -0.9050   -3.3750   -1.7550 C   0  0  0  0  0  0  0  0  0  0  0  0
   -0.5500   -2.9800   -0.5450 C   0  0  0  0  0  0  0  0  0  0  0  0
   -0.9570   -3.8590    0.6120 C   0  0  0  0  0  0  0  0  0  0  0  0
   -1.1570   -2.8520    2.1270 S   0  0  0  0  0  0  0  0  0  0  0  0
   -1.7520   -1.1650    1.7220 C   0  0  0  0  0  0  0  0  0  0  0  0
   -0.5900   -0.2540    1.5030 C   0  0  2  0  0  0  0  0  0  0  0  0
   -1.0070    0.9890    0.9020 N   0  0  0  0  0  0  0  0  0  0  0  0
   -0.0510    2.0260    1.3010 C   0  0  0  0  0  0  0  0  0  0  0  0
    0.1370    3.0540    0.2160 C   0  0  0  0  0  0  0  0  0  0  0  0
    1.1020    4.0420    0.6510 N   0  0  0  0  0  0  0  0  0  0  0  0
    0.8780    5.2370    1.3570 C   0  0  0  0  0  0  0  0  0  0  0  0
   -0.2330    5.8060    1.5940 O   0  0  0  0  0  0  0  0  0  0  0  0
    2.1660    5.7950    1.8350 C   0  0  0  0  0  0  0  0  0  0  0  0
    3.1840    4.6950    1.5550 C   0  0  0  0  0  0  0  0  0  0  0  0
    2.5370    3.9700    0.4290 C   0  0  0  0  0  0  0  0  0  0  0  0
    3.0330    3.3860   -0.5680 O   0  0  0  0  0  0  0  0  0  0  0  0
    0.4520   -0.8800    0.6190 C   0  0  0  0  0  0  0  0  0  0  0  0
    1.6240   -0.4010    0.7830 O   0  0  0  0  0  0  0  0  0  0  0  0
    0.3630   -1.8920   -0.3510 N   0  0  0  0  0  0  0  0  0  0  0  0
  1  2  2  0
  2  3  1  0
  2  8  1  0
  3  4  2  0
  4  5  1  0
  5  6  1  0
  5  7  2  0
  7  8  1  0
  8  9  2  3
  9 10  1  0
  9 26  1  0
 10 11  1  0
 11 12  1  0
 12 13  1  0
 13 14  1  6
 13 24  1  0
 14 15  1  0
 15 16  1  0
 16 17  1  0
 17 18  1  0
 17 22  1  0
 18 19  2  0
 18 20  1  0
 20 21  1  0
 21 22  1  0
 22 23  2  0
 24 25  2  0
 24 26  1  0
M  CHG  1  14   1
M  END
