
     RDKit          3D

 26 28  0  0  0  0  0  0  0  0999 V2000
   -3.5950   -2.4480    0.7740 C   0  0  0  0  0  0  0  0  0  0  0  0
   -3.5800   -0.9370    0.5260 C   0  0  0  0  0  0  0  0  0  0  0  0
   -2.5950   -0.2820   -0.1060 C   0  0  0  0  0  0  0  0  0  0  0  0
   -2.6460    1.0430   -0.2890 C   0  0  0  0  0  0  0  0  0  0  0  0
   -1.7710    2.0600   -0.9210 C   0  0  0  0  0  0  0  0  0  0  0  0
   -0.5790    1.4070   -1.4580 N   0  0  0  0  0  0  0  0  0  0  0  0
   -0.5970    0.9270   -2.7960 C   0  0  0  0  0  0  0  0  0  0  0  0
   -1.6800    1.0970   -3.4670 O   0  0  0  0  0  0  0  0  0  0  0  0
    0.5640    0.2660   -3.3880 C   0  0  0  0  0  0  0  0  0  0  0  0
    1.7230    0.1600   -2.4620 C   0  0  0  0  0  0  0  0  0  0  0  0
    1.7920    0.5810   -1.2330 C   0  0  0  0  0  0  0  0  0  0  0  0
    2.9200    0.4600   -0.3780 N   0  0  0  0  0  0  0  0  0  0  0  0
    4.1470   -0.1280   -0.7010 C   0  0  0  0  0  0  0  0  0  0  0  0
    4.3520   -0.6180   -1.8310 O   0  0  0  0  0  0  0  0  0  0  0  0
    5.2540   -0.2040    0.2540 C   0  0  0  0  0  0  0  0  0  0  0  0
    6.4250   -0.7320    0.0380 C   0  0  0  0  0  0  0  0  0  0  0  0
    7.2380   -0.5940    1.2720 C   0  0  0  0  0  0  0  0  0  0  0  0
    6.3590    0.0860    2.2150 C   0  0  0  0  0  0  0  0  0  0  0  0
    6.7040    0.4220    3.5010 F   0  0  0  0  0  0  0  0  0  0  0  0
    5.2030    0.3060    1.6030 C   0  0  0  0  0  0  0  0  0  0  0  0
    0.5820    1.2420   -0.6900 C   0  0  0  0  0  0  0  0  0  0  0  0
    0.6100    1.6670    0.5060 O   0  0  0  0  0  0  0  0  0  0  0  0
   -4.2610    1.4560    0.5120 S   0  0  0  0  0  0  0  0  0  0  0  0
   -4.6400   -0.1850    0.9760 C   0  0  0  0  0  0  0  0  0  0  0  0
   -5.8710   -0.6510    1.7110 C   0  0  0  0  0  0  0  0  0  0  0  0
   -6.7120    0.5000    1.9810 N   0  0  0  0  0  0  0  0  0  0  0  0
  1  2  1  0
  2  3  1  0
  2 24  2  0
  3  4  2  0
  4  5  1  0
  4 23  1  0
  5  6  1  0
  6  7  1  0
  6 21  1  0
  7  8  2  0
  7  9  1  0
  9 10  1  0
 10 11  2  0
 11 12  1  0
 11 21  1  0
 12 13  1  0
 13 14  2  0
 13 15  1  0
 15 16  2  0
 15 20  1  0
 16 17  1  0
 17 18  1  0
 18 19  1  0
 18 20  2  0
 21 22  2  0
 23 24  1  0
 24 25  1  0
 25 26  1  0
M  CHG  1  26   1
M  END
