
     RDKit          3D

 25 28  0  0  0  0  0  0  0  0999 V2000
   -0.7460    4.2410    1.4090 C   0  0  0  0  0  0  0  0  0  0  0  0
   -1.7270    3.4280    0.5950 C   0  0  1  0  0  0  0  0  0  0  0  0
   -1.3860    3.3740   -0.8480 C   0  0  0  0  0  0  0  0  0  0  0  0
   -1.0540    1.9560   -1.2140 C   0  0  0  0  0  0  0  0  0  0  0  0
   -1.0370    1.1580    0.0800 C   0  0  2  0  0  0  0  0  0  0  0  0
    0.3710    1.0280    0.5010 C   0  0  0  0  0  0  0  0  0  0  0  0
    0.9850   -0.3220    0.4120 C   0  0  2  0  0  0  0  0  0  0  0  0
    2.4730   -0.1490    0.1790 C   0  0  2  0  0  0  0  0  0  0  0  0
    3.2030   -1.4390    0.0690 C   0  0  0  0  0  0  0  0  0  0  0  0
    4.6800   -1.2030    0.0950 C   0  0  0  0  0  0  0  0  0  0  0  0
    5.0730    0.1340   -0.0600 O   0  0  0  0  0  0  0  0  0  0  0  0
    4.4440    1.0760    0.7280 C   0  0  0  0  0  0  0  0  0  0  0  0
    5.0010    2.1600    0.9790 O   0  0  0  0  0  0  0  0  0  0  0  0
    3.1010    0.7480    1.2530 C   0  0  0  0  0  0  0  0  0  0  0  0
    0.4190   -1.0370   -0.7820 C   0  0  0  0  0  0  0  0  0  0  0  0
   -1.0420   -1.2750   -0.6260 C   0  0  1  0  0  0  0  0  0  0  0  0
   -1.6060   -1.6440   -2.0020 C   0  0  0  0  0  0  0  0  0  0  0  0
   -2.8970   -2.3100   -1.5690 C   0  0  0  0  0  0  0  0  0  0  0  0
   -2.8020   -2.5600   -0.2140 O   0  0  0  0  0  0  0  0  0  0  0  0
   -1.4100   -2.5560    0.0610 C   0  0  2  0  0  0  0  0  0  0  0  0
   -1.1240   -2.6070    1.5100 C   0  0  0  0  0  0  0  0  0  0  0  0
   -0.8770   -3.7820   -0.6020 C   0  0  0  0  0  0  0  0  0  0  0  0
   -1.8020   -0.1040   -0.1290 C   0  0  0  0  0  0  0  0  0  0  0  0
   -1.7810    2.0100    1.0790 C   0  0  2  0  0  0  0  0  0  0  0  0
   -3.0950    1.6210    1.2520 O   0  0  0  0  0  0  0  0  0  0  0  0
  2  1  1  1
  2  3  1  0
  2 24  1  0
  3  4  1  0
  5  4  1  6
  5  6  1  0
  5 23  1  0
  5 24  1  0
  7  6  1  6
  7  8  1  0
  7 15  1  0
  8  9  1  1
  8 14  1  0
  9 10  1  0
 10 11  1  0
 11 12  1  0
 12 13  2  0
 12 14  1  0
 16 15  1  6
 16 17  1  0
 16 20  1  0
 16 23  1  0
 17 18  1  0
 18 19  1  0
 19 20  1  0
 20 21  1  1
 20 22  1  0
 24 25  1  6
M  END
