
     RDKit          3D

 25 28  0  0  0  0  0  0  0  0999 V2000
    0.9670   -1.2480   -2.0370 O   0  0  0  0  0  0  0  0  0  0  0  0
    1.2330   -0.1490   -1.1290 C   0  0  1  0  0  0  0  0  0  0  0  0
    0.0500   -0.0500   -0.2020 C   0  0  1  0  0  0  0  0  0  0  0  0
    0.0520    1.0270    0.8010 C   0  0  0  0  0  0  0  0  0  0  0  0
   -0.4890    2.3570    0.3880 C   0  0  2  0  0  0  0  0  0  0  0  0
    0.5730    3.4470    0.4770 C   0  0  0  0  0  0  0  0  0  0  0  0
   -0.1410    4.5870    1.1710 C   0  0  0  0  0  0  0  0  0  0  0  0
   -1.4750    4.2640    1.1970 O   0  0  0  0  0  0  0  0  0  0  0  0
   -1.4410    2.8770    1.4760 C   0  0  0  0  0  0  0  0  0  0  0  0
   -1.0690    2.3030   -0.8490 O   0  0  0  0  0  0  0  0  0  0  0  0
   -1.9550    1.2460   -0.9160 C   0  0  0  0  0  0  0  0  0  0  0  0
   -1.1990   -0.0360   -1.0440 C   0  0  2  0  0  0  0  0  0  0  0  0
   -2.0800   -1.2460   -0.7860 C   0  0  1  0  0  0  0  0  0  0  0  0
   -2.5520   -1.3590    0.6210 C   0  0  0  0  0  0  0  0  0  0  0  0
   -3.6250   -2.4160    0.6970 C   0  0  0  0  0  0  0  0  0  0  0  0
   -4.7620   -2.1920   -0.2460 C   0  0  0  0  0  0  0  0  0  0  0  0
   -4.1880   -2.3060   -1.6640 C   0  0  0  0  0  0  0  0  0  0  0  0
   -3.1900   -1.1960   -1.8060 C   0  0  0  0  0  0  0  0  0  0  0  0
    2.5320   -0.5290   -0.5200 C   0  0  2  0  0  0  0  0  0  0  0  0
    2.5060   -1.8200    0.2460 C   0  0  0  0  0  0  0  0  0  0  0  0
    3.8880   -2.0900    0.7870 C   0  0  0  0  0  0  0  0  0  0  0  0
    4.9340   -1.3960   -0.0520 C   0  0  0  0  0  0  0  0  0  0  0  0
    4.7970    0.1090    0.0300 C   0  0  0  0  0  0  0  0  0  0  0  0
    3.3180    0.4900    0.2000 C   0  0  1  0  0  0  0  0  0  0  0  0
    3.1370    1.7270   -0.3910 O   0  0  0  0  0  0  0  0  0  0  0  0
  2  1  1  6
  2  3  1  0
  2 19  1  0
  3  4  1  6
  3 12  1  0
  5  4  1  1
  5  6  1  0
  5  9  1  0
  5 10  1  0
  6  7  1  0
  7  8  1  0
  8  9  1  0
 10 11  1  0
 12 11  1  1
 12 13  1  0
 13 14  1  1
 13 18  1  0
 14 15  1  0
 15 16  1  0
 16 17  1  0
 17 18  1  0
 19 20  1  1
 19 24  1  0
 20 21  1  0
 21 22  1  0
 22 23  1  0
 23 24  1  0
 24 25  1  6
M  END
