
     RDKit          3D

 25 27  0  0  0  0  0  0  0  0999 V2000
   -4.8980    1.2850    1.8790 C   0  0  0  0  0  0  0  0  0  0  0  0
   -4.6810    0.5800    0.5550 C   0  0  0  0  0  0  0  0  0  0  0  0
   -3.4800    1.2240   -0.1010 C   0  0  0  0  0  0  0  0  0  0  0  0
   -3.1240    0.6490   -1.4160 C   0  0  1  0  0  0  0  0  0  0  0  0
   -1.9140    1.3900   -1.9460 C   0  0  0  0  0  0  0  0  0  0  0  0
   -0.9480    1.7090   -0.8260 C   0  0  0  0  0  0  0  0  0  0  0  0
    0.4540    1.9760   -1.3830 C   0  0  0  0  0  0  0  0  0  0  0  0
    1.2510    0.8200   -1.2300 O   0  0  0  0  0  0  0  0  0  0  0  0
    2.0180    0.8770   -0.0930 C   0  0  2  0  0  0  0  0  0  0  0  0
    3.3870    1.4280   -0.5060 C   0  0  0  0  0  0  0  0  0  0  0  0
    4.1670    1.6720    0.7510 C   0  0  2  0  0  0  0  0  0  0  0  0
    5.4610    2.3640    0.3540 C   0  0  0  0  0  0  0  0  0  0  0  0
    4.4380    0.3450    1.4110 C   0  0  0  0  0  0  0  0  0  0  0  0
    3.6560   -0.7840    0.7780 C   0  0  0  0  0  0  0  0  0  0  0  0
    2.1910   -0.4250    0.6160 C   0  0  2  0  0  0  0  0  0  0  0  0
    1.5090   -1.5810   -0.0700 C   0  0  1  0  0  0  0  0  0  0  0  0
    2.2120   -2.7340    0.2330 O   0  0  0  0  0  0  0  0  0  0  0  0
    1.6270   -3.3260    1.3260 C   0  0  0  0  0  0  0  0  0  0  0  0
    0.1590   -3.1840    1.0710 C   0  0  0  0  0  0  0  0  0  0  0  0
    0.0980   -1.8010    0.4090 C   0  0  2  0  0  0  0  0  0  0  0  0
   -0.8460   -1.9190   -0.7470 C   0  0  0  0  0  0  0  0  0  0  0  0
   -2.2720   -1.4930   -0.3690 C   0  0  2  0  0  0  0  0  0  0  0  0
   -2.9400   -2.7080   -0.0860 O   0  0  0  0  0  0  0  0  0  0  0  0
   -2.9500   -0.8190   -1.4930 C   0  0  1  0  0  0  0  0  0  0  0  0
   -4.1880   -1.4390   -1.7510 O   0  0  0  0  0  0  0  0  0  0  0  0
  1  2  1  0
  2  3  1  0
  4  3  1  1
  4  5  1  0
  4 24  1  0
  5  6  1  0
  6  7  1  0
  7  8  1  0
  8  9  1  0
  9 10  1  6
  9 15  1  0
 10 11  1  0
 11 12  1  6
 11 13  1  0
 13 14  1  0
 15 14  1  6
 15 16  1  0
 16 17  1  1
 16 20  1  0
 17 18  1  0
 18 19  1  0
 20 19  1  6
 20 21  1  0
 21 22  1  0
 22 23  1  6
 22 24  1  0
 24 25  1  1
M  END
