
     RDKit          3D

 25 28  0  0  0  0  0  0  0  0999 V2000
   -2.5100    1.9610    1.6280 C   0  0  0  0  0  0  0  0  0  0  0  0
   -2.6970    1.7780    0.1400 C   0  0  2  0  0  0  0  0  0  0  0  0
   -2.0860    3.0170   -0.4980 C   0  0  0  0  0  0  0  0  0  0  0  0
   -4.1770    1.8840   -0.1220 C   0  0  0  0  0  0  0  0  0  0  0  0
   -2.0300    0.6050   -0.4390 C   0  0  1  0  0  0  0  0  0  0  0  0
   -0.5360    0.7070   -0.1910 C   0  0  0  0  0  0  0  0  0  0  0  0
    0.2480   -0.2510   -1.1080 C   0  0  1  0  0  0  0  0  0  0  0  0
    1.7080    0.0140   -0.8810 C   0  0  2  0  0  0  0  0  0  0  0  0
    2.6200   -0.8120   -1.7210 C   0  0  0  0  0  0  0  0  0  0  0  0
    3.5530   -1.6540   -0.8820 C   0  0  0  0  0  0  0  0  0  0  0  0
    4.3380   -0.8800   -0.0370 O   0  0  0  0  0  0  0  0  0  0  0  0
    3.6180    0.1080    0.6230 C   0  0  2  0  0  0  0  0  0  0  0  0
    4.0210    1.4390    0.0290 C   0  0  0  0  0  0  0  0  0  0  0  0
    5.0510    1.9330    1.0220 C   0  0  0  0  0  0  0  0  0  0  0  0
    4.4620    1.5460    2.2400 O   0  0  0  0  0  0  0  0  0  0  0  0
    4.0490    0.2450    2.0680 C   0  0  0  0  0  0  0  0  0  0  0  0
    2.1170   -0.1070    0.5490 C   0  0  0  0  0  0  0  0  0  0  0  0
   -0.1890   -1.6380   -0.6240 C   0  0  2  0  0  0  0  0  0  0  0  0
    0.4590   -2.6660   -1.2570 O   0  0  0  0  0  0  0  0  0  0  0  0
   -1.6370   -1.7060   -0.9420 C   0  0  1  0  0  0  0  0  0  0  0  0
   -2.3430   -2.9840   -0.7480 C   0  0  0  0  0  0  0  0  0  0  0  0
   -3.7700   -2.5110   -0.5590 C   0  0  0  0  0  0  0  0  0  0  0  0
   -3.7300   -1.1130   -0.6060 O   0  0  0  0  0  0  0  0  0  0  0  0
   -2.4780   -0.7590   -0.0870 C   0  0  2  0  0  0  0  0  0  0  0  0
   -2.4310   -1.1280    1.3510 C   0  0  0  0  0  0  0  0  0  0  0  0
  2  1  1  1
  2  3  1  0
  2  4  1  0
  2  5  1  0
  5  6  1  1
  5 24  1  0
  7  6  1  1
  7  8  1  0
  7 18  1  0
  8  9  1  6
  8 17  1  0
  9 10  1  0
 10 11  1  0
 11 12  1  0
 12 13  1  6
 12 16  1  0
 12 17  1  0
 13 14  1  0
 14 15  1  0
 15 16  1  0
 18 19  1  6
 18 20  1  0
 20 21  1  1
 20 24  1  0
 21 22  1  0
 22 23  1  0
 23 24  1  0
 24 25  1  1
M  END
