
     RDKit          3D

 25 28  0  0  0  0  0  0  0  0999 V2000
    1.0860   -0.0080   -2.8460 C   0  0  0  0  0  0  0  0  0  0  0  0
    1.6630   -0.0750   -1.5000 C   0  0  1  0  0  0  0  0  0  0  0  0
    2.9930    0.7050   -1.6200 C   0  0  0  0  0  0  0  0  0  0  0  0
    3.5550    1.2370   -0.3740 C   0  0  0  0  0  0  0  0  0  0  0  0
    3.3060    0.2630    0.7510 C   0  0  0  0  0  0  0  0  0  0  0  0
    4.2290   -0.1070    1.6060 C   0  0  0  0  0  0  0  0  0  0  0  0
    3.9140   -0.9950    2.5930 O   0  0  0  0  0  0  0  0  0  0  0  0
    2.6500   -1.5500    2.7480 C   0  0  0  0  0  0  0  0  0  0  0  0
    1.6460   -1.0860    1.7410 C   0  0  0  0  0  0  0  0  0  0  0  0
    1.9310   -0.2360    0.7950 C   0  0  0  0  0  0  0  0  0  0  0  0
    1.0350    0.2950   -0.2620 C   0  0  2  0  0  0  0  0  0  0  0  0
   -0.4280    0.2210    0.0330 C   0  0  1  0  0  0  0  0  0  0  0  0
   -0.6250    0.6960    1.4590 C   0  0  0  0  0  0  0  0  0  0  0  0
   -1.3740    1.8670    1.5770 O   0  0  0  0  0  0  0  0  0  0  0  0
   -0.6110    2.8920    1.0380 C   0  0  0  0  0  0  0  0  0  0  0  0
   -0.6490    2.6920   -0.4530 C   0  0  0  0  0  0  0  0  0  0  0  0
   -1.1430    1.2880   -0.8180 C   0  0  2  0  0  0  0  0  0  0  0  0
   -2.5960    1.3040   -0.7830 C   0  0  0  0  0  0  0  0  0  0  0  0
   -3.3690    0.0330   -0.8320 C   0  0  0  0  0  0  0  0  0  0  0  0
   -3.3260   -0.7430    0.4550 C   0  0  0  0  0  0  0  0  0  0  0  0
   -2.1400   -1.6450    0.4430 C   0  0  1  0  0  0  0  0  0  0  0  0
   -1.8820   -2.2290    1.6780 O   0  0  0  0  0  0  0  0  0  0  0  0
   -2.5690   -2.8630   -0.4160 C   0  0  0  0  0  0  0  0  0  0  0  0
   -1.4530   -3.7160   -0.3860 O   0  0  0  0  0  0  0  0  0  0  0  0
   -0.9360   -1.1150   -0.2780 C   0  0  0  0  0  0  0  0  0  0  0  0
  2  1  1  6
  2  3  1  0
  2 11  1  0
  3  4  1  0
  4  5  1  0
  5  6  2  0
  5 10  1  0
  6  7  1  0
  7  8  1  0
  8  9  1  0
  9 10  2  0
 11 10  1  1
 11 12  1  0
 12 13  1  1
 12 17  1  0
 12 25  1  0
 13 14  1  0
 14 15  1  0
 15 16  1  0
 17 16  1  1
 17 18  1  0
 18 19  1  0
 19 20  1  0
 20 21  1  0
 21 22  1  1
 21 23  1  0
 21 25  1  0
 23 24  1  0
M  END
