
     RDKit          3D

 24 27  0  0  0  0  0  0  0  0999 V2000
    6.8880    0.2590   -0.0530 C   0  0  0  0  0  0  0  0  0  0  0  0
    5.7320   -0.0480   -0.9300 C   0  0  0  0  0  0  0  0  0  0  0  0
    4.8220   -1.1300   -0.4550 C   0  0  1  0  0  0  0  0  0  0  0  0
    4.1740   -0.8900    0.8650 C   0  0  0  0  0  0  0  0  0  0  0  0
    3.1710    0.2350    0.8430 C   0  0  0  0  0  0  0  0  0  0  0  0
    2.0210   -0.2000   -0.0490 C   0  0  1  0  0  0  0  0  0  0  0  0
    2.3660   -1.3990   -0.8890 C   0  0  0  0  0  0  0  0  0  0  0  0
    3.7420   -1.3310   -1.4860 C   0  0  0  0  0  0  0  0  0  0  0  0
    0.8160   -0.5900    0.7980 C   0  0  0  0  0  0  0  0  0  0  0  0
   -0.4120    0.0250    0.1950 C   0  0  1  0  0  0  0  0  0  0  0  0
   -1.6410   -0.5580    0.8120 C   0  0  0  0  0  0  0  0  0  0  0  0
   -2.9030    0.0400    0.2270 C   0  0  1  0  0  0  0  0  0  0  0  0
   -3.0300   -0.1780   -1.2380 C   0  0  1  0  0  0  0  0  0  0  0  0
   -2.9710   -1.4560   -1.6870 O   0  0  0  0  0  0  0  0  0  0  0  0
   -4.2950    0.5530   -1.6930 C   0  0  0  0  0  0  0  0  0  0  0  0
   -5.4710    0.2340   -0.7970 C   0  0  2  0  0  0  0  0  0  0  0  0
   -5.6590    1.3480    0.2370 C   0  0  0  0  0  0  0  0  0  0  0  0
   -4.9110    0.8930    1.4770 C   0  0  0  0  0  0  0  0  0  0  0  0
   -4.1280   -0.3480    1.0150 C   0  0  1  0  0  0  0  0  0  0  0  0
   -5.2030   -0.9500    0.0990 C   0  0  0  0  0  0  0  0  0  0  0  0
   -0.2990    1.5150    0.3510 C   0  0  1  0  0  0  0  0  0  0  0  0
   -0.6110    1.8430    1.6530 O   0  0  0  0  0  0  0  0  0  0  0  0
    1.1380    1.8800    0.0220 C   0  0  0  0  0  0  0  0  0  0  0  0
    1.6780    0.9090   -0.8210 O   0  0  0  0  0  0  0  0  0  0  0  0
  1  2  1  0
  3  2  1  6
  3  4  1  0
  3  8  1  0
  4  5  1  0
  6  5  1  1
  6  7  1  0
  6  9  1  0
  6 24  1  0
  7  8  1  0
  9 10  1  0
 10 11  1  1
 10 21  1  0
 12 11  1  1
 12 13  1  0
 12 19  1  0
 13 14  1  1
 13 15  1  0
 16 15  1  6
 16 17  1  0
 16 20  1  0
 17 18  1  0
 19 18  1  6
 19 20  1  0
 21 22  1  1
 21 23  1  0
 23 24  1  0
M  END
