
     RDKit          3D

 25 28  0  0  0  0  0  0  0  0999 V2000
    5.1830    2.5120   -1.0490 C   0  0  0  0  0  0  0  0  0  0  0  0
    5.6520    1.4540   -0.0820 C   0  0  0  0  0  0  0  0  0  0  0  0
    5.0230    0.2080   -0.3190 O   0  0  0  0  0  0  0  0  0  0  0  0
    3.6440    0.0450   -0.2470 C   0  0  0  0  0  0  0  0  0  0  0  0
    2.9690    1.0410    0.0360 O   0  0  0  0  0  0  0  0  0  0  0  0
    3.0850   -1.2590   -0.5030 C   0  0  1  0  0  0  0  0  0  0  0  0
    3.6530   -2.1830    0.6030 C   0  0  0  0  0  0  0  0  0  0  0  0
    2.8560   -2.0040    1.8730 C   0  0  0  0  0  0  0  0  0  0  0  0
    1.5130   -2.1870    1.7050 O   0  0  0  0  0  0  0  0  0  0  0  0
    0.9040   -1.3310    0.7910 C   0  0  2  0  0  0  0  0  0  0  0  0
   -0.5030   -1.8650    0.6190 C   0  0  0  0  0  0  0  0  0  0  0  0
   -1.1920   -1.5150   -0.6340 C   0  0  2  0  0  0  0  0  0  0  0  0
   -0.3200   -1.8400   -1.8500 C   0  0  0  0  0  0  0  0  0  0  0  0
    0.8190   -0.8280   -1.5740 C   0  0  1  0  0  0  0  0  0  0  0  0
    0.0360    0.3730   -1.1680 C   0  0  0  0  0  0  0  0  0  0  0  0
   -1.3950   -0.0510   -0.8900 C   0  0  2  0  0  0  0  0  0  0  0  0
   -1.9870    0.7060    0.2390 C   0  0  1  0  0  0  0  0  0  0  0  0
   -2.1150    2.1650   -0.2090 C   0  0  0  0  0  0  0  0  0  0  0  0
   -3.4510    2.2380   -0.9220 C   0  0  0  0  0  0  0  0  0  0  0  0
   -4.1670    0.9430   -0.6380 C   0  0  0  0  0  0  0  0  0  0  0  0
   -3.4020    0.3370    0.4980 C   0  0  1  0  0  0  0  0  0  0  0  0
   -3.6460   -1.0100    0.6090 O   0  0  0  0  0  0  0  0  0  0  0  0
   -3.8390    0.9780    1.8200 C   0  0  0  0  0  0  0  0  0  0  0  0
   -5.2710    0.6440    2.1490 C   0  0  0  0  0  0  0  0  0  0  0  0
    1.6380   -1.4770   -0.5130 C   0  0  1  0  0  0  0  0  0  0  0  0
  1  2  1  0
  2  3  1  0
  3  4  1  0
  4  5  2  0
  6  4  1  1
  6  7  1  0
 25  6  1  1
  7  8  1  0
  8  9  1  0
  9 10  1  0
 10 11  1  6
 10 25  1  0
 12 11  1  1
 12 13  1  0
 12 16  1  0
 13 14  1  0
 14 15  1  1
 14 25  1  0
 16 15  1  1
 16 17  1  0
 17 18  1  6
 17 21  1  0
 18 19  1  0
 19 20  1  0
 20 21  1  0
 21 22  1  1
 21 23  1  0
 23 24  1  0
M  END
