
     RDKit          3D

 19 19  0  0  0  0  0  0  0  0999 V2000
    4.6690    0.1970    0.4310 C   0  0  0  0  0  0  0  0  0  0  0  0
    3.1710    0.4110    0.6400 C   0  0  2  0  0  0  0  0  0  0  0  0
    2.8810    1.8810    0.8410 C   0  0  0  0  0  0  0  0  0  0  0  0
    2.7430   -0.3730    1.6880 O   0  0  0  0  0  0  0  0  0  0  0  0
    2.7050   -1.6620    1.1920 C   0  0  0  0  0  0  0  0  0  0  0  0
    2.7310   -1.4540   -0.3060 C   0  0  1  0  0  0  0  0  0  0  0  0
    1.8380   -2.4050   -0.9830 C   0  0  0  0  0  0  0  0  0  0  0  0
    0.5300   -2.3460   -0.6550 O   0  0  0  0  0  0  0  0  0  0  0  0
   -0.1820   -1.2250   -0.9340 C   0  0  1  0  0  0  0  0  0  0  0  0
   -1.1460   -1.5270   -1.9780 O   0  0  0  0  0  0  0  0  0  0  0  0
   -1.0560   -0.6940    0.1750 C   0  0  1  0  0  0  0  0  0  0  0  0
   -0.2610   -0.3830    1.2620 O   0  0  0  0  0  0  0  0  0  0  0  0
   -1.7710    0.5200   -0.3610 C   0  0  2  0  0  0  0  0  0  0  0  0
   -0.7630    1.4810   -0.7620 N   0  0  0  0  0  0  0  0  0  0  0  0
   -2.7250    1.1290    0.6200 C   0  0  1  0  0  0  0  0  0  0  0  0
   -3.3650    2.2790    0.0320 N   0  0  0  0  0  0  0  0  0  0  0  0
   -3.7570    0.1570    1.1310 C   0  0  0  0  0  0  0  0  0  0  0  0
   -4.5790   -0.3940    0.0920 N   0  0  0  0  0  0  0  0  0  0  0  0
    2.4530   -0.1030   -0.4570 O   0  0  0  0  0  0  0  0  0  0  0  0
  2  1  1  6
  2  3  1  0
  2  4  1  0
  2 19  1  0
  4  5  1  0
  5  6  1  0
  6  7  1  6
  6 19  1  0
  7  8  1  0
  8  9  1  0
  9 10  1  6
  9 11  1  0
 11 12  1  1
 11 13  1  0
 13 14  1  1
 13 15  1  0
 15 16  1  6
 15 17  1  0
 17 18  1  0
M  CHG  3  14   1  16   1  18   1
M  END
