
     RDKit          3D

 16 17  0  0  0  0  0  0  0  0999 V2000
    0.0080   -0.8660    0.3730 O   0  0  0  0  0  0  0  0  0  0  0  0
    0.0240    0.2050   -0.2520 C   0  0  0  0  0  0  0  0  0  0  0  0
   -1.2140    0.8120   -0.6480 N   0  0  0  0  0  0  0  0  0  0  0  0
   -2.4970    0.2950   -0.3860 C   0  0  0  0  0  0  0  0  0  0  0  0
   -3.5840    0.9260   -1.0190 C   0  0  0  0  0  0  0  0  0  0  0  0
   -4.8770    0.5060   -0.8210 C   0  0  0  0  0  0  0  0  0  0  0  0
   -5.1890   -0.5520    0.0030 C   0  0  0  0  0  0  0  0  0  0  0  0
   -4.1290   -1.1690    0.6220 C   0  0  0  0  0  0  0  0  0  0  0  0
   -2.7980   -0.7490    0.4290 C   0  0  0  0  0  0  0  0  0  0  0  0
    1.2680    0.8050   -0.5600 N   0  0  0  0  0  0  0  0  0  0  0  0
    2.5290    0.3120   -0.2350 C   0  0  0  0  0  0  0  0  0  0  0  0
    3.6490    1.1380   -0.4140 C   0  0  0  0  0  0  0  0  0  0  0  0
    4.9120    0.6820   -0.1180 C   0  0  0  0  0  0  0  0  0  0  0  0
    5.1340   -0.5840    0.3600 C   0  0  0  0  0  0  0  0  0  0  0  0
    4.0460   -1.3830    0.5330 C   0  0  0  0  0  0  0  0  0  0  0  0
    2.7530   -0.9410    0.2380 C   0  0  0  0  0  0  0  0  0  0  0  0
  1  2  2  0
  2  3  1  0
  2 10  1  0
  3  4  1  0
  4  5  2  0
  4  9  1  0
  5  6  1  0
  6  7  2  0
  7  8  1  0
  8  9  2  0
 10 11  1  0
 11 12  2  0
 11 16  1  0
 12 13  1  0
 13 14  2  0
 14 15  1  0
 15 16  2  0
M  END
