
     RDKit          3D

 18 19  0  0  0  0  0  0  0  0999 V2000
    5.5770    1.7390   -0.2150 C   0  0  0  0  0  0  0  0  0  0  0  0
    5.4840    0.3950   -0.8800 C   0  0  0  0  0  0  0  0  0  0  0  0
    4.2800   -0.3890   -0.4000 C   0  0  0  0  0  0  0  0  0  0  0  0
    3.0630    0.4090   -0.7290 C   0  0  0  0  0  0  0  0  0  0  0  0
    1.8060   -0.2730   -0.2970 C   0  0  0  0  0  0  0  0  0  0  0  0
    0.5720    0.2290   -0.4740 N   0  0  0  0  0  0  0  0  0  0  0  0
   -0.3500   -0.6010    0.0110 C   0  0  0  0  0  0  0  0  0  0  0  0
   -1.8050   -0.3640   -0.0150 C   0  0  1  0  0  0  0  0  0  0  0  0
   -2.5480   -1.4150   -0.8060 C   0  0  0  0  0  0  0  0  0  0  0  0
   -3.8720   -0.7950   -1.2140 C   0  0  0  0  0  0  0  0  0  0  0  0
   -4.7990   -0.5990   -0.0520 C   0  0  0  0  0  0  0  0  0  0  0  0
   -4.5350    1.0090    0.7050 S   0  0  2  0  0  0  0  0  0  0  0  0
   -5.6770    1.2590    1.6340 O   0  0  0  0  0  0  0  0  0  0  0  0
   -4.4900    2.0750   -0.3350 O   0  0  0  0  0  0  0  0  0  0  0  0
   -3.0370    0.9960    1.6540 C   0  0  0  0  0  0  0  0  0  0  0  0
   -2.2840   -0.2990    1.4160 C   0  0  0  0  0  0  0  0  0  0  0  0
    0.3390   -1.6490    0.5030 N   0  0  0  0  0  0  0  0  0  0  0  0
    1.6310   -1.4450    0.3140 N   0  0  0  0  0  0  0  0  0  0  0  0
  1  2  1  0
  2  3  1  0
  3  4  1  0
  4  5  1  0
  5  6  2  0
  5 18  1  0
  6  7  1  0
  8  7  1  1
  7 17  2  0
  8  9  1  0
  8 16  1  0
  9 10  1  0
 10 11  1  0
 12 11  1  6
 12 13  2  0
 12 14  2  0
 12 15  1  0
 15 16  1  0
 17 18  1  0
M  END
