
     RDKit          3D

 18 19  0  0  0  0  0  0  0  0999 V2000
    1.3520   -0.6490   -1.9430 C   0  0  0  0  0  0  0  0  0  0  0  0
    2.3930   -0.3270   -1.2170 C   0  0  0  0  0  0  0  0  0  0  0  0
    3.6180   -0.4230   -1.9160 O   0  0  0  0  0  0  0  0  0  0  0  0
    2.3260    0.0860    0.1520 C   0  0  0  0  0  0  0  0  0  0  0  0
    3.3980    0.4010    0.8500 C   0  0  0  0  0  0  0  0  0  0  0  0
    4.7750    0.4060    0.4440 C   0  0  0  0  0  0  0  0  0  0  0  0
    5.3760    1.7540    0.5590 N   0  0  0  0  0  0  0  0  0  0  0  0
    0.9960    0.1670    0.8270 C   0  0  0  0  0  0  0  0  0  0  0  0
    0.8920    0.5540    2.1280 C   0  0  0  0  0  0  0  0  0  0  0  0
   -0.8910    0.4860    2.4530 S   0  0  0  0  0  0  0  0  0  0  0  0
   -1.2220   -0.0850    0.6820 C   0  0  0  0  0  0  0  0  0  0  0  0
   -2.5900   -0.3340    0.2860 N   0  0  0  0  0  0  0  0  0  0  0  0
   -3.6910   -0.1580    1.2020 C   0  0  0  0  0  0  0  0  0  0  0  0
   -4.7870    0.5570    0.4070 C   0  0  0  0  0  0  0  0  0  0  0  0
   -5.2170   -0.1860   -0.6650 O   0  0  0  0  0  0  0  0  0  0  0  0
   -4.3740   -1.2090   -1.0210 C   0  0  0  0  0  0  0  0  0  0  0  0
   -2.9050   -0.7720   -1.0500 C   0  0  0  0  0  0  0  0  0  0  0  0
   -0.1580   -0.1080    0.2810 N   0  0  0  0  0  0  0  0  0  0  0  0
  1  2  2  0
  2  3  1  0
  2  4  1  0
  4  5  2  3
  4  8  1  0
  5  6  1  0
  6  7  1  0
  8  9  2  0
  8 18  1  0
  9 10  1  0
 10 11  1  0
 11 12  1  0
 11 18  2  0
 12 13  1  0
 12 17  1  0
 13 14  1  0
 14 15  1  0
 15 16  1  0
 16 17  1  0
M  END
