
     RDKit          3D

 20 20  0  0  0  0  0  0  0  0999 V2000
    6.0960   -1.4120    0.9560 N   0  0  0  0  0  0  0  0  0  0  0  0
    5.2390   -0.7660    0.0400 C   0  0  0  0  0  0  0  0  0  0  0  0
    4.7640   -1.4240   -0.9090 O   0  0  0  0  0  0  0  0  0  0  0  0
    4.9030    0.6600    0.1890 C   0  0  0  0  0  0  0  0  0  0  0  0
    4.0300    1.1760   -0.7290 O   0  0  0  0  0  0  0  0  0  0  0  0
    2.7720    0.6450   -0.7650 C   0  0  0  0  0  0  0  0  0  0  0  0
    2.0390    0.7880    0.5530 C   0  0  0  0  0  0  0  0  0  0  0  0
    0.7760    0.2700    0.5660 O   0  0  0  0  0  0  0  0  0  0  0  0
   -0.1170    0.8240   -0.3170 C   0  0  1  0  0  0  0  0  0  0  0  0
   -0.5160   -0.2340   -1.3140 C   0  0  0  0  0  0  0  0  0  0  0  0
   -1.3440   -1.3360   -0.7050 C   0  0  2  0  0  0  0  0  0  0  0  0
   -2.3020   -1.8210   -1.6780 N   0  0  0  0  0  0  0  0  0  0  0  0
   -2.0310   -0.9570    0.5580 C   0  0  2  0  0  0  0  0  0  0  0  0
   -3.2290   -1.6940    0.7050 O   0  0  0  0  0  0  0  0  0  0  0  0
   -2.3710    0.4780    0.7300 C   0  0  2  0  0  0  0  0  0  0  0  0
   -2.6630    0.6660    2.1640 N   0  0  0  0  0  0  0  0  0  0  0  0
   -3.6810    0.8550    0.0250 C   0  0  2  0  0  0  0  0  0  0  0  0
   -4.7190    0.0420    0.4370 O   0  0  0  0  0  0  0  0  0  0  0  0
   -3.5230    0.8950   -1.3570 O   0  0  0  0  0  0  0  0  0  0  0  0
   -1.2940    1.4430    0.3830 C   0  0  0  0  0  0  0  0  0  0  0  0
  1  2  1  0
  2  3  2  0
  2  4  1  0
  4  5  1  0
  5  6  1  0
  6  7  1  0
  7  8  1  0
  9  8  1  1
  9 10  1  0
  9 20  1  0
 10 11  1  0
 11 12  1  6
 11 13  1  0
 13 14  1  6
 13 15  1  0
 15 16  1  1
 15 17  1  0
 15 20  1  0
 17 18  1  6
 17 19  1  0
M  CHG  1  12   1
M  END
