
     RDKit          3D

 21 23  0  0  0  0  0  0  0  0999 V2000
   -1.8250   -2.3770   -1.9940 C   0  0  0  0  0  0  0  0  0  0  0  0
   -1.1820   -1.4680   -1.1560 O   0  0  0  0  0  0  0  0  0  0  0  0
   -1.7490   -0.4340   -0.4520 C   0  0  0  0  0  0  0  0  0  0  0  0
   -3.1030   -0.1700   -0.4980 C   0  0  0  0  0  0  0  0  0  0  0  0
   -3.6630    0.8780    0.2170 C   0  0  0  0  0  0  0  0  0  0  0  0
   -5.0410    1.1220    0.1520 O   0  0  0  0  0  0  0  0  0  0  0  0
   -2.8060    1.6410    0.9720 C   0  0  0  0  0  0  0  0  0  0  0  0
   -3.3230    2.6990    1.6970 O   0  0  0  0  0  0  0  0  0  0  0  0
   -1.4310    1.3740    1.0160 C   0  0  0  0  0  0  0  0  0  0  0  0
   -0.8750    0.3330    0.3070 C   0  0  0  0  0  0  0  0  0  0  0  0
    0.5460   -0.0100    0.3930 C   0  0  0  0  0  0  0  0  0  0  0  0
    1.0070   -1.1810    0.9360 C   0  0  0  0  0  0  0  0  0  0  0  0
    2.3620   -1.3920    1.0070 C   0  0  0  0  0  0  0  0  0  0  0  0
    2.8650   -2.5830    1.5650 O   0  0  0  0  0  0  0  0  0  0  0  0
    3.2900   -0.4580    0.5450 C   0  0  0  0  0  0  0  0  0  0  0  0
    2.8190    0.7320   -0.0060 C   0  0  0  0  0  0  0  0  0  0  0  0
    1.4710    0.9330   -0.0700 C   0  0  0  0  0  0  0  0  0  0  0  0
    0.9950    2.1070   -0.6150 O   0  0  0  0  0  0  0  0  0  0  0  0
    3.9760    1.4450   -0.3700 O   0  0  0  0  0  0  0  0  0  0  0  0
    4.9350    0.4250   -0.6550 C   0  0  0  0  0  0  0  0  0  0  0  0
    4.6860   -0.4190    0.4910 O   0  0  0  0  0  0  0  0  0  0  0  0
  1  2  1  0
  2  3  1  0
  3  4  2  0
  3 10  1  0
  4  5  1  0
  5  6  1  0
  5  7  2  0
  7  8  1  0
  7  9  1  0
  9 10  2  0
 10 11  1  0
 11 12  2  0
 11 17  1  0
 12 13  1  0
 13 14  1  0
 13 15  2  0
 15 16  1  0
 15 21  1  0
 16 17  2  0
 16 19  1  0
 17 18  1  0
 19 20  1  0
 20 21  1  0
M  END
