
     RDKit          3D

 22 24  0  0  0  0  0  0  0  0999 V2000
    1.4870    3.1480   -1.4840 O   0  0  0  0  0  0  0  0  0  0  0  0
    0.9710    2.0660   -1.1560 C   0  0  0  0  0  0  0  0  0  0  0  0
    1.6350    1.2160   -0.1770 C   0  0  0  0  0  0  0  0  0  0  0  0
    2.8100    1.6130    0.3360 C   0  0  0  0  0  0  0  0  0  0  0  0
    3.5700    0.8980    1.2840 O   0  0  0  0  0  0  0  0  0  0  0  0
    3.6820   -0.4660    1.5430 C   0  0  0  0  0  0  0  0  0  0  0  0
    3.1490   -1.3410    0.4360 C   0  0  2  0  0  0  0  0  0  0  0  0
    3.6910   -0.9000   -0.7570 O   0  0  0  0  0  0  0  0  0  0  0  0
    1.6340   -1.1670    0.4400 C   0  0  0  0  0  0  0  0  0  0  0  0
    0.9560   -0.0620    0.1770 C   0  0  0  0  0  0  0  0  0  0  0  0
   -0.4730   -0.0940    0.1320 C   0  0  0  0  0  0  0  0  0  0  0  0
   -1.1970    1.0490    0.4610 C   0  0  0  0  0  0  0  0  0  0  0  0
   -0.5190    2.1590    0.9460 O   0  0  0  0  0  0  0  0  0  0  0  0
   -2.5640    1.0520    0.3070 C   0  0  0  0  0  0  0  0  0  0  0  0
   -3.3330    2.1620    0.6150 O   0  0  0  0  0  0  0  0  0  0  0  0
   -3.2410   -0.0740   -0.1710 C   0  0  0  0  0  0  0  0  0  0  0  0
   -2.5340   -1.1940   -0.4900 C   0  0  0  0  0  0  0  0  0  0  0  0
   -1.1640   -1.2200   -0.3460 C   0  0  0  0  0  0  0  0  0  0  0  0
   -0.5020   -2.3850   -0.6920 O   0  0  0  0  0  0  0  0  0  0  0  0
   -3.4300   -2.1770   -0.9390 O   0  0  0  0  0  0  0  0  0  0  0  0
   -4.6800   -1.5370   -1.2080 C   0  0  0  0  0  0  0  0  0  0  0  0
   -4.5750   -0.3670   -0.4260 O   0  0  0  0  0  0  0  0  0  0  0  0
  1  2  2  0
  2  3  1  0
  3  4  2  0
  3 10  1  0
  4  5  1  0
  5  6  1  0
  6  7  1  0
  7  8  1  6
  7  9  1  0
  9 10  2  0
 10 11  1  0
 11 12  2  0
 11 18  1  0
 12 13  1  0
 12 14  1  0
 14 15  1  0
 14 16  2  0
 16 17  1  0
 16 22  1  0
 17 18  2  0
 17 20  1  0
 18 19  1  0
 20 21  1  0
 21 22  1  0
M  END
