
     RDKit          3D

 22 24  0  0  0  0  0  0  0  0999 V2000
    4.4620    0.3360   -1.9550 O   0  0  0  0  0  0  0  0  0  0  0  0
    5.1130    0.2180   -0.8880 C   0  0  0  0  0  0  0  0  0  0  0  0
    6.5160    0.3370   -0.9140 O   0  0  0  0  0  0  0  0  0  0  0  0
    4.4120   -0.0240    0.2720 O   0  0  0  0  0  0  0  0  0  0  0  0
    3.0280   -0.1320    0.2400 C   0  0  0  0  0  0  0  0  0  0  0  0
    2.4100   -1.3370    0.0400 C   0  0  0  0  0  0  0  0  0  0  0  0
    3.1860   -2.4570   -0.1320 O   0  0  0  0  0  0  0  0  0  0  0  0
    1.0130   -1.3730    0.0190 C   0  0  0  0  0  0  0  0  0  0  0  0
    0.2590   -0.2320    0.1940 C   0  0  0  0  0  0  0  0  0  0  0  0
   -1.1920   -0.3420    0.1600 C   0  0  0  0  0  0  0  0  0  0  0  0
   -1.8800   -1.3370    0.8240 C   0  0  0  0  0  0  0  0  0  0  0  0
   -3.2560   -1.4180    0.7750 C   0  0  0  0  0  0  0  0  0  0  0  0
   -4.0060   -0.4920    0.0480 C   0  0  0  0  0  0  0  0  0  0  0  0
   -3.3300    0.5070   -0.6200 C   0  0  0  0  0  0  0  0  0  0  0  0
   -1.9550    0.5700   -0.5580 C   0  0  0  0  0  0  0  0  0  0  0  0
   -1.2980    1.5820   -1.2360 O   0  0  0  0  0  0  0  0  0  0  0  0
   -4.3300    1.2590   -1.2410 O   0  0  0  0  0  0  0  0  0  0  0  0
   -5.5620    1.0360   -0.5370 C   0  0  0  0  0  0  0  0  0  0  0  0
   -5.3850   -0.3370   -0.1720 O   0  0  0  0  0  0  0  0  0  0  0  0
    0.9280    0.9580    0.3920 C   0  0  0  0  0  0  0  0  0  0  0  0
    2.2960    1.0310    0.4190 C   0  0  0  0  0  0  0  0  0  0  0  0
    2.8880    2.2700    0.6240 O   0  0  0  0  0  0  0  0  0  0  0  0
  1  2  2  0
  2  3  1  0
  2  4  1  0
  4  5  1  0
  5  6  2  0
  5 21  1  0
  6  7  1  0
  6  8  1  0
  8  9  2  0
  9 10  1  0
  9 20  1  0
 10 11  2  0
 10 15  1  0
 11 12  1  0
 12 13  2  0
 13 14  1  0
 13 19  1  0
 14 15  2  0
 14 17  1  0
 15 16  1  0
 17 18  1  0
 18 19  1  0
 20 21  2  0
 21 22  1  0
M  END
