
     RDKit          3D

 22 24  0  0  0  0  0  0  0  0999 V2000
   -4.9060   -0.5920    1.0480 C   0  0  0  0  0  0  0  0  0  0  0  0
   -4.1320    0.4530    0.4850 O   0  0  0  0  0  0  0  0  0  0  0  0
   -2.9000    0.1690   -0.0600 C   0  0  0  0  0  0  0  0  0  0  0  0
   -2.7570   -0.1680   -1.3890 C   0  0  0  0  0  0  0  0  0  0  0  0
   -3.8670   -0.2230   -2.1920 O   0  0  0  0  0  0  0  0  0  0  0  0
   -1.5100   -0.4500   -1.9190 C   0  0  0  0  0  0  0  0  0  0  0  0
   -1.3080   -0.7930   -3.2460 O   0  0  0  0  0  0  0  0  0  0  0  0
   -0.4130   -0.3870   -1.0890 C   0  0  0  0  0  0  0  0  0  0  0  0
   -0.5180   -0.0510    0.2560 C   0  0  0  0  0  0  0  0  0  0  0  0
   -1.7950    0.2280    0.7580 C   0  0  0  0  0  0  0  0  0  0  0  0
   -1.9500    0.5620    2.0690 O   0  0  0  0  0  0  0  0  0  0  0  0
   -1.8720    1.9530    2.4080 C   0  0  0  0  0  0  0  0  0  0  0  0
    0.7410   -0.0670    0.8390 O   0  0  0  0  0  0  0  0  0  0  0  0
    1.5620   -0.7920   -0.0540 C   0  0  2  0  0  0  0  0  0  0  0  0
    2.9140   -0.2250   -0.1740 C   0  0  0  0  0  0  0  0  0  0  0  0
    3.9370   -0.9890    0.1590 C   0  0  0  0  0  0  0  0  0  0  0  0
    3.7210   -2.2960    0.6100 O   0  0  0  0  0  0  0  0  0  0  0  0
    5.3530   -0.5480    0.0880 C   0  0  0  0  0  0  0  0  0  0  0  0
    5.5130    0.7570   -0.3660 O   0  0  0  0  0  0  0  0  0  0  0  0
    4.4140    1.5290   -0.7060 C   0  0  0  0  0  0  0  0  0  0  0  0
    3.1680    1.1210   -0.6370 C   0  0  0  0  0  0  0  0  0  0  0  0
    0.9170   -0.6090   -1.3250 O   0  0  0  0  0  0  0  0  0  0  0  0
  1  2  1  0
  2  3  1  0
  3  4  2  0
  3 10  1  0
  4  5  1  0
  4  6  1  0
  6  7  1  0
  6  8  2  0
  8  9  1  0
  8 22  1  0
  9 10  2  0
  9 13  1  0
 10 11  1  0
 11 12  1  0
 13 14  1  0
 14 15  1  6
 14 22  1  0
 15 16  2  0
 15 21  1  0
 16 17  1  0
 16 18  1  0
 18 19  1  0
 19 20  1  0
 20 21  2  0
M  END
