
     RDKit          3D

 22 25  0  0  0  0  0  0  0  0999 V2000
    0.3650    3.6160   -0.5300 O   0  0  0  0  0  0  0  0  0  0  0  0
    0.0560    2.4260   -0.3490 C   0  0  0  0  0  0  0  0  0  0  0  0
   -1.2110    2.1000   -0.2580 O   0  0  0  0  0  0  0  0  0  0  0  0
   -1.6290    0.8610   -0.0660 C   0  0  0  0  0  0  0  0  0  0  0  0
   -2.9600    0.5100    0.0310 C   0  0  0  0  0  0  0  0  0  0  0  0
   -3.9220    1.4760   -0.0740 O   0  0  0  0  0  0  0  0  0  0  0  0
   -3.3630   -0.8030    0.2330 C   0  0  0  0  0  0  0  0  0  0  0  0
   -4.7010   -1.1220    0.3250 O   0  0  0  0  0  0  0  0  0  0  0  0
   -2.3880   -1.7700    0.3370 C   0  0  0  0  0  0  0  0  0  0  0  0
   -1.0510   -1.4320    0.2420 C   0  0  0  0  0  0  0  0  0  0  0  0
   -0.0630   -2.3850    0.3430 C   0  0  0  0  0  0  0  0  0  0  0  0
   -0.4430   -3.5870    0.5290 O   0  0  0  0  0  0  0  0  0  0  0  0
    1.2190   -2.0840    0.2550 O   0  0  0  0  0  0  0  0  0  0  0  0
    1.6360   -0.8540    0.0650 C   0  0  0  0  0  0  0  0  0  0  0  0
    2.9700   -0.5370   -0.0270 C   0  0  0  0  0  0  0  0  0  0  0  0
    3.9420   -1.4930    0.0760 O   0  0  0  0  0  0  0  0  0  0  0  0
    3.3610    0.7830   -0.2300 C   0  0  0  0  0  0  0  0  0  0  0  0
    4.7170    1.1110   -0.3240 O   0  0  0  0  0  0  0  0  0  0  0  0
    2.3850    1.7430   -0.3330 C   0  0  0  0  0  0  0  0  0  0  0  0
    1.0500    1.4540   -0.2450 C   0  0  0  0  0  0  0  0  0  0  0  0
    0.6850    0.1360   -0.0430 C   0  0  0  0  0  0  0  0  0  0  0  0
   -0.6650   -0.1130    0.0390 C   0  0  0  0  0  0  0  0  0  0  0  0
  1  2  2  0
  2  3  1  0
  2 20  1  0
  3  4  1  0
  4  5  2  0
  4 22  1  0
  5  6  1  0
  5  7  1  0
  7  8  1  0
  7  9  2  0
  9 10  1  0
 10 11  1  0
 10 22  2  0
 11 12  2  0
 11 13  1  0
 13 14  1  0
 14 15  1  0
 14 21  2  0
 15 16  1  0
 15 17  2  0
 17 18  1  0
 17 19  1  0
 19 20  2  0
 20 21  1  0
 21 22  1  0
M  END
