
     RDKit          3D

 22 24  0  0  0  0  0  0  0  0999 V2000
   -4.4880    1.7310   -0.3140 C   0  0  0  0  0  0  0  0  0  0  0  0
   -3.6230    0.6120    0.1600 C   0  0  0  0  0  0  0  0  0  0  0  0
   -4.1160   -0.3460    0.9280 O   0  0  0  0  0  0  0  0  0  0  0  0
   -3.4360   -1.3470    1.3800 C   0  0  0  0  0  0  0  0  0  0  0  0
   -4.0280   -2.1920    2.1040 O   0  0  0  0  0  0  0  0  0  0  0  0
   -2.0980   -1.4890    1.0800 C   0  0  0  0  0  0  0  0  0  0  0  0
   -1.4900   -0.5530    0.2930 C   0  0  0  0  0  0  0  0  0  0  0  0
   -2.2880    0.5030   -0.1600 C   0  0  0  0  0  0  0  0  0  0  0  0
   -1.7060    1.4640   -0.9560 C   0  0  0  0  0  0  0  0  0  0  0  0
   -2.3970    2.4450   -1.3920 O   0  0  0  0  0  0  0  0  0  0  0  0
   -0.4380    1.3730   -1.2690 O   0  0  0  0  0  0  0  0  0  0  0  0
    0.3410    0.4000   -0.8640 C   0  0  0  0  0  0  0  0  0  0  0  0
    1.6870    0.3880   -1.2510 C   0  0  0  0  0  0  0  0  0  0  0  0
    2.1900    1.4020   -2.0590 O   0  0  0  0  0  0  0  0  0  0  0  0
    2.4890   -0.6400   -0.8180 C   0  0  0  0  0  0  0  0  0  0  0  0
    3.8120   -0.6460   -1.2020 O   0  0  0  0  0  0  0  0  0  0  0  0
    4.7770    0.0120   -0.3780 C   0  0  0  0  0  0  0  0  0  0  0  0
    4.3680    1.3570   -0.3300 O   0  0  0  0  0  0  0  0  0  0  0  0
    1.9590   -1.6470   -0.0070 C   0  0  0  0  0  0  0  0  0  0  0  0
    2.7700   -2.6940    0.4370 O   0  0  0  0  0  0  0  0  0  0  0  0
    0.6350   -1.6410    0.3770 C   0  0  0  0  0  0  0  0  0  0  0  0
   -0.1620   -0.6090   -0.0600 C   0  0  0  0  0  0  0  0  0  0  0  0
  1  2  1  0
  2  3  1  0
  2  8  2  0
  3  4  1  0
  4  5  2  0
  4  6  1  0
  6  7  2  0
  7  8  1  0
  7 22  1  0
  8  9  1  0
  9 10  2  0
  9 11  1  0
 11 12  1  0
 12 13  2  0
 12 22  1  0
 13 14  1  0
 13 15  1  0
 15 16  1  0
 15 19  2  0
 16 17  1  0
 17 18  1  0
 19 20  1  0
 19 21  1  0
 21 22  2  0
M  END
