
     RDKit          3D

 22 24  0  0  0  0  0  0  0  0999 V2000
   -3.7690    1.9480    2.6360 O   0  0  0  0  0  0  0  0  0  0  0  0
   -2.9230    1.3390    1.8790 C   0  0  0  0  0  0  0  0  0  0  0  0
   -1.7370    2.0100    1.7210 O   0  0  0  0  0  0  0  0  0  0  0  0
   -3.2800    0.0940    1.3060 C   0  0  0  0  0  0  0  0  0  0  0  0
   -2.6460   -0.7380    0.5260 C   0  0  0  0  0  0  0  0  0  0  0  0
   -3.3310   -2.0210    0.0750 C   0  0  0  0  0  0  0  0  0  0  0  0
   -3.1600   -2.1130   -1.3540 O   0  0  0  0  0  0  0  0  0  0  0  0
   -1.8530   -1.9600   -1.8620 C   0  0  0  0  0  0  0  0  0  0  0  0
   -1.6060   -2.5500   -2.9430 O   0  0  0  0  0  0  0  0  0  0  0  0
   -0.8880   -1.1520   -1.1310 C   0  0  0  0  0  0  0  0  0  0  0  0
   -1.2980   -0.5790    0.0130 C   0  0  0  0  0  0  0  0  0  0  0  0
   -0.4210    0.1950    0.7500 O   0  0  0  0  0  0  0  0  0  0  0  0
    0.8760    0.3790    0.3080 C   0  0  0  0  0  0  0  0  0  0  0  0
    1.7660    1.1640    1.0550 C   0  0  0  0  0  0  0  0  0  0  0  0
    3.0670    1.3630    0.6340 C   0  0  0  0  0  0  0  0  0  0  0  0
    3.9130    2.1480    1.4060 O   0  0  0  0  0  0  0  0  0  0  0  0
    3.5480    0.8040   -0.5300 C   0  0  0  0  0  0  0  0  0  0  0  0
    4.8620    0.9840   -0.9890 O   0  0  0  0  0  0  0  0  0  0  0  0
    2.6770    0.0340   -1.2640 C   0  0  0  0  0  0  0  0  0  0  0  0
    1.3500   -0.1770   -0.8470 C   0  0  0  0  0  0  0  0  0  0  0  0
    0.4630   -1.0180   -1.6870 C   0  0  2  0  0  0  0  0  0  0  0  0
    0.4270   -0.3860   -2.9450 O   0  0  0  0  0  0  0  0  0  0  0  0
  1  2  2  0
  2  3  1  0
  2  4  1  0
  4  5  2  3
  5  6  1  0
  5 11  1  0
  6  7  1  0
  7  8  1  0
  8  9  2  0
  8 10  1  0
 10 11  2  0
 10 21  1  0
 11 12  1  0
 12 13  1  0
 13 14  2  0
 13 20  1  0
 14 15  1  0
 15 16  1  0
 15 17  2  0
 17 18  1  0
 17 19  1  0
 19 20  2  0
 20 21  1  0
 21 22  1  6
M  END
