
     RDKit          3D

 21 23  0  0  0  0  0  0  0  0999 V2000
    5.1200   -2.4070   -0.2900 O   0  0  0  0  0  0  0  0  0  0  0  0
    4.5170   -1.3770   -1.0040 C   0  0  0  0  0  0  0  0  0  0  0  0
    3.2360   -0.9960   -0.3160 C   0  0  0  0  0  0  0  0  0  0  0  0
    2.7280   -1.5510    0.8180 C   0  0  0  0  0  0  0  0  0  0  0  0
    1.5220   -0.8880    1.0950 C   0  0  0  0  0  0  0  0  0  0  0  0
    1.3660    0.0290    0.1120 C   0  0  0  0  0  0  0  0  0  0  0  0
    0.3160    0.9860   -0.1240 C   0  0  0  0  0  0  0  0  0  0  0  0
    0.4640    1.9860   -1.0240 C   0  0  0  0  0  0  0  0  0  0  0  0
   -0.6400    2.9160   -1.1570 C   0  0  0  0  0  0  0  0  0  0  0  0
   -0.5470    3.9600   -2.1120 O   0  0  0  0  0  0  0  0  0  0  0  0
   -1.7450    2.8720   -0.4520 C   0  0  0  0  0  0  0  0  0  0  0  0
   -2.7570    3.8060   -0.6700 O   0  0  0  0  0  0  0  0  0  0  0  0
   -1.9460    1.8490    0.6070 C   0  0  1  0  0  0  0  0  0  0  0  0
   -3.2700    1.3770    0.5770 O   0  0  0  0  0  0  0  0  0  0  0  0
   -1.0410    0.7200    0.3780 C   0  0  0  0  0  0  0  0  0  0  0  0
   -1.4910   -0.5300    0.5110 C   0  0  0  0  0  0  0  0  0  0  0  0
   -2.7900   -0.7840    0.9990 O   0  0  0  0  0  0  0  0  0  0  0  0
   -3.0890   -2.1160    0.6500 C   0  0  0  0  0  0  0  0  0  0  0  0
   -1.7190   -2.7690    0.7630 C   0  0  0  0  0  0  0  0  0  0  0  0
   -0.9010   -1.7450    0.2400 O   0  0  0  0  0  0  0  0  0  0  0  0
    2.4120   -0.0800   -0.6950 O   0  0  0  0  0  0  0  0  0  0  0  0
  1  2  1  0
  2  3  1  0
  3  4  2  0
  3 21  1  0
  4  5  1  0
  5  6  2  0
  6  7  1  0
  6 21  1  0
  7  8  2  0
  7 15  1  0
  8  9  1  0
  9 10  1  0
  9 11  2  0
 11 12  1  0
 11 13  1  0
 13 14  1  6
 13 15  1  0
 15 16  2  3
 16 17  1  0
 16 20  1  0
 17 18  1  0
 18 19  1  0
 19 20  1  0
M  END
