
     RDKit          3D

 22 24  0  0  0  0  0  0  0  0999 V2000
   -1.3480    2.5630    0.8700 C   0  0  0  0  0  0  0  0  0  0  0  0
   -1.1690    1.3180    1.5750 O   0  0  0  0  0  0  0  0  0  0  0  0
   -1.6650    0.1530    0.9600 C   0  0  0  0  0  0  0  0  0  0  0  0
   -0.8160   -0.5210    0.1250 C   0  0  0  0  0  0  0  0  0  0  0  0
    0.5740   -0.0890   -0.1060 C   0  0  0  0  0  0  0  0  0  0  0  0
    1.4660    0.1060    0.9160 C   0  0  0  0  0  0  0  0  0  0  0  0
    2.7640    0.4680    0.6910 C   0  0  0  0  0  0  0  0  0  0  0  0
    3.2060    0.6460   -0.5920 C   0  0  0  0  0  0  0  0  0  0  0  0
    2.3380    0.4600   -1.6570 C   0  0  0  0  0  0  0  0  0  0  0  0
    2.8590    0.6620   -2.9150 O   0  0  0  0  0  0  0  0  0  0  0  0
    1.0390    0.0970   -1.4040 C   0  0  0  0  0  0  0  0  0  0  0  0
    0.1740   -0.0880   -2.4600 O   0  0  0  0  0  0  0  0  0  0  0  0
    4.5690    1.0100   -0.4970 O   0  0  0  0  0  0  0  0  0  0  0  0
    4.9910    0.5300    0.7780 C   0  0  0  0  0  0  0  0  0  0  0  0
    3.8270    0.7130    1.5990 O   0  0  0  0  0  0  0  0  0  0  0  0
   -1.2980   -1.6700   -0.4900 C   0  0  0  0  0  0  0  0  0  0  0  0
   -2.5940   -2.0990   -0.2510 C   0  0  0  0  0  0  0  0  0  0  0  0
   -3.0930   -3.2540   -0.8620 O   0  0  0  0  0  0  0  0  0  0  0  0
   -3.4510   -1.4210    0.5920 C   0  0  0  0  0  0  0  0  0  0  0  0
   -4.7430   -1.8940    0.8000 O   0  0  0  0  0  0  0  0  0  0  0  0
   -2.9690   -0.2830    1.1970 C   0  0  0  0  0  0  0  0  0  0  0  0
   -3.8160    0.4130    2.0440 O   0  0  0  0  0  0  0  0  0  0  0  0
  1  2  1  0
  2  3  1  0
  3  4  2  0
  3 21  1  0
  4  5  1  0
  4 16  1  0
  5  6  2  0
  5 11  1  0
  6  7  1  0
  7  8  2  0
  7 15  1  0
  8  9  1  0
  8 13  1  0
  9 10  1  0
  9 11  2  0
 11 12  1  0
 13 14  1  0
 14 15  1  0
 16 17  2  0
 17 18  1  0
 17 19  1  0
 19 20  1  0
 19 21  2  0
 21 22  1  0
M  END
