
     RDKit          3D

 27 29  0  0  0  0  0  0  0  0999 V2000
   -6.5570    2.6500    0.1030 N   0  0  0  0  0  0  0  0  0  0  0  0
   -5.7310    1.4660    0.0320 C   0  0  0  0  0  0  0  0  0  0  0  0
   -6.0950    0.2820   -0.4790 N   0  0  0  0  0  0  0  0  0  0  0  0
   -5.2820   -0.7600   -0.5830 C   0  0  0  0  0  0  0  0  0  0  0  0
   -4.0370   -0.6370   -0.1760 N   0  0  0  0  0  0  0  0  0  0  0  0
   -3.5710    0.5070    0.3550 C   0  0  0  0  0  0  0  0  0  0  0  0
   -4.4320    1.5860    0.4620 C   0  0  0  0  0  0  0  0  0  0  0  0
   -3.7530    2.5790    0.9970 N   0  0  0  0  0  0  0  0  0  0  0  0
   -2.5220    2.1600    1.2070 C   0  0  0  0  0  0  0  0  0  0  0  0
   -2.3800    0.8960    0.8300 N   0  0  0  0  0  0  0  0  0  0  0  0
   -1.2240    0.0970    0.8370 C   0  0  2  0  0  0  0  0  0  0  0  0
   -0.5820    0.2350   -0.4460 O   0  0  0  0  0  0  0  0  0  0  0  0
    0.3230   -0.8200   -0.3370 C   0  0  2  0  0  0  0  0  0  0  0  0
    1.3030   -1.0050   -1.4010 C   0  0  0  0  0  0  0  0  0  0  0  0
    1.8910    0.2290   -1.7270 O   0  0  0  0  0  0  0  0  0  0  0  0
    2.9320    0.5750   -0.5450 P   0  0  0  0  0  0  0  0  0  0  0  0
    3.1650   -0.4380    0.7080 O   0  0  0  0  0  0  0  0  0  0  0  0
    3.6020    2.1220   -0.5550 O   0  0  0  0  0  0  0  0  0  0  0  0
    4.1510    0.0930   -1.2830 O   0  0  0  0  0  0  0  0  0  0  0  0
    5.5530   -0.0760   -0.6850 P   0  0  0  0  0  0  0  0  0  0  0  0
    5.7760   -1.5870   -1.1990 O   0  0  0  0  0  0  0  0  0  0  0  0
    6.0210    1.2030   -1.7090 O   0  0  0  0  0  0  0  0  0  0  0  0
    5.1330    0.3190    0.8390 O   0  0  0  0  0  0  0  0  0  0  0  0
   -0.7420   -1.9370   -0.2520 C   0  0  1  0  0  0  0  0  0  0  0  0
   -0.2100   -3.1810   -0.0750 O   0  0  0  0  0  0  0  0  0  0  0  0
   -1.4600   -1.3780    1.0080 C   0  0  1  0  0  0  0  0  0  0  0  0
   -0.6760   -1.8450    2.0910 O   0  0  0  0  0  0  0  0  0  0  0  0
  1  2  1  0
  2  3  2  0
  2  7  1  0
  3  4  1  0
  4  5  2  0
  5  6  1  0
  6  7  2  0
  6 10  1  0
  7  8  1  0
  8  9  2  0
  9 10  1  0
 11 10  1  6
 11 12  1  0
 11 26  1  0
 12 13  1  0
 13 14  1  6
 13 24  1  0
 14 15  1  0
 15 16  1  0
 16 17  1  0
 16 18  1  0
 16 19  1  0
 19 20  1  0
 20 21  1  0
 20 22  1  0
 20 23  1  0
 24 25  1  1
 24 26  1  0
 26 27  1  1
M  END
