
     RDKit          3D

 20 20  0  0  0  0  0  0  0  0999 V2000
    0.4870   -0.0400    2.1140 N   0  0  0  0  0  0  0  0  0  0  0  0
    1.6630    0.1550    1.2760 C   0  0  2  0  0  0  0  0  0  0  0  0
    1.8810    1.5490    0.8710 C   0  0  0  0  0  0  0  0  0  0  0  0
    3.1480    2.0040    1.2630 O   0  0  0  0  0  0  0  0  0  0  0  0
    4.4060    1.2100    0.3940 P   0  0  0  0  0  0  0  0  0  0  0  0
    5.7260    0.9630    1.4960 O   0  0  0  0  0  0  0  0  0  0  0  0
    3.9570   -0.2840   -0.2730 O   0  0  0  0  0  0  0  0  0  0  0  0
    2.7140   -0.3330   -0.8880 C   0  0  0  0  0  0  0  0  0  0  0  0
    1.6950   -0.7930    0.1190 C   0  0  1  0  0  0  0  0  0  0  0  0
    2.1560   -2.0380    0.6490 O   0  0  0  0  0  0  0  0  0  0  0  0
    0.3770   -0.9950   -0.5140 C   0  0  0  0  0  0  0  0  0  0  0  0
   -0.1440   -2.1560   -0.4080 O   0  0  0  0  0  0  0  0  0  0  0  0
   -0.3760   -0.0520   -1.2270 N   0  0  0  0  0  0  0  0  0  0  0  0
   -1.6640   -0.2680   -1.8370 C   0  0  0  0  0  0  0  0  0  0  0  0
   -2.6590   -0.6230   -0.7570 C   0  0  0  0  0  0  0  0  0  0  0  0
   -2.7270    0.5350    0.2140 C   0  0  0  0  0  0  0  0  0  0  0  0
   -3.6330    0.2400    1.2330 O   0  0  0  0  0  0  0  0  0  0  0  0
   -4.9720    0.0010    0.9820 C   0  0  0  0  0  0  0  0  0  0  0  0
   -5.4690    0.0330   -0.1720 O   0  0  0  0  0  0  0  0  0  0  0  0
   -5.8690   -0.2970    2.0240 O   0  0  0  0  0  0  0  0  0  0  0  0
  2  1  1  6
  2  3  1  0
  2  9  1  0
  3  4  1  0
  4  5  1  0
  5  6  1  0
  5  7  1  0
  7  8  1  0
  8  9  1  0
  9 10  1  1
  9 11  1  0
 11 12  2  0
 11 13  1  0
 13 14  1  0
 14 15  1  0
 15 16  1  0
 16 17  1  0
 17 18  1  0
 18 19  2  0
 18 20  1  0
M  END
