
     RDKit          3D

 20 21  0  0  0  0  0  0  0  0999 V2000
   -5.5420    2.0040    0.2760 O   0  0  0  0  0  0  0  0  0  0  0  0
   -4.7580    1.1020    0.7570 C   0  0  0  0  0  0  0  0  0  0  0  0
   -3.2410    1.1290    0.6690 C   0  0  0  0  0  0  0  0  0  0  0  0
   -3.0670   -0.3550    0.4290 C   0  0  2  0  0  0  0  0  0  0  0  0
   -4.0280   -1.0100    1.3580 C   0  0  0  0  0  0  0  0  0  0  0  0
   -5.1040   -0.0530    1.4970 O   0  0  0  0  0  0  0  0  0  0  0  0
   -1.7120   -0.6690    0.6410 O   0  0  0  0  0  0  0  0  0  0  0  0
   -1.2020   -0.2210   -0.5430 C   0  0  1  0  0  0  0  0  0  0  0  0
    0.2420   -0.2140   -0.7790 C   0  0  0  0  0  0  0  0  0  0  0  0
    0.8720   -0.7150   -1.7770 O   0  0  0  0  0  0  0  0  0  0  0  0
    1.0670    0.3970    0.1660 N   0  0  0  0  0  0  0  0  0  0  0  0
    2.4330    0.6860    0.2990 C   0  0  0  0  0  0  0  0  0  0  0  0
    3.5240   -0.2340    0.4870 C   0  0  0  0  0  0  0  0  0  0  0  0
    3.9700   -0.9290   -0.6740 O   0  0  0  0  0  0  0  0  0  0  0  0
    5.6470   -0.3370   -0.6450 P   0  0  0  0  0  0  0  0  0  0  0  0
    6.9220   -1.2800   -0.4950 O   0  0  0  0  0  0  0  0  0  0  0  0
    5.6760    1.3530   -0.2790 O   0  0  0  0  0  0  0  0  0  0  0  0
   -1.9690   -0.9730   -1.5290 N   0  0  0  0  0  0  0  0  0  0  0  0
   -3.3020   -0.7270   -0.9940 C   0  0  0  0  0  0  0  0  0  0  0  0
   -4.4380   -0.7650   -1.6140 O   0  0  0  0  0  0  0  0  0  0  0  0
  1  2  2  0
  2  3  1  0
  2  6  1  0
  4  3  1  6
  4  5  1  0
  4  7  1  0
  4 19  1  0
  5  6  1  0
  7  8  1  0
  8  9  1  1
  8 18  1  0
  9 10  2  0
  9 11  1  0
 11 12  1  0
 12 13  1  0
 13 14  1  0
 14 15  1  0
 15 16  1  0
 15 17  1  0
 18 19  1  0
 19 20  2  0
M  END
