
     RDKit          3D

 20 20  0  0  0  0  0  0  0  0999 V2000
    6.2070    0.9490   -0.6220 C   0  0  0  0  0  0  0  0  0  0  0  0
    4.8410    1.2130   -0.3730 O   0  0  0  0  0  0  0  0  0  0  0  0
    3.9080    0.1650   -0.4430 C   0  0  0  0  0  0  0  0  0  0  0  0
    4.3410   -0.9680   -0.7280 O   0  0  0  0  0  0  0  0  0  0  0  0
    2.5670    0.3450   -0.2140 O   0  0  0  0  0  0  0  0  0  0  0  0
    1.6220   -0.6680   -0.2760 C   0  0  0  0  0  0  0  0  0  0  0  0
    2.0260   -1.8310   -0.5620 O   0  0  0  0  0  0  0  0  0  0  0  0
    0.2620   -0.3740   -0.0210 N   0  0  0  0  0  0  0  0  0  0  0  0
   -0.2300    0.9420    0.3080 C   0  0  0  0  0  0  0  0  0  0  0  0
   -1.7350    0.8340    0.3640 C   0  0  1  0  0  0  0  0  0  0  0  0
   -2.4550    1.5380   -1.1870 P   0  0  0  0  0  0  0  0  0  0  0  0
   -4.1350    1.1290   -1.3170 O   0  0  0  0  0  0  0  0  0  0  0  0
   -2.3330    3.2690   -1.0960 O   0  0  0  0  0  0  0  0  0  0  0  0
   -2.0330   -0.6610    0.4790 C   0  0  2  0  0  0  0  0  0  0  0  0
   -2.1700   -0.9600    1.9480 C   0  0  0  0  0  0  0  0  0  0  0  0
   -3.2140   -0.2310    2.5880 N   0  0  0  0  0  0  0  0  0  0  0  0
   -0.7940   -1.3480   -0.0600 C   0  0  1  0  0  0  0  0  0  0  0  0
   -0.9940   -1.9080   -1.3960 C   0  0  0  0  0  0  0  0  0  0  0  0
   -1.8750   -2.7680   -1.5950 O   0  0  0  0  0  0  0  0  0  0  0  0
   -0.2110   -1.4930   -2.4510 O   0  0  0  0  0  0  0  0  0  0  0  0
  1  2  1  0
  2  3  1  0
  3  4  2  0
  3  5  1  0
  5  6  1  0
  6  7  2  0
  6  8  1  0
  8  9  1  0
  8 17  1  0
  9 10  1  0
 10 11  1  6
 10 14  1  0
 11 12  1  0
 11 13  1  0
 14 15  1  1
 14 17  1  0
 15 16  1  0
 17 18  1  6
 18 19  2  0
 18 20  1  0
M  END
