
     RDKit          3D

 20 21  0  0  0  0  0  0  0  0999 V2000
   -3.5770   -0.9440    0.5690 N   0  0  0  0  0  0  0  0  0  0  0  0
   -2.6170   -0.0690   -0.0970 C   0  0  2  0  0  0  0  0  0  0  0  0
   -1.7180    0.5060    0.8970 C   0  0  0  0  0  0  0  0  0  0  0  0
   -0.4210    0.4600    1.0400 C   0  0  0  0  0  0  0  0  0  0  0  0
    0.5370   -0.2240    0.1870 C   0  0  0  0  0  0  0  0  0  0  0  0
    0.2880   -0.8900   -0.8290 O   0  0  0  0  0  0  0  0  0  0  0  0
    1.9460   -0.1530    0.5120 N   0  0  0  0  0  0  0  0  0  0  0  0
    2.9310   -0.8350   -0.3340 C   0  0  0  0  0  0  0  0  0  0  0  0
    4.1800   -0.6140    0.1870 O   0  0  0  0  0  0  0  0  0  0  0  0
    5.3700   -1.4170   -0.8050 P   0  0  0  0  0  0  0  0  0  0  0  0
    6.8810   -1.3390    0.0600 O   0  0  0  0  0  0  0  0  0  0  0  0
    5.6140   -0.5240   -2.2940 O   0  0  0  0  0  0  0  0  0  0  0  0
   -0.0480    1.2600    2.2770 C   0  0  0  0  0  0  0  0  0  0  0  0
   -1.2280    1.7240    2.8340 O   0  0  0  0  0  0  0  0  0  0  0  0
   -2.2630    1.3060    2.0270 C   0  0  0  0  0  0  0  0  0  0  0  0
   -3.4700    1.5700    2.2320 O   0  0  0  0  0  0  0  0  0  0  0  0
   -3.4350    1.0870   -0.7280 C   0  0  0  0  0  0  0  0  0  0  0  0
   -3.9030    0.4940   -1.8740 O   0  0  0  0  0  0  0  0  0  0  0  0
   -3.1370   -0.6400   -2.1180 C   0  0  0  0  0  0  0  0  0  0  0  0
   -2.0950   -0.6240   -1.2090 O   0  0  0  0  0  0  0  0  0  0  0  0
  2  1  1  1
  2  3  1  0
  2 17  1  0
  2 20  1  0
  3  4  2  0
  3 15  1  0
  4  5  1  0
  4 13  1  0
  5  6  2  0
  5  7  1  0
  7  8  1  0
  8  9  1  0
  9 10  1  0
 10 11  1  0
 10 12  1  0
 13 14  1  0
 14 15  1  0
 15 16  2  0
 17 18  1  0
 18 19  1  0
 19 20  1  0
M  END
