
     RDKit          3D

 29 30  0  0  0  0  0  0  0  0999 V2000
   -4.6390    0.3690    1.0420 C   0  0  0  0  0  0  0  0  0  0  0  0
   -4.7020   -0.9030    0.8060 C   0  0  0  0  0  0  0  0  0  0  0  0
   -4.0960   -1.5980   -0.2820 C   0  0  0  0  0  0  0  0  0  0  0  0
   -4.2430   -2.9290   -0.5130 C   0  0  0  0  0  0  0  0  0  0  0  0
   -3.6030   -3.4790   -1.6980 C   0  0  0  0  0  0  0  0  0  0  0  0
   -2.9320   -2.7640   -2.5820 C   0  0  0  0  0  0  0  0  0  0  0  0
   -2.8380   -1.2720   -2.3760 C   0  0  0  0  0  0  0  0  0  0  0  0
   -2.9660   -1.0100   -0.9440 N   0  0  0  0  0  0  0  0  0  0  0  0
   -1.9010   -0.2650   -0.3880 C   0  0  0  0  0  0  0  0  0  0  0  0
   -1.5660   -0.2010    1.0240 C   0  0  0  0  0  0  0  0  0  0  0  0
   -0.3030    0.6660    1.1240 C   0  0  0  0  0  0  0  0  0  0  0  0
   -0.3670    1.9740    1.5410 C   0  0  0  0  0  0  0  0  0  0  0  0
    0.7390    2.7830    1.6370 C   0  0  0  0  0  0  0  0  0  0  0  0
    0.7410    4.1300    2.0460 N   0  0  0  0  0  0  0  0  0  0  0  0
   -0.3870    4.9240    2.3000 C   0  0  0  0  0  0  0  0  0  0  0  0
   -0.2660    6.3610    2.7380 C   0  0  0  0  0  0  0  0  0  0  0  0
   -1.5320    4.4710    2.1710 O   0  0  0  0  0  0  0  0  0  0  0  0
    1.9820    2.2330    1.2900 C   0  0  0  0  0  0  0  0  0  0  0  0
    2.0690    0.9480    0.8770 C   0  0  0  0  0  0  0  0  0  0  0  0
    0.9340    0.1620    0.7920 C   0  0  0  0  0  0  0  0  0  0  0  0
    1.0100   -1.1520    0.3720 O   0  0  0  0  0  0  0  0  0  0  0  0
    2.2830   -1.6630    0.0360 C   0  0  0  0  0  0  0  0  0  0  0  0
    2.7680   -1.4460   -1.1610 C   0  0  0  0  0  0  0  0  0  0  0  0
    4.0500   -1.9160   -1.6130 C   0  0  0  0  0  0  0  0  0  0  0  0
    4.4760   -1.6650   -2.8260 C   0  0  0  0  0  0  0  0  0  0  0  0
    5.7900   -2.1460   -3.2930 C   0  0  0  0  0  0  0  0  0  0  0  0
    2.9520   -2.4140    1.1140 C   0  0  1  0  0  0  0  0  0  0  0  0
    3.1730   -1.6050    2.2380 F   0  0  0  0  0  0  0  0  0  0  0  0
    2.0130   -3.3690    1.5390 F   0  0  0  0  0  0  0  0  0  0  0  0
  1  2  2  0
  2  3  1  0
  3  4  2  0
  3  8  1  0
  4  5  1  0
  5  6  2  0
  6  7  1  0
  7  8  1  0
  8  9  1  0
  9 10  1  0
 10 11  1  0
 11 12  2  0
 11 20  1  0
 12 13  1  0
 13 14  1  0
 13 18  2  0
 14 15  1  0
 15 16  1  0
 15 17  2  0
 18 19  1  0
 19 20  2  0
 20 21  1  0
 21 22  1  0
 22 23  2  3
 22 27  1  0
 23 24  1  0
 24 25  2  3
 25 26  1  0
 27 28  1  1
 27 29  1  0
M  END
