
     RDKit          3D

 30 31  0  0  0  0  0  0  0  0999 V2000
   -6.2790    3.7670   -0.0490 C   0  0  0  0  0  0  0  0  0  0  0  0
   -5.2880    3.3170    0.9300 N   0  0  0  0  0  0  0  0  0  0  0  0
   -4.8770    1.9530    0.5750 C   0  0  0  0  0  0  0  0  0  0  0  0
   -5.8470    1.0650    0.7070 C   0  0  0  0  0  0  0  0  0  0  0  0
   -7.2190    1.4060    1.1790 C   0  0  0  0  0  0  0  0  0  0  0  0
   -5.5660   -0.2790    0.3280 N   0  0  0  0  0  0  0  0  0  0  0  0
   -4.2860   -0.6590   -0.1680 C   0  0  0  0  0  0  0  0  0  0  0  0
   -4.1150   -1.9780   -0.5600 C   0  0  0  0  0  0  0  0  0  0  0  0
   -5.0980   -2.9830   -0.3620 N   0  0  0  0  0  0  0  0  0  0  0  0
   -2.8930   -2.3390   -1.0890 C   0  0  0  0  0  0  0  0  0  0  0  0
   -1.8800   -1.4320   -1.2130 C   0  0  0  0  0  0  0  0  0  0  0  0
   -2.0550   -0.1300   -0.8020 C   0  0  0  0  0  0  0  0  0  0  0  0
   -0.8330    0.7570   -0.8710 C   0  0  0  0  0  0  0  0  0  0  0  0
    0.4860   -0.1430    0.0660 S   0  0  0  0  0  0  0  0  0  0  0  0
    1.7250    0.8020   -0.1210 O   0  0  0  0  0  0  0  0  0  0  0  0
    0.9380   -1.7250   -0.4660 C   0  0  0  0  0  0  0  0  0  0  0  0
    1.8790   -2.5280    0.2950 C   0  0  0  0  0  0  0  0  0  0  0  0
    3.1280   -2.3510    0.7870 N   0  0  0  0  0  0  0  0  0  0  0  0
    4.3690   -1.9890    0.1910 C   0  0  0  0  0  0  0  0  0  0  0  0
    4.4170   -1.7230   -1.0010 O   0  0  0  0  0  0  0  0  0  0  0  0
    5.5920   -1.9470    1.0640 C   0  0  0  0  0  0  0  0  0  0  0  0
    6.6290   -1.2800    0.5730 O   0  0  0  0  0  0  0  0  0  0  0  0
    7.3650   -1.4160   -0.5290 C   0  0  0  0  0  0  0  0  0  0  0  0
    7.1530   -2.3090   -1.3600 O   0  0  0  0  0  0  0  0  0  0  0  0
    8.4720   -0.4630   -0.7600 C   0  0  0  0  0  0  0  0  0  0  0  0
    8.6500    0.4550    0.1960 C   0  0  0  0  0  0  0  0  0  0  0  0
    9.6550    1.4180    0.1140 O   0  0  0  0  0  0  0  0  0  0  0  0
    9.4430    2.6210   -0.6020 C   0  0  0  0  0  0  0  0  0  0  0  0
   -3.2620    0.2910   -0.2870 C   0  0  0  0  0  0  0  0  0  0  0  0
   -3.4920    1.6840    0.1340 C   0  0  0  0  0  0  0  0  0  0  0  0
  1  2  1  0
  2  3  1  0
  3  4  2  0
  3 30  1  0
  4  5  1  0
  4  6  1  0
  6  7  1  0
  7  8  2  0
  7 29  1  0
  8  9  1  0
  8 10  1  0
 10 11  2  0
 11 12  1  0
 12 13  1  0
 12 29  2  0
 14 13  1  6
 14 15  2  0
 14 16  1  0
 16 17  1  0
 17 18  1  0
 18 19  1  0
 19 20  2  0
 19 21  1  0
 21 22  1  0
 22 23  1  0
 23 24  2  0
 23 25  1  0
 25 26  2  3
 26 27  1  0
 27 28  1  0
 29 30  1  0
M  CHG  1   2   1
M  END
