
     RDKit          3D

 29 30  0  0  0  0  0  0  0  0999 V2000
   -1.0550    3.8130    2.8420 C   0  0  0  0  0  0  0  0  0  0  0  0
   -2.1360    3.2640    2.1180 O   0  0  0  0  0  0  0  0  0  0  0  0
   -2.0810    2.0880    1.4170 C   0  0  0  0  0  0  0  0  0  0  0  0
   -0.9330    1.3400    1.3540 C   0  0  0  0  0  0  0  0  0  0  0  0
   -0.8750    0.1730    0.6590 C   0  0  0  0  0  0  0  0  0  0  0  0
    0.3240   -0.6770    0.5450 C   0  0  0  0  0  0  0  0  0  0  0  0
    1.5010   -0.2610    1.1950 N   0  0  0  0  0  0  0  0  0  0  0  0
    2.4560    0.4260    0.3710 C   0  0  2  0  0  0  0  0  0  0  0  0
    1.9960    1.7260   -0.2020 C   0  0  0  0  0  0  0  0  0  0  0  0
    2.9800   -0.4180   -0.7680 C   0  0  0  0  0  0  0  0  0  0  0  0
    3.6390    0.7410    1.2380 C   0  0  0  0  0  0  0  0  0  0  0  0
    3.6840    0.3880    2.4400 O   0  0  0  0  0  0  0  0  0  0  0  0
    4.7350    1.4370    0.7430 O   0  0  0  0  0  0  0  0  0  0  0  0
    5.8390    1.7220    1.5730 C   0  0  0  0  0  0  0  0  0  0  0  0
    6.4370    0.4580    2.0440 C   0  0  0  0  0  0  0  0  0  0  0  0
    5.9270   -0.8050    1.6650 N   0  0  0  0  0  0  0  0  0  0  0  0
    7.4490    0.5130    2.8190 O   0  0  0  0  0  0  0  0  0  0  0  0
   -2.0060   -0.3030   -0.0220 C   0  0  0  0  0  0  0  0  0  0  0  0
   -1.9380   -1.6080   -0.7550 C   0  0  0  0  0  0  0  0  0  0  0  0
   -3.1860   -1.8550   -1.4360 N   0  0  0  0  0  0  0  0  0  0  0  0
   -3.1500   -3.2510   -1.9100 C   0  0  0  0  0  0  0  0  0  0  0  0
   -4.3740   -3.5730   -2.7220 C   0  0  0  0  0  0  0  0  0  0  0  0
   -4.9130   -2.4770   -3.4610 N   0  0  0  0  0  0  0  0  0  0  0  0
   -4.3980   -1.1500   -3.3480 C   0  0  0  0  0  0  0  0  0  0  0  0
   -5.1610    0.1710   -3.9200 S   0  0  0  0  0  0  0  0  0  0  0  0
   -3.0980   -1.0190   -2.6640 C   0  0  0  0  0  0  0  0  0  0  0  0
   -3.1720    0.4200    0.0220 C   0  0  0  0  0  0  0  0  0  0  0  0
   -3.1890    1.5930    0.7330 C   0  0  0  0  0  0  0  0  0  0  0  0
   -4.3720    2.3040    0.7610 O   0  0  0  0  0  0  0  0  0  0  0  0
  1  2  1  0
  2  3  1  0
  3  4  2  0
  3 28  1  0
  4  5  1  0
  5  6  1  0
  5 18  2  0
  6  7  1  0
  7  8  1  0
  8  9  1  6
  8 10  1  0
  8 11  1  0
 11 12  2  0
 11 13  1  0
 13 14  1  0
 14 15  1  0
 15 16  1  0
 15 17  2  0
 18 19  1  0
 18 27  1  0
 19 20  1  0
 20 21  1  0
 20 26  1  0
 21 22  1  0
 22 23  1  0
 23 24  1  0
 24 25  2  0
 24 26  1  0
 27 28  2  0
 28 29  1  0
M  CHG  1   7   1
M  END
