
     RDKit          3D

 29 31  0  0  0  0  0  0  0  0999 V2000
    0.1080   -2.8680   -1.4800 C   0  0  0  0  0  0  0  0  0  0  0  0
   -0.9770   -2.0250   -0.9570 C   0  0  0  0  0  0  0  0  0  0  0  0
   -2.2080   -2.0690   -1.5190 C   0  0  0  0  0  0  0  0  0  0  0  0
   -3.2600   -1.2810   -1.0470 C   0  0  0  0  0  0  0  0  0  0  0  0
   -4.5730   -1.4450   -1.6520 C   0  0  0  0  0  0  0  0  0  0  0  0
   -5.4920   -2.4490   -1.0860 C   0  0  0  0  0  0  0  0  0  0  0  0
   -5.8810   -2.3320    0.3450 C   0  0  1  0  0  0  0  0  0  0  0  0
   -6.7560   -3.4090    0.6340 F   0  0  0  0  0  0  0  0  0  0  0  0
   -4.8090   -2.5440    1.2090 F   0  0  0  0  0  0  0  0  0  0  0  0
   -3.0430   -0.4410    0.0090 C   0  0  0  0  0  0  0  0  0  0  0  0
   -1.7640   -0.3950    0.5960 C   0  0  0  0  0  0  0  0  0  0  0  0
   -0.7440   -1.1820    0.1130 C   0  0  0  0  0  0  0  0  0  0  0  0
    0.5280   -1.0920    0.7550 N   0  0  0  0  0  0  0  0  0  0  0  0
    1.5600   -0.2060    0.3670 C   0  0  0  0  0  0  0  0  0  0  0  0
    1.3550    0.5580   -0.6210 O   0  0  0  0  0  0  0  0  0  0  0  0
    2.7770   -0.2010    1.0890 N   0  0  0  0  0  0  0  0  0  0  0  0
    3.8750    0.6680    0.7580 C   0  0  0  0  0  0  0  0  0  0  0  0
    4.3500    0.3820   -0.6280 C   0  0  0  0  0  0  0  0  0  0  0  0
    5.5120    1.2680   -1.0350 C   0  0  1  0  0  0  0  0  0  0  0  0
    6.7150    1.1260   -0.1560 C   0  0  0  0  0  0  0  0  0  0  0  0
    7.7790    0.6770   -1.1470 C   0  0  0  0  0  0  0  0  0  0  0  0
    6.9060   -0.0550   -2.1640 C   0  0  0  0  0  0  0  0  0  0  0  0
    5.8780    0.8720   -2.3180 O   0  0  0  0  0  0  0  0  0  0  0  0
   -1.2820    0.4090    1.7460 C   0  0  0  0  0  0  0  0  0  0  0  0
   -1.3570    1.8650    1.3880 C   0  0  0  0  0  0  0  0  0  0  0  0
   -2.8050    2.2830    1.5420 C   0  0  1  0  0  0  0  0  0  0  0  0
   -2.7850    3.8170    1.5720 C   0  0  0  0  0  0  0  0  0  0  0  0
   -3.6410    1.8930    0.3720 C   0  0  0  0  0  0  0  0  0  0  0  0
   -4.1290    0.4300    0.4500 C   0  0  0  0  0  0  0  0  0  0  0  0
  1  2  1  0
  2  3  2  0
  2 12  1  0
  3  4  1  0
  4  5  1  0
  4 10  2  0
  5  6  1  0
  6  7  1  0
  7  8  1  1
  7  9  1  0
 10 11  1  0
 10 29  1  0
 11 12  2  0
 11 24  1  0
 12 13  1  0
 13 14  1  0
 14 15  2  0
 14 16  1  0
 16 17  1  0
 17 18  1  0
 19 18  1  1
 19 20  1  0
 19 23  1  0
 20 21  1  0
 21 22  1  0
 22 23  1  0
 24 25  1  0
 25 26  1  0
 26 27  1  6
 26 28  1  0
 28 29  1  0
M  END
