
     RDKit          3D

 30 31  0  0  0  0  0  0  0  0999 V2000
    8.9520   -0.7620   -0.5210 N   0  0  0  0  0  0  0  0  0  0  0  0
    8.0550   -1.7380   -1.0570 C   0  0  0  0  0  0  0  0  0  0  0  0
    7.0940   -2.6400    0.1540 S   0  0  0  0  0  0  0  0  0  0  0  0
    5.9190   -1.6440    1.0660 C   0  0  0  0  0  0  0  0  0  0  0  0
    4.8310   -1.0920    0.1970 C   0  0  0  0  0  0  0  0  0  0  0  0
    3.8610   -1.7880   -0.0410 O   0  0  0  0  0  0  0  0  0  0  0  0
    4.9570    0.2760   -0.3480 C   0  0  0  0  0  0  0  0  0  0  0  0
    3.8230    0.7110   -1.2120 C   0  0  0  0  0  0  0  0  0  0  0  0
    2.5100    0.7010   -0.5170 C   0  0  0  0  0  0  0  0  0  0  0  0
    2.5030    0.3490    0.6590 O   0  0  0  0  0  0  0  0  0  0  0  0
    1.3500    1.0800   -1.2030 N   0  0  0  0  0  0  0  0  0  0  0  0
    0.0420    1.1020   -0.6350 C   0  0  0  0  0  0  0  0  0  0  0  0
   -0.1120    0.7440    0.5880 N   0  0  0  0  0  0  0  0  0  0  0  0
   -1.5140    0.7960    1.1030 C   0  0  2  0  0  0  0  0  0  0  0  0
   -2.1990   -0.4100    0.6800 C   0  0  0  0  0  0  0  0  0  0  0  0
   -1.5100   -1.2170   -0.0270 O   0  0  0  0  0  0  0  0  0  0  0  0
   -3.5170   -0.8050    0.9450 N   0  0  0  0  0  0  0  0  0  0  0  0
   -4.1900   -1.9800    0.5350 C   0  0  0  0  0  0  0  0  0  0  0  0
   -3.6450   -3.0480   -0.1100 C   0  0  0  0  0  0  0  0  0  0  0  0
   -4.4350   -4.1520   -0.4700 C   0  0  0  0  0  0  0  0  0  0  0  0
   -5.7790   -4.2080   -0.1930 C   0  0  0  0  0  0  0  0  0  0  0  0
   -6.3490   -3.1360    0.4590 C   0  0  0  0  0  0  0  0  0  0  0  0
   -7.7200   -3.1630    0.7560 O   0  0  0  0  0  0  0  0  0  0  0  0
   -5.5590   -2.0640    0.8040 C   0  0  0  0  0  0  0  0  0  0  0  0
   -1.9810    2.1330    0.7160 C   0  0  2  0  0  0  0  0  0  0  0  0
   -3.0230    2.7730    1.5960 C   0  0  0  0  0  0  0  0  0  0  0  0
   -3.4330    4.1590    1.0940 C   0  0  0  0  0  0  0  0  0  0  0  0
   -3.9810    4.1560   -0.1580 O   0  0  0  0  0  0  0  0  0  0  0  0
   -2.1340    2.3610   -0.7430 C   0  0  0  0  0  0  0  0  0  0  0  0
   -1.1240    1.5380   -1.4930 C   0  0  0  0  0  0  0  0  0  0  0  0
  1  2  1  0
  2  3  1  0
  3  4  1  0
  4  5  1  0
  5  6  2  0
  5  7  1  0
  7  8  1  0
  8  9  1  0
  9 10  2  0
  9 11  1  0
 11 12  1  0
 12 13  2  0
 12 30  1  0
 13 14  1  0
 14 15  1  6
 14 25  1  0
 15 16  2  0
 15 17  1  0
 17 18  1  0
 18 19  2  0
 18 24  1  0
 19 20  1  0
 20 21  2  0
 21 22  1  0
 22 23  1  0
 22 24  2  0
 25 26  1  1
 25 29  1  0
 26 27  1  0
 27 28  1  0
 29 30  1  0
M  CHG  1  13   1
M  END
