
     RDKit          3D

 31 33  0  0  0  0  0  0  0  0999 V2000
   -3.4830    3.7760    1.4930 C   0  0  0  0  0  0  0  0  0  0  0  0
   -2.7120    2.7710    0.7460 N   0  0  0  0  0  0  0  0  0  0  0  0
   -3.1770    1.4210    0.6570 C   0  0  0  0  0  0  0  0  0  0  0  0
   -4.2470    1.1480    1.2360 O   0  0  0  0  0  0  0  0  0  0  0  0
   -2.4230    0.4660   -0.0680 N   0  0  0  0  0  0  0  0  0  0  0  0
   -1.2010    0.8250   -0.7180 C   0  0  0  0  0  0  0  0  0  0  0  0
   -1.2010    1.7870   -1.7080 C   0  0  0  0  0  0  0  0  0  0  0  0
   -0.0470    2.1580   -2.3590 C   0  0  0  0  0  0  0  0  0  0  0  0
    1.1740    1.5500   -2.0190 C   0  0  0  0  0  0  0  0  0  0  0  0
    1.1840    0.6130   -1.0570 C   0  0  0  0  0  0  0  0  0  0  0  0
    2.4150   -0.0750   -0.6740 C   0  0  0  0  0  0  0  0  0  0  0  0
    2.4970   -1.2150    0.6810 S   0  0  0  0  0  0  0  0  0  0  0  0
    4.2240   -1.6270    0.5170 C   0  0  0  0  0  0  0  0  0  0  0  0
    4.9120   -2.5850    1.3730 C   0  0  0  0  0  0  0  0  0  0  0  0
    4.2810   -3.1480    2.3220 O   0  0  0  0  0  0  0  0  0  0  0  0
    6.2170   -2.9170    1.2040 O   0  0  0  0  0  0  0  0  0  0  0  0
    4.6180   -0.8730   -0.5470 C   0  0  0  0  0  0  0  0  0  0  0  0
    5.9770   -0.9330   -0.9860 O   0  0  0  0  0  0  0  0  0  0  0  0
    7.0510   -0.2680   -0.4570 C   0  0  0  0  0  0  0  0  0  0  0  0
    7.0460    1.1880   -0.3500 C   0  0  0  0  0  0  0  0  0  0  0  0
    6.1270    1.9690   -0.5910 O   0  0  0  0  0  0  0  0  0  0  0  0
    8.2550    1.8030    0.0880 O   0  0  0  0  0  0  0  0  0  0  0  0
    3.7120   -0.0780   -1.1720 C   0  0  0  0  0  0  0  0  0  0  0  0
    4.1590    0.9080   -2.8340 Br  0  0  0  0  0  0  0  0  0  0  0  0
   -0.0030    0.2500   -0.4060 C   0  0  0  0  0  0  0  0  0  0  0  0
   -2.9520   -0.9010   -0.1240 C   0  0  1  0  0  0  0  0  0  0  0  0
   -3.0600   -1.3980    1.2700 C   0  0  0  0  0  0  0  0  0  0  0  0
   -4.2420   -2.2310    1.6020 C   0  0  0  0  0  0  0  0  0  0  0  0
   -5.4910   -1.9360    0.8440 C   0  0  0  0  0  0  0  0  0  0  0  0
   -5.1440   -2.0240   -0.6400 C   0  0  0  0  0  0  0  0  0  0  0  0
   -4.2210   -0.8590   -0.9130 C   0  0  0  0  0  0  0  0  0  0  0  0
  1  2  1  0
  2  3  1  0
  3  4  2  0
  3  5  1  0
  5  6  1  0
 26  5  1  1
  6  7  2  0
  6 25  1  0
  7  8  1  0
  8  9  2  0
  9 10  1  0
 10 11  1  0
 10 25  2  0
 11 12  1  0
 11 23  2  0
 12 13  1  0
 13 14  1  0
 13 17  2  0
 14 15  2  0
 14 16  1  0
 17 18  1  0
 17 23  1  0
 18 19  1  0
 19 20  1  0
 20 21  2  0
 20 22  1  0
 23 24  1  0
 26 27  1  0
 26 31  1  0
 27 28  1  0
 28 29  1  0
 29 30  1  0
 30 31  1  0
M  END
