
     RDKit          3D

 28 30  0  0  0  0  0  0  0  0999 V2000
   -4.1850    4.2060    1.7670 C   0  0  0  0  0  0  0  0  0  0  0  0
   -4.1600    3.0830    0.7780 C   0  0  0  0  0  0  0  0  0  0  0  0
   -2.7670    2.5880    0.5910 C   0  0  0  0  0  0  0  0  0  0  0  0
   -2.3900    1.3990    1.1640 C   0  0  0  0  0  0  0  0  0  0  0  0
   -1.0850    0.9660    0.9720 C   0  0  0  0  0  0  0  0  0  0  0  0
   -0.1420    1.6660    0.2300 C   0  0  0  0  0  0  0  0  0  0  0  0
   -0.5530    2.8370   -0.3240 C   0  0  0  0  0  0  0  0  0  0  0  0
   -1.8630    3.2990   -0.1420 C   0  0  0  0  0  0  0  0  0  0  0  0
   -2.2090    4.4740   -0.7260 F   0  0  0  0  0  0  0  0  0  0  0  0
    1.1220    0.9220    0.2220 C   0  0  0  0  0  0  0  0  0  0  0  0
    2.2570    1.2000   -0.4000 C   0  0  0  0  0  0  0  0  0  0  0  0
    3.4250    0.2740   -0.2450 C   0  0  0  0  0  0  0  0  0  0  0  0
    4.1450    0.2210   -1.6030 C   0  0  2  0  0  0  0  0  0  0  0  0
    3.2390   -0.4490   -2.6330 C   0  0  0  0  0  0  0  0  0  0  0  0
    5.4060   -0.5930   -1.4370 C   0  0  0  0  0  0  0  0  0  0  0  0
    4.4530    1.5870   -2.1380 C   0  0  0  0  0  0  0  0  0  0  0  0
    3.1460    2.2950   -2.4510 C   0  0  0  0  0  0  0  0  0  0  0  0
    2.4500    2.3860   -1.1660 N   0  0  0  0  0  0  0  0  0  0  0  0
    0.8330   -0.2680    1.0180 C   0  0  0  0  0  0  0  0  0  0  0  0
    1.5990   -1.2230    1.3130 O   0  0  0  0  0  0  0  0  0  0  0  0
   -0.5120   -0.2310    1.4640 N   0  0  0  0  0  0  0  0  0  0  0  0
   -1.1930   -1.3300    2.1740 C   0  0  0  0  0  0  0  0  0  0  0  0
   -1.9590   -2.1600    1.1560 C   0  0  1  0  0  0  0  0  0  0  0  0
   -1.1680   -2.7070    0.0350 C   0  0  0  0  0  0  0  0  0  0  0  0
   -0.0590   -3.6320    0.2960 C   0  0  0  0  0  0  0  0  0  0  0  0
   -2.8390   -3.1370    1.8880 C   0  0  0  0  0  0  0  0  0  0  0  0
   -3.6860   -4.0220    1.0490 C   0  0  0  0  0  0  0  0  0  0  0  0
   -3.0310   -4.8770    0.1910 O   0  0  0  0  0  0  0  0  0  0  0  0
  1  2  1  0
  2  3  1  0
  3  4  2  0
  3  8  1  0
  4  5  1  0
  5  6  2  0
  5 21  1  0
  6  7  1  0
  6 10  1  0
  7  8  2  0
  8  9  1  0
 10 11  2  3
 10 19  1  0
 11 12  1  0
 11 18  1  0
 12 13  1  0
 13 14  1  6
 13 15  1  0
 13 16  1  0
 16 17  1  0
 17 18  1  0
 19 20  2  0
 19 21  1  0
 21 22  1  0
 23 22  1  1
 23 24  1  0
 23 26  1  0
 24 25  1  0
 26 27  1  0
 27 28  1  0
M  END
