
     RDKit          3D

 29 30  0  0  0  0  0  0  0  0999 V2000
    0.6630    1.1380   -3.5090 C   0  0  0  0  0  0  0  0  0  0  0  0
    1.2500    2.1570   -2.5860 C   0  0  2  0  0  0  0  0  0  0  0  0
    2.3180    2.9340   -3.3730 C   0  0  0  0  0  0  0  0  0  0  0  0
    1.8880    1.5340   -1.4090 N   0  0  0  0  0  0  0  0  0  0  0  0
    1.4540    1.9900   -0.1330 C   0  0  0  0  0  0  0  0  0  0  0  0
    0.2450    1.2990    0.4400 C   0  0  2  0  0  0  0  0  0  0  0  0
    0.3870   -0.1090    0.6340 N   0  0  0  0  0  0  0  0  0  0  0  0
   -1.0420    1.6760   -0.2180 C   0  0  0  0  0  0  0  0  0  0  0  0
   -2.1520    0.9330    0.4370 C   0  0  0  0  0  0  0  0  0  0  0  0
   -2.7040   -0.2170    0.1900 N   0  0  0  0  0  0  0  0  0  0  0  0
   -3.6650   -0.7130    0.8670 C   0  0  0  0  0  0  0  0  0  0  0  0
   -4.1380    0.0680    1.9520 C   0  0  0  0  0  0  0  0  0  0  0  0
   -3.0540    1.5000    1.8300 S   0  0  0  0  0  0  0  0  0  0  0  0
   -5.2260   -0.3400    2.8260 C   0  0  0  0  0  0  0  0  0  0  0  0
   -6.1910   -1.1100    2.2040 O   0  0  0  0  0  0  0  0  0  0  0  0
   -5.9200   -1.4910    0.9210 C   0  0  2  0  0  0  0  0  0  0  0  0
   -6.0840   -0.2960   -0.0020 C   0  0  0  0  0  0  0  0  0  0  0  0
   -6.8580   -2.5850    0.5020 C   0  0  0  0  0  0  0  0  0  0  0  0
   -4.4920   -2.0050    0.8080 C   0  0  0  0  0  0  0  0  0  0  0  0
    2.8420    0.5360   -1.6590 C   0  0  0  0  0  0  0  0  0  0  0  0
    3.0170    0.2190   -2.8980 O   0  0  0  0  0  0  0  0  0  0  0  0
    3.6690   -0.2000   -0.7060 C   0  0  1  0  0  0  0  0  0  0  0  0
    4.2650   -1.2900   -1.4140 O   0  0  0  0  0  0  0  0  0  0  0  0
    4.8110    0.6250   -0.1390 C   0  0  0  0  0  0  0  0  0  0  0  0
    5.5820   -0.2320    0.7370 N   0  0  0  0  0  0  0  0  0  0  0  0
    5.0480   -0.8520    1.8970 C   0  0  0  0  0  0  0  0  0  0  0  0
    3.8470   -0.6810    2.2330 O   0  0  0  0  0  0  0  0  0  0  0  0
    5.8960   -1.7300    2.7560 C   0  0  0  0  0  0  0  0  0  0  0  0
    7.1590   -1.7820    2.2150 O   0  0  0  0  0  0  0  0  0  0  0  0
  2  1  1  6
  2  3  1  0
  2  4  1  0
  4  5  1  0
  4 20  1  0
  5  6  1  0
  6  7  1  6
  6  8  1  0
  8  9  1  0
  9 10  2  0
  9 13  1  0
 10 11  1  0
 11 12  2  0
 11 19  1  0
 12 13  1  0
 12 14  1  0
 14 15  1  0
 15 16  1  0
 16 17  1  6
 16 18  1  0
 16 19  1  0
 20 21  2  0
 20 22  1  0
 22 23  1  6
 22 24  1  0
 24 25  1  0
 25 26  1  0
 26 27  2  0
 26 28  1  0
 28 29  1  0
M  CHG  1   7   1
M  END
