
     RDKit          3D

 34 37  0  0  0  0  0  0  0  0999 V2000
   -4.2500   -4.4720   -0.1030 C   0  0  0  0  0  0  0  0  0  0  0  0
   -4.2700   -2.9850   -0.2800 C   0  0  0  0  0  0  0  0  0  0  0  0
   -5.4420   -2.2680   -0.1800 C   0  0  0  0  0  0  0  0  0  0  0  0
   -5.4070   -0.9000   -0.3510 C   0  0  0  0  0  0  0  0  0  0  0  0
   -4.1910   -0.2560   -0.6230 C   0  0  0  0  0  0  0  0  0  0  0  0
   -4.1550    1.1150   -0.7950 O   0  0  0  0  0  0  0  0  0  0  0  0
   -3.0180   -0.9620   -0.7250 C   0  0  0  0  0  0  0  0  0  0  0  0
   -1.7610   -0.2110   -1.0090 C   0  0  2  0  0  0  0  0  0  0  0  0
   -0.6860   -1.2410   -1.2490 C   0  0  0  0  0  0  0  0  0  0  0  0
   -1.4530    0.7480   -0.0340 N   0  0  0  0  0  0  0  0  0  0  0  0
   -0.3500    1.6310   -0.2340 C   0  0  1  0  0  0  0  0  0  0  0  0
   -0.3450    2.6930    0.7830 N   0  0  0  0  0  0  0  0  0  0  0  0
   -1.3520    3.6670    0.8880 C   0  0  0  0  0  0  0  0  0  0  0  0
   -2.3690    3.8000   -0.0610 C   0  0  0  0  0  0  0  0  0  0  0  0
   -3.3100    4.7500    0.1060 N   0  0  0  0  0  0  0  0  0  0  0  0
   -3.3230    5.5770    1.1360 N   0  0  0  0  0  0  0  0  0  0  0  0
   -2.3850    5.5050    2.0740 C   0  0  0  0  0  0  0  0  0  0  0  0
   -2.3890    6.5940    3.4440 Cl  0  0  0  0  0  0  0  0  0  0  0  0
   -1.3980    4.5460    1.9470 C   0  0  0  0  0  0  0  0  0  0  0  0
    0.9920    0.9900   -0.2440 C   0  0  0  0  0  0  0  0  0  0  0  0
    1.4200    0.0620    0.6750 C   0  0  0  0  0  0  0  0  0  0  0  0
    2.6820   -0.4550    0.5910 N   0  0  0  0  0  0  0  0  0  0  0  0
    3.5570   -0.1120   -0.3470 C   0  0  0  0  0  0  0  0  0  0  0  0
    4.8560   -0.6270   -0.5090 N   0  0  0  0  0  0  0  0  0  0  0  0
    5.4900   -1.5650    0.3340 C   0  0  0  0  0  0  0  0  0  0  0  0
    6.2390   -2.6220   -0.2060 C   0  0  0  0  0  0  0  0  0  0  0  0
    6.9090   -3.5400    0.5650 C   0  0  0  0  0  0  0  0  0  0  0  0
    6.8670   -3.4520    1.9030 N   0  0  0  0  0  0  0  0  0  0  0  0
    6.1620   -2.4540    2.4570 C   0  0  0  0  0  0  0  0  0  0  0  0
    5.4670   -1.5010    1.7030 C   0  0  0  0  0  0  0  0  0  0  0  0
    3.1360    0.8010   -1.2520 N   0  0  0  0  0  0  0  0  0  0  0  0
    1.9220    1.3360   -1.2200 C   0  0  0  0  0  0  0  0  0  0  0  0
    1.5350    2.3270   -2.2420 C   0  0  0  0  0  0  0  0  0  0  0  0
   -3.0650   -2.3230   -0.5530 C   0  0  0  0  0  0  0  0  0  0  0  0
  1  2  1  0
  2  3  2  0
  2 34  1  0
  3  4  1  0
  4  5  2  0
  5  6  1  0
  5  7  1  0
  7  8  1  0
  7 34  2  0
  8  9  1  1
  8 10  1  0
 11 10  1  1
 11 12  1  0
 11 20  1  0
 12 13  1  0
 13 14  2  0
 13 19  1  0
 14 15  1  0
 15 16  2  0
 16 17  1  0
 17 18  1  0
 17 19  2  0
 20 21  2  0
 20 32  1  0
 21 22  1  0
 22 23  2  0
 23 24  1  0
 23 31  1  0
 24 25  1  0
 25 26  2  0
 25 30  1  0
 26 27  1  0
 27 28  2  0
 28 29  1  0
 29 30  2  0
 31 32  2  0
 32 33  1  0
M  CHG  1  22   1
M  END
