
     RDKit          3D

 34 37  0  0  0  0  0  0  0  0999 V2000
    9.6270   -1.8920   -0.2560 C   0  0  0  0  0  0  0  0  0  0  0  0
    9.6160   -0.5860    0.4980 C   0  0  0  0  0  0  0  0  0  0  0  0
    8.5020    0.2060    0.0340 N   0  0  0  0  0  0  0  0  0  0  0  0
    7.1790   -0.2580    0.2670 C   0  0  0  0  0  0  0  0  0  0  0  0
    6.9130   -1.4220    0.9920 C   0  0  0  0  0  0  0  0  0  0  0  0
    5.6350   -1.8800    1.2350 C   0  0  0  0  0  0  0  0  0  0  0  0
    4.5700   -1.1620    0.7430 C   0  0  0  0  0  0  0  0  0  0  0  0
    3.2180   -1.3180    0.7910 N   0  0  0  0  0  0  0  0  0  0  0  0
    2.6310   -0.3270    0.1440 C   0  0  0  0  0  0  0  0  0  0  0  0
    1.1780   -0.0650   -0.0760 C   0  0  0  0  0  0  0  0  0  0  0  0
    0.6210    0.7180    0.9290 N   0  0  0  0  0  0  0  0  0  0  0  0
   -0.7120    1.0950    0.9580 C   0  0  0  0  0  0  0  0  0  0  0  0
   -1.2750    2.0710    0.0110 C   0  0  1  0  0  0  0  0  0  0  0  0
   -1.2360    1.7990   -1.4380 C   0  0  0  0  0  0  0  0  0  0  0  0
   -1.8610    0.4870   -1.8290 C   0  0  0  0  0  0  0  0  0  0  0  0
   -3.1610    0.2290   -1.1560 C   0  0  0  0  0  0  0  0  0  0  0  0
   -3.5000    1.0940   -0.0640 N   0  0  0  0  0  0  0  0  0  0  0  0
   -4.6910    0.7680    0.6590 C   0  0  0  0  0  0  0  0  0  0  0  0
   -5.0460    1.4800    1.6260 O   0  0  0  0  0  0  0  0  0  0  0  0
   -5.5160   -0.3390    0.3400 N   0  0  0  0  0  0  0  0  0  0  0  0
   -6.7160   -0.6180    1.1160 C   0  0  2  0  0  0  0  0  0  0  0  0
   -6.5770   -2.0080    1.7010 C   0  0  0  0  0  0  0  0  0  0  0  0
   -7.9300   -0.5430    0.2680 C   0  0  0  0  0  0  0  0  0  0  0  0
   -7.9920   -1.1220   -0.9860 C   0  0  0  0  0  0  0  0  0  0  0  0
   -9.1100   -1.0160   -1.6910 N   0  0  0  0  0  0  0  0  0  0  0  0
  -10.2050   -0.3710   -1.2560 C   0  0  0  0  0  0  0  0  0  0  0  0
  -10.1420    0.2050   -0.0060 C   0  0  0  0  0  0  0  0  0  0  0  0
   -9.0180    0.1070    0.7190 N   0  0  0  0  0  0  0  0  0  0  0  0
   -2.7570    2.2570    0.3710 C   0  0  0  0  0  0  0  0  0  0  0  0
    3.6040    0.4730   -0.3240 N   0  0  0  0  0  0  0  0  0  0  0  0
    4.8270   -0.0100    0.0250 C   0  0  0  0  0  0  0  0  0  0  0  0
    6.1000    0.4500   -0.2180 C   0  0  0  0  0  0  0  0  0  0  0  0
    6.3330    1.6930   -0.9930 C   0  0  0  0  0  0  0  0  0  0  0  0
    6.8760    1.3920   -2.6410 Cl  0  0  0  0  0  0  0  0  0  0  0  0
  1  2  1  0
  2  3  1  0
  3  4  1  0
  4  5  2  0
  4 32  1  0
  5  6  1  0
  6  7  2  0
  7  8  1  0
  7 31  1  0
  8  9  2  0
  9 10  1  0
  9 30  1  0
 10 11  1  0
 11 12  1  0
 13 12  1  1
 13 14  1  0
 13 29  1  0
 14 15  1  0
 15 16  1  0
 16 17  1  0
 17 18  1  0
 17 29  1  0
 18 19  2  0
 18 20  1  0
 20 21  1  0
 21 22  1  6
 21 23  1  0
 23 24  2  0
 23 28  1  0
 24 25  1  0
 25 26  2  0
 26 27  1  0
 27 28  2  0
 30 31  1  0
 31 32  2  0
 32 33  1  0
 33 34  1  0
M  CHG  1   8   1
M  END
