
     RDKit          3D

 33 37  0  0  0  0  0  0  0  0999 V2000
   -7.4520   -2.2700   -0.5830 C   0  0  0  0  0  0  0  0  0  0  0  0
   -6.0490   -2.4110   -0.9950 C   0  0  0  0  0  0  0  0  0  0  0  0
   -5.7330   -3.2620   -1.8420 O   0  0  0  0  0  0  0  0  0  0  0  0
   -5.0440   -1.5410   -0.3980 C   0  0  0  0  0  0  0  0  0  0  0  0
   -5.2490   -0.6030    0.5050 O   0  0  0  0  0  0  0  0  0  0  0  0
   -4.1580    0.0090    0.8480 C   0  0  0  0  0  0  0  0  0  0  0  0
   -3.0980   -0.5090    0.1590 C   0  0  0  0  0  0  0  0  0  0  0  0
   -3.6940   -1.5060   -0.6380 C   0  0  0  0  0  0  0  0  0  0  0  0
   -2.7800   -2.5050   -1.7410 Cl  0  0  0  0  0  0  0  0  0  0  0  0
   -1.6500   -0.2250    0.1450 C   0  0  0  0  0  0  0  0  0  0  0  0
   -1.3280    1.1630    0.4300 N   0  0  0  0  0  0  0  0  0  0  0  0
    0.0100    1.5380    0.6570 C   0  0  0  0  0  0  0  0  0  0  0  0
    0.2110    2.6430    1.2920 O   0  0  0  0  0  0  0  0  0  0  0  0
    1.2620    0.8930    0.2990 C   0  0  1  0  0  0  0  0  0  0  0  0
    1.8800    0.3920    1.6220 C   0  0  0  0  0  0  0  0  0  0  0  0
    1.2890   -0.2090   -0.5780 N   0  0  0  0  0  0  0  0  0  0  0  0
    2.7220   -0.4350   -0.9100 C   0  0  2  0  0  0  0  0  0  0  0  0
    2.8930   -0.8350   -2.3600 C   0  0  0  0  0  0  0  0  0  0  0  0
    3.2800   -1.5340   -0.0880 C   0  0  0  0  0  0  0  0  0  0  0  0
    2.6970   -2.7390    0.1830 C   0  0  0  0  0  0  0  0  0  0  0  0
    3.5310   -3.4500    0.9630 N   0  0  0  0  0  0  0  0  0  0  0  0
    4.6020   -2.7020    1.1670 C   0  0  0  0  0  0  0  0  0  0  0  0
    4.4680   -1.5280    0.5340 N   0  0  0  0  0  0  0  0  0  0  0  0
    5.4860   -0.4940    0.5720 C   0  0  1  0  0  0  0  0  0  0  0  0
    6.8850   -0.8210    0.1970 C   0  0  0  0  0  0  0  0  0  0  0  0
    6.0020    0.1070   -0.6790 C   0  0  0  0  0  0  0  0  0  0  0  0
   -2.2810    2.2080    0.5690 C   0  0  0  0  0  0  0  0  0  0  0  0
   -2.1050    3.4780    0.0550 C   0  0  0  0  0  0  0  0  0  0  0  0
   -0.9310    3.9030   -0.7350 C   0  0  0  0  0  0  0  0  0  0  0  0
   -3.2090    4.2080    0.3760 N   0  0  0  0  0  0  0  0  0  0  0  0
   -4.0730    3.4650    1.0630 N   0  0  0  0  0  0  0  0  0  0  0  0
   -3.5270    2.2580    1.1850 C   0  0  0  0  0  0  0  0  0  0  0  0
   -4.1810    1.1160    1.8660 C   0  0  0  0  0  0  0  0  0  0  0  0
  1  2  1  0
  2  3  2  0
  2  4  1  0
  4  5  1  0
  4  8  2  0
  5  6  1  0
  6  7  2  0
  6 33  1  0
  7  8  1  0
  7 10  1  0
  8  9  1  0
 10 11  1  0
 11 12  1  0
 11 27  1  0
 12 13  2  0
 12 14  1  0
 14 15  1  1
 14 16  1  0
 16 17  1  0
 17 18  1  6
 17 19  1  0
 19 20  2  0
 19 23  1  0
 20 21  1  0
 21 22  2  0
 22 23  1  0
 24 23  1  6
 24 25  1  0
 24 26  1  0
 25 26  1  0
 27 28  1  0
 27 32  2  0
 28 29  1  0
 28 30  2  0
 30 31  1  0
 31 32  1  0
 32 33  1  0
M  CHG  1  16   1
M  END
