
     RDKit          3D

 33 36  0  0  0  0  0  0  0  0999 V2000
    0.5270   -1.7810   -2.6820 C   0  0  0  0  0  0  0  0  0  0  0  0
    0.7280   -2.2010   -1.2400 C   0  0  0  0  0  0  0  0  0  0  0  0
    0.9360   -1.0190   -0.3590 C   0  0  0  0  0  0  0  0  0  0  0  0
   -0.1060   -0.1500    0.0680 C   0  0  0  0  0  0  0  0  0  0  0  0
   -1.4580   -0.3840   -0.3870 C   0  0  0  0  0  0  0  0  0  0  0  0
   -2.5300    0.3900    0.1110 N   0  0  0  0  0  0  0  0  0  0  0  0
   -3.6480    0.1980   -0.7980 C   0  0  0  0  0  0  0  0  0  0  0  0
   -4.6420   -0.8220   -0.4630 C   0  0  2  0  0  0  0  0  0  0  0  0
   -5.8800   -0.5500   -1.3340 C   0  0  0  0  0  0  0  0  0  0  0  0
   -5.0110   -0.8640    0.8780 O   0  0  0  0  0  0  0  0  0  0  0  0
   -3.8530   -1.1240    1.5830 C   0  0  2  0  0  0  0  0  0  0  0  0
   -4.2500   -1.2940    3.0370 C   0  0  0  0  0  0  0  0  0  0  0  0
   -2.9080    0.0010    1.4660 C   0  0  0  0  0  0  0  0  0  0  0  0
    0.4660    0.7740    0.8060 N   0  0  0  0  0  0  0  0  0  0  0  0
   -0.0830    1.9370    1.4380 C   0  0  0  0  0  0  0  0  0  0  0  0
   -0.0020    3.1410    0.5560 C   0  0  0  0  0  0  0  0  0  0  0  0
   -1.1000    3.5500   -0.1470 C   0  0  0  0  0  0  0  0  0  0  0  0
   -1.0300    4.6790   -0.9870 C   0  0  0  0  0  0  0  0  0  0  0  0
   -2.0390    5.0560   -1.6330 O   0  0  0  0  0  0  0  0  0  0  0  0
    0.1320    5.3440   -1.0850 N   0  0  0  0  0  0  0  0  0  0  0  0
    1.1990    4.9340   -0.3920 C   0  0  0  0  0  0  0  0  0  0  0  0
    2.4850    5.7030   -0.5260 C   0  0  0  0  0  0  0  0  0  0  0  0
    3.4370    5.0170   -1.8780 Cl  0  0  0  0  0  0  0  0  0  0  0  0
    1.1210    3.8540    0.4070 N   0  0  0  0  0  0  0  0  0  0  0  0
    1.8130    0.5020    0.8500 C   0  0  0  0  0  0  0  0  0  0  0  0
    2.7980    1.2530    1.5400 N   0  0  0  0  0  0  0  0  0  0  0  0
    2.0960   -0.5950    0.1360 N   0  0  0  0  0  0  0  0  0  0  0  0
    3.4310   -1.1850   -0.0550 C   0  0  0  0  0  0  0  0  0  0  0  0
    3.7910   -2.1680    1.0240 C   0  0  2  0  0  0  0  0  0  0  0  0
    5.1780   -2.6770    0.7030 C   0  0  0  0  0  0  0  0  0  0  0  0
    4.8560   -3.8320   -0.2370 C   0  0  0  0  0  0  0  0  0  0  0  0
    3.5600   -4.3190    0.3740 C   0  0  0  0  0  0  0  0  0  0  0  0
    3.0270   -3.2890    1.0930 O   0  0  0  0  0  0  0  0  0  0  0  0
  1  2  1  0
  2  3  1  0
  3  4  2  0
  3 27  1  0
  4  5  1  0
  4 14  1  0
  5  6  1  0
  6  7  1  0
  6 13  1  0
  7  8  1  0
  8  9  1  6
  8 10  1  0
 10 11  1  0
 11 12  1  1
 11 13  1  0
 14 15  1  0
 14 25  2  0
 15 16  1  0
 16 17  2  0
 16 24  1  0
 17 18  1  0
 18 19  2  0
 18 20  1  0
 20 21  1  0
 21 22  1  0
 21 24  2  0
 22 23  1  0
 25 26  1  0
 25 27  1  0
 27 28  1  0
 29 28  1  6
 29 30  1  0
 29 33  1  0
 30 31  1  0
 31 32  1  0
 32 33  1  0
M  CHG  1  14   1
M  END
