
     RDKit          3D

 34 38  0  0  0  0  0  0  0  0999 V2000
   -5.8100   -0.0040    1.8510 C   0  0  0  0  0  0  0  0  0  0  0  0
   -4.7330    0.1360    1.1460 C   0  0  0  0  0  0  0  0  0  0  0  0
   -4.2700    1.2150    0.3710 C   0  0  0  0  0  0  0  0  0  0  0  0
   -4.8280    2.3890    0.3250 C   0  0  0  0  0  0  0  0  0  0  0  0
   -6.0460    2.8060    1.1190 C   0  0  0  0  0  0  0  0  0  0  0  0
   -4.3580    3.6380   -0.8790 Cl  0  0  0  0  0  0  0  0  0  0  0  0
   -3.1100    0.7330   -0.1810 C   0  0  0  0  0  0  0  0  0  0  0  0
   -2.0490    1.5330   -0.9520 C   0  0  0  0  0  0  0  0  0  0  0  0
   -0.8700    1.4560   -0.1230 N   0  0  0  0  0  0  0  0  0  0  0  0
    0.2560    0.8310    0.2690 C   0  0  0  0  0  0  0  0  0  0  0  0
    0.5830    1.1950    1.5650 O   0  0  0  0  0  0  0  0  0  0  0  0
    1.2380   -0.0520   -0.1800 N   0  0  0  0  0  0  0  0  0  0  0  0
    2.3270   -0.5170    0.6360 C   0  0  0  0  0  0  0  0  0  0  0  0
    2.2170   -0.2510    1.9000 O   0  0  0  0  0  0  0  0  0  0  0  0
    3.4440   -1.1820    0.2350 N   0  0  0  0  0  0  0  0  0  0  0  0
    3.9720   -1.6020   -1.0910 C   0  0  0  0  0  0  0  0  0  0  0  0
    5.2800   -0.8120   -1.0220 C   0  0  2  0  0  0  0  0  0  0  0  0
    6.3480   -1.2210   -1.9440 C   0  0  0  0  0  0  0  0  0  0  0  0
    6.7820   -2.5580   -1.5150 N   0  0  0  0  0  0  0  0  0  0  0  0
    6.3890   -2.6650   -0.1520 C   0  0  0  0  0  0  0  0  0  0  0  0
    6.5440   -3.7120    0.5170 O   0  0  0  0  0  0  0  0  0  0  0  0
    5.7960   -1.4000    0.3160 C   0  0  2  0  0  0  0  0  0  0  0  0
    4.5560   -1.6400    1.1200 C   0  0  0  0  0  0  0  0  0  0  0  0
   -0.7370    2.9340    0.5360 C   0  0  1  0  0  0  0  0  0  0  0  0
    0.3110    3.6010   -0.4790 C   0  0  0  0  0  0  0  0  0  0  0  0
   -1.1020    4.0110   -0.3240 C   0  0  0  0  0  0  0  0  0  0  0  0
   -2.8700   -0.5810    0.1950 C   0  0  0  0  0  0  0  0  0  0  0  0
   -3.8520   -0.9160    1.0110 N   0  0  0  0  0  0  0  0  0  0  0  0
   -3.6130   -2.2460    1.5020 C   0  0  2  0  0  0  0  0  0  0  0  0
   -3.0600   -2.2110    2.7980 F   0  0  0  0  0  0  0  0  0  0  0  0
   -2.6140   -2.8410    0.6690 N   0  0  0  0  0  0  0  0  0  0  0  0
   -2.0290   -1.7480   -0.1180 C   0  0  0  0  0  0  0  0  0  0  0  0
   -1.2800   -2.0520   -1.1420 C   0  0  0  0  0  0  0  0  0  0  0  0
   -1.0410   -1.3090   -2.3730 C   0  0  0  0  0  0  0  0  0  0  0  0
  1  2  2  0
  2  3  1  0
  2 28  1  0
  3  4  2  3
  3  7  1  0
  4  5  1  0
  4  6  1  0
  7  8  1  0
  7 27  2  0
  8  9  1  0
  9 10  1  0
 24  9  1  6
 10 11  2  0
 10 12  1  0
 12 13  1  0
 13 14  2  0
 13 15  1  0
 15 16  1  0
 15 23  1  0
 17 16  1  6
 17 18  1  0
 17 22  1  0
 18 19  1  0
 19 20  1  0
 20 21  2  0
 20 22  1  0
 22 23  1  1
 24 25  1  0
 24 26  1  0
 25 26  1  0
 27 28  1  0
 27 32  1  0
 28 29  1  0
 29 30  1  1
 29 31  1  0
 31 32  1  0
 32 33  2  3
 33 34  1  0
M  END
