
     RDKit          3D

 34 37  0  0  0  0  0  0  0  0999 V2000
   -1.8430    1.4030   -2.4170 C   0  0  0  0  0  0  0  0  0  0  0  0
   -2.6510    0.1440   -2.4830 C   0  0  0  0  0  0  0  0  0  0  0  0
   -2.8250   -0.5040   -1.1220 C   0  0  2  0  0  0  0  0  0  0  0  0
   -3.5420    0.4590   -0.1720 C   0  0  0  0  0  0  0  0  0  0  0  0
   -4.8530    0.8040   -0.6820 N   0  0  0  0  0  0  0  0  0  0  0  0
   -5.5260    1.7610    0.1640 C   0  0  0  0  0  0  0  0  0  0  0  0
   -6.1350    1.0840    1.3530 C   0  0  0  0  0  0  0  0  0  0  0  0
   -7.1880    0.1590    0.9830 N   0  0  2  0  0  0  0  0  0  0  0  0
   -7.2550   -0.9140    1.9500 C   0  0  0  0  0  0  0  0  0  0  0  0
   -7.0530   -0.2990   -0.3800 C   0  0  1  0  0  0  0  0  0  0  0  0
   -7.9110    0.5140   -1.3000 C   0  0  0  0  0  0  0  0  0  0  0  0
   -5.6200   -0.3930   -0.8270 C   0  0  0  0  0  0  0  0  0  0  0  0
   -1.5300   -0.9110   -0.5350 C   0  0  0  0  0  0  0  0  0  0  0  0
   -0.5140   -0.1660   -0.0690 N   0  0  0  0  0  0  0  0  0  0  0  0
    0.4990   -0.9410    0.3840 C   0  0  0  0  0  0  0  0  0  0  0  0
    1.7450   -0.5220    0.9890 C   0  0  0  0  0  0  0  0  0  0  0  0
    1.6990    0.6670    2.2700 Cl  0  0  0  0  0  0  0  0  0  0  0  0
    2.9080   -1.0060    0.6070 C   0  0  0  0  0  0  0  0  0  0  0  0
    4.1590   -0.5670    1.2420 C   0  0  0  0  0  0  0  0  0  0  0  0
    5.3560   -0.9900    0.8910 C   0  0  0  0  0  0  0  0  0  0  0  0
    6.5980   -0.5090    1.5730 C   0  0  0  0  0  0  0  0  0  0  0  0
    7.5010    0.1670    0.6040 C   0  0  0  0  0  0  0  0  0  0  0  0
    7.1340    0.2600   -0.5930 O   0  0  0  0  0  0  0  0  0  0  0  0
    8.7510    0.7070    0.9690 N   0  0  0  0  0  0  0  0  0  0  0  0
    9.6450    1.3610    0.0970 C   0  0  0  0  0  0  0  0  0  0  0  0
   10.8440    1.8750    0.4640 N   0  0  0  0  0  0  0  0  0  0  0  0
   11.4560    2.4310   -0.5820 C   0  0  0  0  0  0  0  0  0  0  0  0
   10.6230    2.2730   -1.6760 C   0  0  0  0  0  0  0  0  0  0  0  0
    9.5390    1.6160   -1.2000 N   0  0  0  0  0  0  0  0  0  0  0  0
    5.4450   -1.9550   -0.1980 C   0  0  0  0  0  0  0  0  0  0  0  0
    4.3470   -2.3920   -0.8140 C   0  0  0  0  0  0  0  0  0  0  0  0
    3.0520   -1.9450   -0.4460 N   0  0  0  0  0  0  0  0  0  0  0  0
    0.0660   -2.2370    0.1790 C   0  0  0  0  0  0  0  0  0  0  0  0
   -1.1430   -2.1830   -0.3680 N   0  0  0  0  0  0  0  0  0  0  0  0
  1  2  1  0
  3  2  1  6
  3  4  1  0
  3 13  1  0
  4  5  1  0
  5  6  1  0
  5 12  1  0
  6  7  1  0
  7  8  1  0
  8  9  1  1
  8 10  1  0
 10 11  1  6
 10 12  1  0
 13 14  2  0
 13 34  1  0
 14 15  1  0
 15 16  1  0
 15 33  2  0
 16 17  1  0
 16 18  2  3
 18 19  1  0
 18 32  1  0
 19 20  2  0
 20 21  1  0
 20 30  1  0
 21 22  1  0
 22 23  2  0
 22 24  1  0
 24 25  1  0
 25 26  2  0
 25 29  1  0
 26 27  1  0
 27 28  2  0
 28 29  1  0
 30 31  2  0
 31 32  1  0
 33 34  1  0
M  CHG  1   8   1
M  END
