
     RDKit          3D

 35 38  0  0  0  0  0  0  0  0999 V2000
    8.9900   -0.3900    0.6440 O   0  0  0  0  0  0  0  0  0  0  0  0
    8.4310   -1.2800   -0.0480 C   0  0  0  0  0  0  0  0  0  0  0  0
    9.2620   -2.2850   -0.5420 O   0  0  0  0  0  0  0  0  0  0  0  0
    6.9850   -1.2500   -0.3140 C   0  0  0  0  0  0  0  0  0  0  0  0
    6.3570   -0.1330    0.2870 O   0  0  0  0  0  0  0  0  0  0  0  0
    4.9420    0.0330    0.1240 C   0  0  0  0  0  0  0  0  0  0  0  0
    4.5070    0.7400   -0.9400 C   0  0  0  0  0  0  0  0  0  0  0  0
    5.2280    1.4240   -2.0430 C   0  0  0  0  0  0  0  0  0  0  0  0
    4.6200    2.0350   -2.9330 O   0  0  0  0  0  0  0  0  0  0  0  0
    6.6090    1.3950   -2.1070 O   0  0  0  0  0  0  0  0  0  0  0  0
    2.7100    0.7030   -0.7660 S   0  0  0  0  0  0  0  0  0  0  0  0
    2.7260   -0.2660    0.7320 C   0  0  0  0  0  0  0  0  0  0  0  0
    1.4550   -0.6670    1.4040 C   0  0  0  0  0  0  0  0  0  0  0  0
    1.3790   -1.3160    2.5990 C   0  0  0  0  0  0  0  0  0  0  0  0
    0.1710   -1.6870    3.1680 C   0  0  0  0  0  0  0  0  0  0  0  0
   -0.9790   -1.3860    2.5010 C   0  0  0  0  0  0  0  0  0  0  0  0
   -0.9840   -0.7290    1.2830 C   0  0  0  0  0  0  0  0  0  0  0  0
   -2.2260   -0.4370    0.5890 N   0  0  0  0  0  0  0  0  0  0  0  0
   -2.9910   -1.5440    0.1840 C   0  0  0  0  0  0  0  0  0  0  0  0
   -2.7100   -2.6530    0.8210 O   0  0  0  0  0  0  0  0  0  0  0  0
   -4.0160   -1.6600   -0.7990 C   0  0  0  0  0  0  0  0  0  0  0  0
   -4.8420   -2.7950   -0.8200 C   0  0  0  0  0  0  0  0  0  0  0  0
   -5.7950   -2.9950   -1.7780 C   0  0  0  0  0  0  0  0  0  0  0  0
   -5.9980   -2.0850   -2.7850 C   0  0  0  0  0  0  0  0  0  0  0  0
   -5.2140   -0.9720   -2.7980 C   0  0  0  0  0  0  0  0  0  0  0  0
   -4.2350   -0.7690   -1.8120 C   0  0  0  0  0  0  0  0  0  0  0  0
   -2.6790    0.8990    0.4470 C   0  0  2  0  0  0  0  0  0  0  0  0
   -1.8130    1.7860   -0.4240 C   0  0  0  0  0  0  0  0  0  0  0  0
   -2.6730    3.0340   -0.6790 C   0  0  0  0  0  0  0  0  0  0  0  0
   -2.8870    3.7520    0.6590 C   0  0  0  0  0  0  0  0  0  0  0  0
   -3.6990    2.8190    1.5280 C   0  0  0  0  0  0  0  0  0  0  0  0
   -2.8240    1.6010    1.8140 C   0  0  0  0  0  0  0  0  0  0  0  0
    0.2450   -0.3870    0.7680 C   0  0  0  0  0  0  0  0  0  0  0  0
    4.0010   -0.4690    0.9610 C   0  0  0  0  0  0  0  0  0  0  0  0
    4.6240   -1.5060    2.5030 Br  0  0  0  0  0  0  0  0  0  0  0  0
  1  2  2  0
  2  3  1  0
  2  4  1  0
  4  5  1  0
  5  6  1  0
  6  7  2  0
  6 34  1  0
  7  8  1  0
  7 11  1  0
  8  9  2  0
  8 10  1  0
 11 12  1  0
 12 13  1  0
 12 34  2  0
 13 14  2  0
 13 33  1  0
 14 15  1  0
 15 16  2  0
 16 17  1  0
 17 18  1  0
 17 33  2  0
 18 19  1  0
 27 18  1  1
 19 20  2  0
 19 21  1  0
 21 22  2  0
 21 26  1  0
 22 23  1  0
 23 24  2  0
 24 25  1  0
 25 26  2  0
 27 28  1  0
 27 32  1  0
 28 29  1  0
 29 30  1  0
 30 31  1  0
 31 32  1  0
 34 35  1  0
M  END
