
     RDKit          3D

 30 32  0  0  0  0  0  0  0  0999 V2000
    7.9410    2.8730   -1.4700 N   0  0  0  0  0  0  0  0  0  0  0  0
    6.7530    2.8130   -0.7020 C   0  0  0  0  0  0  0  0  0  0  0  0
    6.1720    3.8910   -0.3680 N   0  0  0  0  0  0  0  0  0  0  0  0
    6.2340    1.5120   -0.3180 C   0  0  0  0  0  0  0  0  0  0  0  0
    6.9120    0.3480   -0.7120 C   0  0  0  0  0  0  0  0  0  0  0  0
    6.4400   -0.8940   -0.3600 C   0  0  0  0  0  0  0  0  0  0  0  0
    5.2990   -1.0740    0.3850 C   0  0  0  0  0  0  0  0  0  0  0  0
    4.8730   -2.4550    0.7130 C   0  0  0  0  0  0  0  0  0  0  0  0
    3.6730   -2.4620    1.5210 N   0  0  0  0  0  0  0  0  0  0  0  0
    2.4040   -2.1990    0.9360 C   0  0  0  0  0  0  0  0  0  0  0  0
    2.3790   -1.9640   -0.2980 O   0  0  0  0  0  0  0  0  0  0  0  0
    1.1690   -2.2070    1.7730 C   0  0  2  0  0  0  0  0  0  0  0  0
    0.9060   -3.6240    2.2340 C   0  0  0  0  0  0  0  0  0  0  0  0
    0.0490   -4.2140    1.1380 C   0  0  0  0  0  0  0  0  0  0  0  0
   -0.2610   -3.0910    0.1870 C   0  0  0  0  0  0  0  0  0  0  0  0
    0.0030   -1.9180    0.9830 N   0  0  0  0  0  0  0  0  0  0  0  0
   -0.7190   -0.7000    1.0100 C   0  0  0  0  0  0  0  0  0  0  0  0
   -0.3330    0.2300    1.7830 O   0  0  0  0  0  0  0  0  0  0  0  0
   -1.9110   -0.4480    0.1790 C   0  0  0  0  0  0  0  0  0  0  0  0
   -2.4010    0.8660    0.4390 N   0  0  0  0  0  0  0  0  0  0  0  0
   -3.7570    1.1050    0.0600 C   0  0  1  0  0  0  0  0  0  0  0  0
   -3.8860    1.6700   -1.3540 C   0  0  0  0  0  0  0  0  0  0  0  0
   -4.6730    2.9230   -1.3360 C   0  0  0  0  0  0  0  0  0  0  0  0
   -6.1520    2.7640   -1.4380 C   0  0  0  0  0  0  0  0  0  0  0  0
   -6.6250    1.4890   -2.0210 C   0  0  0  0  0  0  0  0  0  0  0  0
   -6.7310    0.3280   -1.1190 C   0  0  0  0  0  0  0  0  0  0  0  0
   -6.0950    0.4330    0.2120 C   0  0  0  0  0  0  0  0  0  0  0  0
   -4.6570   -0.1040    0.2280 C   0  0  0  0  0  0  0  0  0  0  0  0
    4.6230    0.0480    0.7800 C   0  0  0  0  0  0  0  0  0  0  0  0
    5.0930    1.3200    0.4280 C   0  0  0  0  0  0  0  0  0  0  0  0
  1  2  1  0
  2  3  2  0
  2  4  1  0
  4  5  2  0
  4 30  1  0
  5  6  1  0
  6  7  2  0
  7  8  1  0
  7 29  1  0
  8  9  1  0
  9 10  1  0
 10 11  2  0
 12 10  1  6
 12 13  1  0
 12 16  1  0
 13 14  1  0
 14 15  1  0
 15 16  1  0
 16 17  1  0
 17 18  2  0
 17 19  1  0
 19 20  1  0
 21 20  1  6
 21 22  1  0
 21 28  1  0
 22 23  1  0
 23 24  1  0
 24 25  1  0
 25 26  1  0
 26 27  1  0
 27 28  1  0
 29 30  2  0
M  CHG  2   3   1  20   1
M  END
