
     RDKit          3D

 30 32  0  0  0  0  0  0  0  0999 V2000
   -1.2540   -0.3920    1.1950 C   0  0  0  0  0  0  0  0  0  0  0  0
   -1.1430   -0.6740   -0.2520 C   0  0  1  0  0  0  0  0  0  0  0  0
   -1.9760    0.2690   -1.0580 C   0  0  0  0  0  0  0  0  0  0  0  0
   -3.4720    0.2270   -0.7790 C   0  0  1  0  0  0  0  0  0  0  0  0
   -4.0120   -1.1400   -1.0030 C   0  0  0  0  0  0  0  0  0  0  0  0
   -3.9810    1.0710    0.2930 C   0  0  0  0  0  0  0  0  0  0  0  0
   -5.4790    0.9830    0.5030 C   0  0  1  0  0  0  0  0  0  0  0  0
   -5.7370    2.0040    1.6530 C   0  0  0  0  0  0  0  0  0  0  0  0
   -6.2800    1.4550   -0.6650 C   0  0  0  0  0  0  0  0  0  0  0  0
   -5.9440   -0.3280    1.0820 C   0  0  0  0  0  0  0  0  0  0  0  0
    0.2280   -0.9250   -0.7940 C   0  0  2  0  0  0  0  0  0  0  0  0
    0.0380   -1.2660   -2.2880 C   0  0  0  0  0  0  0  0  0  0  0  0
    0.6680   -2.2380   -0.1620 C   0  0  0  0  0  0  0  0  0  0  0  0
    1.8500   -2.1450    0.7210 C   0  0  0  0  0  0  0  0  0  0  0  0
    2.9830   -1.6290   -0.1970 C   0  0  2  0  0  0  0  0  0  0  0  0
    3.0320   -2.6970   -1.1740 O   0  0  0  0  0  0  0  0  0  0  0  0
    4.2250   -1.7930    0.5850 C   0  0  0  0  0  0  0  0  0  0  0  0
    5.0270   -0.5690    0.7150 C   0  0  0  0  0  0  0  0  0  0  0  0
    6.1520   -0.3540    1.3960 C   0  0  0  0  0  0  0  0  0  0  0  0
    6.5480    1.0330    1.1990 C   0  0  0  0  0  0  0  0  0  0  0  0
    7.7350    1.6310    1.7930 C   0  0  0  0  0  0  0  0  0  0  0  0
    8.5180    0.9750    2.5350 O   0  0  0  0  0  0  0  0  0  0  0  0
    8.0700    2.9590    1.5750 O   0  0  0  0  0  0  0  0  0  0  0  0
    5.6980    1.6550    0.4230 C   0  0  0  0  0  0  0  0  0  0  0  0
    4.6560    0.6430    0.0640 C   0  0  0  0  0  0  0  0  0  0  0  0
    3.5790    0.7290   -0.6700 C   0  0  0  0  0  0  0  0  0  0  0  0
    2.6680   -0.4010   -0.8820 C   0  0  2  0  0  0  0  0  0  0  0  0
    1.2270    0.1550   -0.7370 C   0  0  2  0  0  0  0  0  0  0  0  0
    1.2470    1.0560    0.4510 C   0  0  0  0  0  0  0  0  0  0  0  0
    1.1460    1.1410   -1.9240 C   0  0  0  0  0  0  0  0  0  0  0  0
  2  1  1  1
  2  3  1  0
  2 11  1  0
  3  4  1  0
  4  5  1  1
  4  6  1  0
  6  7  1  0
  7  8  1  1
  7  9  1  0
  7 10  1  0
 11 12  1  6
 11 13  1  0
 11 28  1  0
 13 14  1  0
 14 15  1  0
 15 16  1  6
 15 17  1  0
 15 27  1  0
 17 18  1  0
 18 19  2  0
 18 25  1  0
 19 20  1  0
 20 21  1  0
 20 24  2  0
 21 22  2  0
 21 23  1  0
 24 25  1  0
 25 26  2  0
 27 26  1  1
 27 28  1  0
 28 29  1  1
 28 30  1  0
M  END
