
     RDKit          3D

 30 31  0  0  0  0  0  0  0  0999 V2000
   -1.6160    4.0760   -2.0260 C   0  0  0  0  0  0  0  0  0  0  0  0
   -1.5460    2.7940   -2.3600 C   0  0  0  0  0  0  0  0  0  0  0  0
   -2.7450    2.0970   -2.8450 C   0  0  0  0  0  0  0  0  0  0  0  0
   -3.1080    0.9180   -1.9470 C   0  0  1  0  0  0  0  0  0  0  0  0
   -2.0110   -0.0800   -1.8870 C   0  0  0  0  0  0  0  0  0  0  0  0
   -1.6270   -0.3820   -0.5140 N   0  0  0  0  0  0  0  0  0  0  0  0
   -0.3090   -0.6530   -0.1580 C   0  0  0  0  0  0  0  0  0  0  0  0
    0.1100   -0.8230    0.9860 O   0  0  0  0  0  0  0  0  0  0  0  0
    0.7230   -0.7540   -1.2550 C   0  0  0  0  0  0  0  0  0  0  0  0
    2.0380   -1.0430   -0.7430 N   0  0  0  0  0  0  0  0  0  0  0  0
    2.4520   -2.4090   -0.5880 C   0  0  0  0  0  0  0  0  0  0  0  0
    3.1460   -2.9320   -1.8370 C   0  0  0  0  0  0  0  0  0  0  0  0
    2.9100    0.0050   -0.3900 C   0  0  0  0  0  0  0  0  0  0  0  0
    2.4920    1.1990   -0.5330 O   0  0  0  0  0  0  0  0  0  0  0  0
    4.2520   -0.1630    0.1250 C   0  0  0  0  0  0  0  0  0  0  0  0
    4.9820    0.8840    0.4240 C   0  0  0  0  0  0  0  0  0  0  0  0
    6.3590    0.7830    0.9540 C   0  0  0  0  0  0  0  0  0  0  0  0
    7.2980    1.4040    0.1360 O   0  0  0  0  0  0  0  0  0  0  0  0
    7.0630    2.7450   -0.0360 C   0  0  0  0  0  0  0  0  0  0  0  0
   -2.6310   -0.4330    0.5020 C   0  0  0  0  0  0  0  0  0  0  0  0
   -2.3430   -1.4370    1.2920 C   0  0  0  0  0  0  0  0  0  0  0  0
   -2.9310   -2.0300    2.4960 C   0  0  0  0  0  0  0  0  0  0  0  0
   -2.1500   -3.1700    2.9950 C   0  0  0  0  0  0  0  0  0  0  0  0
   -4.0060   -1.7210    3.1890 C   0  0  0  0  0  0  0  0  0  0  0  0
   -5.0770   -0.7030    3.1090 C   0  0  0  0  0  0  0  0  0  0  0  0
   -5.3760    0.2860    2.3030 C   0  0  0  0  0  0  0  0  0  0  0  0
   -6.5150    0.9540    2.6800 O   0  0  0  0  0  0  0  0  0  0  0  0
   -4.7740    0.8610    1.0740 C   0  0  0  0  0  0  0  0  0  0  0  0
   -3.6960    0.5760    0.3680 C   0  0  0  0  0  0  0  0  0  0  0  0
   -3.5820    1.4270   -0.7130 O   0  0  0  0  0  0  0  0  0  0  0  0
  1  2  2  0
  2  3  1  0
  4  3  1  6
  4  5  1  0
  4 30  1  0
  5  6  1  0
  6  7  1  0
  6 20  1  0
  7  8  2  0
  7  9  1  0
  9 10  1  0
 10 11  1  0
 10 13  1  0
 11 12  1  0
 13 14  2  0
 13 15  1  0
 15 16  2  3
 16 17  1  0
 17 18  1  0
 18 19  1  0
 20 21  2  0
 20 29  1  0
 21 22  1  0
 22 23  1  0
 22 24  2  0
 24 25  1  0
 25 26  2  0
 26 27  1  0
 26 28  1  0
 28 29  2  0
 29 30  1  0
M  END
