
     RDKit          3D

 30 32  0  0  0  0  0  0  0  0999 V2000
   -8.2930    0.4100   -1.1110 C   0  0  0  0  0  0  0  0  0  0  0  0
   -6.8820    0.8310   -0.7710 C   0  0  0  0  0  0  0  0  0  0  0  0
   -5.9280   -0.0680   -0.8310 C   0  0  0  0  0  0  0  0  0  0  0  0
   -6.0370   -1.4170   -1.1790 O   0  0  0  0  0  0  0  0  0  0  0  0
   -4.7720   -2.0010   -1.1660 C   0  0  0  0  0  0  0  0  0  0  0  0
   -3.8770   -1.0010   -0.7160 O   0  0  0  0  0  0  0  0  0  0  0  0
   -4.5070    0.2060   -0.5260 C   0  0  0  0  0  0  0  0  0  0  0  0
   -4.0300    1.3800   -0.1600 C   0  0  0  0  0  0  0  0  0  0  0  0
   -2.6780    1.7470    0.1570 C   0  0  0  0  0  0  0  0  0  0  0  0
   -2.3450    2.9470    0.5050 C   0  0  0  0  0  0  0  0  0  0  0  0
   -3.1790    4.0940    0.6450 C   0  0  0  0  0  0  0  0  0  0  0  0
   -4.4020    4.1370    0.4500 O   0  0  0  0  0  0  0  0  0  0  0  0
   -1.5670    0.7540    0.1010 C   0  0  0  0  0  0  0  0  0  0  0  0
   -1.5960   -0.4740   -0.2020 N   0  0  0  0  0  0  0  0  0  0  0  0
   -0.3270   -1.0710   -0.1340 C   0  0  0  0  0  0  0  0  0  0  0  0
   -0.0030   -2.2750   -0.3720 O   0  0  0  0  0  0  0  0  0  0  0  0
    0.5950   -0.0360    0.2720 C   0  0  0  0  0  0  0  0  0  0  0  0
    2.0330   -0.1280    0.4920 C   0  0  0  0  0  0  0  0  0  0  0  0
    2.7350   -1.2970    0.3260 C   0  0  0  0  0  0  0  0  0  0  0  0
    4.1010   -1.3500    0.5430 C   0  0  0  0  0  0  0  0  0  0  0  0
    4.8680   -2.6040    0.3680 C   0  0  0  0  0  0  0  0  0  0  0  0
    5.3830   -2.7490   -1.0530 C   0  0  0  0  0  0  0  0  0  0  0  0
    6.1620   -4.0240   -1.2290 C   0  0  0  0  0  0  0  0  0  0  0  0
    4.7730   -0.2270    0.9280 C   0  0  0  0  0  0  0  0  0  0  0  0
    4.1120    1.0070    1.1160 C   0  0  0  0  0  0  0  0  0  0  0  0
    4.8590    2.1230    1.5240 N   0  0  0  0  0  0  0  0  0  0  0  0
    4.4020    3.4300    1.5760 C   0  0  0  0  0  0  0  0  0  0  0  0
    3.2450    3.7530    1.2500 O   0  0  0  0  0  0  0  0  0  0  0  0
    2.7640    1.0000    0.8880 C   0  0  0  0  0  0  0  0  0  0  0  0
   -0.1640    1.0550    0.4100 C   0  0  0  0  0  0  0  0  0  0  0  0
  1  2  1  0
  2  3  2  3
  3  4  1  0
  3  7  1  0
  4  5  1  0
  5  6  1  0
  6  7  1  0
  7  8  2  3
  8  9  1  0
  9 10  2  3
  9 13  1  0
 10 11  1  0
 11 12  2  0
 13 14  2  0
 13 30  1  0
 14 15  1  0
 15 16  2  0
 15 17  1  0
 17 18  1  0
 17 30  2  0
 18 19  2  0
 18 29  1  0
 19 20  1  0
 20 21  1  0
 20 24  2  0
 21 22  1  0
 22 23  1  0
 24 25  1  0
 25 26  1  0
 25 29  2  0
 26 27  1  0
 27 28  2  0
M  END
