
     RDKit          3D

 30 31  0  0  0  0  0  0  0  0999 V2000
   -5.0350   -1.4070   -1.9700 C   0  0  0  0  0  0  0  0  0  0  0  0
   -5.9080   -0.5910   -1.4220 C   0  0  0  0  0  0  0  0  0  0  0  0
   -6.9750    0.1720   -2.0750 C   0  0  0  0  0  0  0  0  0  0  0  0
   -7.5850    0.8440   -1.1210 C   0  0  0  0  0  0  0  0  0  0  0  0
   -6.9770    0.5720    0.1710 C   0  0  0  0  0  0  0  0  0  0  0  0
   -5.9950   -0.2680   -0.0040 C   0  0  0  0  0  0  0  0  0  0  0  0
   -5.1260   -0.7910    1.0860 C   0  0  1  0  0  0  0  0  0  0  0  0
   -5.2200   -2.2970    1.1920 C   0  0  0  0  0  0  0  0  0  0  0  0
   -3.7970   -0.4600    0.7340 O   0  0  0  0  0  0  0  0  0  0  0  0
   -3.0290    0.3520    1.5450 C   0  0  0  0  0  0  0  0  0  0  0  0
   -3.5660    0.7780    2.6000 O   0  0  0  0  0  0  0  0  0  0  0  0
   -1.6330    0.6820    1.1480 C   0  0  0  0  0  0  0  0  0  0  0  0
   -1.0780    1.5930    2.2530 C   0  0  0  0  0  0  0  0  0  0  0  0
    0.3130    1.9070    1.8360 C   0  0  0  0  0  0  0  0  0  0  0  0
    0.6700    3.1400    1.6300 C   0  0  0  0  0  0  0  0  0  0  0  0
    2.0310    3.6140    1.2060 C   0  0  0  0  0  0  0  0  0  0  0  0
    2.7350    2.3450    0.8130 N   0  0  0  0  0  0  0  0  0  0  0  0
    3.3910    2.2460   -0.3800 C   0  0  0  0  0  0  0  0  0  0  0  0
    3.4630    3.3940   -1.0390 O   0  0  0  0  0  0  0  0  0  0  0  0
    3.9990    1.1390   -1.0280 C   0  0  0  0  0  0  0  0  0  0  0  0
    4.0600   -0.1060   -0.6890 C   0  0  0  0  0  0  0  0  0  0  0  0
    4.7330   -1.1170   -1.4720 C   0  0  0  0  0  0  0  0  0  0  0  0
    4.7220   -2.3700   -1.0050 C   0  0  0  0  0  0  0  0  0  0  0  0
    5.3510   -3.4350   -1.6970 N   0  0  0  0  0  0  0  0  0  0  0  0
    6.6970   -3.8180   -1.3060 C   0  0  0  0  0  0  0  0  0  0  0  0
    5.4080   -0.8890   -2.7050 C   0  0  0  0  0  0  0  0  0  0  0  0
    5.5600    0.1750   -3.3450 O   0  0  0  0  0  0  0  0  0  0  0  0
    6.0290   -1.9990   -3.3650 O   0  0  0  0  0  0  0  0  0  0  0  0
    2.6420    1.3510    1.8440 C   0  0  0  0  0  0  0  0  0  0  0  0
    1.2440    0.7420    1.6770 C   0  0  0  0  0  0  0  0  0  0  0  0
  1  2  2  0
  2  3  1  0
  2  6  1  0
  3  4  2  0
  4  5  1  0
  5  6  2  0
  6  7  1  0
  7  8  1  6
  7  9  1  0
  9 10  1  0
 10 11  2  0
 10 12  1  0
 12 13  1  0
 13 14  1  0
 14 15  2  0
 14 30  1  0
 15 16  1  0
 16 17  1  0
 17 18  1  0
 17 29  1  0
 18 19  2  0
 18 20  1  0
 20 21  2  3
 21 22  1  0
 22 23  2  3
 22 26  1  0
 23 24  1  0
 24 25  1  0
 26 27  2  0
 26 28  1  0
 29 30  1  0
M  END
