
     RDKit          3D

 31 33  0  0  0  0  0  0  0  0999 V2000
   -5.7210   -0.2160    2.2790 C   0  0  0  0  0  0  0  0  0  0  0  0
   -4.3160   -0.0650    1.8260 C   0  0  0  0  0  0  0  0  0  0  0  0
   -3.6030   -1.0320    1.2740 C   0  0  0  0  0  0  0  0  0  0  0  0
   -2.2180   -0.6430    0.9060 C   0  0  0  0  0  0  0  0  0  0  0  0
   -1.4830   -1.5030    0.3860 O   0  0  0  0  0  0  0  0  0  0  0  0
   -1.6540    0.6360    1.0960 N   0  0  0  0  0  0  0  0  0  0  0  0
   -0.3400    1.0550    0.7600 C   0  0  0  0  0  0  0  0  0  0  0  0
    0.6380    0.3900    0.2160 C   0  0  0  0  0  0  0  0  0  0  0  0
    0.7440   -0.9080   -0.2120 O   0  0  0  0  0  0  0  0  0  0  0  0
    1.9750   -1.1500   -0.9180 C   0  0  0  0  0  0  0  0  0  0  0  0
    2.4330    0.2510   -1.2780 C   0  0  2  0  0  0  0  0  0  0  0  0
    3.8270    0.4570   -1.5470 C   0  0  0  0  0  0  0  0  0  0  0  0
    4.5210   -0.3660   -2.2430 O   0  0  0  0  0  0  0  0  0  0  0  0
    4.5490    1.5980   -1.0570 N   0  0  0  0  0  0  0  0  0  0  0  0
    5.8670    1.9290   -1.5710 C   0  0  1  0  0  0  0  0  0  0  0  0
    5.8980    3.2910   -2.1480 C   0  0  0  0  0  0  0  0  0  0  0  0
    6.7760    3.9970   -1.5370 N   0  0  0  0  0  0  0  0  0  0  0  0
    7.4280    3.2870   -0.5290 N   0  0  0  0  0  0  0  0  0  0  0  0
    6.8870    1.9780   -0.5140 C   0  0  0  0  0  0  0  0  0  0  0  0
    7.2330    1.0610    0.2630 O   0  0  0  0  0  0  0  0  0  0  0  0
    3.9490    2.3980   -0.0610 C   0  0  0  0  0  0  0  0  0  0  0  0
    4.5490    3.4020    0.4060 O   0  0  0  0  0  0  0  0  0  0  0  0
    2.6160    2.0240    0.4070 C   0  0  0  0  0  0  0  0  0  0  0  0
    1.9730    1.0170   -0.0650 C   0  0  0  0  0  0  0  0  0  0  0  0
   -4.1710   -2.3220    1.0480 C   0  0  0  0  0  0  0  0  0  0  0  0
   -3.6210   -3.3730    0.5480 C   0  0  0  0  0  0  0  0  0  0  0  0
   -2.3390   -3.5290    0.0970 O   0  0  0  0  0  0  0  0  0  0  0  0
   -5.5430   -2.4980    1.4150 O   0  0  0  0  0  0  0  0  0  0  0  0
   -6.6500   -3.0210    0.1850 P   0  0  0  0  0  0  0  0  0  0  0  0
   -6.1840   -4.4570   -0.6160 O   0  0  0  0  0  0  0  0  0  0  0  0
   -7.0000   -1.7140   -0.8970 O   0  0  0  0  0  0  0  0  0  0  0  0
  1  2  1  0
  2  3  2  3
  3  4  1  0
  3 25  1  0
  4  5  2  0
  4  6  1  0
  6  7  1  0
  7  8  2  3
  8  9  1  0
  8 24  1  0
  9 10  1  0
 11 10  1  1
 11 12  1  0
 11 24  1  0
 12 13  2  0
 12 14  1  0
 15 14  1  1
 14 21  1  0
 15 16  1  0
 15 19  1  0
 16 17  2  0
 17 18  1  0
 18 19  1  0
 19 20  2  0
 21 22  2  0
 21 23  1  0
 23 24  2  0
 25 26  2  3
 25 28  1  0
 26 27  1  0
 28 29  1  0
 29 30  1  0
 29 31  1  0
M  END
