
     RDKit          3D

 31 33  0  0  0  0  0  0  0  0999 V2000
   -0.4210    1.4250   -0.7260 O   0  0  0  0  0  0  0  0  0  0  0  0
   -1.6190    1.2020   -0.4250 C   0  0  0  0  0  0  0  0  0  0  0  0
   -2.6220    1.9870   -1.0300 N   0  0  0  0  0  0  0  0  0  0  0  0
   -2.3550    3.0360   -1.9760 C   0  0  0  0  0  0  0  0  0  0  0  0
   -1.5080    4.1050   -1.3470 C   0  0  0  0  0  0  0  0  0  0  0  0
   -1.2560    5.1290   -2.2820 O   0  0  0  0  0  0  0  0  0  0  0  0
   -1.9500    0.1410    0.5400 C   0  0  0  0  0  0  0  0  0  0  0  0
   -1.0110   -0.5830    1.0970 C   0  0  0  0  0  0  0  0  0  0  0  0
    0.3470   -0.3520    0.7760 N   0  0  0  0  0  0  0  0  0  0  0  0
    0.8850   -0.9370   -0.2340 C   0  0  0  0  0  0  0  0  0  0  0  0
    0.2700   -1.7870   -1.0630 N   0  0  0  0  0  0  0  0  0  0  0  0
    0.8840   -2.3730   -2.1020 C   0  0  0  0  0  0  0  0  0  0  0  0
    2.1750   -2.1310   -2.3700 N   0  0  0  0  0  0  0  0  0  0  0  0
    2.8540   -1.2920   -1.5850 C   0  0  0  0  0  0  0  0  0  0  0  0
    2.2390   -0.6770   -0.5050 C   0  0  0  0  0  0  0  0  0  0  0  0
    2.9160    0.2710    0.3300 C   0  0  0  0  0  0  0  0  0  0  0  0
    2.3300    1.3560    0.6550 O   0  0  0  0  0  0  0  0  0  0  0  0
    4.2680    0.0960    0.8630 C   0  0  0  0  0  0  0  0  0  0  0  0
    4.9800   -0.9810    0.6800 C   0  0  0  0  0  0  0  0  0  0  0  0
    6.3430   -1.2040    1.1900 C   0  0  0  0  0  0  0  0  0  0  0  0
    6.8170   -0.1290    1.9150 O   0  0  0  0  0  0  0  0  0  0  0  0
    6.0830    1.0200    2.1220 C   0  0  0  0  0  0  0  0  0  0  0  0
    4.8710    1.1950    1.6540 C   0  0  0  0  0  0  0  0  0  0  0  0
   -1.3950   -1.5590    1.9920 O   0  0  0  0  0  0  0  0  0  0  0  0
   -2.7020   -2.0380    2.1530 C   0  0  0  0  0  0  0  0  0  0  0  0
   -3.7500   -1.2970    1.4090 C   0  0  1  0  0  0  0  0  0  0  0  0
   -4.8690   -0.9710    2.1560 O   0  0  0  0  0  0  0  0  0  0  0  0
   -6.3450   -1.5130    1.5570 P   0  0  0  0  0  0  0  0  0  0  0  0
   -7.0600   -0.4600    0.3830 O   0  0  0  0  0  0  0  0  0  0  0  0
   -6.4260   -3.1560    1.1200 O   0  0  0  0  0  0  0  0  0  0  0  0
   -3.2900   -0.0680    0.8410 O   0  0  0  0  0  0  0  0  0  0  0  0
  1  2  2  0
  2  3  1  0
  2  7  1  0
  3  4  1  0
  4  5  1  0
  5  6  1  0
  7  8  2  0
  7 31  1  0
  8  9  1  0
  8 24  1  0
  9 10  2  3
 10 11  1  0
 10 15  1  0
 11 12  2  0
 12 13  1  0
 13 14  1  0
 14 15  2  0
 15 16  1  0
 16 17  2  0
 16 18  1  0
 18 19  2  0
 18 23  1  0
 19 20  1  0
 20 21  1  0
 21 22  1  0
 22 23  2  0
 24 25  1  0
 25 26  1  0
 26 27  1  1
 26 31  1  0
 27 28  1  0
 28 29  1  0
 28 30  1  0
M  END
