
     RDKit          3D

 30 32  0  0  0  0  0  0  0  0999 V2000
   -4.2880    2.4150    0.1250 O   0  0  0  0  0  0  0  0  0  0  0  0
   -4.3900    1.2190    0.4230 C   0  0  0  0  0  0  0  0  0  0  0  0
   -3.9430    0.7290    1.7090 N   0  0  0  0  0  0  0  0  0  0  0  0
   -3.6530   -0.6860    1.7100 C   0  0  0  0  0  0  0  0  0  0  0  0
   -3.8560   -1.3040    2.7730 O   0  0  0  0  0  0  0  0  0  0  0  0
   -3.1350   -1.3030    0.4510 C   0  0  2  0  0  0  0  0  0  0  0  0
   -1.7070   -0.9470    0.2320 C   0  0  0  0  0  0  0  0  0  0  0  0
   -1.4940   -0.1220   -0.7030 O   0  0  0  0  0  0  0  0  0  0  0  0
   -0.6240   -1.4570    0.9810 N   0  0  0  0  0  0  0  0  0  0  0  0
   -0.7860   -2.4320    2.0360 C   0  0  0  0  0  0  0  0  0  0  0  0
    0.1940   -3.5740    1.7700 C   0  0  0  0  0  0  0  0  0  0  0  0
    1.4830   -3.1380    1.6400 O   0  0  0  0  0  0  0  0  0  0  0  0
    1.5750   -1.7660    1.8570 C   0  0  0  0  0  0  0  0  0  0  0  0
    0.7740   -1.0150    0.7640 C   0  0  1  0  0  0  0  0  0  0  0  0
    1.3220   -1.4900   -0.5240 C   0  0  0  0  0  0  0  0  0  0  0  0
    0.7220   -1.0320   -1.6680 O   0  0  0  0  0  0  0  0  0  0  0  0
    0.9150    0.4180    1.1030 C   0  0  0  0  0  0  0  0  0  0  0  0
    2.1530    1.0640    0.9550 N   0  0  0  0  0  0  0  0  0  0  0  0
    2.6690    1.3970   -0.3050 C   0  0  0  0  0  0  0  0  0  0  0  0
    4.0250    2.0980   -0.0460 C   0  0  0  0  0  0  0  0  0  0  0  0
    4.6400    2.4870   -1.3900 C   0  0  0  0  0  0  0  0  0  0  0  0
    6.2570    3.3290   -1.1650 P   0  0  0  0  0  0  0  0  0  0  0  0
    7.5040    2.7070   -2.1660 O   0  0  0  0  0  0  0  0  0  0  0  0
    6.7780    3.2050    0.4980 O   0  0  0  0  0  0  0  0  0  0  0  0
   -3.9410   -0.8370   -0.6750 N   0  0  0  0  0  0  0  0  0  0  0  0
   -3.9400   -1.1710   -2.0430 C   0  0  0  0  0  0  0  0  0  0  0  0
   -3.4980   -2.2380   -2.5950 O   0  0  0  0  0  0  0  0  0  0  0  0
   -4.5550   -0.0530   -2.8050 C   0  0  0  0  0  0  0  0  0  0  0  0
   -5.3670    0.6870   -1.7950 C   0  0  0  0  0  0  0  0  0  0  0  0
   -4.9590    0.1500   -0.4490 C   0  0  2  0  0  0  0  0  0  0  0  0
  1  2  2  0
  2  3  1  0
  2 30  1  0
  3  4  1  0
  4  5  2  0
  4  6  1  0
  6  7  1  6
  6 25  1  0
  7  8  2  0
  7  9  1  0
  9 10  1  0
  9 14  1  0
 10 11  1  0
 11 12  1  0
 12 13  1  0
 13 14  1  0
 14 15  1  6
 14 17  1  0
 15 16  1  0
 17 18  1  0
 18 19  1  0
 19 20  1  0
 20 21  1  0
 21 22  1  0
 22 23  1  0
 22 24  1  0
 25 26  1  0
 25 30  1  0
 26 27  2  0
 26 28  1  0
 28 29  1  0
 30 29  1  6
M  END
