
     RDKit          3D

 30 32  0  0  0  0  0  0  0  0999 V2000
    0.9170   -4.6270   -0.6910 C   0  0  0  0  0  0  0  0  0  0  0  0
    0.4930   -3.4190   -0.0910 O   0  0  0  0  0  0  0  0  0  0  0  0
    0.0900   -2.3220   -0.8920 C   0  0  0  0  0  0  0  0  0  0  0  0
    0.1430   -2.5170   -2.1260 O   0  0  0  0  0  0  0  0  0  0  0  0
   -0.3510   -1.0680   -0.2950 C   0  0  2  0  0  0  0  0  0  0  0  0
    0.7990   -0.4560    0.4520 C   0  0  0  0  0  0  0  0  0  0  0  0
    2.0610   -0.3530    0.0020 N   0  0  0  0  0  0  0  0  0  0  0  0
    2.7820    0.2470    0.9570 C   0  0  0  0  0  0  0  0  0  0  0  0
    4.2060    0.5820    0.9370 C   0  0  0  0  0  0  0  0  0  0  0  0
    4.7990    1.2060    2.0130 C   0  0  0  0  0  0  0  0  0  0  0  0
    6.1390    1.5270    2.0080 C   0  0  0  0  0  0  0  0  0  0  0  0
    6.9110    1.2240    0.9140 C   0  0  0  0  0  0  0  0  0  0  0  0
    8.2810    1.5330    0.8670 O   0  0  0  0  0  0  0  0  0  0  0  0
    6.3020    0.5980   -0.1550 C   0  0  0  0  0  0  0  0  0  0  0  0
    4.9770    0.2940   -0.1200 N   0  0  0  0  0  0  0  0  0  0  0  0
    1.9480    0.5040    1.9790 N   0  0  0  0  0  0  0  0  0  0  0  0
    0.7670    0.0660    1.6360 O   0  0  0  0  0  0  0  0  0  0  0  0
   -1.4900   -1.3500    0.7090 C   0  0  0  0  0  0  0  0  0  0  0  0
   -2.1970   -0.1150    0.8000 N   0  0  0  0  0  0  0  0  0  0  0  0
   -3.4500   -0.0880    1.3850 C   0  0  0  0  0  0  0  0  0  0  0  0
   -4.1830    1.2150    1.4380 C   0  0  1  0  0  0  0  0  0  0  0  0
   -3.4210    2.1480    2.1070 O   0  0  0  0  0  0  0  0  0  0  0  0
   -4.8800    1.7870   -0.1570 P   0  0  0  0  0  0  0  0  0  0  0  0
   -6.4080    1.0080   -0.4160 O   0  0  0  0  0  0  0  0  0  0  0  0
   -5.1190    3.4860   -0.2190 O   0  0  0  0  0  0  0  0  0  0  0  0
   -1.7150    0.8000   -0.1270 C   0  0  0  0  0  0  0  0  0  0  0  0
   -1.0080   -0.0830   -1.1870 C   0  0  1  0  0  0  0  0  0  0  0  0
   -0.0560    0.8270   -1.9200 C   0  0  0  0  0  0  0  0  0  0  0  0
   -2.0050   -0.6090   -2.1580 C   0  0  0  0  0  0  0  0  0  0  0  0
   -3.0600   -1.2580   -1.4980 O   0  0  0  0  0  0  0  0  0  0  0  0
  1  2  1  0
  2  3  1  0
  3  4  2  0
  5  3  1  6
  5  6  1  0
  5 18  1  0
  5 27  1  0
  6  7  2  0
  6 17  1  0
  7  8  1  0
  8  9  1  0
  8 16  2  0
  9 10  2  0
  9 15  1  0
 10 11  1  0
 11 12  2  0
 12 13  1  0
 12 14  1  0
 14 15  2  0
 16 17  1  0
 18 19  1  0
 19 20  1  0
 19 26  1  0
 20 21  1  0
 21 22  1  6
 21 23  1  0
 23 24  1  0
 23 25  1  0
 26 27  1  0
 27 28  1  6
 27 29  1  0
 29 30  1  0
M  END
