
     RDKit          3D

 31 33  0  0  0  0  0  0  0  0999 V2000
   -3.8130   -4.9470    4.8920 O   0  0  0  0  0  0  0  0  0  0  0  0
   -3.9860   -3.9650    4.1430 C   0  0  0  0  0  0  0  0  0  0  0  0
   -3.0600   -3.6170    3.0810 C   0  0  0  0  0  0  0  0  0  0  0  0
   -3.2470   -2.5640    2.2790 C   0  0  0  0  0  0  0  0  0  0  0  0
   -2.2920   -2.2790    1.2500 C   0  0  0  0  0  0  0  0  0  0  0  0
   -2.2900   -1.3100    0.3860 C   0  0  0  0  0  0  0  0  0  0  0  0
   -3.1980   -0.2040    0.1480 C   0  0  0  0  0  0  0  0  0  0  0  0
   -3.9260    0.4460    1.0280 C   0  0  0  0  0  0  0  0  0  0  0  0
   -4.8120    1.5400    0.6960 C   0  0  0  0  0  0  0  0  0  0  0  0
   -5.0250    2.0350   -0.4520 N   0  0  0  0  0  0  0  0  0  0  0  0
   -5.9390    3.0770   -0.3940 O   0  0  0  0  0  0  0  0  0  0  0  0
   -6.0340    3.4110    0.9710 C   0  0  0  0  0  0  0  0  0  0  0  0
   -5.5870    2.2400    1.6030 O   0  0  0  0  0  0  0  0  0  0  0  0
   -3.1020    0.0950   -1.2610 N   0  0  0  0  0  0  0  0  0  0  0  0
   -2.1590   -0.8000   -1.8520 C   0  0  0  0  0  0  0  0  0  0  0  0
   -2.0450   -1.2140   -3.0120 O   0  0  0  0  0  0  0  0  0  0  0  0
   -1.2720   -1.1640   -0.7090 C   0  0  1  0  0  0  0  0  0  0  0  0
   -0.2870   -0.0800   -0.4790 C   0  0  0  0  0  0  0  0  0  0  0  0
    0.8210   -0.4600   -1.3330 N   0  0  0  0  0  0  0  0  0  0  0  0
    1.8590    0.4160   -1.7760 C   0  0  0  0  0  0  0  0  0  0  0  0
    2.9720    0.3760   -0.7810 C   0  0  0  0  0  0  0  0  0  0  0  0
    2.8760   -0.3550    0.2320 O   0  0  0  0  0  0  0  0  0  0  0  0
    4.1540    1.1420   -0.9370 N   0  0  0  0  0  0  0  0  0  0  0  0
    5.1810    1.0450    0.0710 C   0  0  0  0  0  0  0  0  0  0  0  0
    6.3220    1.9540   -0.3330 C   0  0  0  0  0  0  0  0  0  0  0  0
    6.9880    1.4050   -1.9940 P   0  0  0  0  0  0  0  0  0  0  0  0
    7.0770   -0.3270   -2.0370 O   0  0  0  0  0  0  0  0  0  0  0  0
    8.5640    2.0720   -2.1630 O   0  0  0  0  0  0  0  0  0  0  0  0
    0.6410   -1.8430   -1.6140 C   0  0  0  0  0  0  0  0  0  0  0  0
    1.4080   -2.5260   -2.3490 O   0  0  0  0  0  0  0  0  0  0  0  0
   -0.5130   -2.2960   -0.9430 O   0  0  0  0  0  0  0  0  0  0  0  0
  1  2  2  0
  2  3  1  0
  3  4  2  3
  4  5  1  0
  5  6  2  3
  6  7  1  0
  6 17  1  0
  7  8  2  3
  7 14  1  0
  8  9  1  0
  9 10  2  0
  9 13  1  0
 10 11  1  0
 11 12  1  0
 12 13  1  0
 14 15  1  0
 15 16  2  0
 15 17  1  0
 17 18  1  1
 17 31  1  0
 18 19  1  0
 19 20  1  0
 19 29  1  0
 20 21  1  0
 21 22  2  0
 21 23  1  0
 23 24  1  0
 24 25  1  0
 25 26  1  0
 26 27  1  0
 26 28  1  0
 29 30  2  0
 29 31  1  0
M  END
