
     RDKit          3D

 31 33  0  0  0  0  0  0  0  0999 V2000
   -4.5070    3.4220    0.4510 C   0  0  0  0  0  0  0  0  0  0  0  0
   -4.3020    2.6730   -0.8520 C   0  0  1  0  0  0  0  0  0  0  0  0
   -3.0190    1.9120   -0.6770 C   0  0  0  0  0  0  0  0  0  0  0  0
   -1.8860    2.3970   -0.7650 O   0  0  0  0  0  0  0  0  0  0  0  0
   -3.4130    0.5490   -0.4090 N   0  0  0  0  0  0  0  0  0  0  0  0
   -2.9010   -0.7720   -0.1170 C   0  0  0  0  0  0  0  0  0  0  0  0
   -1.5350   -1.1460    0.0930 C   0  0  0  0  0  0  0  0  0  0  0  0
   -1.0780   -2.3510    0.0200 O   0  0  0  0  0  0  0  0  0  0  0  0
   -0.4870   -0.2300    0.4680 N   0  0  0  0  0  0  0  0  0  0  0  0
    0.8350   -0.5970    0.6950 C   0  0  0  0  0  0  0  0  0  0  0  0
    1.7930   -0.9740   -0.3730 C   0  0  0  0  0  0  0  0  0  0  0  0
    3.0230   -1.3390    0.2610 O   0  0  0  0  0  0  0  0  0  0  0  0
    4.2130   -0.0830   -0.0070 P   0  0  0  0  0  0  0  0  0  0  0  0
    4.1850    0.8960    1.4910 O   0  0  0  0  0  0  0  0  0  0  0  0
    5.9280   -0.7130   -0.1440 C   0  0  1  0  0  0  0  0  0  0  0  0
    6.5240   -0.2420   -1.4160 C   0  0  0  0  0  0  0  0  0  0  0  0
    7.3430    1.0190   -1.3470 C   0  0  0  0  0  0  0  0  0  0  0  0
    7.2050    1.6170    0.0230 C   0  0  0  0  0  0  0  0  0  0  0  0
    7.6290    0.6500    0.9060 O   0  0  0  0  0  0  0  0  0  0  0  0
    6.6920   -0.3290    1.0850 C   0  0  0  0  0  0  0  0  0  0  0  0
   -3.9920   -1.6010   -0.1600 C   0  0  0  0  0  0  0  0  0  0  0  0
   -3.9150   -3.0280    0.0900 C   0  0  0  0  0  0  0  0  0  0  0  0
   -4.9800   -3.9490    0.0340 N   0  0  0  0  0  0  0  0  0  0  0  0
   -2.7970   -3.5960    0.4020 O   0  0  0  0  0  0  0  0  0  0  0  0
   -5.1710   -0.9070   -0.4350 N   0  0  0  0  0  0  0  0  0  0  0  0
   -6.5280   -1.3160   -0.4100 C   0  0  0  0  0  0  0  0  0  0  0  0
   -7.4460   -0.4690   -0.7870 O   0  0  0  0  0  0  0  0  0  0  0  0
   -7.0620   -2.5190   -0.0260 O   0  0  0  0  0  0  0  0  0  0  0  0
   -4.8250    0.4870   -0.6000 C   0  0  0  0  0  0  0  0  0  0  0  0
   -5.3320    1.6590   -0.9440 C   0  0  0  0  0  0  0  0  0  0  0  0
   -6.6370    1.9000   -1.3470 O   0  0  0  0  0  0  0  0  0  0  0  0
  2  1  1  1
  2  3  1  0
  2 30  1  0
  3  4  2  0
  3  5  1  0
  5  6  1  0
  5 29  1  0
  6  7  1  0
  6 21  2  0
  7  8  2  0
  7  9  1  0
  9 10  1  0
 10 11  1  0
 11 12  1  0
 12 13  1  0
 13 14  1  0
 15 13  1  1
 15 16  1  0
 15 20  1  0
 16 17  1  0
 17 18  1  0
 18 19  1  0
 19 20  1  0
 21 22  1  0
 21 25  1  0
 22 23  1  0
 22 24  2  0
 25 26  1  0
 25 29  1  0
 26 27  2  0
 26 28  1  0
 29 30  2  0
 30 31  1  0
M  END
