
     RDKit          3D

 31 32  0  0  0  0  0  0  0  0999 V2000
    5.7600   -1.1780   -3.7430 C   0  0  0  0  0  0  0  0  0  0  0  0
    5.9270   -0.0840   -2.8420 C   0  0  0  0  0  0  0  0  0  0  0  0
    5.1270    0.3330   -1.8540 C   0  0  0  0  0  0  0  0  0  0  0  0
    5.5820    1.5010   -1.0980 C   0  0  0  0  0  0  0  0  0  0  0  0
    5.1170    2.1630   -0.1330 C   0  0  0  0  0  0  0  0  0  0  0  0
    3.9910    2.0950    0.6400 O   0  0  0  0  0  0  0  0  0  0  0  0
    3.8900    2.3680    2.3500 P   0  0  0  0  0  0  0  0  0  0  0  0
    5.4280    2.7260    3.0560 O   0  0  0  0  0  0  0  0  0  0  0  0
    3.1090    1.0610    3.1820 O   0  0  0  0  0  0  0  0  0  0  0  0
    3.8890   -0.2230   -1.4390 C   0  0  0  0  0  0  0  0  0  0  0  0
    3.2240    0.2750   -0.4790 O   0  0  0  0  0  0  0  0  0  0  0  0
    3.2550   -1.2960   -1.9520 N   0  0  0  0  0  0  0  0  0  0  0  0
    2.0930   -1.9000   -1.5960 C   0  0  0  0  0  0  0  0  0  0  0  0
    2.1910   -2.9080   -2.5630 O   0  0  0  0  0  0  0  0  0  0  0  0
    0.9470   -2.3350   -1.1010 N   0  0  0  0  0  0  0  0  0  0  0  0
    0.1010   -1.8290   -0.1490 C   0  0  0  0  0  0  0  0  0  0  0  0
    0.5200   -0.8440    0.4450 O   0  0  0  0  0  0  0  0  0  0  0  0
   -1.1580   -2.5240    0.0000 C   0  0  0  0  0  0  0  0  0  0  0  0
   -1.4420   -3.5950   -0.5880 O   0  0  0  0  0  0  0  0  0  0  0  0
   -2.1170   -2.0120    0.8120 O   0  0  0  0  0  0  0  0  0  0  0  0
   -3.3620   -2.5940    1.0070 C   0  0  0  0  0  0  0  0  0  0  0  0
   -4.2030   -1.7500    1.9360 C   0  0  0  0  0  0  0  0  0  0  0  0
   -4.4100   -0.4060    1.4060 N   0  0  0  0  0  0  0  0  0  0  0  0
   -3.4890    0.6500    1.7250 C   0  0  0  0  0  0  0  0  0  0  0  0
   -4.1420    2.0120    1.7710 C   0  0  1  0  0  0  0  0  0  0  0  0
   -3.8450    2.7290    0.4590 C   0  0  0  0  0  0  0  0  0  0  0  0
   -4.7570    1.9760   -0.4910 C   0  0  0  0  0  0  0  0  0  0  0  0
   -5.8210    1.3650    0.4140 C   0  0  2  0  0  0  0  0  0  0  0  0
   -5.5830    1.9560    1.7410 N   0  0  0  0  0  0  0  0  0  0  0  0
   -5.5120   -0.0790    0.5650 C   0  0  0  0  0  0  0  0  0  0  0  0
   -6.1550   -1.0000    0.0030 O   0  0  0  0  0  0  0  0  0  0  0  0
  1  2  1  0
  2  3  2  3
  3  4  1  0
  3 10  1  0
  4  5  2  3
  5  6  1  0
  6  7  1  0
  7  8  1  0
  7  9  1  0
 10 11  2  0
 10 12  1  0
 12 13  1  0
 13 14  2  0
 13 15  1  0
 15 16  1  0
 16 17  2  0
 16 18  1  0
 18 19  2  0
 18 20  1  0
 20 21  1  0
 21 22  1  0
 22 23  1  0
 23 24  1  0
 23 30  1  0
 25 24  1  6
 25 26  1  0
 25 29  1  0
 26 27  1  0
 28 27  1  6
 28 29  1  0
 28 30  1  0
 30 31  2  0
M  END
