
     RDKit          3D

 30 32  0  0  0  0  0  0  0  0999 V2000
    1.4800   -5.1970   -1.2820 O   0  0  0  0  0  0  0  0  0  0  0  0
    0.5380   -5.4160   -0.4460 C   0  0  0  0  0  0  0  0  0  0  0  0
    0.9520   -5.7180    0.8530 O   0  0  0  0  0  0  0  0  0  0  0  0
   -0.7590   -5.3470   -0.8490 N   0  0  0  0  0  0  0  0  0  0  0  0
   -1.6880   -4.5400   -0.9170 C   0  0  0  0  0  0  0  0  0  0  0  0
   -2.9360   -4.9660   -1.4490 O   0  0  0  0  0  0  0  0  0  0  0  0
   -4.1730   -4.5170   -0.9560 C   0  0  0  0  0  0  0  0  0  0  0  0
   -4.1420   -3.1050   -0.4210 C   0  0  0  0  0  0  0  0  0  0  0  0
   -2.8920   -2.4460   -0.7020 N   0  0  0  0  0  0  0  0  0  0  0  0
   -1.6460   -3.1460   -0.4980 C   0  0  0  0  0  0  0  0  0  0  0  0
   -0.5860   -2.5890    0.0020 C   0  0  0  0  0  0  0  0  0  0  0  0
   -0.4580   -1.2000    0.4490 C   0  0  0  0  0  0  0  0  0  0  0  0
   -1.4770   -0.4390    0.3570 N   0  0  0  0  0  0  0  0  0  0  0  0
   -1.6090    0.8560    0.6950 O   0  0  0  0  0  0  0  0  0  0  0  0
   -2.5350    1.7430    0.0780 C   0  0  0  0  0  0  0  0  0  0  0  0
   -2.3800    3.0920    0.7370 C   0  0  2  0  0  0  0  0  0  0  0  0
   -3.2670    4.2120    0.2480 C   0  0  0  0  0  0  0  0  0  0  0  0
   -1.7940    4.2480    0.0270 C   0  0  0  0  0  0  0  0  0  0  0  0
    0.8490   -0.7210    0.9940 C   0  0  1  0  0  0  0  0  0  0  0  0
    1.8580   -0.9020   -0.1120 C   0  0  0  0  0  0  0  0  0  0  0  0
    1.9420    0.2430   -0.8610 O   0  0  0  0  0  0  0  0  0  0  0  0
    3.1560    0.8630   -0.5950 C   0  0  0  0  0  0  0  0  0  0  0  0
    2.9390    1.8840    0.4920 C   0  0  1  0  0  0  0  0  0  0  0  0
    3.0730    3.2520   -0.1440 C   0  0  0  0  0  0  0  0  0  0  0  0
    4.7140    3.5400   -0.9030 P   0  0  0  0  0  0  0  0  0  0  0  0
    5.9640    2.5310   -0.3140 O   0  0  0  0  0  0  0  0  0  0  0  0
    5.2310    5.1880   -0.7720 O   0  0  0  0  0  0  0  0  0  0  0  0
    1.5660    1.7360    1.0180 C   0  0  0  0  0  0  0  0  0  0  0  0
    0.9170    2.8330    1.0890 O   0  0  0  0  0  0  0  0  0  0  0  0
    0.7980    0.6340    1.4680 N   0  0  0  0  0  0  0  0  0  0  0  0
  1  2  2  0
  2  3  1  0
  2  4  1  0
  4  5  2  3
  5  6  1  0
  5 10  1  0
  6  7  1  0
  7  8  1  0
  8  9  1  0
  9 10  1  0
 10 11  2  3
 11 12  1  0
 12 13  2  3
 19 12  1  6
 13 14  1  0
 14 15  1  0
 16 15  1  6
 16 17  1  0
 16 18  1  0
 17 18  1  0
 19 20  1  0
 19 30  1  0
 20 21  1  0
 21 22  1  0
 22 23  1  0
 23 24  1  6
 23 28  1  0
 24 25  1  0
 25 26  1  0
 25 27  1  0
 28 29  2  0
 28 30  1  0
M  END
