
     RDKit          3D

 26 28  0  0  0  0  0  0  0  0999 V2000
   -6.8900    1.0700    0.6610 C   0  0  0  0  0  0  0  0  0  0  0  0
   -5.9270    2.0710    0.0920 C   0  0  0  0  0  0  0  0  0  0  0  0
   -4.5660    1.6020    0.2990 N   0  0  0  0  0  0  0  0  0  0  0  0
   -4.5110    0.2240    0.0950 C   0  0  0  0  0  0  0  0  0  0  0  0
   -3.3930   -0.3340   -0.7340 C   0  0  0  0  0  0  0  0  0  0  0  0
   -3.6710   -0.8760   -1.9870 C   0  0  0  0  0  0  0  0  0  0  0  0
   -2.7000   -1.5190   -2.7260 C   0  0  0  0  0  0  0  0  0  0  0  0
   -1.4080   -1.6690   -2.2830 C   0  0  0  0  0  0  0  0  0  0  0  0
   -0.3410   -2.3690   -3.0930 C   0  0  0  0  0  0  0  0  0  0  0  0
   -1.1080   -1.1360   -1.0460 C   0  0  0  0  0  0  0  0  0  0  0  0
    0.1720   -1.4310   -0.3720 C   0  0  2  0  0  0  0  0  0  0  0  0
   -0.1460   -2.0750    0.8540 O   0  0  0  0  0  0  0  0  0  0  0  0
    1.1190   -0.3550   -0.1830 C   0  0  1  0  0  0  0  0  0  0  0  0
    0.7280    0.9340    0.4840 C   0  0  0  0  0  0  0  0  0  0  0  0
    1.9540    1.8720    0.4110 C   0  0  0  0  0  0  0  0  0  0  0  0
    3.2340    1.1870    0.0580 C   0  0  0  0  0  0  0  0  0  0  0  0
    3.3490   -0.0640    0.7730 N   0  0  0  0  0  0  0  0  0  0  0  0
    4.5570   -0.5160    1.3890 C   0  0  0  0  0  0  0  0  0  0  0  0
    4.4490   -1.6380    2.0060 O   0  0  0  0  0  0  0  0  0  0  0  0
    5.8430    0.1430    1.3790 C   0  0  0  0  0  0  0  0  0  0  0  0
    6.9750   -0.3530    2.0320 C   0  0  0  0  0  0  0  0  0  0  0  0
    7.9950    0.5410    1.8170 C   0  0  0  0  0  0  0  0  0  0  0  0
    7.5020    1.5480    1.0600 N   0  0  0  0  0  0  0  0  0  0  0  0
    6.2450    1.2880    0.8190 N   0  0  0  0  0  0  0  0  0  0  0  0
    2.1790   -0.9030    0.8660 C   0  0  0  0  0  0  0  0  0  0  0  0
   -2.0980   -0.4800   -0.3000 C   0  0  0  0  0  0  0  0  0  0  0  0
  1  2  1  0
  2  3  1  0
  3  4  1  0
  4  5  1  0
  5  6  2  0
  5 26  1  0
  6  7  1  0
  7  8  2  0
  8  9  1  0
  8 10  1  0
 10 11  1  0
 10 26  2  0
 11 12  1  1
 11 13  1  0
 13 14  1  1
 13 25  1  0
 14 15  1  0
 15 16  1  0
 16 17  1  0
 17 18  1  0
 17 25  1  0
 18 19  2  0
 18 20  1  0
 20 21  1  0
 20 24  2  0
 21 22  2  0
 22 23  1  0
 23 24  1  0
M  CHG  1   3   1
M  END
