
     RDKit          3D

 26 28  0  0  0  0  0  0  0  0999 V2000
    1.3330    3.7180    1.1750 C   0  0  0  0  0  0  0  0  0  0  0  0
    0.4580    2.8390    0.2400 C   0  0  0  0  0  0  0  0  0  0  0  0
    0.7810    1.4200    0.4000 C   0  0  0  0  0  0  0  0  0  0  0  0
    0.0810    0.3640   -0.4180 C   0  0  1  0  0  0  0  0  0  0  0  0
   -1.3960    0.3330   -0.2220 C   0  0  2  0  0  0  0  0  0  0  0  0
   -1.7040    1.6710   -0.6490 O   0  0  0  0  0  0  0  0  0  0  0  0
   -1.7700    0.3410    1.2450 C   0  0  0  0  0  0  0  0  0  0  0  0
   -3.1200    0.6460    1.5610 N   0  0  0  0  0  0  0  0  0  0  0  0
   -3.9210   -0.4750    1.9530 C   0  0  0  0  0  0  0  0  0  0  0  0
   -2.3130   -0.4960   -0.9850 C   0  0  2  0  0  0  0  0  0  0  0  0
   -2.2260   -1.9750   -1.0240 C   0  0  0  0  0  0  0  0  0  0  0  0
   -1.6070   -2.3700   -2.3010 C   0  0  0  0  0  0  0  0  0  0  0  0
   -2.4200   -1.4600   -3.2290 C   0  0  0  0  0  0  0  0  0  0  0  0
   -2.6690   -0.2280   -2.3810 C   0  0  0  0  0  0  0  0  0  0  0  0
    0.4920    0.6390   -1.8420 C   0  0  0  0  0  0  0  0  0  0  0  0
    1.9370    0.6470   -2.1000 C   0  0  0  0  0  0  0  0  0  0  0  0
    2.7610   -0.3880   -1.3640 C   0  0  0  0  0  0  0  0  0  0  0  0
    2.2180   -0.7290   -0.0980 N   0  0  0  0  0  0  0  0  0  0  0  0
    3.0280   -0.9510    1.0090 C   0  0  0  0  0  0  0  0  0  0  0  0
    4.3830   -1.0940    0.8540 C   0  0  0  0  0  0  0  0  0  0  0  0
    5.1810   -1.3090    1.9870 C   0  0  0  0  0  0  0  0  0  0  0  0
    4.5960   -1.3700    3.1940 N   0  0  0  0  0  0  0  0  0  0  0  0
    3.2680   -1.2330    3.3640 C   0  0  0  0  0  0  0  0  0  0  0  0
    2.7140   -1.3050    4.6400 O   0  0  0  0  0  0  0  0  0  0  0  0
    2.5320   -1.0300    2.2820 N   0  0  0  0  0  0  0  0  0  0  0  0
    0.8020   -0.8700    0.0610 C   0  0  0  0  0  0  0  0  0  0  0  0
  1  2  1  0
  2  3  1  0
  4  3  1  1
  4  5  1  0
  4 15  1  0
  4 26  1  0
  5  6  1  6
  5  7  1  0
  5 10  1  0
  7  8  1  0
  8  9  1  0
 10 11  1  6
 10 14  1  0
 11 12  1  0
 12 13  1  0
 13 14  1  0
 15 16  1  0
 16 17  1  0
 17 18  1  0
 18 19  1  0
 18 26  1  0
 19 20  2  0
 19 25  1  0
 20 21  1  0
 21 22  2  0
 22 23  1  0
 23 24  1  0
 23 25  2  0
M  CHG  1   8   1
M  END
