
     RDKit          3D

 26 28  0  0  0  0  0  0  0  0999 V2000
    1.1170   -2.6800   -1.2410 C   0  0  0  0  0  0  0  0  0  0  0  0
    0.9310   -1.7600   -0.0830 C   0  0  0  0  0  0  0  0  0  0  0  0
    0.1410   -0.5820   -0.4880 N   0  0  1  0  0  0  0  0  0  0  0  0
   -1.2210   -0.9050   -0.2280 C   0  0  0  0  0  0  0  0  0  0  0  0
   -2.1700    0.1780   -0.0610 C   0  0  0  0  0  0  0  0  0  0  0  0
   -1.8920    1.4760   -0.1420 N   0  0  0  0  0  0  0  0  0  0  0  0
   -2.7900    2.4290    0.0100 N   0  0  0  0  0  0  0  0  0  0  0  0
   -4.0790    2.1670    0.2640 C   0  0  0  0  0  0  0  0  0  0  0  0
   -4.9340    3.1080    0.4090 O   0  0  0  0  0  0  0  0  0  0  0  0
   -4.4660    0.8460    0.3670 C   0  0  0  0  0  0  0  0  0  0  0  0
   -5.7830    0.5420    0.6270 C   0  0  0  0  0  0  0  0  0  0  0  0
   -6.1500   -0.7770    0.7250 C   0  0  0  0  0  0  0  0  0  0  0  0
   -5.1780   -1.7730    0.5590 C   0  0  0  0  0  0  0  0  0  0  0  0
   -3.8640   -1.4470    0.2990 C   0  0  0  0  0  0  0  0  0  0  0  0
   -3.5050   -0.1350    0.2030 C   0  0  0  0  0  0  0  0  0  0  0  0
    0.6580    0.5770    0.1460 C   0  0  1  0  0  0  0  0  0  0  0  0
    0.2380    0.7860    1.5280 C   0  0  0  0  0  0  0  0  0  0  0  0
    0.5530    1.9660    2.2780 N   0  0  0  0  0  0  0  0  0  0  0  0
   -0.4340   -0.0720    2.1370 O   0  0  0  0  0  0  0  0  0  0  0  0
    2.1560    0.5700    0.0410 C   0  0  0  0  0  0  0  0  0  0  0  0
    2.7810    0.4010   -1.1850 C   0  0  0  0  0  0  0  0  0  0  0  0
    4.1570    0.3740   -1.3040 C   0  0  0  0  0  0  0  0  0  0  0  0
    4.9620    0.5180   -0.1900 C   0  0  0  0  0  0  0  0  0  0  0  0
    6.4490    0.4900   -0.3120 C   0  0  0  0  0  0  0  0  0  0  0  0
    4.3370    0.6850    1.0240 C   0  0  0  0  0  0  0  0  0  0  0  0
    2.9360    0.7120    1.1490 C   0  0  0  0  0  0  0  0  0  0  0  0
  1  2  1  0
  3  2  1  1
  3  4  1  0
  3 16  1  0
  4  5  1  0
  5  6  2  0
  5 15  1  0
  6  7  1  0
  7  8  1  0
  8  9  2  0
  8 10  1  0
 10 11  2  0
 10 15  1  0
 11 12  1  0
 12 13  2  0
 13 14  1  0
 14 15  2  0
 16 17  1  1
 16 20  1  0
 17 18  1  0
 17 19  2  0
 20 21  2  0
 20 26  1  0
 21 22  1  0
 22 23  2  0
 23 24  1  0
 23 25  1  0
 25 26  2  0
M  CHG  1   3   1
M  END
