
     RDKit          3D

 26 28  0  0  0  0  0  0  0  0999 V2000
   -1.3010    0.9420   -3.5960 C   0  0  0  0  0  0  0  0  0  0  0  0
   -0.9230    0.6620   -2.2840 O   0  0  0  0  0  0  0  0  0  0  0  0
   -1.8910    0.5400   -1.2860 C   0  0  0  0  0  0  0  0  0  0  0  0
   -3.2320    0.7000   -1.6160 C   0  0  0  0  0  0  0  0  0  0  0  0
   -4.1950    0.5820   -0.6440 C   0  0  0  0  0  0  0  0  0  0  0  0
   -3.8640    0.3050    0.6660 C   0  0  0  0  0  0  0  0  0  0  0  0
   -4.9170    0.1710    1.7370 C   0  0  2  0  0  0  0  0  0  0  0  0
   -5.4060   -1.2100    1.8440 C   0  0  0  0  0  0  0  0  0  0  0  0
   -6.5880   -1.5610    1.3910 C   0  0  0  0  0  0  0  0  0  0  0  0
   -7.4330   -0.5180    0.7610 C   0  0  0  0  0  0  0  0  0  0  0  0
   -7.2480    0.7620    1.4880 C   0  0  0  0  0  0  0  0  0  0  0  0
   -5.9000    1.1890    1.6480 N   0  0  0  0  0  0  0  0  0  0  0  0
   -2.5380    0.1560    0.9450 C   0  0  0  0  0  0  0  0  0  0  0  0
   -1.5050    0.2640   -0.0020 C   0  0  0  0  0  0  0  0  0  0  0  0
   -0.1510    0.0780    0.4490 C   0  0  0  0  0  0  0  0  0  0  0  0
    0.9410    0.1300   -0.2490 C   0  0  0  0  0  0  0  0  0  0  0  0
    2.2510   -0.0940    0.4220 C   0  0  0  0  0  0  0  0  0  0  0  0
    2.2950   -0.3280    1.6360 O   0  0  0  0  0  0  0  0  0  0  0  0
    3.4600   -0.0420   -0.3240 N   0  0  0  0  0  0  0  0  0  0  0  0
    4.7570   -0.2490    0.2600 C   0  0  1  0  0  0  0  0  0  0  0  0
    5.5370   -1.3420   -0.4130 C   0  0  0  0  0  0  0  0  0  0  0  0
    6.7750   -0.6590   -0.9900 C   0  0  0  0  0  0  0  0  0  0  0  0
    6.9930    0.3880    0.0120 N   0  0  0  0  0  0  0  0  0  0  0  0
    7.3910   -0.2270    1.2500 C   0  0  0  0  0  0  0  0  0  0  0  0
    8.6060   -0.9900    1.1290 N   0  0  0  0  0  0  0  0  0  0  0  0
    5.6580    0.9360    0.1610 C   0  0  0  0  0  0  0  0  0  0  0  0
  1  2  1  0
  2  3  1  0
  3  4  2  0
  3 14  1  0
  4  5  1  0
  5  6  2  0
  7  6  1  6
  6 13  1  0
  7  8  1  0
  7 12  1  0
  8  9  2  0
  9 10  1  0
 10 11  1  0
 11 12  1  0
 13 14  2  0
 14 15  1  0
 15 16  2  3
 16 17  1  0
 17 18  2  0
 17 19  1  0
 20 19  1  6
 20 21  1  0
 20 26  1  0
 21 22  1  0
 22 23  1  0
 23 24  1  0
 23 26  1  0
 24 25  1  0
M  CHG  1  12   1
M  END
