
     RDKit          3D

 26 28  0  0  0  0  0  0  0  0999 V2000
    1.8270   -2.3610   -3.0400 C   0  0  0  0  0  0  0  0  0  0  0  0
    2.2400   -1.0430   -2.4050 C   0  0  0  0  0  0  0  0  0  0  0  0
    2.5220   -1.1880   -1.0100 N   0  0  0  0  0  0  0  0  0  0  0  0
    3.8580   -1.4920   -0.5720 C   0  0  0  0  0  0  0  0  0  0  0  0
    4.6750   -0.2210   -0.3140 C   0  0  0  0  0  0  0  0  0  0  0  0
    6.0160   -0.5530    0.1250 C   0  0  0  0  0  0  0  0  0  0  0  0
    6.6520   -0.2690    1.1980 C   0  0  0  0  0  0  0  0  0  0  0  0
    6.3720    0.4650    2.4030 C   0  0  1  0  0  0  0  0  0  0  0  0
    6.4360    1.9490    2.4610 C   0  0  0  0  0  0  0  0  0  0  0  0
    5.1470    1.2020    2.7490 C   0  0  0  0  0  0  0  0  0  0  0  0
    1.4990   -1.0340   -0.0510 C   0  0  0  0  0  0  0  0  0  0  0  0
    1.7570   -1.1540    1.2060 O   0  0  0  0  0  0  0  0  0  0  0  0
    0.1400   -0.7460   -0.3530 N   0  0  0  0  0  0  0  0  0  0  0  0
   -0.8400   -0.6020    0.6860 C   0  0  0  0  0  0  0  0  0  0  0  0
   -0.4590   -0.7380    1.8680 O   0  0  0  0  0  0  0  0  0  0  0  0
   -2.2200   -0.3060    0.3230 C   0  0  0  0  0  0  0  0  0  0  0  0
   -2.7240   -0.1420   -0.9080 N   0  0  0  0  0  0  0  0  0  0  0  0
   -4.0330    0.1180   -0.8590 C   0  0  0  0  0  0  0  0  0  0  0  0
   -4.4310    0.1310    0.4610 C   0  0  0  0  0  0  0  0  0  0  0  0
   -3.2710   -0.1390    1.1930 C   0  0  0  0  0  0  0  0  0  0  0  0
   -3.2020   -0.2280    2.6660 C   0  0  0  0  0  0  0  0  0  0  0  0
   -5.8710    0.4170    0.5400 C   0  0  1  0  0  0  0  0  0  0  0  0
   -6.1170    1.6580    1.4080 C   0  0  0  0  0  0  0  0  0  0  0  0
   -6.2890    0.6860   -0.7970 N   0  0  0  0  0  0  0  0  0  0  0  0
   -5.2170    0.3990   -1.6960 C   0  0  1  0  0  0  0  0  0  0  0  0
   -4.8750    1.5690   -2.5930 C   0  0  0  0  0  0  0  0  0  0  0  0
  1  2  1  0
  2  3  1  0
  3  4  1  0
  3 11  1  0
  4  5  1  0
  5  6  1  0
  6  7  2  3
  8  7  1  6
  8  9  1  0
  8 10  1  0
  9 10  1  0
 11 12  2  0
 11 13  1  0
 13 14  1  0
 14 15  2  0
 14 16  1  0
 16 17  1  0
 16 20  2  0
 17 18  1  0
 18 19  2  0
 18 25  1  0
 19 20  1  0
 19 22  1  0
 20 21  1  0
 22 23  1  1
 22 24  1  0
 24 25  1  0
 25 26  1  6
M  CHG  1  24   1
M  END
