
     RDKit          3D

 12 12  0  0  0  0  0  0  0  0999 V2000
   -2.4550   -1.6330   -0.5350 C   0  0  0  0  0  0  0  0  0  0  0  0
   -1.3690   -0.5940   -0.6950 C   0  0  2  0  0  0  0  0  0  0  0  0
   -0.0770   -1.1040   -0.2400 N   0  0  0  0  0  0  0  0  0  0  0  0
    0.8990   -0.1150   -0.6600 C   0  0  2  0  0  0  0  0  0  0  0  0
    2.2950   -0.6460   -0.6000 C   0  0  0  0  0  0  0  0  0  0  0  0
    2.7280   -1.0700    0.6930 N   0  0  0  0  0  0  0  0  0  0  0  0
    0.7420    1.1960    0.0690 C   0  0  1  0  0  0  0  0  0  0  0  0
    1.4120    2.1580   -0.7260 O   0  0  0  0  0  0  0  0  0  0  0  0
   -0.6600    1.6360    0.2190 C   0  0  2  0  0  0  0  0  0  0  0  0
   -0.8080    2.3630    1.4250 O   0  0  0  0  0  0  0  0  0  0  0  0
   -1.6880    0.5660    0.2200 C   0  0  2  0  0  0  0  0  0  0  0  0
   -1.9210    0.0260    1.4910 O   0  0  0  0  0  0  0  0  0  0  0  0
  2  1  1  1
  2  3  1  0
  2 11  1  0
  3  4  1  0
  4  5  1  1
  4  7  1  0
  5  6  1  0
  7  8  1  6
  7  9  1  0
  9 10  1  1
  9 11  1  0
 11 12  1  1
M  CHG  2   3   1   6   1
M  END
