
     RDKit          3D

 14 15  0  0  0  0  0  0  0  0999 V2000
    3.8910   -1.1180   -0.2490 Br  0  0  0  0  0  0  0  0  0  0  0  0
    2.0340   -0.6320   -0.1390 C   0  0  0  0  0  0  0  0  0  0  0  0
    1.1860   -1.6380   -0.2770 C   0  0  0  0  0  0  0  0  0  0  0  0
   -0.2820   -1.6340   -0.2490 C   0  0  0  0  0  0  0  0  0  0  0  0
   -1.1810   -3.2930   -0.4900 Br  0  0  0  0  0  0  0  0  0  0  0  0
   -1.0560   -0.6040   -0.0740 C   0  0  0  0  0  0  0  0  0  0  0  0
   -2.8670   -0.6910   -0.0530 S   0  0  0  0  0  0  0  0  0  0  0  0
   -3.0590    1.0350    0.2290 N   0  0  0  0  0  0  0  0  0  0  0  0
   -1.7970    1.5510    0.2810 N   0  0  0  0  0  0  0  0  0  0  0  0
   -0.8110    0.8090    0.1420 C   0  0  0  0  0  0  0  0  0  0  0  0
    0.5590    1.3820    0.2000 C   0  0  0  0  0  0  0  0  0  0  0  0
    0.7050    3.2570    0.4830 Br  0  0  0  0  0  0  0  0  0  0  0  0
    1.7290    0.7780    0.0830 C   0  0  0  0  0  0  0  0  0  0  0  0
    3.2750    1.9010    0.2210 Br  0  0  0  0  0  0  0  0  0  0  0  0
  1  2  1  0
  2  3  2  0
  2 13  1  0
  3  4  1  0
  4  5  1  0
  4  6  2  0
  6  7  1  0
  6 10  1  0
  7  8  1  0
  8  9  1  0
  9 10  2  0
 10 11  1  0
 11 12  1  0
 11 13  2  0
 13 14  1  0
M  END
