
     RDKit          3D

 24 26  0  0  0  0  0  0  0  0999 V2000
   -3.9020   -2.2830   -0.0640 C   0  0  0  0  0  0  0  0  0  0  0  0
   -2.8850   -1.8770   -0.8580 O   0  0  0  0  0  0  0  0  0  0  0  0
   -1.9010   -1.0960   -0.3880 C   0  0  0  0  0  0  0  0  0  0  0  0
   -2.1970    0.2430    0.1490 C   0  0  2  0  0  0  0  0  0  0  0  0
   -3.1210    0.2260    1.3510 C   0  0  0  0  0  0  0  0  0  0  0  0
   -2.8200    1.1750   -0.8190 C   0  0  0  0  0  0  0  0  0  0  0  0
   -3.6560    0.8960   -1.9340 N   0  0  0  0  0  0  0  0  0  0  0  0
   -2.4750    2.3710   -0.4890 N   0  0  0  0  0  0  0  0  0  0  0  0
   -1.6390    2.3510    0.6560 C   0  0  0  0  0  0  0  0  0  0  0  0
   -1.5450    3.1960    1.5400 O   0  0  0  0  0  0  0  0  0  0  0  0
   -0.9300    1.0420    0.4750 C   0  0  2  0  0  0  0  0  0  0  0  0
   -0.1510    1.1430   -0.8030 C   0  0  0  0  0  0  0  0  0  0  0  0
    1.1270    0.4210   -0.7690 C   0  0  0  0  0  0  0  0  0  0  0  0
    1.6900   -0.0330   -1.9260 C   0  0  0  0  0  0  0  0  0  0  0  0
    2.9070   -0.7250   -1.9370 C   0  0  0  0  0  0  0  0  0  0  0  0
    3.4640   -1.1790   -3.1170 O   0  0  0  0  0  0  0  0  0  0  0  0
    3.5660   -0.9600   -0.7520 C   0  0  0  0  0  0  0  0  0  0  0  0
    4.8570   -1.6870   -0.7010 C   0  0  0  0  0  0  0  0  0  0  0  0
    5.2610   -1.7600    0.6260 O   0  0  0  0  0  0  0  0  0  0  0  0
    2.9760   -0.4870    0.4320 C   0  0  0  0  0  0  0  0  0  0  0  0
    1.7960    0.1810    0.4210 C   0  0  0  0  0  0  0  0  0  0  0  0
    1.1410    0.6930    1.6330 C   0  0  1  0  0  0  0  0  0  0  0  0
    1.6420    2.0980    1.8740 C   0  0  0  0  0  0  0  0  0  0  0  0
   -0.2700    0.5810    1.6180 N   0  0  0  0  0  0  0  0  0  0  0  0
  1  2  1  0
  2  3  1  0
  3  4  1  0
  4  5  1  1
  4  6  1  0
  4 11  1  0
  6  7  1  0
  6  8  2  0
  8  9  1  0
  9 10  2  0
  9 11  1  0
 11 12  1  6
 11 24  1  0
 12 13  1  0
 13 14  2  0
 13 21  1  0
 14 15  1  0
 15 16  1  0
 15 17  2  0
 17 18  1  0
 17 20  1  0
 18 19  1  0
 20 21  2  0
 21 22  1  0
 22 23  1  6
 22 24  1  0
M  CHG  1  24   1
M  END
