
     RDKit          3D

 24 25  0  0  0  0  0  0  0  0999 V2000
   -4.4470    2.3420    1.0630 C   0  0  0  0  0  0  0  0  0  0  0  0
   -5.0500    1.0890    0.4240 C   0  0  1  0  0  0  0  0  0  0  0  0
   -5.1070    1.3380   -1.0520 C   0  0  0  0  0  0  0  0  0  0  0  0
   -5.1050    0.1040   -1.8870 C   0  0  0  0  0  0  0  0  0  0  0  0
   -4.0570   -0.9020   -1.4820 C   0  0  0  0  0  0  0  0  0  0  0  0
   -3.2170   -0.2680   -0.3980 C   0  0  2  0  0  0  0  0  0  0  0  0
   -2.0430   -1.0110   -0.0850 N   0  0  0  0  0  0  0  0  0  0  0  0
   -2.1590   -2.3550    0.4100 C   0  0  0  0  0  0  0  0  0  0  0  0
   -0.7670   -0.4480   -0.2530 C   0  0  0  0  0  0  0  0  0  0  0  0
   -0.6960    0.7460   -0.6940 O   0  0  0  0  0  0  0  0  0  0  0  0
    0.4450   -1.1320    0.0390 N   0  0  0  0  0  0  0  0  0  0  0  0
    1.6870   -0.4430   -0.1770 C   0  0  2  0  0  0  0  0  0  0  0  0
    2.5700   -1.1130   -1.1860 C   0  0  0  0  0  0  0  0  0  0  0  0
    3.4670   -0.0950   -1.6900 O   0  0  0  0  0  0  0  0  0  0  0  0
    4.0400    0.7100   -0.6740 C   0  0  0  0  0  0  0  0  0  0  0  0
    4.6730    1.8360   -0.9160 C   0  0  0  0  0  0  0  0  0  0  0  0
    4.8280    2.3200   -2.2020 O   0  0  0  0  0  0  0  0  0  0  0  0
    3.8690    0.1810    0.6730 C   0  0  0  0  0  0  0  0  0  0  0  0
    4.8970    0.0440    1.4740 C   0  0  0  0  0  0  0  0  0  0  0  0
    6.2940    0.3600    1.1870 C   0  0  0  0  0  0  0  0  0  0  0  0
    7.1490   -0.8350    1.3710 N   0  0  0  0  0  0  0  0  0  0  0  0
    2.4700   -0.2390    1.0980 C   0  0  0  0  0  0  0  0  0  0  0  0
   -4.1270   -0.0550    0.7920 C   0  0  2  0  0  0  0  0  0  0  0  0
   -4.9180   -1.2150    0.9340 O   0  0  0  0  0  0  0  0  0  0  0  0
  2  1  1  1
  2  3  1  0
  2 23  1  0
  3  4  1  0
  4  5  1  0
  5  6  1  0
  6  7  1  1
  6 23  1  0
  7  8  1  0
  7  9  1  0
  9 10  2  0
  9 11  1  0
 12 11  1  1
 12 13  1  0
 12 22  1  0
 13 14  1  0
 14 15  1  0
 15 16  2  3
 15 18  1  0
 16 17  1  0
 18 19  2  3
 18 22  1  0
 19 20  1  0
 20 21  1  0
 23 24  1  6
M  CHG  1  21   1
M  END
