
     RDKit          3D

 24 25  0  0  0  0  0  0  0  0999 V2000
   -6.7870    0.1690   -1.2320 C   0  0  0  0  0  0  0  0  0  0  0  0
   -5.5440    0.3700   -0.4280 C   0  0  1  0  0  0  0  0  0  0  0  0
   -5.8540    1.2940    0.6720 N   0  0  0  0  0  0  0  0  0  0  0  0
   -5.0470   -0.9020    0.2260 C   0  0  1  0  0  0  0  0  0  0  0  0
   -4.7390   -1.9220   -0.7580 N   0  0  0  0  0  0  0  0  0  0  0  0
   -3.8640   -0.5470    1.0340 C   0  0  0  0  0  0  0  0  0  0  0  0
   -2.6770   -0.5110    0.4910 C   0  0  0  0  0  0  0  0  0  0  0  0
   -1.4450   -0.1550    1.2730 C   0  0  0  0  0  0  0  0  0  0  0  0
   -0.6910    0.6720    0.4430 O   0  0  0  0  0  0  0  0  0  0  0  0
   -0.1950    0.0350   -0.6710 C   0  0  1  0  0  0  0  0  0  0  0  0
    1.2320   -0.4770   -0.4350 C   0  0  0  0  0  0  0  0  0  0  0  0
    2.0080    0.5990   -0.1440 O   0  0  0  0  0  0  0  0  0  0  0  0
    3.3290    0.3510    0.1010 C   0  0  1  0  0  0  0  0  0  0  0  0
    4.2920    0.9980   -0.8350 C   0  0  0  0  0  0  0  0  0  0  0  0
    5.6700    0.6180   -0.4180 C   0  0  0  0  0  0  0  0  0  0  0  0
    6.6620    1.4180   -0.0430 C   0  0  0  0  0  0  0  0  0  0  0  0
    7.8730    0.6600    0.2950 C   0  0  0  0  0  0  0  0  0  0  0  0
    7.4660   -0.7320    0.0670 C   0  0  0  0  0  0  0  0  0  0  0  0
    6.2070   -0.7360   -0.3380 C   0  0  0  0  0  0  0  0  0  0  0  0
    3.6970    0.7260    1.4890 C   0  0  0  0  0  0  0  0  0  0  0  0
    2.6950    1.2620    2.3250 N   0  0  0  0  0  0  0  0  0  0  0  0
    4.8900    0.5570    1.8860 O   0  0  0  0  0  0  0  0  0  0  0  0
   -1.0780   -1.0710   -1.1890 C   0  0  0  0  0  0  0  0  0  0  0  0
   -2.4490   -0.7990   -0.8610 O   0  0  0  0  0  0  0  0  0  0  0  0
  2  1  1  1
  2  3  1  0
  2  4  1  0
  4  5  1  6
  4  6  1  0
  6  7  2  3
  7  8  1  0
  7 24  1  0
  8  9  1  0
  9 10  1  0
 10 11  1  1
 10 23  1  0
 11 12  1  0
 12 13  1  0
 13 14  1  6
 13 20  1  0
 14 15  1  0
 15 16  2  0
 15 19  1  0
 16 17  1  0
 17 18  1  0
 18 19  2  0
 20 21  1  0
 20 22  2  0
 23 24  1  0
M  CHG  2   3   1   5   1
M  END
