
     RDKit          3D

 24 26  0  0  0  0  0  0  0  0999 V2000
    6.2810    1.0410    2.5440 C   0  0  0  0  0  0  0  0  0  0  0  0
    5.8170    0.9630    1.2100 O   0  0  0  0  0  0  0  0  0  0  0  0
    4.5210    0.5600    0.9430 C   0  0  0  0  0  0  0  0  0  0  0  0
    3.6260    0.2190    1.9330 C   0  0  0  0  0  0  0  0  0  0  0  0
    2.3490   -0.1790    1.6850 C   0  0  0  0  0  0  0  0  0  0  0  0
    1.8760   -0.2620    0.3720 C   0  0  0  0  0  0  0  0  0  0  0  0
    0.5940   -0.6660    0.2050 O   0  0  0  0  0  0  0  0  0  0  0  0
   -0.1870   -0.8580   -0.9030 C   0  0  1  0  0  0  0  0  0  0  0  0
   -0.8550   -2.2340   -0.8880 C   0  0  0  0  0  0  0  0  0  0  0  0
   -2.1350   -1.5270   -1.2950 C   0  0  1  0  0  0  0  0  0  0  0  0
   -3.2410   -2.0510   -0.5520 N   0  0  0  0  0  0  0  0  0  0  0  0
   -1.5720   -0.2580   -0.6930 C   0  0  2  0  0  0  0  0  0  0  0  0
   -1.7200    0.9690   -1.5190 C   0  0  0  0  0  0  0  0  0  0  0  0
   -2.4220    1.9810   -0.7560 N   0  0  0  0  0  0  0  0  0  0  0  0
   -3.6400    1.4100   -0.1780 C   0  0  0  0  0  0  0  0  0  0  0  0
   -3.1730    0.6070    1.0220 C   0  0  1  0  0  0  0  0  0  0  0  0
   -4.2720   -0.2650    1.5020 C   0  0  0  0  0  0  0  0  0  0  0  0
   -5.4340   -0.2760    0.9540 N   0  0  0  0  0  0  0  0  0  0  0  0
   -4.0780   -1.1160    2.5820 O   0  0  0  0  0  0  0  0  0  0  0  0
   -1.8930   -0.1130    0.7550 C   0  0  0  0  0  0  0  0  0  0  0  0
    2.7530    0.0740   -0.6190 C   0  0  0  0  0  0  0  0  0  0  0  0
    2.3530    0.0160   -1.9420 O   0  0  0  0  0  0  0  0  0  0  0  0
    3.2020    0.3460   -3.0030 C   0  0  0  0  0  0  0  0  0  0  0  0
    4.0680    0.4830   -0.3540 C   0  0  0  0  0  0  0  0  0  0  0  0
  1  2  1  0
  2  3  1  0
  3  4  2  0
  3 24  1  0
  4  5  1  0
  5  6  2  0
  6  7  1  0
  6 21  1  0
  8  7  1  1
  8  9  1  0
  8 12  1  0
  9 10  1  0
 10 11  1  1
 10 12  1  0
 12 13  1  6
 12 20  1  0
 13 14  1  0
 14 15  1  0
 15 16  1  0
 16 17  1  6
 16 20  1  0
 17 18  2  0
 17 19  1  0
 21 22  1  0
 21 24  2  0
 22 23  1  0
M  CHG  1  14   1
M  END
