
     RDKit          3D

 24 25  0  0  0  0  0  0  0  0999 V2000
   -3.7510   -3.3210   -0.7170 C   0  0  0  0  0  0  0  0  0  0  0  0
   -2.3500   -2.7920   -0.5770 C   0  0  0  0  0  0  0  0  0  0  0  0
   -2.3180   -1.2950   -0.7390 C   0  0  2  0  0  0  0  0  0  0  0  0
   -0.9080   -0.8250   -0.5900 C   0  0  0  0  0  0  0  0  0  0  0  0
    0.3090   -1.4180   -0.8250 C   0  0  0  0  0  0  0  0  0  0  0  0
    1.3040   -0.4850   -0.5000 C   0  0  0  0  0  0  0  0  0  0  0  0
    2.7420   -0.8130   -0.6400 C   0  0  1  0  0  0  0  0  0  0  0  0
    2.9160   -2.2180   -1.2330 C   0  0  0  0  0  0  0  0  0  0  0  0
    4.2100   -2.6760   -1.1390 O   0  0  0  0  0  0  0  0  0  0  0  0
    3.5460    0.1440   -1.2990 N   0  0  0  0  0  0  0  0  0  0  0  0
    4.9620   -0.1500   -1.1700 C   0  0  0  0  0  0  0  0  0  0  0  0
    3.2740    1.5160   -0.9880 C   0  0  0  0  0  0  0  0  0  0  0  0
    3.6250    1.8850    0.4470 C   0  0  0  0  0  0  0  0  0  0  0  0
    4.9580    1.6910    0.7180 O   0  0  0  0  0  0  0  0  0  0  0  0
    0.6760    0.5750   -0.1040 O   0  0  0  0  0  0  0  0  0  0  0  0
   -0.6170    0.4360   -0.1350 C   0  0  0  0  0  0  0  0  0  0  0  0
   -1.7070    1.3930    0.2300 C   0  0  2  0  0  0  0  0  0  0  0  0
   -1.6120    2.4870   -0.7520 N   0  0  0  0  0  0  0  0  0  0  0  0
   -1.4510    2.0160    1.5710 C   0  0  0  0  0  0  0  0  0  0  0  0
   -2.5340    2.9910    1.9280 C   0  0  0  0  0  0  0  0  0  0  0  0
   -2.2490    3.5920    3.1910 O   0  0  0  0  0  0  0  0  0  0  0  0
   -3.0460    0.7900    0.0920 C   0  0  0  0  0  0  0  0  0  0  0  0
   -3.0860   -0.6420    0.2930 N   0  0  2  0  0  0  0  0  0  0  0  0
   -2.6570   -1.0590    1.5910 C   0  0  0  0  0  0  0  0  0  0  0  0
  1  2  1  0
  3  2  1  1
  3  4  1  0
  3 23  1  0
  4  5  1  0
  4 16  2  0
  5  6  2  0
  6  7  1  0
  6 15  1  0
  7  8  1  6
  7 10  1  0
  8  9  1  0
 10 11  1  0
 10 12  1  0
 12 13  1  0
 13 14  1  0
 15 16  1  0
 16 17  1  0
 17 18  1  6
 17 19  1  0
 17 22  1  0
 19 20  1  0
 20 21  1  0
 22 23  1  0
 23 24  1  1
M  CHG  1  23   1
M  END
