
     RDKit          3D

 24 26  0  0  0  0  0  0  0  0999 V2000
    7.8060    0.5070    0.4010 C   0  0  0  0  0  0  0  0  0  0  0  0
    6.4770    0.5610   -0.3030 C   0  0  1  0  0  0  0  0  0  0  0  0
    6.3040   -0.4420   -1.4420 C   0  0  0  0  0  0  0  0  0  0  0  0
    5.5180   -0.5510   -0.1390 C   0  0  2  0  0  0  0  0  0  0  0  0
    4.0480   -0.2810   -0.2430 C   0  0  0  0  0  0  0  0  0  0  0  0
    3.5530    0.7640   -0.9900 C   0  0  0  0  0  0  0  0  0  0  0  0
    2.1800    0.6740   -0.8310 C   0  0  0  0  0  0  0  0  0  0  0  0
    1.9310   -0.4020   -0.0130 C   0  0  0  0  0  0  0  0  0  0  0  0
    0.5690   -0.8130    0.3840 C   0  0  0  0  0  0  0  0  0  0  0  0
    0.4970   -1.8110    1.1330 O   0  0  0  0  0  0  0  0  0  0  0  0
   -0.5620   -0.1170   -0.0600 N   0  0  0  0  0  0  0  0  0  0  0  0
   -1.9570   -0.4970    0.3210 C   0  0  2  0  0  0  0  0  0  0  0  0
   -2.0690   -0.3750    1.7810 C   0  0  0  0  0  0  0  0  0  0  0  0
   -3.3200   -0.6530    2.4090 N   0  0  0  0  0  0  0  0  0  0  0  0
   -2.0570   -1.9700   -0.1130 C   0  0  0  0  0  0  0  0  0  0  0  0
   -3.0320   -2.2270   -1.1080 N   0  0  0  0  0  0  0  0  0  0  0  0
   -4.2890   -1.5930   -0.9150 C   0  0  0  0  0  0  0  0  0  0  0  0
   -4.2510   -0.1740   -0.5240 C   0  0  0  0  0  0  0  0  0  0  0  0
   -2.8350    0.3640   -0.4780 C   0  0  2  0  0  0  0  0  0  0  0  0
   -2.4090    0.1440   -1.8750 O   0  0  0  0  0  0  0  0  0  0  0  0
   -2.7690    1.8130   -0.3410 C   0  0  0  0  0  0  0  0  0  0  0  0
   -3.0490    2.5340    0.8990 C   0  0  0  0  0  0  0  0  0  0  0  0
   -2.9470    3.9560    0.6530 O   0  0  0  0  0  0  0  0  0  0  0  0
    3.0610   -0.9330    0.3090 O   0  0  0  0  0  0  0  0  0  0  0  0
  2  1  1  1
  2  3  1  0
  2  4  1  0
  3  4  1  0
  4  5  1  6
  5  6  2  0
  5 24  1  0
  6  7  1  0
  7  8  2  0
  8  9  1  0
  8 24  1  0
  9 10  2  0
  9 11  1  0
 11 12  1  0
 12 13  1  1
 12 15  1  0
 12 19  1  0
 13 14  1  0
 15 16  1  0
 16 17  1  0
 17 18  1  0
 18 19  1  0
 19 20  1  6
 19 21  1  0
 21 22  1  0
 22 23  1  0
M  CHG  2  14   1  16   1
M  END
