
     RDKit          3D

 23 24  0  0  0  0  0  0  0  0999 V2000
   -3.1130   -1.7090   -1.2400 C   0  0  0  0  0  0  0  0  0  0  0  0
   -3.4530   -1.3460   -0.0050 C   0  0  0  0  0  0  0  0  0  0  0  0
   -4.4310   -2.0410    0.8590 C   0  0  0  0  0  0  0  0  0  0  0  0
   -4.4310   -1.2790    2.1340 C   0  0  0  0  0  0  0  0  0  0  0  0
   -3.4970   -0.1740    1.9430 C   0  0  0  0  0  0  0  0  0  0  0  0
   -2.9440   -0.2050    0.7440 C   0  0  0  0  0  0  0  0  0  0  0  0
   -1.9380    0.7950    0.2410 C   0  0  1  0  0  0  0  0  0  0  0  0
   -0.6450    0.0790    0.0840 C   0  0  0  0  0  0  0  0  0  0  0  0
    0.2180    0.5980   -0.9200 N   0  0  0  0  0  0  0  0  0  0  0  0
    1.4560   -0.0310   -1.2490 C   0  0  0  0  0  0  0  0  0  0  0  0
    2.2040    0.4380   -2.1470 O   0  0  0  0  0  0  0  0  0  0  0  0
    1.9080   -1.1690   -0.6210 O   0  0  0  0  0  0  0  0  0  0  0  0
    3.0610   -1.8870   -0.8120 C   0  0  0  0  0  0  0  0  0  0  0  0
    4.3690   -1.2300   -0.5880 C   0  0  1  0  0  0  0  0  0  0  0  0
    4.6110   -0.1430   -1.4240 O   0  0  0  0  0  0  0  0  0  0  0  0
    4.6000   -0.8520    0.8700 C   0  0  0  0  0  0  0  0  0  0  0  0
    5.9420   -0.2180    0.9180 C   0  0  0  0  0  0  0  0  0  0  0  0
    6.1470    1.1110    1.4390 N   0  0  0  0  0  0  0  0  0  0  0  0
    6.9530   -0.8640    0.4850 O   0  0  0  0  0  0  0  0  0  0  0  0
   -0.1530    1.7920   -1.6230 C   0  0  0  0  0  0  0  0  0  0  0  0
   -1.5650    1.6320   -2.1170 C   0  0  0  0  0  0  0  0  0  0  0  0
   -2.4920    1.4530   -0.9650 C   0  0  2  0  0  0  0  0  0  0  0  0
   -3.0260    2.7870   -0.6300 N   0  0  0  0  0  0  0  0  0  0  0  0
  1  2  2  0
  2  3  1  0
  2  6  1  0
  3  4  1  0
  4  5  1  0
  5  6  2  0
  7  6  1  6
  7  8  1  0
  7 22  1  0
  8  9  1  0
  9 10  1  0
  9 20  1  0
 10 11  2  0
 10 12  1  0
 12 13  1  0
 13 14  1  0
 14 15  1  6
 14 16  1  0
 16 17  1  0
 17 18  1  0
 17 19  2  0
 20 21  1  0
 21 22  1  0
 22 23  1  1
M  CHG  1  23   1
M  END
