
     RDKit          3D

 23 25  0  0  0  0  0  0  0  0999 V2000
    5.0800   -0.6670    1.7880 C   0  0  0  0  0  0  0  0  0  0  0  0
    4.5630    0.5380    1.2090 O   0  0  0  0  0  0  0  0  0  0  0  0
    3.9010    0.5570    0.0140 C   0  0  0  0  0  0  0  0  0  0  0  0
    4.5360    0.7310   -1.1950 C   0  0  0  0  0  0  0  0  0  0  0  0
    5.9150    0.8970   -1.2080 O   0  0  0  0  0  0  0  0  0  0  0  0
    3.8330    0.7470   -2.4090 C   0  0  0  0  0  0  0  0  0  0  0  0
    2.4580    0.5850   -2.4310 C   0  0  0  0  0  0  0  0  0  0  0  0
    1.4940    0.5420   -3.3140 O   0  0  0  0  0  0  0  0  0  0  0  0
    0.3120    0.3530   -2.7230 C   0  0  0  0  0  0  0  0  0  0  0  0
    0.5420    0.2700   -1.3670 C   0  0  0  0  0  0  0  0  0  0  0  0
   -0.2490    0.0820   -0.2230 C   0  0  0  0  0  0  0  0  0  0  0  0
   -1.5340   -0.0580   -0.3890 C   0  0  0  0  0  0  0  0  0  0  0  0
   -2.5820   -0.2650    0.6210 C   0  0  2  0  0  0  0  0  0  0  0  0
   -2.9220   -1.7630    0.6200 C   0  0  0  0  0  0  0  0  0  0  0  0
   -1.7730   -2.5780    0.9420 N   0  0  0  0  0  0  0  0  0  0  0  0
   -3.9000    0.4060    0.1710 C   0  0  2  0  0  0  0  0  0  0  0  0
   -3.6910    1.8920   -0.0130 C   0  0  0  0  0  0  0  0  0  0  0  0
   -4.9280    0.2130    1.1500 N   0  0  0  0  0  0  0  0  0  0  0  0
    0.4220    0.0640    0.9750 C   0  0  0  0  0  0  0  0  0  0  0  0
   -0.2270   -0.1010    2.0460 O   0  0  0  0  0  0  0  0  0  0  0  0
    1.7720    0.2140    1.1010 N   0  0  0  0  0  0  0  0  0  0  0  0
    2.5320    0.3960   -0.0080 C   0  0  0  0  0  0  0  0  0  0  0  0
    1.8720    0.4150   -1.2030 C   0  0  0  0  0  0  0  0  0  0  0  0
  1  2  1  0
  2  3  1  0
  3  4  2  0
  3 22  1  0
  4  5  1  0
  4  6  1  0
  6  7  2  0
  7  8  1  0
  7 23  1  0
  8  9  1  0
  9 10  2  0
 10 11  1  0
 10 23  1  0
 11 12  2  3
 11 19  1  0
 12 13  1  0
 13 14  1  6
 13 16  1  0
 14 15  1  0
 16 17  1  1
 16 18  1  0
 19 20  2  0
 19 21  1  0
 21 22  1  0
 22 23  2  0
M  CHG  1  18   1
M  END
