
     RDKit          3D

 22 24  0  0  0  0  0  0  0  0999 V2000
   -4.9130    1.0530   -1.2860 C   0  0  0  0  0  0  0  0  0  0  0  0
   -3.9720    0.0500   -0.8300 N   0  0  0  0  0  0  0  0  0  0  0  0
   -2.6960    0.5960   -0.4870 C   0  0  1  0  0  0  0  0  0  0  0  0
   -2.8020    2.0690   -0.0570 C   0  0  0  0  0  0  0  0  0  0  0  0
   -1.4440    2.2870    0.5680 C   0  0  0  0  0  0  0  0  0  0  0  0
   -1.0240    0.9200    1.1260 C   0  0  2  0  0  0  0  0  0  0  0  0
    0.2500    0.5210    0.5450 N   0  0  0  0  0  0  0  0  0  0  0  0
    1.3490    0.3070    1.3970 C   0  0  0  0  0  0  0  0  0  0  0  0
    1.1550    0.4780    2.6540 O   0  0  0  0  0  0  0  0  0  0  0  0
    2.6820   -0.0930    0.9700 C   0  0  0  0  0  0  0  0  0  0  0  0
    3.7620   -0.3120    1.8140 C   0  0  0  0  0  0  0  0  0  0  0  0
    3.7470   -0.1830    3.2250 N   0  0  0  0  0  0  0  0  0  0  0  0
    4.8090   -0.6590    1.1070 O   0  0  0  0  0  0  0  0  0  0  0  0
    4.5020   -0.6880   -0.1640 C   0  0  0  0  0  0  0  0  0  0  0  0
    3.1520   -0.3320   -0.3010 C   0  0  0  0  0  0  0  0  0  0  0  0
    2.8190   -0.3660   -1.7470 C   0  0  0  0  0  0  0  0  0  0  0  0
    4.1870   -0.1720   -2.3940 C   0  0  0  0  0  0  0  0  0  0  0  0
    5.0860   -0.9650   -1.5000 C   0  0  0  0  0  0  0  0  0  0  0  0
   -2.1600    0.0170    0.7960 C   0  0  2  0  0  0  0  0  0  0  0  0
   -1.9480   -1.4250    0.8570 C   0  0  0  0  0  0  0  0  0  0  0  0
   -1.0130   -2.0710   -0.0880 C   0  0  0  0  0  0  0  0  0  0  0  0
   -1.3940   -1.8690   -1.4250 O   0  0  0  0  0  0  0  0  0  0  0  0
  1  2  1  0
  3  2  1  1
  3  4  1  0
  3 19  1  0
  4  5  1  0
  5  6  1  0
  6  7  1  6
  6 19  1  0
  7  8  1  0
  8  9  2  0
  8 10  1  0
 10 11  2  0
 10 15  1  0
 11 12  1  0
 11 13  1  0
 13 14  1  0
 14 15  2  0
 14 18  1  0
 15 16  1  0
 16 17  1  0
 17 18  1  0
 19 20  1  6
 20 21  1  0
 21 22  1  0
M  CHG  1   2   1
M  END
