
     RDKit          3D

 23 24  0  0  0  0  0  0  0  0999 V2000
   -6.9790   -0.0910   -0.4370 C   0  0  0  0  0  0  0  0  0  0  0  0
   -5.7050   -0.2820   -1.2120 C   0  0  2  0  0  0  0  0  0  0  0  0
   -4.8860   -1.3560   -0.5490 C   0  0  0  0  0  0  0  0  0  0  0  0
   -3.5600   -1.5500   -1.2640 C   0  0  0  0  0  0  0  0  0  0  0  0
   -2.7260   -0.3120   -1.1170 C   0  0  2  0  0  0  0  0  0  0  0  0
   -1.8600   -0.5420    0.0130 O   0  0  0  0  0  0  0  0  0  0  0  0
   -0.5280   -0.4320   -0.0970 C   0  0  0  0  0  0  0  0  0  0  0  0
    0.1550   -0.1680   -0.9870 O   0  0  0  0  0  0  0  0  0  0  0  0
    0.2940   -0.7440    1.4010 N   0  0  0  0  0  0  0  0  0  0  0  0
    1.5850   -0.5220    0.9200 C   0  0  0  0  0  0  0  0  0  0  0  0
    2.0520   -0.2560   -0.1400 O   0  0  0  0  0  0  0  0  0  0  0  0
    2.5310   -0.6920    2.1010 N   0  0  0  0  0  0  0  0  0  0  0  0
    3.8910   -0.5940    1.8830 C   0  0  0  0  0  0  0  0  0  0  0  0
    4.4190    0.6710    1.2550 C   0  0  0  0  0  0  0  0  0  0  0  0
    5.8860    0.4730    1.1370 C   0  0  0  0  0  0  0  0  0  0  0  0
    6.5420    0.4310   -0.0030 C   0  0  0  0  0  0  0  0  0  0  0  0
    7.9870    0.2190    0.2520 C   0  0  0  0  0  0  0  0  0  0  0  0
    8.0650    0.1690    1.7270 C   0  0  0  0  0  0  0  0  0  0  0  0
    6.8340    0.3140    2.2190 C   0  0  0  0  0  0  0  0  0  0  0  0
    6.5800    0.3030    3.5860 O   0  0  0  0  0  0  0  0  0  0  0  0
   -3.5320    0.8950   -0.7540 C   0  0  0  0  0  0  0  0  0  0  0  0
   -4.9040    0.9720   -1.3220 C   0  0  1  0  0  0  0  0  0  0  0  0
   -4.8570    1.4830   -2.6840 N   0  0  0  0  0  0  0  0  0  0  0  0
  2  1  1  1
  2  3  1  0
  2 22  1  0
  3  4  1  0
  4  5  1  0
  5  6  1  1
  5 21  1  0
  6  7  1  0
  7  8  2  0
  7  9  1  0
  9 10  1  0
 10 11  2  0
 10 12  1  0
 12 13  1  0
 13 14  1  0
 14 15  1  0
 15 16  2  0
 15 19  1  0
 16 17  1  0
 17 18  1  0
 18 19  2  0
 19 20  1  0
 21 22  1  0
 22 23  1  6
M  CHG  1  23   1
M  END
