
     RDKit          3D

 23 24  0  0  0  0  0  0  0  0999 V2000
   -1.1470   -3.4850   -0.2110 C   0  0  0  0  0  0  0  0  0  0  0  0
   -0.6400   -2.0730   -0.4120 C   0  0  0  0  0  0  0  0  0  0  0  0
    0.6130   -2.0180   -0.9530 O   0  0  0  0  0  0  0  0  0  0  0  0
   -1.3400   -1.0390   -0.0950 C   0  0  0  0  0  0  0  0  0  0  0  0
   -2.6980   -1.3670    0.4930 C   0  0  0  0  0  0  0  0  0  0  0  0
   -2.8930   -2.4240    1.4010 N   0  0  0  0  0  0  0  0  0  0  0  0
   -3.6830   -0.5640    0.0970 C   0  0  0  0  0  0  0  0  0  0  0  0
   -3.3000    0.5160   -0.8470 C   0  0  0  0  0  0  0  0  0  0  0  0
   -2.1470    1.2400   -0.3540 N   0  0  1  0  0  0  0  0  0  0  0  0
   -2.4280    1.9620    0.8650 C   0  0  0  0  0  0  0  0  0  0  0  0
   -2.4780    3.4660    0.6130 C   0  0  0  0  0  0  0  0  0  0  0  0
   -2.7460    4.1340    1.7810 O   0  0  0  0  0  0  0  0  0  0  0  0
   -0.9780    0.3530   -0.2340 C   0  0  2  0  0  0  0  0  0  0  0  0
    0.0540    0.7760   -1.1800 C   0  0  0  0  0  0  0  0  0  0  0  0
    1.4060    0.3690   -1.0770 N   0  0  0  0  0  0  0  0  0  0  0  0
    2.2320    0.5780    0.0540 C   0  0  0  0  0  0  0  0  0  0  0  0
    1.6800    1.1830    1.0330 O   0  0  0  0  0  0  0  0  0  0  0  0
    3.6210    0.1710    0.1900 C   0  0  0  0  0  0  0  0  0  0  0  0
    4.2560   -0.4560   -0.7750 C   0  0  0  0  0  0  0  0  0  0  0  0
    5.6490   -0.9060   -0.7380 C   0  0  0  0  0  0  0  0  0  0  0  0
    6.2380   -0.5800    0.4810 O   0  0  0  0  0  0  0  0  0  0  0  0
    5.6100    0.0710    1.5050 C   0  0  0  0  0  0  0  0  0  0  0  0
    4.3590    0.4540    1.4220 C   0  0  0  0  0  0  0  0  0  0  0  0
  1  2  1  0
  2  3  1  0
  2  4  2  3
  4  5  1  0
  4 13  1  0
  5  6  1  0
  5  7  2  0
  7  8  1  0
  8  9  1  0
  9 10  1  1
  9 13  1  0
 10 11  1  0
 11 12  1  0
 13 14  1  6
 14 15  1  0
 15 16  1  0
 16 17  2  0
 16 18  1  0
 18 19  2  0
 18 23  1  0
 19 20  1  0
 20 21  1  0
 21 22  1  0
 22 23  2  0
M  CHG  1   9   1
M  END
