
     RDKit          3D

 23 25  0  0  0  0  0  0  0  0999 V2000
   -3.2690   -2.3700   -0.6990 C   0  0  0  0  0  0  0  0  0  0  0  0
   -3.2870   -0.8840   -0.5740 C   0  0  2  0  0  0  0  0  0  0  0  0
   -2.0230   -0.3750    0.0220 N   0  0  0  0  0  0  0  0  0  0  0  0
   -1.8650    0.9800   -0.3830 C   0  0  2  0  0  0  0  0  0  0  0  0
   -0.8040    1.7900    0.2730 C   0  0  0  0  0  0  0  0  0  0  0  0
    0.5550    1.3920    0.1750 N   0  0  0  0  0  0  0  0  0  0  0  0
    1.1980    0.2510    0.7030 C   0  0  0  0  0  0  0  0  0  0  0  0
    0.5290   -0.5560    1.3810 O   0  0  0  0  0  0  0  0  0  0  0  0
    2.6420    0.0120    0.4600 C   0  0  0  0  0  0  0  0  0  0  0  0
    3.5330    0.7770   -0.2520 C   0  0  0  0  0  0  0  0  0  0  0  0
    4.7940    0.1840   -0.2290 C   0  0  0  0  0  0  0  0  0  0  0  0
    6.0150    0.5230   -0.7680 C   0  0  0  0  0  0  0  0  0  0  0  0
    7.0960   -0.2950   -0.5580 C   0  0  0  0  0  0  0  0  0  0  0  0
    6.9360   -1.4530    0.1980 C   0  0  0  0  0  0  0  0  0  0  0  0
    5.7140   -1.7800    0.7300 C   0  0  0  0  0  0  0  0  0  0  0  0
    4.6170   -0.9650    0.5260 C   0  0  0  0  0  0  0  0  0  0  0  0
    3.3120   -1.0400    0.9250 N   0  0  0  0  0  0  0  0  0  0  0  0
   -3.1830    1.7220   -0.2670 C   0  0  1  0  0  0  0  0  0  0  0  0
   -3.8000    1.8220   -1.5010 O   0  0  0  0  0  0  0  0  0  0  0  0
   -4.0930    1.0580    0.7370 C   0  0  2  0  0  0  0  0  0  0  0  0
   -3.5140    1.0950    1.9810 O   0  0  0  0  0  0  0  0  0  0  0  0
   -4.4340   -0.3550    0.2720 C   0  0  2  0  0  0  0  0  0  0  0  0
   -4.6020   -1.1300    1.4130 O   0  0  0  0  0  0  0  0  0  0  0  0
  2  1  1  1
  2  3  1  0
  2 22  1  0
  3  4  1  0
  4  5  1  1
  4 18  1  0
  5  6  1  0
  6  7  1  0
  7  8  2  0
  7  9  1  0
  9 10  2  0
  9 17  1  0
 10 11  1  0
 11 12  2  0
 11 16  1  0
 12 13  1  0
 13 14  2  0
 14 15  1  0
 15 16  2  0
 16 17  1  0
 18 19  1  6
 18 20  1  0
 20 21  1  1
 20 22  1  0
 22 23  1  1
M  CHG  1   3   1
M  END
