
     RDKit          3D

 22 24  0  0  0  0  0  0  0  0999 V2000
    3.8020   -2.8510   -1.7290 N   0  0  0  0  0  0  0  0  0  0  0  0
    3.2940   -2.8540   -0.4090 C   0  0  0  0  0  0  0  0  0  0  0  0
    3.6900   -3.8450    0.4270 C   0  0  0  0  0  0  0  0  0  0  0  0
    3.2740   -3.9570    1.7140 O   0  0  0  0  0  0  0  0  0  0  0  0
    2.3520   -3.1180    2.2960 C   0  0  1  0  0  0  0  0  0  0  0  0
    2.7980   -2.5750    3.5130 O   0  0  0  0  0  0  0  0  0  0  0  0
    1.9300   -2.0370    1.3840 C   0  0  0  0  0  0  0  0  0  0  0  0
    2.3460   -1.8980    0.1420 C   0  0  0  0  0  0  0  0  0  0  0  0
    1.7970   -0.7980   -0.6770 C   0  0  0  0  0  0  0  0  0  0  0  0
    2.3100   -0.4320   -1.9050 C   0  0  0  0  0  0  0  0  0  0  0  0
    1.6910    0.5930   -2.6340 C   0  0  0  0  0  0  0  0  0  0  0  0
    0.6090    1.2350   -2.1770 N   0  0  0  0  0  0  0  0  0  0  0  0
    0.0860    0.9110   -0.9980 C   0  0  0  0  0  0  0  0  0  0  0  0
   -1.0640    1.5780   -0.4340 N   0  0  0  0  0  0  0  0  0  0  0  0
   -1.6010    2.7470   -1.0810 C   0  0  0  0  0  0  0  0  0  0  0  0
   -2.1290    3.6740    0.0140 C   0  0  0  0  0  0  0  0  0  0  0  0
   -3.2370    3.0360    0.7850 C   0  0  0  0  0  0  0  0  0  0  0  0
   -3.0770    1.5620    0.9430 C   0  0  1  0  0  0  0  0  0  0  0  0
   -4.0910    0.7820    0.1280 C   0  0  0  0  0  0  0  0  0  0  0  0
   -3.9280   -0.5790    0.2850 O   0  0  0  0  0  0  0  0  0  0  0  0
   -1.6780    1.0650    0.7610 C   0  0  0  0  0  0  0  0  0  0  0  0
    0.6780   -0.1010   -0.2520 C   0  0  0  0  0  0  0  0  0  0  0  0
  1  2  1  0
  2  3  2  0
  2  8  1  0
  3  4  1  0
  4  5  1  0
  5  6  1  1
  5  7  1  0
  7  8  2  0
  8  9  1  0
  9 10  2  0
  9 22  1  0
 10 11  1  0
 11 12  2  0
 12 13  1  0
 13 14  1  0
 13 22  2  0
 14 15  1  0
 14 21  1  0
 15 16  1  0
 16 17  1  0
 17 18  1  0
 18 19  1  6
 18 21  1  0
 19 20  1  0
M  CHG  1  12   1
M  END
