
     RDKit          3D

 23 25  0  0  0  0  0  0  0  0999 V2000
   -4.6070    1.8930   -0.6380 C   0  0  0  0  0  0  0  0  0  0  0  0
   -3.1850    1.6760   -0.2980 C   0  0  0  0  0  0  0  0  0  0  0  0
   -2.9370    0.3010    0.3470 C   0  0  1  0  0  0  0  0  0  0  0  0
   -3.4400   -0.7150   -0.7170 C   0  0  0  0  0  0  0  0  0  0  0  0
   -3.2640   -2.0760   -0.3480 N   0  0  0  0  0  0  0  0  0  0  0  0
   -1.4900    0.0970    0.5120 C   0  0  0  0  0  0  0  0  0  0  0  0
   -0.6780    0.2900   -0.6130 C   0  0  0  0  0  0  0  0  0  0  0  0
    0.6590   -0.0420   -0.5160 C   0  0  0  0  0  0  0  0  0  0  0  0
    1.1730   -0.5370    0.6520 C   0  0  0  0  0  0  0  0  0  0  0  0
    0.3630   -0.7290    1.7700 C   0  0  0  0  0  0  0  0  0  0  0  0
   -0.9820   -0.4040    1.6820 C   0  0  0  0  0  0  0  0  0  0  0  0
   -1.8030   -0.5490    2.8600 N   0  0  0  0  0  0  0  0  0  0  0  0
    2.5910   -0.7900    0.9290 C   0  0  0  0  0  0  0  0  0  0  0  0
    3.6240   -0.5200    0.1620 C   0  0  0  0  0  0  0  0  0  0  0  0
    4.8000   -0.9210    0.8150 O   0  0  0  0  0  0  0  0  0  0  0  0
    6.0450   -0.2950    0.4430 C   0  0  0  0  0  0  0  0  0  0  0  0
    5.6670    1.0940    0.0020 C   0  0  0  0  0  0  0  0  0  0  0  0
    6.2750    2.0530    0.5180 O   0  0  0  0  0  0  0  0  0  0  0  0
    4.6740    1.2430   -0.9420 O   0  0  0  0  0  0  0  0  0  0  0  0
    3.8590    0.0780   -1.1560 C   0  0  2  0  0  0  0  0  0  0  0  0
    2.6960    0.3040   -2.0000 C   0  0  0  0  0  0  0  0  0  0  0  0
    3.0020    0.7450   -3.1480 O   0  0  0  0  0  0  0  0  0  0  0  0
    1.3210    0.1220   -1.7790 N   0  0  0  0  0  0  0  0  0  0  0  0
  1  2  1  0
  3  2  1  6
  3  4  1  0
  3  6  1  0
  4  5  1  0
  6  7  2  0
  6 11  1  0
  7  8  1  0
  8  9  2  0
  8 23  1  0
  9 10  1  0
  9 13  1  0
 10 11  2  0
 11 12  1  0
 13 14  2  0
 14 15  1  0
 14 20  1  0
 15 16  1  0
 16 17  1  0
 17 18  2  0
 17 19  1  0
 20 19  1  1
 20 21  1  0
 21 22  2  0
 21 23  1  0
M  CHG  1   5   1
M  END
