
     RDKit          3D

 14 14  0  0  0  0  0  0  0  0999 V2000
   -1.3230   -2.5070    0.2410 N   0  0  0  0  0  0  0  0  0  0  0  0
   -0.9050   -1.2850   -0.4660 C   0  0  2  0  0  0  0  0  0  0  0  0
    0.5680   -1.3400   -0.6120 C   0  0  0  0  0  0  0  0  0  0  0  0
    1.2600   -0.0320   -0.7180 C   0  0  2  0  0  0  0  0  0  0  0  0
    2.7180   -0.1890   -0.3180 C   0  0  1  0  0  0  0  0  0  0  0  0
    3.3750    1.0470   -0.4170 O   0  0  0  0  0  0  0  0  0  0  0  0
    2.7730   -0.6900    0.9870 O   0  0  0  0  0  0  0  0  0  0  0  0
    0.6770    1.0520    0.1400 C   0  0  0  0  0  0  0  0  0  0  0  0
   -0.8030    1.1690   -0.1220 C   0  0  2  0  0  0  0  0  0  0  0  0
   -1.0110    1.3800   -1.4620 O   0  0  0  0  0  0  0  0  0  0  0  0
   -1.3560    2.3310    0.6520 C   0  0  0  0  0  0  0  0  0  0  0  0
   -2.7220    2.4840    0.4330 O   0  0  0  0  0  0  0  0  0  0  0  0
   -1.4420   -0.1330    0.2940 C   0  0  2  0  0  0  0  0  0  0  0  0
   -1.2120   -0.3710    1.6650 O   0  0  0  0  0  0  0  0  0  0  0  0
  2  1  1  1
  2  3  1  0
  2 13  1  0
  4  3  1  1
  4  5  1  0
  4  8  1  0
  5  6  1  1
  5  7  1  0
  8  9  1  0
  9 10  1  6
  9 11  1  0
  9 13  1  0
 11 12  1  0
 13 14  1  1
M  CHG  1   1   1
M  END
