
     RDKit          3D

 14 14  0  0  0  0  0  0  0  0999 V2000
    2.2870   -0.1680   -1.4460 N   0  0  0  0  0  0  0  0  0  0  0  0
    1.8200    0.1460   -0.1230 C   0  0  1  0  0  0  0  0  0  0  0  0
    2.0100    1.6410    0.1130 C   0  0  0  0  0  0  0  0  0  0  0  0
    3.3560    1.9780   -0.0010 O   0  0  0  0  0  0  0  0  0  0  0  0
    0.3670   -0.2390    0.0970 C   0  0  1  0  0  0  0  0  0  0  0  0
   -0.3950    0.4360   -0.7940 O   0  0  0  0  0  0  0  0  0  0  0  0
   -1.7340    0.3670   -0.6970 C   0  0  2  0  0  0  0  0  0  0  0  0
   -2.2230    1.6790   -0.0600 C   0  0  0  0  0  0  0  0  0  0  0  0
   -1.8670    2.7630   -0.8370 O   0  0  0  0  0  0  0  0  0  0  0  0
   -2.3030   -0.7450    0.1230 C   0  0  0  0  0  0  0  0  0  0  0  0
   -1.6660   -0.9760    1.3100 O   0  0  0  0  0  0  0  0  0  0  0  0
   -0.8170   -2.0740    1.1760 C   0  0  0  0  0  0  0  0  0  0  0  0
    0.1900   -1.7210    0.1020 C   0  0  1  0  0  0  0  0  0  0  0  0
   -0.1590   -2.2400   -1.1440 O   0  0  0  0  0  0  0  0  0  0  0  0
  2  1  1  6
  2  3  1  0
  2  5  1  0
  3  4  1  0
  5  6  1  6
  5 13  1  0
  6  7  1  0
  7  8  1  1
  7 10  1  0
  8  9  1  0
 10 11  1  0
 11 12  1  0
 12 13  1  0
 13 14  1  6
M  CHG  1   1   1
M  END
