
     RDKit          3D

 13 14  0  0  0  0  0  0  0  0999 V2000
   -2.8190    1.0540    0.0450 N   0  0  0  0  0  0  0  0  0  0  0  0
   -1.3860    0.9600   -0.1100 C   0  0  1  0  0  0  0  0  0  0  0  0
   -0.6040    0.7910    1.1700 C   0  0  1  0  0  0  0  0  0  0  0  0
   -1.3010    0.8220    2.3750 O   0  0  0  0  0  0  0  0  0  0  0  0
   -0.6730   -0.3140    0.2620 C   0  0  1  0  0  0  0  0  0  0  0  0
   -1.5620   -1.5100    0.3810 C   0  0  0  0  0  0  0  0  0  0  0  0
   -1.4390   -2.2230   -0.7800 O   0  0  0  0  0  0  0  0  0  0  0  0
   -0.4160   -1.7300   -1.5370 C   0  0  0  0  0  0  0  0  0  0  0  0
    0.4350   -0.8400   -0.6090 C   0  0  1  0  0  0  0  0  0  0  0  0
    1.0080    0.1910   -1.2840 O   0  0  0  0  0  0  0  0  0  0  0  0
    2.3470    0.3740   -1.1940 C   0  0  0  0  0  0  0  0  0  0  0  0
    2.9140    0.6620    0.1580 C   0  0  0  0  0  0  0  0  0  0  0  0
    2.7110   -0.2960    1.1150 O   0  0  0  0  0  0  0  0  0  0  0  0
  2  1  1  1
  2  3  1  0
  2  5  1  0
  3  4  1  1
  3  5  1  0
  5  6  1  1
  5  9  1  0
  6  7  1  0
  7  8  1  0
  8  9  1  0
  9 10  1  6
 10 11  1  0
 11 12  1  0
 12 13  1  0
M  CHG  1   1   1
M  END
