
     RDKit          3D

 14 15  0  0  0  0  0  0  0  0999 V2000
    1.8140    1.5510   -0.8780 C   0  0  0  0  0  0  0  0  0  0  0  0
    1.4640    0.1010   -0.7320 C   0  0  1  0  0  0  0  0  0  0  0  0
    1.4570   -0.6060   -1.9030 O   0  0  0  0  0  0  0  0  0  0  0  0
    2.5220   -0.5140    0.1950 C   0  0  0  0  0  0  0  0  0  0  0  0
    2.0390   -0.2420    1.5100 O   0  0  0  0  0  0  0  0  0  0  0  0
    0.7440    0.2350    1.4620 C   0  0  0  0  0  0  0  0  0  0  0  0
    0.1320    0.8350    2.3840 O   0  0  0  0  0  0  0  0  0  0  0  0
    0.2220   -0.1010    0.1110 C   0  0  1  0  0  0  0  0  0  0  0  0
   -0.9030    0.8050   -0.2630 C   0  0  0  0  0  0  0  0  0  0  0  0
   -2.0770   -0.1720   -0.3260 C   0  0  2  0  0  0  0  0  0  0  0  0
   -2.5920   -0.3750    1.0200 N   0  0  0  0  0  0  0  0  0  0  0  0
   -1.3620   -1.4380   -0.7310 C   0  0  1  0  0  0  0  0  0  0  0  0
   -1.0370   -1.4360   -2.0860 O   0  0  0  0  0  0  0  0  0  0  0  0
   -0.2120   -1.4030    0.0200 O   0  0  0  0  0  0  0  0  0  0  0  0
  2  1  1  6
  2  3  1  0
  2  4  1  0
  2  8  1  0
  4  5  1  0
  5  6  1  0
  6  7  2  0
  6  8  1  0
  8  9  1  6
  8 14  1  0
  9 10  1  0
 10 11  1  1
 10 12  1  0
 12 13  1  6
 12 14  1  0
M  CHG  1  11   1
M  END
