
     RDKit          3D

 13 14  0  0  0  0  0  0  0  0999 V2000
    0.1890    1.4680   -0.0670 N   0  0  0  0  0  0  0  0  0  0  0  0
   -0.1550    0.0960   -0.1250 C   0  0  1  0  0  0  0  0  0  0  0  0
    0.6350   -0.8250   -0.9390 C   0  0  2  0  0  0  0  0  0  0  0  0
   -0.0380   -2.0990   -0.8200 O   0  0  0  0  0  0  0  0  0  0  0  0
    2.0390   -1.1300   -0.6420 C   0  0  0  0  0  0  0  0  0  0  0  0
    3.0690   -0.0750   -0.6320 C   0  0  1  0  0  0  0  0  0  0  0  0
    3.0700    1.0040    0.2040 O   0  0  0  0  0  0  0  0  0  0  0  0
    3.8890   -0.0430    0.5120 O   0  0  0  0  0  0  0  0  0  0  0  0
   -0.3830   -0.4000    1.3050 C   0  0  0  0  0  0  0  0  0  0  0  0
   -1.5460    0.5090    1.7140 C   0  0  0  0  0  0  0  0  0  0  0  0
   -2.4580    0.4560    0.5060 C   0  0  1  0  0  0  0  0  0  0  0  0
   -3.0010    1.6890    0.1870 O   0  0  0  0  0  0  0  0  0  0  0  0
   -1.6110   -0.0240   -0.6290 C   0  0  0  0  0  0  0  0  0  0  0  0
  2  1  1  1
  2  3  1  0
  2  9  1  0
  2 13  1  0
  3  4  1  1
  3  5  1  0
  6  5  1  1
  6  7  1  0
  6  8  1  0
  7  8  1  0
  9 10  1  0
 10 11  1  0
 11 12  1  6
 11 13  1  0
M  CHG  1   1   1
M  END
