
     RDKit          3D

 14 15  0  0  0  0  0  0  0  0999 V2000
    0.1250    1.3770    1.5780 C   0  0  0  0  0  0  0  0  0  0  0  0
   -0.5000    0.7730    0.3740 C   0  0  1  0  0  0  0  0  0  0  0  0
   -0.6050    1.8380   -0.7010 C   0  0  0  0  0  0  0  0  0  0  0  0
    0.4080    1.3660   -1.7040 C   0  0  0  0  0  0  0  0  0  0  0  0
    0.3230   -0.0040   -1.6440 O   0  0  0  0  0  0  0  0  0  0  0  0
    0.1840   -0.3270   -0.2960 C   0  0  1  0  0  0  0  0  0  0  0  0
    1.4650   -0.8440    0.2250 C   0  0  0  0  0  0  0  0  0  0  0  0
    2.5940    0.0470    0.1400 N   0  0  0  0  0  0  0  0  0  0  0  0
   -0.8360   -1.4710   -0.1310 C   0  0  2  0  0  0  0  0  0  0  0  0
   -0.7150   -1.9160    1.1790 O   0  0  0  0  0  0  0  0  0  0  0  0
   -0.6920   -2.4380   -1.0780 O   0  0  0  0  0  0  0  0  0  0  0  0
   -2.1130   -0.6760   -0.2340 C   0  0  1  0  0  0  0  0  0  0  0  0
   -3.1510   -1.4120    0.3280 O   0  0  0  0  0  0  0  0  0  0  0  0
   -1.8390    0.3840    0.6270 O   0  0  0  0  0  0  0  0  0  0  0  0
  2  1  1  1
  2  3  1  0
  2  6  1  0
  2 14  1  0
  3  4  1  0
  4  5  1  0
  5  6  1  0
  6  7  1  1
  6  9  1  0
  7  8  1  0
  9 10  1  1
  9 11  1  0
  9 12  1  0
 12 13  1  1
 12 14  1  0
M  CHG  1   8   1
M  END
