
     RDKit          3D

 13 14  0  0  0  0  0  0  0  0999 V2000
    1.1560   -0.2200    1.8980 N   0  0  0  0  0  0  0  0  0  0  0  0
    0.7440    0.2620    0.5810 C   0  0  1  0  0  0  0  0  0  0  0  0
    1.4740    1.5760    0.3110 C   0  0  0  0  0  0  0  0  0  0  0  0
    2.6090    1.1380   -0.5610 C   0  0  0  0  0  0  0  0  0  0  0  0
    2.0150    0.1530   -1.3620 O   0  0  0  0  0  0  0  0  0  0  0  0
    1.2530   -0.6290   -0.4920 C   0  0  2  0  0  0  0  0  0  0  0  0
    0.2190   -1.4340   -1.2030 C   0  0  0  0  0  0  0  0  0  0  0  0
   -0.8090   -1.7210   -0.2780 O   0  0  0  0  0  0  0  0  0  0  0  0
   -1.5270   -0.5300   -0.1430 C   0  0  1  0  0  0  0  0  0  0  0  0
   -1.9160   -0.1500   -1.4280 O   0  0  0  0  0  0  0  0  0  0  0  0
   -2.7850   -0.8020    0.6560 C   0  0  0  0  0  0  0  0  0  0  0  0
   -3.4810    0.3970    0.7720 O   0  0  0  0  0  0  0  0  0  0  0  0
   -0.7210    0.5390    0.5470 C   0  0  0  0  0  0  0  0  0  0  0  0
  2  1  1  1
  2  3  1  0
  2  6  1  0
  2 13  1  0
  3  4  1  0
  4  5  1  0
  5  6  1  0
  6  7  1  6
  7  8  1  0
  8  9  1  0
  9 10  1  6
  9 11  1  0
  9 13  1  0
 11 12  1  0
M  CHG  1   1   1
M  END
