
     RDKit          3D

 27 29  0  0  0  0  0  0  0  0999 V2000
   -5.7610    1.8340    1.7380 C   0  0  0  0  0  0  0  0  0  0  0  0
   -4.7330    2.2970    1.1050 C   0  0  0  0  0  0  0  0  0  0  0  0
   -3.6340    1.4840    0.6300 C   0  0  0  0  0  0  0  0  0  0  0  0
   -2.6260    2.0800   -0.0110 C   0  0  0  0  0  0  0  0  0  0  0  0
   -1.4770    1.3600   -0.5280 C   0  0  0  0  0  0  0  0  0  0  0  0
   -1.3470    0.0410   -0.3950 C   0  0  0  0  0  0  0  0  0  0  0  0
   -0.1060   -0.5760   -0.9700 C   0  0  0  0  0  0  0  0  0  0  0  0
    1.0320    0.3330   -0.3840 C   0  0  1  0  0  0  0  0  0  0  0  0
    2.3330   -0.2730   -0.6820 C   0  0  0  0  0  0  0  0  0  0  0  0
    2.4590   -1.1330   -1.7870 C   0  0  0  0  0  0  0  0  0  0  0  0
    3.6530   -1.7080   -2.1500 C   0  0  0  0  0  0  0  0  0  0  0  0
    4.7710   -1.4380   -1.4140 C   0  0  0  0  0  0  0  0  0  0  0  0
    4.6990   -0.5860   -0.3010 C   0  0  0  0  0  0  0  0  0  0  0  0
    5.9160   -0.2900    0.3840 C   0  0  0  0  0  0  0  0  0  0  0  0
    6.0070    0.5190    1.3110 O   0  0  0  0  0  0  0  0  0  0  0  0
    7.0930   -0.9290    0.0150 O   0  0  0  0  0  0  0  0  0  0  0  0
    3.4670   -0.0200    0.0420 C   0  0  0  0  0  0  0  0  0  0  0  0
    3.4090    0.8100    1.2410 C   0  0  0  0  0  0  0  0  0  0  0  0
    3.5890    2.2620    1.1150 C   0  0  0  0  0  0  0  0  0  0  0  0
    0.9210    1.6390   -1.1310 C   0  0  0  0  0  0  0  0  0  0  0  0
   -0.4530    2.1240   -1.2740 C   0  0  0  0  0  0  0  0  0  0  0  0
   -2.3770   -0.7170    0.2830 C   0  0  0  0  0  0  0  0  0  0  0  0
   -2.3160   -2.0150    0.4040 C   0  0  0  0  0  0  0  0  0  0  0  0
   -3.2440   -2.9270    1.0460 C   0  0  0  0  0  0  0  0  0  0  0  0
   -3.9200   -3.8700    0.0500 C   0  0  0  0  0  0  0  0  0  0  0  0
   -3.5440    0.0340    0.8030 C   0  0  0  0  0  0  0  0  0  0  0  0
   -4.4740   -0.5670    1.4000 O   0  0  0  0  0  0  0  0  0  0  0  0
  1  2  2  0
  2  3  1  0
  3  4  2  0
  3 26  1  0
  4  5  1  0
  5  6  2  0
  5 21  1  0
  6  7  1  0
  6 22  1  0
  7  8  1  0
  8  9  1  6
  8 20  1  0
  9 10  2  0
  9 17  1  0
 10 11  1  0
 11 12  2  0
 12 13  1  0
 13 14  1  0
 13 17  2  0
 14 15  2  0
 14 16  1  0
 17 18  1  0
 18 19  1  0
 20 21  1  0
 22 23  2  3
 22 26  1  0
 23 24  1  0
 24 25  1  0
 26 27  2  0
M  CHG  1  16  -1
M  END
