
     RDKit          3D

 26 28  0  0  0  0  0  0  0  0999 V2000
    1.4440    1.4340   -0.0160 C   0  0  0  0  0  0  0  0  0  0  0  0
    1.9930    0.0920    0.2590 C   0  0  0  0  0  0  0  0  0  0  0  0
    3.2380   -0.0350    0.6840 C   0  0  0  0  0  0  0  0  0  0  0  0
    4.1080    1.1450    0.8810 C   0  0  0  0  0  0  0  0  0  0  0  0
    5.3730    1.0490    0.0010 C   0  0  0  0  0  0  0  0  0  0  0  0
    6.2070    2.2530    0.2320 C   0  0  0  0  0  0  0  0  0  0  0  0
    5.8270    3.1340    1.0410 O   0  0  0  0  0  0  0  0  0  0  0  0
    7.4090    2.4420   -0.4250 O   0  0  0  0  0  0  0  0  0  0  0  0
    3.7310   -1.3670    1.0050 C   0  0  0  0  0  0  0  0  0  0  0  0
    4.8980   -1.5340    1.4110 O   0  0  0  0  0  0  0  0  0  0  0  0
    2.8650   -2.5120    0.8550 C   0  0  0  0  0  0  0  0  0  0  0  0
    1.6180   -2.3960    0.4280 C   0  0  0  0  0  0  0  0  0  0  0  0
    0.5670   -3.4050    0.1990 C   0  0  0  0  0  0  0  0  0  0  0  0
   -0.5500   -2.6300   -0.3050 C   0  0  0  0  0  0  0  0  0  0  0  0
   -0.0860   -1.1610   -0.4550 C   0  0  0  0  0  0  0  0  0  0  0  0
   -0.9450   -0.2050   -1.1800 C   0  0  2  0  0  0  0  0  0  0  0  0
   -0.4010    0.7130   -2.1920 C   0  0  0  0  0  0  0  0  0  0  0  0
   -2.2390    0.1090   -0.5630 C   0  0  0  0  0  0  0  0  0  0  0  0
   -3.2830   -0.8100   -0.5650 C   0  0  0  0  0  0  0  0  0  0  0  0
   -4.5280   -0.5580   -0.0010 C   0  0  0  0  0  0  0  0  0  0  0  0
   -5.6240   -1.5610   -0.0180 C   0  0  0  0  0  0  0  0  0  0  0  0
   -4.7740    0.6560    0.5990 C   0  0  0  0  0  0  0  0  0  0  0  0
   -3.7640    1.6030    0.6240 C   0  0  0  0  0  0  0  0  0  0  0  0
   -4.0010    2.9310    1.2680 C   0  0  0  0  0  0  0  0  0  0  0  0
   -2.5430    1.3240    0.0570 C   0  0  0  0  0  0  0  0  0  0  0  0
    1.0820   -1.0730    0.0910 C   0  0  0  0  0  0  0  0  0  0  0  0
  1  2  1  0
  2  3  2  0
  2 26  1  0
  3  4  1  0
  3  9  1  0
  4  5  1  0
  5  6  1  0
  6  7  2  0
  6  8  1  0
  9 10  2  0
  9 11  1  0
 11 12  2  0
 12 13  1  0
 12 26  1  0
 13 14  1  0
 14 15  1  0
 15 16  1  0
 15 26  2  0
 16 17  1  1
 16 18  1  0
 18 19  2  0
 18 25  1  0
 19 20  1  0
 20 21  1  0
 20 22  2  0
 22 23  1  0
 23 24  1  0
 23 25  2  0
M  CHG  1   8  -1
M  END
