
     RDKit          3D

 26 28  0  0  0  0  0  0  0  0999 V2000
   -3.8260    1.8540    0.2570 C   0  0  0  0  0  0  0  0  0  0  0  0
   -3.1510    1.2120    1.4560 C   0  0  2  0  0  0  0  0  0  0  0  0
   -4.0100    1.3290    2.6680 C   0  0  0  0  0  0  0  0  0  0  0  0
   -1.8160    1.8670    1.7470 C   0  0  0  0  0  0  0  0  0  0  0  0
   -0.9090    1.1610    0.7810 C   0  0  0  0  0  0  0  0  0  0  0  0
    0.3220    1.4560    0.2170 C   0  0  0  0  0  0  0  0  0  0  0  0
    0.9670    0.6270   -0.6690 C   0  0  0  0  0  0  0  0  0  0  0  0
    2.2640    0.9030   -1.2520 C   0  0  0  0  0  0  0  0  0  0  0  0
    2.3820    1.0240   -2.6460 C   0  0  0  0  0  0  0  0  0  0  0  0
    3.5530    1.3250   -3.2810 C   0  0  0  0  0  0  0  0  0  0  0  0
    4.7020    1.5260   -2.5240 C   0  0  0  0  0  0  0  0  0  0  0  0
    4.6160    1.4130   -1.1610 C   0  0  0  0  0  0  0  0  0  0  0  0
    3.3980    1.1000   -0.5170 C   0  0  0  0  0  0  0  0  0  0  0  0
    3.3740    0.9420    0.9510 C   0  0  0  0  0  0  0  0  0  0  0  0
    3.4000   -0.5730    1.2170 C   0  0  0  0  0  0  0  0  0  0  0  0
    3.3740   -0.8530    2.6600 C   0  0  0  0  0  0  0  0  0  0  0  0
    3.4030   -2.0050    3.1530 O   0  0  0  0  0  0  0  0  0  0  0  0
    3.3120    0.2280    3.5500 O   0  0  0  0  0  0  0  0  0  0  0  0
    0.2990   -0.5640   -0.9830 C   0  0  0  0  0  0  0  0  0  0  0  0
   -0.9260   -0.8950   -0.4460 C   0  0  0  0  0  0  0  0  0  0  0  0
   -1.6100   -2.1670   -0.8000 C   0  0  1  0  0  0  0  0  0  0  0  0
   -1.8110   -2.9780    0.4600 C   0  0  0  0  0  0  0  0  0  0  0  0
   -2.9280   -1.9160   -1.5150 C   0  0  0  0  0  0  0  0  0  0  0  0
   -0.7520   -2.9830   -1.7320 C   0  0  0  0  0  0  0  0  0  0  0  0
   -1.5390   -0.0190    0.4500 C   0  0  0  0  0  0  0  0  0  0  0  0
   -2.7570   -0.0970    1.1370 O   0  0  0  0  0  0  0  0  0  0  0  0
  2  1  1  6
  2  3  1  0
  2  4  1  0
  2 26  1  0
  4  5  1  0
  5  6  2  0
  5 25  1  0
  6  7  1  0
  7  8  1  0
  7 19  2  0
  8  9  2  0
  8 13  1  0
  9 10  1  0
 10 11  2  0
 11 12  1  0
 12 13  2  0
 13 14  1  0
 14 15  1  0
 15 16  1  0
 16 17  2  0
 16 18  1  0
 19 20  1  0
 20 21  1  0
 20 25  2  0
 21 22  1  1
 21 23  1  0
 21 24  1  0
 25 26  1  0
M  CHG  1  18  -1
M  END
