
     RDKit          3D

 27 29  0  0  0  0  0  0  0  0999 V2000
    7.9530   -0.6730    0.4090 C   0  0  0  0  0  0  0  0  0  0  0  0
    6.6250   -0.0980    0.1760 C   0  0  0  0  0  0  0  0  0  0  0  0
    5.5260   -0.6690    0.7580 C   0  0  0  0  0  0  0  0  0  0  0  0
    4.2540   -0.1550    0.5630 C   0  0  0  0  0  0  0  0  0  0  0  0
    4.0110    0.9340   -0.2110 C   0  0  0  0  0  0  0  0  0  0  0  0
    2.7320    1.4790   -0.5130 C   0  0  0  0  0  0  0  0  0  0  0  0
    2.7730    2.7140   -1.0040 O   0  0  0  0  0  0  0  0  0  0  0  0
    1.4360    0.9610   -0.3930 C   0  0  0  0  0  0  0  0  0  0  0  0
    1.0350   -0.2200   -0.0200 C   0  0  0  0  0  0  0  0  0  0  0  0
   -0.4170   -0.5150    0.0290 C   0  0  0  0  0  0  0  0  0  0  0  0
   -0.8210   -1.7030    0.3930 C   0  0  0  0  0  0  0  0  0  0  0  0
    0.0380   -2.8020    0.7680 C   0  0  0  0  0  0  0  0  0  0  0  0
    1.2560   -2.7750    0.7990 O   0  0  0  0  0  0  0  0  0  0  0  0
   -0.5650   -4.0250    1.1350 O   0  0  0  0  0  0  0  0  0  0  0  0
   -2.2880   -1.9050    0.4150 C   0  0  0  0  0  0  0  0  0  0  0  0
   -3.1870   -1.0060    0.1090 C   0  0  0  0  0  0  0  0  0  0  0  0
   -4.6100   -1.3080    0.1560 C   0  0  0  0  0  0  0  0  0  0  0  0
   -5.5920   -0.5130   -0.1340 C   0  0  0  0  0  0  0  0  0  0  0  0
   -5.7160    0.8620   -0.5800 C   0  0  0  0  0  0  0  0  0  0  0  0
   -7.1880    1.2490   -0.3680 C   0  0  0  0  0  0  0  0  0  0  0  0
   -7.7140    0.1630    0.5750 C   0  0  0  0  0  0  0  0  0  0  0  0
   -7.0300   -1.0410   -0.0320 C   0  0  0  0  0  0  0  0  0  0  0  0
   -2.7670    0.3710   -0.2350 C   0  0  0  0  0  0  0  0  0  0  0  0
   -1.3030    0.5900   -0.3490 C   0  0  0  0  0  0  0  0  0  0  0  0
    5.1710    1.5070   -0.8020 C   0  0  0  0  0  0  0  0  0  0  0  0
    6.4240    1.0030   -0.6100 C   0  0  0  0  0  0  0  0  0  0  0  0
    7.5790    1.6460   -1.2520 C   0  0  0  0  0  0  0  0  0  0  0  0
  1  2  1  0
  2  3  2  0
  2 26  1  0
  3  4  1  0
  4  5  2  0
  5  6  1  0
  5 25  1  0
  6  7  2  0
  6  8  1  0
  8  9  2  3
  9 10  1  0
 10 11  2  0
 10 24  1  0
 11 12  1  0
 11 15  1  0
 12 13  2  0
 12 14  1  0
 15 16  2  0
 16 17  1  0
 16 23  1  0
 17 18  2  3
 18 19  1  0
 18 22  1  0
 19 20  1  0
 20 21  1  0
 21 22  1  0
 23 24  1  0
 25 26  2  0
 26 27  1  0
M  CHG  1  14  -1
M  END
