
     RDKit          3D

 27 29  0  0  0  0  0  0  0  0999 V2000
   -1.6120    0.5800    2.8380 C   0  0  0  0  0  0  0  0  0  0  0  0
   -2.0250    1.4400    1.7710 O   0  0  0  0  0  0  0  0  0  0  0  0
   -2.7680    0.8450    0.7640 C   0  0  0  0  0  0  0  0  0  0  0  0
   -4.1370    0.8240    0.9030 C   0  0  0  0  0  0  0  0  0  0  0  0
   -4.7940    1.4180    2.1060 C   0  0  0  0  0  0  0  0  0  0  0  0
   -4.9000    0.2410   -0.0770 C   0  0  0  0  0  0  0  0  0  0  0  0
   -4.3180   -0.3180   -1.1890 C   0  0  0  0  0  0  0  0  0  0  0  0
   -5.1450   -0.9470   -2.2590 C   0  0  0  0  0  0  0  0  0  0  0  0
   -2.9240   -0.2890   -1.3170 C   0  0  0  0  0  0  0  0  0  0  0  0
   -2.1240    0.2860   -0.3540 C   0  0  0  0  0  0  0  0  0  0  0  0
   -0.7020    0.4180   -0.3840 C   0  0  0  0  0  0  0  0  0  0  0  0
    0.2330   -0.4790   -0.5000 C   0  0  0  0  0  0  0  0  0  0  0  0
   -0.2020   -1.9170   -0.6200 C   0  0  0  0  0  0  0  0  0  0  0  0
    1.6410   -0.1310   -0.6660 C   0  0  0  0  0  0  0  0  0  0  0  0
    1.9960    0.9230   -1.4880 C   0  0  0  0  0  0  0  0  0  0  0  0
    1.1350    1.5280   -2.4740 C   0  0  0  0  0  0  0  0  0  0  0  0
    1.5280    2.5560   -3.0790 O   0  0  0  0  0  0  0  0  0  0  0  0
   -0.0940    1.0430   -2.8040 O   0  0  0  0  0  0  0  0  0  0  0  0
    3.3490    1.3350   -1.4630 C   0  0  0  0  0  0  0  0  0  0  0  0
    4.2760    0.7230   -0.6710 C   0  0  0  0  0  0  0  0  0  0  0  0
    5.5900    1.1570   -0.6890 C   0  0  0  0  0  0  0  0  0  0  0  0
    6.5430    0.5430    0.1000 C   0  0  0  0  0  0  0  0  0  0  0  0
    6.1580   -0.5100    0.9060 C   0  0  0  0  0  0  0  0  0  0  0  0
    4.8410   -0.9430    0.9230 C   0  0  0  0  0  0  0  0  0  0  0  0
    3.8950   -0.3320    0.1380 C   0  0  0  0  0  0  0  0  0  0  0  0
    2.5630   -0.7660    0.1460 C   0  0  0  0  0  0  0  0  0  0  0  0
    2.1860   -1.8270    1.0760 C   0  0  0  0  0  0  0  0  0  0  0  0
  1  2  1  0
  2  3  1  0
  3  4  2  0
  3 10  1  0
  4  5  1  0
  4  6  1  0
  6  7  2  0
  7  8  1  0
  7  9  1  0
  9 10  2  0
 10 11  1  0
 11 12  2  3
 12 13  1  0
 12 14  1  0
 14 15  2  0
 14 26  1  0
 15 16  1  0
 15 19  1  0
 16 17  2  0
 16 18  1  0
 19 20  2  0
 20 21  1  0
 20 25  1  0
 21 22  2  0
 22 23  1  0
 23 24  2  0
 24 25  1  0
 25 26  2  0
 26 27  1  0
M  CHG  1  18  -1
M  END
