
     RDKit          3D

 27 29  0  0  0  0  0  0  0  0999 V2000
   -7.1410    0.5890   -0.6880 C   0  0  0  0  0  0  0  0  0  0  0  0
   -5.6780    0.2920   -0.6850 C   0  0  0  0  0  0  0  0  0  0  0  0
   -5.1400   -0.5560   -1.6520 C   0  0  0  0  0  0  0  0  0  0  0  0
   -3.7950   -0.8170   -1.6270 C   0  0  0  0  0  0  0  0  0  0  0  0
   -2.9260   -0.2890   -0.6980 C   0  0  0  0  0  0  0  0  0  0  0  0
   -1.4880   -0.6240   -0.7340 C   0  0  0  0  0  0  0  0  0  0  0  0
   -1.0880   -1.8720   -1.1880 C   0  0  0  0  0  0  0  0  0  0  0  0
    0.2450   -2.1860   -1.2160 C   0  0  0  0  0  0  0  0  0  0  0  0
    0.6530   -3.4920   -1.6990 C   0  0  0  0  0  0  0  0  0  0  0  0
    1.8810   -3.7630   -1.7260 O   0  0  0  0  0  0  0  0  0  0  0  0
   -0.2230   -4.4720   -2.1370 O   0  0  0  0  0  0  0  0  0  0  0  0
    1.1770   -1.2730   -0.7980 C   0  0  0  0  0  0  0  0  0  0  0  0
    0.8310    0.0020   -0.3290 C   0  0  0  0  0  0  0  0  0  0  0  0
    1.8580    0.9290    0.1220 C   0  0  0  0  0  0  0  0  0  0  0  0
    1.6400    2.1410    0.1160 O   0  0  0  0  0  0  0  0  0  0  0  0
    3.1200    0.3810    0.5690 C   0  0  0  0  0  0  0  0  0  0  0  0
    3.1410   -0.7940    1.3380 C   0  0  0  0  0  0  0  0  0  0  0  0
    4.2840   -1.3650    1.8150 C   0  0  0  0  0  0  0  0  0  0  0  0
    5.4710   -0.7400    1.5150 C   0  0  0  0  0  0  0  0  0  0  0  0
    5.4870    0.3980    0.7740 C   0  0  0  0  0  0  0  0  0  0  0  0
    6.8130    1.0400    0.4720 C   0  0  0  0  0  0  0  0  0  0  0  0
    4.2990    0.9740    0.2900 C   0  0  0  0  0  0  0  0  0  0  0  0
    4.4630    2.1830   -0.5060 C   0  0  0  0  0  0  0  0  0  0  0  0
   -0.5210    0.2650   -0.3230 C   0  0  0  0  0  0  0  0  0  0  0  0
   -3.4560    0.5460    0.2540 C   0  0  0  0  0  0  0  0  0  0  0  0
   -4.8250    0.8300    0.2520 C   0  0  0  0  0  0  0  0  0  0  0  0
   -5.4140    1.7410    1.2860 C   0  0  0  0  0  0  0  0  0  0  0  0
  1  2  1  0
  2  3  2  0
  2 26  1  0
  3  4  1  0
  4  5  2  0
  5  6  1  0
  5 25  1  0
  6  7  2  0
  6 24  1  0
  7  8  1  0
  8  9  1  0
  8 12  2  0
  9 10  2  0
  9 11  1  0
 12 13  1  0
 13 14  1  0
 13 24  2  0
 14 15  2  0
 14 16  1  0
 16 17  2  0
 16 22  1  0
 17 18  1  0
 18 19  2  0
 19 20  1  0
 20 21  1  0
 20 22  2  0
 22 23  1  0
 25 26  2  0
 26 27  1  0
M  CHG  1  11  -1
M  END
