
     RDKit          3D

 28 30  0  0  0  0  0  0  0  0999 V2000
   -4.1900    2.8510    0.5150 C   0  0  0  0  0  0  0  0  0  0  0  0
   -3.9280    1.5870   -0.2770 C   0  0  2  0  0  0  0  0  0  0  0  0
   -3.0930    1.8130   -1.4900 C   0  0  0  0  0  0  0  0  0  0  0  0
   -5.2030    0.8870   -0.6630 C   0  0  0  0  0  0  0  0  0  0  0  0
   -5.5120   -0.0100    0.4780 C   0  0  0  0  0  0  0  0  0  0  0  0
   -4.1500   -0.2500    1.0960 C   0  0  0  0  0  0  0  0  0  0  0  0
   -3.2740    0.6250    0.6850 C   0  0  0  0  0  0  0  0  0  0  0  0
   -1.8290    0.6420    1.1410 C   0  0  2  0  0  0  0  0  0  0  0  0
   -1.0920   -0.0380    0.2220 O   0  0  0  0  0  0  0  0  0  0  0  0
   -0.0050    0.5940   -0.3180 C   0  0  0  0  0  0  0  0  0  0  0  0
    0.7830   -0.5540   -1.5250 P   0  0  0  0  0  0  0  0  0  0  0  0
   -0.4800   -1.8060   -2.1570 C   0  0  0  0  0  0  0  0  0  0  0  0
    0.3090   -2.9510   -2.0540 O   0  0  0  0  0  0  0  0  0  0  0  0
    0.8170   -2.9970   -0.7810 C   0  0  0  0  0  0  0  0  0  0  0  0
    1.8610   -1.8330   -0.7140 C   0  0  2  0  0  0  0  0  0  0  0  0
    2.1250   -1.6310    0.7190 C   0  0  0  0  0  0  0  0  0  0  0  0
    3.0090   -2.2340   -1.5740 C   0  0  0  0  0  0  0  0  0  0  0  0
    3.8970   -1.1010   -1.9440 C   0  0  0  0  0  0  0  0  0  0  0  0
    4.5500   -0.4390   -0.8520 N   0  0  0  0  0  0  0  0  0  0  0  0
    5.4020    0.6720   -1.1640 C   0  0  0  0  0  0  0  0  0  0  0  0
    5.5670    1.0490   -2.3530 O   0  0  0  0  0  0  0  0  0  0  0  0
    6.0390    1.3200   -0.1180 O   0  0  0  0  0  0  0  0  0  0  0  0
    6.8960    2.4230   -0.3210 C   0  0  0  0  0  0  0  0  0  0  0  0
    7.4120    2.8820    0.9840 C   0  0  0  0  0  0  0  0  0  0  0  0
    7.0740    2.3130    2.0030 O   0  0  0  0  0  0  0  0  0  0  0  0
   -1.8600   -0.0600    2.4950 C   0  0  0  0  0  0  0  0  0  0  0  0
   -2.3890   -1.4640    2.2780 C   0  0  0  0  0  0  0  0  0  0  0  0
   -3.8650   -1.3720    2.0780 C   0  0  0  0  0  0  0  0  0  0  0  0
  2  1  1  1
  2  3  1  0
  2  4  1  0
  2  7  1  0
  4  5  1  0
  5  6  1  0
  6  7  2  0
  6 28  1  0
  7  8  1  0
  8  9  1  6
  8 26  1  0
  9 10  1  0
 10 11  1  0
 11 12  1  0
 11 15  1  0
 12 13  1  0
 13 14  1  0
 14 15  1  0
 15 16  1  1
 15 17  1  0
 17 18  1  0
 18 19  1  0
 19 20  1  0
 20 21  2  0
 20 22  1  0
 22 23  1  0
 23 24  1  0
 24 25  2  0
 26 27  1  0
 27 28  1  0
M  END
