
     RDKit          3D

 29 30  0  0  0  0  0  0  0  0999 V2000
   -4.4610   -3.4800   -0.9980 C   0  0  0  0  0  0  0  0  0  0  0  0
   -3.2360   -3.2890   -0.0890 C   0  0  2  0  0  0  0  0  0  0  0  0
   -3.2740   -4.4160    0.8120 N   0  0  0  0  0  0  0  0  0  0  0  0
   -3.0650   -1.6720    0.5730 P   0  0  0  0  0  0  0  0  0  0  0  0
   -3.2360   -2.0610    2.0470 O   0  0  0  0  0  0  0  0  0  0  0  0
   -4.4920   -0.7560    0.8030 O   0  0  0  0  0  0  0  0  0  0  0  0
   -1.5330   -0.9110    0.6920 C   0  0  0  0  0  0  0  0  0  0  0  0
   -1.4020    0.5380    0.2570 C   0  0  1  0  0  0  0  0  0  0  0  0
   -2.2430    1.4870    1.0230 C   0  0  0  0  0  0  0  0  0  0  0  0
   -2.1610    2.8980    0.6480 C   0  0  0  0  0  0  0  0  0  0  0  0
   -1.4210    3.8550    1.2980 C   0  0  0  0  0  0  0  0  0  0  0  0
   -1.3440    5.1780    0.8950 C   0  0  0  0  0  0  0  0  0  0  0  0
   -2.0440    5.5790   -0.2160 C   0  0  0  0  0  0  0  0  0  0  0  0
   -2.8020    4.6540   -0.9000 C   0  0  0  0  0  0  0  0  0  0  0  0
   -2.8610    3.3470   -0.4820 C   0  0  0  0  0  0  0  0  0  0  0  0
    0.0480    0.8600    0.2970 C   0  0  0  0  0  0  0  0  0  0  0  0
    0.5500    1.6990    1.0730 O   0  0  0  0  0  0  0  0  0  0  0  0
    0.9590    0.1900   -0.5890 N   0  0  0  0  0  0  0  0  0  0  0  0
    2.3670    0.4880   -0.5640 C   0  0  1  0  0  0  0  0  0  0  0  0
    3.0520   -0.8260   -0.1680 C   0  0  0  0  0  0  0  0  0  0  0  0
    4.5070   -0.7240   -0.0920 C   0  0  0  0  0  0  0  0  0  0  0  0
    5.2680   -1.0280   -1.2030 C   0  0  0  0  0  0  0  0  0  0  0  0
    6.6330   -0.9470   -1.1980 C   0  0  0  0  0  0  0  0  0  0  0  0
    7.2530   -0.5440   -0.0290 C   0  0  0  0  0  0  0  0  0  0  0  0
    6.5030   -0.2360    1.0940 C   0  0  0  0  0  0  0  0  0  0  0  0
    5.1340   -0.3210    1.0780 C   0  0  0  0  0  0  0  0  0  0  0  0
    2.7870    0.9090   -1.9100 C   0  0  0  0  0  0  0  0  0  0  0  0
    1.9660    0.9320   -2.8450 O   0  0  0  0  0  0  0  0  0  0  0  0
    4.0920    1.2790   -2.1380 O   0  0  0  0  0  0  0  0  0  0  0  0
  2  1  1  1
  2  3  1  0
  2  4  1  0
  4  5  1  0
  4  6  1  0
  4  7  1  0
  8  7  1  1
  8  9  1  0
  8 16  1  0
  9 10  1  0
 10 11  2  0
 10 15  1  0
 11 12  1  0
 12 13  2  0
 13 14  1  0
 14 15  2  0
 16 17  2  0
 16 18  1  0
 18 19  1  0
 19 20  1  6
 19 27  1  0
 20 21  1  0
 21 22  2  0
 21 26  1  0
 22 23  1  0
 23 24  2  0
 24 25  1  0
 25 26  2  0
 27 28  2  0
 27 29  1  0
M  CHG  1   3   1
M  END
