
     RDKit          3D

 28 29  0  0  0  0  0  0  0  0999 V2000
    2.0690    1.0240   -5.0490 C   0  0  0  0  0  0  0  0  0  0  0  0
    1.7670   -0.5150   -5.6350 P   0  0  0  0  0  0  0  0  0  0  0  0
    0.3080   -1.5210   -5.0930 C   0  0  2  0  0  0  0  0  0  0  0  0
   -0.8860   -0.7770   -4.9750 O   0  0  0  0  0  0  0  0  0  0  0  0
   -0.8440   -0.1390   -3.7130 C   0  0  0  0  0  0  0  0  0  0  0  0
   -1.6160    1.0580   -3.3840 C   0  0  0  0  0  0  0  0  0  0  0  0
   -0.0040   -0.7900   -2.9330 C   0  0  0  0  0  0  0  0  0  0  0  0
    0.3840   -0.5350   -1.5370 C   0  0  0  0  0  0  0  0  0  0  0  0
    1.3460   -1.2920   -1.0520 C   0  0  0  0  0  0  0  0  0  0  0  0
    1.6930   -0.9200    0.3360 C   0  0  0  0  0  0  0  0  0  0  0  0
    2.5620   -1.5440    1.0130 O   0  0  0  0  0  0  0  0  0  0  0  0
    0.9970    0.2100    0.9720 C   0  0  0  0  0  0  0  0  0  0  0  0
    1.7490    1.1160    1.6440 C   0  0  0  0  0  0  0  0  0  0  0  0
    3.1930    0.8030    1.6460 C   0  0  0  0  0  0  0  0  0  0  0  0
    4.3620    0.6370    1.6950 C   0  0  0  0  0  0  0  0  0  0  0  0
    5.5880    1.3520    2.2070 C   0  0  0  0  0  0  0  0  0  0  0  0
   -0.4070    0.2840    0.6920 C   0  0  2  0  0  0  0  0  0  0  0  0
   -1.1580    1.4570    1.0650 N   0  0  0  0  0  0  0  0  0  0  0  0
   -1.0750    2.6680    0.4230 C   0  0  0  0  0  0  0  0  0  0  0  0
   -1.1790    1.5990    2.5330 C   0  0  0  0  0  0  0  0  0  0  0  0
   -1.3490   -0.8410    0.9160 C   0  0  1  0  0  0  0  0  0  0  0  0
   -2.6730   -0.5240    0.1250 C   0  0  0  0  0  0  0  0  0  0  0  0
   -0.9930   -2.2040    0.4200 C   0  0  0  0  0  0  0  0  0  0  0  0
   -1.7550   -0.8470    2.2610 O   0  0  0  0  0  0  0  0  0  0  0  0
   -2.6110   -1.8670    2.5880 C   0  0  0  0  0  0  0  0  0  0  0  0
   -3.1880   -1.8100    3.9790 C   0  0  0  0  0  0  0  0  0  0  0  0
   -0.3010    0.4490   -0.8270 O   0  0  0  0  0  0  0  0  0  0  0  0
    0.5040   -1.8750   -3.7380 O   0  0  0  0  0  0  0  0  0  0  0  0
  1  2  2  0
  3  2  1  1
  3  4  1  0
  3 28  1  0
  4  5  1  0
  5  6  1  0
  5  7  2  0
  7  8  1  0
  7 28  1  0
  8  9  2  0
  8 27  1  0
  9 10  1  0
 10 11  2  0
 10 12  1  0
 12 13  2  3
 12 17  1  0
 13 14  1  0
 14 15  2  3
 15 16  1  0
 17 18  1  1
 17 21  1  0
 17 27  1  0
 18 19  1  0
 18 20  1  0
 21 22  1  6
 21 23  1  0
 21 24  1  0
 24 25  1  0
 25 26  1  0
M  END
