
     RDKit          3D

 28 28  0  0  0  0  0  0  0  0999 V2000
    6.8550    1.3910   -1.8740 C   0  0  0  0  0  0  0  0  0  0  0  0
    5.6290    0.9150   -2.0080 C   0  0  0  0  0  0  0  0  0  0  0  0
    5.3970   -0.5060   -2.3770 C   0  0  0  0  0  0  0  0  0  0  0  0
    4.6120   -1.1710   -1.2700 C   0  0  2  0  0  0  0  0  0  0  0  0
    4.3660   -2.6400   -1.6070 C   0  0  0  0  0  0  0  0  0  0  0  0
    3.2790   -0.5580   -1.0700 C   0  0  0  0  0  0  0  0  0  0  0  0
    2.8760    0.2890   -1.8960 O   0  0  0  0  0  0  0  0  0  0  0  0
    2.5000   -0.9650    0.0650 N   0  0  0  0  0  0  0  0  0  0  0  0
    2.9880   -1.9150    0.9920 C   0  0  0  0  0  0  0  0  0  0  0  0
    2.2850   -2.2410    1.9690 O   0  0  0  0  0  0  0  0  0  0  0  0
    1.2060   -0.4050    0.2860 C   0  0  0  0  0  0  0  0  0  0  0  0
    0.1180   -1.1600    0.6260 C   0  0  0  0  0  0  0  0  0  0  0  0
   -1.1760   -0.7130    0.8620 C   0  0  0  0  0  0  0  0  0  0  0  0
   -2.1970   -1.7060    1.2180 C   0  0  0  0  0  0  0  0  0  0  0  0
   -1.7500   -3.1550    1.2930 C   0  0  0  0  0  0  0  0  0  0  0  0
   -3.4590   -1.4370    1.4740 C   0  0  0  0  0  0  0  0  0  0  0  0
   -4.4230   -2.5310    1.8300 C   0  0  1  0  0  0  0  0  0  0  0  0
   -5.7050   -1.8800    2.3050 C   0  0  0  0  0  0  0  0  0  0  0  0
   -4.7530   -3.3080    0.7220 O   0  0  0  0  0  0  0  0  0  0  0  0
   -1.5760    0.6000    0.7870 C   0  0  0  0  0  0  0  0  0  0  0  0
   -0.7670    1.6790    0.4700 C   0  0  0  0  0  0  0  0  0  0  0  0
   -1.2820    3.0540    0.4120 C   0  0  0  0  0  0  0  0  0  0  0  0
   -0.4230    4.0080    0.1150 C   0  0  0  0  0  0  0  0  0  0  0  0
   -2.6020    3.3250    0.6600 O   0  0  0  0  0  0  0  0  0  0  0  0
   -3.3800    4.2500   -0.0430 C   0  0  2  0  0  0  0  0  0  0  0  0
   -3.4310    3.8770   -1.5080 C   0  0  0  0  0  0  0  0  0  0  0  0
   -2.9590    5.5710    0.1290 O   0  0  0  0  0  0  0  0  0  0  0  0
    0.8890    1.2990    0.1440 P   0  0  0  0  0  0  0  0  0  0  0  0
  1  2  2  0
  2  3  1  0
  3  4  1  0
  4  5  1  6
  4  6  1  0
  6  7  2  0
  6  8  1  0
  8  9  1  0
  8 11  1  0
  9 10  2  0
 11 12  2  0
 11 28  1  0
 12 13  1  0
 13 14  1  0
 13 20  2  0
 14 15  1  0
 14 16  2  3
 16 17  1  0
 17 18  1  6
 17 19  1  0
 20 21  1  0
 21 22  1  0
 21 28  2  0
 22 23  2  0
 22 24  1  0
 24 25  1  0
 25 26  1  6
 25 27  1  0
M  END
