
     RDKit          3D

 29 31  0  0  0  0  0  0  0  0999 V2000
   -2.7050   -5.5070    0.7600 C   0  0  0  0  0  0  0  0  0  0  0  0
   -2.3110   -4.3880    0.2180 C   0  0  0  0  0  0  0  0  0  0  0  0
   -1.0210   -3.6050    0.5220 C   0  0  0  0  0  0  0  0  0  0  0  0
   -1.5520   -2.2430    0.3540 C   0  0  1  0  0  0  0  0  0  0  0  0
   -2.6920   -2.0260    1.1620 O   0  0  0  0  0  0  0  0  0  0  0  0
   -2.4270   -1.8360    2.4830 C   0  0  0  0  0  0  0  0  0  0  0  0
   -0.7060   -1.0700    0.2820 C   0  0  0  0  0  0  0  0  0  0  0  0
   -1.3390   -0.0200   -0.4640 O   0  0  0  0  0  0  0  0  0  0  0  0
   -2.6460    0.3320   -0.1260 C   0  0  0  0  0  0  0  0  0  0  0  0
   -3.1540    1.4820   -0.9920 C   0  0  0  0  0  0  0  0  0  0  0  0
   -4.4590    1.7750   -0.5960 O   0  0  0  0  0  0  0  0  0  0  0  0
   -4.9790    2.8160   -1.3500 C   0  0  0  0  0  0  0  0  0  0  0  0
   -4.1170    4.0550   -1.1600 C   0  0  0  0  0  0  0  0  0  0  0  0
    0.4630   -0.8000    0.7800 C   0  0  0  0  0  0  0  0  0  0  0  0
    1.0110   -1.9650    1.6310 C   0  0  0  0  0  0  0  0  0  0  0  0
    1.4660    0.1900    0.4110 C   0  0  0  0  0  0  0  0  0  0  0  0
    2.4860    0.3530    1.3210 C   0  0  0  0  0  0  0  0  0  0  0  0
    3.8230    1.4680    1.1420 P   0  0  0  0  0  0  0  0  0  0  0  0
    5.5400    0.9750    0.7800 C   0  0  0  0  0  0  0  0  0  0  0  0
    5.9090    2.2040   -0.0480 C   0  0  0  0  0  0  0  0  0  0  0  0
    7.3150    2.6960   -0.0260 C   0  0  0  0  0  0  0  0  0  0  0  0
    4.9270    2.7460   -0.7360 C   0  0  0  0  0  0  0  0  0  0  0  0
    3.6560    2.1160   -0.6180 C   0  0  0  0  0  0  0  0  0  0  0  0
    2.6270    1.7480   -1.2540 C   0  0  0  0  0  0  0  0  0  0  0  0
    1.5770    0.8640   -0.8150 N   0  0  0  0  0  0  0  0  0  0  0  0
    0.6590    0.5290   -1.9230 C   0  0  0  0  0  0  0  0  0  0  0  0
   -2.1660   -2.4050   -0.9690 O   0  0  0  0  0  0  0  0  0  0  0  0
   -2.9450   -3.5720   -0.8000 C   0  0  0  0  0  0  0  0  0  0  0  0
   -4.0180   -3.8630   -1.4290 O   0  0  0  0  0  0  0  0  0  0  0  0
  1  2  2  0
  2  3  1  0
  2 28  1  0
  3  4  1  0
  4  5  1  1
  4  7  1  0
  4 27  1  0
  5  6  1  0
  7  8  1  0
  7 14  2  3
  8  9  1  0
  9 10  1  0
 10 11  1  0
 11 12  1  0
 12 13  1  0
 14 15  1  0
 14 16  1  0
 16 17  2  0
 16 25  1  0
 17 18  1  0
 18 19  1  0
 18 23  1  0
 19 20  1  0
 20 21  1  0
 20 22  2  0
 22 23  1  0
 23 24  2  0
 24 25  1  0
 25 26  1  0
 27 28  1  0
 28 29  2  0
M  END
