
     RDKit          3D

 29 31  0  0  0  0  0  0  0  0999 V2000
    2.5000   -1.3770    3.8650 C   0  0  0  0  0  0  0  0  0  0  0  0
    1.3900   -0.4370    3.5660 C   0  0  0  0  0  0  0  0  0  0  0  0
    0.9590   -0.1680    2.3530 C   0  0  0  0  0  0  0  0  0  0  0  0
    1.6190   -0.8370    1.2320 C   0  0  0  0  0  0  0  0  0  0  0  0
    1.3330   -0.9540   -0.0610 C   0  0  0  0  0  0  0  0  0  0  0  0
    2.2990   -1.7250   -0.8130 C   0  0  0  0  0  0  0  0  0  0  0  0
    2.4540   -2.0600   -2.0550 C   0  0  0  0  0  0  0  0  0  0  0  0
    1.5700   -1.6870   -3.1800 C   0  0  0  0  0  0  0  0  0  0  0  0
    3.6730   -2.8960   -2.2880 C   0  0  0  0  0  0  0  0  0  0  0  0
    4.1350   -3.2050   -0.9950 N   0  0  0  0  0  0  0  0  0  0  0  0
    3.4520   -2.3780   -0.0730 C   0  0  0  0  0  0  0  0  0  0  0  0
    0.1790   -0.4840   -0.8470 C   0  0  0  0  0  0  0  0  0  0  0  0
   -0.5890    0.5980   -0.8620 C   0  0  0  0  0  0  0  0  0  0  0  0
   -1.5870    0.5540   -1.8440 O   0  0  0  0  0  0  0  0  0  0  0  0
   -2.4550   -0.5180   -2.0250 C   0  0  0  0  0  0  0  0  0  0  0  0
   -3.1850   -0.7060   -0.8500 O   0  0  0  0  0  0  0  0  0  0  0  0
   -4.0800   -1.7580   -0.9390 C   0  0  1  0  0  0  0  0  0  0  0  0
   -3.8060   -2.8550    0.0420 C   0  0  0  0  0  0  0  0  0  0  0  0
   -5.4070   -1.3630   -0.8120 O   0  0  0  0  0  0  0  0  0  0  0  0
   -0.6000    2.1200    0.1440 P   0  0  0  0  0  0  0  0  0  0  0  0
    0.1780    3.4110   -0.7090 O   0  0  0  0  0  0  0  0  0  0  0  0
   -0.6430    4.5050   -0.8210 C   0  0  2  0  0  0  0  0  0  0  0  0
   -0.9660    4.7930   -2.2710 C   0  0  0  0  0  0  0  0  0  0  0  0
   -0.0420    5.7670   -0.2340 C   0  0  0  0  0  0  0  0  0  0  0  0
    0.1410    1.9570    1.6800 O   0  0  0  0  0  0  0  0  0  0  0  0
   -0.1700    0.8310    2.4020 C   0  0  1  0  0  0  0  0  0  0  0  0
   -1.4660    0.2240    1.9400 C   0  0  0  0  0  0  0  0  0  0  0  0
   -0.2940    1.0830    3.8460 C   0  0  0  0  0  0  0  0  0  0  0  0
    0.5940    0.3560    4.4790 C   0  0  0  0  0  0  0  0  0  0  0  0
  1  2  1  0
  2  3  2  0
  2 29  1  0
  3  4  1  0
  3 26  1  0
  4  5  2  0
  5  6  1  0
  5 12  1  0
  6  7  2  0
  6 11  1  0
  7  8  1  0
  7  9  1  0
  9 10  1  0
 10 11  1  0
 12 13  2  0
 13 14  1  0
 13 20  1  0
 14 15  1  0
 15 16  1  0
 16 17  1  0
 17 18  1  1
 17 19  1  0
 20 21  1  0
 20 25  1  0
 21 22  1  0
 22 23  1  6
 22 24  1  0
 25 26  1  0
 26 27  1  6
 26 28  1  0
 28 29  2  0
M  END
