
     RDKit          3D

 28 29  0  0  0  0  0  0  0  0999 V2000
   -3.9460   -0.7990    2.9190 C   0  0  0  0  0  0  0  0  0  0  0  0
   -4.1080   -1.8350    1.8260 C   0  0  0  0  0  0  0  0  0  0  0  0
   -3.5130   -1.3330    0.5650 C   0  0  0  0  0  0  0  0  0  0  0  0
   -4.2580   -1.1920   -0.5100 C   0  0  0  0  0  0  0  0  0  0  0  0
   -3.7200   -0.7050   -1.7630 C   0  0  0  0  0  0  0  0  0  0  0  0
   -4.4690   -0.5650   -2.8460 C   0  0  0  0  0  0  0  0  0  0  0  0
   -3.9460   -0.0800   -4.1060 C   0  0  0  0  0  0  0  0  0  0  0  0
   -2.6740    0.2340   -4.1740 C   0  0  0  0  0  0  0  0  0  0  0  0
   -1.7940    0.0970   -2.9920 C   0  0  0  0  0  0  0  0  0  0  0  0
   -0.5440    0.4140   -3.1090 C   0  0  0  0  0  0  0  0  0  0  0  0
    0.4310    0.3200   -1.9820 C   0  0  0  0  0  0  0  0  0  0  0  0
    1.6660    0.6130   -2.1870 C   0  0  0  0  0  0  0  0  0  0  0  0
    2.8560    0.6310   -1.3990 C   0  0  0  0  0  0  0  0  0  0  0  0
    3.9230    1.0980   -2.0390 C   0  0  0  0  0  0  0  0  0  0  0  0
    5.2640    1.2920   -1.6440 N   0  0  0  0  0  0  0  0  0  0  0  0
    5.7350    1.3850   -0.0470 P   0  0  0  0  0  0  0  0  0  0  0  0
    4.4880    1.2280    1.2880 O   0  0  0  0  0  0  0  0  0  0  0  0
    3.4720    0.2650    1.0530 C   0  0  0  0  0  0  0  0  0  0  0  0
    3.1360   -0.5570    2.2370 C   0  0  0  0  0  0  0  0  0  0  0  0
    4.2670   -1.3620    2.7900 C   0  0  0  0  0  0  0  0  0  0  0  0
    5.4350   -0.5290    3.2360 C   0  0  0  0  0  0  0  0  0  0  0  0
    2.8360    0.0600   -0.0800 C   0  0  0  0  0  0  0  0  0  0  0  0
    1.9200   -1.0110    0.0950 O   0  0  0  0  0  0  0  0  0  0  0  0
   -0.1000   -0.0690   -0.7760 O   0  0  0  0  0  0  0  0  0  0  0  0
   -0.4140    0.9930    0.1320 C   0  0  0  0  0  0  0  0  0  0  0  0
   -1.3130    1.8980   -0.3570 O   0  0  0  0  0  0  0  0  0  0  0  0
   -1.5260    2.8620    0.6120 C   0  0  0  0  0  0  0  0  0  0  0  0
   -2.3870   -0.3740   -1.8410 O   0  0  0  0  0  0  0  0  0  0  0  0
  1  2  1  0
  2  3  1  0
  3  4  2  3
  4  5  1  0
  5  6  2  0
  5 28  1  0
  6  7  1  0
  7  8  2  0
  8  9  1  0
  9 10  2  3
  9 28  1  0
 10 11  1  0
 11 12  2  3
 11 24  1  0
 12 13  1  0
 13 14  2  0
 13 22  1  0
 14 15  1  0
 15 16  2  0
 16 17  1  0
 17 18  1  0
 18 19  1  0
 18 22  2  0
 19 20  1  0
 20 21  1  0
 22 23  1  0
 24 25  1  0
 25 26  1  0
 26 27  1  0
M  END
