
     RDKit          3D

 29 30  0  0  0  0  0  0  0  0999 V2000
   -3.5970    3.7300   -0.3450 C   0  0  0  0  0  0  0  0  0  0  0  0
   -2.7970    2.8640   -0.9370 C   0  0  0  0  0  0  0  0  0  0  0  0
   -1.4950    2.4640   -0.3760 C   0  0  0  0  0  0  0  0  0  0  0  0
   -1.3040    0.9930   -0.1990 C   0  0  2  0  0  0  0  0  0  0  0  0
   -2.2090    0.2620    0.6940 C   0  0  0  0  0  0  0  0  0  0  0  0
   -3.5320    0.3270    0.3040 O   0  0  0  0  0  0  0  0  0  0  0  0
   -4.3160   -0.5040    1.1240 C   0  0  0  0  0  0  0  0  0  0  0  0
   -5.7140   -0.4460    0.6750 C   0  0  0  0  0  0  0  0  0  0  0  0
   -6.4670    0.7950    0.7000 C   0  0  0  0  0  0  0  0  0  0  0  0
   -5.9530    1.9260    1.1070 C   0  0  0  0  0  0  0  0  0  0  0  0
   -6.2930   -1.5700    0.2650 C   0  0  0  0  0  0  0  0  0  0  0  0
   -5.5290   -2.8190    0.2720 C   0  0  0  0  0  0  0  0  0  0  0  0
    0.1450    0.7030    0.0960 C   0  0  0  0  0  0  0  0  0  0  0  0
    0.6910    1.1190    1.2850 C   0  0  0  0  0  0  0  0  0  0  0  0
    1.9380    0.9240    1.6500 N   0  0  0  0  0  0  0  0  0  0  0  0
    2.9460    0.3290    1.0470 C   0  0  0  0  0  0  0  0  0  0  0  0
    4.1690    0.2870    1.7100 C   0  0  0  0  0  0  0  0  0  0  0  0
    5.2750   -0.3430    1.0930 C   0  0  0  0  0  0  0  0  0  0  0  0
    6.4670   -0.3690    1.7700 O   0  0  0  0  0  0  0  0  0  0  0  0
    5.1600   -0.9110   -0.1440 C   0  0  0  0  0  0  0  0  0  0  0  0
    6.2080   -1.5660   -0.8490 C   0  0  0  0  0  0  0  0  0  0  0  0
    7.3570   -1.6810   -0.3840 O   0  0  0  0  0  0  0  0  0  0  0  0
    6.0000   -2.1170   -2.1090 O   0  0  0  0  0  0  0  0  0  0  0  0
    6.9700   -2.7770   -2.8820 C   0  0  0  0  0  0  0  0  0  0  0  0
    8.3910   -1.7540   -3.3200 S   0  0  0  0  0  0  0  0  0  0  0  0
    9.3490   -1.3180   -1.9880 O   0  0  0  0  0  0  0  0  0  0  0  0
    3.9190   -0.8610   -0.8020 C   0  0  0  0  0  0  0  0  0  0  0  0
    2.8550   -0.2480   -0.1940 C   0  0  0  0  0  0  0  0  0  0  0  0
    1.2610   -0.1260   -0.9230 P   0  0  0  0  0  0  0  0  0  0  0  0
  1  2  2  0
  2  3  1  0
  4  3  1  1
  4  5  1  0
  4 13  1  0
  5  6  1  0
  6  7  1  0
  7  8  1  0
  8  9  1  0
  8 11  2  3
  9 10  2  0
 11 12  1  0
 13 14  2  0
 13 29  1  0
 14 15  1  0
 15 16  2  0
 16 17  1  0
 16 28  1  0
 17 18  2  0
 18 19  1  0
 18 20  1  0
 20 21  1  0
 20 27  2  0
 21 22  2  0
 21 23  1  0
 23 24  1  0
 24 25  1  0
 25 26  1  0
 27 28  1  0
 28 29  2  0
M  END
