
     RDKit          3D

 17 17  0  0  0  0  0  0  0  0999 V2000
   -4.5590   -0.8090    1.9030 O   0  0  0  0  0  0  0  0  0  0  0  0
   -3.8320   -0.3100    1.0090 C   0  0  0  0  0  0  0  0  0  0  0  0
   -4.5670    0.1470   -0.2250 C   0  0  0  0  0  0  0  0  0  0  0  0
   -3.7320    0.9110   -1.0270 O   0  0  0  0  0  0  0  0  0  0  0  0
   -2.8640    0.1660   -1.7910 C   0  0  0  0  0  0  0  0  0  0  0  0
   -1.8590   -0.6200   -1.0140 C   0  0  0  0  0  0  0  0  0  0  0  0
   -1.4730    0.0890    0.2670 C   0  0  2  0  0  0  0  0  0  0  0  0
   -0.1180   -0.2470    0.6960 C   0  0  0  0  0  0  0  0  0  0  0  0
    0.0660   -0.7630    1.8250 O   0  0  0  0  0  0  0  0  0  0  0  0
    0.9560   -0.0040   -0.1220 O   0  0  0  0  0  0  0  0  0  0  0  0
    2.2640   -0.3180    0.2690 C   0  0  1  0  0  0  0  0  0  0  0  0
    2.8060   -1.2000   -0.6420 O   0  0  0  0  0  0  0  0  0  0  0  0
    3.1230    0.9270    0.3360 C   0  0  0  0  0  0  0  0  0  0  0  0
    4.8260    0.3920    0.8610 P   0  0  0  0  0  0  0  0  0  0  0  0
    6.0190    1.5870    0.4590 O   0  0  0  0  0  0  0  0  0  0  0  0
    5.1840   -1.0960    0.0700 O   0  0  0  0  0  0  0  0  0  0  0  0
   -2.4600   -0.2260    1.2260 O   0  0  0  0  0  0  0  0  0  0  0  0
  1  2  2  0
  2  3  1  0
  2 17  1  0
  3  4  1  0
  4  5  1  0
  5  6  1  0
  6  7  1  0
  7  8  1  1
  7 17  1  0
  8  9  2  0
  8 10  1  0
 10 11  1  0
 11 12  1  6
 11 13  1  0
 13 14  1  0
 14 15  1  0
 14 16  1  0
M  END
