
     RDKit          3D

 24 25  0  0  0  0  0  0  0  0999 V2000
    2.2020    0.7170   -1.0730 O   0  0  0  0  0  0  0  0  0  0  0  0
    3.1560    0.9460   -0.3100 C   0  0  0  0  0  0  0  0  0  0  0  0
    4.3650    1.7330   -0.7640 C   0  0  0  0  0  0  0  0  0  0  0  0
    5.5590    0.6850   -1.4050 P   0  0  0  0  0  0  0  0  0  0  0  0
    5.7840   -0.8280   -0.7980 O   0  0  0  0  0  0  0  0  0  0  0  0
    6.8080    1.1850   -0.6670 O   0  0  0  0  0  0  0  0  0  0  0  0
    6.3810    1.1020   -2.8560 O   0  0  0  0  0  0  0  0  0  0  0  0
    3.1440    0.4750    1.0230 N   0  0  0  0  0  0  0  0  0  0  0  0
    2.0480   -0.2880    1.5730 C   0  0  0  0  0  0  0  0  0  0  0  0
    1.8170   -1.5720    0.8340 C   0  0  0  0  0  0  0  0  0  0  0  0
    0.6690   -2.3650    1.4200 C   0  0  0  0  0  0  0  0  0  0  0  0
   -0.5900   -1.5880    1.3640 C   0  0  0  0  0  0  0  0  0  0  0  0
   -0.9270   -0.7740    2.4260 C   0  0  0  0  0  0  0  0  0  0  0  0
   -2.0730   -0.0390    2.4240 C   0  0  0  0  0  0  0  0  0  0  0  0
   -2.9240   -0.1160    1.3180 C   0  0  0  0  0  0  0  0  0  0  0  0
   -2.6250   -0.9170    0.2370 C   0  0  0  0  0  0  0  0  0  0  0  0
   -3.4890   -0.9740   -0.8500 O   0  0  0  0  0  0  0  0  0  0  0  0
   -4.6630   -0.2400   -0.8790 C   0  0  0  0  0  0  0  0  0  0  0  0
   -4.6500    1.0350   -1.4080 C   0  0  0  0  0  0  0  0  0  0  0  0
   -5.8060    1.8060   -1.4560 C   0  0  0  0  0  0  0  0  0  0  0  0
   -7.0020    1.3150   -0.9750 C   0  0  0  0  0  0  0  0  0  0  0  0
   -7.0240    0.0340   -0.4410 C   0  0  0  0  0  0  0  0  0  0  0  0
   -5.8550   -0.7340   -0.3970 C   0  0  0  0  0  0  0  0  0  0  0  0
   -1.4530   -1.6390    0.2900 C   0  0  0  0  0  0  0  0  0  0  0  0
  1  2  2  0
  2  3  1  0
  2  8  1  0
  3  4  1  0
  4  5  1  0
  4  6  1  0
  4  7  1  0
  8  9  1  0
  9 10  1  0
 10 11  1  0
 11 12  1  0
 12 13  2  0
 12 24  1  0
 13 14  1  0
 14 15  2  0
 15 16  1  0
 16 17  1  0
 16 24  2  0
 17 18  1  0
 18 19  2  0
 18 23  1  0
 19 20  1  0
 20 21  2  0
 21 22  1  0
 22 23  2  0
M  END
