
     RDKit          3D

 20 21  0  0  0  0  0  0  0  0999 V2000
    2.4270    2.1390    0.7080 C   0  0  0  0  0  0  0  0  0  0  0  0
    2.9020    1.2890   -0.4690 C   0  0  1  0  0  0  0  0  0  0  0  0
    4.1690    0.5860   -0.1020 C   0  0  0  0  0  0  0  0  0  0  0  0
    3.8830   -0.4480    0.8660 N   0  0  0  0  0  0  0  0  0  0  0  0
    2.9010   -1.4370    0.4640 C   0  0  0  0  0  0  0  0  0  0  0  0
    3.0170   -2.6050    0.8750 O   0  0  0  0  0  0  0  0  0  0  0  0
    1.8380   -1.0370   -0.3870 N   0  0  0  0  0  0  0  0  0  0  0  0
    0.8460   -1.9270   -0.8520 C   0  0  0  0  0  0  0  0  0  0  0  0
   -0.3750   -2.1070   -0.0330 C   0  0  0  0  0  0  0  0  0  0  0  0
   -1.1790   -0.8890    0.2050 C   0  0  0  0  0  0  0  0  0  0  0  0
   -1.0790   -0.0320    1.2410 N   0  0  0  0  0  0  0  0  0  0  0  0
   -1.9830    0.9480    1.0960 N   0  0  0  0  0  0  0  0  0  0  0  0
   -2.6630    0.7340   -0.0200 C   0  0  0  0  0  0  0  0  0  0  0  0
   -3.7200    1.4810   -0.6060 N   0  0  0  0  0  0  0  0  0  0  0  0
   -5.4400    1.0580   -0.3890 P   0  0  0  0  0  0  0  0  0  0  0  0
   -6.3920    2.3520    0.2290 O   0  0  0  0  0  0  0  0  0  0  0  0
   -5.5330   -0.3690    0.5700 O   0  0  0  0  0  0  0  0  0  0  0  0
   -2.1660   -0.3900   -0.5590 N   0  0  0  0  0  0  0  0  0  0  0  0
    1.8230    0.3270   -0.7780 C   0  0  0  0  0  0  0  0  0  0  0  0
    0.8110    0.7740   -1.4470 O   0  0  0  0  0  0  0  0  0  0  0  0
  2  1  1  1
  2  3  1  0
  2 19  1  0
  3  4  1  0
  4  5  1  0
  5  6  2  0
  5  7  1  0
  7  8  1  0
  7 19  1  0
  8  9  1  0
  9 10  1  0
 10 11  2  0
 10 18  1  0
 11 12  1  0
 12 13  2  0
 13 14  1  0
 13 18  1  0
 14 15  1  0
 15 16  1  0
 15 17  1  0
 19 20  2  0
M  END
