
     RDKit          3D

 17 17  0  0  0  0  0  0  0  0999 V2000
   -4.0580   -1.2300   -1.7610 O   0  0  0  0  0  0  0  0  0  0  0  0
   -4.0060   -0.5990   -0.6680 C   0  0  0  0  0  0  0  0  0  0  0  0
   -5.1290   -0.5270    0.1440 O   0  0  0  0  0  0  0  0  0  0  0  0
   -2.7700    0.0800   -0.2090 C   0  0  2  0  0  0  0  0  0  0  0  0
   -1.6840   -0.9710   -0.1580 C   0  0  0  0  0  0  0  0  0  0  0  0
   -0.6470   -0.6620    0.6770 O   0  0  0  0  0  0  0  0  0  0  0  0
    0.0140    0.5130    0.3390 C   0  0  1  0  0  0  0  0  0  0  0  0
    0.6210    0.4780   -0.8760 O   0  0  0  0  0  0  0  0  0  0  0  0
    1.9850    0.6390   -0.8090 C   0  0  0  0  0  0  0  0  0  0  0  0
    2.7020   -0.4390   -0.0370 C   0  0  0  0  0  0  0  0  0  0  0  0
    4.5320   -0.0090   -0.0950 P   0  0  0  0  0  0  0  0  0  0  0  0
    5.2080   -0.8680   -1.4350 O   0  0  0  0  0  0  0  0  0  0  0  0
    5.2710   -0.6440    1.3550 O   0  0  0  0  0  0  0  0  0  0  0  0
   -0.9350    1.6790    0.4240 C   0  0  0  0  0  0  0  0  0  0  0  0
   -0.7360    2.6610   -0.2370 O   0  0  0  0  0  0  0  0  0  0  0  0
   -2.1430    1.7270    1.2840 C   0  0  0  0  0  0  0  0  0  0  0  0
   -3.0080    0.6740    0.9960 O   0  0  0  0  0  0  0  0  0  0  0  0
  1  2  2  0
  2  3  1  0
  4  2  1  1
  4  5  1  0
  4 17  1  0
  5  6  1  0
  6  7  1  0
  7  8  1  6
  7 14  1  0
  8  9  1  0
  9 10  1  0
 10 11  1  0
 11 12  1  0
 11 13  1  0
 14 15  2  0
 14 16  1  0
 16 17  1  0
M  END
