
     RDKit          3D

 17 17  0  0  0  0  0  0  0  0999 V2000
    4.2180    1.6330    0.2150 O   0  0  0  0  0  0  0  0  0  0  0  0
    4.7230    0.3500    0.1670 C   0  0  0  0  0  0  0  0  0  0  0  0
    3.6070   -0.6620   -0.0610 C   0  0  0  0  0  0  0  0  0  0  0  0
    2.6440   -0.5360    1.0840 C   0  0  0  0  0  0  0  0  0  0  0  0
    1.5650   -1.3980    1.0360 O   0  0  0  0  0  0  0  0  0  0  0  0
    0.8350   -1.2080   -0.0940 C   0  0  0  0  0  0  0  0  0  0  0  0
    0.2440    0.1340   -0.3240 C   0  0  0  0  0  0  0  0  0  0  0  0
   -0.6210    0.6260    0.5930 O   0  0  0  0  0  0  0  0  0  0  0  0
   -1.7690   -0.0490    0.8610 C   0  0  1  0  0  0  0  0  0  0  0  0
   -1.5380   -1.3120    1.3370 O   0  0  0  0  0  0  0  0  0  0  0  0
   -2.4010    0.6370    1.9290 O   0  0  0  0  0  0  0  0  0  0  0  0
   -3.8210    1.4600    1.4610 P   0  0  0  0  0  0  0  0  0  0  0  0
   -5.2600    0.5400    1.5880 O   0  0  0  0  0  0  0  0  0  0  0  0
   -3.5840    2.2030   -0.0610 O   0  0  0  0  0  0  0  0  0  0  0  0
   -2.9350    1.2970   -0.8900 C   0  0  0  0  0  0  0  0  0  0  0  0
   -2.7660   -0.0540   -0.2730 C   0  0  1  0  0  0  0  0  0  0  0  0
   -2.3950   -0.9370   -1.2920 O   0  0  0  0  0  0  0  0  0  0  0  0
  1  2  1  0
  2  3  1  0
  3  4  1  0
  4  5  1  0
  5  6  1  0
  6  7  1  0
  7  8  1  0
  8  9  1  0
  9 10  1  1
  9 11  1  0
  9 16  1  0
 11 12  1  0
 12 13  1  0
 12 14  1  0
 14 15  1  0
 15 16  1  0
 16 17  1  6
M  END
