
     RDKit          3D

 17 18  0  0  0  0  0  0  0  0999 V2000
   -3.2670    1.4140    0.5250 C   0  0  0  0  0  0  0  0  0  0  0  0
   -2.6320    0.2230    0.2030 O   0  0  0  0  0  0  0  0  0  0  0  0
   -1.4850    0.4970   -0.4930 C   0  0  0  0  0  0  0  0  0  0  0  0
   -0.7080   -0.7190   -0.8980 C   0  0  2  0  0  0  0  0  0  0  0  0
   -1.5030   -1.7880   -1.5270 C   0  0  0  0  0  0  0  0  0  0  0  0
   -1.6900   -2.8030   -0.5570 O   0  0  0  0  0  0  0  0  0  0  0  0
   -2.0840   -2.3240    0.5880 O   0  0  0  0  0  0  0  0  0  0  0  0
   -1.0290   -1.7030    1.2980 C   0  0  0  0  0  0  0  0  0  0  0  0
    0.0100   -1.3370    0.3160 C   0  0  2  0  0  0  0  0  0  0  0  0
    0.8140   -0.2750    0.6250 O   0  0  0  0  0  0  0  0  0  0  0  0
    1.3350    0.0750   -0.6340 C   0  0  2  0  0  0  0  0  0  0  0  0
    2.6320   -0.6900   -0.7800 C   0  0  0  0  0  0  0  0  0  0  0  0
    1.5770    1.4480   -0.7200 O   0  0  0  0  0  0  0  0  0  0  0  0
    2.7060    1.9750    0.4620 P   0  0  0  0  0  0  0  0  0  0  0  0
    4.3450    1.8040   -0.0480 O   0  0  0  0  0  0  0  0  0  0  0  0
    2.3700    3.6200    0.8980 O   0  0  0  0  0  0  0  0  0  0  0  0
    0.4130   -0.3050   -1.5870 O   0  0  0  0  0  0  0  0  0  0  0  0
  1  2  1  0
  2  3  1  0
  4  3  1  1
  4  5  1  0
  4  9  1  0
  4 17  1  0
  5  6  1  0
  6  7  1  0
  7  8  1  0
  9  8  1  1
  9 10  1  0
 10 11  1  0
 11 12  1  6
 11 13  1  0
 11 17  1  0
 13 14  1  0
 14 15  1  0
 14 16  1  0
M  END
