
     RDKit          3D

 17 18  0  0  0  0  0  0  0  0999 V2000
   -4.4810   -0.3550    0.0680 C   0  0  0  0  0  0  0  0  0  0  0  0
   -3.5180    0.4780   -0.4930 O   0  0  0  0  0  0  0  0  0  0  0  0
   -2.2810    0.3670    0.1280 C   0  0  2  0  0  0  0  0  0  0  0  0
   -1.9060    1.6540    0.5170 O   0  0  0  0  0  0  0  0  0  0  0  0
   -1.3560    2.2710   -0.5920 C   0  0  0  0  0  0  0  0  0  0  0  0
   -1.0650    1.2910   -1.5230 O   0  0  0  0  0  0  0  0  0  0  0  0
   -1.2350    0.0820   -0.9200 C   0  0  2  0  0  0  0  0  0  0  0  0
   -1.5790   -0.9550   -1.7620 O   0  0  0  0  0  0  0  0  0  0  0  0
   -1.5130   -2.0130   -1.0060 O   0  0  0  0  0  0  0  0  0  0  0  0
   -0.3510   -1.9560   -0.2700 C   0  0  0  0  0  0  0  0  0  0  0  0
    0.0470   -0.4720   -0.3040 C   0  0  2  0  0  0  0  0  0  0  0  0
    0.2850    0.0240    0.9430 O   0  0  0  0  0  0  0  0  0  0  0  0
    1.5600    0.5590    1.0100 C   0  0  0  0  0  0  0  0  0  0  0  0
    2.6220   -0.4730    0.7530 C   0  0  0  0  0  0  0  0  0  0  0  0
    4.3270    0.2620    0.8500 P   0  0  0  0  0  0  0  0  0  0  0  0
    5.4570   -1.0290    0.5440 O   0  0  0  0  0  0  0  0  0  0  0  0
    4.4580    1.4200   -0.4600 O   0  0  0  0  0  0  0  0  0  0  0  0
  1  2  1  0
  3  2  1  6
  3  4  1  0
  3  7  1  0
  4  5  1  0
  5  6  1  0
  7  6  1  6
  7  8  1  0
  7 11  1  0
  8  9  1  0
  9 10  1  0
 10 11  1  0
 11 12  1  1
 12 13  1  0
 13 14  1  0
 14 15  1  0
 15 16  1  0
 15 17  1  0
M  END
