
     RDKit          3D

 28 28  0  0  0  0  0  0  0  0999 V2000
    9.1000    2.0090   -0.3510 C   0  0  0  0  0  0  0  0  0  0  0  0
    8.1700    3.0410   -0.1690 O   0  0  0  0  0  0  0  0  0  0  0  0
    6.5880    2.3810   -0.0840 P   0  0  0  0  0  0  0  0  0  0  0  0
    5.8710    2.1450   -1.6430 O   0  0  0  0  0  0  0  0  0  0  0  0
    6.5520    0.8120    0.9120 C   0  0  0  0  0  0  0  0  0  0  0  0
    5.4570   -0.0680    0.3490 C   0  0  0  0  0  0  0  0  0  0  0  0
    4.1990    0.6140    0.4470 N   0  0  0  0  0  0  0  0  0  0  0  0
    2.9810    0.0130   -0.0130 C   0  0  0  0  0  0  0  0  0  0  0  0
    3.0540   -1.1220   -0.5010 O   0  0  0  0  0  0  0  0  0  0  0  0
    1.7650    0.6420    0.0700 O   0  0  0  0  0  0  0  0  0  0  0  0
    0.5950    0.0370   -0.3820 C   0  0  0  0  0  0  0  0  0  0  0  0
    0.2170   -1.2450    0.2840 C   0  0  1  0  0  0  0  0  0  0  0  0
   -0.0020   -1.0870    1.7710 C   0  0  0  0  0  0  0  0  0  0  0  0
   -0.3760   -2.4430    2.3280 C   0  0  0  0  0  0  0  0  0  0  0  0
   -0.6010   -2.3830    3.7620 N   0  0  0  0  0  0  0  0  0  0  0  0
   -1.0080   -1.7940   -0.4090 C   0  0  0  0  0  0  0  0  0  0  0  0
   -2.1510   -0.8830   -0.3320 N   0  0  0  0  0  0  0  0  0  0  0  0
   -3.3730   -1.2420   -0.9330 C   0  0  0  0  0  0  0  0  0  0  0  0
   -3.4250   -2.3690   -1.5290 O   0  0  0  0  0  0  0  0  0  0  0  0
   -4.5500   -0.3730   -0.8900 C   0  0  0  0  0  0  0  0  0  0  0  0
   -4.5790    0.8040   -0.2980 C   0  0  0  0  0  0  0  0  0  0  0  0
   -5.7260    1.6300   -0.2660 N   0  0  0  0  0  0  0  0  0  0  0  0
   -6.9560    1.2110   -0.9010 C   0  0  0  0  0  0  0  0  0  0  0  0
   -8.0090    1.9990   -0.8570 C   0  0  0  0  0  0  0  0  0  0  0  0
   -9.2840    1.7260   -1.4320 C   0  0  0  0  0  0  0  0  0  0  0  0
   -9.6010    0.7030   -2.0640 O   0  0  0  0  0  0  0  0  0  0  0  0
   -6.9050   -0.0820   -1.5460 C   0  0  0  0  0  0  0  0  0  0  0  0
   -5.7850   -0.8070   -1.5350 C   0  0  0  0  0  0  0  0  0  0  0  0
  1  2  1  0
  2  3  1  0
  3  4  1  0
  3  5  1  0
  5  6  1  0
  6  7  1  0
  7  8  1  0
  8  9  2  0
  8 10  1  0
 10 11  1  0
 12 11  1  6
 12 13  1  0
 12 16  1  0
 13 14  1  0
 14 15  1  0
 16 17  1  0
 17 18  1  0
 18 19  2  0
 18 20  1  0
 20 21  2  0
 20 28  1  0
 21 22  1  0
 22 23  1  0
 23 24  2  3
 23 27  1  0
 24 25  1  0
 25 26  2  0
 27 28  2  0
M  END
