
     RDKit          3D

 23 24  0  0  0  0  0  0  0  0999 V2000
    3.8750    2.9740    1.0550 N   0  0  0  0  0  0  0  0  0  0  0  0
    3.6080    2.1860    0.2480 C   0  0  0  0  0  0  0  0  0  0  0  0
    3.2770    1.1900   -0.7970 C   0  0  1  0  0  0  0  0  0  0  0  0
    4.5020    0.3300   -1.0000 C   0  0  0  0  0  0  0  0  0  0  0  0
    4.8490   -0.2890    0.3130 C   0  0  0  0  0  0  0  0  0  0  0  0
    6.0710   -0.3840    0.5920 O   0  0  0  0  0  0  0  0  0  0  0  0
    3.8460   -0.7510    1.2110 N   0  0  0  0  0  0  0  0  0  0  0  0
    2.5010   -0.4510    0.8840 C   0  0  0  0  0  0  0  0  0  0  0  0
    1.5150   -0.7810    1.5600 O   0  0  0  0  0  0  0  0  0  0  0  0
    2.2270    0.2840   -0.3040 N   0  0  0  0  0  0  0  0  0  0  0  0
    1.0200    0.1840   -1.0140 C   0  0  2  0  0  0  0  0  0  0  0  0
    0.0030    0.7610   -0.2130 O   0  0  0  0  0  0  0  0  0  0  0  0
   -1.1890    0.2170   -0.7400 C   0  0  2  0  0  0  0  0  0  0  0  0
   -2.3120    0.4900    0.2410 C   0  0  0  0  0  0  0  0  0  0  0  0
   -3.4560   -0.0380   -0.2760 O   0  0  0  0  0  0  0  0  0  0  0  0
   -4.7730    0.1790    0.6290 P   0  0  0  0  0  0  0  0  0  0  0  0
   -5.1740    1.6490    1.3030 O   0  0  0  0  0  0  0  0  0  0  0  0
   -5.9360   -1.0240    0.7150 O   0  0  0  0  0  0  0  0  0  0  0  0
   -4.1390   -0.3450    1.8990 O   0  0  0  0  0  0  0  0  0  0  0  0
   -0.8050   -1.2460   -0.7820 C   0  0  1  0  0  0  0  0  0  0  0  0
   -1.6910   -1.9890   -1.5580 O   0  0  0  0  0  0  0  0  0  0  0  0
    0.5500   -1.1300   -1.4440 C   0  0  1  0  0  0  0  0  0  0  0  0
    0.2930   -1.1520   -2.8360 O   0  0  0  0  0  0  0  0  0  0  0  0
  1  2  3  0
  3  2  1  1
  3  4  1  0
  3 10  1  0
  4  5  1  0
  5  6  2  0
  5  7  1  0
  7  8  1  0
  8  9  2  0
  8 10  1  0
 11 10  1  1
 11 12  1  0
 11 22  1  0
 12 13  1  0
 13 14  1  1
 13 20  1  0
 14 15  1  0
 15 16  1  0
 16 17  1  0
 16 18  1  0
 16 19  1  0
 20 21  1  6
 20 22  1  0
 22 23  1  6
M  END
