
     RDKit          3D

 28 28  0  0  0  0  0  0  0  0999 V2000
   -7.6250   -0.3110   -1.0980 C   0  0  0  0  0  0  0  0  0  0  0  0
   -6.3160   -1.0900   -0.9630 C   0  0  0  0  0  0  0  0  0  0  0  0
   -5.3840   -0.7290   -2.0920 C   0  0  0  0  0  0  0  0  0  0  0  0
   -4.1490   -1.4570   -1.9370 N   0  0  0  0  0  0  0  0  0  0  0  0
   -3.2670   -1.1280   -0.8680 C   0  0  0  0  0  0  0  0  0  0  0  0
   -3.6420   -0.2410   -0.0100 N   0  0  0  0  0  0  0  0  0  0  0  0
   -3.0260    0.3130    1.1500 C   0  0  0  0  0  0  0  0  0  0  0  0
   -3.8680    1.1290    2.0310 C   0  0  0  0  0  0  0  0  0  0  0  0
   -3.3690    1.6240    3.0550 O   0  0  0  0  0  0  0  0  0  0  0  0
   -5.1760    1.3470    1.7400 O   0  0  0  0  0  0  0  0  0  0  0  0
   -6.0910    2.1100    2.4840 C   0  0  0  0  0  0  0  0  0  0  0  0
   -1.7620    0.1760    1.4910 C   0  0  0  0  0  0  0  0  0  0  0  0
   -0.6840   -0.5620    0.7860 C   0  0  0  0  0  0  0  0  0  0  0  0
    0.5930   -0.2960    1.2510 O   0  0  0  0  0  0  0  0  0  0  0  0
    1.3670    0.6380    0.5270 C   0  0  0  0  0  0  0  0  0  0  0  0
    2.7150    0.9030    1.1720 C   0  0  0  0  0  0  0  0  0  0  0  0
    3.4730    1.9190    0.3360 C   0  0  0  0  0  0  0  0  0  0  0  0
    3.7740    1.4700   -0.9630 N   0  0  0  0  0  0  0  0  0  0  0  0
    4.7780    0.4570   -1.0800 C   0  0  0  0  0  0  0  0  0  0  0  0
    6.1510    1.0100   -0.7380 C   0  0  0  0  0  0  0  0  0  0  0  0
    7.2520   -0.0050   -0.8290 C   0  0  0  0  0  0  0  0  0  0  0  0
    7.0320   -1.4190    0.3460 P   0  0  0  0  0  0  0  0  0  0  0  0
    8.0190   -1.2110    1.7660 O   0  0  0  0  0  0  0  0  0  0  0  0
    7.6340   -2.8600   -0.4520 O   0  0  0  0  0  0  0  0  0  0  0  0
   -0.7840   -1.4080   -0.1990 C   0  0  0  0  0  0  0  0  0  0  0  0
    0.3830   -1.9560   -0.6720 O   0  0  0  0  0  0  0  0  0  0  0  0
    0.9000   -3.1200   -0.0620 C   0  0  0  0  0  0  0  0  0  0  0  0
   -2.0080   -1.8240   -0.8420 N   0  0  0  0  0  0  0  0  0  0  0  0
  1  2  1  0
  2  3  1  0
  3  4  1  0
  4  5  1  0
  5  6  2  0
  5 28  1  0
  6  7  1  0
  7  8  1  0
  7 12  2  0
  8  9  2  0
  8 10  1  0
 10 11  1  0
 12 13  1  0
 13 14  1  0
 13 25  2  0
 14 15  1  0
 15 16  1  0
 16 17  1  0
 17 18  1  0
 18 19  1  0
 19 20  1  0
 20 21  1  0
 21 22  1  0
 22 23  1  0
 22 24  1  0
 25 26  1  0
 25 28  1  0
 26 27  1  0
M  END
