
     RDKit          3D

 28 28  0  0  0  0  0  0  0  0999 V2000
   -5.4500    2.7550   -1.4000 C   0  0  0  0  0  0  0  0  0  0  0  0
   -5.9630    2.4060   -0.1900 O   0  0  0  0  0  0  0  0  0  0  0  0
   -5.8570    1.0870    0.1880 C   0  0  1  0  0  0  0  0  0  0  0  0
   -6.5410    1.0150    1.5700 C   0  0  0  0  0  0  0  0  0  0  0  0
   -6.6370    0.2460   -0.7950 C   0  0  0  0  0  0  0  0  0  0  0  0
   -6.5820   -1.2250   -0.4640 C   0  0  0  0  0  0  0  0  0  0  0  0
   -7.1100   -1.5520    0.8220 N   0  0  0  0  0  0  0  0  0  0  0  0
   -4.4690    0.5940    0.4050 C   0  0  0  0  0  0  0  0  0  0  0  0
   -3.6120    0.6540   -0.6850 O   0  0  0  0  0  0  0  0  0  0  0  0
   -2.3040    0.2080   -0.5430 C   0  0  0  0  0  0  0  0  0  0  0  0
   -1.8690   -0.2920    0.6690 C   0  0  0  0  0  0  0  0  0  0  0  0
   -0.5820   -0.7450    0.8560 C   0  0  0  0  0  0  0  0  0  0  0  0
    0.3470   -0.7180   -0.1810 C   0  0  0  0  0  0  0  0  0  0  0  0
    1.7040   -1.1960    0.0100 C   0  0  0  0  0  0  0  0  0  0  0  0
    2.0380   -1.6520    1.1150 O   0  0  0  0  0  0  0  0  0  0  0  0
    2.6020   -1.1400   -1.0230 O   0  0  0  0  0  0  0  0  0  0  0  0
    3.9430   -1.5600   -0.9800 C   0  0  0  0  0  0  0  0  0  0  0  0
    4.6690   -0.7500    0.0620 C   0  0  0  0  0  0  0  0  0  0  0  0
    6.0530   -1.0950    0.1890 N   0  0  0  0  0  0  0  0  0  0  0  0
    6.5160   -2.3620    0.7140 C   0  0  0  0  0  0  0  0  0  0  0  0
    7.0430   -0.1620   -0.2110 C   0  0  0  0  0  0  0  0  0  0  0  0
    7.6390   -0.2280   -1.3590 N   0  0  0  0  0  0  0  0  0  0  0  0
    7.4060    0.9050    0.6900 N   0  0  0  0  0  0  0  0  0  0  0  0
    8.8000    1.9840    0.3540 P   0  0  0  0  0  0  0  0  0  0  0  0
   10.1090    1.6920    1.4360 O   0  0  0  0  0  0  0  0  0  0  0  0
    8.2170    3.6210    0.4810 O   0  0  0  0  0  0  0  0  0  0  0  0
   -0.1170   -0.2120   -1.3830 C   0  0  0  0  0  0  0  0  0  0  0  0
   -1.3980    0.2420   -1.5780 C   0  0  0  0  0  0  0  0  0  0  0  0
  1  2  1  0
  2  3  1  0
  3  4  1  1
  3  5  1  0
  3  8  1  0
  5  6  1  0
  6  7  1  0
  8  9  1  0
  9 10  1  0
 10 11  2  0
 10 28  1  0
 11 12  1  0
 12 13  2  0
 13 14  1  0
 13 27  1  0
 14 15  2  0
 14 16  1  0
 16 17  1  0
 17 18  1  0
 18 19  1  0
 19 20  1  0
 19 21  1  0
 21 22  2  0
 21 23  1  0
 23 24  1  0
 24 25  1  0
 24 26  1  0
 27 28  2  0
M  END
