
     RDKit          3D

 23 24  0  0  0  0  0  0  0  0999 V2000
   -2.0200   -3.2890   -0.8910 C   0  0  0  0  0  0  0  0  0  0  0  0
   -0.9660   -2.3850   -0.5540 O   0  0  0  0  0  0  0  0  0  0  0  0
   -1.2500   -1.0570   -0.1950 C   0  0  0  0  0  0  0  0  0  0  0  0
   -2.1860   -0.3890   -0.7750 N   0  0  0  0  0  0  0  0  0  0  0  0
   -2.2360    0.9080   -0.2050 C   0  0  0  0  0  0  0  0  0  0  0  0
   -3.0750    1.8720   -0.5520 C   0  0  0  0  0  0  0  0  0  0  0  0
   -4.0180    1.6610   -1.5580 O   0  0  0  0  0  0  0  0  0  0  0  0
   -5.5290    0.8170   -1.2630 P   0  0  0  0  0  0  0  0  0  0  0  0
   -6.6380    1.7920   -0.3460 O   0  0  0  0  0  0  0  0  0  0  0  0
   -5.2560   -0.6590   -0.3710 O   0  0  0  0  0  0  0  0  0  0  0  0
   -1.2420    1.0110    0.7980 N   0  0  0  0  0  0  0  0  0  0  0  0
   -0.5590   -0.2630    0.8470 C   0  0  2  0  0  0  0  0  0  0  0  0
    0.7770   -0.0320    0.5640 O   0  0  0  0  0  0  0  0  0  0  0  0
    1.6010   -0.3940    1.6460 C   0  0  0  0  0  0  0  0  0  0  0  0
    2.9760   -0.1190    1.2600 C   0  0  0  0  0  0  0  0  0  0  0  0
    3.9670   -0.2980    1.9890 O   0  0  0  0  0  0  0  0  0  0  0  0
    3.3250    0.3790    0.0190 N   0  0  0  0  0  0  0  0  0  0  0  0
    4.6460    0.6250   -0.4170 C   0  0  0  0  0  0  0  0  0  0  0  0
    4.6610    1.3250   -1.4710 N   0  0  0  0  0  0  0  0  0  0  0  0
    5.9740    1.5600   -1.9100 C   0  0  0  0  0  0  0  0  0  0  0  0
    6.8460    1.0010   -1.1520 N   0  0  0  0  0  0  0  0  0  0  0  0
    6.0340    0.3730   -0.1640 C   0  0  0  0  0  0  0  0  0  0  0  0
    6.4750   -0.2980    0.7740 O   0  0  0  0  0  0  0  0  0  0  0  0
  1  2  1  0
  2  3  1  0
  3  4  2  0
  3 12  1  0
  4  5  1  0
  5  6  2  3
  5 11  1  0
  6  7  1  0
  7  8  1  0
  8  9  1  0
  8 10  1  0
 11 12  1  0
 12 13  1  6
 13 14  1  0
 14 15  1  0
 15 16  2  0
 15 17  1  0
 17 18  1  0
 18 19  2  0
 18 22  1  0
 19 20  1  0
 20 21  2  0
 21 22  1  0
 22 23  2  0
M  END
