
     RDKit          3D

 11 11  0  0  0  0  0  0  0  0999 V2000
    3.1160    0.3130    0.3740 O   0  0  0  0  0  0  0  0  0  0  0  0
    2.1690    0.4550   -0.6140 C   0  0  0  0  0  0  0  0  0  0  0  0
    0.7510    0.3990   -0.0640 C   0  0  2  0  0  0  0  0  0  0  0  0
    0.6450    1.4570    0.8530 O   0  0  0  0  0  0  0  0  0  0  0  0
    0.5300   -0.9360    0.5440 C   0  0  0  0  0  0  0  0  0  0  0  0
   -0.8850   -1.3050    0.7850 C   0  0  2  0  0  0  0  0  0  0  0  0
   -1.0460   -2.6550    0.3960 O   0  0  0  0  0  0  0  0  0  0  0  0
   -1.8950   -0.5070    0.0480 C   0  0  0  0  0  0  0  0  0  0  0  0
   -1.4110    0.8340   -0.4230 C   0  0  2  0  0  0  0  0  0  0  0  0
   -2.3370    1.4060   -1.2720 O   0  0  0  0  0  0  0  0  0  0  0  0
   -0.1790    0.6590   -1.0650 O   0  0  0  0  0  0  0  0  0  0  0  0
  1  2  1  0
  2  3  1  0
  3  4  1  1
  3  5  1  0
  3 11  1  0
  5  6  1  0
  6  7  1  6
  6  8  1  0
  8  9  1  0
  9 10  1  6
  9 11  1  0
M  END
