
     RDKit          3D

 11 11  0  0  0  0  0  0  0  0999 V2000
    2.4390    1.3950    0.2620 O   0  0  0  0  0  0  0  0  0  0  0  0
    1.8340    0.2330   -0.2400 C   0  0  1  0  0  0  0  0  0  0  0  0
    2.7400   -0.8110    0.0100 O   0  0  0  0  0  0  0  0  0  0  0  0
    0.5630    0.0310    0.5650 C   0  0  1  0  0  0  0  0  0  0  0  0
    0.8290   -0.1210    1.9110 O   0  0  0  0  0  0  0  0  0  0  0  0
   -0.3010    1.2730    0.3100 C   0  0  0  0  0  0  0  0  0  0  0  0
   -1.6830    0.8140    0.7250 C   0  0  0  0  0  0  0  0  0  0  0  0
   -1.7390   -0.6000    0.2350 C   0  0  1  0  0  0  0  0  0  0  0  0
   -2.4370   -0.7120   -0.9640 O   0  0  0  0  0  0  0  0  0  0  0  0
   -0.3110   -1.0530    0.0050 C   0  0  1  0  0  0  0  0  0  0  0  0
   -0.0660   -1.2250   -1.3570 O   0  0  0  0  0  0  0  0  0  0  0  0
  2  1  1  1
  2  3  1  0
  2  4  1  0
  4  5  1  1
  4  6  1  0
  4 10  1  0
  6  7  1  0
  7  8  1  0
  8  9  1  6
  8 10  1  0
 10 11  1  6
M  END
