
     RDKit          3D

 11 11  0  0  0  0  0  0  0  0999 V2000
    2.6170    1.0620   -0.0370 O   0  0  0  0  0  0  0  0  0  0  0  0
    2.3880   -0.1350   -0.6950 C   0  0  0  0  0  0  0  0  0  0  0  0
    1.2910   -0.8690    0.0420 C   0  0  1  0  0  0  0  0  0  0  0  0
    1.7340   -1.0870    1.3430 O   0  0  0  0  0  0  0  0  0  0  0  0
    0.0140   -0.0630    0.1280 C   0  0  2  0  0  0  0  0  0  0  0  0
    0.2780    1.1500    0.7680 O   0  0  0  0  0  0  0  0  0  0  0  0
   -0.9860   -0.8810    0.8950 C   0  0  0  0  0  0  0  0  0  0  0  0
   -2.2890   -0.6240    0.1610 C   0  0  0  0  0  0  0  0  0  0  0  0
   -1.8730    0.5290   -0.7530 C   0  0  1  0  0  0  0  0  0  0  0  0
   -1.9130    1.6770   -0.0010 O   0  0  0  0  0  0  0  0  0  0  0  0
   -0.5780    0.1490   -1.0900 O   0  0  0  0  0  0  0  0  0  0  0  0
  1  2  1  0
  2  3  1  0
  3  4  1  1
  3  5  1  0
  5  6  1  1
  5  7  1  0
  5 11  1  0
  7  8  1  0
  8  9  1  0
  9 10  1  1
  9 11  1  0
M  END
