
     RDKit          3D

 11 11  0  0  0  0  0  0  0  0999 V2000
   -2.8250   -1.2210    0.6160 O   0  0  0  0  0  0  0  0  0  0  0  0
   -2.1930   -0.1970   -0.0760 C   0  0  0  0  0  0  0  0  0  0  0  0
   -0.7650    0.0110    0.3640 C   0  0  2  0  0  0  0  0  0  0  0  0
   -0.6720    0.3350    1.7090 O   0  0  0  0  0  0  0  0  0  0  0  0
   -0.2070    1.1770   -0.4250 C   0  0  0  0  0  0  0  0  0  0  0  0
    1.2280    1.3730    0.0690 C   0  0  0  0  0  0  0  0  0  0  0  0
    1.9590    0.0770   -0.2980 C   0  0  1  0  0  0  0  0  0  0  0  0
    3.2680    0.2340    0.0800 O   0  0  0  0  0  0  0  0  0  0  0  0
    1.3960   -0.9610    0.3970 O   0  0  0  0  0  0  0  0  0  0  0  0
    0.0770   -1.2060    0.1140 C   0  0  2  0  0  0  0  0  0  0  0  0
   -0.1190   -1.7340   -1.1610 O   0  0  0  0  0  0  0  0  0  0  0  0
  1  2  1  0
  2  3  1  0
  3  4  1  1
  3  5  1  0
  3 10  1  0
  5  6  1  0
  6  7  1  0
  7  8  1  1
  7  9  1  0
  9 10  1  0
 10 11  1  6
M  END
