
     RDKit          3D

 12 12  0  0  0  0  0  0  0  0999 V2000
    3.0930    0.6470    0.2060 O   0  0  0  0  0  0  0  0  0  0  0  0
    2.3450   -0.2160    0.6900 C   0  0  0  0  0  0  0  0  0  0  0  0
    2.6050   -0.6450    1.9880 O   0  0  0  0  0  0  0  0  0  0  0  0
    1.1950   -0.8220   -0.0140 C   0  0  1  0  0  0  0  0  0  0  0  0
   -0.0530   -0.4800    0.7770 C   0  0  0  0  0  0  0  0  0  0  0  0
   -0.7110    0.4930   -0.1770 C   0  0  2  0  0  0  0  0  0  0  0  0
   -0.0240    1.6780   -0.1600 O   0  0  0  0  0  0  0  0  0  0  0  0
   -2.1810    0.6350    0.0460 C   0  0  0  0  0  0  0  0  0  0  0  0
   -2.7070    1.4370   -0.9590 O   0  0  0  0  0  0  0  0  0  0  0  0
   -0.3700   -0.2220   -1.4700 C   0  0  2  0  0  0  0  0  0  0  0  0
   -0.8600   -1.5150   -1.4750 O   0  0  0  0  0  0  0  0  0  0  0  0
    1.0280   -0.3300   -1.2820 O   0  0  0  0  0  0  0  0  0  0  0  0
  1  2  2  0
  2  3  1  0
  4  2  1  1
  4  5  1  0
  4 12  1  0
  5  6  1  0
  6  7  1  6
  6  8  1  0
  6 10  1  0
  8  9  1  0
 10 11  1  1
 10 12  1  0
M  END
