
     RDKit          3D

 40 42  0  0  0  0  0  0  0  0999 V2000
   -6.0380   -3.3840   -3.2130 C   0  0  0  0  0  0  0  0  0  0  0  0
   -6.7580   -2.5900   -2.4490 C   0  0  0  0  0  0  0  0  0  0  0  0
   -7.6620   -3.1490   -1.4220 C   0  0  0  0  0  0  0  0  0  0  0  0
   -6.6680   -1.1200   -2.6110 C   0  0  0  0  0  0  0  0  0  0  0  0
   -6.2090   -0.5000   -1.3580 N   0  0  0  0  0  0  0  0  0  0  0  0
   -4.9460   -0.8500   -0.7990 C   0  0  0  0  0  0  0  0  0  0  0  0
   -4.3050   -1.7120   -1.4810 O   0  0  0  0  0  0  0  0  0  0  0  0
   -4.3940   -0.3290    0.4010 C   0  0  1  0  0  0  0  0  0  0  0  0
   -2.9540   -0.5170    0.6170 N   0  0  0  0  0  0  0  0  0  0  0  0
   -1.8810   -0.5770   -0.2860 C   0  0  0  0  0  0  0  0  0  0  0  0
   -2.2210   -0.4120   -1.5250 O   0  0  0  0  0  0  0  0  0  0  0  0
   -0.4630   -0.8010    0.0090 C   0  0  1  0  0  0  0  0  0  0  0  0
    0.1810   -1.0580   -1.2240 O   0  0  0  0  0  0  0  0  0  0  0  0
    0.2510    0.4670    0.5330 C   0  0  2  0  0  0  0  0  0  0  0  0
    0.1560    1.5260   -0.5250 C   0  0  0  0  0  0  0  0  0  0  0  0
    0.8030    2.7910   -0.1250 C   0  0  0  0  0  0  0  0  0  0  0  0
    0.0590    3.7550    0.5420 C   0  0  0  0  0  0  0  0  0  0  0  0
    0.6590    4.9440    0.9210 C   0  0  0  0  0  0  0  0  0  0  0  0
    1.9890    5.1430    0.6250 C   0  0  0  0  0  0  0  0  0  0  0  0
    2.7460    4.1910   -0.0410 C   0  0  0  0  0  0  0  0  0  0  0  0
    2.1280    2.9920   -0.4190 C   0  0  0  0  0  0  0  0  0  0  0  0
    1.6630    0.0810    0.6350 N   0  0  0  0  0  0  0  0  0  0  0  0
    2.3280   -0.1540    1.8620 C   0  0  0  0  0  0  0  0  0  0  0  0
    1.7310   -0.0410    2.9400 O   0  0  0  0  0  0  0  0  0  0  0  0
    3.7670   -0.5420    1.8590 C   0  0  0  0  0  0  0  0  0  0  0  0
    4.2810   -0.6130    0.5550 O   0  0  0  0  0  0  0  0  0  0  0  0
    5.5940   -0.9520    0.3200 C   0  0  0  0  0  0  0  0  0  0  0  0
    6.0610   -2.2240    0.1390 C   0  0  0  0  0  0  0  0  0  0  0  0
    5.0570   -3.3290    0.2120 C   0  0  0  0  0  0  0  0  0  0  0  0
    7.4050   -2.4930   -0.0980 C   0  0  0  0  0  0  0  0  0  0  0  0
    8.3270   -1.4860   -0.1590 C   0  0  0  0  0  0  0  0  0  0  0  0
    9.7160   -1.7020   -0.4000 N   0  0  0  0  0  0  0  0  0  0  0  0
    7.8590   -0.2000    0.0250 C   0  0  0  0  0  0  0  0  0  0  0  0
    6.5350    0.0910    0.2600 C   0  0  0  0  0  0  0  0  0  0  0  0
    6.0600    1.4780    0.4530 C   0  0  0  0  0  0  0  0  0  0  0  0
   -2.8370   -0.5840    2.0880 C   0  0  0  0  0  0  0  0  0  0  0  0
   -3.6910    1.0310    2.4320 S   0  0  0  0  0  0  0  0  0  0  0  0
   -4.7020    1.0480    0.8640 C   0  0  1  0  0  0  0  0  0  0  0  0
   -4.1390    2.1390    0.0230 C   0  0  0  0  0  0  0  0  0  0  0  0
   -6.1090    1.2740    1.3320 C   0  0  0  0  0  0  0  0  0  0  0  0
  1  2  2  0
  2  3  1  0
  2  4  1  0
  4  5  1  0
  5  6  1  0
  6  7  2  0
  8  6  1  6
  8  9  1  0
  8 38  1  0
  9 10  1  0
  9 36  1  0
 10 11  2  0
 10 12  1  0
 12 13  1  6
 12 14  1  0
 14 15  1  6
 14 22  1  0
 15 16  1  0
 16 17  2  0
 16 21  1  0
 17 18  1  0
 18 19  2  0
 19 20  1  0
 20 21  2  0
 22 23  1  0
 23 24  2  0
 23 25  1  0
 25 26  1  0
 26 27  1  0
 27 28  2  0
 27 34  1  0
 28 29  1  0
 28 30  1  0
 30 31  2  0
 31 32  1  0
 31 33  1  0
 33 34  2  0
 34 35  1  0
 36 37  1  0
 37 38  1  0
 38 39  1  6
 38 40  1  0
M  END
