
     RDKit          3D

 42 47  0  0  0  0  0  0  0  0999 V2000
   -6.7580    0.3820    1.2770 C   0  0  0  0  0  0  0  0  0  0  0  0
   -5.5020   -0.3920    1.1440 C   0  0  0  0  0  0  0  0  0  0  0  0
   -5.5410   -1.7950    1.1260 C   0  0  0  0  0  0  0  0  0  0  0  0
   -4.4100   -2.5600    0.9870 C   0  0  0  0  0  0  0  0  0  0  0  0
   -4.4430   -3.9060    0.9690 N   0  0  0  0  0  0  0  0  0  0  0  0
   -3.3030   -4.5990    0.8290 C   0  0  0  0  0  0  0  0  0  0  0  0
   -3.3440   -5.8740    0.8130 O   0  0  0  0  0  0  0  0  0  0  0  0
   -2.0670   -4.0000    0.6990 C   0  0  0  0  0  0  0  0  0  0  0  0
   -0.9030   -4.6830    0.5560 C   0  0  0  0  0  0  0  0  0  0  0  0
    0.2800   -3.9490    0.4350 C   0  0  0  0  0  0  0  0  0  0  0  0
    0.3390   -2.5830    0.4530 C   0  0  0  0  0  0  0  0  0  0  0  0
    1.5470   -1.8130    0.3890 N   0  0  0  0  0  0  0  0  0  0  0  0
    2.8570   -2.3140    0.5080 C   0  0  0  0  0  0  0  0  0  0  0  0
    3.0580   -3.3320    1.4430 C   0  0  0  0  0  0  0  0  0  0  0  0
    4.3210   -3.7280    1.7100 N   0  0  0  0  0  0  0  0  0  0  0  0
    5.3630   -3.1720    1.1090 C   0  0  0  0  0  0  0  0  0  0  0  0
    5.1840   -2.1640    0.1820 C   0  0  0  0  0  0  0  0  0  0  0  0
    3.9220   -1.6900   -0.1630 C   0  0  0  0  0  0  0  0  0  0  0  0
    3.6420   -0.7230   -1.1600 C   0  0  0  0  0  0  0  0  0  0  0  0
    2.3810   -0.5200   -1.4170 O   0  0  0  0  0  0  0  0  0  0  0  0
    4.5010    0.0660   -1.9230 N   0  0  0  0  0  0  0  0  0  0  0  0
    3.8700    1.0450   -2.8850 C   0  0  0  0  0  0  0  0  0  0  0  0
    3.6330    2.3620   -2.2110 C   0  0  0  0  0  0  0  0  0  0  0  0
    3.0460    3.2600   -3.1150 O   0  0  0  0  0  0  0  0  0  0  0  0
    5.9300    0.0810   -1.9860 C   0  0  0  0  0  0  0  0  0  0  0  0
    6.5790    0.9820   -1.0090 C   0  0  0  0  0  0  0  0  0  0  0  0
    7.2640    2.1390   -1.2990 C   0  0  0  0  0  0  0  0  0  0  0  0
    7.6940    2.6490   -0.0830 C   0  0  0  0  0  0  0  0  0  0  0  0
    7.2510    1.7780    0.8880 C   0  0  0  0  0  0  0  0  0  0  0  0
    6.6060    0.8250    0.2860 O   0  0  0  0  0  0  0  0  0  0  0  0
   -0.8570   -1.9450    0.5980 N   0  0  0  0  0  0  0  0  0  0  0  0
   -1.9960   -2.6250    0.7130 C   0  0  0  0  0  0  0  0  0  0  0  0
   -3.1930   -1.9210    0.8600 C   0  0  0  0  0  0  0  0  0  0  0  0
   -3.1160   -0.5420    0.8730 C   0  0  0  0  0  0  0  0  0  0  0  0
   -4.2920    0.2060    1.0170 C   0  0  0  0  0  0  0  0  0  0  0  0
   -4.1340    1.6680    1.0450 C   0  0  1  0  0  0  0  0  0  0  0  0
   -4.5820    2.3200    2.3320 C   0  0  0  0  0  0  0  0  0  0  0  0
   -2.7230    2.1350    0.7680 C   0  0  0  0  0  0  0  0  0  0  0  0
   -2.4460    1.9090   -0.7030 C   0  0  0  0  0  0  0  0  0  0  0  0
   -3.0070    3.1600   -1.4030 C   0  0  0  0  0  0  0  0  0  0  0  0
   -4.2620    3.5190   -0.6750 C   0  0  0  0  0  0  0  0  0  0  0  0
   -4.9780    2.3340   -0.0560 C   0  0  0  0  0  0  0  0  0  0  0  0
  1  2  1  0
  2  3  2  0
  2 35  1  0
  3  4  1  0
  4  5  1  0
  4 33  2  0
  5  6  1  0
  6  7  2  0
  6  8  1  0
  8  9  2  0
  8 32  1  0
  9 10  1  0
 10 11  2  0
 11 12  1  0
 11 31  1  0
 12 13  1  0
 13 14  2  0
 13 18  1  0
 14 15  1  0
 15 16  2  0
 16 17  1  0
 17 18  2  0
 18 19  1  0
 19 20  2  0
 19 21  1  0
 21 22  1  0
 21 25  1  0
 22 23  1  0
 23 24  1  0
 25 26  1  0
 26 27  2  0
 26 30  1  0
 27 28  1  0
 28 29  2  0
 29 30  1  0
 31 32  2  0
 32 33  1  0
 33 34  1  0
 34 35  2  0
 35 36  1  0
 36 37  1  1
 36 38  1  0
 36 42  1  0
 38 39  1  0
 39 40  1  0
 40 41  1  0
 41 42  1  0
M  END
