
     RDKit          3D

 42 47  0  0  0  0  0  0  0  0999 V2000
    4.4710   -0.7590    3.4180 C   0  0  0  0  0  0  0  0  0  0  0  0
    4.9630   -0.3680    2.0740 C   0  0  0  0  0  0  0  0  0  0  0  0
    6.2670    0.1350    2.0310 C   0  0  0  0  0  0  0  0  0  0  0  0
    6.8010    0.5280    0.8240 C   0  0  0  0  0  0  0  0  0  0  0  0
    6.0340    0.4150   -0.3170 C   0  0  0  0  0  0  0  0  0  0  0  0
    4.7600   -0.0810   -0.2500 C   0  0  0  0  0  0  0  0  0  0  0  0
    4.1870   -0.4870    0.9440 C   0  0  0  0  0  0  0  0  0  0  0  0
    2.8420   -1.0180    1.0230 C   0  0  0  0  0  0  0  0  0  0  0  0
    2.4760   -2.1570    1.7030 C   0  0  0  0  0  0  0  0  0  0  0  0
    1.1620   -2.5990    1.7340 C   0  0  0  0  0  0  0  0  0  0  0  0
    0.1830   -1.8870    1.0680 C   0  0  0  0  0  0  0  0  0  0  0  0
   -1.0930   -2.2360    1.0570 N   0  0  0  0  0  0  0  0  0  0  0  0
   -2.0630   -1.5480    0.4250 C   0  0  0  0  0  0  0  0  0  0  0  0
   -1.7850   -0.3630   -0.3020 C   0  0  0  0  0  0  0  0  0  0  0  0
   -2.9050    0.4100   -0.7470 C   0  0  0  0  0  0  0  0  0  0  0  0
   -4.0520   -0.1170   -1.0100 N   0  0  0  0  0  0  0  0  0  0  0  0
   -4.6320   -1.3190   -1.0090 N   0  0  0  0  0  0  0  0  0  0  0  0
   -5.8040   -1.6790   -0.3090 C   0  0  0  0  0  0  0  0  0  0  0  0
   -6.3260   -0.7170    0.3830 O   0  0  0  0  0  0  0  0  0  0  0  0
   -6.4660   -2.9610   -0.2760 C   0  0  0  0  0  0  0  0  0  0  0  0
   -7.5630   -3.2160    0.4650 O   0  0  0  0  0  0  0  0  0  0  0  0
   -7.9490   -4.4270    0.3130 C   0  0  0  0  0  0  0  0  0  0  0  0
   -7.0980   -5.0600   -0.5680 C   0  0  0  0  0  0  0  0  0  0  0  0
   -6.1560   -4.1050   -0.9340 C   0  0  0  0  0  0  0  0  0  0  0  0
   -5.0620   -4.4110   -1.8850 C   0  0  0  0  0  0  0  0  0  0  0  0
   -2.9880    1.8820   -0.8370 C   0  0  0  0  0  0  0  0  0  0  0  0
   -2.0540    2.6230   -0.5750 O   0  0  0  0  0  0  0  0  0  0  0  0
   -4.2100    2.5070   -1.2490 N   0  0  0  0  0  0  0  0  0  0  0  0
   -4.2870    3.9680   -1.3370 C   0  0  0  0  0  0  0  0  0  0  0  0
   -4.0250    4.6310   -0.0410 C   0  0  0  0  0  0  0  0  0  0  0  0
   -2.8430    5.2370    0.3230 C   0  0  0  0  0  0  0  0  0  0  0  0
   -3.0330    5.7290    1.6200 C   0  0  0  0  0  0  0  0  0  0  0  0
   -4.3150    5.3870    1.9530 C   0  0  0  0  0  0  0  0  0  0  0  0
   -4.8670    4.7430    0.9510 O   0  0  0  0  0  0  0  0  0  0  0  0
   -0.4800   -0.0100   -0.2960 C   0  0  0  0  0  0  0  0  0  0  0  0
    0.0180    1.0790   -1.1830 C   0  0  0  0  0  0  0  0  0  0  0  0
    0.5270   -0.7460    0.3810 C   0  0  0  0  0  0  0  0  0  0  0  0
    1.8290   -0.3350    0.3700 C   0  0  0  0  0  0  0  0  0  0  0  0
    6.8410    0.9080   -1.4930 C   0  0  2  0  0  0  0  0  0  0  0  0
    7.7130   -0.1670   -2.0610 C   0  0  0  0  0  0  0  0  0  0  0  0
    7.7180    1.8570   -0.7880 N   0  0  0  0  0  0  0  0  0  0  0  0
    8.1030    1.0920    0.3830 C   0  0  0  0  0  0  0  0  0  0  0  0
  1  2  1  0
  2  3  2  0
  2  7  1  0
  3  4  1  0
  4  5  2  0
  4 42  1  0
  5  6  1  0
  5 39  1  0
  6  7  2  0
  7  8  1  0
  8  9  2  0
  8 38  1  0
  9 10  1  0
 10 11  2  0
 11 12  1  0
 11 37  1  0
 12 13  2  0
 13 14  1  0
 14 15  1  0
 14 35  2  0
 15 16  2  3
 15 26  1  0
 16 17  1  0
 17 18  1  0
 18 19  2  0
 18 20  1  0
 20 21  1  0
 20 24  2  0
 21 22  1  0
 22 23  2  0
 23 24  1  0
 24 25  1  0
 26 27  2  0
 26 28  1  0
 28 29  1  0
 29 30  1  0
 30 31  2  0
 30 34  1  0
 31 32  1  0
 32 33  2  0
 33 34  1  0
 35 36  1  0
 35 37  1  0
 37 38  2  0
 39 40  1  1
 39 41  1  0
 41 42  1  0
M  END
