
     RDKit          3D

 42 47  0  0  0  0  0  0  0  0999 V2000
    9.0510   -1.9210    2.7850 C   0  0  0  0  0  0  0  0  0  0  0  0
    9.0880   -0.5130    2.2780 C   0  0  0  0  0  0  0  0  0  0  0  0
    8.0950   -0.3180    1.1690 C   0  0  0  0  0  0  0  0  0  0  0  0
    8.4370   -0.5300   -0.1480 C   0  0  0  0  0  0  0  0  0  0  0  0
    7.5100   -0.3470   -1.1670 C   0  0  0  0  0  0  0  0  0  0  0  0
    6.2160    0.0510   -0.9000 C   0  0  0  0  0  0  0  0  0  0  0  0
    5.2790    0.2390   -1.8910 C   0  0  0  0  0  0  0  0  0  0  0  0
    3.9650    0.6420   -1.6340 C   0  0  0  0  0  0  0  0  0  0  0  0
    3.0020    0.8320   -2.7570 C   0  0  0  0  0  0  0  0  0  0  0  0
    2.2650   -0.4230   -3.1220 C   0  0  0  0  0  0  0  0  0  0  0  0
    1.5020   -0.9020   -1.9980 N   0  0  0  0  0  0  0  0  0  0  0  0
    0.4700   -0.1740   -1.3720 C   0  0  0  0  0  0  0  0  0  0  0  0
    0.1690    0.9660   -1.7950 O   0  0  0  0  0  0  0  0  0  0  0  0
   -0.2570   -0.7100   -0.2450 N   0  0  0  0  0  0  0  0  0  0  0  0
   -1.2930    0.0270    0.3790 C   0  0  0  0  0  0  0  0  0  0  0  0
   -2.5020   -0.5270    0.3870 C   0  0  0  0  0  0  0  0  0  0  0  0
   -3.7300    0.0700    0.9840 C   0  0  0  0  0  0  0  0  0  0  0  0
   -4.8470   -0.2650    0.4270 C   0  0  0  0  0  0  0  0  0  0  0  0
   -4.9250   -1.2110   -0.7130 C   0  0  0  0  0  0  0  0  0  0  0  0
   -6.1880   -1.3440   -1.0770 C   0  0  0  0  0  0  0  0  0  0  0  0
   -6.6880   -2.1940   -2.1700 C   0  0  0  0  0  0  0  0  0  0  0  0
   -7.9750   -2.3480   -2.5640 C   0  0  0  0  0  0  0  0  0  0  0  0
   -7.9700   -3.2420   -3.6260 C   0  0  0  0  0  0  0  0  0  0  0  0
   -6.6400   -3.5800   -3.8120 C   0  0  0  0  0  0  0  0  0  0  0  0
   -5.9210   -2.9330   -2.9230 O   0  0  0  0  0  0  0  0  0  0  0  0
   -6.9580   -0.5250   -0.2380 N   0  0  0  0  0  0  0  0  0  0  0  0
   -6.2010    0.1220    0.6470 C   0  0  0  0  0  0  0  0  0  0  0  0
   -6.8420    1.0570    1.5850 C   0  0  0  0  0  0  0  0  0  0  0  0
   -6.4280    2.1920    2.1850 C   0  0  0  0  0  0  0  0  0  0  0  0
   -7.4310    2.6920    3.0070 C   0  0  0  0  0  0  0  0  0  0  0  0
   -8.4530    1.7910    2.8550 C   0  0  0  0  0  0  0  0  0  0  0  0
   -8.0880    0.8650    2.0340 O   0  0  0  0  0  0  0  0  0  0  0  0
   -3.6310    0.8370    2.2190 C   0  0  0  0  0  0  0  0  0  0  0  0
   -4.3830    0.4940    3.1500 O   0  0  0  0  0  0  0  0  0  0  0  0
   -2.7310    1.9410    2.4230 N   0  0  0  0  0  0  0  0  0  0  0  0
   -1.4500    2.0910    1.7700 C   0  0  0  0  0  0  0  0  0  0  0  0
   -0.6550    3.2970    2.0660 C   0  0  0  0  0  0  0  0  0  0  0  0
   -0.8850    1.2760    0.9270 N   0  0  0  0  0  0  0  0  0  0  0  0
    3.6310    0.8510   -0.3160 C   0  0  0  0  0  0  0  0  0  0  0  0
    4.5790    0.6610    0.6820 C   0  0  0  0  0  0  0  0  0  0  0  0
    5.8720    0.2630    0.4180 C   0  0  0  0  0  0  0  0  0  0  0  0
    6.8020    0.0800    1.4390 C   0  0  0  0  0  0  0  0  0  0  0  0
  1  2  1  0
  2  3  1  0
  3  4  2  0
  3 42  1  0
  4  5  1  0
  5  6  2  0
  6  7  1  0
  6 41  1  0
  7  8  2  0
  8  9  1  0
  8 39  1  0
  9 10  1  0
 10 11  1  0
 11 12  1  0
 12 13  2  0
 12 14  1  0
 14 15  1  0
 15 16  2  0
 15 38  1  0
 16 17  1  0
 17 18  2  3
 17 33  1  0
 18 19  1  0
 18 27  1  0
 19 20  2  0
 20 21  1  0
 20 26  1  0
 21 22  2  0
 21 25  1  0
 22 23  1  0
 23 24  2  0
 24 25  1  0
 26 27  2  0
 27 28  1  0
 28 29  2  0
 28 32  1  0
 29 30  1  0
 30 31  2  0
 31 32  1  0
 33 34  2  0
 33 35  1  0
 35 36  1  0
 36 37  1  0
 36 38  2  0
 39 40  2  0
 40 41  1  0
 41 42  2  0
M  END
