
     RDKit          3D

 42 47  0  0  0  0  0  0  0  0999 V2000
   13.2380   -0.6250    1.0130 C   0  0  0  0  0  0  0  0  0  0  0  0
   11.8750   -0.4730    0.4330 C   0  0  0  0  0  0  0  0  0  0  0  0
   11.6870   -0.3490   -0.9400 C   0  0  0  0  0  0  0  0  0  0  0  0
   10.4530   -0.2120   -1.5030 C   0  0  0  0  0  0  0  0  0  0  0  0
    9.3110   -0.1900   -0.7020 C   0  0  0  0  0  0  0  0  0  0  0  0
    8.0000   -0.0770   -0.9660 N   0  0  0  0  0  0  0  0  0  0  0  0
    7.3680   -0.1280    0.2060 C   0  0  0  0  0  0  0  0  0  0  0  0
    5.8990   -0.0610    0.3760 C   0  0  0  0  0  0  0  0  0  0  0  0
    5.1000    0.0660   -0.7180 C   0  0  0  0  0  0  0  0  0  0  0  0
    3.7120    0.1040   -0.5670 C   0  0  0  0  0  0  0  0  0  0  0  0
    3.1000    0.0170    0.6530 C   0  0  0  0  0  0  0  0  0  0  0  0
    1.6410    0.0100    0.8620 C   0  0  0  0  0  0  0  0  0  0  0  0
    1.2040   -0.0040    2.0560 O   0  0  0  0  0  0  0  0  0  0  0  0
    0.7130    0.0130   -0.1930 N   0  0  0  0  0  0  0  0  0  0  0  0
   -0.6950   -0.0070   -0.0570 C   0  0  0  0  0  0  0  0  0  0  0  0
   -1.4180    0.2800    1.0620 C   0  0  0  0  0  0  0  0  0  0  0  0
   -2.7890    0.1660    1.0960 C   0  0  0  0  0  0  0  0  0  0  0  0
   -3.5450   -0.2510   -0.0110 C   0  0  0  0  0  0  0  0  0  0  0  0
   -4.8830   -0.4010   -0.0200 N   0  0  0  0  0  0  0  0  0  0  0  0
   -5.9670    0.1490   -0.2320 C   0  0  0  0  0  0  0  0  0  0  0  0
   -7.1470   -0.7010   -0.0240 C   0  0  0  0  0  0  0  0  0  0  0  0
   -8.2850   -0.3090   -0.1890 O   0  0  0  0  0  0  0  0  0  0  0  0
   -6.9420   -2.0410    0.3880 N   0  0  0  0  0  0  0  0  0  0  0  0
   -8.0950   -2.8980    0.5940 C   0  0  1  0  0  0  0  0  0  0  0  0
   -7.8560   -4.1650   -0.2240 C   0  0  0  0  0  0  0  0  0  0  0  0
   -8.1760   -3.2480    2.0780 C   0  0  0  0  0  0  0  0  0  0  0  0
   -6.0890    1.5710   -0.6710 C   0  0  0  0  0  0  0  0  0  0  0  0
   -7.2240    2.1730   -0.9050 C   0  0  0  0  0  0  0  0  0  0  0  0
   -7.3200    3.5860   -1.3390 C   0  0  0  0  0  0  0  0  0  0  0  0
   -8.3530    4.4250   -1.6410 C   0  0  0  0  0  0  0  0  0  0  0  0
   -7.8680    5.6200   -1.9820 O   0  0  0  0  0  0  0  0  0  0  0  0
   -6.5410    5.6030   -1.9150 C   0  0  0  0  0  0  0  0  0  0  0  0
   -6.1790    4.3080   -1.5050 C   0  0  0  0  0  0  0  0  0  0  0  0
   -4.9930    3.6740   -1.2580 O   0  0  0  0  0  0  0  0  0  0  0  0
   -4.8260    2.3520   -0.8490 C   0  0  0  0  0  0  0  0  0  0  0  0
   -2.7840   -0.5410   -1.1550 C   0  0  0  0  0  0  0  0  0  0  0  0
   -1.4260   -0.4240   -1.1750 C   0  0  0  0  0  0  0  0  0  0  0  0
    3.9500   -0.1120    1.7600 C   0  0  0  0  0  0  0  0  0  0  0  0
    5.3170   -0.1490    1.6120 C   0  0  0  0  0  0  0  0  0  0  0  0
    8.2480   -0.2680    1.2020 N   0  0  0  0  0  0  0  0  0  0  0  0
    9.4940   -0.3120    0.6620 C   0  0  0  0  0  0  0  0  0  0  0  0
   10.7450   -0.4510    1.2210 C   0  0  0  0  0  0  0  0  0  0  0  0
  1  2  1  0
  2  3  2  0
  2 42  1  0
  3  4  1  0
  4  5  2  0
  5  6  1  0
  5 41  1  0
  6  7  2  0
  7  8  1  0
  7 40  1  0
  8  9  2  0
  8 39  1  0
  9 10  1  0
 10 11  2  0
 11 12  1  0
 11 38  1  0
 12 13  2  0
 12 14  1  0
 14 15  1  0
 15 16  2  0
 15 37  1  0
 16 17  1  0
 17 18  2  0
 18 19  1  0
 18 36  1  0
 19 20  2  3
 20 21  1  0
 20 27  1  0
 21 22  2  0
 21 23  1  0
 23 24  1  0
 24 25  1  6
 24 26  1  0
 27 28  2  0
 27 35  1  0
 28 29  1  0
 29 30  2  0
 29 33  1  0
 30 31  1  0
 31 32  1  0
 32 33  2  0
 33 34  1  0
 34 35  1  0
 36 37  2  0
 38 39  2  0
 40 41  1  0
 41 42  2  0
M  END
