
     RDKit          3D

 42 47  0  0  0  0  0  0  0  0999 V2000
   10.6600   -0.8860   -1.8310 C   0  0  0  0  0  0  0  0  0  0  0  0
    9.2050   -1.1260   -1.5920 C   0  0  0  0  0  0  0  0  0  0  0  0
    8.6930   -1.1370   -0.3320 C   0  0  0  0  0  0  0  0  0  0  0  0
    7.3330   -1.3630   -0.1360 C   0  0  0  0  0  0  0  0  0  0  0  0
    6.4470   -1.5810   -1.1520 C   0  0  0  0  0  0  0  0  0  0  0  0
    5.1310   -1.7980   -0.9930 O   0  0  0  0  0  0  0  0  0  0  0  0
    4.2630   -1.8590    0.0680 C   0  0  0  0  0  0  0  0  0  0  0  0
    4.0770   -0.6120    0.8740 C   0  0  2  0  0  0  0  0  0  0  0  0
    3.1030   -0.7990    2.0090 C   0  0  0  0  0  0  0  0  0  0  0  0
    2.6380    0.4940    2.6090 C   0  0  0  0  0  0  0  0  0  0  0  0
    2.5050    1.5800    1.7020 N   0  0  0  0  0  0  0  0  0  0  0  0
    1.4390    2.5040    1.6640 C   0  0  0  0  0  0  0  0  0  0  0  0
    1.6640    3.8140    1.9920 N   0  0  0  0  0  0  0  0  0  0  0  0
    0.7050    4.7400    1.9900 C   0  0  0  0  0  0  0  0  0  0  0  0
   -0.5730    4.3940    1.6470 C   0  0  0  0  0  0  0  0  0  0  0  0
   -0.8630    3.0910    1.3050 C   0  0  0  0  0  0  0  0  0  0  0  0
    0.1580    2.1360    1.3150 C   0  0  0  0  0  0  0  0  0  0  0  0
   -0.1160    0.7540    0.9140 C   0  0  0  0  0  0  0  0  0  0  0  0
   -1.5510    0.5570    0.6360 N   0  0  0  0  0  0  0  0  0  0  0  0
   -2.5030    0.6480    1.6620 C   0  0  0  0  0  0  0  0  0  0  0  0
   -1.9350    0.8860    2.8350 O   0  0  0  0  0  0  0  0  0  0  0  0
   -3.9090    0.5450    1.6880 C   0  0  0  0  0  0  0  0  0  0  0  0
   -4.9200    0.4090    0.9250 C   0  0  0  0  0  0  0  0  0  0  0  0
   -5.2110    0.2880   -0.4720 C   0  0  0  0  0  0  0  0  0  0  0  0
   -4.3760    0.7130   -1.4710 C   0  0  0  0  0  0  0  0  0  0  0  0
   -4.7010    0.4730   -2.7890 C   0  0  0  0  0  0  0  0  0  0  0  0
   -3.8250    0.9180   -3.7650 O   0  0  0  0  0  0  0  0  0  0  0  0
   -5.8590   -0.1880   -3.1320 C   0  0  0  0  0  0  0  0  0  0  0  0
   -6.7230   -0.6260   -2.1240 C   0  0  0  0  0  0  0  0  0  0  0  0
   -6.4030   -0.3910   -0.8180 C   0  0  0  0  0  0  0  0  0  0  0  0
   -7.2830   -0.8380    0.1910 O   0  0  0  0  0  0  0  0  0  0  0  0
   -8.4630   -1.5080   -0.0960 C   0  0  0  0  0  0  0  0  0  0  0  0
   -9.3260   -1.9460    0.8960 C   0  0  0  0  0  0  0  0  0  0  0  0
  -10.5000   -2.6130    0.6070 C   0  0  0  0  0  0  0  0  0  0  0  0
  -10.8050   -2.8400   -0.7210 C   0  0  0  0  0  0  0  0  0  0  0  0
   -9.9630   -2.4120   -1.6810 N   0  0  0  0  0  0  0  0  0  0  0  0
   -8.8160   -1.7610   -1.4060 C   0  0  0  0  0  0  0  0  0  0  0  0
   -7.9280   -1.3110   -2.4380 N   0  0  0  0  0  0  0  0  0  0  0  0
    3.5670    1.7720    0.7160 C   0  0  0  0  0  0  0  0  0  0  0  0
    3.6600    0.4860   -0.0700 C   0  0  0  0  0  0  0  0  0  0  0  0
    7.0080   -1.5640   -2.4450 C   0  0  0  0  0  0  0  0  0  0  0  0
    8.3470   -1.3430   -2.6460 C   0  0  0  0  0  0  0  0  0  0  0  0
  1  2  1  0
  2  3  2  0
  2 42  1  0
  3  4  1  0
  4  5  2  0
  5  6  1  0
  5 41  1  0
  6  7  1  0
  8  7  1  6
  8  9  1  0
  8 40  1  0
  9 10  1  0
 10 11  1  0
 11 12  1  0
 11 39  1  0
 12 13  2  0
 12 17  1  0
 13 14  1  0
 14 15  2  0
 15 16  1  0
 16 17  2  0
 17 18  1  0
 18 19  1  0
 19 20  1  0
 20 21  2  0
 20 22  1  0
 22 23  2  3
 23 24  1  0
 24 25  2  0
 24 30  1  0
 25 26  1  0
 26 27  1  0
 26 28  2  0
 28 29  1  0
 29 30  2  0
 29 38  1  0
 30 31  1  0
 31 32  1  0
 32 33  2  0
 32 37  1  0
 33 34  1  0
 34 35  2  0
 35 36  1  0
 36 37  2  0
 37 38  1  0
 39 40  1  0
 41 42  2  0
M  END
