
     RDKit          3D

 42 47  0  0  0  0  0  0  0  0999 V2000
    2.4520   -7.0000   -2.4980 C   0  0  0  0  0  0  0  0  0  0  0  0
    1.7370   -5.8420   -1.9170 C   0  0  0  0  0  0  0  0  0  0  0  0
    0.3970   -5.9290   -1.6010 C   0  0  0  0  0  0  0  0  0  0  0  0
   -0.3030   -4.9010   -1.0640 C   0  0  0  0  0  0  0  0  0  0  0  0
   -1.7570   -5.0550   -0.7460 C   0  0  0  0  0  0  0  0  0  0  0  0
    0.3440   -3.6380   -0.7920 C   0  0  0  0  0  0  0  0  0  0  0  0
   -0.4550   -2.6820   -0.3020 N   0  0  0  0  0  0  0  0  0  0  0  0
   -0.9990   -1.9110    0.4100 C   0  0  0  0  0  0  0  0  0  0  0  0
   -2.0750   -0.9560    0.0220 C   0  0  0  0  0  0  0  0  0  0  0  0
   -2.5790   -0.8360   -1.2500 C   0  0  0  0  0  0  0  0  0  0  0  0
   -3.5480    0.1540   -1.1460 C   0  0  0  0  0  0  0  0  0  0  0  0
   -4.4160    0.7420   -2.0380 C   0  0  0  0  0  0  0  0  0  0  0  0
   -4.4170    0.3840   -3.2400 O   0  0  0  0  0  0  0  0  0  0  0  0
   -5.2850    1.7050   -1.6830 N   0  0  0  0  0  0  0  0  0  0  0  0
   -5.3450    2.1460   -0.4080 C   0  0  0  0  0  0  0  0  0  0  0  0
   -6.2410    3.1320   -0.0540 C   0  0  0  0  0  0  0  0  0  0  0  0
   -7.1570    3.7180   -1.0930 C   0  0  0  0  0  0  0  0  0  0  0  0
   -6.2990    3.5740    1.2510 C   0  0  0  0  0  0  0  0  0  0  0  0
   -5.4400    3.0070    2.1880 C   0  0  0  0  0  0  0  0  0  0  0  0
   -5.4930    3.4790    3.6020 C   0  0  0  0  0  0  0  0  0  0  0  0
   -4.5450    2.0200    1.8220 C   0  0  0  0  0  0  0  0  0  0  0  0
   -4.4720    1.5590    0.5080 C   0  0  0  0  0  0  0  0  0  0  0  0
   -3.5780    0.5750    0.1660 C   0  0  0  0  0  0  0  0  0  0  0  0
   -2.6730   -0.1230    0.8280 O   0  0  0  0  0  0  0  0  0  0  0  0
    1.6710   -3.5440   -1.1000 C   0  0  0  0  0  0  0  0  0  0  0  0
    2.4780   -2.3700   -0.8360 C   0  0  0  0  0  0  0  0  0  0  0  0
    3.4460   -2.1490   -1.6630 O   0  0  0  0  0  0  0  0  0  0  0  0
    2.3570   -1.4380    0.2000 N   0  0  0  0  0  0  0  0  0  0  0  0
    3.1390   -0.2850    0.4480 C   0  0  0  0  0  0  0  0  0  0  0  0
    4.1050    0.2300   -0.3470 C   0  0  0  0  0  0  0  0  0  0  0  0
    4.8310    1.3810    0.0090 C   0  0  0  0  0  0  0  0  0  0  0  0
    4.5980    2.0360    1.1740 C   0  0  0  0  0  0  0  0  0  0  0  0
    5.2940    3.2190    1.6280 C   0  0  0  0  0  0  0  0  0  0  0  0
    4.7690    3.9450    2.5130 O   0  0  0  0  0  0  0  0  0  0  0  0
    6.5860    3.6340    1.1210 C   0  0  0  0  0  0  0  0  0  0  0  0
    7.2650    4.8080    1.3430 C   0  0  0  0  0  0  0  0  0  0  0  0
    8.4570    4.7080    0.6370 C   0  0  0  0  0  0  0  0  0  0  0  0
    8.4760    3.5260    0.0260 N   0  0  0  0  0  0  0  0  0  0  0  0
    7.3650    2.8990    0.3190 N   0  0  0  0  0  0  0  0  0  0  0  0
    3.6030    1.5210    2.0100 C   0  0  0  0  0  0  0  0  0  0  0  0
    2.8990    0.3920    1.6490 C   0  0  0  0  0  0  0  0  0  0  0  0
    2.3530   -4.6440   -1.6580 C   0  0  0  0  0  0  0  0  0  0  0  0
  1  2  1  0
  2  3  2  0
  2 42  1  0
  3  4  1  0
  4  5  1  0
  4  6  2  0
  6  7  1  0
  6 25  1  0
  7  8  2  3
  8  9  1  0
  9 10  2  0
  9 24  1  0
 10 11  1  0
 11 12  1  0
 11 23  2  0
 12 13  2  0
 12 14  1  0
 14 15  1  0
 15 16  2  0
 15 22  1  0
 16 17  1  0
 16 18  1  0
 18 19  2  0
 19 20  1  0
 19 21  1  0
 21 22  2  0
 22 23  1  0
 23 24  1  0
 25 26  1  0
 25 42  2  0
 26 27  2  0
 26 28  1  0
 28 29  1  0
 29 30  2  0
 29 41  1  0
 30 31  1  0
 31 32  2  0
 32 33  1  0
 32 40  1  0
 33 34  2  0
 33 35  1  0
 35 36  1  0
 35 39  2  0
 36 37  2  0
 37 38  1  0
 38 39  1  0
 40 41  2  0
M  END
