
     RDKit          3D

 43 47  0  0  0  0  0  0  0  0999 V2000
   -7.3860    0.3890   -0.1720 O   0  0  0  0  0  0  0  0  0  0  0  0
   -7.0130   -0.6070    0.4850 C   0  0  0  0  0  0  0  0  0  0  0  0
   -5.8840   -0.6700    1.4200 C   0  0  0  0  0  0  0  0  0  0  0  0
   -4.9260    0.4270    1.5460 C   0  0  1  0  0  0  0  0  0  0  0  0
   -4.0800    0.8680    0.5810 O   0  0  0  0  0  0  0  0  0  0  0  0
   -2.7390    0.8030    0.2860 C   0  0  0  0  0  0  0  0  0  0  0  0
   -1.7930    1.7340    0.6910 C   0  0  0  0  0  0  0  0  0  0  0  0
   -0.4500    1.6420    0.3940 C   0  0  0  0  0  0  0  0  0  0  0  0
   -0.0110    0.5380   -0.3570 C   0  0  0  0  0  0  0  0  0  0  0  0
    1.3640    0.4320   -0.5080 N   0  0  0  0  0  0  0  0  0  0  0  0
    2.0240   -0.7270    0.2020 C   0  0  0  0  0  0  0  0  0  0  0  0
    1.2460   -1.4670    0.7490 O   0  0  0  0  0  0  0  0  0  0  0  0
    3.4200   -0.5790    0.0200 N   0  0  0  0  0  0  0  0  0  0  0  0
    3.8400   -1.9990    0.8800 C   0  0  0  0  0  0  0  0  0  0  0  0
    2.9470   -2.6740    1.2040 O   0  0  0  0  0  0  0  0  0  0  0  0
    5.2480   -2.1240    1.0740 C   0  0  0  0  0  0  0  0  0  0  0  0
    5.7480   -3.3530    1.6000 C   0  0  0  0  0  0  0  0  0  0  0  0
    7.0660   -3.2100    1.7180 N   0  0  0  0  0  0  0  0  0  0  0  0
    7.4270   -2.0060    1.3110 N   0  0  0  0  0  0  0  0  0  0  0  0
    8.4590   -1.1570    1.1270 C   0  0  0  0  0  0  0  0  0  0  0  0
    7.9890    0.0060    0.6260 C   0  0  0  0  0  0  0  0  0  0  0  0
    8.7770    1.2260    0.2700 C   0  0  2  0  0  0  0  0  0  0  0  0
    8.2850    1.7490   -1.0920 C   0  0  0  0  0  0  0  0  0  0  0  0
    9.0000    0.9550   -2.0100 O   0  0  0  0  0  0  0  0  0  0  0  0
    9.8970    0.2160   -1.2520 C   0  0  0  0  0  0  0  0  0  0  0  0
   10.0920    0.9340   -0.0570 O   0  0  0  0  0  0  0  0  0  0  0  0
    6.6570   -0.1080    0.4950 O   0  0  0  0  0  0  0  0  0  0  0  0
    6.3220   -1.3210    0.9090 C   0  0  0  0  0  0  0  0  0  0  0  0
   -0.9360   -0.3790   -0.7640 C   0  0  0  0  0  0  0  0  0  0  0  0
   -2.2620   -0.2700   -0.4650 C   0  0  0  0  0  0  0  0  0  0  0  0
   -3.1720   -1.2780   -1.0540 C   0  0  0  0  0  0  0  0  0  0  0  0
   -4.1700   -0.6980   -1.8200 O   0  0  0  0  0  0  0  0  0  0  0  0
   -3.8640    0.4510   -2.4780 C   0  0  0  0  0  0  0  0  0  0  0  0
   -5.0750    1.3950   -2.3880 C   0  0  0  0  0  0  0  0  0  0  0  0
   -4.8870    2.2670   -1.3630 O   0  0  0  0  0  0  0  0  0  0  0  0
   -5.5740    2.9660   -0.4440 C   0  0  0  0  0  0  0  0  0  0  0  0
   -5.6720    4.2630   -0.6860 O   0  0  0  0  0  0  0  0  0  0  0  0
   -6.2090    2.5060    0.7480 N   0  0  0  0  0  0  0  0  0  0  0  0
   -5.8270    1.6670    1.7940 C   0  0  0  0  0  0  0  0  0  0  0  0
   -6.1470    1.8010    2.9990 O   0  0  0  0  0  0  0  0  0  0  0  0
   -7.8270   -1.7840    0.2540 N   0  0  0  0  0  0  0  0  0  0  0  0
   -8.8630   -1.7270   -0.6050 O   0  0  0  0  0  0  0  0  0  0  0  0
   -9.8500   -1.1620    0.0850 O   0  0  0  0  0  0  0  0  0  0  0  0
  1  2  2  0
  2  3  1  0
  2 41  1  0
  4  3  1  6
  4  5  1  0
  4 39  1  0
  5  6  1  0
  6  7  2  0
  6 30  1  0
  7  8  1  0
  8  9  2  0
  9 10  1  0
  9 29  1  0
 10 11  1  0
 11 12  2  0
 11 13  1  0
 13 14  1  0
 14 15  2  0
 14 16  1  0
 16 17  1  0
 16 28  2  0
 17 18  2  0
 18 19  1  0
 19 20  1  0
 19 28  1  0
 20 21  2  0
 22 21  1  6
 21 27  1  0
 22 23  1  0
 22 26  1  0
 23 24  1  0
 24 25  1  0
 25 26  1  0
 27 28  1  0
 29 30  2  0
 30 31  1  0
 31 32  1  0
 32 33  1  0
 33 34  1  0
 34 35  1  0
 35 36  1  0
 36 37  2  0
 36 38  1  0
 38 39  1  0
 39 40  2  0
 41 42  1  0
 42 43  1  0
M  END
