
     RDKit          3D

 43 45  0  0  0  0  0  0  0  0999 V2000
    5.3430    0.7090    1.6560 C   0  0  0  0  0  0  0  0  0  0  0  0
    4.2440    0.9800    0.6420 C   0  0  2  0  0  0  0  0  0  0  0  0
    3.8050    2.4060    0.8350 C   0  0  0  0  0  0  0  0  0  0  0  0
    3.2350    0.0340    0.8360 O   0  0  0  0  0  0  0  0  0  0  0  0
    2.0430   -0.0110    0.0570 C   0  0  0  0  0  0  0  0  0  0  0  0
    2.0520    0.8980   -0.7920 O   0  0  0  0  0  0  0  0  0  0  0  0
    1.0520   -1.0400    0.3350 C   0  0  2  0  0  0  0  0  0  0  0  0
    1.5370   -2.4170   -0.1200 C   0  0  0  0  0  0  0  0  0  0  0  0
    0.9520   -3.4410    0.8170 C   0  0  0  0  0  0  0  0  0  0  0  0
   -0.3700   -3.1150    1.2310 N   0  0  0  0  0  0  0  0  0  0  0  0
   -1.0750   -1.8810    0.9560 C   0  0  0  0  0  0  0  0  0  0  0  0
   -0.3620   -0.8940    0.0330 C   0  0  2  0  0  0  0  0  0  0  0  0
   -0.8210   -1.3080   -1.3120 C   0  0  0  0  0  0  0  0  0  0  0  0
   -1.6260   -2.2690   -1.3960 O   0  0  0  0  0  0  0  0  0  0  0  0
   -0.4490   -0.7340   -2.5350 N   0  0  0  0  0  0  0  0  0  0  0  0
   -0.9320   -1.1910   -3.8250 C   0  0  0  0  0  0  0  0  0  0  0  0
   -0.5530   -2.6140   -4.0750 C   0  0  0  0  0  0  0  0  0  0  0  0
   -1.0620   -2.9560   -5.3400 O   0  0  0  0  0  0  0  0  0  0  0  0
   -1.0120    0.4050    0.3910 C   0  0  0  0  0  0  0  0  0  0  0  0
   -0.1680    1.5810    0.2180 N   0  0  0  0  0  0  0  0  0  0  0  0
   -0.6180    2.6470   -0.3160 C   0  0  0  0  0  0  0  0  0  0  0  0
   -1.9320    2.7770   -0.7730 O   0  0  0  0  0  0  0  0  0  0  0  0
    0.2760    3.8190   -0.4710 C   0  0  0  0  0  0  0  0  0  0  0  0
   -0.2820    4.9550    0.2520 N   0  0  0  0  0  0  0  0  0  0  0  0
    0.4180    6.1820    0.2360 C   0  0  0  0  0  0  0  0  0  0  0  0
    1.5060    6.3200   -0.3840 O   0  0  0  0  0  0  0  0  0  0  0  0
   -0.0610    7.3010    0.9050 O   0  0  0  0  0  0  0  0  0  0  0  0
   -2.1450    0.5930    0.8100 N   0  0  0  0  0  0  0  0  0  0  0  0
   -3.3390   -0.0050    1.1760 C   0  0  0  0  0  0  0  0  0  0  0  0
   -4.5740    0.4110    0.6410 C   0  0  0  0  0  0  0  0  0  0  0  0
   -5.7600   -0.2010    0.9750 C   0  0  0  0  0  0  0  0  0  0  0  0
   -5.7180   -1.2670    1.8740 C   0  0  0  0  0  0  0  0  0  0  0  0
   -4.5050   -1.6560    2.3820 C   0  0  0  0  0  0  0  0  0  0  0  0
   -3.4410   -1.0140    2.0090 N   0  0  0  0  0  0  0  0  0  0  0  0
   -4.3940   -2.8380    3.2740 C   0  0  0  0  0  0  0  0  0  0  0  0
   -5.4120   -3.1280    3.9120 O   0  0  0  0  0  0  0  0  0  0  0  0
   -3.1620   -3.5220    3.3200 O   0  0  0  0  0  0  0  0  0  0  0  0
   -2.4750   -3.9760    2.2560 O   0  0  0  0  0  0  0  0  0  0  0  0
   -1.1370   -4.0570    2.0000 C   0  0  0  0  0  0  0  0  0  0  0  0
   -0.4170   -5.0340    2.4480 O   0  0  0  0  0  0  0  0  0  0  0  0
    4.8680    0.8370   -0.7000 C   0  0  0  0  0  0  0  0  0  0  0  0
    4.4370   -0.0690   -1.4580 O   0  0  0  0  0  0  0  0  0  0  0  0
    5.8930    1.6630   -1.1300 O   0  0  0  0  0  0  0  0  0  0  0  0
  2  1  1  1
  2  3  1  0
  2  4  1  0
  2 41  1  0
  4  5  1  0
  5  6  2  0
  7  5  1  6
  7  8  1  0
  7 12  1  0
  8  9  1  0
  9 10  1  0
 10 11  1  0
 10 39  1  0
 11 12  1  0
 12 13  1  6
 12 19  1  0
 13 14  2  0
 13 15  1  0
 15 16  1  0
 16 17  1  0
 17 18  1  0
 19 20  1  0
 19 28  2  0
 20 21  2  3
 21 22  1  0
 21 23  1  0
 23 24  1  0
 24 25  1  0
 25 26  2  0
 25 27  1  0
 28 29  1  0
 29 30  2  0
 29 34  1  0
 30 31  1  0
 31 32  2  0
 32 33  1  0
 33 34  2  0
 33 35  1  0
 35 36  2  0
 35 37  1  0
 37 38  1  0
 38 39  1  0
 39 40  2  0
 41 42  2  0
 41 43  1  0
M  END
