
     RDKit          3D

 43 46  0  0  0  0  0  0  0  0999 V2000
  -10.8500    1.7600    1.6740 C   0  0  0  0  0  0  0  0  0  0  0  0
   -9.4300    1.9760    1.1760 C   0  0  0  0  0  0  0  0  0  0  0  0
   -8.5460    1.4910    2.1840 O   0  0  0  0  0  0  0  0  0  0  0  0
   -7.1680    1.5450    2.0300 C   0  0  0  0  0  0  0  0  0  0  0  0
   -6.7290    2.0410    0.9650 O   0  0  0  0  0  0  0  0  0  0  0  0
   -6.2630    1.0940    2.9650 O   0  0  0  0  0  0  0  0  0  0  0  0
   -4.8610    1.1600    2.7860 C   0  0  0  0  0  0  0  0  0  0  0  0
   -4.4660    0.3730    1.5650 C   0  0  0  0  0  0  0  0  0  0  0  0
   -5.2050   -0.2890    0.7480 O   0  0  0  0  0  0  0  0  0  0  0  0
   -4.4720   -0.8450   -0.2040 C   0  0  0  0  0  0  0  0  0  0  0  0
   -4.9970   -1.5460   -1.1200 N   0  0  0  0  0  0  0  0  0  0  0  0
   -3.1800   -0.5380   -0.0130 N   0  0  0  0  0  0  0  0  0  0  0  0
   -2.0360   -0.8500   -0.6920 C   0  0  0  0  0  0  0  0  0  0  0  0
   -2.0210   -1.5720   -1.7470 C   0  0  0  0  0  0  0  0  0  0  0  0
   -2.9300   -2.2770   -2.5970 C   0  0  0  0  0  0  0  0  0  0  0  0
   -3.2210   -3.6390   -2.4510 C   0  0  0  0  0  0  0  0  0  0  0  0
   -4.0820   -3.9780   -3.3900 N   0  0  0  0  0  0  0  0  0  0  0  0
   -4.3330   -2.8860   -4.1050 C   0  0  0  0  0  0  0  0  0  0  0  0
   -3.6530   -1.8700   -3.6400 O   0  0  0  0  0  0  0  0  0  0  0  0
   -0.8420   -0.3100   -0.1430 C   0  0  0  0  0  0  0  0  0  0  0  0
    0.2930   -0.5610   -0.7310 C   0  0  0  0  0  0  0  0  0  0  0  0
    1.6230   -0.1270   -0.3630 C   0  0  0  0  0  0  0  0  0  0  0  0
    2.7200   -0.4660   -1.0710 C   0  0  0  0  0  0  0  0  0  0  0  0
    4.0620   -0.0520   -0.7350 N   0  0  0  0  0  0  0  0  0  0  0  0
    4.8830   -0.5260   -1.5840 C   0  0  0  0  0  0  0  0  0  0  0  0
    6.2960   -0.3150   -1.5570 N   0  0  0  0  0  0  0  0  0  0  0  0
    6.8290    0.9430   -1.1440 C   0  0  2  0  0  0  0  0  0  0  0  0
    6.5090    1.3510    0.2580 C   0  0  0  0  0  0  0  0  0  0  0  0
    6.9630    0.4680    1.2230 O   0  0  0  0  0  0  0  0  0  0  0  0
    8.3220    0.2770    1.2350 C   0  0  0  0  0  0  0  0  0  0  0  0
    8.6260   -0.7190    2.3610 C   0  0  0  0  0  0  0  0  0  0  0  0
    7.9390   -1.9080    2.0680 O   0  0  0  0  0  0  0  0  0  0  0  0
    8.1760   -2.7900    3.0120 O   0  0  0  0  0  0  0  0  0  0  0  0
    6.4580    2.0500   -2.0640 C   0  0  0  0  0  0  0  0  0  0  0  0
    5.7490    1.8140   -3.0720 O   0  0  0  0  0  0  0  0  0  0  0  0
    6.8690    3.3530   -1.8490 O   0  0  0  0  0  0  0  0  0  0  0  0
    4.2290   -1.2810   -2.5520 O   0  0  0  0  0  0  0  0  0  0  0  0
    2.8440   -1.2650   -2.2560 C   0  0  0  0  0  0  0  0  0  0  0  0
    1.9470   -1.8410   -2.9160 O   0  0  0  0  0  0  0  0  0  0  0  0
   -0.9410    0.4560    0.9910 C   0  0  0  0  0  0  0  0  0  0  0  0
    0.1010    0.9670    1.5270 N   0  0  0  0  0  0  0  0  0  0  0  0
   -2.0710    0.7120    1.5850 O   0  0  0  0  0  0  0  0  0  0  0  0
   -3.1620    0.2350    1.1070 C   0  0  0  0  0  0  0  0  0  0  0  0
  1  2  1  0
  2  3  1  0
  3  4  1  0
  4  5  2  0
  4  6  1  0
  6  7  1  0
  7  8  1  0
  8  9  1  0
  8 43  2  0
  9 10  1  0
 10 11  2  0
 10 12  1  0
 12 13  1  0
 12 43  1  0
 13 14  2  3
 13 20  1  0
 14 15  1  0
 15 16  2  0
 15 19  1  0
 16 17  1  0
 17 18  2  0
 18 19  1  0
 20 21  2  3
 20 40  1  0
 21 22  1  0
 22 23  2  3
 23 24  1  0
 23 38  1  0
 24 25  2  0
 25 26  1  0
 25 37  1  0
 26 27  1  0
 27 28  1  1
 27 34  1  0
 28 29  1  0
 29 30  1  0
 30 31  1  0
 31 32  1  0
 32 33  1  0
 34 35  2  0
 34 36  1  0
 37 38  1  0
 38 39  2  0
 40 41  2  0
 40 42  1  0
 42 43  1  0
M  END
