
     RDKit          3D

 43 47  0  0  0  0  0  0  0  0999 V2000
    2.8250   -4.1310    0.7350 O   0  0  0  0  0  0  0  0  0  0  0  0
    2.0190   -3.4930   -0.0500 C   0  0  0  0  0  0  0  0  0  0  0  0
    2.2740   -2.1030   -0.1440 N   0  0  0  0  0  0  0  0  0  0  0  0
    1.1600   -1.1880   -0.2010 C   0  0  0  0  0  0  0  0  0  0  0  0
    1.2660    0.0520   -0.9610 C   0  0  1  0  0  0  0  0  0  0  0  0
    1.8390    1.1400   -0.0330 C   0  0  0  0  0  0  0  0  0  0  0  0
    3.1130    0.7180    0.4440 O   0  0  0  0  0  0  0  0  0  0  0  0
    3.8680    1.5010    1.3030 C   0  0  0  0  0  0  0  0  0  0  0  0
    3.3870    2.6090    1.6530 O   0  0  0  0  0  0  0  0  0  0  0  0
    5.1820    1.1020    1.8150 C   0  0  2  0  0  0  0  0  0  0  0  0
    6.2570    2.0160    1.2310 C   0  0  0  0  0  0  0  0  0  0  0  0
    7.2610    1.1220    0.8780 O   0  0  0  0  0  0  0  0  0  0  0  0
    6.9520   -0.0910    1.5080 C   0  0  0  0  0  0  0  0  0  0  0  0
    5.5680   -0.1470    1.3320 O   0  0  0  0  0  0  0  0  0  0  0  0
    2.2570    0.0040   -2.1250 C   0  0  0  0  0  0  0  0  0  0  0  0
    2.4530    1.3690   -2.4530 O   0  0  0  0  0  0  0  0  0  0  0  0
    1.2740    1.7800   -3.0640 C   0  0  0  0  0  0  0  0  0  0  0  0
    0.0880    1.7490   -2.1520 C   0  0  0  0  0  0  0  0  0  0  0  0
   -0.0440    0.4430   -1.4590 N   0  0  0  0  0  0  0  0  0  0  0  0
   -1.2730   -0.2090   -1.3830 C   0  0  0  0  0  0  0  0  0  0  0  0
   -1.8060   -0.3670   -2.5690 O   0  0  0  0  0  0  0  0  0  0  0  0
   -2.1340   -0.7620   -0.3650 C   0  0  2  0  0  0  0  0  0  0  0  0
   -3.4650   -0.0930   -0.3030 C   0  0  0  0  0  0  0  0  0  0  0  0
   -4.5820   -0.8610   -0.1370 C   0  0  0  0  0  0  0  0  0  0  0  0
   -5.8590   -0.3000   -0.0700 C   0  0  0  0  0  0  0  0  0  0  0  0
   -5.9920    1.0670   -0.1750 C   0  0  0  0  0  0  0  0  0  0  0  0
   -7.2600    1.6590   -0.1120 O   0  0  0  0  0  0  0  0  0  0  0  0
   -7.4280    2.9700   -0.2100 O   0  0  0  0  0  0  0  0  0  0  0  0
   -7.0690    3.5920    0.9150 O   0  0  0  0  0  0  0  0  0  0  0  0
   -6.6820    4.8190    0.6050 O   0  0  0  0  0  0  0  0  0  0  0  0
   -4.8690    1.8510   -0.3440 C   0  0  0  0  0  0  0  0  0  0  0  0
   -3.6150    1.2640   -0.4060 C   0  0  0  0  0  0  0  0  0  0  0  0
   -1.7110   -0.8830    0.9850 N   0  0  0  0  0  0  0  0  0  0  0  0
   -1.4440    0.1740    1.8150 C   0  0  0  0  0  0  0  0  0  0  0  0
   -1.0530   -0.3270    3.0260 C   0  0  0  0  0  0  0  0  0  0  0  0
   -1.0830   -1.6370    2.9310 N   0  0  0  0  0  0  0  0  0  0  0  0
   -1.4890   -2.0250    1.6750 C   0  0  0  0  0  0  0  0  0  0  0  0
   -1.6370   -3.3510    1.2370 N   0  0  0  0  0  0  0  0  0  0  0  0
   -1.4850   -3.9640   -0.0020 C   0  0  0  0  0  0  0  0  0  0  0  0
   -2.6230   -4.5150   -0.4060 O   0  0  0  0  0  0  0  0  0  0  0  0
   -0.3360   -4.0910   -0.8830 C   0  0  0  0  0  0  0  0  0  0  0  0
   -0.6870   -4.0190   -2.1400 O   0  0  0  0  0  0  0  0  0  0  0  0
    1.0210   -4.2710   -0.6850 N   0  0  0  0  0  0  0  0  0  0  0  0
  1  2  2  0
  2  3  1  0
  2 43  1  0
  3  4  1  0
  4  5  1  0
  5  6  1  1
  5 15  1  0
  5 19  1  0
  6  7  1  0
  7  8  1  0
  8  9  2  0
 10  8  1  6
 10 11  1  0
 10 14  1  0
 11 12  1  0
 12 13  1  0
 13 14  1  0
 15 16  1  0
 16 17  1  0
 17 18  1  0
 18 19  1  0
 19 20  1  0
 20 21  2  0
 20 22  1  0
 22 23  1  1
 22 33  1  0
 23 24  2  0
 23 32  1  0
 24 25  1  0
 25 26  2  0
 26 27  1  0
 26 31  1  0
 27 28  1  0
 28 29  1  0
 29 30  1  0
 31 32  2  0
 33 34  1  0
 33 37  1  0
 34 35  2  0
 35 36  1  0
 36 37  2  0
 37 38  1  0
 38 39  1  0
 39 40  2  0
 39 41  1  0
 41 42  2  0
 41 43  1  0
M  END
