
     RDKit          3D

 43 45  0  0  0  0  0  0  0  0999 V2000
    0.6660   -1.7200    2.3700 C   0  0  0  0  0  0  0  0  0  0  0  0
    0.6240   -1.1340    0.9980 C   0  0  1  0  0  0  0  0  0  0  0  0
    1.6460   -1.8550    0.1430 C   0  0  0  0  0  0  0  0  0  0  0  0
    3.0410   -1.8540    0.7250 C   0  0  0  0  0  0  0  0  0  0  0  0
    3.7770   -0.7170    0.1990 N   0  0  0  0  0  0  0  0  0  0  0  0
    5.1570   -0.8730   -0.1470 C   0  0  0  0  0  0  0  0  0  0  0  0
    5.3810   -1.3000   -1.5740 C   0  0  0  0  0  0  0  0  0  0  0  0
    6.9010   -1.4150   -1.7540 C   0  0  0  0  0  0  0  0  0  0  0  0
    7.3930   -2.3770   -0.8440 O   0  0  0  0  0  0  0  0  0  0  0  0
    8.6880   -2.4640   -1.0090 O   0  0  0  0  0  0  0  0  0  0  0  0
    3.2080    0.5850   -0.0060 C   0  0  0  0  0  0  0  0  0  0  0  0
    3.9880    1.4740   -0.3890 O   0  0  0  0  0  0  0  0  0  0  0  0
    1.8060    1.0040    0.1820 N   0  0  0  0  0  0  0  0  0  0  0  0
    1.5430    2.0860   -0.7380 C   0  0  0  0  0  0  0  0  0  0  0  0
    1.6000    3.4630   -0.1890 C   0  0  2  0  0  0  0  0  0  0  0  0
    2.6120    3.5440    0.8300 N   0  0  0  0  0  0  0  0  0  0  0  0
    3.6830    4.5010    0.7190 C   0  0  0  0  0  0  0  0  0  0  0  0
    3.6720    5.2430   -0.3030 O   0  0  0  0  0  0  0  0  0  0  0  0
    4.6720    4.6250    1.6550 O   0  0  0  0  0  0  0  0  0  0  0  0
    0.3070    3.9320    0.4360 C   0  0  0  0  0  0  0  0  0  0  0  0
   -0.8770    3.8950   -0.4710 C   0  0  0  0  0  0  0  0  0  0  0  0
   -2.0390    3.1750    0.2290 C   0  0  0  0  0  0  0  0  0  0  0  0
   -2.7390    2.3470   -0.6090 O   0  0  0  0  0  0  0  0  0  0  0  0
   -4.0590    2.1890   -0.2250 C   0  0  0  0  0  0  0  0  0  0  0  0
   -4.7620    1.1070   -0.9920 C   0  0  0  0  0  0  0  0  0  0  0  0
   -5.9950    0.7110   -0.3460 N   0  0  0  0  0  0  0  0  0  0  0  0
   -6.4950   -0.6260   -0.3310 C   0  0  0  0  0  0  0  0  0  0  0  0
   -7.7300   -0.8690   -0.4150 O   0  0  0  0  0  0  0  0  0  0  0  0
   -5.5830   -1.7910   -0.2170 C   0  0  0  0  0  0  0  0  0  0  0  0
   -4.4060   -1.6550    0.3190 O   0  0  0  0  0  0  0  0  0  0  0  0
   -3.7250   -2.7450    0.3530 N   0  0  0  0  0  0  0  0  0  0  0  0
   -4.5050   -3.6980   -0.2060 C   0  0  0  0  0  0  0  0  0  0  0  0
   -4.1640   -4.8870   -0.3420 O   0  0  0  0  0  0  0  0  0  0  0  0
   -5.6950   -3.1320   -0.5820 C   0  0  0  0  0  0  0  0  0  0  0  0
   -6.8490   -3.6560   -1.2010 N   0  0  0  0  0  0  0  0  0  0  0  0
   -7.0770   -4.9750   -1.6100 C   0  0  0  0  0  0  0  0  0  0  0  0
   -6.2010   -5.8380   -1.4370 O   0  0  0  0  0  0  0  0  0  0  0  0
   -2.3670   -2.7420    0.9320 C   0  0  0  0  0  0  0  0  0  0  0  0
   -1.8690   -1.3350    0.7910 C   0  0  0  0  0  0  0  0  0  0  0  0
   -2.7170   -0.4540    1.0960 O   0  0  0  0  0  0  0  0  0  0  0  0
   -0.6100   -1.1410    0.3680 O   0  0  0  0  0  0  0  0  0  0  0  0
    0.9610    0.3590    1.0960 C   0  0  0  0  0  0  0  0  0  0  0  0
    0.3520    0.8020    2.0980 O   0  0  0  0  0  0  0  0  0  0  0  0
  2  1  1  1
  2  3  1  0
  2 41  1  0
  2 42  1  0
  3  4  1  0
  4  5  1  0
  5  6  1  0
  5 11  1  0
  6  7  1  0
  7  8  1  0
  8  9  1  0
  9 10  1  0
 11 12  2  0
 11 13  1  0
 13 14  1  0
 13 42  1  0
 14 15  1  0
 15 16  1  1
 15 20  1  0
 16 17  1  0
 17 18  2  0
 17 19  1  0
 20 21  1  0
 21 22  1  0
 22 23  1  0
 23 24  1  0
 24 25  1  0
 25 26  1  0
 26 27  1  0
 27 28  2  0
 27 29  1  0
 29 30  1  0
 29 34  2  0
 30 31  1  0
 31 32  1  0
 31 38  1  0
 32 33  2  0
 32 34  1  0
 34 35  1  0
 35 36  1  0
 36 37  2  0
 38 39  1  0
 39 40  2  0
 39 41  1  0
 42 43  2  0
M  END
