
     RDKit          3D

 43 46  0  0  0  0  0  0  0  0999 V2000
    3.6710    5.7100    2.7150 C   0  0  0  0  0  0  0  0  0  0  0  0
    4.1360    4.7720    1.7650 O   0  0  0  0  0  0  0  0  0  0  0  0
    3.6830    4.7210    0.4760 N   0  0  0  0  0  0  0  0  0  0  0  0
    3.2320    3.6730   -0.1050 C   0  0  0  0  0  0  0  0  0  0  0  0
    3.1470    2.3700    0.5640 C   0  0  0  0  0  0  0  0  0  0  0  0
    2.6790    1.2740   -0.0350 C   0  0  0  0  0  0  0  0  0  0  0  0
    2.6700    0.0610    0.7880 C   0  0  0  0  0  0  0  0  0  0  0  0
    2.9580   -1.1490    0.3680 C   0  0  0  0  0  0  0  0  0  0  0  0
    3.3180   -1.4840   -0.9260 O   0  0  0  0  0  0  0  0  0  0  0  0
    3.0570   -2.8850   -1.1120 C   0  0  2  0  0  0  0  0  0  0  0  0
    1.6120   -3.0170   -1.4720 C   0  0  0  0  0  0  0  0  0  0  0  0
    0.8600   -4.0500   -0.6750 C   0  0  0  0  0  0  0  0  0  0  0  0
   -0.2180   -3.3380    0.1580 C   0  0  0  0  0  0  0  0  0  0  0  0
   -1.5390   -3.6950   -0.3040 N   0  0  0  0  0  0  0  0  0  0  0  0
   -2.4320   -2.8690   -1.0170 C   0  0  0  0  0  0  0  0  0  0  0  0
   -2.9390   -3.3700   -2.0880 O   0  0  0  0  0  0  0  0  0  0  0  0
   -2.8220   -1.5950   -0.7010 O   0  0  0  0  0  0  0  0  0  0  0  0
   -2.0680   -0.4600   -0.4580 C   0  0  1  0  0  0  0  0  0  0  0  0
   -1.0230   -0.2370   -1.3500 O   0  0  0  0  0  0  0  0  0  0  0  0
   -0.1070    0.6460   -0.7890 C   0  0  2  0  0  0  0  0  0  0  0  0
   -0.6940    1.9450   -0.3350 C   0  0  0  0  0  0  0  0  0  0  0  0
   -2.0910    1.8640    0.1970 C   0  0  0  0  0  0  0  0  0  0  0  0
   -2.9060    0.8150   -0.5290 C   0  0  2  0  0  0  0  0  0  0  0  0
   -4.2070    0.6390    0.0130 N   0  0  0  0  0  0  0  0  0  0  0  0
   -4.5370    0.2730    1.3700 C   0  0  0  0  0  0  0  0  0  0  0  0
   -5.9360    0.7650    1.5620 C   0  0  0  0  0  0  0  0  0  0  0  0
   -6.5010    0.7350    0.2340 N   0  0  0  0  0  0  0  0  0  0  0  0
   -7.8810    0.6610   -0.1030 C   0  0  0  0  0  0  0  0  0  0  0  0
   -8.7860    0.6140    0.8060 N   0  0  0  0  0  0  0  0  0  0  0  0
   -5.4260    0.7920   -0.6880 C   0  0  0  0  0  0  0  0  0  0  0  0
   -5.5900    0.9560   -1.9450 O   0  0  0  0  0  0  0  0  0  0  0  0
    0.9750    0.8620   -1.8160 C   0  0  0  0  0  0  0  0  0  0  0  0
    2.2230    1.1970   -1.3130 O   0  0  0  0  0  0  0  0  0  0  0  0
    3.3610   -3.4390    0.1930 N   0  0  0  0  0  0  0  0  0  0  0  0
    3.9210   -4.7040    0.5840 C   0  0  0  0  0  0  0  0  0  0  0  0
    5.3330   -4.6290    0.6580 O   0  0  0  0  0  0  0  0  0  0  0  0
    5.8300   -5.7790    1.0140 O   0  0  0  0  0  0  0  0  0  0  0  0
    2.9790   -2.4200    1.1160 C   0  0  0  0  0  0  0  0  0  0  0  0
    2.7200   -2.6260    2.3340 O   0  0  0  0  0  0  0  0  0  0  0  0
    2.8140    3.8130   -1.4240 O   0  0  0  0  0  0  0  0  0  0  0  0
    2.8800    5.0210   -2.0820 C   0  0  0  0  0  0  0  0  0  0  0  0
    3.3300    6.0110   -1.4580 O   0  0  0  0  0  0  0  0  0  0  0  0
    2.4770    5.2100   -3.3920 O   0  0  0  0  0  0  0  0  0  0  0  0
  1  2  1  0
  2  3  1  0
  3  4  2  3
  4  5  1  0
  4 40  1  0
  5  6  2  3
  6  7  1  0
  6 33  1  0
  7  8  2  0
  8  9  1  0
  8 38  1  0
  9 10  1  0
 10 11  1  1
 10 34  1  0
 11 12  1  0
 12 13  1  0
 13 14  1  0
 14 15  1  0
 15 16  2  0
 15 17  1  0
 18 17  1  6
 18 19  1  0
 18 23  1  0
 19 20  1  0
 20 21  1  6
 20 32  1  0
 21 22  1  0
 22 23  1  0
 23 24  1  1
 24 25  1  0
 24 30  1  0
 25 26  1  0
 26 27  1  0
 27 28  1  0
 27 30  1  0
 28 29  2  0
 30 31  2  0
 32 33  1  0
 34 35  1  0
 34 38  1  0
 35 36  1  0
 36 37  1  0
 38 39  2  0
 40 41  1  0
 41 42  2  0
 41 43  1  0
M  END
