
     RDKit          3D

 32 35  0  0  0  0  0  0  0  0999 V2000
   -6.7680    3.1310    1.2010 C   0  0  0  0  0  0  0  0  0  0  0  0
   -5.5350    2.3330    1.3680 C   0  0  0  0  0  0  0  0  0  0  0  0
   -5.0380    2.0720    2.6280 C   0  0  0  0  0  0  0  0  0  0  0  0
   -3.8850    1.3230    2.7130 C   0  0  0  0  0  0  0  0  0  0  0  0
   -3.2470    0.8490    1.6080 N   0  0  0  0  0  0  0  0  0  0  0  0
   -3.7100    1.0890    0.3780 C   0  0  0  0  0  0  0  0  0  0  0  0
   -3.0620    0.6040   -0.8040 N   0  0  0  0  0  0  0  0  0  0  0  0
   -1.8760   -0.1690   -0.7540 C   0  0  0  0  0  0  0  0  0  0  0  0
   -1.3820   -0.4340    0.3700 O   0  0  0  0  0  0  0  0  0  0  0  0
   -1.1960   -0.6760   -1.9560 C   0  0  2  0  0  0  0  0  0  0  0  0
   -2.1790   -1.4530   -2.7940 C   0  0  0  0  0  0  0  0  0  0  0  0
   -0.0050   -1.4390   -1.6470 N   0  0  0  0  0  0  0  0  0  0  0  0
    1.0910   -0.8920   -0.9520 C   0  0  0  0  0  0  0  0  0  0  0  0
    1.1450    0.4360   -0.6400 N   0  0  0  0  0  0  0  0  0  0  0  0
    2.3090    0.7230   -0.0570 C   0  0  0  0  0  0  0  0  0  0  0  0
    2.7660    2.0400    0.4320 C   0  0  0  0  0  0  0  0  0  0  0  0
    1.9740    3.1580    0.3190 C   0  0  0  0  0  0  0  0  0  0  0  0
    2.4410    4.3830    0.7920 C   0  0  0  0  0  0  0  0  0  0  0  0
    3.6870    4.4920    1.3730 C   0  0  0  0  0  0  0  0  0  0  0  0
    4.4810    3.3760    1.4880 C   0  0  0  0  0  0  0  0  0  0  0  0
    6.0570    3.5390    2.2300 Cl  0  0  0  0  0  0  0  0  0  0  0  0
    4.0070    2.1690    1.0160 C   0  0  0  0  0  0  0  0  0  0  0  0
    2.9870   -0.4230    0.0000 N   0  0  0  0  0  0  0  0  0  0  0  0
    2.2610   -1.4600   -0.5480 C   0  0  0  0  0  0  0  0  0  0  0  0
    2.7750   -2.8060   -0.6520 C   0  0  0  0  0  0  0  0  0  0  0  0
    4.1460   -3.0270   -0.5270 C   0  0  0  0  0  0  0  0  0  0  0  0
    4.7010   -4.2670   -0.5640 C   0  0  0  0  0  0  0  0  0  0  0  0
    3.9120   -5.3750   -0.7290 C   0  0  0  0  0  0  0  0  0  0  0  0
    2.5660   -5.1920   -0.8530 C   0  0  0  0  0  0  0  0  0  0  0  0
    1.7560   -6.3070   -1.0210 O   0  0  0  0  0  0  0  0  0  0  0  0
    2.0020   -3.9050   -0.8130 C   0  0  0  0  0  0  0  0  0  0  0  0
   -4.8620    1.8360    0.2630 C   0  0  0  0  0  0  0  0  0  0  0  0
  1  2  1  0
  2  3  2  0
  2 32  1  0
  3  4  1  0
  4  5  2  0
  5  6  1  0
  6  7  1  0
  6 32  2  0
  7  8  1  0
  8  9  2  0
  8 10  1  0
 10 11  1  1
 10 12  1  0
 12 13  1  0
 13 14  1  0
 13 24  2  0
 14 15  2  0
 15 16  1  0
 15 23  1  0
 16 17  2  0
 16 22  1  0
 17 18  1  0
 18 19  2  0
 19 20  1  0
 20 21  1  0
 20 22  2  0
 23 24  1  0
 24 25  1  0
 25 26  2  0
 25 31  1  0
 26 27  1  0
 27 28  2  0
 28 29  1  0
 29 30  1  0
 29 31  2  0
M  END
