
     RDKit          3D

 31 34  0  0  0  0  0  0  0  0999 V2000
   -8.8680    1.5340   -0.7860 C   0  0  0  0  0  0  0  0  0  0  0  0
   -7.4650    1.4540   -0.2030 C   0  0  0  0  0  0  0  0  0  0  0  0
   -6.6870    2.5650   -0.1990 C   0  0  0  0  0  0  0  0  0  0  0  0
   -5.3230    2.4690    0.1990 C   0  0  0  0  0  0  0  0  0  0  0  0
   -4.8040    1.2560    0.6000 C   0  0  0  0  0  0  0  0  0  0  0  0
   -3.5510    0.8330    0.9370 N   0  0  0  0  0  0  0  0  0  0  0  0
   -3.5560   -0.4610    1.1360 C   0  0  0  0  0  0  0  0  0  0  0  0
   -2.5720   -1.4750    1.4230 C   0  0  1  0  0  0  0  0  0  0  0  0
   -2.9560   -2.6000    0.3150 C   0  0  0  0  0  0  0  0  0  0  0  0
   -1.1710   -1.3040    1.2470 N   0  0  0  0  0  0  0  0  0  0  0  0
   -0.5250   -1.4140   -0.0140 C   0  0  0  0  0  0  0  0  0  0  0  0
   -1.2840   -1.6080   -1.0370 O   0  0  0  0  0  0  0  0  0  0  0  0
    0.9190   -1.3530   -0.1860 C   0  0  0  0  0  0  0  0  0  0  0  0
    1.8650   -1.0670    0.6870 N   0  0  0  0  0  0  0  0  0  0  0  0
    3.1290   -1.2730    0.1250 C   0  0  0  0  0  0  0  0  0  0  0  0
    4.4460   -1.1400    0.7520 C   0  0  0  0  0  0  0  0  0  0  0  0
    5.1350    0.0840    0.2890 C   0  0  0  0  0  0  0  0  0  0  0  0
    4.4070    1.0860   -0.3260 C   0  0  0  0  0  0  0  0  0  0  0  0
    4.9820    2.2330   -0.7300 C   0  0  0  0  0  0  0  0  0  0  0  0
    6.3720    2.4320   -0.5460 C   0  0  0  0  0  0  0  0  0  0  0  0
    7.1390    3.8830   -1.1800 Cl  0  0  0  0  0  0  0  0  0  0  0  0
    7.0740    1.4440    0.0650 C   0  0  0  0  0  0  0  0  0  0  0  0
    8.4760    1.8380    0.4130 C   0  0  0  0  0  0  0  0  0  0  0  0
    9.4290    1.0630   -0.2540 O   0  0  0  0  0  0  0  0  0  0  0  0
    6.4960    0.2610    0.5010 C   0  0  0  0  0  0  0  0  0  0  0  0
    2.8710   -1.6920   -1.0880 N   0  0  0  0  0  0  0  0  0  0  0  0
    1.5860   -1.7640   -1.3770 C   0  0  0  0  0  0  0  0  0  0  0  0
    0.9520   -2.2220   -2.6150 C   0  0  0  0  0  0  0  0  0  0  0  0
   -4.8600   -0.8700    0.9310 N   0  0  0  0  0  0  0  0  0  0  0  0
   -5.6070    0.1740    0.6030 C   0  0  0  0  0  0  0  0  0  0  0  0
   -6.9510    0.2330    0.2060 C   0  0  0  0  0  0  0  0  0  0  0  0
  1  2  1  0
  2  3  2  0
  2 31  1  0
  3  4  1  0
  4  5  2  0
  5  6  1  0
  5 30  1  0
  6  7  2  0
  7  8  1  0
  7 29  1  0
  8  9  1  6
  8 10  1  0
 10 11  1  0
 11 12  2  0
 11 13  1  0
 13 14  1  0
 13 27  2  0
 14 15  1  0
 15 16  1  0
 15 26  2  0
 16 17  1  0
 17 18  2  0
 17 25  1  0
 18 19  1  0
 19 20  2  0
 20 21  1  0
 20 22  1  0
 22 23  1  0
 22 25  2  0
 23 24  1  0
 26 27  1  0
 27 28  1  0
 29 30  1  0
 30 31  2  0
M  END
