
     RDKit          3D

 32 35  0  0  0  0  0  0  0  0999 V2000
   -8.1020    0.0270    0.1240 C   0  0  0  0  0  0  0  0  0  0  0  0
   -6.7880    0.1490    0.0940 C   0  0  0  0  0  0  0  0  0  0  0  0
   -5.9910   -0.2010    1.2100 N   0  0  0  0  0  0  0  0  0  0  0  0
   -4.7000   -0.0790    1.1800 C   0  0  0  0  0  0  0  0  0  0  0  0
   -3.9810   -0.4510    2.3360 N   0  0  0  0  0  0  0  0  0  0  0  0
   -3.9870    0.4180    0.0150 C   0  0  0  0  0  0  0  0  0  0  0  0
   -4.7480    0.7650   -1.0850 C   0  0  0  0  0  0  0  0  0  0  0  0
   -3.8920    1.1850   -2.0050 N   0  0  0  0  0  0  0  0  0  0  0  0
   -2.6220    1.1180   -1.5350 C   0  0  0  0  0  0  0  0  0  0  0  0
   -1.4760    1.5350   -2.3690 C   0  0  0  0  0  0  0  0  0  0  0  0
   -1.0090    0.3480   -3.1600 C   0  0  0  0  0  0  0  0  0  0  0  0
   -2.6890    0.6480   -0.2980 N   0  0  0  0  0  0  0  0  0  0  0  0
   -1.6020    0.4140    0.5910 C   0  0  0  0  0  0  0  0  0  0  0  0
   -0.9880   -0.9460    0.5210 C   0  0  0  0  0  0  0  0  0  0  0  0
    0.1310   -1.0130    1.5640 C   0  0  0  0  0  0  0  0  0  0  0  0
    1.1900   -0.0370    1.3760 C   0  0  0  0  0  0  0  0  0  0  0  0
    1.2590    1.0650    2.2190 C   0  0  0  0  0  0  0  0  0  0  0  0
    2.2190    2.0360    2.1190 C   0  0  0  0  0  0  0  0  0  0  0  0
    2.2490    3.4060    3.2220 Cl  0  0  0  0  0  0  0  0  0  0  0  0
    3.1670    1.9340    1.1440 C   0  0  0  0  0  0  0  0  0  0  0  0
    4.1370    2.9350    1.0270 C   0  0  0  0  0  0  0  0  0  0  0  0
    5.1040    2.8950    0.0510 C   0  0  0  0  0  0  0  0  0  0  0  0
    5.0840    1.8280   -0.8150 C   0  0  0  0  0  0  0  0  0  0  0  0
    4.1180    0.8420   -0.6900 C   0  0  0  0  0  0  0  0  0  0  0  0
    3.1440    0.8610    0.2800 C   0  0  0  0  0  0  0  0  0  0  0  0
    2.1640   -0.1200    0.3960 C   0  0  0  0  0  0  0  0  0  0  0  0
    2.1410   -1.1820   -0.4520 O   0  0  0  0  0  0  0  0  0  0  0  0
    2.6580   -2.4480   -0.3500 C   0  0  0  0  0  0  0  0  0  0  0  0
    4.1190   -2.6740   -0.2180 C   0  0  2  0  0  0  0  0  0  0  0  0
    4.8060   -2.5190   -1.5940 C   0  0  0  0  0  0  0  0  0  0  0  0
    4.3180   -4.0730    0.0470 O   0  0  0  0  0  0  0  0  0  0  0  0
   -6.1710    0.6420   -1.0790 N   0  0  0  0  0  0  0  0  0  0  0  0
  1  2  2  0
  2  3  1  0
  2 32  1  0
  3  4  2  0
  4  5  1  0
  4  6  1  0
  6  7  2  0
  6 12  1  0
  7  8  1  0
  7 32  1  0
  8  9  2  0
  9 10  1  0
  9 12  1  0
 10 11  1  0
 12 13  1  0
 13 14  1  0
 14 15  1  0
 15 16  1  0
 16 17  2  0
 16 26  1  0
 17 18  1  0
 18 19  1  0
 18 20  2  0
 20 21  1  0
 20 25  1  0
 21 22  2  0
 22 23  1  0
 23 24  2  0
 24 25  1  0
 25 26  2  0
 26 27  1  0
 27 28  1  0
 28 29  1  0
 29 30  1  6
 29 31  1  0
M  END
