
     RDKit          3D

 32 35  0  0  0  0  0  0  0  0999 V2000
   -2.0060   -4.7360    0.4170 C   0  0  0  0  0  0  0  0  0  0  0  0
   -1.6290   -3.2750    0.3690 C   0  0  0  0  0  0  0  0  0  0  0  0
   -2.5100   -2.3580    0.3410 N   0  0  0  0  0  0  0  0  0  0  0  0
   -2.2250   -0.9660    0.2960 C   0  0  0  0  0  0  0  0  0  0  0  0
   -3.2410   -0.1080    0.2710 C   0  0  0  0  0  0  0  0  0  0  0  0
   -4.6300   -0.6560    0.2920 C   0  0  0  0  0  0  0  0  0  0  0  0
   -3.0530    1.3110    0.2250 C   0  0  0  0  0  0  0  0  0  0  0  0
   -3.9260    2.2230    0.2000 N   0  0  0  0  0  0  0  0  0  0  0  0
   -5.3030    2.2350    0.2040 C   0  0  0  0  0  0  0  0  0  0  0  0
   -6.0950    1.9840    1.3280 C   0  0  0  0  0  0  0  0  0  0  0  0
   -7.4660    2.0250    1.2670 C   0  0  0  0  0  0  0  0  0  0  0  0
   -8.1140    2.3170    0.0870 C   0  0  0  0  0  0  0  0  0  0  0  0
   -9.8760    2.3680    0.0160 Cl  0  0  0  0  0  0  0  0  0  0  0  0
   -7.3650    2.5590   -0.9970 N   0  0  0  0  0  0  0  0  0  0  0  0
   -6.0250    2.5250   -0.9630 C   0  0  0  0  0  0  0  0  0  0  0  0
   -5.3400    2.7570   -1.9990 O   0  0  0  0  0  0  0  0  0  0  0  0
   -0.8720   -0.6100    0.2810 N   0  0  0  0  0  0  0  0  0  0  0  0
    0.1670   -1.6160    0.3110 C   0  0  0  0  0  0  0  0  0  0  0  0
    1.5380   -1.2090    0.2270 C   0  0  0  0  0  0  0  0  0  0  0  0
    1.8600    0.1180    0.4820 C   0  0  0  0  0  0  0  0  0  0  0  0
    3.1630    0.5770    0.3600 C   0  0  0  0  0  0  0  0  0  0  0  0
    4.1930   -0.2560   -0.0170 C   0  0  0  0  0  0  0  0  0  0  0  0
    5.5620    0.2390   -0.1420 C   0  0  0  0  0  0  0  0  0  0  0  0
    6.4830   -0.5380   -0.4870 O   0  0  0  0  0  0  0  0  0  0  0  0
    5.8670    1.6620    0.1400 C   0  0  0  0  0  0  0  0  0  0  0  0
    7.3300    1.9120   -0.0590 C   0  0  1  0  0  0  0  0  0  0  0  0
    7.8230    1.6230   -1.4610 C   0  0  0  0  0  0  0  0  0  0  0  0
    7.7040    3.0230   -0.9510 C   0  0  0  0  0  0  0  0  0  0  0  0
    3.8700   -1.5640   -0.2690 C   0  0  0  0  0  0  0  0  0  0  0  0
    2.5450   -2.0460   -0.1490 C   0  0  0  0  0  0  0  0  0  0  0  0
    2.4010   -3.4140   -0.4920 N   0  0  0  0  0  0  0  0  0  0  0  0
   -0.2070   -2.8680    0.3530 C   0  0  0  0  0  0  0  0  0  0  0  0
  1  2  1  0
  2  3  2  0
  2 32  1  0
  3  4  1  0
  4  5  2  3
  4 17  1  0
  5  6  1  0
  5  7  1  0
  7  8  2  3
  8  9  1  0
  9 10  2  0
  9 15  1  0
 10 11  1  0
 11 12  2  0
 12 13  1  0
 12 14  1  0
 14 15  1  0
 15 16  2  0
 17 18  1  0
 18 19  1  0
 18 32  2  0
 19 20  2  0
 19 30  1  0
 20 21  1  0
 21 22  2  0
 22 23  1  0
 22 29  1  0
 23 24  2  0
 23 25  1  0
 26 25  1  6
 26 27  1  0
 26 28  1  0
 27 28  1  0
 29 30  2  0
 30 31  1  0
M  END
