
     RDKit          3D

 32 34  0  0  0  0  0  0  0  0999 V2000
   -9.7700   -0.8420   -1.3200 N   0  0  0  0  0  0  0  0  0  0  0  0
   -8.5150   -0.9910   -0.6810 C   0  0  0  0  0  0  0  0  0  0  0  0
   -8.1940   -2.1800   -0.1510 N   0  0  0  0  0  0  0  0  0  0  0  0
   -6.9920   -2.3490    0.4740 C   0  0  0  0  0  0  0  0  0  0  0  0
   -6.0960   -1.3560    0.5840 N   0  0  0  0  0  0  0  0  0  0  0  0
   -6.3720   -0.1510    0.0700 C   0  0  0  0  0  0  0  0  0  0  0  0
   -7.5960    0.0270   -0.5680 C   0  0  0  0  0  0  0  0  0  0  0  0
   -7.6090    1.2920   -0.9750 N   0  0  0  0  0  0  0  0  0  0  0  0
   -6.4540    1.8820   -0.6130 C   0  0  0  0  0  0  0  0  0  0  0  0
   -5.6680    0.9990    0.0410 N   0  0  0  0  0  0  0  0  0  0  0  0
   -4.3820    1.3280    0.5550 C   0  0  2  0  0  0  0  0  0  0  0  0
   -3.3980    1.3880   -0.4300 O   0  0  0  0  0  0  0  0  0  0  0  0
   -2.1890    1.4750    0.2580 C   0  0  2  0  0  0  0  0  0  0  0  0
   -1.0560    1.0160   -0.6070 C   0  0  0  0  0  0  0  0  0  0  0  0
   -1.1530   -0.2850   -1.0500 O   0  0  0  0  0  0  0  0  0  0  0  0
    0.1870   -0.7000   -2.0090 S   0  0  1  0  0  0  0  0  0  0  0  0
   -0.1620   -1.9300   -2.7730 O   0  0  0  0  0  0  0  0  0  0  0  0
    0.4590    0.4110   -2.9540 O   0  0  0  0  0  0  0  0  0  0  0  0
    1.5530   -0.9560   -0.9480 N   0  0  0  0  0  0  0  0  0  0  0  0
    2.6650   -0.1170   -1.0110 C   0  0  0  0  0  0  0  0  0  0  0  0
    2.6290    0.8370   -1.8620 O   0  0  0  0  0  0  0  0  0  0  0  0
    3.9030   -0.2250   -0.1690 C   0  0  1  0  0  0  0  0  0  0  0  0
    4.0880   -1.5790    0.1860 N   0  0  0  0  0  0  0  0  0  0  0  0
    4.9700    0.4870   -0.8890 C   0  0  0  0  0  0  0  0  0  0  0  0
    6.3180    0.6280   -0.3490 C   0  0  0  0  0  0  0  0  0  0  0  0
    7.0110   -0.6540   -0.0910 C   0  0  0  0  0  0  0  0  0  0  0  0
    8.4460   -0.4400    0.4060 C   0  0  0  0  0  0  0  0  0  0  0  0
    9.2280    0.2780   -0.5790 N   0  0  0  0  0  0  0  0  0  0  0  0
   -2.3500    0.7370    1.5420 C   0  0  1  0  0  0  0  0  0  0  0  0
   -2.3470    1.6570    2.6110 O   0  0  0  0  0  0  0  0  0  0  0  0
   -3.8040    0.2420    1.4450 C   0  0  1  0  0  0  0  0  0  0  0  0
   -4.3440    0.2620    2.7120 O   0  0  0  0  0  0  0  0  0  0  0  0
  1  2  1  0
  2  3  2  0
  2  7  1  0
  3  4  1  0
  4  5  2  0
  5  6  1  0
  6  7  2  0
  6 10  1  0
  7  8  1  0
  8  9  2  0
  9 10  1  0
 11 10  1  6
 11 12  1  0
 11 31  1  0
 12 13  1  0
 13 14  1  6
 13 29  1  0
 14 15  1  0
 15 16  1  0
 16 17  2  0
 16 18  2  0
 16 19  1  1
 19 20  1  0
 20 21  2  0
 20 22  1  0
 22 23  1  6
 22 24  1  0
 24 25  1  0
 25 26  1  0
 26 27  1  0
 27 28  1  0
 29 30  1  1
 29 31  1  0
 31 32  1  1
M  CHG  2  23   1  28   1
M  END
