
     RDKit          3D

 33 34  0  0  0  0  0  0  0  0999 V2000
    5.4910   -2.3350    1.8050 C   0  0  0  0  0  0  0  0  0  0  0  0
    4.1440   -2.5870    1.2100 C   0  0  0  0  0  0  0  0  0  0  0  0
    3.4710   -1.3150    0.7490 C   0  0  1  0  0  0  0  0  0  0  0  0
    3.2960   -0.3840    1.9300 C   0  0  0  0  0  0  0  0  0  0  0  0
    2.5160   -0.9720    2.9100 O   0  0  0  0  0  0  0  0  0  0  0  0
    4.3250   -0.6710   -0.3050 C   0  0  0  0  0  0  0  0  0  0  0  0
    4.1080   -1.3900   -1.6180 C   0  0  0  0  0  0  0  0  0  0  0  0
    2.7560   -0.9810   -2.1310 C   0  0  0  0  0  0  0  0  0  0  0  0
    1.8390   -0.8140   -1.0160 N   0  0  0  0  0  0  0  0  0  0  0  0
    0.7490    0.0700   -1.1480 C   0  0  0  0  0  0  0  0  0  0  0  0
    0.5570    0.7140   -2.2000 O   0  0  0  0  0  0  0  0  0  0  0  0
   -0.1990    0.2500   -0.0200 C   0  0  0  0  0  0  0  0  0  0  0  0
   -1.3000    1.2370   -0.3050 C   0  0  1  0  0  0  0  0  0  0  0  0
   -2.1200    1.3230    0.7770 O   0  0  0  0  0  0  0  0  0  0  0  0
   -3.4500    1.1810    0.6420 C   0  0  0  0  0  0  0  0  0  0  0  0
   -3.8230   -0.1190    0.0700 C   0  0  0  0  0  0  0  0  0  0  0  0
   -3.0590   -1.0330   -0.2900 O   0  0  0  0  0  0  0  0  0  0  0  0
   -5.2380   -0.3800   -0.1000 N   0  0  0  0  0  0  0  0  0  0  0  0
   -5.6360   -1.6480   -0.6590 C   0  0  0  0  0  0  0  0  0  0  0  0
   -5.1680   -2.7890    0.1740 C   0  0  0  0  0  0  0  0  0  0  0  0
   -4.3600   -3.6890   -0.3600 C   0  0  0  0  0  0  0  0  0  0  0  0
   -3.8920   -4.8010    0.4190 N   0  0  0  0  0  0  0  0  0  0  0  0
   -5.6220   -2.8840    1.5740 C   0  0  0  0  0  0  0  0  0  0  0  0
   -7.0280   -2.9720    1.5780 O   0  0  0  0  0  0  0  0  0  0  0  0
   -0.6260    2.5240   -0.6140 C   0  0  0  0  0  0  0  0  0  0  0  0
   -0.4630    3.2720   -1.7100 C   0  0  0  0  0  0  0  0  0  0  0  0
    0.2270    4.4110   -1.6520 C   0  0  0  0  0  0  0  0  0  0  0  0
    0.7610    4.7940   -0.4480 C   0  0  0  0  0  0  0  0  0  0  0  0
    1.5640    5.9760   -0.0460 C   0  0  0  0  0  0  0  0  0  0  0  0
    1.8110    6.8880   -1.1980 C   0  0  0  0  0  0  0  0  0  0  0  0
    2.4990    6.2720   -2.2280 O   0  0  0  0  0  0  0  0  0  0  0  0
    0.2710    3.4980    0.6440 S   0  0  0  0  0  0  0  0  0  0  0  0
    2.1010   -1.5780    0.1860 C   0  0  0  0  0  0  0  0  0  0  0  0
  1  2  1  0
  3  2  1  1
  3  4  1  0
  3  6  1  0
  3 33  1  0
  4  5  1  0
  6  7  1  0
  7  8  1  0
  8  9  1  0
  9 10  1  0
  9 33  1  0
 10 11  2  0
 10 12  1  0
 13 12  1  1
 13 14  1  0
 13 25  1  0
 14 15  1  0
 15 16  1  0
 16 17  2  0
 16 18  1  0
 18 19  1  0
 19 20  1  0
 20 21  2  3
 20 23  1  0
 21 22  1  0
 23 24  1  0
 25 26  2  0
 25 32  1  0
 26 27  1  0
 27 28  2  0
 28 29  1  0
 28 32  1  0
 29 30  1  0
 30 31  1  0
M  CHG  1  22   1
M  END
