
     RDKit          3D

 33 34  0  0  0  0  0  0  0  0999 V2000
   -7.0230    1.8730   -1.1810 C   0  0  0  0  0  0  0  0  0  0  0  0
   -6.1140    1.5740   -0.0120 C   0  0  0  0  0  0  0  0  0  0  0  0
   -4.7530    1.2070   -0.5750 C   0  0  1  0  0  0  0  0  0  0  0  0
   -3.8430    0.9210    0.4290 O   0  0  0  0  0  0  0  0  0  0  0  0
   -2.7740    1.7740    0.5210 C   0  0  0  0  0  0  0  0  0  0  0  0
   -1.9390    1.6870   -0.7260 C   0  0  0  0  0  0  0  0  0  0  0  0
   -1.4300    0.4220   -0.9230 O   0  0  0  0  0  0  0  0  0  0  0  0
   -0.5580   -0.0190    0.0470 C   0  0  2  0  0  0  0  0  0  0  0  0
    0.8030   -0.1530   -0.5330 N   0  0  0  0  0  0  0  0  0  0  0  0
    1.8930    0.6350   -0.0750 C   0  0  0  0  0  0  0  0  0  0  0  0
    1.6580    1.4730    0.8640 O   0  0  0  0  0  0  0  0  0  0  0  0
    3.2260    0.5180   -0.6270 C   0  0  0  0  0  0  0  0  0  0  0  0
    3.5580   -0.3640   -1.6220 C   0  0  0  0  0  0  0  0  0  0  0  0
    4.8450   -0.4710   -2.1480 C   0  0  0  0  0  0  0  0  0  0  0  0
    5.8070    0.3620   -1.6230 C   0  0  0  0  0  0  0  0  0  0  0  0
    7.1530    0.3240   -2.0980 N   0  0  0  0  0  0  0  0  0  0  0  0
    5.4950    1.2480   -0.6300 C   0  0  0  0  0  0  0  0  0  0  0  0
    6.5710    2.1430   -0.0780 C   0  0  0  0  0  0  0  0  0  0  0  0
    7.4480    1.3150    0.8360 C   0  0  0  0  0  0  0  0  0  0  0  0
    6.7060    0.7870    1.8780 O   0  0  0  0  0  0  0  0  0  0  0  0
    4.2220    1.3450   -0.1180 C   0  0  0  0  0  0  0  0  0  0  0  0
   -0.9540   -1.3810    0.5880 C   0  0  0  0  0  0  0  0  0  0  0  0
   -1.3120   -2.4070   -0.1980 C   0  0  0  0  0  0  0  0  0  0  0  0
   -1.6530   -3.6030    0.3030 C   0  0  0  0  0  0  0  0  0  0  0  0
   -2.0780   -4.8670   -0.3530 C   0  0  0  0  0  0  0  0  0  0  0  0
   -1.4820   -3.3620    2.0790 S   0  0  0  0  0  0  0  0  0  0  0  0
   -0.9720   -1.6880    1.9890 C   0  0  0  0  0  0  0  0  0  0  0  0
   -0.6360   -0.8210    3.1090 C   0  0  0  0  0  0  0  0  0  0  0  0
   -0.7320   -1.3600    4.5160 C   0  0  0  0  0  0  0  0  0  0  0  0
   -0.2700    0.3450    3.0010 O   0  0  0  0  0  0  0  0  0  0  0  0
   -4.9460    0.0020   -1.3910 C   0  0  0  0  0  0  0  0  0  0  0  0
   -4.2720   -1.1990   -1.0680 N   0  0  0  0  0  0  0  0  0  0  0  0
   -5.6840    0.0260   -2.3460 O   0  0  0  0  0  0  0  0  0  0  0  0
  1  2  1  0
  3  2  1  1
  3  4  1  0
  3 31  1  0
  4  5  1  0
  5  6  1  0
  6  7  1  0
  7  8  1  0
  8  9  1  6
  8 22  1  0
  9 10  1  0
 10 11  2  0
 10 12  1  0
 12 13  2  0
 12 21  1  0
 13 14  1  0
 14 15  2  0
 15 16  1  0
 15 17  1  0
 17 18  1  0
 17 21  2  0
 18 19  1  0
 19 20  1  0
 22 23  1  0
 22 27  2  0
 23 24  2  0
 24 25  1  0
 24 26  1  0
 26 27  1  0
 27 28  1  0
 28 29  1  0
 28 30  2  0
 31 32  1  0
 31 33  2  0
M  CHG  1  32   1
M  END
