
     RDKit          3D

 11 11  0  0  0  0  0  0  0  0999 V2000
   -3.2280    1.6340    0.5880 O   0  0  0  0  0  0  0  0  0  0  0  0
   -2.0950    0.8330    0.3940 C   0  0  0  0  0  0  0  0  0  0  0  0
   -0.8850    1.2110    0.9240 C   0  0  0  0  0  0  0  0  0  0  0  0
    0.2660    0.4640    0.7670 C   0  0  0  0  0  0  0  0  0  0  0  0
    0.1990   -0.7030    0.0520 C   0  0  0  0  0  0  0  0  0  0  0  0
    1.3370   -1.4960   -0.1380 O   0  0  0  0  0  0  0  0  0  0  0  0
    2.5880   -1.1650    0.3580 C   0  0  0  0  0  0  0  0  0  0  0  0
    3.2740    0.4280   -0.3070 P   0  0  0  0  0  0  0  0  0  0  0  0
   -1.0050   -1.1020   -0.4890 C   0  0  0  0  0  0  0  0  0  0  0  0
   -2.1250   -0.3340   -0.3110 C   0  0  0  0  0  0  0  0  0  0  0  0
   -3.3500   -0.7450   -0.8640 O   0  0  0  0  0  0  0  0  0  0  0  0
  1  2  1  0
  2  3  2  0
  2 10  1  0
  3  4  1  0
  4  5  2  0
  5  6  1  0
  5  9  1  0
  6  7  1  0
  7  8  1  0
  9 10  2  0
 10 11  1  0
M  END
