
     RDKit          3D

 11 11  0  0  0  0  0  0  0  0999 V2000
   -3.7730    1.3460    0.2940 O   0  0  0  0  0  0  0  0  0  0  0  0
   -2.5840    1.0060   -0.3930 C   0  0  0  0  0  0  0  0  0  0  0  0
   -1.6830   -0.2060    0.6820 P   0  0  0  0  0  0  0  0  0  0  0  0
   -2.4660   -1.7510    0.5020 O   0  0  0  0  0  0  0  0  0  0  0  0
    0.0860   -0.3040    0.2910 C   0  0  0  0  0  0  0  0  0  0  0  0
    0.6000   -1.5150   -0.1190 C   0  0  0  0  0  0  0  0  0  0  0  0
    1.9440   -1.5840   -0.4150 C   0  0  0  0  0  0  0  0  0  0  0  0
    2.7450   -0.4580   -0.2990 C   0  0  0  0  0  0  0  0  0  0  0  0
    2.2220    0.7490    0.1120 C   0  0  0  0  0  0  0  0  0  0  0  0
    3.0400    1.8630    0.2210 O   0  0  0  0  0  0  0  0  0  0  0  0
    0.8630    0.8040    0.4070 C   0  0  0  0  0  0  0  0  0  0  0  0
  1  2  1  0
  2  3  1  0
  3  4  1  0
  3  5  1  0
  5  6  2  0
  5 11  1  0
  6  7  1  0
  7  8  2  0
  8  9  1  0
  9 10  1  0
  9 11  2  0
M  END
