
     RDKit          3D

 25 25  0  0  0  0  0  0  0  0999 V2000
   -3.0780   -2.7880   -1.1910 O   0  0  0  0  0  0  0  0  0  0  0  0
   -2.5340   -2.5030   -0.0570 C   0  0  0  0  0  0  0  0  0  0  0  0
   -3.4100   -1.8940    0.8790 N   0  0  0  0  0  0  0  0  0  0  0  0
   -3.1590   -0.7250    1.6410 C   0  0  0  0  0  0  0  0  0  0  0  0
   -3.2050   -0.8560    2.9170 O   0  0  0  0  0  0  0  0  0  0  0  0
   -2.7880    0.9040    1.0650 S   0  0  0  0  0  0  0  0  0  0  0  0
   -3.9960    1.5690   -0.0750 C   0  0  0  0  0  0  0  0  0  0  0  0
   -3.4880    2.8940   -0.6010 C   0  0  0  0  0  0  0  0  0  0  0  0
   -2.0970    2.8400   -0.6570 O   0  0  0  0  0  0  0  0  0  0  0  0
   -1.7860    1.6880   -1.1960 O   0  0  0  0  0  0  0  0  0  0  0  0
   -0.4620    1.3300   -0.9950 C   0  0  0  0  0  0  0  0  0  0  0  0
   -0.3640   -0.1450   -1.1890 C   0  0  0  0  0  0  0  0  0  0  0  0
    0.3820   -0.8170   -0.1240 N   0  0  0  0  0  0  0  0  0  0  0  0
    1.6190   -0.2040    0.2200 C   0  0  0  0  0  0  0  0  0  0  0  0
    2.0110    0.8250   -0.3780 O   0  0  0  0  0  0  0  0  0  0  0  0
    2.5160   -0.7190    1.2850 C   0  0  0  0  0  0  0  0  0  0  0  0
    3.7020    0.0600    1.4390 N   0  0  0  0  0  0  0  0  0  0  0  0
    4.6620    0.2700    0.4160 C   0  0  0  0  0  0  0  0  0  0  0  0
    4.4460   -0.2690   -0.6950 O   0  0  0  0  0  0  0  0  0  0  0  0
    5.8160    1.0190    0.5420 O   0  0  0  0  0  0  0  0  0  0  0  0
    6.7060    1.2090   -0.4190 O   0  0  0  0  0  0  0  0  0  0  0  0
    7.3170    0.0880   -0.7650 O   0  0  0  0  0  0  0  0  0  0  0  0
   -0.1010   -2.0010    0.4980 C   0  0  0  0  0  0  0  0  0  0  0  0
    0.5170   -2.3410    1.5700 O   0  0  0  0  0  0  0  0  0  0  0  0
   -1.1640   -2.8390    0.0800 N   0  0  0  0  0  0  0  0  0  0  0  0
  1  2  2  0
  2  3  1  0
  2 25  1  0
  3  4  1  0
  4  5  2  0
  4  6  1  0
  6  7  1  0
  7  8  1  0
  8  9  1  0
  9 10  1  0
 10 11  1  0
 11 12  1  0
 12 13  1  0
 13 14  1  0
 13 23  1  0
 14 15  2  0
 14 16  1  0
 16 17  1  0
 17 18  1  0
 18 19  2  0
 18 20  1  0
 20 21  1  0
 21 22  1  0
 23 24  2  0
 23 25  1  0
M  END
