
     RDKit          3D

 11 11  0  0  0  0  0  0  0  0999 V2000
   -2.2630   -1.0780    0.4650 C   0  0  0  0  0  0  0  0  0  0  0  0
   -1.3000    0.4600    0.3390 P   0  0  0  0  0  0  0  0  0  0  0  0
   -1.9560    1.6660   -0.8670 C   0  0  0  0  0  0  0  0  0  0  0  0
    0.4890    0.2070    0.2230 C   0  0  0  0  0  0  0  0  0  0  0  0
    1.3140    1.2960    0.0470 C   0  0  0  0  0  0  0  0  0  0  0  0
    2.6640    1.0570   -0.0370 C   0  0  0  0  0  0  0  0  0  0  0  0
    3.4200    2.0460   -0.1970 O   0  0  0  0  0  0  0  0  0  0  0  0
    3.2070   -0.1280    0.0410 O   0  0  0  0  0  0  0  0  0  0  0  0
    2.4500   -1.1790    0.2080 C   0  0  0  0  0  0  0  0  0  0  0  0
    1.0740   -1.0330    0.3030 C   0  0  0  0  0  0  0  0  0  0  0  0
    0.2380   -2.1250    0.4800 O   0  0  0  0  0  0  0  0  0  0  0  0
  1  2  1  0
  2  3  1  0
  2  4  1  0
  4  5  2  0
  4 10  1  0
  5  6  1  0
  6  7  2  0
  6  8  1  0
  8  9  1  0
  9 10  2  0
 10 11  1  0
M  END
