
     RDKit          3D

 11 11  0  0  0  0  0  0  0  0999 V2000
    3.2230    0.9980    0.2330 C   0  0  0  0  0  0  0  0  0  0  0  0
    2.2270   -0.5670    0.2170 P   0  0  0  0  0  0  0  0  0  0  0  0
    2.6240   -1.5110   -1.1530 O   0  0  0  0  0  0  0  0  0  0  0  0
    0.4190   -0.1490    0.2590 C   0  0  0  0  0  0  0  0  0  0  0  0
    0.0090    0.8830    0.9240 C   0  0  0  0  0  0  0  0  0  0  0  0
   -1.3930    1.2460    0.9830 C   0  0  0  0  0  0  0  0  0  0  0  0
   -2.2600    0.4940    0.3390 C   0  0  0  0  0  0  0  0  0  0  0  0
   -3.6130    0.8860    0.4250 O   0  0  0  0  0  0  0  0  0  0  0  0
   -1.9370   -0.6920   -0.4450 C   0  0  0  0  0  0  0  0  0  0  0  0
   -0.4950   -1.0160   -0.4740 C   0  0  2  0  0  0  0  0  0  0  0  0
   -0.2890   -2.3520   -0.0560 O   0  0  0  0  0  0  0  0  0  0  0  0
  1  2  1  0
  2  3  1  0
  2  4  1  0
  4  5  2  0
  4 10  1  0
  5  6  1  0
  6  7  2  0
  7  8  1  0
  7  9  1  0
  9 10  1  0
 10 11  1  1
M  END
