
     RDKit          3D

 31 32  0  0  0  0  0  0  0  0999 V2000
   -3.2550    1.6430    0.0550 N   0  0  0  0  0  0  0  0  0  0  0  0
   -2.3830    0.7490   -0.2250 C   0  0  0  0  0  0  0  0  0  0  0  0
   -1.0050    0.8080    0.2520 N   0  0  0  0  0  0  0  0  0  0  0  0
   -0.0360    0.3710   -0.6560 C   0  0  0  0  0  0  0  0  0  0  0  0
    1.3830    0.3250   -0.2430 C   0  0  0  0  0  0  0  0  0  0  0  0
    1.9520   -0.8560   -0.1210 N   0  0  0  0  0  0  0  0  0  0  0  0
    3.2610   -0.7510    0.2680 N   0  0  0  0  0  0  0  0  0  0  0  0
    4.1780   -1.8930    0.4930 C   0  0  1  0  0  0  0  0  0  0  0  0
    3.4410   -2.9990    1.1580 C   0  0  0  0  0  0  0  0  0  0  0  0
    3.3720   -3.6230   -0.1200 O   0  0  0  0  0  0  0  0  0  0  0  0
    4.1440   -2.7030   -0.7610 C   0  0  0  0  0  0  0  0  0  0  0  0
    4.6400   -2.5410   -1.8870 O   0  0  0  0  0  0  0  0  0  0  0  0
    3.5790    0.6010    0.4160 C   0  0  0  0  0  0  0  0  0  0  0  0
    4.6920    1.0820    0.7860 O   0  0  0  0  0  0  0  0  0  0  0  0
    2.3690    1.3720    0.0590 C   0  0  1  0  0  0  0  0  0  0  0  0
    2.6880    2.1420   -1.0620 O   0  0  0  0  0  0  0  0  0  0  0  0
    2.7570    3.4210   -0.6780 O   0  0  0  0  0  0  0  0  0  0  0  0
    2.0330    4.4330   -1.9130 P   0  0  0  0  0  0  0  0  0  0  0  0
    2.1770    5.9720   -1.8180 O   0  0  0  0  0  0  0  0  0  0  0  0
   -0.7970    1.3040    1.5630 C   0  0  0  0  0  0  0  0  0  0  0  0
   -1.8780    0.3080    2.7400 P   0  0  0  0  0  0  0  0  0  0  0  0
   -2.8730    1.3610    3.7100 O   0  0  0  0  0  0  0  0  0  0  0  0
   -0.8130   -0.5460    3.8290 O   0  0  0  0  0  0  0  0  0  0  0  0
   -2.7910   -0.3370   -1.0270 N   0  0  0  0  0  0  0  0  0  0  0  0
   -3.2910   -0.1210   -2.3160 C   0  0  0  0  0  0  0  0  0  0  0  0
   -3.6530   -1.0620   -3.0830 O   0  0  0  0  0  0  0  0  0  0  0  0
   -3.3960    1.1950   -2.7780 O   0  0  0  0  0  0  0  0  0  0  0  0
   -3.8490    1.5240   -3.9690 O   0  0  0  0  0  0  0  0  0  0  0  0
   -2.6510   -1.9860   -0.3920 P   0  0  0  0  0  0  0  0  0  0  0  0
   -2.7570   -3.2100   -1.5920 O   0  0  0  0  0  0  0  0  0  0  0  0
   -3.8580   -2.3040    0.8220 O   0  0  0  0  0  0  0  0  0  0  0  0
  1  2  2  0
  2  3  1  0
  2 24  1  0
  3  4  1  0
  3 20  1  0
  4  5  1  0
  5  6  2  0
  5 15  1  0
  6  7  1  0
  8  7  1  6
  7 13  1  0
  8  9  1  0
  8 11  1  0
  9 10  1  0
 10 11  1  0
 11 12  2  0
 13 14  2  0
 13 15  1  0
 15 16  1  6
 16 17  1  0
 17 18  1  0
 18 19  2  0
 20 21  1  0
 21 22  1  0
 21 23  1  0
 24 25  1  0
 24 29  1  0
 25 26  2  0
 25 27  1  0
 27 28  1  0
 29 30  1  0
 29 31  1  0
M  END
