
     RDKit          3D

 31 33  0  0  0  0  0  0  0  0999 V2000
   -0.4220    0.5710    4.3210 O   0  0  0  0  0  0  0  0  0  0  0  0
   -0.5190    1.3900    3.3430 C   0  0  0  0  0  0  0  0  0  0  0  0
    0.1620    1.1880    2.1560 O   0  0  0  0  0  0  0  0  0  0  0  0
   -0.5430    1.3520    0.9010 C   0  0  1  0  0  0  0  0  0  0  0  0
    0.3120    2.2090    0.0540 C   0  0  0  0  0  0  0  0  0  0  0  0
   -0.0410    2.5360   -1.1180 O   0  0  0  0  0  0  0  0  0  0  0  0
    1.5520    2.7140    0.4730 O   0  0  0  0  0  0  0  0  0  0  0  0
   -0.9290    0.0940    0.2810 C   0  0  0  0  0  0  0  0  0  0  0  0
   -0.2150   -0.9480    0.0970 N   0  0  0  0  0  0  0  0  0  0  0  0
   -0.7180   -2.0920   -0.5160 O   0  0  0  0  0  0  0  0  0  0  0  0
    0.1970   -2.8160   -1.8010 P   0  0  0  0  0  0  0  0  0  0  0  0
    1.0810   -4.2120   -1.3190 O   0  0  0  0  0  0  0  0  0  0  0  0
    1.1300   -1.6950   -2.7080 O   0  0  0  0  0  0  0  0  0  0  0  0
    2.5860   -1.2110   -1.9000 P   0  0  0  0  0  0  0  0  0  0  0  0
    3.6930   -0.6340   -3.1190 O   0  0  0  0  0  0  0  0  0  0  0  0
    3.2790   -2.6500   -1.0930 N   0  0  0  0  0  0  0  0  0  0  0  0
    4.1880   -3.5970   -1.7150 C   0  0  0  0  0  0  0  0  0  0  0  0
    4.8680   -4.2170   -0.5060 C   0  0  0  0  0  0  0  0  0  0  0  0
    3.8220   -4.2760    0.4450 O   0  0  0  0  0  0  0  0  0  0  0  0
    3.0770   -3.1050    0.2340 C   0  0  0  0  0  0  0  0  0  0  0  0
    2.3380   -2.5290    1.0680 O   0  0  0  0  0  0  0  0  0  0  0  0
   -2.2980    0.2460   -0.0940 N   0  0  0  0  0  0  0  0  0  0  0  0
   -2.7920    1.3180    0.4400 C   0  0  0  0  0  0  0  0  0  0  0  0
   -4.1580    1.7140    0.2270 N   0  0  0  0  0  0  0  0  0  0  0  0
   -5.0480    1.3560   -1.2820 P   0  0  0  0  0  0  0  0  0  0  0  0
   -6.4110    2.4570   -1.3690 O   0  0  0  0  0  0  0  0  0  0  0  0
   -4.0190    1.5780   -2.6610 O   0  0  0  0  0  0  0  0  0  0  0  0
   -1.8300    1.9890    1.2190 N   0  0  0  0  0  0  0  0  0  0  0  0
   -1.8640    3.0530    2.1660 C   0  0  0  0  0  0  0  0  0  0  0  0
   -1.3790    2.5660    3.5060 C   0  0  1  0  0  0  0  0  0  0  0  0
   -2.4740    2.1430    4.2980 O   0  0  0  0  0  0  0  0  0  0  0  0
  1  2  2  0
  2  3  1  0
  2 30  1  0
  3  4  1  0
  4  5  1  6
  4  8  1  0
  4 28  1  0
  5  6  2  0
  5  7  1  0
  8  9  2  3
  8 22  1  0
  9 10  1  0
 10 11  1  0
 11 12  1  0
 11 13  1  0
 13 14  1  0
 14 15  1  0
 14 16  1  0
 16 17  1  0
 16 20  1  0
 17 18  1  0
 18 19  1  0
 19 20  1  0
 20 21  2  0
 22 23  2  0
 23 24  1  0
 23 28  1  0
 24 25  1  0
 25 26  1  0
 25 27  1  0
 28 29  1  0
 29 30  1  0
 30 31  1  1
M  END
