
     RDKit          3D

 30 31  0  0  0  0  0  0  0  0999 V2000
    6.3510    1.8820    2.2130 O   0  0  0  0  0  0  0  0  0  0  0  0
    7.0920    2.0060    1.2160 C   0  0  0  0  0  0  0  0  0  0  0  0
    8.2080    2.8300    1.2690 O   0  0  0  0  0  0  0  0  0  0  0  0
    6.7490    1.2760    0.0360 N   0  0  0  0  0  0  0  0  0  0  0  0
    5.6080    0.4470    0.0170 C   0  0  0  0  0  0  0  0  0  0  0  0
    4.9050    0.3730    1.0680 O   0  0  0  0  0  0  0  0  0  0  0  0
    5.2100   -0.3310   -1.1820 C   0  0  0  0  0  0  0  0  0  0  0  0
    4.0420   -1.0630   -0.9190 O   0  0  0  0  0  0  0  0  0  0  0  0
    2.8300   -0.4990   -0.5540 C   0  0  0  0  0  0  0  0  0  0  0  0
    2.7780    0.7540   -0.4520 O   0  0  0  0  0  0  0  0  0  0  0  0
    1.6940   -1.3190   -0.3060 N   0  0  0  0  0  0  0  0  0  0  0  0
    0.4120   -0.7640    0.0770 C   0  0  2  0  0  0  0  0  0  0  0  0
   -0.8140   -2.1910    0.1510 P   0  0  0  0  0  0  0  0  0  0  0  0
   -1.2370   -2.5800   -1.4910 O   0  0  0  0  0  0  0  0  0  0  0  0
   -0.0920   -3.5810    0.8780 O   0  0  0  0  0  0  0  0  0  0  0  0
   -0.1190    0.1670   -0.9870 C   0  0  0  0  0  0  0  0  0  0  0  0
   -1.3340    0.8030   -0.4720 N   0  0  0  0  0  0  0  0  0  0  0  0
   -2.5340    0.9930   -1.2400 C   0  0  0  0  0  0  0  0  0  0  0  0
   -3.7060    0.8890   -0.2820 C   0  0  1  0  0  0  0  0  0  0  0  0
   -3.8850   -0.4330    0.0830 O   0  0  0  0  0  0  0  0  0  0  0  0
   -5.3410   -1.1350   -0.3120 P   0  0  0  0  0  0  0  0  0  0  0  0
   -5.6170   -1.6180   -1.8960 O   0  0  0  0  0  0  0  0  0  0  0  0
   -7.0290   -0.7920    0.9440 P   0  0  0  0  0  0  0  0  0  0  0  0
   -8.3090   -1.9070    0.5690 O   0  0  0  0  0  0  0  0  0  0  0  0
   -7.6780    0.8150    0.7740 O   0  0  0  0  0  0  0  0  0  0  0  0
   -3.5040    1.6490    0.8800 O   0  0  0  0  0  0  0  0  0  0  0  0
   -2.2930    1.6360    1.5070 N   0  0  0  0  0  0  0  0  0  0  0  0
   -1.2670    1.2360    0.8700 C   0  0  0  0  0  0  0  0  0  0  0  0
    0.1080    1.1900    1.4840 C   0  0  0  0  0  0  0  0  0  0  0  0
    0.5560   -0.1690    1.3640 N   0  0  0  0  0  0  0  0  0  0  0  0
  1  2  2  0
  2  3  1  0
  2  4  1  0
  4  5  1  0
  5  6  2  0
  5  7  1  0
  7  8  1  0
  8  9  1  0
  9 10  2  0
  9 11  1  0
 12 11  1  6
 12 13  1  0
 12 16  1  0
 12 30  1  0
 13 14  1  0
 13 15  1  0
 16 17  1  0
 17 18  1  0
 17 28  1  0
 18 19  1  0
 19 20  1  1
 19 26  1  0
 20 21  1  0
 21 22  1  0
 21 23  1  0
 23 24  1  0
 23 25  1  0
 26 27  1  0
 27 28  2  0
 28 29  1  0
 29 30  1  0
M  END
