
     RDKit          3D

 30 31  0  0  0  0  0  0  0  0999 V2000
    2.8160   -2.3500    0.5930 N   0  0  0  0  0  0  0  0  0  0  0  0
    2.7640   -1.3790   -0.2700 C   0  0  0  0  0  0  0  0  0  0  0  0
    3.2310   -1.5620   -1.6050 N   0  0  0  0  0  0  0  0  0  0  0  0
    4.1340   -3.0580   -2.0560 P   0  0  0  0  0  0  0  0  0  0  0  0
    5.4950   -3.2330   -1.0150 O   0  0  0  0  0  0  0  0  0  0  0  0
    3.0670   -4.4370   -1.9350 O   0  0  0  0  0  0  0  0  0  0  0  0
    2.2310   -0.1360    0.1490 N   0  0  0  0  0  0  0  0  0  0  0  0
    0.9800    0.3080   -0.4020 C   0  0  0  0  0  0  0  0  0  0  0  0
   -0.1550   -0.5540    0.0620 C   0  0  0  0  0  0  0  0  0  0  0  0
    0.0660   -1.5110    0.8280 O   0  0  0  0  0  0  0  0  0  0  0  0
   -1.4610   -0.2620   -0.3780 N   0  0  0  0  0  0  0  0  0  0  0  0
   -1.8600    0.8290   -1.2750 C   0  0  0  0  0  0  0  0  0  0  0  0
   -3.2620    1.2000   -0.8480 C   0  0  1  0  0  0  0  0  0  0  0  0
   -3.3080    2.5100   -0.3790 O   0  0  0  0  0  0  0  0  0  0  0  0
   -4.2170    0.9930   -2.0050 C   0  0  0  0  0  0  0  0  0  0  0  0
   -5.5710    1.2730   -1.5920 N   0  0  0  0  0  0  0  0  0  0  0  0
   -3.6310    0.1950    0.2190 C   0  0  2  0  0  0  0  0  0  0  0  0
   -3.5070    0.7080    1.4950 O   0  0  0  0  0  0  0  0  0  0  0  0
   -3.9820   -0.2570    2.3820 C   0  0  0  0  0  0  0  0  0  0  0  0
   -3.0190   -1.2960    2.4120 O   0  0  0  0  0  0  0  0  0  0  0  0
   -2.5950   -1.7850    1.1690 C   0  0  0  0  0  0  0  0  0  0  0  0
   -2.1240   -2.9450    1.0780 O   0  0  0  0  0  0  0  0  0  0  0  0
   -2.6880   -0.9610   -0.0520 C   0  0  2  0  0  0  0  0  0  0  0  0
    3.1470    0.8260    1.3510 P   0  0  0  0  0  0  0  0  0  0  0  0
    4.7390    1.1880    0.8190 O   0  0  0  0  0  0  0  0  0  0  0  0
    5.3790    0.0980    0.4530 O   0  0  0  0  0  0  0  0  0  0  0  0
    2.2820    2.2690    1.7160 O   0  0  0  0  0  0  0  0  0  0  0  0
    3.2730    3.6430    1.3220 P   0  0  0  0  0  0  0  0  0  0  0  0
    3.3690    3.8450   -0.3900 O   0  0  0  0  0  0  0  0  0  0  0  0
    4.8580    3.4850    2.0160 O   0  0  0  0  0  0  0  0  0  0  0  0
  1  2  2  0
  2  3  1  0
  2  7  1  0
  3  4  1  0
  4  5  1  0
  4  6  1  0
  7  8  1  0
  7 24  1  0
  8  9  1  0
  9 10  2  0
  9 11  1  0
 11 12  1  0
 23 11  1  1
 12 13  1  0
 13 14  1  1
 13 15  1  0
 13 17  1  0
 15 16  1  0
 17 18  1  1
 17 23  1  0
 18 19  1  0
 19 20  1  0
 20 21  1  0
 21 22  2  0
 21 23  1  0
 24 25  1  0
 24 27  1  0
 25 26  1  0
 27 28  1  0
 28 29  1  0
 28 30  1  0
M  END
