
     RDKit          3D

 30 31  0  0  0  0  0  0  0  0999 V2000
    5.4790    1.0870   -0.1650 N   0  0  0  0  0  0  0  0  0  0  0  0
    5.7450    0.4360   -1.2380 C   0  0  0  0  0  0  0  0  0  0  0  0
    4.6540    0.0870   -2.0820 N   0  0  0  0  0  0  0  0  0  0  0  0
    3.3570    0.4480   -1.7620 O   0  0  0  0  0  0  0  0  0  0  0  0
    2.7010    0.0160   -0.6400 C   0  0  0  0  0  0  0  0  0  0  0  0
    3.3050   -0.7520    0.1450 O   0  0  0  0  0  0  0  0  0  0  0  0
    1.2870    0.4620   -0.3740 C   0  0  1  0  0  0  0  0  0  0  0  0
    0.4320    0.0000   -1.5340 C   0  0  0  0  0  0  0  0  0  0  0  0
    0.1790   -1.3210   -1.5710 O   0  0  0  0  0  0  0  0  0  0  0  0
    0.6400   -2.1300   -0.6100 C   0  0  0  0  0  0  0  0  0  0  0  0
    0.9930   -1.6250    0.5920 O   0  0  0  0  0  0  0  0  0  0  0  0
    0.7390   -0.3120    0.8300 C   0  0  2  0  0  0  0  0  0  0  0  0
   -0.7030   -0.0280    0.9600 C   0  0  0  0  0  0  0  0  0  0  0  0
   -1.3120    0.7390    1.8960 N   0  0  0  0  0  0  0  0  0  0  0  0
   -2.5870    0.7200    1.6430 O   0  0  0  0  0  0  0  0  0  0  0  0
   -2.8520   -0.0060    0.6050 C   0  0  0  0  0  0  0  0  0  0  0  0
   -4.1850   -0.2930   -0.0250 C   0  0  1  0  0  0  0  0  0  0  0  0
   -4.9880   -1.0480    0.9990 C   0  0  0  0  0  0  0  0  0  0  0  0
   -5.1490   -0.2690    2.1660 O   0  0  0  0  0  0  0  0  0  0  0  0
   -5.8380   -0.8990    3.0640 O   0  0  0  0  0  0  0  0  0  0  0  0
   -5.0180    1.2450   -0.5980 P   0  0  0  0  0  0  0  0  0  0  0  0
   -5.1790    1.2760   -2.3330 O   0  0  0  0  0  0  0  0  0  0  0  0
   -6.9980    1.5180    0.2800 P   0  0  0  0  0  0  0  0  0  0  0  0
   -6.8760    2.4140    1.7580 O   0  0  0  0  0  0  0  0  0  0  0  0
   -7.8230    0.0110    0.5240 O   0  0  0  0  0  0  0  0  0  0  0  0
   -1.6690   -0.4780    0.1730 N   0  0  0  0  0  0  0  0  0  0  0  0
    7.0400    0.0460   -1.6310 N   0  0  0  0  0  0  0  0  0  0  0  0
    8.3520    0.1000   -0.4050 P   0  0  0  0  0  0  0  0  0  0  0  0
    8.5680    1.7590    0.0520 O   0  0  0  0  0  0  0  0  0  0  0  0
    7.8430   -0.8620    0.9480 O   0  0  0  0  0  0  0  0  0  0  0  0
  1  2  2  0
  2  3  1  0
  2 27  1  0
  3  4  1  0
  4  5  1  0
  5  6  2  0
  7  5  1  6
  7  8  1  0
  7 12  1  0
  8  9  1  0
  9 10  1  0
 10 11  1  0
 11 12  1  0
 12 13  1  6
 13 14  2  0
 13 26  1  0
 14 15  1  0
 15 16  1  0
 16 17  1  0
 16 26  2  0
 17 18  1  1
 17 21  1  0
 18 19  1  0
 19 20  1  0
 21 22  1  0
 21 23  1  0
 23 24  1  0
 23 25  1  0
 27 28  1  0
 28 29  1  0
 28 30  1  0
M  END
