
     RDKit          3D

 30 31  0  0  0  0  0  0  0  0999 V2000
   -4.6710   -2.5990   -2.8470 O   0  0  0  0  0  0  0  0  0  0  0  0
   -3.9510   -2.4500   -1.4880 P   0  0  0  0  0  0  0  0  0  0  0  0
   -2.7640   -1.1260   -1.3050 N   0  0  0  0  0  0  0  0  0  0  0  0
   -2.1290   -0.8280   -0.0710 C   0  0  0  0  0  0  0  0  0  0  0  0
   -2.4260   -1.5350    0.9220 O   0  0  0  0  0  0  0  0  0  0  0  0
   -1.1600    0.2640    0.0520 C   0  0  1  0  0  0  0  0  0  0  0  0
   -1.9020    1.5810   -0.2200 C   0  0  0  0  0  0  0  0  0  0  0  0
   -2.9180    1.7420    0.7190 O   0  0  0  0  0  0  0  0  0  0  0  0
   -3.8090    3.1860    0.5010 P   0  0  0  0  0  0  0  0  0  0  0  0
   -3.0360    4.5720    1.1880 O   0  0  0  0  0  0  0  0  0  0  0  0
   -5.4550    3.0380    1.0280 O   0  0  0  0  0  0  0  0  0  0  0  0
   -0.6300    0.3960    1.3920 N   0  0  0  0  0  0  0  0  0  0  0  0
    0.7710    0.4600    1.2270 C   0  0  0  0  0  0  0  0  0  0  0  0
    1.6020    0.9570    2.0090 O   0  0  0  0  0  0  0  0  0  0  0  0
    1.0260   -0.1930   -0.0750 C   0  0  1  0  0  0  0  0  0  0  0  0
    2.2740    0.3380   -0.7440 C   0  0  0  0  0  0  0  0  0  0  0  0
    2.2220    1.7420   -0.9020 O   0  0  0  0  0  0  0  0  0  0  0  0
    3.2760    2.4020   -1.4950 C   0  0  0  0  0  0  0  0  0  0  0  0
    4.2550    1.7130   -1.8770 O   0  0  0  0  0  0  0  0  0  0  0  0
    3.2960    3.7830   -1.6840 O   0  0  0  0  0  0  0  0  0  0  0  0
    4.7210    4.4910   -2.4620 P   0  0  0  0  0  0  0  0  0  0  0  0
    5.9630    4.9320   -1.6610 O   0  0  0  0  0  0  0  0  0  0  0  0
    1.1240   -1.6450    0.2040 C   0  0  0  0  0  0  0  0  0  0  0  0
    0.2930   -2.4190   -0.3940 N   0  0  0  0  0  0  0  0  0  0  0  0
    0.2650   -3.8230   -0.2270 C   0  0  0  0  0  0  0  0  0  0  0  0
   -0.5670   -4.5370   -0.8340 O   0  0  0  0  0  0  0  0  0  0  0  0
    1.1990   -4.4380    0.6440 N   0  0  0  0  0  0  0  0  0  0  0  0
    2.0970   -3.6330    1.4090 C   0  0  0  0  0  0  0  0  0  0  0  0
    2.0660   -2.2430    1.0780 N   0  0  0  0  0  0  0  0  0  0  0  0
   -0.1070    0.0880   -0.7990 O   0  0  0  0  0  0  0  0  0  0  0  0
  1  2  2  0
  2  3  1  0
  3  4  1  0
  4  5  2  0
  4  6  1  0
  6  7  1  6
  6 12  1  0
  6 30  1  0
  7  8  1  0
  8  9  1  0
  9 10  1  0
  9 11  1  0
 12 13  1  0
 13 14  2  0
 13 15  1  0
 15 16  1  6
 15 23  1  0
 15 30  1  0
 16 17  1  0
 17 18  1  0
 18 19  2  0
 18 20  1  0
 20 21  1  0
 21 22  2  0
 23 24  2  0
 23 29  1  0
 24 25  1  0
 25 26  2  0
 25 27  1  0
 27 28  1  0
 28 29  1  0
M  END
