
     RDKit          3D

 30 32  0  0  0  0  0  0  0  0999 V2000
    0.5290    1.8430    0.9700 C   0  0  0  0  0  0  0  0  0  0  0  0
    1.1640    0.6370    0.3270 C   0  0  1  0  0  0  0  0  0  0  0  0
    0.3810   -0.5250    0.4630 O   0  0  0  0  0  0  0  0  0  0  0  0
   -0.8980   -0.6180   -0.0370 C   0  0  0  0  0  0  0  0  0  0  0  0
   -1.3590    0.3830   -0.6310 O   0  0  0  0  0  0  0  0  0  0  0  0
   -1.7560   -1.8140    0.0820 C   0  0  0  0  0  0  0  0  0  0  0  0
   -3.0230   -1.5290   -0.5650 N   0  0  0  0  0  0  0  0  0  0  0  0
   -3.3630   -1.7510   -1.9230 C   0  0  0  0  0  0  0  0  0  0  0  0
   -2.5890   -2.2470   -2.8080 O   0  0  0  0  0  0  0  0  0  0  0  0
   -4.7070   -1.3190   -2.0960 N   0  0  0  0  0  0  0  0  0  0  0  0
   -5.1860   -0.8470   -0.8930 N   0  0  0  0  0  0  0  0  0  0  0  0
   -4.1770   -0.9540    0.0970 C   0  0  0  0  0  0  0  0  0  0  0  0
   -4.3500   -0.5870    1.3140 N   0  0  0  0  0  0  0  0  0  0  0  0
   -5.4990   -0.0340    1.8950 C   0  0  0  0  0  0  0  0  0  0  0  0
   -5.5120    0.2850    3.1450 O   0  0  0  0  0  0  0  0  0  0  0  0
   -6.6970    0.2280    1.2530 O   0  0  0  0  0  0  0  0  0  0  0  0
   -6.7920   -0.1730   -0.4720 P   0  0  0  0  0  0  0  0  0  0  0  0
   -7.1770    1.2240   -1.4110 O   0  0  0  0  0  0  0  0  0  0  0  0
    1.5640    0.8990   -1.0780 C   0  0  0  0  0  0  0  0  0  0  0  0
    1.0390    0.5700   -2.1690 O   0  0  0  0  0  0  0  0  0  0  0  0
    2.7610    1.6610   -0.9900 N   0  0  0  0  0  0  0  0  0  0  0  0
    3.2470    1.6750    0.3900 C   0  0  0  0  0  0  0  0  0  0  0  0
    2.5290    0.4550    0.9560 C   0  0  1  0  0  0  0  0  0  0  0  0
    2.4760    0.4940    2.3410 O   0  0  0  0  0  0  0  0  0  0  0  0
    3.0590   -0.7210    0.4670 O   0  0  0  0  0  0  0  0  0  0  0  0
    4.6160   -1.0940    1.0740 P   0  0  0  0  0  0  0  0  0  0  0  0
    4.6470   -2.7840    1.4850 O   0  0  0  0  0  0  0  0  0  0  0  0
    6.2100   -0.7170   -0.3810 P   0  0  0  0  0  0  0  0  0  0  0  0
    7.2340    0.5970    0.1340 O   0  0  0  0  0  0  0  0  0  0  0  0
    5.5320   -0.2770   -1.9160 O   0  0  0  0  0  0  0  0  0  0  0  0
  2  1  1  1
  2  3  1  0
  2 19  1  0
  2 23  1  0
  3  4  1  0
  4  5  2  0
  4  6  1  0
  6  7  1  0
  7  8  1  0
  7 12  1  0
  8  9  2  0
  8 10  1  0
 10 11  1  0
 11 12  1  0
 11 17  1  0
 12 13  2  0
 13 14  1  0
 14 15  2  0
 14 16  1  0
 16 17  1  0
 17 18  1  0
 19 20  2  0
 19 21  1  0
 21 22  1  0
 22 23  1  0
 23 24  1  1
 23 25  1  0
 25 26  1  0
 26 27  1  0
 26 28  1  0
 28 29  1  0
 28 30  1  0
M  END
