
     RDKit          3D

 18 18  0  0  0  0  0  0  0  0999 V2000
   -4.2830    1.8550   -0.4650 C   0  0  0  0  0  0  0  0  0  0  0  0
   -3.9830    0.5880    0.3120 C   0  0  2  0  0  0  0  0  0  0  0  0
   -2.6540    0.0780    0.0250 N   0  0  0  0  0  0  0  0  0  0  0  0
   -1.5730    0.6250    0.4640 C   0  0  0  0  0  0  0  0  0  0  0  0
   -0.2460    0.0540    0.1340 C   0  0  0  0  0  0  0  0  0  0  0  0
    0.9030    0.6400    0.6050 C   0  0  0  0  0  0  0  0  0  0  0  0
    2.1800    0.1460    0.3260 C   0  0  0  0  0  0  0  0  0  0  0  0
    3.3310    0.8220    0.8400 N   0  0  0  0  0  0  0  0  0  0  0  0
    4.6230    0.2400    0.7980 C   0  0  0  0  0  0  0  0  0  0  0  0
    5.7730    0.9640    0.3870 N   0  0  0  0  0  0  0  0  0  0  0  0
    4.7590   -0.9780    1.1510 N   0  0  0  0  0  0  0  0  0  0  0  0
    2.2280   -0.9790   -0.4590 C   0  0  0  0  0  0  0  0  0  0  0  0
    1.0900   -1.5910   -0.9470 C   0  0  0  0  0  0  0  0  0  0  0  0
   -0.1470   -1.0750   -0.6510 C   0  0  0  0  0  0  0  0  0  0  0  0
   -1.3250   -1.6420   -1.1090 O   0  0  0  0  0  0  0  0  0  0  0  0
   -4.9570   -0.4380   -0.1470 C   0  0  0  0  0  0  0  0  0  0  0  0
   -6.2050   -0.2730   -0.0270 O   0  0  0  0  0  0  0  0  0  0  0  0
   -4.5520   -1.6430   -0.7360 O   0  0  0  0  0  0  0  0  0  0  0  0
  2  1  1  6
  2  3  1  0
  2 16  1  0
  3  4  2  3
  4  5  1  0
  5  6  2  0
  5 14  1  0
  6  7  1  0
  7  8  1  0
  7 12  2  0
  8  9  1  0
  9 10  1  0
  9 11  2  0
 12 13  1  0
 13 14  2  0
 14 15  1  0
 16 17  2  0
 16 18  1  0
M  CHG  1  11   1
M  END
