
     RDKit          3D

 26 29  0  0  0  0  0  0  0  0999 V2000
    3.7940    0.5170    2.2050 C   0  0  0  0  0  0  0  0  0  0  0  0
    4.7130   -0.0300    1.1690 C   0  0  0  0  0  0  0  0  0  0  0  0
    4.3930    0.2960   -0.2490 C   0  0  0  0  0  0  0  0  0  0  0  0
    3.0950   -0.1460   -0.7430 C   0  0  0  0  0  0  0  0  0  0  0  0
    2.9950   -1.3160   -1.4210 N   0  0  0  0  0  0  0  0  0  0  0  0
    1.8170   -1.7840   -1.8670 C   0  0  0  0  0  0  0  0  0  0  0  0
    0.6950   -1.0860   -1.6440 N   0  0  0  0  0  0  0  0  0  0  0  0
    0.7230    0.0640   -0.9890 C   0  0  0  0  0  0  0  0  0  0  0  0
    1.9370    0.5530   -0.5260 C   0  0  0  0  0  0  0  0  0  0  0  0
    1.6470    1.7360    0.0830 C   0  0  0  0  0  0  0  0  0  0  0  0
    0.3180    1.9320   -0.0180 N   0  0  0  0  0  0  0  0  0  0  0  0
   -0.2450    0.9290   -0.6620 N   0  0  0  0  0  0  0  0  0  0  0  0
   -1.6450    0.8230   -0.9440 C   0  0  0  0  0  0  0  0  0  0  0  0
   -2.2500    1.5100   -1.9750 C   0  0  0  0  0  0  0  0  0  0  0  0
   -3.6090    1.3560   -2.1870 C   0  0  0  0  0  0  0  0  0  0  0  0
   -4.3870    0.5340   -1.3970 C   0  0  0  0  0  0  0  0  0  0  0  0
   -6.1040    0.3450   -1.6730 S   0  0  1  0  0  0  0  0  0  0  0  0
   -6.3060    0.3330   -3.1700 O   0  0  0  0  0  0  0  0  0  0  0  0
   -6.6250   -0.9190   -1.0750 O   0  0  0  0  0  0  0  0  0  0  0  0
   -3.7700   -0.1230   -0.4000 N   0  0  0  0  0  0  0  0  0  0  0  0
   -2.4290    0.0040   -0.1600 C   0  0  0  0  0  0  0  0  0  0  0  0
   -1.8010   -0.7230    0.9300 C   0  0  0  0  0  0  0  0  0  0  0  0
   -2.4740   -1.5840    1.7860 C   0  0  0  0  0  0  0  0  0  0  0  0
   -1.5700   -2.0950    2.6940 C   0  0  0  0  0  0  0  0  0  0  0  0
   -0.3670   -1.5140    2.3470 C   0  0  0  0  0  0  0  0  0  0  0  0
   -0.5560   -0.7260    1.3160 O   0  0  0  0  0  0  0  0  0  0  0  0
  1  2  1  0
  2  3  1  0
  3  4  1  0
  4  5  2  0
  4  9  1  0
  5  6  1  0
  6  7  2  0
  7  8  1  0
  8  9  2  0
  8 12  1  0
  9 10  1  0
 10 11  2  0
 11 12  1  0
 12 13  1  0
 13 14  2  0
 13 21  1  0
 14 15  1  0
 15 16  2  0
 17 16  1  6
 16 20  1  0
 17 18  2  0
 17 19  2  0
 20 21  2  0
 21 22  1  0
 22 23  2  0
 22 26  1  0
 23 24  1  0
 24 25  2  0
 25 26  1  0
M  END
