
     RDKit          3D

 26 29  0  0  0  0  0  0  0  0999 V2000
    4.4630    0.4720   -1.2510 C   0  0  0  0  0  0  0  0  0  0  0  0
    4.4020   -0.4100   -0.0570 C   0  0  0  0  0  0  0  0  0  0  0  0
    3.3470   -0.3480    0.7610 C   0  0  0  0  0  0  0  0  0  0  0  0
    3.2430   -1.2100    1.9640 C   0  0  0  0  0  0  0  0  0  0  0  0
    4.3910   -2.0230    2.0400 O   0  0  0  0  0  0  0  0  0  0  0  0
    2.2440    0.6020    0.4720 C   0  0  0  0  0  0  0  0  0  0  0  0
    1.0430   -0.0870    0.2960 O   0  0  0  0  0  0  0  0  0  0  0  0
   -0.1520    0.5810    0.0140 C   0  0  0  0  0  0  0  0  0  0  0  0
   -0.0790    1.9420   -0.0790 N   0  0  0  0  0  0  0  0  0  0  0  0
   -1.1700    2.6590   -0.3440 C   0  0  0  0  0  0  0  0  0  0  0  0
   -1.0440    4.0090   -0.4250 N   0  0  0  0  0  0  0  0  0  0  0  0
   -2.1270    4.7580   -0.6900 C   0  0  0  0  0  0  0  0  0  0  0  0
   -3.3120    4.1760   -0.8710 N   0  0  0  0  0  0  0  0  0  0  0  0
   -3.4820    2.8330   -0.7990 C   0  0  0  0  0  0  0  0  0  0  0  0
   -4.6000    2.2860   -0.9700 O   0  0  0  0  0  0  0  0  0  0  0  0
   -2.3880    2.0550   -0.5290 C   0  0  0  0  0  0  0  0  0  0  0  0
   -2.4340    0.6630   -0.4290 C   0  0  0  0  0  0  0  0  0  0  0  0
   -1.3220   -0.0840   -0.1580 C   0  0  0  0  0  0  0  0  0  0  0  0
   -1.4310   -1.5860   -0.0850 C   0  0  0  0  0  0  0  0  0  0  0  0
   -0.2510   -2.3030    0.0900 C   0  0  0  0  0  0  0  0  0  0  0  0
   -0.8930   -4.0440    0.1430 S   0  0  0  0  0  0  0  0  0  0  0  0
   -2.6180   -3.5460   -0.0750 C   0  0  0  0  0  0  0  0  0  0  0  0
   -3.9060   -4.0550   -0.1740 C   0  0  0  0  0  0  0  0  0  0  0  0
   -4.6930   -2.9160   -0.3350 C   0  0  0  0  0  0  0  0  0  0  0  0
   -3.8730   -1.9010   -0.3200 N   0  0  0  0  0  0  0  0  0  0  0  0
   -2.5630   -2.2470   -0.1590 N   0  0  0  0  0  0  0  0  0  0  0  0
  1  2  1  0
  2  3  2  3
  3  4  1  0
  3  6  1  0
  4  5  1  0
  6  7  1  0
  7  8  1  0
  8  9  2  0
  8 18  1  0
  9 10  1  0
 10 11  1  0
 10 16  2  0
 11 12  1  0
 12 13  2  0
 13 14  1  0
 14 15  2  0
 14 16  1  0
 16 17  1  0
 17 18  2  0
 18 19  1  0
 19 20  2  0
 19 26  1  0
 20 21  1  0
 21 22  1  0
 22 23  2  0
 22 26  1  0
 23 24  1  0
 24 25  2  0
 25 26  1  0
M  END
