
     RDKit          3D

 26 29  0  0  0  0  0  0  0  0999 V2000
   -7.9900    0.9500   -1.3750 C   0  0  0  0  0  0  0  0  0  0  0  0
   -6.9030    0.1150   -0.7850 C   0  0  0  0  0  0  0  0  0  0  0  0
   -6.7630   -1.0650   -1.2170 O   0  0  0  0  0  0  0  0  0  0  0  0
   -6.0620    0.5630    0.1900 O   0  0  0  0  0  0  0  0  0  0  0  0
   -5.0370   -0.1600    0.7740 C   0  0  0  0  0  0  0  0  0  0  0  0
   -4.0090   -0.5990   -0.2640 C   0  0  0  0  0  0  0  0  0  0  0  0
   -3.0020   -1.3390    0.5110 N   0  0  0  0  0  0  0  0  0  0  0  0
   -3.4020   -2.5990    1.0900 C   0  0  0  0  0  0  0  0  0  0  0  0
   -1.7060   -0.7910    0.6500 C   0  0  0  0  0  0  0  0  0  0  0  0
   -1.3360    0.1050    1.5730 N   0  0  0  0  0  0  0  0  0  0  0  0
   -0.0680    0.3580    1.3720 N   0  0  0  0  0  0  0  0  0  0  0  0
    0.3680   -0.3830    0.3170 C   0  0  0  0  0  0  0  0  0  0  0  0
    1.7080   -0.4110   -0.2480 C   0  0  0  0  0  0  0  0  0  0  0  0
    2.0540   -1.2070   -1.3040 C   0  0  0  0  0  0  0  0  0  0  0  0
    3.3300   -1.1900   -1.7950 N   0  0  0  0  0  0  0  0  0  0  0  0
    4.2620   -0.4060   -1.2630 C   0  0  0  0  0  0  0  0  0  0  0  0
    3.9540    0.4210   -0.1860 C   0  0  0  0  0  0  0  0  0  0  0  0
    2.6800    0.4090    0.3100 C   0  0  0  0  0  0  0  0  0  0  0  0
    4.9690    1.2690    0.3920 C   0  0  0  0  0  0  0  0  0  0  0  0
    4.9380    2.4430    1.7220 S   0  0  0  0  0  0  0  0  0  0  0  0
    6.7130    2.9410    1.5840 C   0  0  0  0  0  0  0  0  0  0  0  0
    7.1240    2.1640    0.5520 C   0  0  0  0  0  0  0  0  0  0  0  0
    6.2890    1.3230   -0.0640 C   0  0  0  0  0  0  0  0  0  0  0  0
    6.6180    0.4080   -1.2010 C   0  0  0  0  0  0  0  0  0  0  0  0
    5.5690   -0.3410   -1.7270 N   0  0  0  0  0  0  0  0  0  0  0  0
   -0.6650   -1.0630   -0.0860 O   0  0  0  0  0  0  0  0  0  0  0  0
  1  2  1  0
  2  3  2  0
  2  4  1  0
  4  5  1  0
  5  6  1  0
  6  7  1  0
  7  8  1  0
  7  9  1  0
  9 10  2  0
  9 26  1  0
 10 11  1  0
 11 12  2  0
 12 13  1  0
 12 26  1  0
 13 14  2  0
 13 18  1  0
 14 15  1  0
 15 16  2  0
 16 17  1  0
 16 25  1  0
 17 18  2  0
 17 19  1  0
 19 20  1  0
 19 23  2  0
 20 21  1  0
 21 22  2  0
 22 23  1  0
 23 24  1  0
 24 25  1  0
M  END
