
     RDKit          3D

 26 29  0  0  0  0  0  0  0  0999 V2000
   -5.8260    0.0560    0.8160 C   0  0  0  0  0  0  0  0  0  0  0  0
   -4.6590   -0.5830    1.5080 C   0  0  0  0  0  0  0  0  0  0  0  0
   -3.5260   -0.7340    0.6390 N   0  0  0  0  0  0  0  0  0  0  0  0
   -2.9330    0.3680    0.0500 C   0  0  0  0  0  0  0  0  0  0  0  0
   -3.4850    2.0970    0.2750 S   0  0  0  0  0  0  0  0  0  0  0  0
   -2.1850    2.7730   -0.8110 C   0  0  0  0  0  0  0  0  0  0  0  0
   -1.4950    1.6870   -1.2180 C   0  0  0  0  0  0  0  0  0  0  0  0
   -1.8340    0.4560   -0.8100 C   0  0  0  0  0  0  0  0  0  0  0  0
   -1.1790   -0.7300   -1.2210 N   0  0  0  0  0  0  0  0  0  0  0  0
   -0.0200   -1.1090   -0.7370 C   0  0  0  0  0  0  0  0  0  0  0  0
    0.6920   -0.4470    0.2470 N   0  0  0  0  0  0  0  0  0  0  0  0
    0.4540    0.6520    1.1010 C   0  0  0  0  0  0  0  0  0  0  0  0
    1.4410    1.7370    0.6830 C   0  0  0  0  0  0  0  0  0  0  0  0
    2.3030    1.3280   -0.2980 O   0  0  0  0  0  0  0  0  0  0  0  0
    2.9480    0.1390   -0.1160 C   0  0  1  0  0  0  0  0  0  0  0  0
    4.2470    0.2550    0.6080 C   0  0  0  0  0  0  0  0  0  0  0  0
    5.4290   -0.3700    0.2270 C   0  0  0  0  0  0  0  0  0  0  0  0
    6.3930   -0.0150    1.1470 C   0  0  0  0  0  0  0  0  0  0  0  0
    5.7500    0.8110    2.0470 C   0  0  0  0  0  0  0  0  0  0  0  0
    4.4960    0.9420    1.6930 O   0  0  0  0  0  0  0  0  0  0  0  0
    2.0730   -0.9640    0.4950 C   0  0  0  0  0  0  0  0  0  0  0  0
    0.4630   -2.2900   -1.2880 N   0  0  0  0  0  0  0  0  0  0  0  0
   -0.1520   -2.9940   -2.2110 C   0  0  0  0  0  0  0  0  0  0  0  0
   -1.3340   -2.5710   -2.6770 N   0  0  0  0  0  0  0  0  0  0  0  0
   -1.8520   -1.4380   -2.1840 C   0  0  0  0  0  0  0  0  0  0  0  0
   -2.9750   -1.0180   -2.6120 O   0  0  0  0  0  0  0  0  0  0  0  0
  1  2  1  0
  2  3  1  0
  3  4  1  0
  4  5  1  0
  4  8  2  0
  5  6  1  0
  6  7  2  0
  7  8  1  0
  8  9  1  0
  9 10  1  0
  9 25  1  0
 10 11  1  0
 10 22  2  0
 11 12  1  0
 11 21  1  0
 12 13  1  0
 13 14  1  0
 14 15  1  0
 15 16  1  1
 15 21  1  0
 16 17  2  0
 16 20  1  0
 17 18  1  0
 18 19  2  0
 19 20  1  0
 22 23  1  0
 23 24  2  0
 24 25  1  0
 25 26  2  0
M  END
