
     RDKit          3D

 26 29  0  0  0  0  0  0  0  0999 V2000
    6.8660   -1.0480    0.2640 C   0  0  0  0  0  0  0  0  0  0  0  0
    5.4420   -0.7310   -0.0550 C   0  0  0  0  0  0  0  0  0  0  0  0
    4.3070   -1.3360    0.2470 C   0  0  0  0  0  0  0  0  0  0  0  0
    3.1260   -0.8320   -0.1730 C   0  0  0  0  0  0  0  0  0  0  0  0
    1.7710   -1.4270    0.1050 C   0  0  0  0  0  0  0  0  0  0  0  0
    1.7170   -2.4770    0.7810 O   0  0  0  0  0  0  0  0  0  0  0  0
    0.5900   -0.8410   -0.3680 N   0  0  0  0  0  0  0  0  0  0  0  0
   -0.2180   -0.1940    0.3920 C   0  0  0  0  0  0  0  0  0  0  0  0
   -0.0520    0.0080    1.7080 N   0  0  0  0  0  0  0  0  0  0  0  0
   -1.0950    0.7080    2.0950 N   0  0  0  0  0  0  0  0  0  0  0  0
   -1.9290    0.9610    1.0560 C   0  0  0  0  0  0  0  0  0  0  0  0
   -3.1710    1.7010    1.1120 C   0  0  0  0  0  0  0  0  0  0  0  0
   -3.7010    2.2790    2.2730 C   0  0  0  0  0  0  0  0  0  0  0  0
   -4.8800    2.8720    1.8540 C   0  0  0  0  0  0  0  0  0  0  0  0
   -5.0020    2.6310    0.4980 C   0  0  0  0  0  0  0  0  0  0  0  0
   -3.9600    1.9330    0.1130 O   0  0  0  0  0  0  0  0  0  0  0  0
   -1.3730    0.3910   -0.0150 N   0  0  0  0  0  0  0  0  0  0  0  0
   -1.8510    0.3620   -1.3870 C   0  0  0  0  0  0  0  0  0  0  0  0
   -2.7110   -0.8460   -1.5290 C   0  0  0  0  0  0  0  0  0  0  0  0
   -2.2220   -2.0860   -1.9120 C   0  0  0  0  0  0  0  0  0  0  0  0
   -3.3070   -2.9550   -1.9340 C   0  0  0  0  0  0  0  0  0  0  0  0
   -4.3630   -2.2190   -1.5750 N   0  0  0  0  0  0  0  0  0  0  0  0
   -3.9810   -1.0000   -1.3470 O   0  0  0  0  0  0  0  0  0  0  0  0
    3.1740    0.3210   -0.9170 C   0  0  0  0  0  0  0  0  0  0  0  0
    2.1420    1.1630   -1.5440 C   0  0  0  0  0  0  0  0  0  0  0  0
    4.9740    0.6620   -0.9940 S   0  0  0  0  0  0  0  0  0  0  0  0
  1  2  1  0
  2  3  2  0
  2 26  1  0
  3  4  1  0
  4  5  1  0
  4 24  2  0
  5  6  2  0
  5  7  1  0
  7  8  2  3
  8  9  1  0
  8 17  1  0
  9 10  1  0
 10 11  2  0
 11 12  1  0
 11 17  1  0
 12 13  2  0
 12 16  1  0
 13 14  1  0
 14 15  2  0
 15 16  1  0
 17 18  1  0
 18 19  1  0
 19 20  2  0
 19 23  1  0
 20 21  1  0
 21 22  2  0
 22 23  1  0
 24 25  1  0
 24 26  1  0
M  END
