
     RDKit          3D

 26 28  0  0  0  0  0  0  0  0999 V2000
    7.3760    1.3370   -1.0540 C   0  0  0  0  0  0  0  0  0  0  0  0
    7.3600    0.6410    0.2540 C   0  0  0  0  0  0  0  0  0  0  0  0
    6.2510    0.1900    0.7380 C   0  0  0  0  0  0  0  0  0  0  0  0
    4.9900    0.3390    0.0360 C   0  0  0  0  0  0  0  0  0  0  0  0
    3.8170   -0.0630    0.4470 C   0  0  0  0  0  0  0  0  0  0  0  0
    2.6620    0.1890   -0.4240 C   0  0  0  0  0  0  0  0  0  0  0  0
    1.4010   -0.1510   -0.1380 N   0  0  0  0  0  0  0  0  0  0  0  0
    0.6040    0.2260   -1.1480 C   0  0  0  0  0  0  0  0  0  0  0  0
   -0.8360    0.0780   -1.2750 C   0  0  0  0  0  0  0  0  0  0  0  0
   -1.5840    0.4670   -2.3890 C   0  0  0  0  0  0  0  0  0  0  0  0
   -2.8820    0.1910   -2.1550 N   0  0  0  0  0  0  0  0  0  0  0  0
   -2.9750   -0.3600   -0.9240 C   0  0  0  0  0  0  0  0  0  0  0  0
   -4.2380   -0.8220   -0.2330 C   0  0  0  0  0  0  0  0  0  0  0  0
   -5.4050   -0.5940   -1.1290 C   0  0  0  0  0  0  0  0  0  0  0  0
   -6.6410   -1.0040   -0.5200 N   0  0  0  0  0  0  0  0  0  0  0  0
   -7.0230   -0.1630    0.5670 C   0  0  0  0  0  0  0  0  0  0  0  0
   -7.3790    1.2100    0.0040 C   0  0  0  0  0  0  0  0  0  0  0  0
   -1.7380   -0.4170   -0.4190 N   0  0  0  0  0  0  0  0  0  0  0  0
   -1.3440   -0.9350    0.8990 C   0  0  0  0  0  0  0  0  0  0  0  0
    1.4290    0.8020   -2.0460 N   0  0  0  0  0  0  0  0  0  0  0  0
    2.6640    0.7760   -1.6020 O   0  0  0  0  0  0  0  0  0  0  0  0
    3.6480   -0.7400    1.7040 C   0  0  0  0  0  0  0  0  0  0  0  0
    4.5610   -1.0470    2.5820 C   0  0  0  0  0  0  0  0  0  0  0  0
    6.2400   -0.6210    2.2810 S   0  0  2  0  0  0  0  0  0  0  0  0
    6.6490    0.2810    3.4090 O   0  0  0  0  0  0  0  0  0  0  0  0
    7.1010   -1.8510    2.2200 O   0  0  0  0  0  0  0  0  0  0  0  0
  1  2  1  0
  2  3  2  3
  3  4  1  0
  3 24  1  0
  4  5  2  0
  5  6  1  0
  5 22  1  0
  6  7  2  0
  6 21  1  0
  7  8  1  0
  8  9  1  0
  8 20  2  0
  9 10  2  0
  9 18  1  0
 10 11  1  0
 11 12  2  0
 12 13  1  0
 12 18  1  0
 13 14  1  0
 14 15  1  0
 15 16  1  0
 16 17  1  0
 18 19  1  0
 20 21  1  0
 22 23  2  0
 24 23  1  1
 24 25  2  0
 24 26  2  0
M  END
