
     RDKit          3D

 26 29  0  0  0  0  0  0  0  0999 V2000
    3.4080   -4.8760   -0.6120 C   0  0  0  0  0  0  0  0  0  0  0  0
    3.2960   -3.5080   -0.0740 C   0  0  0  0  0  0  0  0  0  0  0  0
    2.8400   -2.5680   -0.8020 N   0  0  0  0  0  0  0  0  0  0  0  0
    2.7050   -1.2310   -0.3510 C   0  0  0  0  0  0  0  0  0  0  0  0
    3.4450   -0.1620   -0.8650 C   0  0  0  0  0  0  0  0  0  0  0  0
    3.0210    0.9240   -0.1750 C   0  0  0  0  0  0  0  0  0  0  0  0
    3.4350    2.3210   -0.2760 C   0  0  0  0  0  0  0  0  0  0  0  0
    3.0350    3.4100    0.3900 C   0  0  0  0  0  0  0  0  0  0  0  0
    3.5880    4.6060    0.0980 C   0  0  0  0  0  0  0  0  0  0  0  0
    4.5290    4.6850   -0.8540 C   0  0  0  0  0  0  0  0  0  0  0  0
    4.6630    2.9340   -1.4000 S   0  0  0  0  0  0  0  0  0  0  0  0
    2.0870    0.5160    0.6940 N   0  0  0  0  0  0  0  0  0  0  0  0
    1.8890   -0.7750    0.5980 N   0  0  0  0  0  0  0  0  0  0  0  0
    0.9600   -1.5420    1.3770 C   0  0  0  0  0  0  0  0  0  0  0  0
   -0.3630   -1.5700    0.6580 C   0  0  0  0  0  0  0  0  0  0  0  0
   -1.3630   -0.6870    0.8000 N   0  0  0  0  0  0  0  0  0  0  0  0
   -2.3680   -1.0480   -0.0040 C   0  0  0  0  0  0  0  0  0  0  0  0
   -3.6510   -0.3880   -0.1800 C   0  0  0  0  0  0  0  0  0  0  0  0
   -4.6790   -0.7790   -1.0190 C   0  0  0  0  0  0  0  0  0  0  0  0
   -5.7140    0.1200   -0.8830 C   0  0  0  0  0  0  0  0  0  0  0  0
   -5.2700    1.0370    0.0470 C   0  0  0  0  0  0  0  0  0  0  0  0
   -6.0390    2.2120    0.5340 C   0  0  0  0  0  0  0  0  0  0  0  0
   -7.2880    2.2960   -0.0610 O   0  0  0  0  0  0  0  0  0  0  0  0
   -4.0740    0.7010    0.4240 O   0  0  0  0  0  0  0  0  0  0  0  0
   -1.9440   -2.1570   -0.6230 N   0  0  0  0  0  0  0  0  0  0  0  0
   -0.7480   -2.4580   -0.2200 O   0  0  0  0  0  0  0  0  0  0  0  0
  1  2  1  0
  2  3  2  3
  3  4  1  0
  4  5  2  0
  4 13  1  0
  5  6  1  0
  6  7  1  0
  6 12  2  0
  7  8  2  0
  7 11  1  0
  8  9  1  0
  9 10  2  0
 10 11  1  0
 12 13  1  0
 13 14  1  0
 14 15  1  0
 15 16  2  0
 15 26  1  0
 16 17  1  0
 17 18  1  0
 17 25  2  0
 18 19  2  0
 18 24  1  0
 19 20  1  0
 20 21  2  0
 21 22  1  0
 21 24  1  0
 22 23  1  0
 25 26  1  0
M  END
