
     RDKit          3D

 15 15  0  0  0  0  0  0  0  0999 V2000
    0.3990    0.6520   -2.0250 C   0  0  0  0  0  0  0  0  0  0  0  0
    0.0010   -0.0530   -0.7780 C   0  0  1  0  0  0  0  0  0  0  0  0
   -0.4850   -1.3860   -1.1040 N   0  0  0  0  0  0  0  0  0  0  0  0
    1.0700   -0.1210    0.2660 C   0  0  0  0  0  0  0  0  0  0  0  0
    2.3120   -0.8360   -0.1900 C   0  0  2  0  0  0  0  0  0  0  0  0
    3.3340   -0.8570    0.9260 C   0  0  0  0  0  0  0  0  0  0  0  0
    3.7820    0.5870    0.9030 C   0  0  0  0  0  0  0  0  0  0  0  0
    3.6550    0.9070   -0.5670 C   0  0  0  0  0  0  0  0  0  0  0  0
    2.9340   -0.0930   -1.1570 O   0  0  0  0  0  0  0  0  0  0  0  0
   -1.1550    0.6850   -0.1840 C   0  0  0  0  0  0  0  0  0  0  0  0
   -0.9730    1.8800    0.1830 O   0  0  0  0  0  0  0  0  0  0  0  0
   -2.4020    0.1280   -0.0180 O   0  0  0  0  0  0  0  0  0  0  0  0
   -3.5060    0.8140    0.5430 C   0  0  0  0  0  0  0  0  0  0  0  0
   -4.6910   -0.1260    0.5570 C   0  0  0  0  0  0  0  0  0  0  0  0
   -4.4020   -1.2950    1.3430 N   0  0  0  0  0  0  0  0  0  0  0  0
  2  1  1  6
  2  3  1  0
  2  4  1  0
  2 10  1  0
  5  4  1  1
  5  6  1  0
  5  9  1  0
  6  7  1  0
  7  8  1  0
  8  9  1  0
 10 11  2  0
 10 12  1  0
 12 13  1  0
 13 14  1  0
 14 15  1  0
M  END
