
     RDKit          3D

 15 15  0  0  0  0  0  0  0  0999 V2000
    3.7460   -0.1480    1.3940 C   0  0  0  0  0  0  0  0  0  0  0  0
    2.5200    0.0510    0.5540 C   0  0  2  0  0  0  0  0  0  0  0  0
    1.3990   -0.8630    0.9640 C   0  0  0  0  0  0  0  0  0  0  0  0
    0.1610   -0.5930    0.0410 C   0  0  0  0  0  0  0  0  0  0  0  0
   -0.8670   -1.5300    0.5230 C   0  0  0  0  0  0  0  0  0  0  0  0
   -2.1680   -1.6720   -0.1080 C   0  0  0  0  0  0  0  0  0  0  0  0
   -3.0730   -0.5080   -0.1740 C   0  0  0  0  0  0  0  0  0  0  0  0
   -2.6890    0.6810   -0.9680 C   0  0  0  0  0  0  0  0  0  0  0  0
   -3.8080    1.6520   -0.8690 N   0  0  0  0  0  0  0  0  0  0  0  0
    2.7940   -0.1830   -0.8340 O   0  0  0  0  0  0  0  0  0  0  0  0
    2.5070    0.9440   -1.5620 C   0  0  0  0  0  0  0  0  0  0  0  0
    2.6390    1.0780   -2.8170 O   0  0  0  0  0  0  0  0  0  0  0  0
    2.0320    1.9560   -0.6900 N   0  0  0  0  0  0  0  0  0  0  0  0
    2.0240    1.4410    0.6210 C   0  0  0  0  0  0  0  0  0  0  0  0
    1.6670    2.0390    1.6480 O   0  0  0  0  0  0  0  0  0  0  0  0
  2  1  1  1
  2  3  1  0
  2 10  1  0
  2 14  1  0
  3  4  1  0
  4  5  1  0
  5  6  1  0
  6  7  1  0
  7  8  1  0
  8  9  1  0
 10 11  1  0
 11 12  2  0
 11 13  1  0
 13 14  1  0
 14 15  2  0
M  END
