
     RDKit          3D

 14 14  0  0  0  0  0  0  0  0999 V2000
   -2.0620   -2.4790    0.8220 C   0  0  0  0  0  0  0  0  0  0  0  0
   -1.6620   -1.9040   -0.3710 O   0  0  0  0  0  0  0  0  0  0  0  0
   -2.0590   -0.5860   -0.4720 C   0  0  0  0  0  0  0  0  0  0  0  0
   -1.4700    0.3410    0.5640 C   0  0  2  0  0  0  0  0  0  0  0  0
   -2.0660    1.5970    0.3130 O   0  0  0  0  0  0  0  0  0  0  0  0
   -1.8890    2.0060   -0.9740 C   0  0  0  0  0  0  0  0  0  0  0  0
   -0.5400    1.8570   -1.5410 C   0  0  0  0  0  0  0  0  0  0  0  0
    0.2140    0.6740   -1.0790 N   0  0  0  0  0  0  0  0  0  0  0  0
    0.0310    0.5700    0.3070 C   0  0  2  0  0  0  0  0  0  0  0  0
    0.8580   -0.2930    1.1450 C   0  0  0  0  0  0  0  0  0  0  0  0
    2.3220   -0.2650    1.0620 C   0  0  0  0  0  0  0  0  0  0  0  0
    2.9040   -0.7030   -0.2230 C   0  0  0  0  0  0  0  0  0  0  0  0
    4.2240   -0.3150   -0.5790 N   0  0  0  0  0  0  0  0  0  0  0  0
    2.2390   -1.4230   -1.0050 O   0  0  0  0  0  0  0  0  0  0  0  0
  1  2  1  0
  2  3  1  0
  4  3  1  6
  4  5  1  0
  4  9  1  0
  5  6  1  0
  6  7  1  0
  7  8  1  0
  8  9  1  0
  9 10  1  6
 10 11  1  0
 11 12  1  0
 12 13  1  0
 12 14  2  0
M  END
