
     RDKit          3D

 15 15  0  0  0  0  0  0  0  0999 V2000
   -3.9320    0.7860   -1.6800 C   0  0  0  0  0  0  0  0  0  0  0  0
   -4.0580    0.1320   -0.3350 C   0  0  0  0  0  0  0  0  0  0  0  0
   -2.7730   -0.5150    0.1070 C   0  0  2  0  0  0  0  0  0  0  0  0
   -3.0580   -1.1360    1.4640 C   0  0  0  0  0  0  0  0  0  0  0  0
   -1.6930    0.5120    0.1810 C   0  0  2  0  0  0  0  0  0  0  0  0
   -1.4600    1.1320   -1.0870 N   0  0  0  0  0  0  0  0  0  0  0  0
   -0.4360   -0.0590    0.7430 C   0  0  0  0  0  0  0  0  0  0  0  0
   -0.4830   -0.6320    1.8600 O   0  0  0  0  0  0  0  0  0  0  0  0
    0.7790    0.0180    0.0840 O   0  0  0  0  0  0  0  0  0  0  0  0
    1.9250   -0.5630    0.7130 C   0  0  0  0  0  0  0  0  0  0  0  0
    3.1450   -0.3700   -0.1710 C   0  0  2  0  0  0  0  0  0  0  0  0
    4.3470   -0.9270    0.5280 C   0  0  0  0  0  0  0  0  0  0  0  0
    5.2650    0.2000    0.5890 N   0  0  0  0  0  0  0  0  0  0  0  0
    4.7840    0.9950   -0.5500 C   0  0  0  0  0  0  0  0  0  0  0  0
    3.4150    0.9600   -0.4010 O   0  0  0  0  0  0  0  0  0  0  0  0
  1  2  1  0
  2  3  1  0
  3  4  1  1
  3  5  1  0
  5  6  1  6
  5  7  1  0
  7  8  2  0
  7  9  1  0
  9 10  1  0
 11 10  1  1
 11 12  1  0
 11 15  1  0
 12 13  1  0
 13 14  1  0
 14 15  1  0
M  END
