
     RDKit          3D

 15 15  0  0  0  0  0  0  0  0999 V2000
    4.5810    0.2170   -0.7220 C   0  0  0  0  0  0  0  0  0  0  0  0
    3.5710   -0.2390    0.2830 C   0  0  2  0  0  0  0  0  0  0  0  0
    3.7260   -1.6830    0.6710 C   0  0  0  0  0  0  0  0  0  0  0  0
    4.9350   -1.9640    1.2560 O   0  0  0  0  0  0  0  0  0  0  0  0
    2.2520   -0.0750   -0.3230 N   0  0  0  0  0  0  0  0  0  0  0  0
    1.3380    0.8050    0.2890 C   0  0  0  0  0  0  0  0  0  0  0  0
    1.6680    1.4210    1.3270 O   0  0  0  0  0  0  0  0  0  0  0  0
    0.0520    0.9480   -0.3240 N   0  0  0  0  0  0  0  0  0  0  0  0
   -0.9150    1.8290    0.2570 C   0  0  0  0  0  0  0  0  0  0  0  0
   -2.1890    1.8280   -0.5430 C   0  0  0  0  0  0  0  0  0  0  0  0
   -2.7790    0.4420   -0.5890 C   0  0  1  0  0  0  0  0  0  0  0  0
   -3.1040   -0.0860    0.7910 C   0  0  0  0  0  0  0  0  0  0  0  0
   -4.1140   -1.1660    0.4630 C   0  0  0  0  0  0  0  0  0  0  0  0
   -4.4790   -0.8290   -0.9710 C   0  0  0  0  0  0  0  0  0  0  0  0
   -4.0460    0.4780   -1.1770 O   0  0  0  0  0  0  0  0  0  0  0  0
  2  1  1  6
  2  3  1  0
  2  5  1  0
  3  4  1  0
  5  6  1  0
  6  7  2  0
  6  8  1  0
  8  9  1  0
  9 10  1  0
 11 10  1  1
 11 12  1  0
 11 15  1  0
 12 13  1  0
 13 14  1  0
 14 15  1  0
M  END
