
     RDKit          3D

 15 15  0  0  0  0  0  0  0  0999 V2000
    4.7170    0.5400   -1.2680 C   0  0  0  0  0  0  0  0  0  0  0  0
    3.7150   -0.5620   -1.5010 C   0  0  0  0  0  0  0  0  0  0  0  0
    2.5350   -0.3610   -0.8260 O   0  0  0  0  0  0  0  0  0  0  0  0
    2.6720   -0.2830    0.5380 C   0  0  0  0  0  0  0  0  0  0  0  0
    1.3420   -0.0610    1.2220 C   0  0  1  0  0  0  0  0  0  0  0  0
    0.6920    1.2270    0.7550 C   0  0  0  0  0  0  0  0  0  0  0  0
   -0.7330    1.1000    1.1040 N   0  0  0  0  0  0  0  0  0  0  0  0
   -1.3010    0.2450    0.0810 C   0  0  2  0  0  0  0  0  0  0  0  0
   -2.6840   -0.2410    0.3890 C   0  0  2  0  0  0  0  0  0  0  0  0
   -2.7950   -1.0450    1.6390 C   0  0  0  0  0  0  0  0  0  0  0  0
   -3.0680   -1.1250   -0.7220 N   0  0  0  0  0  0  0  0  0  0  0  0
   -3.7000    0.8590    0.4270 C   0  0  0  0  0  0  0  0  0  0  0  0
   -3.6780    1.5390   -0.7900 O   0  0  0  0  0  0  0  0  0  0  0  0
   -0.3280   -0.8730   -0.1660 C   0  0  0  0  0  0  0  0  0  0  0  0
    0.5100   -1.1280    0.9130 O   0  0  0  0  0  0  0  0  0  0  0  0
  1  2  1  0
  2  3  1  0
  3  4  1  0
  5  4  1  6
  5  6  1  0
  5 15  1  0
  6  7  1  0
  7  8  1  0
  8  9  1  0
  8 14  1  1
  9 10  1  1
  9 11  1  0
  9 12  1  0
 12 13  1  0
 14 15  1  0
M  END
