
     RDKit          3D

 28 29  0  0  0  0  0  0  0  0999 V2000
    9.5160    0.3810    1.0340 N   0  0  0  0  0  0  0  0  0  0  0  0
    8.3870    0.7880    0.2590 C   0  0  0  0  0  0  0  0  0  0  0  0
    8.5640    1.0340   -0.9880 N   0  0  0  0  0  0  0  0  0  0  0  0
    7.1060    0.9270    0.8200 N   0  0  0  0  0  0  0  0  0  0  0  0
    5.9610    0.4150    0.1820 C   0  0  0  0  0  0  0  0  0  0  0  0
    5.9740   -0.4510   -0.8850 C   0  0  0  0  0  0  0  0  0  0  0  0
    4.8190   -0.9260   -1.5010 C   0  0  0  0  0  0  0  0  0  0  0  0
    3.5850   -0.5310   -1.0490 C   0  0  0  0  0  0  0  0  0  0  0  0
    2.3940   -0.9560   -1.6050 O   0  0  0  0  0  0  0  0  0  0  0  0
    3.5310    0.3450    0.0300 C   0  0  0  0  0  0  0  0  0  0  0  0
    2.2210    0.7760    0.5260 C   0  0  0  0  0  0  0  0  0  0  0  0
    1.1210    0.3900    0.0200 N   0  0  0  0  0  0  0  0  0  0  0  0
   -0.1920    0.7940    0.4830 C   0  0  0  0  0  0  0  0  0  0  0  0
   -1.0360   -0.4290    0.5440 C   0  0  0  0  0  0  0  0  0  0  0  0
   -1.9310   -0.6190    1.4350 N   0  0  0  0  0  0  0  0  0  0  0  0
   -2.6770   -1.8450    1.3800 C   0  0  0  0  0  0  0  0  0  0  0  0
   -3.9600   -1.5540    0.6770 C   0  0  0  0  0  0  0  0  0  0  0  0
   -4.2570   -0.2980    0.2140 C   0  0  0  0  0  0  0  0  0  0  0  0
   -5.4510   -0.0290   -0.4400 C   0  0  0  0  0  0  0  0  0  0  0  0
   -5.7890    1.2610   -0.9320 N   0  0  0  0  0  0  0  0  0  0  0  0
   -6.8760    1.8390   -0.5630 C   0  0  0  0  0  0  0  0  0  0  0  0
   -7.7790    1.2270    0.3410 N   0  0  0  0  0  0  0  0  0  0  0  0
   -7.1830    3.1270   -1.0740 N   0  0  0  0  0  0  0  0  0  0  0  0
   -6.3650   -1.0490   -0.6290 C   0  0  0  0  0  0  0  0  0  0  0  0
   -6.0730   -2.3150   -0.1650 C   0  0  0  0  0  0  0  0  0  0  0  0
   -4.8860   -2.5750    0.4820 C   0  0  0  0  0  0  0  0  0  0  0  0
   -4.5780   -3.8580    0.9580 O   0  0  0  0  0  0  0  0  0  0  0  0
    4.6860    0.8000    0.6220 C   0  0  0  0  0  0  0  0  0  0  0  0
  1  2  1  0
  2  3  2  0
  2  4  1  0
  4  5  1  0
  5  6  2  0
  5 28  1  0
  6  7  1  0
  7  8  2  0
  8  9  1  0
  8 10  1  0
 10 11  1  0
 10 28  2  0
 11 12  2  3
 12 13  1  0
 13 14  1  0
 14 15  2  3
 15 16  1  0
 16 17  1  0
 17 18  2  0
 17 26  1  0
 18 19  1  0
 19 20  1  0
 19 24  2  0
 20 21  2  3
 21 22  1  0
 21 23  1  0
 24 25  1  0
 25 26  2  0
 26 27  1  0
M  CHG  2   3   1  20   1
M  END
