
     RDKit          3D

 21 24  0  0  0  0  0  0  0  0999 V2000
   -5.2630   -0.1620   -0.6890 C   0  0  0  0  0  0  0  0  0  0  0  0
   -3.9660    0.2000   -1.3870 C   0  0  1  0  0  0  0  0  0  0  0  0
   -3.2930    1.3940   -0.7580 C   0  0  0  0  0  0  0  0  0  0  0  0
   -2.3800    0.9000    0.2270 N   0  0  0  0  0  0  0  0  0  0  0  0
   -2.1440   -0.4960   -0.0320 C   0  0  2  0  0  0  0  0  0  0  0  0
   -2.6980   -1.2990    1.1330 C   0  0  0  0  0  0  0  0  0  0  0  0
   -1.9240   -0.9370    2.3430 C   0  0  0  0  0  0  0  0  0  0  0  0
   -2.4610   -0.9020    3.4780 O   0  0  0  0  0  0  0  0  0  0  0  0
   -0.5090   -0.6240    2.1560 C   0  0  0  0  0  0  0  0  0  0  0  0
    0.1050   -0.5430    0.9960 C   0  0  0  0  0  0  0  0  0  0  0  0
    1.5300   -0.2260    0.8520 C   0  0  0  0  0  0  0  0  0  0  0  0
    2.3350    0.0570    1.9220 C   0  0  0  0  0  0  0  0  0  0  0  0
    3.6870    0.3480    1.8060 C   0  0  0  0  0  0  0  0  0  0  0  0
    4.2890    0.3640    0.5650 C   0  0  0  0  0  0  0  0  0  0  0  0
    3.5090    0.0860   -0.5200 C   0  0  0  0  0  0  0  0  0  0  0  0
    2.1450   -0.2060   -0.3860 C   0  0  0  0  0  0  0  0  0  0  0  0
    4.3240    0.1590   -1.7860 C   0  0  0  0  0  0  0  0  0  0  0  0
    5.4800    1.0400   -1.3360 C   0  0  0  0  0  0  0  0  0  0  0  0
    5.6700    0.6190    0.0950 C   0  0  0  0  0  0  0  0  0  0  0  0
   -0.6990   -0.7810   -0.2630 C   0  0  0  0  0  0  0  0  0  0  0  0
   -2.9280   -0.8720   -1.2510 C   0  0  0  0  0  0  0  0  0  0  0  0
  2  1  1  1
  2  3  1  0
  2 21  1  0
  3  4  1  0
  4  5  1  0
  5  6  1  1
  5 20  1  0
  5 21  1  0
  6  7  1  0
  7  8  2  0
  7  9  1  0
  9 10  2  0
 10 11  1  0
 10 20  1  0
 11 12  2  0
 11 16  1  0
 12 13  1  0
 13 14  2  0
 14 15  1  0
 14 19  1  0
 15 16  2  0
 15 17  1  0
 17 18  1  0
 18 19  1  0
M  CHG  1   4   1
M  END
