
     RDKit          3D

 20 23  0  0  0  0  0  0  0  0999 V2000
   -0.0690   -3.5070   -0.7010 O   0  0  0  0  0  0  0  0  0  0  0  0
    0.5630   -2.5760   -0.2210 C   0  0  0  0  0  0  0  0  0  0  0  0
    1.7460   -2.8530    0.6030 C   0  0  0  0  0  0  0  0  0  0  0  0
    2.8980   -2.0840   -0.0630 C   0  0  0  0  0  0  0  0  0  0  0  0
    2.4930   -0.6460    0.0610 C   0  0  0  0  0  0  0  0  0  0  0  0
    3.3480    0.2260    0.5330 C   0  0  0  0  0  0  0  0  0  0  0  0
    3.0490    1.6500    0.6930 C   0  0  0  0  0  0  0  0  0  0  0  0
    1.6280    2.0570    0.4430 C   0  0  0  0  0  0  0  0  0  0  0  0
    0.9610    1.1890   -0.5710 C   0  0  0  0  0  0  0  0  0  0  0  0
    1.1400   -0.2660   -0.3440 C   0  0  0  0  0  0  0  0  0  0  0  0
    0.1460   -1.1610   -0.4670 C   0  0  0  0  0  0  0  0  0  0  0  0
   -1.2270   -0.8520   -0.5980 C   0  0  0  0  0  0  0  0  0  0  0  0
   -2.2110   -1.7410   -0.8510 C   0  0  0  0  0  0  0  0  0  0  0  0
   -3.5990   -1.2730   -0.9890 C   0  0  0  0  0  0  0  0  0  0  0  0
   -3.9820    0.0020   -0.9070 C   0  0  0  0  0  0  0  0  0  0  0  0
   -2.9370    1.0450   -0.6780 C   0  0  1  0  0  0  0  0  0  0  0  0
   -3.2620    2.1620    0.0990 N   0  0  0  0  0  0  0  0  0  0  0  0
   -2.4590    2.2280    1.1350 C   0  0  0  0  0  0  0  0  0  0  0  0
   -1.5270    1.1110    1.0900 C   0  0  0  0  0  0  0  0  0  0  0  0
   -1.7980    0.3960   -0.0000 C   0  0  0  0  0  0  0  0  0  0  0  0
  1  2  2  0
  2  3  1  0
  2 11  1  0
  3  4  1  0
  4  5  1  0
  5  6  2  0
  5 10  1  0
  6  7  1  0
  7  8  1  0
  8  9  1  0
  9 10  1  0
 10 11  2  0
 11 12  1  0
 12 13  2  0
 12 20  1  0
 13 14  1  0
 14 15  2  0
 16 15  1  1
 16 17  1  0
 16 20  1  0
 17 18  2  0
 18 19  1  0
 19 20  2  0
M  CHG  1  17   1
M  END
