
     RDKit          3D

 21 24  0  0  0  0  0  0  0  0999 V2000
    2.0270    2.6130    0.5830 C   0  0  0  0  0  0  0  0  0  0  0  0
    0.6970    1.9430    0.6200 C   0  0  0  0  0  0  0  0  0  0  0  0
   -0.2190    2.2940    1.4990 C   0  0  0  0  0  0  0  0  0  0  0  0
   -1.4860    1.7480    1.6380 N   0  0  0  0  0  0  0  0  0  0  0  0
   -1.8710    0.8700    0.6050 C   0  0  1  0  0  0  0  0  0  0  0  0
   -0.8170    0.4750   -0.3760 C   0  0  0  0  0  0  0  0  0  0  0  0
    0.4090    0.9380   -0.4260 C   0  0  0  0  0  0  0  0  0  0  0  0
    1.3950    0.4930   -1.3840 C   0  0  0  0  0  0  0  0  0  0  0  0
    2.4340   -0.4190   -0.7510 C   0  0  0  0  0  0  0  0  0  0  0  0
    2.4190   -0.7860    0.5120 C   0  0  0  0  0  0  0  0  0  0  0  0
    3.5890   -1.6850    0.7990 C   0  0  0  0  0  0  0  0  0  0  0  0
    4.2620   -1.7610   -0.5120 C   0  0  0  0  0  0  0  0  0  0  0  0
    3.5740   -1.0260   -1.3710 C   0  0  0  0  0  0  0  0  0  0  0  0
   -1.2290   -0.5060   -1.3710 C   0  0  0  0  0  0  0  0  0  0  0  0
   -1.0620   -0.5980   -2.7150 C   0  0  0  0  0  0  0  0  0  0  0  0
   -1.6900   -1.7750   -3.0660 C   0  0  0  0  0  0  0  0  0  0  0  0
   -2.2000   -2.3350   -1.9610 O   0  0  0  0  0  0  0  0  0  0  0  0
   -1.9610   -1.6280   -0.9120 C   0  0  0  0  0  0  0  0  0  0  0  0
   -2.2250   -1.6680    0.5440 C   0  0  0  0  0  0  0  0  0  0  0  0
   -2.4380   -0.3780    1.2110 C   0  0  2  0  0  0  0  0  0  0  0  0
   -3.9630   -0.1730    1.3010 C   0  0  0  0  0  0  0  0  0  0  0  0
  1  2  1  0
  2  3  2  0
  2  7  1  0
  3  4  1  0
  5  4  1  1
  5  6  1  0
  5 20  1  0
  6  7  2  0
  6 14  1  0
  7  8  1  0
  8  9  1  0
  9 10  2  0
  9 13  1  0
 10 11  1  0
 11 12  1  0
 12 13  2  0
 14 15  1  0
 14 18  2  0
 15 16  2  0
 16 17  1  0
 17 18  1  0
 18 19  1  0
 19 20  1  0
 20 21  1  6
M  CHG  1   4   1
M  END
