
     RDKit          3D

 21 24  0  0  0  0  0  0  0  0999 V2000
   -1.8580    1.9870    0.9240 O   0  0  0  0  0  0  0  0  0  0  0  0
   -1.7740    0.7120    0.3020 C   0  0  2  0  0  0  0  0  0  0  0  0
   -0.3530    0.3750    0.2790 C   0  0  0  0  0  0  0  0  0  0  0  0
    0.2330   -0.7450    0.7730 C   0  0  0  0  0  0  0  0  0  0  0  0
    1.5930   -0.9480    0.6810 C   0  0  0  0  0  0  0  0  0  0  0  0
    2.4330   -0.0160    0.0780 C   0  0  0  0  0  0  0  0  0  0  0  0
    3.8690   -0.2410   -0.0200 C   0  0  0  0  0  0  0  0  0  0  0  0
    4.3640   -1.5190   -0.1500 C   0  0  0  0  0  0  0  0  0  0  0  0
    5.7230   -1.7690   -0.2490 C   0  0  0  0  0  0  0  0  0  0  0  0
    6.6010   -0.7170   -0.2180 C   0  0  0  0  0  0  0  0  0  0  0  0
    6.1460    0.5710   -0.0900 C   0  0  0  0  0  0  0  0  0  0  0  0
    4.7690    0.7970    0.0090 C   0  0  0  0  0  0  0  0  0  0  0  0
    1.8360    1.1270   -0.4260 C   0  0  0  0  0  0  0  0  0  0  0  0
    0.4820    1.3200   -0.3300 C   0  0  0  0  0  0  0  0  0  0  0  0
   -2.3350    0.9320   -1.0880 C   0  0  0  0  0  0  0  0  0  0  0  0
   -3.6310    0.3110   -1.1580 N   0  0  1  0  0  0  0  0  0  0  0  0
   -3.3840   -1.1310   -1.0720 C   0  0  0  0  0  0  0  0  0  0  0  0
   -3.1100   -1.4340    0.3870 C   0  0  0  0  0  0  0  0  0  0  0  0
   -2.6670   -0.1810    1.0860 C   0  0  2  0  0  0  0  0  0  0  0  0
   -3.9700    0.6280    1.2730 C   0  0  0  0  0  0  0  0  0  0  0  0
   -4.5250    0.7770   -0.1370 C   0  0  0  0  0  0  0  0  0  0  0  0
  2  1  1  1
  2  3  1  0
  2 15  1  0
  2 19  1  0
  3  4  2  0
  3 14  1  0
  4  5  1  0
  5  6  2  0
  6  7  1  0
  6 13  1  0
  7  8  2  0
  7 12  1  0
  8  9  1  0
  9 10  2  0
 10 11  1  0
 11 12  2  0
 13 14  2  0
 15 16  1  0
 16 17  1  1
 16 21  1  0
 17 18  1  0
 19 18  1  6
 19 20  1  0
 20 21  1  0
M  CHG  1  16   1
M  END
