
     RDKit          3D

 21 24  0  0  0  0  0  0  0  0999 V2000
    0.1070   -0.7950   -0.7130 C   0  0  0  0  0  0  0  0  0  0  0  0
   -1.0460   -0.0330   -0.2820 C   0  0  0  0  0  0  0  0  0  0  0  0
   -2.2660   -0.2710   -0.7220 C   0  0  0  0  0  0  0  0  0  0  0  0
   -2.6060   -1.2530   -1.6310 O   0  0  0  0  0  0  0  0  0  0  0  0
   -3.9750   -1.2770   -1.9180 C   0  0  0  0  0  0  0  0  0  0  0  0
   -4.5460   -0.1930   -1.0960 C   0  0  0  0  0  0  0  0  0  0  0  0
   -5.8560    0.2910   -0.9340 C   0  0  0  0  0  0  0  0  0  0  0  0
   -6.0300    1.3410   -0.0650 C   0  0  0  0  0  0  0  0  0  0  0  0
   -5.0300    1.9330    0.6370 C   0  0  0  0  0  0  0  0  0  0  0  0
   -3.7430    1.4430    0.4650 C   0  0  0  0  0  0  0  0  0  0  0  0
   -3.5130    0.3880   -0.3970 C   0  0  0  0  0  0  0  0  0  0  0  0
    1.3120   -0.5300   -0.2530 C   0  0  0  0  0  0  0  0  0  0  0  0
    2.4780   -1.3330   -0.7170 C   0  0  0  0  0  0  0  0  0  0  0  0
    3.4330   -1.5610    0.3790 N   0  0  0  0  0  0  0  0  0  0  0  0
    3.9140   -0.2350    0.6950 C   0  0  0  0  0  0  0  0  0  0  0  0
    5.2480    0.0480    0.8330 C   0  0  0  0  0  0  0  0  0  0  0  0
    5.6880    1.3200    1.1320 C   0  0  0  0  0  0  0  0  0  0  0  0
    4.7570    2.3300    1.2930 C   0  0  0  0  0  0  0  0  0  0  0  0
    3.4040    2.1010    1.1650 C   0  0  0  0  0  0  0  0  0  0  0  0
    3.0060    0.7990    0.8630 C   0  0  0  0  0  0  0  0  0  0  0  0
    1.5630    0.5580    0.7300 C   0  0  0  0  0  0  0  0  0  0  0  0
  1  2  1  0
  1 12  2  3
  2  3  2  3
  3  4  1  0
  3 11  1  0
  4  5  1  0
  5  6  1  0
  6  7  2  0
  6 11  1  0
  7  8  1  0
  8  9  2  0
  9 10  1  0
 10 11  2  0
 12 13  1  0
 12 21  1  0
 13 14  1  0
 14 15  1  0
 15 16  2  0
 15 20  1  0
 16 17  1  0
 17 18  2  0
 18 19  1  0
 19 20  2  0
 20 21  1  0
M  CHG  1  14   1
M  END
