
     RDKit          3D

 25 27  0  0  0  0  0  0  0  0999 V2000
   -0.9500   -1.4280    2.9800 C   0  0  0  0  0  0  0  0  0  0  0  0
   -1.0560   -1.2520    1.5100 C   0  0  0  0  0  0  0  0  0  0  0  0
   -2.1750   -0.8590    0.9200 C   0  0  0  0  0  0  0  0  0  0  0  0
   -3.2740   -0.6180    1.8410 C   0  0  0  0  0  0  0  0  0  0  0  0
   -4.5360   -0.2230    1.6620 C   0  0  0  0  0  0  0  0  0  0  0  0
   -5.1830    0.1000    0.3390 C   0  0  0  0  0  0  0  0  0  0  0  0
   -4.1890    0.8300   -0.5280 C   0  0  0  0  0  0  0  0  0  0  0  0
   -2.9630    0.5040   -0.8930 C   0  0  0  0  0  0  0  0  0  0  0  0
   -2.2110   -0.7110   -0.5350 C   0  0  1  0  0  0  0  0  0  0  0  0
   -0.9260   -0.7850   -1.1650 N   0  0  0  0  0  0  0  0  0  0  0  0
   -0.7730   -1.9130   -2.0590 C   0  0  0  0  0  0  0  0  0  0  0  0
   -0.4860   -1.4810   -3.4780 C   0  0  0  0  0  0  0  0  0  0  0  0
    0.9540   -1.2260   -3.7310 C   0  0  0  0  0  0  0  0  0  0  0  0
    1.4540   -1.9620   -4.6230 O   0  0  0  0  0  0  0  0  0  0  0  0
    1.9800   -0.3550   -3.2400 N   0  0  0  0  0  0  0  0  0  0  0  0
    2.1030    0.3960   -2.0420 N   0  0  0  0  0  0  0  0  0  0  0  0
    1.3260    0.6730   -1.0510 C   0  0  0  0  0  0  0  0  0  0  0  0
    1.9320    1.5270   -0.0020 C   0  0  2  0  0  0  0  0  0  0  0  0
    3.3460    1.8840   -0.4260 C   0  0  0  0  0  0  0  0  0  0  0  0
    4.3600    1.0190    0.3240 C   0  0  0  0  0  0  0  0  0  0  0  0
    4.2860    1.4940    1.7650 C   0  0  0  0  0  0  0  0  0  0  0  0
    2.9300    1.1650    2.2940 C   0  0  0  0  0  0  0  0  0  0  0  0
    1.9370    0.7070    1.2720 C   0  0  0  0  0  0  0  0  0  0  0  0
   -0.0500    0.2950   -0.7680 C   0  0  0  0  0  0  0  0  0  0  0  0
   -0.5760    1.1240    0.0070 O   0  0  0  0  0  0  0  0  0  0  0  0
  1  2  1  0
  2  3  2  3
  3  4  1  0
  3  9  1  0
  4  5  2  0
  5  6  1  0
  6  7  1  0
  7  8  2  0
  8  9  1  0
  9 10  1  1
 10 11  1  0
 10 24  1  0
 11 12  1  0
 12 13  1  0
 13 14  2  0
 13 15  1  0
 15 16  1  0
 16 17  2  0
 18 17  1  6
 17 24  1  0
 18 19  1  0
 18 23  1  0
 19 20  1  0
 20 21  1  0
 21 22  1  0
 22 23  1  0
 24 25  2  0
M  END
