
     RDKit          3D

 25 27  0  0  0  0  0  0  0  0999 V2000
    6.0720   -0.8500    0.5210 C   0  0  0  0  0  0  0  0  0  0  0  0
    4.9870   -0.1130    0.5080 C   0  0  0  0  0  0  0  0  0  0  0  0
    3.6450   -0.6080    0.4990 C   0  0  0  0  0  0  0  0  0  0  0  0
    3.3540   -2.0430    0.5050 C   0  0  0  0  0  0  0  0  0  0  0  0
    2.5820    0.2470    0.4860 C   0  0  0  0  0  0  0  0  0  0  0  0
    1.2510   -0.2550    0.4780 C   0  0  0  0  0  0  0  0  0  0  0  0
    0.1000    0.3120    0.4420 C   0  0  0  0  0  0  0  0  0  0  0  0
   -1.0530   -0.6660    0.4700 C   0  0  0  0  0  0  0  0  0  0  0  0
   -0.9210   -1.7430    1.3500 C   0  0  0  0  0  0  0  0  0  0  0  0
   -1.9410   -2.6670    1.3860 C   0  0  0  0  0  0  0  0  0  0  0  0
   -1.8440   -3.6490    2.1740 O   0  0  0  0  0  0  0  0  0  0  0  0
   -3.0260   -2.5510    0.6100 N   0  0  0  0  0  0  0  0  0  0  0  0
   -3.1370   -1.5100   -0.2370 C   0  0  0  0  0  0  0  0  0  0  0  0
   -4.2330   -1.4540   -1.0500 C   0  0  0  0  0  0  0  0  0  0  0  0
   -4.3900   -0.4580   -1.9730 C   0  0  0  0  0  0  0  0  0  0  0  0
   -3.4120    0.5040   -2.0780 C   0  0  0  0  0  0  0  0  0  0  0  0
   -2.2880    0.4700   -1.2610 C   0  0  0  0  0  0  0  0  0  0  0  0
   -2.1360   -0.5290   -0.3290 C   0  0  0  0  0  0  0  0  0  0  0  0
   -0.2610    1.6760    0.3880 N   0  0  0  0  0  0  0  0  0  0  0  0
   -1.4320    2.0390    1.0090 C   0  0  0  0  0  0  0  0  0  0  0  0
   -1.9350    3.2580    1.0200 N   0  0  0  0  0  0  0  0  0  0  0  0
   -1.3060    4.2650    0.3980 C   0  0  0  0  0  0  0  0  0  0  0  0
   -0.1420    3.9770   -0.2380 C   0  0  0  0  0  0  0  0  0  0  0  0
    0.3730    2.6640   -0.2360 C   0  0  0  0  0  0  0  0  0  0  0  0
    1.4350    2.4520   -0.8460 O   0  0  0  0  0  0  0  0  0  0  0  0
  1  2  2  0
  2  3  1  0
  3  4  1  0
  3  5  2  3
  5  6  1  0
  6  7  2  3
  7  8  1  0
  7 19  1  0
  8  9  2  0
  8 18  1  0
  9 10  1  0
 10 11  2  0
 10 12  1  0
 12 13  1  0
 13 14  2  0
 13 18  1  0
 14 15  1  0
 15 16  2  0
 16 17  1  0
 17 18  2  0
 19 20  1  0
 19 24  1  0
 20 21  2  0
 21 22  1  0
 22 23  2  0
 23 24  1  0
 24 25  2  0
M  END
