
     RDKit          3D

 25 27  0  0  0  0  0  0  0  0999 V2000
   -3.6380   -1.1170    1.1390 C   0  0  0  0  0  0  0  0  0  0  0  0
   -2.2850   -0.8270    0.5170 C   0  0  0  0  0  0  0  0  0  0  0  0
   -1.4400   -0.1070    1.4400 N   0  0  0  0  0  0  0  0  0  0  0  0
   -0.9820   -0.8100    2.6230 C   0  0  0  0  0  0  0  0  0  0  0  0
   -1.0540    1.2350    1.2740 C   0  0  0  0  0  0  0  0  0  0  0  0
   -1.3600    2.1930    2.2590 C   0  0  0  0  0  0  0  0  0  0  0  0
   -0.9970    3.5110    2.0950 C   0  0  0  0  0  0  0  0  0  0  0  0
   -0.3230    3.8900    0.9430 C   0  0  0  0  0  0  0  0  0  0  0  0
   -0.0250    2.9210   -0.0280 C   0  0  0  0  0  0  0  0  0  0  0  0
   -0.3870    1.5980    0.1310 C   0  0  0  0  0  0  0  0  0  0  0  0
   -0.0480    0.6490   -0.8400 N   0  0  0  0  0  0  0  0  0  0  0  0
    0.5070    0.9920   -2.1320 C   0  0  0  0  0  0  0  0  0  0  0  0
   -0.0280    2.0120   -2.7130 N   0  0  0  0  0  0  0  0  0  0  0  0
    0.4350    2.4350   -3.9740 C   0  0  0  0  0  0  0  0  0  0  0  0
   -0.0580    3.4270   -4.5840 O   0  0  0  0  0  0  0  0  0  0  0  0
    1.5370    1.6670   -4.5760 C   0  0  0  0  0  0  0  0  0  0  0  0
    2.0780    0.6400   -3.9930 C   0  0  0  0  0  0  0  0  0  0  0  0
    1.5870    0.1790   -2.6390 C   0  0  0  0  0  0  0  0  0  0  0  0
    2.1530   -0.8390   -2.1120 C   0  0  0  0  0  0  0  0  0  0  0  0
    1.9840   -1.5670   -0.8940 C   0  0  0  0  0  0  0  0  0  0  0  0
    2.9960   -1.6000    0.1120 C   0  0  0  0  0  0  0  0  0  0  0  0
    2.5660   -2.3770    1.1450 C   0  0  0  0  0  0  0  0  0  0  0  0
    1.3080   -2.8080    0.7650 C   0  0  0  0  0  0  0  0  0  0  0  0
    0.4840   -3.6980    1.6360 C   0  0  0  0  0  0  0  0  0  0  0  0
    1.0520   -2.3080   -0.3950 O   0  0  0  0  0  0  0  0  0  0  0  0
  1  2  1  0
  2  3  1  0
  3  4  1  0
  3  5  1  0
  5  6  2  0
  5 10  1  0
  6  7  1  0
  7  8  2  0
  8  9  1  0
  9 10  2  0
 10 11  1  0
 11 12  1  0
 12 13  2  0
 12 18  1  0
 13 14  1  0
 14 15  2  0
 14 16  1  0
 16 17  2  0
 17 18  1  0
 18 19  2  3
 19 20  1  0
 20 21  2  0
 20 25  1  0
 21 22  1  0
 22 23  2  0
 23 24  1  0
 23 25  1  0
M  END
