
     RDKit          3D

 25 27  0  0  0  0  0  0  0  0999 V2000
   -0.8120    0.2480    1.8520 C   0  0  0  0  0  0  0  0  0  0  0  0
    0.3040    0.3820    0.7500 C   0  0  0  0  0  0  0  0  0  0  0  0
    1.4590    0.2650    1.2630 C   0  0  0  0  0  0  0  0  0  0  0  0
    2.8370    0.2600    0.9530 C   0  0  0  0  0  0  0  0  0  0  0  0
    3.7080    0.0970    1.9330 O   0  0  0  0  0  0  0  0  0  0  0  0
    3.4730    0.4070   -0.3550 C   0  0  0  0  0  0  0  0  0  0  0  0
    4.8960   -0.0750   -0.2520 C   0  0  0  0  0  0  0  0  0  0  0  0
    5.9140    0.7060   -0.5040 C   0  0  0  0  0  0  0  0  0  0  0  0
    7.3080    0.2280   -0.4020 C   0  0  0  0  0  0  0  0  0  0  0  0
    7.3740   -1.1110    0.0100 O   0  0  0  0  0  0  0  0  0  0  0  0
    6.3080   -1.9350    0.2750 C   0  0  0  0  0  0  0  0  0  0  0  0
    5.0780   -1.4650    0.1590 C   0  0  0  0  0  0  0  0  0  0  0  0
   -0.3100    0.7300   -0.5100 C   0  0  0  0  0  0  0  0  0  0  0  0
    0.0990    1.4800   -1.5520 C   0  0  0  0  0  0  0  0  0  0  0  0
    1.2860    2.3820   -1.6720 C   0  0  0  0  0  0  0  0  0  0  0  0
   -0.8220    1.3800   -2.5730 N   0  0  0  0  0  0  0  0  0  0  0  0
   -1.7780    0.5940   -2.1810 N   0  0  0  0  0  0  0  0  0  0  0  0
   -1.5500    0.1590   -0.9500 C   0  0  0  0  0  0  0  0  0  0  0  0
   -2.3150   -0.7150   -0.1480 N   0  0  0  0  0  0  0  0  0  0  0  0
   -3.5230   -0.5190    0.2410 C   0  0  0  0  0  0  0  0  0  0  0  0
   -4.3420    0.6750   -0.0850 C   0  0  0  0  0  0  0  0  0  0  0  0
   -5.8050    0.2080   -0.0890 C   0  0  0  0  0  0  0  0  0  0  0  0
   -5.8910   -1.1600   -0.7020 C   0  0  0  0  0  0  0  0  0  0  0  0
   -5.2660   -2.1740    0.2400 C   0  0  0  0  0  0  0  0  0  0  0  0
   -4.1660   -1.5600    1.0810 C   0  0  0  0  0  0  0  0  0  0  0  0
  1  2  1  0
  2  3  2  3
  2 13  1  0
  3  4  1  0
  4  5  2  0
  4  6  1  0
  6  7  1  0
  7  8  2  0
  7 12  1  0
  8  9  1  0
  9 10  1  0
 10 11  1  0
 11 12  2  0
 13 14  1  0
 13 18  2  0
 14 15  1  0
 14 16  2  0
 16 17  1  0
 17 18  1  0
 18 19  1  0
 19 20  2  3
 20 21  1  0
 20 25  1  0
 21 22  1  0
 22 23  1  0
 23 24  1  0
 24 25  1  0
M  END
