
     RDKit          3D

 25 27  0  0  0  0  0  0  0  0999 V2000
    6.5890   -1.0480    0.5800 C   0  0  0  0  0  0  0  0  0  0  0  0
    5.6430   -1.9370    1.2660 C   0  0  0  0  0  0  0  0  0  0  0  0
    4.4520   -1.5680    1.6600 C   0  0  0  0  0  0  0  0  0  0  0  0
    3.9870   -0.1850    1.4220 C   0  0  0  0  0  0  0  0  0  0  0  0
    4.7550    0.5890    0.8480 O   0  0  0  0  0  0  0  0  0  0  0  0
    2.6430    0.1230    1.9010 C   0  0  0  0  0  0  0  0  0  0  0  0
    2.0840    1.4680    1.6880 C   0  0  0  0  0  0  0  0  0  0  0  0
    1.9310    1.9360    0.3520 N   0  0  0  0  0  0  0  0  0  0  0  0
    2.7420    2.7150   -0.3650 C   0  0  0  0  0  0  0  0  0  0  0  0
    3.8520    3.2630   -0.0110 O   0  0  0  0  0  0  0  0  0  0  0  0
    2.1750    2.8420   -1.5850 N   0  0  0  0  0  0  0  0  0  0  0  0
    1.0250    2.1600   -1.6440 C   0  0  0  0  0  0  0  0  0  0  0  0
    0.0620    1.9530   -2.6260 C   0  0  0  0  0  0  0  0  0  0  0  0
   -1.0650    1.1740   -2.4020 C   0  0  0  0  0  0  0  0  0  0  0  0
   -1.2220    0.5960   -1.1690 C   0  0  0  0  0  0  0  0  0  0  0  0
   -2.3500   -0.2140   -0.9020 N   0  0  0  0  0  0  0  0  0  0  0  0
   -3.2440   -0.6960   -1.9140 C   0  0  0  0  0  0  0  0  0  0  0  0
   -4.6030   -0.0240   -1.8290 C   0  0  0  0  0  0  0  0  0  0  0  0
   -4.9960    0.1700   -0.3640 C   0  0  0  0  0  0  0  0  0  0  0  0
   -4.1820   -0.7320    0.4860 C   0  0  0  0  0  0  0  0  0  0  0  0
   -4.7620   -1.6430    1.2520 C   0  0  0  0  0  0  0  0  0  0  0  0
   -3.9410   -2.5500    2.1080 C   0  0  0  0  0  0  0  0  0  0  0  0
   -2.6890   -0.6090    0.4770 C   0  0  0  0  0  0  0  0  0  0  0  0
   -0.2520    0.8040   -0.1770 C   0  0  0  0  0  0  0  0  0  0  0  0
    0.8670    1.5810   -0.4100 C   0  0  0  0  0  0  0  0  0  0  0  0
  1  2  1  0
  2  3  2  3
  3  4  1  0
  4  5  2  0
  4  6  1  0
  6  7  1  0
  7  8  1  0
  8  9  1  0
  8 25  1  0
  9 10  2  0
  9 11  1  0
 11 12  1  0
 12 13  2  0
 12 25  1  0
 13 14  1  0
 14 15  2  0
 15 16  1  0
 15 24  1  0
 16 17  1  0
 16 23  1  0
 17 18  1  0
 18 19  1  0
 19 20  1  0
 20 21  2  3
 20 23  1  0
 21 22  1  0
 24 25  2  0
M  END
