
     RDKit          3D

 25 27  0  0  0  0  0  0  0  0999 V2000
    5.3710    0.5530    2.9350 C   0  0  0  0  0  0  0  0  0  0  0  0
    4.5140   -0.0670    2.1420 C   0  0  0  0  0  0  0  0  0  0  0  0
    3.3660   -0.7600    2.6750 N   0  0  0  0  0  0  0  0  0  0  0  0
    2.3340   -0.9880    1.9430 C   0  0  0  0  0  0  0  0  0  0  0  0
    2.3270   -0.5580    0.5300 C   0  0  0  0  0  0  0  0  0  0  0  0
    1.1360   -0.7950   -0.2650 N   0  0  0  0  0  0  0  0  0  0  0  0
    1.2110   -1.4580   -1.5210 C   0  0  0  0  0  0  0  0  0  0  0  0
   -0.0870   -0.3710    0.3180 C   0  0  0  0  0  0  0  0  0  0  0  0
   -1.2650   -0.3690   -0.5390 C   0  0  0  0  0  0  0  0  0  0  0  0
   -1.1900   -0.6960   -1.7150 O   0  0  0  0  0  0  0  0  0  0  0  0
   -2.5310    0.0230    0.0040 N   0  0  0  0  0  0  0  0  0  0  0  0
   -3.7400    0.1060   -0.7020 C   0  0  0  0  0  0  0  0  0  0  0  0
   -3.8480    0.0670   -2.0760 C   0  0  0  0  0  0  0  0  0  0  0  0
   -5.0950    0.2200   -2.7210 C   0  0  0  0  0  0  0  0  0  0  0  0
   -6.2410    0.4110   -2.0050 C   0  0  0  0  0  0  0  0  0  0  0  0
   -6.1270    0.4490   -0.6160 C   0  0  0  0  0  0  0  0  0  0  0  0
   -4.9080    0.3000    0.0140 C   0  0  0  0  0  0  0  0  0  0  0  0
   -4.8120    0.3380    1.3980 O   0  0  0  0  0  0  0  0  0  0  0  0
   -6.0130    0.5380    2.1150 C   0  0  0  0  0  0  0  0  0  0  0  0
    3.3690    0.0200   -0.0090 C   0  0  0  0  0  0  0  0  0  0  0  0
    3.4210    0.5060   -1.3640 C   0  0  0  0  0  0  0  0  0  0  0  0
    4.5570    0.9600   -1.8990 C   0  0  0  0  0  0  0  0  0  0  0  0
    5.8010    0.9810   -1.1780 C   0  0  0  0  0  0  0  0  0  0  0  0
    5.8200    0.4960    0.0620 C   0  0  0  0  0  0  0  0  0  0  0  0
    4.6630   -0.0730    0.7180 C   0  0  1  0  0  0  0  0  0  0  0  0
  1  2  2  0
  2  3  1  0
  2 25  1  0
  3  4  2  0
  4  5  1  0
  5  6  1  0
  5 20  2  0
  6  7  1  0
  6  8  1  0
  8  9  1  0
  9 10  2  0
  9 11  1  0
 11 12  1  0
 12 13  2  0
 12 17  1  0
 13 14  1  0
 14 15  2  0
 15 16  1  0
 16 17  2  0
 17 18  1  0
 18 19  1  0
 20 21  1  0
 20 25  1  0
 21 22  2  0
 22 23  1  0
 23 24  2  0
 25 24  1  1
M  END
