
     RDKit          3D

 25 27  0  0  0  0  0  0  0  0999 V2000
   -6.3010    1.1150    1.5390 C   0  0  0  0  0  0  0  0  0  0  0  0
   -4.8130    1.0130    1.3240 C   0  0  0  0  0  0  0  0  0  0  0  0
   -4.4110    0.2930    0.3200 C   0  0  0  0  0  0  0  0  0  0  0  0
   -5.4070   -0.3890   -0.5450 C   0  0  0  0  0  0  0  0  0  0  0  0
   -5.2240   -1.5750   -1.1210 C   0  0  0  0  0  0  0  0  0  0  0  0
   -4.0380   -2.4410   -1.0330 C   0  0  0  0  0  0  0  0  0  0  0  0
   -2.7770   -2.1960   -0.6910 C   0  0  0  0  0  0  0  0  0  0  0  0
   -2.2420   -0.8790   -0.2910 C   0  0  0  0  0  0  0  0  0  0  0  0
   -0.8760   -0.8410   -0.4210 C   0  0  0  0  0  0  0  0  0  0  0  0
   -0.2390    0.3610   -0.1180 C   0  0  0  0  0  0  0  0  0  0  0  0
    1.1710    0.5060   -0.2210 N   0  0  0  0  0  0  0  0  0  0  0  0
    1.8000    0.9510   -1.3180 N   0  0  0  0  0  0  0  0  0  0  0  0
    3.1280    0.9770   -1.1100 C   0  0  0  0  0  0  0  0  0  0  0  0
    4.1450    1.4130   -2.0990 C   0  0  0  0  0  0  0  0  0  0  0  0
    3.3700    0.5300    0.1720 C   0  0  0  0  0  0  0  0  0  0  0  0
    4.6540    0.3690    0.8790 C   0  0  0  0  0  0  0  0  0  0  0  0
    5.4140   -0.8080    0.4700 C   0  0  0  0  0  0  0  0  0  0  0  0
    6.7290   -1.1320    1.0700 C   0  0  0  0  0  0  0  0  0  0  0  0
    4.9820   -1.5560   -0.3780 O   0  0  0  0  0  0  0  0  0  0  0  0
    2.1210    0.2490    0.6860 C   0  0  0  0  0  0  0  0  0  0  0  0
    1.8540   -0.2620    2.0400 C   0  0  0  0  0  0  0  0  0  0  0  0
   -0.9490    1.4290    0.2830 N   0  0  0  0  0  0  0  0  0  0  0  0
   -2.3080    1.3920    0.4130 C   0  0  0  0  0  0  0  0  0  0  0  0
   -2.9800    2.3770    0.7770 O   0  0  0  0  0  0  0  0  0  0  0  0
   -2.9650    0.2270    0.1260 C   0  0  0  0  0  0  0  0  0  0  0  0
  1  2  1  0
  2  3  2  3
  3  4  1  0
  3 25  1  0
  4  5  2  0
  5  6  1  0
  6  7  2  0
  7  8  1  0
  8  9  1  0
  8 25  2  0
  9 10  2  0
 10 11  1  0
 10 22  1  0
 11 12  1  0
 11 20  1  0
 12 13  2  0
 13 14  1  0
 13 15  1  0
 15 16  1  0
 15 20  2  0
 16 17  1  0
 17 18  1  0
 17 19  2  0
 20 21  1  0
 22 23  1  0
 23 24  2  0
 23 25  1  0
M  END
