
     RDKit          3D

 25 27  0  0  0  0  0  0  0  0999 V2000
   -6.0540    1.2310    2.1360 C   0  0  0  0  0  0  0  0  0  0  0  0
   -4.8330    0.7160    2.1850 C   0  0  0  0  0  0  0  0  0  0  0  0
   -4.6000   -0.7420    2.0310 C   0  0  0  0  0  0  0  0  0  0  0  0
   -3.7610   -1.0580    0.9060 N   0  0  0  0  0  0  0  0  0  0  0  0
   -4.4610   -0.7460   -0.2960 C   0  0  0  0  0  0  0  0  0  0  0  0
   -4.2700   -1.7720   -1.3760 C   0  0  0  0  0  0  0  0  0  0  0  0
   -2.9900   -1.6260   -1.9140 O   0  0  0  0  0  0  0  0  0  0  0  0
   -1.8340   -1.1030   -1.3600 C   0  0  0  0  0  0  0  0  0  0  0  0
   -0.8090   -1.1130   -2.2690 N   0  0  0  0  0  0  0  0  0  0  0  0
    0.3850   -0.6590   -1.9530 C   0  0  0  0  0  0  0  0  0  0  0  0
    1.4800   -0.6890   -2.9860 C   0  0  0  0  0  0  0  0  0  0  0  0
    0.6730   -0.1540   -0.7050 C   0  0  0  0  0  0  0  0  0  0  0  0
    1.9880    0.3170   -0.4360 N   0  0  0  0  0  0  0  0  0  0  0  0
    3.0290   -0.4250   -0.5580 C   0  0  0  0  0  0  0  0  0  0  0  0
    4.3560    0.0970   -0.2720 C   0  0  0  0  0  0  0  0  0  0  0  0
    5.4660   -0.7240   -0.4110 C   0  0  0  0  0  0  0  0  0  0  0  0
    6.7530   -0.2840   -0.1540 C   0  0  0  0  0  0  0  0  0  0  0  0
    6.9760    1.0180    0.2590 C   0  0  0  0  0  0  0  0  0  0  0  0
    5.8710    1.8330    0.3970 C   0  0  0  0  0  0  0  0  0  0  0  0
    4.5740    1.3930    0.1380 C   0  0  0  0  0  0  0  0  0  0  0  0
    3.4480    2.3220    0.3080 C   0  0  0  0  0  0  0  0  0  0  0  0
   -0.3270   -0.1210    0.2520 C   0  0  0  0  0  0  0  0  0  0  0  0
   -0.0630    0.3740    1.4880 O   0  0  0  0  0  0  0  0  0  0  0  0
   -1.5710   -0.6020   -0.1030 C   0  0  0  0  0  0  0  0  0  0  0  0
   -2.4780   -0.4720    1.0660 C   0  0  0  0  0  0  0  0  0  0  0  0
  1  2  2  0
  2  3  1  0
  3  4  1  0
  4  5  1  0
  4 25  1  0
  5  6  1  0
  6  7  1  0
  7  8  1  0
  8  9  2  0
  8 24  1  0
  9 10  1  0
 10 11  1  0
 10 12  2  0
 12 13  1  0
 12 22  1  0
 13 14  2  3
 14 15  1  0
 15 16  2  0
 15 20  1  0
 16 17  1  0
 17 18  2  0
 18 19  1  0
 19 20  2  0
 20 21  1  0
 22 23  1  0
 22 24  2  0
 24 25  1  0
M  END
