
     RDKit          3D

 23 26  0  0  0  0  0  0  0  0999 V2000
   -6.5880    2.3970   -0.7220 C   0  0  0  0  0  0  0  0  0  0  0  0
   -5.4210    1.8220   -0.5100 C   0  0  0  0  0  0  0  0  0  0  0  0
   -4.7300    1.0500   -1.5360 C   0  0  0  0  0  0  0  0  0  0  0  0
   -3.5680    0.5000   -1.2660 C   0  0  0  0  0  0  0  0  0  0  0  0
   -2.8430   -0.2590   -2.2030 O   0  0  0  0  0  0  0  0  0  0  0  0
   -2.2900   -1.5060   -1.7820 C   0  0  0  0  0  0  0  0  0  0  0  0
   -1.8820   -1.4850   -0.3360 C   0  0  0  0  0  0  0  0  0  0  0  0
   -1.6210   -0.0520    0.1310 C   0  0  2  0  0  0  0  0  0  0  0  0
   -0.7680    0.0840    1.3000 C   0  0  0  0  0  0  0  0  0  0  0  0
    0.5860   -0.5310    1.0080 C   0  0  0  0  0  0  0  0  0  0  0  0
    1.6490    0.0860    0.4700 N   0  0  0  0  0  0  0  0  0  0  0  0
    2.6920   -0.7590    0.3560 C   0  0  0  0  0  0  0  0  0  0  0  0
    3.9820   -0.5210   -0.1510 N   0  0  0  0  0  0  0  0  0  0  0  0
    4.4810    0.7210   -0.6770 C   0  0  0  0  0  0  0  0  0  0  0  0
    5.8460    0.8050    0.0190 C   0  0  0  0  0  0  0  0  0  0  0  0
    6.3210   -0.6210   -0.1060 C   0  0  0  0  0  0  0  0  0  0  0  0
    5.0540   -1.4730   -0.2440 C   0  0  0  0  0  0  0  0  0  0  0  0
    2.2320   -1.9420    0.8520 N   0  0  0  0  0  0  0  0  0  0  0  0
    0.9840   -1.7950    1.2350 N   0  0  0  0  0  0  0  0  0  0  0  0
   -2.9100    0.6310    0.0680 C   0  0  0  0  0  0  0  0  0  0  0  0
   -3.4990    1.3120    1.0110 C   0  0  0  0  0  0  0  0  0  0  0  0
   -2.7200    1.4580    2.5700 Cl  0  0  0  0  0  0  0  0  0  0  0  0
   -4.7580    1.9170    0.7400 N   0  0  0  0  0  0  0  0  0  0  0  0
  1  2  2  0
  2  3  1  0
  2 23  1  0
  3  4  2  0
  4  5  1  0
  4 20  1  0
  5  6  1  0
  6  7  1  0
  7  8  1  0
  8  9  1  1
  8 20  1  0
  9 10  1  0
 10 11  2  0
 10 19  1  0
 11 12  1  0
 12 13  1  0
 12 18  2  0
 13 14  1  0
 13 17  1  0
 14 15  1  0
 15 16  1  0
 16 17  1  0
 18 19  1  0
 20 21  2  0
 21 22  1  0
 21 23  1  0
M  END
