
     RDKit          3D

 23 25  0  0  0  0  0  0  0  0999 V2000
    1.2260   -1.2460    1.1410 C   0  0  0  0  0  0  0  0  0  0  0  0
    1.8840   -0.6240    0.1410 C   0  0  0  0  0  0  0  0  0  0  0  0
    2.4380   -1.4950   -0.8790 C   0  0  0  0  0  0  0  0  0  0  0  0
    2.2090   -1.8630   -2.0960 C   0  0  0  0  0  0  0  0  0  0  0  0
    1.2100   -1.5720   -3.1210 C   0  0  0  0  0  0  0  0  0  0  0  0
    1.8270   -1.3320   -4.7990 Cl  0  0  0  0  0  0  0  0  0  0  0  0
   -0.1030   -1.4460   -2.9830 C   0  0  0  0  0  0  0  0  0  0  0  0
   -0.9600   -1.5360   -1.8860 N   0  0  0  0  0  0  0  0  0  0  0  0
   -1.3480   -0.7170   -0.9660 C   0  0  0  0  0  0  0  0  0  0  0  0
   -0.9640    0.6390   -0.8140 N   0  0  0  0  0  0  0  0  0  0  0  0
   -0.0830    1.2590   -1.7400 C   0  0  0  0  0  0  0  0  0  0  0  0
    0.7240    2.4300   -1.3530 C   0  0  0  0  0  0  0  0  0  0  0  0
    1.8430    1.9060   -0.5460 N   0  0  0  0  0  0  0  0  0  0  0  0
    1.9490    0.8440    0.3330 C   0  0  0  0  0  0  0  0  0  0  0  0
    2.1770    1.2220    1.6370 C   0  0  0  0  0  0  0  0  0  0  0  0
    2.2840    2.6090    2.0720 C   0  0  0  0  0  0  0  0  0  0  0  0
   -1.5690    1.2450    0.3260 C   0  0  0  0  0  0  0  0  0  0  0  0
   -1.3020    2.3430    0.8740 O   0  0  0  0  0  0  0  0  0  0  0  0
   -2.6140    0.3100    0.7660 C   0  0  2  0  0  0  0  0  0  0  0  0
   -2.4700   -0.0030    2.2630 C   0  0  0  0  0  0  0  0  0  0  0  0
   -2.6360   -1.5050    2.3560 C   0  0  0  0  0  0  0  0  0  0  0  0
   -2.9450   -1.9680    0.9480 C   0  0  0  0  0  0  0  0  0  0  0  0
   -2.2490   -0.9330    0.1680 N   0  0  0  0  0  0  0  0  0  0  0  0
  1  2  2  0
  2  3  1  0
  2 14  1  0
  3  4  2  0
  4  5  1  0
  5  6  1  0
  5  7  2  0
  7  8  1  0
  8  9  2  0
  9 10  1  0
  9 23  1  0
 10 11  1  0
 10 17  1  0
 11 12  1  0
 12 13  1  0
 13 14  1  0
 14 15  2  3
 15 16  1  0
 17 18  2  0
 17 19  1  0
 19 20  1  1
 19 23  1  0
 20 21  1  0
 21 22  1  0
 22 23  1  0
M  CHG  1   8   1
M  END
