
     RDKit          3D

 23 25  0  0  0  0  0  0  0  0999 V2000
    2.4200    1.0230    2.2820 N   0  0  0  0  0  0  0  0  0  0  0  0
    2.4900   -0.3410    2.6100 C   0  0  0  0  0  0  0  0  0  0  0  0
    3.0230   -0.7640    3.7890 N   0  0  0  0  0  0  0  0  0  0  0  0
    2.9620   -2.1010    3.8390 C   0  0  0  0  0  0  0  0  0  0  0  0
    2.3900   -2.4690    2.6820 N   0  0  0  0  0  0  0  0  0  0  0  0
    2.1020   -1.4230    1.9380 N   0  0  0  0  0  0  0  0  0  0  0  0
    1.4970   -1.4690    0.6700 C   0  0  0  0  0  0  0  0  0  0  0  0
    1.1930   -2.6180    0.1870 O   0  0  0  0  0  0  0  0  0  0  0  0
    1.1830   -0.3380   -0.1440 N   0  0  0  0  0  0  0  0  0  0  0  0
    0.5780   -0.5130   -1.3940 C   0  0  2  0  0  0  0  0  0  0  0  0
    1.3560    0.3020   -2.4770 C   0  0  0  0  0  0  0  0  0  0  0  0
    1.3150   -0.5540   -3.7180 C   0  0  0  0  0  0  0  0  0  0  0  0
    0.0540   -1.3580   -3.7670 C   0  0  0  0  0  0  0  0  0  0  0  0
   -1.0570   -0.7430   -3.0020 C   0  0  0  0  0  0  0  0  0  0  0  0
   -0.8110   -0.2690   -1.6990 C   0  0  0  0  0  0  0  0  0  0  0  0
   -1.9480    0.2730   -1.0970 C   0  0  0  0  0  0  0  0  0  0  0  0
   -2.1890    0.8360    0.1000 C   0  0  0  0  0  0  0  0  0  0  0  0
   -3.5800    1.3000    0.3630 C   0  0  0  0  0  0  0  0  0  0  0  0
   -3.9360    1.8080    1.5080 C   0  0  0  0  0  0  0  0  0  0  0  0
   -5.5820    2.3440    1.7970 Cl  0  0  0  0  0  0  0  0  0  0  0  0
   -2.9600    1.9630    2.5570 C   0  0  0  0  0  0  0  0  0  0  0  0
   -1.7190    1.6100    2.3920 C   0  0  0  0  0  0  0  0  0  0  0  0
   -1.1920    1.0290    1.1430 C   0  0  0  0  0  0  0  0  0  0  0  0
  1  2  1  0
  2  3  2  0
  2  6  1  0
  3  4  1  0
  4  5  2  0
  5  6  1  0
  6  7  1  0
  7  8  2  0
  7  9  1  0
 10  9  1  1
 10 11  1  0
 10 15  1  0
 11 12  1  0
 12 13  1  0
 13 14  1  0
 14 15  2  0
 15 16  1  0
 16 17  2  3
 17 18  1  0
 17 23  1  0
 18 19  2  0
 19 20  1  0
 19 21  1  0
 21 22  2  0
 22 23  1  0
M  END
