
     RDKit          3D

 25 26  0  0  0  0  0  0  0  0999 V2000
    7.8530    1.2230   -0.1630 C   0  0  0  0  0  0  0  0  0  0  0  0
    6.7530    0.3330    0.0960 O   0  0  0  0  0  0  0  0  0  0  0  0
    5.5600    0.4490   -0.5830 C   0  0  0  0  0  0  0  0  0  0  0  0
    5.4290    1.3420   -1.4400 O   0  0  0  0  0  0  0  0  0  0  0  0
    4.4490   -0.4340   -0.3340 N   0  0  0  0  0  0  0  0  0  0  0  0
    3.2290   -0.3190   -1.0240 C   0  0  0  0  0  0  0  0  0  0  0  0
    3.1410    0.6050   -1.8940 O   0  0  0  0  0  0  0  0  0  0  0  0
    2.0390   -1.1940   -0.8100 C   0  0  2  0  0  0  0  0  0  0  0  0
    0.8120   -0.3430   -0.6400 C   0  0  0  0  0  0  0  0  0  0  0  0
   -0.1960   -0.8170    0.2230 N   0  0  0  0  0  0  0  0  0  0  0  0
   -0.8840    0.2150    0.9080 C   0  0  0  0  0  0  0  0  0  0  0  0
   -1.8560    1.0640    0.2020 C   0  0  1  0  0  0  0  0  0  0  0  0
   -1.1190    1.5900   -0.9260 O   0  0  0  0  0  0  0  0  0  0  0  0
   -3.1020    0.4910   -0.2530 C   0  0  0  0  0  0  0  0  0  0  0  0
   -4.2200    0.6060    0.4210 C   0  0  0  0  0  0  0  0  0  0  0  0
   -4.3900    1.2960    1.6990 C   0  0  0  0  0  0  0  0  0  0  0  0
   -3.2730    1.8780    2.3430 N   0  0  0  0  0  0  0  0  0  0  0  0
   -5.3780    0.0410   -0.0890 O   0  0  0  0  0  0  0  0  0  0  0  0
   -5.5000   -0.8710   -1.0990 C   0  0  0  0  0  0  0  0  0  0  0  0
   -4.2410   -0.9880   -1.8540 C   0  0  0  0  0  0  0  0  0  0  0  0
   -3.1450   -0.3630   -1.4620 C   0  0  0  0  0  0  0  0  0  0  0  0
   -2.0210   -0.5420   -2.2450 O   0  0  0  0  0  0  0  0  0  0  0  0
    0.1800   -1.9040    1.0830 C   0  0  0  0  0  0  0  0  0  0  0  0
    1.6670   -1.9490    1.3400 C   0  0  0  0  0  0  0  0  0  0  0  0
    2.2710   -2.1420    0.1330 O   0  0  0  0  0  0  0  0  0  0  0  0
  1  2  1  0
  2  3  1  0
  3  4  2  0
  3  5  1  0
  5  6  1  0
  6  7  2  0
  8  6  1  1
  8  9  1  0
  8 25  1  0
  9 10  1  0
 10 11  1  0
 10 23  1  0
 11 12  1  0
 12 13  1  6
 12 14  1  0
 14 15  2  0
 14 21  1  0
 15 16  1  0
 15 18  1  0
 16 17  1  0
 18 19  1  0
 19 20  1  0
 20 21  2  0
 21 22  1  0
 23 24  1  0
 24 25  1  0
M  END
