
     RDKit          3D

 14 15  0  0  0  0  0  0  0  0999 V2000
   -0.5440    3.2100   -0.6460 O   0  0  0  0  0  0  0  0  0  0  0  0
   -1.2280    2.4450    0.0080 N   0  0  0  0  0  0  0  0  0  0  0  0
   -2.2700    2.9870    0.7480 O   0  0  0  0  0  0  0  0  0  0  0  0
   -1.0550    1.0590    0.0310 C   0  0  0  0  0  0  0  0  0  0  0  0
   -2.1770    0.2160    0.1360 C   0  0  0  0  0  0  0  0  0  0  0  0
   -2.0600   -1.1430    0.1670 C   0  0  0  0  0  0  0  0  0  0  0  0
   -0.8340   -1.7610    0.0980 C   0  0  0  0  0  0  0  0  0  0  0  0
   -0.7170   -3.1460    0.1310 O   0  0  0  0  0  0  0  0  0  0  0  0
    0.2730   -0.9240   -0.0050 C   0  0  0  0  0  0  0  0  0  0  0  0
    1.4640   -1.5840   -0.0620 N   0  0  0  0  0  0  0  0  0  0  0  0
    2.5920   -0.8660   -0.1530 C   0  0  0  0  0  0  0  0  0  0  0  0
    2.5520    0.5090   -0.1890 C   0  0  0  0  0  0  0  0  0  0  0  0
    1.3390    1.1910   -0.1310 C   0  0  0  0  0  0  0  0  0  0  0  0
    0.1840    0.4590   -0.0390 C   0  0  0  0  0  0  0  0  0  0  0  0
  1  2  2  0
  2  3  1  0
  2  4  1  0
  4  5  2  0
  4 14  1  0
  5  6  1  0
  6  7  2  0
  7  8  1  0
  7  9  1  0
  9 10  2  0
  9 14  1  0
 10 11  1  0
 11 12  2  0
 12 13  1  0
 13 14  2  0
M  CHG  2   2   1   3  -1
M  END
