
     RDKit          3D

 23 26  0  0  0  0  0  0  0  0999 V2000
    0.2590   -1.7770   -0.2980 O   0  0  0  0  0  0  0  0  0  0  0  0
   -0.3300   -0.7120   -0.1240 C   0  0  0  0  0  0  0  0  0  0  0  0
   -1.7390   -0.6870   -0.0280 N   0  0  0  0  0  0  0  0  0  0  0  0
   -2.6060   -1.8010   -0.1160 C   0  0  0  0  0  0  0  0  0  0  0  0
   -2.2610   -3.0880   -0.3510 C   0  0  0  0  0  0  0  0  0  0  0  0
   -3.2800   -4.0490   -0.3950 C   0  0  0  0  0  0  0  0  0  0  0  0
   -4.6020   -3.7170   -0.2070 C   0  0  0  0  0  0  0  0  0  0  0  0
   -5.7530   -4.4270   -0.1990 N   0  0  0  0  0  0  0  0  0  0  0  0
   -6.7930   -3.6220    0.0330 C   0  0  0  0  0  0  0  0  0  0  0  0
   -6.2640   -2.3590    0.1740 C   0  0  0  0  0  0  0  0  0  0  0  0
   -7.1540   -0.8810    0.4950 Cl  0  0  0  0  0  0  0  0  0  0  0  0
   -4.9230   -2.4450    0.0230 N   0  0  0  0  0  0  0  0  0  0  0  0
   -3.9600   -1.5240    0.0660 C   0  0  0  0  0  0  0  0  0  0  0  0
    0.4670    0.4710   -0.0240 N   0  0  0  0  0  0  0  0  0  0  0  0
    1.9180    0.3820   -0.1300 C   0  0  2  0  0  0  0  0  0  0  0  0
    2.4810    0.7920    1.1890 C   0  0  0  0  0  0  0  0  0  0  0  0
    2.5820    2.2850    1.3610 C   0  0  0  0  0  0  0  0  0  0  0  0
    3.5610    2.7580    0.3350 C   0  0  0  0  0  0  0  0  0  0  0  0
    4.5430    3.6370    0.3810 C   0  0  0  0  0  0  0  0  0  0  0  0
    5.1580    3.6690   -0.9640 C   0  0  0  0  0  0  0  0  0  0  0  0
    4.3870    2.6980   -1.7420 C   0  0  0  0  0  0  0  0  0  0  0  0
    3.4540    2.1640   -0.9860 C   0  0  0  0  0  0  0  0  0  0  0  0
    2.4250    1.1430   -1.3020 C   0  0  0  0  0  0  0  0  0  0  0  0
  1  2  2  0
  2  3  1  0
  2 14  1  0
  3  4  1  0
  4  5  1  0
  4 13  2  0
  5  6  2  0
  6  7  1  0
  7  8  2  0
  7 12  1  0
  8  9  1  0
  9 10  2  0
 10 11  1  0
 10 12  1  0
 12 13  1  0
 15 14  1  1
 15 16  1  0
 15 23  1  0
 16 17  1  0
 17 18  1  0
 18 19  2  0
 18 22  1  0
 19 20  1  0
 20 21  1  0
 21 22  2  0
 22 23  1  0
M  END
