
     RDKit          3D

 37 41  0  0  0  0  0  0  0  0999 V2000
   -6.1760   -0.5400    0.9490 C   0  0  0  0  0  0  0  0  0  0  0  0
   -6.8860    0.1410   -0.2040 C   0  0  1  0  0  0  0  0  0  0  0  0
   -6.9020   -0.7370   -1.4440 C   0  0  0  0  0  0  0  0  0  0  0  0
   -8.3370    0.2960    0.2110 C   0  0  0  0  0  0  0  0  0  0  0  0
   -6.2900    1.4770   -0.4900 C   0  0  0  0  0  0  0  0  0  0  0  0
   -6.9570    2.5750   -0.4330 N   0  0  0  0  0  0  0  0  0  0  0  0
   -6.1270    3.7090   -0.7580 C   0  0  0  0  0  0  0  0  0  0  0  0
   -4.8040    3.1100   -1.0320 C   0  0  0  0  0  0  0  0  0  0  0  0
   -4.9260    1.8040   -0.8680 C   0  0  0  0  0  0  0  0  0  0  0  0
   -3.8910    0.8910   -1.0370 O   0  0  0  0  0  0  0  0  0  0  0  0
   -3.0040    0.5730   -0.0360 C   0  0  0  0  0  0  0  0  0  0  0  0
   -3.1580    1.1890    1.1920 C   0  0  0  0  0  0  0  0  0  0  0  0
   -2.2980    0.9170    2.2480 C   0  0  0  0  0  0  0  0  0  0  0  0
   -1.2730   -0.0050    2.0130 C   0  0  0  0  0  0  0  0  0  0  0  0
   -1.0880   -0.6380    0.8070 C   0  0  0  0  0  0  0  0  0  0  0  0
   -0.0030   -1.5830    0.6270 N   0  0  0  0  0  0  0  0  0  0  0  0
    0.8430   -1.9370    1.7410 C   0  0  0  0  0  0  0  0  0  0  0  0
    2.1350   -2.5780    1.3140 C   0  0  0  0  0  0  0  0  0  0  0  0
    2.4400   -2.2590   -0.0700 N   0  0  0  0  0  0  0  0  0  0  0  0
    3.5770   -1.5320   -0.4770 C   0  0  0  0  0  0  0  0  0  0  0  0
    4.0610   -1.5360   -1.7660 C   0  0  0  0  0  0  0  0  0  0  0  0
    5.1830   -0.7840   -2.1250 C   0  0  0  0  0  0  0  0  0  0  0  0
    5.8450   -0.0100   -1.1950 C   0  0  0  0  0  0  0  0  0  0  0  0
    6.9780    0.7470   -1.5650 N   0  0  0  0  0  0  0  0  0  0  0  0
    7.4240    0.8760   -2.8320 N   0  0  0  0  0  0  0  0  0  0  0  0
    8.5020    1.6410   -2.8900 C   0  0  0  0  0  0  0  0  0  0  0  0
    8.7720    2.0230   -1.6460 N   0  0  0  0  0  0  0  0  0  0  0  0
    7.8370    1.4720   -0.8510 C   0  0  0  0  0  0  0  0  0  0  0  0
    7.8300    1.6750    0.5380 N   0  0  0  0  0  0  0  0  0  0  0  0
    8.5510    0.8410    1.3830 N   0  0  0  0  0  0  0  0  0  0  0  0
    9.3710   -0.2070    0.9040 C   0  0  0  0  0  0  0  0  0  0  0  0
    9.4630   -0.4070   -0.3410 O   0  0  0  0  0  0  0  0  0  0  0  0
    5.3570   -0.0150    0.0760 C   0  0  0  0  0  0  0  0  0  0  0  0
    4.2450   -0.7520    0.4600 C   0  0  0  0  0  0  0  0  0  0  0  0
    1.4590   -2.7290   -1.0270 C   0  0  0  0  0  0  0  0  0  0  0  0
    0.1420   -2.1090   -0.7030 C   0  0  0  0  0  0  0  0  0  0  0  0
   -1.9730   -0.3250   -0.1990 C   0  0  0  0  0  0  0  0  0  0  0  0
  2  1  1  1
  2  3  1  0
  2  4  1  0
  2  5  1  0
  5  6  2  0
  5  9  1  0
  6  7  1  0
  7  8  1  0
  8  9  2  0
  9 10  1  0
 10 11  1  0
 11 12  2  0
 11 37  1  0
 12 13  1  0
 13 14  2  0
 14 15  1  0
 15 16  1  0
 15 37  2  0
 16 17  1  0
 16 36  1  0
 17 18  1  0
 18 19  1  0
 19 20  1  0
 19 35  1  0
 20 21  2  0
 20 34  1  0
 21 22  1  0
 22 23  2  0
 23 24  1  0
 23 33  1  0
 24 25  1  0
 24 28  1  0
 25 26  2  0
 26 27  1  0
 27 28  2  0
 28 29  1  0
 29 30  1  0
 30 31  1  0
 31 32  2  0
 33 34  2  0
 35 36  1  0
M  CHG  1   6   1
M  END
