
     RDKit          3D

 37 41  0  0  0  0  0  0  0  0999 V2000
    7.9590    1.8970   -0.3670 C   0  0  0  0  0  0  0  0  0  0  0  0
    9.2160    1.1790   -0.1310 C   0  0  0  0  0  0  0  0  0  0  0  0
    9.3280   -0.0630    0.2660 C   0  0  0  0  0  0  0  0  0  0  0  0
   10.5890   -0.7550    0.4990 N   0  0  0  0  0  0  0  0  0  0  0  0
   10.3550   -1.9400    0.8900 C   0  0  0  0  0  0  0  0  0  0  0  0
    8.9220   -2.1710    0.9610 C   0  0  0  0  0  0  0  0  0  0  0  0
    8.3130   -1.0190    0.5750 C   0  0  0  0  0  0  0  0  0  0  0  0
    6.8900   -0.9800    0.5410 N   0  0  0  0  0  0  0  0  0  0  0  0
    6.0870   -0.8460   -0.6000 C   0  0  0  0  0  0  0  0  0  0  0  0
    6.7190   -0.7420   -1.7290 O   0  0  0  0  0  0  0  0  0  0  0  0
    4.6650   -0.8180   -0.6210 N   0  0  0  0  0  0  0  0  0  0  0  0
    3.9440   -0.6230   -1.8630 C   0  0  0  0  0  0  0  0  0  0  0  0
    2.6800   -1.4150   -1.9830 C   0  0  0  0  0  0  0  0  0  0  0  0
    1.8610   -1.3670   -0.7820 N   0  0  2  0  0  0  0  0  0  0  0  0
    1.4860   -0.0560   -0.4080 C   0  0  0  0  0  0  0  0  0  0  0  0
    0.0640    0.3230   -0.7260 C   0  0  0  0  0  0  0  0  0  0  0  0
   -0.7350   -0.4390   -1.2880 O   0  0  0  0  0  0  0  0  0  0  0  0
   -0.3360    1.6070   -0.3520 N   0  0  0  0  0  0  0  0  0  0  0  0
   -1.5900    2.2510   -0.4990 C   0  0  0  0  0  0  0  0  0  0  0  0
   -2.7530    1.5770    0.0960 C   0  0  0  0  0  0  0  0  0  0  0  0
   -3.8980    1.3850   -0.6270 C   0  0  0  0  0  0  0  0  0  0  0  0
   -5.0780    0.8410   -0.0780 C   0  0  0  0  0  0  0  0  0  0  0  0
   -6.2320    0.7000   -0.8870 N   0  0  0  0  0  0  0  0  0  0  0  0
   -6.2580    1.1040   -2.1670 N   0  0  0  0  0  0  0  0  0  0  0  0
   -7.4320    0.8900   -2.7080 N   0  0  0  0  0  0  0  0  0  0  0  0
   -8.2330    0.3330   -1.7930 C   0  0  0  0  0  0  0  0  0  0  0  0
   -7.4610    0.2130   -0.6340 C   0  0  0  0  0  0  0  0  0  0  0  0
   -7.9860   -0.3570    0.6030 C   0  0  0  0  0  0  0  0  0  0  0  0
   -9.3660   -0.9190    0.4300 C   0  0  0  0  0  0  0  0  0  0  0  0
  -10.2490   -0.1200   -0.4900 C   0  0  0  0  0  0  0  0  0  0  0  0
   -9.6470   -0.1080   -1.8930 C   0  0  0  0  0  0  0  0  0  0  0  0
   -4.9930    0.5130    1.2450 C   0  0  0  0  0  0  0  0  0  0  0  0
   -3.8150    0.7080    1.9920 C   0  0  0  0  0  0  0  0  0  0  0  0
   -2.6910    1.2370    1.4360 C   0  0  0  0  0  0  0  0  0  0  0  0
   -1.4320    1.4100    2.2230 C   0  0  0  0  0  0  0  0  0  0  0  0
    2.7130   -1.9220    0.2710 C   0  0  0  0  0  0  0  0  0  0  0  0
    3.9000   -1.0040    0.5790 C   0  0  0  0  0  0  0  0  0  0  0  0
  1  2  1  0
  2  3  2  3
  3  4  1  0
  3  7  1  0
  4  5  2  0
  5  6  1  0
  6  7  2  0
  7  8  1  0
  8  9  1  0
  9 10  2  0
  9 11  1  0
 11 12  1  0
 11 37  1  0
 12 13  1  0
 13 14  1  0
 14 15  1  1
 14 36  1  0
 15 16  1  0
 16 17  2  0
 16 18  1  0
 18 19  1  0
 19 20  1  0
 20 21  2  0
 20 34  1  0
 21 22  1  0
 22 23  1  0
 22 32  2  0
 23 24  1  0
 23 27  1  0
 24 25  2  0
 25 26  1  0
 26 27  2  0
 26 31  1  0
 27 28  1  0
 28 29  1  0
 29 30  1  0
 30 31  1  0
 32 33  1  0
 33 34  2  0
 34 35  1  0
 36 37  1  0
M  CHG  1  14   1
M  END
