
     RDKit          3D

 37 41  0  0  0  0  0  0  0  0999 V2000
    7.5850   -1.0180    1.0370 C   0  0  0  0  0  0  0  0  0  0  0  0
    7.8450   -0.7510   -0.4570 C   0  0  0  0  0  0  0  0  0  0  0  0
    7.1940   -1.8820   -1.2200 C   0  0  0  0  0  0  0  0  0  0  0  0
    5.7250   -1.9940   -1.0130 C   0  0  0  0  0  0  0  0  0  0  0  0
    4.9250   -0.8620   -1.4980 C   0  0  0  0  0  0  0  0  0  0  0  0
    5.4180    0.0650   -2.3780 C   0  0  0  0  0  0  0  0  0  0  0  0
    4.6360    1.1130   -2.7780 C   0  0  0  0  0  0  0  0  0  0  0  0
    3.3420    1.1990   -2.2680 C   0  0  0  0  0  0  0  0  0  0  0  0
    2.8510    0.2670   -1.3840 C   0  0  0  0  0  0  0  0  0  0  0  0
    1.5010    0.4440   -0.9020 N   0  0  0  0  0  0  0  0  0  0  0  0
    0.7360    1.5220   -1.4730 C   0  0  0  0  0  0  0  0  0  0  0  0
   -0.7170    1.3380   -1.0000 C   0  0  0  0  0  0  0  0  0  0  0  0
   -0.6320    1.2760    0.4270 N   0  0  0  0  0  0  0  0  0  0  0  0
   -1.0160    2.2830    1.2860 C   0  0  0  0  0  0  0  0  0  0  0  0
   -0.8490    2.0460    2.5660 O   0  0  0  0  0  0  0  0  0  0  0  0
   -1.5910    3.5870    0.9690 C   0  0  1  0  0  0  0  0  0  0  0  0
   -0.7920    4.4690    0.0550 C   0  0  0  0  0  0  0  0  0  0  0  0
   -1.4320    5.8740    0.2010 C   0  0  0  0  0  0  0  0  0  0  0  0
   -2.8000    5.8470   -0.2070 N   0  0  0  0  0  0  0  0  0  0  0  0
   -3.2810    4.5320   -0.5830 C   0  0  0  0  0  0  0  0  0  0  0  0
   -3.0040    3.4980    0.4560 C   0  0  0  0  0  0  0  0  0  0  0  0
   -0.0820    0.0190    0.9330 C   0  0  1  0  0  0  0  0  0  0  0  0
   -1.1860   -0.9510    0.9620 C   0  0  0  0  0  0  0  0  0  0  0  0
   -0.9050   -2.1510    0.6090 O   0  0  0  0  0  0  0  0  0  0  0  0
   -2.5230   -0.7140    1.3390 N   0  0  0  0  0  0  0  0  0  0  0  0
   -3.5450   -1.6890    1.2650 C   0  0  0  0  0  0  0  0  0  0  0  0
   -3.5030   -2.9260    0.8160 N   0  0  0  0  0  0  0  0  0  0  0  0
   -4.6990   -3.4970    0.9680 C   0  0  0  0  0  0  0  0  0  0  0  0
   -5.2030   -4.7330    0.6780 C   0  0  0  0  0  0  0  0  0  0  0  0
   -6.4910   -5.1400    0.9150 C   0  0  0  0  0  0  0  0  0  0  0  0
   -6.9310   -6.5090    0.5560 C   0  0  0  0  0  0  0  0  0  0  0  0
   -7.3390   -4.2130    1.4950 C   0  0  0  0  0  0  0  0  0  0  0  0
   -6.8150   -2.9530    1.7870 C   0  0  0  0  0  0  0  0  0  0  0  0
   -5.5370   -2.6030    1.5320 N   0  0  0  0  0  0  0  0  0  0  0  0
   -4.8360   -1.4880    1.7170 N   0  0  0  0  0  0  0  0  0  0  0  0
    1.0610   -0.4700    0.1260 C   0  0  0  0  0  0  0  0  0  0  0  0
    3.6420   -0.7410   -1.0160 N   0  0  0  0  0  0  0  0  0  0  0  0
  1  2  1  0
  2  3  1  0
  3  4  1  0
  4  5  1  0
  5  6  2  0
  5 37  1  0
  6  7  1  0
  7  8  2  0
  8  9  1  0
  9 10  1  0
  9 37  2  0
 10 11  1  0
 10 36  1  0
 11 12  1  0
 12 13  1  0
 13 14  1  0
 13 22  1  0
 14 15  2  0
 16 14  1  6
 16 17  1  0
 16 21  1  0
 17 18  1  0
 18 19  1  0
 19 20  1  0
 20 21  1  0
 22 23  1  6
 22 36  1  0
 23 24  2  0
 23 25  1  0
 25 26  1  0
 26 27  1  0
 26 35  2  0
 27 28  2  0
 28 29  1  0
 28 34  1  0
 29 30  2  0
 30 31  1  0
 30 32  1  0
 32 33  2  0
 33 34  1  0
 34 35  1  0
M  CHG  1  37   1
M  END
