
     RDKit          3D

 37 41  0  0  0  0  0  0  0  0999 V2000
   -3.1190    7.1870    0.5670 C   0  0  0  0  0  0  0  0  0  0  0  0
   -3.1810    6.5540   -0.8080 C   0  0  0  0  0  0  0  0  0  0  0  0
   -2.7660    5.1940   -0.6910 N   0  0  2  0  0  0  0  0  0  0  0  0
   -2.9730    4.4250   -1.9040 C   0  0  0  0  0  0  0  0  0  0  0  0
   -2.0630    3.2170   -1.8060 C   0  0  0  0  0  0  0  0  0  0  0  0
   -2.5160    2.3900   -0.6330 C   0  0  1  0  0  0  0  0  0  0  0  0
   -1.6160    1.2280   -0.4090 C   0  0  0  0  0  0  0  0  0  0  0  0
   -0.2720    1.3880   -0.1930 C   0  0  0  0  0  0  0  0  0  0  0  0
    0.5080    0.2950    0.0070 C   0  0  0  0  0  0  0  0  0  0  0  0
    1.9320    0.4860    0.2430 C   0  0  0  0  0  0  0  0  0  0  0  0
    2.3720    1.6370    0.5880 O   0  0  0  0  0  0  0  0  0  0  0  0
    2.8590   -0.5570    0.1040 N   0  0  0  0  0  0  0  0  0  0  0  0
    4.2610   -0.4970    0.3010 C   0  0  0  0  0  0  0  0  0  0  0  0
    4.9900    0.6540    0.4370 C   0  0  0  0  0  0  0  0  0  0  0  0
    6.3770    0.6100    0.6460 C   0  0  0  0  0  0  0  0  0  0  0  0
    7.0550   -0.5810    0.7220 C   0  0  0  0  0  0  0  0  0  0  0  0
    8.4640   -0.6420    0.9330 N   0  0  0  0  0  0  0  0  0  0  0  0
    9.3080   -1.6470    0.6750 C   0  0  0  0  0  0  0  0  0  0  0  0
   10.5760   -1.2700    1.0370 C   0  0  0  0  0  0  0  0  0  0  0  0
   10.4670    0.0100    1.5280 C   0  0  0  0  0  0  0  0  0  0  0  0
    9.1680    0.3400    1.4430 N   0  0  0  0  0  0  0  0  0  0  0  0
    6.3220   -1.6970    0.5860 N   0  0  0  0  0  0  0  0  0  0  0  0
    4.9990   -1.6840    0.3860 C   0  0  0  0  0  0  0  0  0  0  0  0
   -0.0330   -0.9710   -0.0040 C   0  0  0  0  0  0  0  0  0  0  0  0
   -1.3740   -1.1310   -0.2200 C   0  0  0  0  0  0  0  0  0  0  0  0
   -2.0500   -2.3680   -0.2570 N   0  0  0  0  0  0  0  0  0  0  0  0
   -1.5320   -3.6580   -0.0890 C   0  0  0  0  0  0  0  0  0  0  0  0
   -0.3090   -3.7930    0.1250 O   0  0  0  0  0  0  0  0  0  0  0  0
   -2.3870   -4.8800   -0.1570 C   0  0  2  0  0  0  0  0  0  0  0  0
   -3.0660   -5.0230   -1.4860 C   0  0  0  0  0  0  0  0  0  0  0  0
   -4.2760   -5.8900   -1.1130 C   0  0  0  0  0  0  0  0  0  0  0  0
   -4.6830   -5.4000    0.1680 N   0  0  0  0  0  0  0  0  0  0  0  0
   -5.1550   -6.4740    1.0180 C   0  0  0  0  0  0  0  0  0  0  0  0
   -3.5490   -4.7970    0.8040 C   0  0  0  0  0  0  0  0  0  0  0  0
   -2.1210   -0.0000   -0.4170 N   0  0  0  0  0  0  0  0  0  0  0  0
   -2.4800    3.2290    0.6230 C   0  0  0  0  0  0  0  0  0  0  0  0
   -3.3510    4.4710    0.3940 C   0  0  0  0  0  0  0  0  0  0  0  0
  1  2  1  0
  3  2  1  6
  3  4  1  0
  3 37  1  0
  4  5  1  0
  5  6  1  0
  6  7  1  1
  6 36  1  0
  7  8  2  0
  7 35  1  0
  8  9  1  0
  9 10  1  0
  9 24  2  0
 10 11  2  0
 10 12  1  0
 12 13  1  0
 13 14  2  0
 13 23  1  0
 14 15  1  0
 15 16  2  0
 16 17  1  0
 16 22  1  0
 17 18  1  0
 17 21  1  0
 18 19  2  0
 19 20  1  0
 20 21  2  0
 22 23  2  0
 24 25  1  0
 25 26  1  0
 25 35  2  0
 26 27  1  0
 27 28  2  0
 29 27  1  6
 29 30  1  0
 29 34  1  0
 30 31  1  0
 31 32  1  0
 32 33  1  0
 32 34  1  0
 36 37  1  0
M  CHG  1   3   1
M  END
