
     RDKit          3D

 37 41  0  0  0  0  0  0  0  0999 V2000
   -2.0980   -4.5930   -1.7770 C   0  0  0  0  0  0  0  0  0  0  0  0
   -1.0600   -3.5290   -1.6580 C   0  0  0  0  0  0  0  0  0  0  0  0
   -1.4360   -2.4490   -0.7310 N   0  0  0  0  0  0  0  0  0  0  0  0
   -2.5500   -1.6660   -1.0570 C   0  0  0  0  0  0  0  0  0  0  0  0
   -3.2070   -1.8420   -2.2760 C   0  0  0  0  0  0  0  0  0  0  0  0
   -4.2620   -1.1030   -2.6470 N   0  0  0  0  0  0  0  0  0  0  0  0
   -4.7470   -0.1410   -1.8530 C   0  0  0  0  0  0  0  0  0  0  0  0
   -4.1030    0.0370   -0.6500 C   0  0  0  0  0  0  0  0  0  0  0  0
   -3.0180   -0.6820   -0.2040 C   0  0  0  0  0  0  0  0  0  0  0  0
   -2.6570   -0.2380    1.0260 N   0  0  0  0  0  0  0  0  0  0  0  0
   -1.5780   -0.7400    1.8250 C   0  0  0  0  0  0  0  0  0  0  0  0
   -0.3740   -0.0280    1.6980 N   0  0  0  0  0  0  0  0  0  0  0  0
    0.2290    0.2330    0.4700 C   0  0  0  0  0  0  0  0  0  0  0  0
    1.4880   -0.4940    0.1120 C   0  0  0  0  0  0  0  0  0  0  0  0
    2.3280   -0.7740    1.2200 N   0  0  1  0  0  0  0  0  0  0  0  0
    3.7410   -0.7750    0.9410 C   0  0  1  0  0  0  0  0  0  0  0  0
    3.9780   -1.8260   -0.1420 C   0  0  0  0  0  0  0  0  0  0  0  0
    4.2600    0.5270    0.5220 C   0  0  0  0  0  0  0  0  0  0  0  0
    3.5090    1.5430    0.3390 O   0  0  0  0  0  0  0  0  0  0  0  0
    5.6410    0.7200    0.2980 N   0  0  0  0  0  0  0  0  0  0  0  0
    6.6730   -0.2720    0.4740 C   0  0  0  0  0  0  0  0  0  0  0  0
    7.9770    0.3030   -0.0820 C   0  0  0  0  0  0  0  0  0  0  0  0
    7.8260    0.8450   -1.4670 C   0  0  0  0  0  0  0  0  0  0  0  0
    6.7280    1.8740   -1.5190 C   0  0  0  0  0  0  0  0  0  0  0  0
    6.1230    2.0400   -0.1580 C   0  0  0  0  0  0  0  0  0  0  0  0
    1.9870    0.0820    2.3390 C   0  0  0  0  0  0  0  0  0  0  0  0
    0.5680   -0.2750    2.7710 C   0  0  0  0  0  0  0  0  0  0  0  0
   -3.5020    0.7530    1.3550 C   0  0  0  0  0  0  0  0  0  0  0  0
   -3.5490    1.4920    2.3770 N   0  0  0  0  0  0  0  0  0  0  0  0
   -2.7570    1.5340    3.4880 C   0  0  0  0  0  0  0  0  0  0  0  0
   -1.6720    2.2150    3.5450 O   0  0  0  0  0  0  0  0  0  0  0  0
   -4.4030    0.9270    0.3180 N   0  0  0  0  0  0  0  0  0  0  0  0
   -5.4520    1.8880    0.3160 C   0  0  1  0  0  0  0  0  0  0  0  0
   -5.3430    2.8930   -0.8070 C   0  0  0  0  0  0  0  0  0  0  0  0
   -6.6990    3.0330   -1.4110 C   0  0  0  0  0  0  0  0  0  0  0  0
   -7.6510    2.2230   -0.5950 C   0  0  0  0  0  0  0  0  0  0  0  0
   -6.8310    1.2790    0.2490 C   0  0  0  0  0  0  0  0  0  0  0  0
  1  2  1  0
  2  3  1  0
  3  4  1  0
  4  5  2  0
  4  9  1  0
  5  6  1  0
  6  7  2  0
  7  8  1  0
  8  9  2  0
  8 32  1  0
  9 10  1  0
 10 11  1  0
 10 28  1  0
 11 12  1  0
 12 13  1  0
 12 27  1  0
 13 14  1  0
 15 14  1  6
 15 16  1  0
 15 26  1  0
 16 17  1  6
 16 18  1  0
 18 19  2  0
 18 20  1  0
 20 21  1  0
 20 25  1  0
 21 22  1  0
 22 23  1  0
 23 24  1  0
 24 25  1  0
 26 27  1  0
 28 29  2  3
 28 32  1  0
 29 30  1  0
 30 31  2  0
 33 32  1  6
 33 34  1  0
 33 37  1  0
 34 35  1  0
 35 36  1  0
 36 37  1  0
M  CHG  1  15   1
M  END
