
     RDKit          3D

 36 40  0  0  0  0  0  0  0  0999 V2000
   -2.6230   -0.8320    1.8240 C   0  0  0  0  0  0  0  0  0  0  0  0
   -3.8890   -0.1170    2.0180 C   0  0  1  0  0  0  0  0  0  0  0  0
   -4.2740   -0.1350    3.4960 C   0  0  0  0  0  0  0  0  0  0  0  0
   -3.8630    1.3420    1.5240 C   0  0  2  0  0  0  0  0  0  0  0  0
   -5.2300    1.7950    1.8940 C   0  0  0  0  0  0  0  0  0  0  0  0
   -6.1390    2.0980    1.0280 C   0  0  0  0  0  0  0  0  0  0  0  0
   -5.9140    2.0340   -0.3580 N   0  0  0  0  0  0  0  0  0  0  0  0
   -4.7270    1.6520   -0.7780 C   0  0  0  0  0  0  0  0  0  0  0  0
   -4.2310    1.5100   -2.1430 C   0  0  0  0  0  0  0  0  0  0  0  0
   -2.9390    1.1490   -2.1350 C   0  0  0  0  0  0  0  0  0  0  0  0
   -2.1680    0.9280   -3.3730 C   0  0  0  0  0  0  0  0  0  0  0  0
   -1.5990   -0.3620   -3.5240 N   0  0  0  0  0  0  0  0  0  0  0  0
   -2.3660   -1.4520   -3.8580 C   0  0  0  0  0  0  0  0  0  0  0  0
   -1.8710   -2.7200   -3.9510 C   0  0  0  0  0  0  0  0  0  0  0  0
   -0.5470   -2.9450   -3.7030 C   0  0  0  0  0  0  0  0  0  0  0  0
    0.2370   -1.8860   -3.3720 C   0  0  0  0  0  0  0  0  0  0  0  0
   -0.3060   -0.6080   -3.2890 C   0  0  0  0  0  0  0  0  0  0  0  0
    0.6520    0.4930   -3.0090 C   0  0  0  0  0  0  0  0  0  0  0  0
    1.9230    0.0240   -2.5440 N   0  0  0  0  0  0  0  0  0  0  0  0
    2.0810   -0.7450   -1.3440 C   0  0  0  0  0  0  0  0  0  0  0  0
    1.0660   -1.0280   -0.6640 O   0  0  0  0  0  0  0  0  0  0  0  0
    3.3470   -1.1910   -0.9060 N   0  0  0  0  0  0  0  0  0  0  0  0
    3.4880   -1.9500    0.3000 C   0  0  0  0  0  0  0  0  0  0  0  0
    3.0090   -1.1220    1.4680 C   0  0  0  0  0  0  0  0  0  0  0  0
    3.8670    0.1130    1.4970 C   0  0  0  0  0  0  0  0  0  0  0  0
    3.6560    1.2880    0.8820 N   0  0  0  0  0  0  0  0  0  0  0  0
    4.6480    2.1130    1.1620 N   0  0  0  0  0  0  0  0  0  0  0  0
    5.5440    1.4870    1.9780 C   0  0  0  0  0  0  0  0  0  0  0  0
    6.7240    1.8840    2.5510 C   0  0  0  0  0  0  0  0  0  0  0  0
    7.4150    1.0050    3.3410 C   0  0  0  0  0  0  0  0  0  0  0  0
    6.9120   -0.2580    3.5460 C   0  0  0  0  0  0  0  0  0  0  0  0
    5.7260   -0.6130    2.9530 C   0  0  0  0  0  0  0  0  0  0  0  0
    5.0250    0.2500    2.1620 N   0  0  0  0  0  0  0  0  0  0  0  0
   -2.5530    1.0400   -0.7550 C   0  0  0  0  0  0  0  0  0  0  0  0
   -1.4140    0.7270   -0.2960 O   0  0  0  0  0  0  0  0  0  0  0  0
   -3.6840    1.3530    0.1070 N   0  0  0  0  0  0  0  0  0  0  0  0
  2  1  1  1
  2  3  1  0
  2  4  1  0
  4  5  1  0
  4 36  1  6
  5  6  2  0
  6  7  1  0
  7  8  2  0
  8  9  1  0
  8 36  1  0
  9 10  2  0
 10 11  1  0
 10 34  1  0
 11 12  1  0
 12 13  2  0
 12 17  1  0
 13 14  1  0
 14 15  2  0
 15 16  1  0
 16 17  2  0
 17 18  1  0
 18 19  1  0
 19 20  1  0
 20 21  2  0
 20 22  1  0
 22 23  1  0
 23 24  1  0
 24 25  1  0
 25 26  2  0
 25 33  1  0
 26 27  1  0
 27 28  2  0
 28 29  1  0
 28 33  1  0
 29 30  2  0
 30 31  1  0
 31 32  2  0
 32 33  1  0
 34 35  2  0
 34 36  1  0
M  CHG  1  12   1
M  END
