
     RDKit          3D

 37 39  0  0  0  0  0  0  0  0999 V2000
    2.4050   -2.3080    2.9580 C   0  0  0  0  0  0  0  0  0  0  0  0
    3.5490   -2.6950    2.0340 C   0  0  1  0  0  0  0  0  0  0  0  0
    4.7590   -1.9090    2.4900 C   0  0  0  0  0  0  0  0  0  0  0  0
    3.7890   -4.1740    2.0900 C   0  0  0  0  0  0  0  0  0  0  0  0
    3.1800   -2.3570    0.7010 O   0  0  0  0  0  0  0  0  0  0  0  0
    2.8860   -1.0610    0.3180 C   0  0  0  0  0  0  0  0  0  0  0  0
    2.9590   -0.1740    1.2100 O   0  0  0  0  0  0  0  0  0  0  0  0
    2.5120   -0.7130   -1.0220 N   0  0  0  0  0  0  0  0  0  0  0  0
    2.2130    0.6710   -1.3730 C   0  0  1  0  0  0  0  0  0  0  0  0
    3.1360    1.1940   -2.4220 C   0  0  0  0  0  0  0  0  0  0  0  0
    2.8010    2.5890   -2.7470 C   0  0  0  0  0  0  0  0  0  0  0  0
    3.3770    3.6550   -2.0470 C   0  0  0  0  0  0  0  0  0  0  0  0
    3.0660    4.9540   -2.3560 C   0  0  0  0  0  0  0  0  0  0  0  0
    2.1760    5.2560   -3.3670 C   0  0  0  0  0  0  0  0  0  0  0  0
    1.6160    4.2100   -4.0480 C   0  0  0  0  0  0  0  0  0  0  0  0
    1.9180    2.9070   -3.7490 C   0  0  0  0  0  0  0  0  0  0  0  0
    0.7410    0.7360   -1.7830 C   0  0  1  0  0  0  0  0  0  0  0  0
    0.5950   -0.1070   -2.8750 O   0  0  0  0  0  0  0  0  0  0  0  0
   -0.0420    0.2800   -0.5900 C   0  0  0  0  0  0  0  0  0  0  0  0
   -1.4510    0.1880   -0.7440 N   0  0  1  0  0  0  0  0  0  0  0  0
   -1.8470    1.1660   -1.7690 C   0  0  0  0  0  0  0  0  0  0  0  0
   -1.8180   -1.1160   -1.2080 C   0  0  0  0  0  0  0  0  0  0  0  0
   -3.2450   -1.3170   -1.4450 C   0  0  0  0  0  0  0  0  0  0  0  0
   -3.8750   -1.0090   -2.6330 C   0  0  0  0  0  0  0  0  0  0  0  0
   -5.2370   -1.2170   -2.8150 C   0  0  0  0  0  0  0  0  0  0  0  0
   -5.9990   -1.7440   -1.7970 C   0  0  0  0  0  0  0  0  0  0  0  0
   -5.3970   -2.0550   -0.6170 C   0  0  0  0  0  0  0  0  0  0  0  0
   -4.0360   -1.8400   -0.4520 C   0  0  0  0  0  0  0  0  0  0  0  0
   -2.0430    0.5380    0.4730 N   0  0  0  0  0  0  0  0  0  0  0  0
   -1.7420   -0.2130    1.6220 C   0  0  0  0  0  0  0  0  0  0  0  0
   -0.9540   -1.1750    1.5350 O   0  0  0  0  0  0  0  0  0  0  0  0
   -2.3280    0.1120    2.8980 C   0  0  0  0  0  0  0  0  0  0  0  0
   -3.1340    1.2110    3.0990 C   0  0  0  0  0  0  0  0  0  0  0  0
   -3.6870    1.4930    4.3520 C   0  0  0  0  0  0  0  0  0  0  0  0
   -3.4140    0.6500    5.3960 C   0  0  0  0  0  0  0  0  0  0  0  0
   -2.6090   -0.4630    5.2300 C   0  0  0  0  0  0  0  0  0  0  0  0
   -2.0790   -0.7150    3.9890 C   0  0  0  0  0  0  0  0  0  0  0  0
  2  1  1  1
  2  3  1  0
  2  4  1  0
  2  5  1  0
  5  6  1  0
  6  7  2  0
  6  8  1  0
  8  9  1  0
  9 10  1  6
  9 17  1  0
 10 11  1  0
 11 12  2  0
 11 16  1  0
 12 13  1  0
 13 14  2  0
 14 15  1  0
 15 16  2  0
 17 18  1  6
 17 19  1  0
 19 20  1  0
 20 21  1  6
 20 22  1  0
 20 29  1  0
 22 23  1  0
 23 24  2  0
 23 28  1  0
 24 25  1  0
 25 26  2  0
 26 27  1  0
 27 28  2  0
 29 30  1  0
 30 31  2  0
 30 32  1  0
 32 33  2  0
 32 37  1  0
 33 34  1  0
 34 35  2  0
 35 36  1  0
 36 37  2  0
M  CHG  1  20   1
M  END
