
     RDKit          3D

 15 15  0  0  0  0  0  0  0  0999 V2000
    4.5610    0.4090   -0.2940 N   0  0  0  0  0  0  0  0  0  0  0  0
    3.5140    0.7030    0.5410 O   0  0  0  0  0  0  0  0  0  0  0  0
    2.3310    0.5130   -0.3090 C   0  0  0  0  0  0  0  0  0  0  0  0
    1.7020   -0.6240    0.5390 C   0  0  1  0  0  0  0  0  0  0  0  0
    1.6450   -0.2280    1.8140 O   0  0  0  0  0  0  0  0  0  0  0  0
    0.5170   -1.2320   -0.0710 C   0  0  2  0  0  0  0  0  0  0  0  0
    0.7580   -2.4650   -0.6690 O   0  0  0  0  0  0  0  0  0  0  0  0
   -0.3220   -0.3150   -0.9140 C   0  0  0  0  0  0  0  0  0  0  0  0
   -1.5680    0.2550   -0.2220 C   0  0  1  0  0  0  0  0  0  0  0  0
   -2.4710   -0.9250    0.1260 C   0  0  0  0  0  0  0  0  0  0  0  0
   -2.6100   -1.7630   -0.9770 O   0  0  0  0  0  0  0  0  0  0  0  0
   -1.3530    1.1930    0.8500 C   0  0  0  0  0  0  0  0  0  0  0  0
   -1.8340    2.4090    0.3820 O   0  0  0  0  0  0  0  0  0  0  0  0
   -2.8240    2.0010   -0.5040 C   0  0  0  0  0  0  0  0  0  0  0  0
   -2.2390    0.9720   -1.2320 O   0  0  0  0  0  0  0  0  0  0  0  0
  1  2  1  0
  2  3  1  0
  3  4  1  0
  4  5  1  1
  4  6  1  0
  6  7  1  6
  6  8  1  0
  9  8  1  6
  9 10  1  0
  9 12  1  0
  9 15  1  0
 10 11  1  0
 12 13  1  0
 13 14  1  0
 14 15  1  0
M  END
