
     RDKit          3D

 15 15  0  0  0  0  0  0  0  0999 V2000
   -1.7870   -1.3560   -1.0830 C   0  0  0  0  0  0  0  0  0  0  0  0
   -1.5120   -0.3540    0.0090 C   0  0  2  0  0  0  0  0  0  0  0  0
   -2.8010    0.1590    0.4950 C   0  0  0  0  0  0  0  0  0  0  0  0
   -3.0410    1.5460    0.5240 N   0  0  0  0  0  0  0  0  0  0  0  0
   -3.6840   -0.6280    0.8820 O   0  0  0  0  0  0  0  0  0  0  0  0
   -0.7100    0.6770   -0.3570 O   0  0  0  0  0  0  0  0  0  0  0  0
    0.4860    0.3250   -0.9570 C   0  0  1  0  0  0  0  0  0  0  0  0
    1.3040    1.6230   -1.0020 C   0  0  0  0  0  0  0  0  0  0  0  0
    1.4970    2.0910    0.2720 O   0  0  0  0  0  0  0  0  0  0  0  0
    1.2040   -0.7990   -0.3400 C   0  0  1  0  0  0  0  0  0  0  0  0
    2.6150   -0.4950    0.1010 C   0  0  0  0  0  0  0  0  0  0  0  0
    3.2810   -1.6540    0.4950 O   0  0  0  0  0  0  0  0  0  0  0  0
    0.5450   -1.3830    0.7770 O   0  0  0  0  0  0  0  0  0  0  0  0
   -0.7830   -1.1170    1.0860 C   0  0  0  0  0  0  0  0  0  0  0  0
   -1.3170   -1.4730    2.1450 O   0  0  0  0  0  0  0  0  0  0  0  0
  2  1  1  6
  2  3  1  0
  2  6  1  0
  2 14  1  0
  3  4  1  0
  3  5  2  0
  6  7  1  0
  7  8  1  1
  7 10  1  0
  8  9  1  0
 10 11  1  1
 10 13  1  0
 11 12  1  0
 13 14  1  0
 14 15  2  0
M  END
