
     RDKit          3D

 14 14  0  0  0  0  0  0  0  0999 V2000
   -1.5170   -1.5480   -1.2420 C   0  0  0  0  0  0  0  0  0  0  0  0
   -1.0120   -0.3950   -0.3630 C   0  0  2  0  0  0  0  0  0  0  0  0
    0.4700   -0.3020   -0.6000 C   0  0  1  0  0  0  0  0  0  0  0  0
    0.6670   -0.1660   -2.0070 N   0  0  0  0  0  0  0  0  0  0  0  0
    1.0510    0.8030    0.0020 O   0  0  0  0  0  0  0  0  0  0  0  0
    2.0730    0.3430    0.8170 C   0  0  2  0  0  0  0  0  0  0  0  0
    1.7370    0.7220    2.1330 O   0  0  0  0  0  0  0  0  0  0  0  0
    3.4110    0.9500    0.4630 C   0  0  0  0  0  0  0  0  0  0  0  0
    3.7340    0.6290   -0.8520 O   0  0  0  0  0  0  0  0  0  0  0  0
   -1.4100   -0.6990    1.0330 C   0  0  0  0  0  0  0  0  0  0  0  0
   -2.8940   -0.3230    1.1580 C   0  0  0  0  0  0  0  0  0  0  0  0
   -2.9600    1.0530    1.0160 O   0  0  0  0  0  0  0  0  0  0  0  0
   -1.8950    1.5560    0.2880 C   0  0  0  0  0  0  0  0  0  0  0  0
   -1.6250    0.7580   -0.8320 O   0  0  0  0  0  0  0  0  0  0  0  0
  2  1  1  6
  2  3  1  0
  2 10  1  0
  2 14  1  0
  3  4  1  6
  3  5  1  0
  5  6  1  0
  6  7  1  1
  6  8  1  0
  8  9  1  0
 10 11  1  0
 11 12  1  0
 12 13  1  0
 13 14  1  0
M  END
