
     RDKit          3D

 15 15  0  0  0  0  0  0  0  0999 V2000
   -2.2880   -1.3410    1.1010 N   0  0  0  0  0  0  0  0  0  0  0  0
   -2.5190   -0.8250   -0.2190 C   0  0  1  0  0  0  0  0  0  0  0  0
   -3.8070   -0.0370   -0.1170 C   0  0  0  0  0  0  0  0  0  0  0  0
   -4.9640   -0.4410   -0.3630 O   0  0  0  0  0  0  0  0  0  0  0  0
   -3.4390    1.2360    0.3080 O   0  0  0  0  0  0  0  0  0  0  0  0
   -2.0160    1.3860    0.2880 C   0  0  0  0  0  0  0  0  0  0  0  0
   -1.6070    0.2730   -0.6370 C   0  0  2  0  0  0  0  0  0  0  0  0
   -2.0210    0.6710   -1.9300 O   0  0  0  0  0  0  0  0  0  0  0  0
   -0.1690   -0.0070   -0.7010 C   0  0  0  0  0  0  0  0  0  0  0  0
    0.5000   -0.4360    0.5550 C   0  0  0  0  0  0  0  0  0  0  0  0
    1.8250   -0.6560    0.3440 O   0  0  0  0  0  0  0  0  0  0  0  0
    2.6180    0.3400   -0.0880 C   0  0  2  0  0  0  0  0  0  0  0  0
    3.0950   -0.0190   -1.3740 O   0  0  0  0  0  0  0  0  0  0  0  0
    3.8440    0.6170    0.7390 C   0  0  0  0  0  0  0  0  0  0  0  0
    4.6960   -0.4840    0.8250 O   0  0  0  0  0  0  0  0  0  0  0  0
  2  1  1  1
  2  3  1  0
  2  7  1  0
  3  4  2  0
  3  5  1  0
  5  6  1  0
  6  7  1  0
  7  8  1  6
  7  9  1  0
  9 10  1  0
 10 11  1  0
 11 12  1  0
 12 13  1  6
 12 14  1  0
 14 15  1  0
M  END
