
     RDKit          3D

 15 15  0  0  0  0  0  0  0  0999 V2000
    5.0550    0.8020   -0.6500 N   0  0  0  0  0  0  0  0  0  0  0  0
    4.2590    0.1660    0.2350 O   0  0  0  0  0  0  0  0  0  0  0  0
    3.0900    0.8230    0.5440 C   0  0  0  0  0  0  0  0  0  0  0  0
    2.0020   -0.1150   -0.1120 C   0  0  2  0  0  0  0  0  0  0  0  0
    2.0100    0.2320   -1.5030 O   0  0  0  0  0  0  0  0  0  0  0  0
    0.7850   -0.0380    0.4970 C   0  0  2  0  0  0  0  0  0  0  0  0
    0.7660   -0.3500    1.9000 O   0  0  0  0  0  0  0  0  0  0  0  0
   -0.3120   -0.9870   -0.1480 C   0  0  1  0  0  0  0  0  0  0  0  0
   -0.1460   -2.1360    0.6040 O   0  0  0  0  0  0  0  0  0  0  0  0
   -1.6030   -0.3170   -0.0520 C   0  0  2  0  0  0  0  0  0  0  0  0
   -2.7080   -1.2060    0.2970 C   0  0  0  0  0  0  0  0  0  0  0  0
   -3.9510   -0.7190    0.1220 O   0  0  0  0  0  0  0  0  0  0  0  0
   -4.0950    0.2890   -0.7870 C   0  0  0  0  0  0  0  0  0  0  0  0
   -2.9470    1.2290   -0.9400 C   0  0  0  0  0  0  0  0  0  0  0  0
   -1.7690    0.5500   -1.1450 O   0  0  0  0  0  0  0  0  0  0  0  0
  1  2  1  0
  2  3  1  0
  3  4  1  0
  4  5  1  6
  4  6  1  0
  6  7  1  1
  6  8  1  0
  8  9  1  1
  8 10  1  0
 10 11  1  6
 10 15  1  0
 11 12  1  0
 12 13  1  0
 13 14  1  0
 14 15  1  0
M  END
