
     RDKit          3D

 15 15  0  0  0  0  0  0  0  0999 V2000
    2.7890    0.2310    1.1440 O   0  0  0  0  0  0  0  0  0  0  0  0
    2.5130    0.1760   -0.2160 C   0  0  2  0  0  0  0  0  0  0  0  0
    1.4990    1.2300   -0.5710 C   0  0  0  0  0  0  0  0  0  0  0  0
    0.6230    1.5580    0.5270 N   0  0  0  0  0  0  0  0  0  0  0  0
   -0.6090    2.1210    0.0310 C   0  0  1  0  0  0  0  0  0  0  0  0
   -1.3330    2.5900    1.1160 O   0  0  0  0  0  0  0  0  0  0  0  0
   -0.3280    3.1170   -0.8890 O   0  0  0  0  0  0  0  0  0  0  0  0
   -1.3230    1.1150   -0.6370 O   0  0  0  0  0  0  0  0  0  0  0  0
   -2.2120    0.5840    0.3040 C   0  0  0  0  0  0  0  0  0  0  0  0
   -2.6330   -0.8250   -0.0840 C   0  0  0  0  0  0  0  0  0  0  0  0
   -1.8370   -1.7110    0.6230 O   0  0  0  0  0  0  0  0  0  0  0  0
   -0.9560   -2.3980   -0.2160 C   0  0  0  0  0  0  0  0  0  0  0  0
    0.3640   -2.6400    0.5100 C   0  0  0  0  0  0  0  0  0  0  0  0
    1.1150   -1.4920    0.6350 O   0  0  0  0  0  0  0  0  0  0  0  0
    1.8770   -1.1890   -0.4760 C   0  0  0  0  0  0  0  0  0  0  0  0
  2  1  1  1
  2  3  1  0
  2 15  1  0
  3  4  1  0
  4  5  1  0
  5  6  1  1
  5  7  1  0
  5  8  1  0
  8  9  1  0
  9 10  1  0
 10 11  1  0
 11 12  1  0
 12 13  1  0
 13 14  1  0
 14 15  1  0
M  END
