
     RDKit          3D

 15 15  0  0  0  0  0  0  0  0999 V2000
   -4.4230    0.4690    0.0320 C   0  0  0  0  0  0  0  0  0  0  0  0
   -3.1650   -0.2680   -0.2490 C   0  0  0  0  0  0  0  0  0  0  0  0
   -3.1150   -1.4540   -0.6060 O   0  0  0  0  0  0  0  0  0  0  0  0
   -1.9400    0.4330   -0.0980 N   0  0  0  0  0  0  0  0  0  0  0  0
   -0.6430   -0.1410   -0.3320 C   0  0  1  0  0  0  0  0  0  0  0  0
    0.1630    0.5150   -1.3660 C   0  0  2  0  0  0  0  0  0  0  0  0
   -0.1420   -0.0860   -2.6140 O   0  0  0  0  0  0  0  0  0  0  0  0
    1.5090    0.4720   -1.2590 O   0  0  0  0  0  0  0  0  0  0  0  0
    2.0710    0.4150   -0.0360 C   0  0  2  0  0  0  0  0  0  0  0  0
    3.5390    0.1430   -0.1160 C   0  0  0  0  0  0  0  0  0  0  0  0
    4.1930    1.1520   -0.8400 O   0  0  0  0  0  0  0  0  0  0  0  0
    1.4360   -0.7480    0.7330 C   0  0  2  0  0  0  0  0  0  0  0  0
    1.3230   -1.8010   -0.1850 O   0  0  0  0  0  0  0  0  0  0  0  0
    0.0390   -0.2390    1.0260 C   0  0  2  0  0  0  0  0  0  0  0  0
   -0.6610   -1.0710    1.8760 O   0  0  0  0  0  0  0  0  0  0  0  0
  1  2  1  0
  2  3  2  0
  2  4  1  0
  5  4  1  1
  5  6  1  0
  5 14  1  0
  6  7  1  6
  6  8  1  0
  8  9  1  0
  9 10  1  6
  9 12  1  0
 10 11  1  0
 12 13  1  6
 12 14  1  0
 14 15  1  1
M  END
