
     RDKit          3D

 14 14  0  0  0  0  0  0  0  0999 V2000
   -3.6690    1.5740   -0.3090 C   0  0  0  0  0  0  0  0  0  0  0  0
   -3.0120    0.3390   -0.4050 O   0  0  0  0  0  0  0  0  0  0  0  0
   -1.7260    0.1050    0.0290 C   0  0  0  0  0  0  0  0  0  0  0  0
   -1.3650   -1.1080    0.4280 C   0  0  0  0  0  0  0  0  0  0  0  0
   -2.2410   -2.2050    0.4370 N   0  0  0  0  0  0  0  0  0  0  0  0
    0.0700   -1.2230    0.8770 C   0  0  1  0  0  0  0  0  0  0  0  0
    0.4450   -2.5510    0.9430 O   0  0  0  0  0  0  0  0  0  0  0  0
    0.9010   -0.5220   -0.1410 C   0  0  2  0  0  0  0  0  0  0  0  0
    2.2610   -0.4930    0.2590 O   0  0  0  0  0  0  0  0  0  0  0  0
    3.1940    0.1230   -0.5670 C   0  0  0  0  0  0  0  0  0  0  0  0
    4.2950    0.6200   -0.0690 C   0  0  0  0  0  0  0  0  0  0  0  0
    5.2140    1.2290   -0.8990 O   0  0  0  0  0  0  0  0  0  0  0  0
    0.5170    0.7580   -0.4390 O   0  0  0  0  0  0  0  0  0  0  0  0
   -0.6850    1.1600    0.0790 C   0  0  0  0  0  0  0  0  0  0  0  0
  1  2  1  0
  2  3  1  0
  3  4  2  0
  3 14  1  0
  4  5  1  0
  4  6  1  0
  6  7  1  6
  6  8  1  0
  8  9  1  1
  8 13  1  0
  9 10  1  0
 10 11  2  3
 11 12  1  0
 13 14  1  0
M  END
