
     RDKit          3D

 22 22  0  0  0  0  0  0  0  0999 V2000
    4.7130    0.4980   -2.1600 C   0  0  0  0  0  0  0  0  0  0  0  0
    4.1680   -0.3180   -1.1510 O   0  0  0  0  0  0  0  0  0  0  0  0
    3.0950    0.3190   -0.5270 C   0  0  0  0  0  0  0  0  0  0  0  0
    2.5790   -0.6230    0.5280 C   0  0  1  0  0  0  0  0  0  0  0  0
    1.4970   -0.1120    1.2400 O   0  0  0  0  0  0  0  0  0  0  0  0
    0.4400   -0.2330    0.3130 C   0  0  2  0  0  0  0  0  0  0  0  0
   -0.7540   -0.1360    0.9790 O   0  0  0  0  0  0  0  0  0  0  0  0
   -1.4830    1.0060    0.6830 C   0  0  1  0  0  0  0  0  0  0  0  0
   -2.7590    0.4710    0.0080 C   0  0  2  0  0  0  0  0  0  0  0  0
   -3.3580   -0.3500    0.9920 O   0  0  0  0  0  0  0  0  0  0  0  0
   -2.4360   -0.3550   -1.1550 C   0  0  0  0  0  0  0  0  0  0  0  0
   -1.7240    0.1920   -2.2030 O   0  0  0  0  0  0  0  0  0  0  0  0
   -2.8160   -1.6080   -1.2070 C   0  0  0  0  0  0  0  0  0  0  0  0
   -2.4970   -2.3660   -2.3200 O   0  0  0  0  0  0  0  0  0  0  0  0
   -1.9290    1.7620    1.8930 C   0  0  2  0  0  0  0  0  0  0  0  0
   -2.7530    1.0170    2.7200 O   0  0  0  0  0  0  0  0  0  0  0  0
   -2.5730    3.0560    1.4370 C   0  0  0  0  0  0  0  0  0  0  0  0
   -2.8800    3.8670    2.5530 O   0  0  0  0  0  0  0  0  0  0  0  0
    0.6480   -1.4040   -0.3640 O   0  0  0  0  0  0  0  0  0  0  0  0
    1.9470   -1.8010   -0.1800 C   0  0  2  0  0  0  0  0  0  0  0  0
    2.0120   -3.0570    0.6770 C   0  0  0  0  0  0  0  0  0  0  0  0
    3.3600   -3.3900    0.8140 O   0  0  0  0  0  0  0  0  0  0  0  0
  1  2  1  0
  2  3  1  0
  4  3  1  6
  4  5  1  0
  4 20  1  0
  5  6  1  0
  6  7  1  1
  6 19  1  0
  8  7  1  1
  8  9  1  0
  8 15  1  0
  9 10  1  1
  9 11  1  0
 11 12  1  0
 11 13  2  3
 13 14  1  0
 15 16  1  6
 15 17  1  0
 17 18  1  0
 19 20  1  0
 20 21  1  1
 21 22  1  0
M  END
