
     RDKit          3D

 22 23  0  0  0  0  0  0  0  0999 V2000
   -6.1520    0.7770   -0.3770 O   0  0  0  0  0  0  0  0  0  0  0  0
   -4.9590    0.9190   -1.0890 C   0  0  0  0  0  0  0  0  0  0  0  0
   -3.8610    0.3740   -0.1620 C   0  0  1  0  0  0  0  0  0  0  0  0
   -4.2380   -1.0500    0.1040 C   0  0  0  0  0  0  0  0  0  0  0  0
   -3.3810   -1.7140    0.9660 O   0  0  0  0  0  0  0  0  0  0  0  0
   -2.6310    0.4540   -0.7410 O   0  0  0  0  0  0  0  0  0  0  0  0
   -1.7100    1.2830   -0.1770 C   0  0  2  0  0  0  0  0  0  0  0  0
   -1.6280    2.3940   -1.0950 O   0  0  0  0  0  0  0  0  0  0  0  0
   -0.3120    0.8040   -0.0540 C   0  0  1  0  0  0  0  0  0  0  0  0
    0.2590    0.4640   -1.2860 O   0  0  0  0  0  0  0  0  0  0  0  0
    0.4460    1.8990    0.4110 O   0  0  0  0  0  0  0  0  0  0  0  0
    0.8050    1.6440    1.7070 C   0  0  0  0  0  0  0  0  0  0  0  0
    0.3450    0.4110    2.0910 O   0  0  0  0  0  0  0  0  0  0  0  0
   -0.0270   -0.2650    0.9270 C   0  0  2  0  0  0  0  0  0  0  0  0
    1.1450   -1.1430    0.5340 C   0  0  0  0  0  0  0  0  0  0  0  0
    2.2920   -0.3560    0.2970 O   0  0  0  0  0  0  0  0  0  0  0  0
    3.3570   -1.1510   -0.0610 C   0  0  2  0  0  0  0  0  0  0  0  0
    4.5530   -1.0050    0.8450 C   0  0  0  0  0  0  0  0  0  0  0  0
    5.6770   -1.2070    0.0930 O   0  0  0  0  0  0  0  0  0  0  0  0
    5.4140   -0.9370   -1.2190 C   0  0  0  0  0  0  0  0  0  0  0  0
    3.9390   -0.7960   -1.4080 C   0  0  2  0  0  0  0  0  0  0  0  0
    3.5760    0.4980   -1.8040 O   0  0  0  0  0  0  0  0  0  0  0  0
  1  2  1  0
  3  2  1  6
  3  4  1  0
  3  6  1  0
  4  5  1  0
  6  7  1  0
  7  8  1  6
  7  9  1  0
  9 10  1  6
  9 11  1  0
  9 14  1  0
 11 12  1  0
 12 13  1  0
 13 14  1  0
 14 15  1  6
 15 16  1  0
 17 16  1  1
 17 18  1  0
 17 21  1  0
 18 19  1  0
 19 20  1  0
 20 21  1  0
 21 22  1  1
M  END
