
     RDKit          3D

 22 22  0  0  0  0  0  0  0  0999 V2000
    2.7230    2.2060    1.2280 C   0  0  0  0  0  0  0  0  0  0  0  0
    1.6850    1.3260    1.2330 O   0  0  0  0  0  0  0  0  0  0  0  0
    1.8880    0.0930    0.6840 C   0  0  1  0  0  0  0  0  0  0  0  0
    3.0100   -0.6220    1.4080 C   0  0  0  0  0  0  0  0  0  0  0  0
    3.2340   -1.8920    0.8780 O   0  0  0  0  0  0  0  0  0  0  0  0
    0.5930   -0.7140    0.7890 C   0  0  0  0  0  0  0  0  0  0  0  0
   -0.0370   -0.5500   -0.5340 C   0  0  1  0  0  0  0  0  0  0  0  0
   -0.2080   -1.8930   -1.2740 C   0  0  1  0  0  0  0  0  0  0  0  0
   -0.6890   -1.6430   -2.5820 O   0  0  0  0  0  0  0  0  0  0  0  0
    0.9950   -2.5480   -1.2990 O   0  0  0  0  0  0  0  0  0  0  0  0
   -1.3420    0.1430   -0.6010 C   0  0  2  0  0  0  0  0  0  0  0  0
   -1.8150    0.0700   -1.9140 O   0  0  0  0  0  0  0  0  0  0  0  0
   -1.0620    1.6740   -0.4400 C   0  0  0  0  0  0  0  0  0  0  0  0
   -0.1220    2.0890   -1.3400 O   0  0  0  0  0  0  0  0  0  0  0  0
    0.0920    3.3680   -1.1840 O   0  0  0  0  0  0  0  0  0  0  0  0
   -2.4040   -0.1430    0.3540 C   0  0  1  0  0  0  0  0  0  0  0  0
   -3.6220    0.7090    0.0170 C   0  0  0  0  0  0  0  0  0  0  0  0
   -2.8810   -1.5160    0.5960 C   0  0  0  0  0  0  0  0  0  0  0  0
   -3.9250   -1.3850    1.5670 O   0  0  0  0  0  0  0  0  0  0  0  0
    0.8660    0.1430   -1.3370 O   0  0  0  0  0  0  0  0  0  0  0  0
    2.1000    0.1680   -0.7830 C   0  0  2  0  0  0  0  0  0  0  0  0
    2.9360   -0.8370   -1.2720 O   0  0  0  0  0  0  0  0  0  0  0  0
  1  2  1  0
  2  3  1  0
  3  4  1  1
  3  6  1  0
  3 21  1  0
  4  5  1  0
  7  6  1  1
  7  8  1  0
  7 11  1  0
  7 20  1  0
  8  9  1  6
  8 10  1  0
 11 12  1  6
 11 13  1  0
 11 16  1  0
 13 14  1  0
 14 15  1  0
 16 17  1  6
 16 18  1  0
 18 19  1  0
 20 21  1  0
 21 22  1  6
M  END
