
     RDKit          3D

 22 22  0  0  0  0  0  0  0  0999 V2000
   -5.7880    0.7370    2.3730 O   0  0  0  0  0  0  0  0  0  0  0  0
   -5.0110    0.0010    1.4220 C   0  0  0  0  0  0  0  0  0  0  0  0
   -3.9420    0.9200    0.9570 C   0  0  0  0  0  0  0  0  0  0  0  0
   -3.0490    0.5460    0.0520 O   0  0  0  0  0  0  0  0  0  0  0  0
   -2.1790   -0.4630    0.1580 C   0  0  1  0  0  0  0  0  0  0  0  0
   -1.3000   -0.3830    1.2330 O   0  0  0  0  0  0  0  0  0  0  0  0
   -2.8340   -1.8040   -0.0030 C   0  0  0  0  0  0  0  0  0  0  0  0
   -3.8770   -1.5910   -0.9240 O   0  0  0  0  0  0  0  0  0  0  0  0
   -3.3640   -1.3250   -2.1880 C   0  0  0  0  0  0  0  0  0  0  0  0
   -2.3890   -0.1750   -2.2320 C   0  0  0  0  0  0  0  0  0  0  0  0
   -1.3360   -0.3610   -1.1630 C   0  0  1  0  0  0  0  0  0  0  0  0
   -0.3900    0.5900   -1.1170 O   0  0  0  0  0  0  0  0  0  0  0  0
    0.9130    0.2590   -1.2770 C   0  0  1  0  0  0  0  0  0  0  0  0
    1.3160    0.8490   -2.5110 O   0  0  0  0  0  0  0  0  0  0  0  0
    1.8770    0.8170   -0.2630 C   0  0  1  0  0  0  0  0  0  0  0  0
    1.6410    0.4430    1.0340 O   0  0  0  0  0  0  0  0  0  0  0  0
    3.2690    0.3340   -0.6930 C   0  0  0  0  0  0  0  0  0  0  0  0
    4.2500    0.8940    0.1270 O   0  0  0  0  0  0  0  0  0  0  0  0
    5.4770    0.4340   -0.2940 C   0  0  1  0  0  0  0  0  0  0  0  0
    6.3440    1.4450   -0.6910 O   0  0  0  0  0  0  0  0  0  0  0  0
    6.1630   -0.3160    0.8480 C   0  0  0  0  0  0  0  0  0  0  0  0
    6.3140    0.5770    1.9010 O   0  0  0  0  0  0  0  0  0  0  0  0
  1  2  1  0
  2  3  1  0
  3  4  1  0
  4  5  1  0
  5  6  1  1
  5  7  1  0
  5 11  1  0
  7  8  1  0
  8  9  1  0
  9 10  1  0
 10 11  1  0
 11 12  1  1
 12 13  1  0
 13 14  1  6
 13 15  1  0
 15 16  1  1
 15 17  1  0
 17 18  1  0
 18 19  1  0
 19 20  1  1
 19 21  1  0
 21 22  1  0
M  END
