
     RDKit          3D

 22 23  0  0  0  0  0  0  0  0999 V2000
   -6.0100    0.6050   -0.1070 O   0  0  0  0  0  0  0  0  0  0  0  0
   -4.7900    0.6730    0.5880 C   0  0  0  0  0  0  0  0  0  0  0  0
   -3.7170    0.2380   -0.3810 C   0  0  2  0  0  0  0  0  0  0  0  0
   -4.1270   -1.1170   -0.9260 C   0  0  0  0  0  0  0  0  0  0  0  0
   -5.4200   -1.0710   -1.4450 O   0  0  0  0  0  0  0  0  0  0  0  0
   -2.4570    0.2470    0.1400 O   0  0  0  0  0  0  0  0  0  0  0  0
   -1.5840    1.1120   -0.5090 C   0  0  0  0  0  0  0  0  0  0  0  0
   -0.2080    1.0670    0.1230 C   0  0  1  0  0  0  0  0  0  0  0  0
   -0.3900    1.4590    1.4640 O   0  0  0  0  0  0  0  0  0  0  0  0
    0.3710   -0.3040    0.1420 C   0  0  1  0  0  0  0  0  0  0  0  0
    0.6140   -0.8430   -1.1070 O   0  0  0  0  0  0  0  0  0  0  0  0
    1.2970   -2.0220   -0.7230 C   0  0  1  0  0  0  0  0  0  0  0  0
    1.9130   -2.6390   -1.7820 O   0  0  0  0  0  0  0  0  0  0  0  0
    2.1610   -1.6550    0.2870 O   0  0  0  0  0  0  0  0  0  0  0  0
    1.6690   -0.4520    0.8270 C   0  0  2  0  0  0  0  0  0  0  0  0
    1.4740   -0.5490    2.1930 O   0  0  0  0  0  0  0  0  0  0  0  0
    2.6790    0.6080    0.5420 C   0  0  1  0  0  0  0  0  0  0  0  0
    3.9340    0.2540    1.3500 C   0  0  0  0  0  0  0  0  0  0  0  0
    4.9780    1.1240    1.0520 O   0  0  0  0  0  0  0  0  0  0  0  0
    5.2490    1.0110   -0.3130 C   0  0  0  0  0  0  0  0  0  0  0  0
    4.1690    1.5870   -0.9810 O   0  0  0  0  0  0  0  0  0  0  0  0
    3.1000    0.6650   -0.9010 C   0  0  0  0  0  0  0  0  0  0  0  0
  1  2  1  0
  3  2  1  1
  3  4  1  0
  3  6  1  0
  4  5  1  0
  6  7  1  0
  7  8  1  0
  8  9  1  1
  8 10  1  0
 10 11  1  6
 10 15  1  0
 11 12  1  0
 12 13  1  6
 12 14  1  0
 14 15  1  0
 15 16  1  1
 15 17  1  0
 17 18  1  1
 17 22  1  0
 18 19  1  0
 19 20  1  0
 20 21  1  0
 21 22  1  0
M  END
