
     RDKit          3D

 22 22  0  0  0  0  0  0  0  0999 V2000
   -5.2520    0.3680   -1.0070 O   0  0  0  0  0  0  0  0  0  0  0  0
   -4.5090   -0.6050   -0.8210 C   0  0  0  0  0  0  0  0  0  0  0  0
   -4.9380   -1.8990   -1.0910 O   0  0  0  0  0  0  0  0  0  0  0  0
   -3.1440   -0.4320   -0.3060 C   0  0  2  0  0  0  0  0  0  0  0  0
   -2.9410   -1.1710    1.0230 C   0  0  0  0  0  0  0  0  0  0  0  0
   -1.5800   -0.5770    1.4210 C   0  0  0  0  0  0  0  0  0  0  0  0
   -1.4530    0.7400    0.7540 C   0  0  1  0  0  0  0  0  0  0  0  0
   -1.1140    1.8010    1.5930 O   0  0  0  0  0  0  0  0  0  0  0  0
   -0.6430    0.6690   -0.3600 O   0  0  0  0  0  0  0  0  0  0  0  0
    0.7090    0.5050   -0.0970 C   0  0  0  0  0  0  0  0  0  0  0  0
    1.3980    0.4580   -1.4440 C   0  0  0  0  0  0  0  0  0  0  0  0
    2.7480    0.3020   -1.3880 O   0  0  0  0  0  0  0  0  0  0  0  0
    3.0920   -0.8970   -0.8070 C   0  0  1  0  0  0  0  0  0  0  0  0
    3.9710   -1.6220   -1.6300 O   0  0  0  0  0  0  0  0  0  0  0  0
    3.9200   -0.5540    0.4360 C   0  0  1  0  0  0  0  0  0  0  0  0
    4.2800   -1.7550    1.0410 O   0  0  0  0  0  0  0  0  0  0  0  0
    5.1870    0.1570   -0.0390 C   0  0  0  0  0  0  0  0  0  0  0  0
    5.8350   -0.6710   -0.9520 O   0  0  0  0  0  0  0  0  0  0  0  0
   -2.8670    0.9730    0.1790 C   0  0  2  0  0  0  0  0  0  0  0  0
   -3.7330    1.3870    1.1610 O   0  0  0  0  0  0  0  0  0  0  0  0
   -2.7590    1.9530   -0.9630 C   0  0  0  0  0  0  0  0  0  0  0  0
   -1.8870    1.4990   -1.9220 O   0  0  0  0  0  0  0  0  0  0  0  0
  1  2  2  0
  2  3  1  0
  4  2  1  1
  4  5  1  0
  4 19  1  0
  5  6  1  0
  6  7  1  0
  7  8  1  1
  7  9  1  0
  7 19  1  0
  9 10  1  0
 10 11  1  0
 11 12  1  0
 12 13  1  0
 13 14  1  6
 13 15  1  0
 15 16  1  6
 15 17  1  0
 17 18  1  0
 19 20  1  1
 19 21  1  0
 21 22  1  0
M  END
