
     RDKit          3D

 22 22  0  0  0  0  0  0  0  0999 V2000
   -3.0210    0.3520   -2.7380 C   0  0  0  0  0  0  0  0  0  0  0  0
   -3.2630   -0.3640   -1.5930 O   0  0  0  0  0  0  0  0  0  0  0  0
   -2.0970   -0.7370   -0.8950 C   0  0  2  0  0  0  0  0  0  0  0  0
   -1.9470   -2.0920   -0.8310 O   0  0  0  0  0  0  0  0  0  0  0  0
   -2.1100    0.0130    0.3730 C   0  0  0  0  0  0  0  0  0  0  0  0
   -0.9620   -0.2050    1.3290 C   0  0  2  0  0  0  0  0  0  0  0  0
   -0.8480   -1.5280    1.7520 O   0  0  0  0  0  0  0  0  0  0  0  0
   -1.3480    0.5520    2.6370 C   0  0  2  0  0  0  0  0  0  0  0  0
   -2.6850    0.8570    2.6650 O   0  0  0  0  0  0  0  0  0  0  0  0
   -0.5210    1.8260    2.4330 C   0  0  2  0  0  0  0  0  0  0  0  0
   -1.0800    2.6150    1.4410 O   0  0  0  0  0  0  0  0  0  0  0  0
    0.6610    1.2450    2.0590 O   0  0  0  0  0  0  0  0  0  0  0  0
    0.3000    0.4410    0.9400 C   0  0  1  0  0  0  0  0  0  0  0  0
    1.3430   -0.4740    0.7600 O   0  0  0  0  0  0  0  0  0  0  0  0
    2.1080   -0.3850   -0.3300 C   0  0  2  0  0  0  0  0  0  0  0  0
    2.4080   -1.6730   -1.0000 C   0  0  0  0  0  0  0  0  0  0  0  0
    1.3000   -2.4870   -1.5460 C   0  0  0  0  0  0  0  0  0  0  0  0
    0.6030   -1.8230   -2.5430 O   0  0  0  0  0  0  0  0  0  0  0  0
    3.5030    0.2200   -0.0380 C   0  0  0  0  0  0  0  0  0  0  0  0
    3.4570    1.5690    0.5090 C   0  0  0  0  0  0  0  0  0  0  0  0
    3.6270    1.7220    1.7560 O   0  0  0  0  0  0  0  0  0  0  0  0
    3.2370    2.7210   -0.2310 O   0  0  0  0  0  0  0  0  0  0  0  0
  1  2  1  0
  2  3  1  0
  3  4  1  1
  3  5  1  0
  5  6  1  0
  6  7  1  1
  6  8  1  0
  6 13  1  0
  8  9  1  6
  8 10  1  0
 10 11  1  6
 10 12  1  0
 12 13  1  0
 13 14  1  1
 14 15  1  0
 15 16  1  1
 15 19  1  0
 16 17  1  0
 17 18  1  0
 19 20  1  0
 20 21  2  0
 20 22  1  0
M  END
