
     RDKit          3D

 22 22  0  0  0  0  0  0  0  0999 V2000
   -3.7290    2.2260    0.7970 O   0  0  0  0  0  0  0  0  0  0  0  0
   -3.0230    1.9340    1.7800 C   0  0  0  0  0  0  0  0  0  0  0  0
   -3.0230    2.7490    2.8860 O   0  0  0  0  0  0  0  0  0  0  0  0
   -2.1930    0.7120    1.7450 C   0  0  0  0  0  0  0  0  0  0  0  0
   -2.3900    0.0310    0.4370 C   0  0  2  0  0  0  0  0  0  0  0  0
   -3.7040   -0.3380    0.2310 O   0  0  0  0  0  0  0  0  0  0  0  0
   -1.4530   -1.1150    0.1590 C   0  0  1  0  0  0  0  0  0  0  0  0
   -1.7630   -2.2860    1.0630 C   0  0  0  0  0  0  0  0  0  0  0  0
   -1.6020   -2.0030    2.4040 O   0  0  0  0  0  0  0  0  0  0  0  0
   -1.7730   -1.5540   -1.2570 C   0  0  0  0  0  0  0  0  0  0  0  0
   -0.6420   -2.3820   -1.7460 C   0  0  0  0  0  0  0  0  0  0  0  0
    0.6240   -1.5690   -1.7550 C   0  0  1  0  0  0  0  0  0  0  0  0
    0.7220   -0.9840   -3.0180 O   0  0  0  0  0  0  0  0  0  0  0  0
    0.6220   -0.4700   -0.7220 C   0  0  2  0  0  0  0  0  0  0  0  0
    1.9130   -0.3360   -0.2710 O   0  0  0  0  0  0  0  0  0  0  0  0
    2.5140    0.8550   -0.4660 C   0  0  2  0  0  0  0  0  0  0  0  0
    3.7690    0.8320   -1.2920 C   0  0  0  0  0  0  0  0  0  0  0  0
    4.2220    2.1680   -1.3660 O   0  0  0  0  0  0  0  0  0  0  0  0
    2.8600    1.5590    0.8510 C   0  0  1  0  0  0  0  0  0  0  0  0
    3.7390    0.7370    1.5940 O   0  0  0  0  0  0  0  0  0  0  0  0
    3.5190    2.7470    0.6320 O   0  0  0  0  0  0  0  0  0  0  0  0
   -0.1620   -0.7430    0.3720 O   0  0  0  0  0  0  0  0  0  0  0  0
  1  2  2  0
  2  3  1  0
  2  4  1  0
  4  5  1  0
  5  6  1  1
  5  7  1  0
  7  8  1  1
  7 10  1  0
  7 22  1  0
  8  9  1  0
 10 11  1  0
 11 12  1  0
 12 13  1  6
 12 14  1  0
 14 15  1  1
 14 22  1  0
 15 16  1  0
 16 17  1  1
 16 19  1  0
 17 18  1  0
 19 20  1  1
 19 21  1  0
M  END
