
     RDKit          3D

 22 22  0  0  0  0  0  0  0  0999 V2000
    4.8660    2.7170   -0.2940 C   0  0  0  0  0  0  0  0  0  0  0  0
    4.0190    2.2230    0.7540 O   0  0  0  0  0  0  0  0  0  0  0  0
    3.6270    0.8770    0.6840 C   0  0  0  0  0  0  0  0  0  0  0  0
    4.0290    0.1740   -0.2770 O   0  0  0  0  0  0  0  0  0  0  0  0
    2.8240    0.2890    1.6200 O   0  0  0  0  0  0  0  0  0  0  0  0
    2.3520   -1.0180    1.6800 C   0  0  0  0  0  0  0  0  0  0  0  0
    1.4440   -1.4340    0.5320 C   0  0  1  0  0  0  0  0  0  0  0  0
    2.0370   -1.3680   -0.6910 O   0  0  0  0  0  0  0  0  0  0  0  0
    1.1660   -2.9270    0.7960 C   0  0  0  0  0  0  0  0  0  0  0  0
    2.3660   -3.6410    0.7920 O   0  0  0  0  0  0  0  0  0  0  0  0
    0.2700   -0.7550    0.7030 O   0  0  0  0  0  0  0  0  0  0  0  0
   -0.7860   -1.0830   -0.0960 C   0  0  1  0  0  0  0  0  0  0  0  0
   -1.7850   -1.7380    0.6770 O   0  0  0  0  0  0  0  0  0  0  0  0
   -1.4010    0.0590   -0.8330 C   0  0  1  0  0  0  0  0  0  0  0  0
   -0.5520    0.7170   -1.6790 O   0  0  0  0  0  0  0  0  0  0  0  0
   -2.6820   -0.3710   -1.5350 C   0  0  0  0  0  0  0  0  0  0  0  0
   -3.5070    0.3580   -0.4990 C   0  0  1  0  0  0  0  0  0  0  0  0
   -4.0970   -0.4820    0.4630 O   0  0  0  0  0  0  0  0  0  0  0  0
   -2.2470    0.9970   -0.0060 C   0  0  1  0  0  0  0  0  0  0  0  0
   -2.0140    0.9640    1.4680 C   0  0  0  0  0  0  0  0  0  0  0  0
   -2.1530    2.4240   -0.5330 C   0  0  0  0  0  0  0  0  0  0  0  0
   -2.6040    2.4550   -1.8560 O   0  0  0  0  0  0  0  0  0  0  0  0
  1  2  1  0
  2  3  1  0
  3  4  2  0
  3  5  1  0
  5  6  1  0
  6  7  1  0
  7  8  1  6
  7  9  1  0
  7 11  1  0
  9 10  1  0
 11 12  1  0
 12 13  1  1
 12 14  1  0
 14 15  1  6
 14 16  1  0
 14 19  1  0
 16 17  1  0
 17 18  1  1
 17 19  1  0
 19 20  1  1
 19 21  1  0
 21 22  1  0
M  END
