
     RDKit          3D

 13 13  0  0  0  0  0  0  0  0999 V2000
    1.4300    2.2290    1.2070 C   0  0  0  0  0  0  0  0  0  0  0  0
    1.8640    1.1850    0.5420 C   0  0  0  0  0  0  0  0  0  0  0  0
    3.2160    1.1790    0.1540 O   0  0  0  0  0  0  0  0  0  0  0  0
    3.7710    0.1320   -0.5480 C   0  0  0  0  0  0  0  0  0  0  0  0
    2.9870   -0.8780   -0.8490 C   0  0  0  0  0  0  0  0  0  0  0  0
    1.5950   -0.9600   -0.4950 C   0  0  0  0  0  0  0  0  0  0  0  0
    1.0310    0.0540    0.1920 C   0  0  0  0  0  0  0  0  0  0  0  0
   -0.3790   -0.0310    0.5500 C   0  0  0  0  0  0  0  0  0  0  0  0
   -1.0260    0.8280    1.1790 O   0  0  0  0  0  0  0  0  0  0  0  0
   -1.1400   -1.1440    0.1900 O   0  0  0  0  0  0  0  0  0  0  0  0
   -2.4860   -1.3050    0.4890 C   0  0  0  0  0  0  0  0  0  0  0  0
   -3.3930   -0.2610   -0.0840 C   0  0  0  0  0  0  0  0  0  0  0  0
   -3.3450   -0.2060   -1.4740 O   0  0  0  0  0  0  0  0  0  0  0  0
  1  2  2  0
  2  3  1  0
  2  7  1  0
  3  4  1  0
  4  5  2  0
  5  6  1  0
  6  7  2  0
  7  8  1  0
  8  9  2  0
  8 10  1  0
 10 11  1  0
 11 12  1  0
 12 13  1  0
M  END
