
     RDKit          3D

 13 13  0  0  0  0  0  0  0  0999 V2000
   -0.8820   -0.0500    2.1100 C   0  0  0  0  0  0  0  0  0  0  0  0
   -0.5790    0.0550    0.6650 C   0  0  0  0  0  0  0  0  0  0  0  0
   -1.6440    0.1390   -0.3170 C   0  0  0  0  0  0  0  0  0  0  0  0
   -1.3320    0.2400   -1.6670 O   0  0  0  0  0  0  0  0  0  0  0  0
   -2.9140    0.1240    0.0080 C   0  0  0  0  0  0  0  0  0  0  0  0
   -3.9560    0.2100   -0.9980 C   0  0  0  0  0  0  0  0  0  0  0  0
   -5.1640    0.1930   -0.6510 O   0  0  0  0  0  0  0  0  0  0  0  0
    0.6970    0.0740    0.2330 C   0  0  0  0  0  0  0  0  0  0  0  0
    1.8180   -0.0090    1.1850 C   0  0  0  0  0  0  0  0  0  0  0  0
    3.0100   -0.3800    0.6500 O   0  0  0  0  0  0  0  0  0  0  0  0
    3.2750   -0.0070   -0.6370 C   0  0  0  0  0  0  0  0  0  0  0  0
    2.1530   -0.4330   -1.5910 C   0  0  0  0  0  0  0  0  0  0  0  0
    0.9760    0.1740   -1.1100 O   0  0  0  0  0  0  0  0  0  0  0  0
  1  2  1  0
  2  3  1  0
  2  8  2  3
  3  4  1  0
  3  5  2  3
  5  6  1  0
  6  7  2  0
  8  9  1  0
  8 13  1  0
  9 10  1  0
 10 11  1  0
 11 12  1  0
 12 13  1  0
M  END
