
     RDKit          3D

 13 14  0  0  0  0  0  0  0  0999 V2000
    0.4880   -0.4290   -2.3110 O   0  0  0  0  0  0  0  0  0  0  0  0
   -0.2200    0.0220   -1.3660 C   0  0  0  0  0  0  0  0  0  0  0  0
   -1.3960    0.6980   -1.7420 O   0  0  0  0  0  0  0  0  0  0  0  0
   -2.4740    0.7010   -0.7920 C   0  0  0  0  0  0  0  0  0  0  0  0
   -2.3150   -0.5670    0.0260 C   0  0  0  0  0  0  0  0  0  0  0  0
   -1.0920   -0.4780    0.9040 C   0  0  1  0  0  0  0  0  0  0  0  0
   -0.8890   -1.7110    1.5000 O   0  0  0  0  0  0  0  0  0  0  0  0
    0.1120   -0.1210    0.0600 C   0  0  1  0  0  0  0  0  0  0  0  0
    1.1980   -1.1880    0.1630 C   0  0  0  0  0  0  0  0  0  0  0  0
    2.5320   -0.5840   -0.1440 C   0  0  0  0  0  0  0  0  0  0  0  0
    2.4780    0.5650   -0.8970 O   0  0  0  0  0  0  0  0  0  0  0  0
    1.8010    1.6020   -0.3040 C   0  0  0  0  0  0  0  0  0  0  0  0
    0.7230    1.1490    0.6430 C   0  0  0  0  0  0  0  0  0  0  0  0
  1  2  2  0
  2  3  1  0
  2  8  1  0
  3  4  1  0
  4  5  1  0
  5  6  1  0
  6  7  1  6
  6  8  1  0
  8  9  1  6
  8 13  1  0
  9 10  1  0
 10 11  1  0
 11 12  1  0
 12 13  1  0
M  END
