
     RDKit          3D

 13 14  0  0  0  0  0  0  0  0999 V2000
   -1.7400   -2.7940   -0.8350 O   0  0  0  0  0  0  0  0  0  0  0  0
   -2.0990   -1.5960   -0.5940 C   0  0  0  0  0  0  0  0  0  0  0  0
   -3.4160   -1.0810   -0.5410 O   0  0  0  0  0  0  0  0  0  0  0  0
   -3.2140    0.3420   -0.6760 C   0  0  0  0  0  0  0  0  0  0  0  0
   -2.0600    0.5470    0.2510 C   0  0  2  0  0  0  0  0  0  0  0  0
   -1.2530    1.7870    0.0480 C   0  0  0  0  0  0  0  0  0  0  0  0
    0.0760    1.2410    0.1710 O   0  0  0  0  0  0  0  0  0  0  0  0
    0.0650   -0.0550   -0.3350 C   0  0  0  0  0  0  0  0  0  0  0  0
    1.2670   -0.7680   -0.8090 C   0  0  0  0  0  0  0  0  0  0  0  0
    2.2360   -0.9850    0.2870 C   0  0  0  0  0  0  0  0  0  0  0  0
    2.7390    0.2800    0.9130 C   0  0  0  0  0  0  0  0  0  0  0  0
    3.6620   -0.0940    1.9070 O   0  0  0  0  0  0  0  0  0  0  0  0
   -1.1650   -0.5280   -0.3240 C   0  0  0  0  0  0  0  0  0  0  0  0
  1  2  2  0
  2  3  1  0
  2 13  1  0
  3  4  1  0
  5  4  1  6
  5  6  1  0
  5 13  1  0
  6  7  1  0
  7  8  1  0
  8  9  1  0
  8 13  2  0
  9 10  1  0
 10 11  1  0
 11 12  1  0
M  END
