
     RDKit          3D

 17 19  0  0  0  0  0  0  0  0999 V2000
   -4.2910   -0.1110    1.0700 C   0  0  0  0  0  0  0  0  0  0  0  0
   -3.0090    0.0100    0.3840 N   0  0  0  0  0  0  0  0  0  0  0  0
   -1.8260   -0.2500    0.9460 N   0  0  0  0  0  0  0  0  0  0  0  0
   -0.8470   -0.0420    0.0530 C   0  0  0  0  0  0  0  0  0  0  0  0
    0.5820   -0.2160    0.2780 C   0  0  0  0  0  0  0  0  0  0  0  0
    1.0890   -0.6300    1.4920 C   0  0  0  0  0  0  0  0  0  0  0  0
    2.4670   -0.7860    1.6720 C   0  0  0  0  0  0  0  0  0  0  0  0
    3.1820   -1.3580    3.3440 Br  0  0  0  0  0  0  0  0  0  0  0  0
    3.3360   -0.5240    0.6290 C   0  0  0  0  0  0  0  0  0  0  0  0
    2.8400   -0.1120   -0.5780 C   0  0  0  0  0  0  0  0  0  0  0  0
    1.4830    0.0350   -0.7360 C   0  0  0  0  0  0  0  0  0  0  0  0
    3.9120    0.0780   -1.4350 O   0  0  0  0  0  0  0  0  0  0  0  0
    5.0630    0.2450   -0.6290 C   0  0  0  0  0  0  0  0  0  0  0  0
    4.7250   -0.5820    0.4940 O   0  0  0  0  0  0  0  0  0  0  0  0
   -1.4740    0.3630   -1.1030 C   0  0  0  0  0  0  0  0  0  0  0  0
   -2.8350    0.3950   -0.8930 C   0  0  0  0  0  0  0  0  0  0  0  0
   -3.8600    0.7640   -1.8400 N   0  0  0  0  0  0  0  0  0  0  0  0
  1  2  1  0
  2  3  1  0
  2 16  1  0
  3  4  2  0
  4  5  1  0
  4 15  1  0
  5  6  2  0
  5 11  1  0
  6  7  1  0
  7  8  1  0
  7  9  2  0
  9 10  1  0
  9 14  1  0
 10 11  2  0
 10 12  1  0
 12 13  1  0
 13 14  1  0
 15 16  2  0
 16 17  1  0
M  END
