
     RDKit          3D

 15 15  0  0  0  0  0  0  0  0999 V2000
   -4.4800    0.5990   -0.0880 C   0  0  0  0  0  0  0  0  0  0  0  0
   -3.2150   -0.1070    0.3420 C   0  0  1  0  0  0  0  0  0  0  0  0
   -3.1350   -1.3910   -0.1710 O   0  0  0  0  0  0  0  0  0  0  0  0
   -1.9790    0.6710    0.0060 C   0  0  2  0  0  0  0  0  0  0  0  0
   -1.7420    0.8060   -1.3410 O   0  0  0  0  0  0  0  0  0  0  0  0
   -0.7970    0.0190    0.7050 C   0  0  1  0  0  0  0  0  0  0  0  0
   -0.4520   -1.2990    0.0770 C   0  0  0  0  0  0  0  0  0  0  0  0
    0.9360   -1.2900   -0.0790 O   0  0  0  0  0  0  0  0  0  0  0  0
    1.2780    0.0480   -0.2760 C   0  0  2  0  0  0  0  0  0  0  0  0
    1.1280    0.3470   -1.6340 O   0  0  0  0  0  0  0  0  0  0  0  0
    2.5890    0.3060    0.0910 O   0  0  0  0  0  0  0  0  0  0  0  0
    3.4820   -0.4500   -0.6390 C   0  0  0  0  0  0  0  0  0  0  0  0
    4.8930   -0.0920   -0.1610 C   0  0  0  0  0  0  0  0  0  0  0  0
    5.0710    1.2800   -0.3920 O   0  0  0  0  0  0  0  0  0  0  0  0
    0.3870    0.8310    0.5260 N   0  0  0  0  0  0  0  0  0  0  0  0
  2  1  1  6
  2  3  1  0
  2  4  1  0
  4  5  1  6
  4  6  1  0
  6  7  1  6
  6 15  1  0
  7  8  1  0
  8  9  1  0
  9 10  1  6
  9 11  1  0
  9 15  1  0
 11 12  1  0
 12 13  1  0
 13 14  1  0
M  END
