
     RDKit          3D

 15 15  0  0  0  0  0  0  0  0999 V2000
   -2.6230    0.3730   -0.3590 C   0  0  0  0  0  0  0  0  0  0  0  0
   -1.3360    0.3520    0.4040 C   0  0  1  0  0  0  0  0  0  0  0  0
   -1.2670    1.4950    1.3090 N   0  0  0  0  0  0  0  0  0  0  0  0
   -1.1210   -0.9250    1.1450 C   0  0  0  0  0  0  0  0  0  0  0  0
   -2.0020   -1.4710    1.8620 O   0  0  0  0  0  0  0  0  0  0  0  0
    0.1830   -1.3900    0.9100 O   0  0  0  0  0  0  0  0  0  0  0  0
    0.9150   -0.2720    0.4410 C   0  0  1  0  0  0  0  0  0  0  0  0
    1.1650    0.6290    1.6180 C   0  0  0  0  0  0  0  0  0  0  0  0
    2.1230   -0.6420   -0.2910 C   0  0  0  0  0  0  0  0  0  0  0  0
    2.8460    0.2780   -0.7510 O   0  0  0  0  0  0  0  0  0  0  0  0
    2.5310   -1.9490   -0.5160 O   0  0  0  0  0  0  0  0  0  0  0  0
    3.6640   -2.1950   -1.2060 O   0  0  0  0  0  0  0  0  0  0  0  0
   -0.1150    0.3350   -0.5160 C   0  0  1  0  0  0  0  0  0  0  0  0
   -0.3760   -0.6820   -1.5800 C   0  0  0  0  0  0  0  0  0  0  0  0
    0.2370    1.5720   -0.9650 O   0  0  0  0  0  0  0  0  0  0  0  0
  2  1  1  6
  2  3  1  0
  2  4  1  0
  2 13  1  0
  4  5  2  0
  4  6  1  0
  6  7  1  0
  7  8  1  1
  7  9  1  0
  7 13  1  0
  9 10  2  0
  9 11  1  0
 11 12  1  0
 13 14  1  6
 13 15  1  0
M  END
