
     RDKit          3D

 14 15  0  0  0  0  0  0  0  0999 V2000
    2.8920    1.3480   -0.0360 C   0  0  0  0  0  0  0  0  0  0  0  0
    1.6100    1.1860    0.4930 O   0  0  0  0  0  0  0  0  0  0  0  0
    0.8580    0.3600   -0.3340 C   0  0  1  0  0  0  0  0  0  0  0  0
    0.4580   -0.8620    0.4440 C   0  0  2  0  0  0  0  0  0  0  0  0
    1.6870   -1.6310    0.8680 C   0  0  0  0  0  0  0  0  0  0  0  0
    1.3350   -2.7720    1.6100 O   0  0  0  0  0  0  0  0  0  0  0  0
   -0.3290   -1.7110   -0.3400 O   0  0  0  0  0  0  0  0  0  0  0  0
   -1.5170   -1.1400   -0.7060 C   0  0  1  0  0  0  0  0  0  0  0  0
   -2.6340   -1.7530    0.0220 N   0  0  0  0  0  0  0  0  0  0  0  0
   -1.6300    0.3200   -0.5790 C   0  0  1  0  0  0  0  0  0  0  0  0
   -1.9490    0.7650    0.7100 O   0  0  0  0  0  0  0  0  0  0  0  0
   -1.8230    2.1400    0.5010 C   0  0  0  0  0  0  0  0  0  0  0  0
   -0.5860    2.2680   -0.1070 O   0  0  0  0  0  0  0  0  0  0  0  0
   -0.3650    1.1010   -0.8370 C   0  0  1  0  0  0  0  0  0  0  0  0
  1  2  1  0
  3  2  1  1
  3  4  1  0
  3 14  1  0
  4  5  1  6
  4  7  1  0
  5  6  1  0
  7  8  1  0
  8  9  1  1
  8 10  1  0
 10 11  1  1
 10 14  1  0
 11 12  1  0
 12 13  1  0
 14 13  1  1
M  END
