
     RDKit          3D

 16 18  0  0  0  0  0  0  0  0999 V2000
    3.7940   -0.4300    0.0120 C   0  0  0  0  0  0  0  0  0  0  0  0
    3.6220   -1.5980   -0.5000 N   0  0  0  0  0  0  0  0  0  0  0  0
    2.4370   -2.0150   -1.0110 O   0  0  0  0  0  0  0  0  0  0  0  0
    1.2420   -1.2990   -1.0820 C   0  0  0  0  0  0  0  0  0  0  0  0
    1.4100    0.0470   -0.4940 C   0  0  0  0  0  0  0  0  0  0  0  0
    0.5450    1.1240   -0.3310 C   0  0  0  0  0  0  0  0  0  0  0  0
   -0.7870    1.2450   -0.6780 O   0  0  0  0  0  0  0  0  0  0  0  0
   -1.7290    0.4420   -0.0860 C   0  0  0  0  0  0  0  0  0  0  0  0
   -3.0550    0.4760   -0.5370 C   0  0  0  0  0  0  0  0  0  0  0  0
   -3.9990   -0.3280    0.0580 C   0  0  0  0  0  0  0  0  0  0  0  0
   -3.5880   -1.1480    1.0930 C   0  0  0  0  0  0  0  0  0  0  0  0
   -2.3060   -1.1550    1.5000 N   0  0  0  0  0  0  0  0  0  0  0  0
   -1.3560   -0.3850    0.9450 C   0  0  0  0  0  0  0  0  0  0  0  0
    1.3060    2.1120    0.2740 C   0  0  0  0  0  0  0  0  0  0  0  0
    2.5650    1.7100    0.4880 N   0  0  0  0  0  0  0  0  0  0  0  0
    2.6430    0.4520    0.0250 C   0  0  0  0  0  0  0  0  0  0  0  0
  1  2  2  0
  1 16  1  0
  2  3  1  0
  3  4  1  0
  4  5  1  0
  5  6  1  0
  5 16  2  0
  6  7  1  0
  6 14  2  0
  7  8  1  0
  8  9  2  0
  8 13  1  0
  9 10  1  0
 10 11  2  0
 11 12  1  0
 12 13  2  0
 14 15  1  0
 15 16  1  0
M  END
