
     RDKit          3D

 16 17  0  0  0  0  0  0  0  0999 V2000
   -0.5310    1.1080   -2.3590 N   0  0  0  0  0  0  0  0  0  0  0  0
   -1.2960    0.7320   -1.2150 C   0  0  0  0  0  0  0  0  0  0  0  0
   -2.4820    1.2360   -1.0950 N   0  0  0  0  0  0  0  0  0  0  0  0
   -3.4970    1.0910   -0.1150 C   0  0  0  0  0  0  0  0  0  0  0  0
   -4.6320    1.6290   -0.3760 O   0  0  0  0  0  0  0  0  0  0  0  0
   -3.4290    0.3990    1.1790 C   0  0  0  0  0  0  0  0  0  0  0  0
   -2.5440   -0.8250    1.1230 C   0  0  0  0  0  0  0  0  0  0  0  0
   -1.0680   -0.4110    1.0770 C   0  0  0  0  0  0  0  0  0  0  0  0
   -0.6770   -0.1740   -0.3050 N   0  0  0  0  0  0  0  0  0  0  0  0
    0.4330   -0.9030   -0.8450 C   0  0  0  0  0  0  0  0  0  0  0  0
    1.7590   -0.5250   -0.3420 C   0  0  0  0  0  0  0  0  0  0  0  0
    1.9320    0.4530    0.5120 C   0  0  0  0  0  0  0  0  0  0  0  0
    3.2680    0.8720    1.0530 C   0  0  0  0  0  0  0  0  0  0  0  0
    4.3360    0.1190    0.5690 O   0  0  0  0  0  0  0  0  0  0  0  0
    4.1470   -0.9060   -0.3290 C   0  0  0  0  0  0  0  0  0  0  0  0
    2.9410   -1.2470   -0.7890 C   0  0  0  0  0  0  0  0  0  0  0  0
  1  2  1  0
  2  3  2  0
  2  9  1  0
  3  4  1  0
  4  5  2  0
  4  6  1  0
  6  7  1  0
  7  8  1  0
  8  9  1  0
  9 10  1  0
 10 11  1  0
 11 12  2  0
 11 16  1  0
 12 13  1  0
 13 14  1  0
 14 15  1  0
 15 16  2  0
M  END
