
     RDKit          3D

 16 18  0  0  0  0  0  0  0  0999 V2000
   -3.7940   -1.5910    0.1400 N   0  0  0  0  0  0  0  0  0  0  0  0
   -2.8840   -0.6740    0.1030 C   0  0  0  0  0  0  0  0  0  0  0  0
   -3.2390    0.6990    0.2050 N   0  0  0  0  0  0  0  0  0  0  0  0
   -2.1930    1.6300    0.1570 C   0  0  0  0  0  0  0  0  0  0  0  0
   -2.4750    2.8520    0.2360 O   0  0  0  0  0  0  0  0  0  0  0  0
   -0.7640    1.2820    0.0180 C   0  0  0  0  0  0  0  0  0  0  0  0
   -0.4840   -0.1150   -0.0860 N   0  0  0  0  0  0  0  0  0  0  0  0
   -1.4630   -1.0210   -0.0430 C   0  0  0  0  0  0  0  0  0  0  0  0
   -0.9320   -2.3040   -0.1600 C   0  0  0  0  0  0  0  0  0  0  0  0
    0.4180   -2.0980   -0.2750 C   0  0  0  0  0  0  0  0  0  0  0  0
    0.7210   -0.7410   -0.2310 C   0  0  0  0  0  0  0  0  0  0  0  0
    2.0490   -0.1500   -0.3240 C   0  0  0  0  0  0  0  0  0  0  0  0
    2.4210    1.1680   -0.2920 C   0  0  0  0  0  0  0  0  0  0  0  0
    3.8130    1.2350   -0.4170 C   0  0  0  0  0  0  0  0  0  0  0  0
    4.2040   -0.0820   -0.5170 C   0  0  0  0  0  0  0  0  0  0  0  0
    3.1630   -0.8490   -0.4600 O   0  0  0  0  0  0  0  0  0  0  0  0
  1  2  2  0
  2  3  1  0
  2  8  1  0
  3  4  1  0
  4  5  2  0
  4  6  1  0
  6  7  1  0
  7  8  1  0
  7 11  1  0
  8  9  2  0
  9 10  1  0
 10 11  2  0
 11 12  1  0
 12 13  2  0
 12 16  1  0
 13 14  1  0
 14 15  2  0
 15 16  1  0
M  END
