
     RDKit          3D

 16 18  0  0  0  0  0  0  0  0999 V2000
   -4.4700    0.9660    2.1960 O   0  0  0  0  0  0  0  0  0  0  0  0
   -3.7920    0.6110    1.2060 C   0  0  0  0  0  0  0  0  0  0  0  0
   -2.4080    0.5920    1.2820 C   0  0  0  0  0  0  0  0  0  0  0  0
   -1.7230    0.1960    0.1720 C   0  0  0  0  0  0  0  0  0  0  0  0
   -0.2490    0.1370    0.1390 C   0  0  0  0  0  0  0  0  0  0  0  0
    0.5130   -0.2500   -0.9380 C   0  0  0  0  0  0  0  0  0  0  0  0
    1.8350   -0.1660   -0.5620 C   0  0  0  0  0  0  0  0  0  0  0  0
    3.0040   -0.4380   -1.2570 C   0  0  0  0  0  0  0  0  0  0  0  0
    4.2030   -0.2500   -0.5840 C   0  0  0  0  0  0  0  0  0  0  0  0
    4.1900    0.1920    0.7260 C   0  0  0  0  0  0  0  0  0  0  0  0
    3.0260    0.4440    1.3620 N   0  0  0  0  0  0  0  0  0  0  0  0
    1.8240    0.2740    0.7430 C   0  0  0  0  0  0  0  0  0  0  0  0
    0.5780    0.4330    1.0950 O   0  0  0  0  0  0  0  0  0  0  0  0
   -2.4380   -0.1560   -0.9420 C   0  0  0  0  0  0  0  0  0  0  0  0
   -3.7630   -0.1210   -0.9640 N   0  0  0  0  0  0  0  0  0  0  0  0
   -4.4470    0.2540    0.0850 N   0  0  0  0  0  0  0  0  0  0  0  0
  1  2  2  0
  2  3  1  0
  2 16  1  0
  3  4  2  0
  4  5  1  0
  4 14  1  0
  5  6  2  0
  5 13  1  0
  6  7  1  0
  7  8  2  0
  7 12  1  0
  8  9  1  0
  9 10  2  0
 10 11  1  0
 11 12  2  0
 12 13  1  0
 14 15  2  0
 15 16  1  0
M  END
