
     RDKit          3D

 16 18  0  0  0  0  0  0  0  0999 V2000
   -3.4820    1.5460    0.4990 C   0  0  0  0  0  0  0  0  0  0  0  0
   -2.7480    0.3560   -0.0370 C   0  0  0  0  0  0  0  0  0  0  0  0
   -3.3420   -0.8150   -0.4570 C   0  0  0  0  0  0  0  0  0  0  0  0
   -2.3380   -1.6570   -0.8740 C   0  0  0  0  0  0  0  0  0  0  0  0
   -1.1350   -0.9500   -0.6870 C   0  0  0  0  0  0  0  0  0  0  0  0
    0.1410   -1.5410   -1.0200 C   0  0  0  0  0  0  0  0  0  0  0  0
    1.3300   -1.1170   -0.6450 C   0  0  0  0  0  0  0  0  0  0  0  0
    2.5530   -1.7890   -1.0320 N   0  0  0  0  0  0  0  0  0  0  0  0
    3.5810   -1.2090   -0.5950 C   0  0  0  0  0  0  0  0  0  0  0  0
    3.1650   -0.0440    0.1600 C   0  0  0  0  0  0  0  0  0  0  0  0
    3.5910    1.0100    0.8780 N   0  0  0  0  0  0  0  0  0  0  0  0
    2.5110    1.6810    1.2670 C   0  0  0  0  0  0  0  0  0  0  0  0
    2.5270    2.7290    1.9580 O   0  0  0  0  0  0  0  0  0  0  0  0
    1.3850    1.0820    0.8180 N   0  0  0  0  0  0  0  0  0  0  0  0
    1.7750    0.0130    0.1300 C   0  0  0  0  0  0  0  0  0  0  0  0
   -1.4790    0.1930   -0.2040 O   0  0  0  0  0  0  0  0  0  0  0  0
  1  2  1  0
  2  3  2  0
  2 16  1  0
  3  4  1  0
  4  5  2  0
  5  6  1  0
  5 16  1  0
  6  7  2  3
  7  8  1  0
  7 15  1  0
  8  9  2  0
  9 10  1  0
 10 11  1  0
 10 15  2  0
 11 12  1  0
 12 13  2  0
 12 14  1  0
 14 15  1  0
M  END
