
     RDKit          3D

 16 18  0  0  0  0  0  0  0  0999 V2000
    3.3490    2.0860    0.5820 O   0  0  0  0  0  0  0  0  0  0  0  0
    2.2290    1.5810    0.3610 C   0  0  0  0  0  0  0  0  0  0  0  0
    1.1340    2.3840    0.4090 N   0  0  0  0  0  0  0  0  0  0  0  0
   -0.1550    2.1110    0.1450 C   0  0  0  0  0  0  0  0  0  0  0  0
   -0.9220    3.1130    0.1100 O   0  0  0  0  0  0  0  0  0  0  0  0
   -0.7580    0.9230   -0.0900 N   0  0  0  0  0  0  0  0  0  0  0  0
   -0.2290   -0.3060    0.0360 C   0  0  0  0  0  0  0  0  0  0  0  0
    1.1190   -0.6670   -0.0650 C   0  0  0  0  0  0  0  0  0  0  0  0
    1.5710   -1.9290   -0.3260 C   0  0  0  0  0  0  0  0  0  0  0  0
    2.9400   -1.8770   -0.3440 C   0  0  0  0  0  0  0  0  0  0  0  0
    3.3740   -0.5690   -0.0910 C   0  0  0  0  0  0  0  0  0  0  0  0
    2.2820    0.2310    0.0910 C   0  0  0  0  0  0  0  0  0  0  0  0
   -1.0040   -1.4660    0.3040 N   0  0  0  0  0  0  0  0  0  0  0  0
   -2.4220   -1.3990    0.0280 C   0  0  0  0  0  0  0  0  0  0  0  0
   -2.9610    0.0010    0.1620 C   0  0  0  0  0  0  0  0  0  0  0  0
   -2.1350    1.0350   -0.5290 C   0  0  0  0  0  0  0  0  0  0  0  0
  1  2  2  0
  2  3  1  0
  2 12  1  0
  3  4  1  0
  4  5  2  0
  4  6  1  0
  6  7  1  0
  6 16  1  0
  7  8  2  0
  7 13  1  0
  8  9  1  0
  8 12  1  0
  9 10  2  0
 10 11  1  0
 11 12  2  0
 13 14  1  0
 14 15  1  0
 15 16  1  0
M  END
