
     RDKit          3D

 16 18  0  0  0  0  0  0  0  0999 V2000
    4.9690    1.1200   -1.4520 O   0  0  0  0  0  0  0  0  0  0  0  0
    4.1280    0.3160   -0.6980 C   0  0  0  0  0  0  0  0  0  0  0  0
    2.7580    0.5160   -0.8030 C   0  0  0  0  0  0  0  0  0  0  0  0
    1.8910   -0.2650   -0.0690 C   0  0  0  0  0  0  0  0  0  0  0  0
    0.4480   -0.0900   -0.1470 C   0  0  0  0  0  0  0  0  0  0  0  0
   -0.2420    0.7910   -0.8890 N   0  0  0  0  0  0  0  0  0  0  0  0
   -1.5570    0.6370   -0.6840 C   0  0  0  0  0  0  0  0  0  0  0  0
   -1.6630   -0.3910    0.2290 C   0  0  0  0  0  0  0  0  0  0  0  0
   -0.4330   -0.8290    0.5510 N   0  0  0  0  0  0  0  0  0  0  0  0
   -3.0500   -0.7520    0.6200 C   0  0  0  0  0  0  0  0  0  0  0  0
   -4.0120    0.3610    0.4810 C   0  0  0  0  0  0  0  0  0  0  0  0
   -3.8790    1.2090   -0.5450 O   0  0  0  0  0  0  0  0  0  0  0  0
   -2.7160    1.3130   -1.2200 C   0  0  0  0  0  0  0  0  0  0  0  0
    2.4700   -1.2220    0.7460 C   0  0  0  0  0  0  0  0  0  0  0  0
    3.8360   -1.3870    0.8210 C   0  0  0  0  0  0  0  0  0  0  0  0
    4.6720   -0.6240    0.1030 N   0  0  0  0  0  0  0  0  0  0  0  0
  1  2  1  0
  2  3  2  0
  2 16  1  0
  3  4  1  0
  4  5  1  0
  4 14  2  0
  5  6  2  0
  5  9  1  0
  6  7  1  0
  7  8  2  0
  7 13  1  0
  8  9  1  0
  8 10  1  0
 10 11  1  0
 11 12  1  0
 12 13  1  0
 14 15  1  0
 15 16  2  0
M  END
