
     RDKit          3D

 22 24  0  0  0  0  0  0  0  0999 V2000
   -3.7670   -0.9870   -2.1030 C   0  0  0  0  0  0  0  0  0  0  0  0
   -3.8080    0.1730   -1.1760 C   0  0  0  0  0  0  0  0  0  0  0  0
   -4.8100    1.1050   -1.2340 C   0  0  0  0  0  0  0  0  0  0  0  0
   -4.8950    2.1860   -0.4080 C   0  0  0  0  0  0  0  0  0  0  0  0
   -3.9170    2.3420    0.5310 C   0  0  0  0  0  0  0  0  0  0  0  0
   -2.8630    1.4270    0.6460 C   0  0  0  0  0  0  0  0  0  0  0  0
   -1.9190    1.6500    1.6120 O   0  0  0  0  0  0  0  0  0  0  0  0
   -2.8100    0.3320   -0.2170 C   0  0  0  0  0  0  0  0  0  0  0  0
   -1.7620   -0.6530   -0.1650 C   0  0  0  0  0  0  0  0  0  0  0  0
   -1.7460   -1.6190   -0.9520 O   0  0  0  0  0  0  0  0  0  0  0  0
   -0.7370   -0.5890    0.7360 O   0  0  0  0  0  0  0  0  0  0  0  0
    0.2710   -1.5390    0.7850 C   0  0  2  0  0  0  0  0  0  0  0  0
    0.3440   -2.2920    2.0890 C   0  0  0  0  0  0  0  0  0  0  0  0
    1.6130   -0.9670    0.4690 C   0  0  0  0  0  0  0  0  0  0  0  0
    2.7150   -1.2790    1.2310 C   0  0  0  0  0  0  0  0  0  0  0  0
    3.9630   -0.7490    0.9400 C   0  0  0  0  0  0  0  0  0  0  0  0
    4.1290    0.1160   -0.1360 C   0  0  0  0  0  0  0  0  0  0  0  0
    3.0240    0.4280   -0.8990 C   0  0  0  0  0  0  0  0  0  0  0  0
    1.7820   -0.1080   -0.5980 C   0  0  0  0  0  0  0  0  0  0  0  0
    3.4930    1.3390   -1.9370 C   0  0  0  0  0  0  0  0  0  0  0  0
    4.7850    1.5680   -1.8210 C   0  0  0  0  0  0  0  0  0  0  0  0
    5.3180    0.8180   -0.6700 C   0  0  0  0  0  0  0  0  0  0  0  0
  1  2  1  0
  2  3  2  0
  2  8  1  0
  3  4  1  0
  4  5  2  0
  5  6  1  0
  6  7  1  0
  6  8  2  0
  8  9  1  0
  9 10  2  0
  9 11  1  0
 11 12  1  0
 12 13  1  1
 12 14  1  0
 14 15  2  0
 14 19  1  0
 15 16  1  0
 16 17  2  0
 17 18  1  0
 17 22  1  0
 18 19  2  0
 18 20  1  0
 20 21  2  0
 21 22  1  0
M  END
