
     RDKit          3D

 22 24  0  0  0  0  0  0  0  0999 V2000
    2.7560    0.8570    2.4340 C   0  0  0  0  0  0  0  0  0  0  0  0
    3.1750    0.4170    1.0790 C   0  0  0  0  0  0  0  0  0  0  0  0
    4.3270   -0.3060    0.8930 C   0  0  0  0  0  0  0  0  0  0  0  0
    4.6770   -0.6950   -0.3830 C   0  0  0  0  0  0  0  0  0  0  0  0
    5.9320   -1.4870   -0.6200 C   0  0  0  0  0  0  0  0  0  0  0  0
    3.8650   -0.3500   -1.4400 C   0  0  0  0  0  0  0  0  0  0  0  0
    2.6850    0.3850   -1.2860 C   0  0  0  0  0  0  0  0  0  0  0  0
    1.9580    0.6700   -2.4080 O   0  0  0  0  0  0  0  0  0  0  0  0
    0.7660    1.3700   -2.5090 C   0  0  0  0  0  0  0  0  0  0  0  0
   -0.3410    0.7300   -1.7520 C   0  0  0  0  0  0  0  0  0  0  0  0
   -0.3070   -0.5180   -1.1690 C   0  0  0  0  0  0  0  0  0  0  0  0
   -1.5660   -0.6770   -0.5810 C   0  0  0  0  0  0  0  0  0  0  0  0
   -2.2860    0.4720   -0.8370 C   0  0  0  0  0  0  0  0  0  0  0  0
   -1.5220    1.2540   -1.5220 O   0  0  0  0  0  0  0  0  0  0  0  0
   -3.6860    0.7270   -0.3900 C   0  0  2  0  0  0  0  0  0  0  0  0
   -4.0130    2.0770   -0.4530 O   0  0  0  0  0  0  0  0  0  0  0  0
   -3.8720    0.1600    0.9990 C   0  0  1  0  0  0  0  0  0  0  0  0
   -4.8340    0.9940    1.8030 C   0  0  0  0  0  0  0  0  0  0  0  0
   -4.2990   -1.2860    0.9090 C   0  0  0  0  0  0  0  0  0  0  0  0
   -3.0740   -2.1310    0.7650 C   0  0  0  0  0  0  0  0  0  0  0  0
   -1.9260   -1.8950    0.1490 C   0  0  0  0  0  0  0  0  0  0  0  0
    2.3640    0.7580    0.0000 C   0  0  0  0  0  0  0  0  0  0  0  0
  1  2  1  0
  2  3  2  0
  2 22  1  0
  3  4  1  0
  4  5  1  0
  4  6  2  0
  6  7  1  0
  7  8  1  0
  7 22  2  0
  8  9  1  0
  9 10  1  0
 10 11  2  0
 10 14  1  0
 11 12  1  0
 12 13  2  0
 12 21  1  0
 13 14  1  0
 13 15  1  0
 15 16  1  1
 15 17  1  0
 17 18  1  6
 17 19  1  0
 19 20  1  0
 20 21  2  0
M  END
