
     RDKit          3D

 22 23  0  0  0  0  0  0  0  0999 V2000
    1.5420   -4.6760   -1.6850 C   0  0  0  0  0  0  0  0  0  0  0  0
    0.7510   -3.6180   -1.7640 C   0  0  0  0  0  0  0  0  0  0  0  0
    0.8330   -2.5580   -0.7440 C   0  0  0  0  0  0  0  0  0  0  0  0
    1.1760   -1.3100   -1.3240 O   0  0  0  0  0  0  0  0  0  0  0  0
    1.3290   -0.2080   -0.5120 C   0  0  0  0  0  0  0  0  0  0  0  0
    0.1710    0.5100   -0.0880 C   0  0  0  0  0  0  0  0  0  0  0  0
   -1.0740    0.2420   -0.4610 C   0  0  0  0  0  0  0  0  0  0  0  0
   -2.1510    1.0920    0.0960 C   0  0  0  0  0  0  0  0  0  0  0  0
   -3.4080    0.9130   -0.2310 C   0  0  0  0  0  0  0  0  0  0  0  0
   -3.9880    0.0040   -1.0860 O   0  0  0  0  0  0  0  0  0  0  0  0
   -5.4300    0.0820   -1.0180 C   0  0  0  0  0  0  0  0  0  0  0  0
   -5.6440    1.5530   -0.6890 C   0  0  0  0  0  0  0  0  0  0  0  0
   -4.5410    1.7340    0.3340 C   0  0  0  0  0  0  0  0  0  0  0  0
   -4.4530    2.3830    1.3830 C   0  0  0  0  0  0  0  0  0  0  0  0
    2.5300    0.1930   -0.1030 C   0  0  0  0  0  0  0  0  0  0  0  0
    2.6430    1.3750    0.7440 C   0  0  0  0  0  0  0  0  0  0  0  0
    3.6720    1.5500    1.5960 C   0  0  0  0  0  0  0  0  0  0  0  0
    3.7570    2.7140    2.4410 C   0  0  0  0  0  0  0  0  0  0  0  0
    4.7920    2.7510    3.2250 O   0  0  0  0  0  0  0  0  0  0  0  0
    4.7770    0.6100    1.4680 C   0  0  0  0  0  0  0  0  0  0  0  0
    4.8190   -0.3480    0.5740 C   0  0  0  0  0  0  0  0  0  0  0  0
    3.7520   -0.5690   -0.4090 C   0  0  0  0  0  0  0  0  0  0  0  0
  1  2  2  0
  2  3  1  0
  3  4  1  0
  4  5  1  0
  5  6  1  0
  5 15  2  3
  6  7  2  3
  7  8  1  0
  8  9  2  3
  9 10  1  0
  9 13  1  0
 10 11  1  0
 11 12  1  0
 12 13  1  0
 13 14  2  0
 15 16  1  0
 15 22  1  0
 16 17  2  0
 17 18  1  0
 17 20  1  0
 18 19  2  0
 20 21  2  0
 21 22  1  0
M  END
