
     RDKit          3D

 22 23  0  0  0  0  0  0  0  0999 V2000
   -2.5160    2.3320   -1.7140 C   0  0  0  0  0  0  0  0  0  0  0  0
   -2.2830    1.0470   -1.5340 C   0  0  0  0  0  0  0  0  0  0  0  0
   -1.5580    0.1520   -2.5110 C   0  0  0  0  0  0  0  0  0  0  0  0
   -1.0060   -0.9310   -1.6580 C   0  0  2  0  0  0  0  0  0  0  0  0
   -1.4060   -2.1550   -2.2590 O   0  0  0  0  0  0  0  0  0  0  0  0
   -1.6170   -0.7990   -0.3070 C   0  0  2  0  0  0  0  0  0  0  0  0
   -0.5210   -0.4080    0.6660 C   0  0  0  0  0  0  0  0  0  0  0  0
   -0.3450    0.8060    0.8860 O   0  0  0  0  0  0  0  0  0  0  0  0
    0.2690   -1.3070    1.3020 O   0  0  0  0  0  0  0  0  0  0  0  0
    1.2800   -1.1900    2.1920 C   0  0  0  0  0  0  0  0  0  0  0  0
    2.4850   -0.5180    1.5900 C   0  0  0  0  0  0  0  0  0  0  0  0
    3.4460    0.0320    1.1030 C   0  0  0  0  0  0  0  0  0  0  0  0
    4.5960    0.7180    0.5260 C   0  0  2  0  0  0  0  0  0  0  0  0
    5.2960   -0.1820   -0.4940 C   0  0  0  0  0  0  0  0  0  0  0  0
    5.5750    1.0950    1.6520 C   0  0  0  0  0  0  0  0  0  0  0  0
    4.1810    1.9840   -0.1170 C   0  0  0  0  0  0  0  0  0  0  0  0
   -2.1010   -2.1320    0.2380 C   0  0  0  0  0  0  0  0  0  0  0  0
   -3.3720   -2.1270    0.9750 C   0  0  0  0  0  0  0  0  0  0  0  0
   -3.8450   -0.7810    1.4870 C   0  0  0  0  0  0  0  0  0  0  0  0
   -3.6900    0.2440    0.4060 C   0  0  0  0  0  0  0  0  0  0  0  0
   -4.6740    1.3340    0.2830 C   0  0  0  0  0  0  0  0  0  0  0  0
   -2.6610    0.1940   -0.4180 C   0  0  0  0  0  0  0  0  0  0  0  0
  1  2  2  0
  2  3  1  0
  2 22  1  0
  3  4  1  0
  4  5  1  6
  4  6  1  0
  6  7  1  1
  6 17  1  0
  6 22  1  0
  7  8  2  0
  7  9  1  0
  9 10  1  0
 10 11  1  0
 11 12  3  0
 12 13  1  0
 13 14  1  6
 13 15  1  0
 13 16  1  0
 17 18  1  0
 18 19  1  0
 19 20  1  0
 20 21  1  0
 20 22  2  0
M  END
