
     RDKit          3D

 22 24  0  0  0  0  0  0  0  0999 V2000
    4.3240    1.5310    1.8840 C   0  0  0  0  0  0  0  0  0  0  0  0
    5.0340    1.3870    0.5430 C   0  0  0  0  0  0  0  0  0  0  0  0
    4.2330    0.4800   -0.3260 C   0  0  0  0  0  0  0  0  0  0  0  0
    4.6500    0.1180   -1.6140 C   0  0  0  0  0  0  0  0  0  0  0  0
    3.6740   -0.7160   -2.1060 C   0  0  0  0  0  0  0  0  0  0  0  0
    2.6920   -0.8410   -1.1120 C   0  0  0  0  0  0  0  0  0  0  0  0
    1.4920   -1.6620   -1.2880 C   0  0  0  0  0  0  0  0  0  0  0  0
    0.2680   -1.3050   -0.9850 C   0  0  0  0  0  0  0  0  0  0  0  0
   -0.0190    0.0060   -0.4240 C   0  0  0  0  0  0  0  0  0  0  0  0
    0.8180    0.9160   -0.3670 O   0  0  0  0  0  0  0  0  0  0  0  0
   -1.3700    0.2750    0.1050 C   0  0  0  0  0  0  0  0  0  0  0  0
   -1.6610    1.5450    0.6130 C   0  0  0  0  0  0  0  0  0  0  0  0
   -2.9130    1.8470    1.0830 C   0  0  0  0  0  0  0  0  0  0  0  0
   -3.2450    3.1750    1.6270 C   0  0  0  0  0  0  0  0  0  0  0  0
   -3.8840    0.8730    1.0450 C   0  0  0  0  0  0  0  0  0  0  0  0
   -3.5910   -0.3850    0.5400 C   0  0  0  0  0  0  0  0  0  0  0  0
   -4.6240   -1.4560    0.4720 C   0  0  0  0  0  0  0  0  0  0  0  0
   -2.3150   -0.6890    0.0650 C   0  0  0  0  0  0  0  0  0  0  0  0
   -2.0670   -2.0360   -0.4250 C   0  0  0  0  0  0  0  0  0  0  0  0
   -0.8430   -2.2670   -1.2340 C   0  0  1  0  0  0  0  0  0  0  0  0
   -1.1210   -2.3310   -2.6080 O   0  0  0  0  0  0  0  0  0  0  0  0
    3.1030   -0.1110   -0.1140 O   0  0  0  0  0  0  0  0  0  0  0  0
  1  2  1  0
  2  3  1  0
  3  4  2  0
  3 22  1  0
  4  5  1  0
  5  6  2  0
  6  7  1  0
  6 22  1  0
  7  8  2  3
  8  9  1  0
  8 20  1  0
  9 10  2  0
  9 11  1  0
 11 12  2  0
 11 18  1  0
 12 13  1  0
 13 14  1  0
 13 15  2  0
 15 16  1  0
 16 17  1  0
 16 18  2  0
 18 19  1  0
 19 20  1  0
 20 21  1  6
M  END
