
     RDKit          3D

 21 23  0  0  0  0  0  0  0  0999 V2000
    3.4200    3.8260    0.0360 C   0  0  0  0  0  0  0  0  0  0  0  0
    2.2840    2.8780   -0.0060 C   0  0  0  0  0  0  0  0  0  0  0  0
    2.4460    1.6140   -0.3380 C   0  0  0  0  0  0  0  0  0  0  0  0
    3.6480    0.9640   -0.6930 O   0  0  0  0  0  0  0  0  0  0  0  0
    3.3560   -0.3940   -1.0690 C   0  0  0  0  0  0  0  0  0  0  0  0
    2.1460   -0.6750   -0.1930 C   0  0  2  0  0  0  0  0  0  0  0  0
    1.5160   -1.8450   -0.4140 O   0  0  0  0  0  0  0  0  0  0  0  0
    1.5040   -2.6100    0.7390 C   0  0  0  0  0  0  0  0  0  0  0  0
    1.3840    0.5720   -0.4160 C   0  0  0  0  0  0  0  0  0  0  0  0
    0.1320    0.8490   -0.5970 C   0  0  0  0  0  0  0  0  0  0  0  0
   -0.9570   -0.1030   -0.6900 C   0  0  0  0  0  0  0  0  0  0  0  0
   -1.0280   -1.1670   -1.5390 C   0  0  0  0  0  0  0  0  0  0  0  0
   -2.0950   -2.0630   -1.5470 C   0  0  0  0  0  0  0  0  0  0  0  0
   -2.1210   -3.1200   -2.4200 O   0  0  0  0  0  0  0  0  0  0  0  0
   -3.1470   -1.9000   -0.6730 C   0  0  0  0  0  0  0  0  0  0  0  0
   -3.0900   -0.8350    0.1840 C   0  0  0  0  0  0  0  0  0  0  0  0
   -4.1510   -0.6630    1.0690 C   0  0  0  0  0  0  0  0  0  0  0  0
   -4.1710    0.3790    1.9600 C   0  0  0  0  0  0  0  0  0  0  0  0
   -3.1230    1.2720    1.9800 C   0  0  0  0  0  0  0  0  0  0  0  0
   -2.0730    1.0820    1.0880 C   0  0  0  0  0  0  0  0  0  0  0  0
   -2.0340    0.0460    0.1880 C   0  0  0  0  0  0  0  0  0  0  0  0
  1  2  1  0
  2  3  2  3
  3  4  1  0
  3  9  1  0
  4  5  1  0
  5  6  1  0
  6  7  1  6
  6  9  1  0
  7  8  1  0
  9 10  2  3
 10 11  1  0
 11 12  2  0
 11 21  1  0
 12 13  1  0
 13 14  1  0
 13 15  2  0
 15 16  1  0
 16 17  2  0
 16 21  1  0
 17 18  1  0
 18 19  2  0
 19 20  1  0
 20 21  2  0
M  END
