
     RDKit          3D

 22 23  0  0  0  0  0  0  0  0999 V2000
   -4.6610    0.8100   -1.0540 C   0  0  0  0  0  0  0  0  0  0  0  0
   -3.7660   -0.4000   -0.7810 C   0  0  1  0  0  0  0  0  0  0  0  0
   -4.1910   -1.1570    0.4370 C   0  0  0  0  0  0  0  0  0  0  0  0
   -3.7160   -1.2180   -2.0300 C   0  0  0  0  0  0  0  0  0  0  0  0
   -2.4050    0.1780   -0.4900 C   0  0  0  0  0  0  0  0  0  0  0  0
   -1.4540   -0.1350   -1.2080 O   0  0  0  0  0  0  0  0  0  0  0  0
   -2.2580    1.0060    0.5220 O   0  0  0  0  0  0  0  0  0  0  0  0
   -1.3950    1.7630    1.2070 C   0  0  0  0  0  0  0  0  0  0  0  0
   -0.2330    1.1040    1.8500 C   0  0  1  0  0  0  0  0  0  0  0  0
    0.5280    2.2060    2.6870 C   0  0  0  0  0  0  0  0  0  0  0  0
   -0.4960   -0.0490    2.7230 C   0  0  0  0  0  0  0  0  0  0  0  0
    0.8680    0.7550    0.8580 C   0  0  0  0  0  0  0  0  0  0  0  0
    0.8120    1.2520   -0.2580 O   0  0  0  0  0  0  0  0  0  0  0  0
    1.8910   -0.1310    1.3310 C   0  0  0  0  0  0  0  0  0  0  0  0
    2.9370   -0.6030    0.7560 C   0  0  0  0  0  0  0  0  0  0  0  0
    3.8930   -1.5220    1.4200 C   0  0  0  0  0  0  0  0  0  0  0  0
    4.8540   -1.8330    0.5910 C   0  0  0  0  0  0  0  0  0  0  0  0
    4.6900   -1.1960   -0.6900 C   0  0  0  0  0  0  0  0  0  0  0  0
    5.2330   -1.0700   -1.8910 C   0  0  0  0  0  0  0  0  0  0  0  0
    4.3780   -0.1730   -2.6680 C   0  0  0  0  0  0  0  0  0  0  0  0
    3.2790    0.1960   -1.7540 C   0  0  0  0  0  0  0  0  0  0  0  0
    3.4580   -0.4050   -0.5870 C   0  0  0  0  0  0  0  0  0  0  0  0
  2  1  1  6
  2  3  1  0
  2  4  1  0
  2  5  1  0
  5  6  2  0
  5  7  1  0
  7  8  1  0
  8  9  1  0
  9 10  1  1
  9 11  1  0
  9 12  1  0
 12 13  2  0
 12 14  1  0
 14 15  2  3
 15 16  1  0
 15 22  1  0
 16 17  2  0
 17 18  1  0
 18 19  2  0
 18 22  1  0
 19 20  1  0
 20 21  1  0
 21 22  2  0
M  END
