
     RDKit          3D

 23 24  0  0  0  0  0  0  0  0999 V2000
   -3.5940   -2.9140   -1.1000 O   0  0  0  0  0  0  0  0  0  0  0  0
   -2.6560   -2.4320   -0.1910 C   0  0  0  0  0  0  0  0  0  0  0  0
   -2.5360   -0.9340   -0.3690 C   0  0  1  0  0  0  0  0  0  0  0  0
   -3.7710   -0.3370   -0.1360 O   0  0  0  0  0  0  0  0  0  0  0  0
   -3.6280    1.0460   -0.3200 C   0  0  2  0  0  0  0  0  0  0  0  0
   -2.9700    1.3470   -1.4930 O   0  0  0  0  0  0  0  0  0  0  0  0
   -2.9190    1.5720    0.9060 C   0  0  2  0  0  0  0  0  0  0  0  0
   -2.1830    2.7090    0.6260 O   0  0  0  0  0  0  0  0  0  0  0  0
   -2.0840    0.4950    1.5580 C   0  0  1  0  0  0  0  0  0  0  0  0
   -2.9070   -0.2890    2.3750 O   0  0  0  0  0  0  0  0  0  0  0  0
   -1.4630   -0.4370    0.5440 C   0  0  2  0  0  0  0  0  0  0  0  0
   -0.4930    0.1900   -0.2280 O   0  0  0  0  0  0  0  0  0  0  0  0
    0.7820   -0.3850   -0.0260 C   0  0  2  0  0  0  0  0  0  0  0  0
    1.5820    0.6290    0.4670 O   0  0  0  0  0  0  0  0  0  0  0  0
    2.8570    0.1560    0.7100 C   0  0  2  0  0  0  0  0  0  0  0  0
    3.5480    1.1450    1.6260 C   0  0  0  0  0  0  0  0  0  0  0  0
    4.8440    0.7530    1.9290 O   0  0  0  0  0  0  0  0  0  0  0  0
    3.5620    0.0450   -0.6250 C   0  0  2  0  0  0  0  0  0  0  0  0
    4.0780    1.3210   -0.9340 O   0  0  0  0  0  0  0  0  0  0  0  0
    2.6280   -0.3310   -1.7300 C   0  0  2  0  0  0  0  0  0  0  0  0
    2.3350    0.7430   -2.5780 O   0  0  0  0  0  0  0  0  0  0  0  0
    1.3520   -0.9560   -1.2800 C   0  0  1  0  0  0  0  0  0  0  0  0
    1.5660   -2.3410   -1.1920 O   0  0  0  0  0  0  0  0  0  0  0  0
  1  2  1  0
  3  2  1  1
  3  4  1  0
  3 11  1  0
  4  5  1  0
  5  6  1  6
  5  7  1  0
  7  8  1  6
  7  9  1  0
  9 10  1  1
  9 11  1  0
 11 12  1  6
 13 12  1  6
 13 14  1  0
 13 22  1  0
 14 15  1  0
 15 16  1  1
 15 18  1  0
 16 17  1  0
 18 19  1  6
 18 20  1  0
 20 21  1  1
 20 22  1  0
 22 23  1  1
M  END
