
     RDKit          3D

 22 22  0  0  0  0  0  0  0  0999 V2000
    2.8620   -2.2260    1.4270 C   0  0  0  0  0  0  0  0  0  0  0  0
    2.5790   -0.8990    1.0510 O   0  0  0  0  0  0  0  0  0  0  0  0
    2.5440   -0.5940   -0.3050 C   0  0  0  0  0  0  0  0  0  0  0  0
    2.7660   -1.5140   -1.1330 O   0  0  0  0  0  0  0  0  0  0  0  0
    2.2510    0.7850   -0.7940 C   0  0  2  0  0  0  0  0  0  0  0  0
    2.9100    1.7690    0.0830 C   0  0  0  0  0  0  0  0  0  0  0  0
    3.5350    1.3810    1.1000 O   0  0  0  0  0  0  0  0  0  0  0  0
    2.8630    3.1170   -0.1770 O   0  0  0  0  0  0  0  0  0  0  0  0
    0.8670    1.0280   -1.2000 C   0  0  1  0  0  0  0  0  0  0  0  0
    0.8040    2.5150   -1.6690 C   0  0  0  0  0  0  0  0  0  0  0  0
    0.6420    0.3650   -2.4460 O   0  0  0  0  0  0  0  0  0  0  0  0
   -0.2680    0.7260   -0.3160 C   0  0  1  0  0  0  0  0  0  0  0  0
   -1.4080    1.3060   -0.9720 O   0  0  0  0  0  0  0  0  0  0  0  0
   -0.5770   -0.7620   -0.2760 C   0  0  0  0  0  0  0  0  0  0  0  0
   -2.0100   -1.0210    0.1270 C   0  0  2  0  0  0  0  0  0  0  0  0
   -2.0200   -2.3160    0.7030 O   0  0  0  0  0  0  0  0  0  0  0  0
   -2.9930   -1.0630   -0.9830 C   0  0  2  0  0  0  0  0  0  0  0  0
   -4.2340   -1.3980   -0.3820 O   0  0  0  0  0  0  0  0  0  0  0  0
   -2.7380   -2.0790   -1.9030 O   0  0  0  0  0  0  0  0  0  0  0  0
   -2.3930    0.0300    1.1150 C   0  0  0  0  0  0  0  0  0  0  0  0
   -1.1590    0.5680    1.8100 C   0  0  0  0  0  0  0  0  0  0  0  0
   -0.2770    1.2050    0.9470 O   0  0  0  0  0  0  0  0  0  0  0  0
  1  2  1  0
  2  3  1  0
  3  4  2  0
  5  3  1  1
  5  6  1  0
  5  9  1  0
  6  7  2  0
  6  8  1  0
  9 10  1  6
  9 11  1  0
  9 12  1  0
 12 13  1  6
 12 14  1  0
 12 22  1  0
 14 15  1  0
 15 16  1  1
 15 17  1  0
 15 20  1  0
 17 18  1  1
 17 19  1  0
 20 21  1  0
 21 22  1  0
M  END
