
     RDKit          3D

 22 22  0  0  0  0  0  0  0  0999 V2000
   -5.5830    0.1180    1.5790 C   0  0  0  0  0  0  0  0  0  0  0  0
   -4.6270   -0.2620    0.6010 O   0  0  0  0  0  0  0  0  0  0  0  0
   -3.3270    0.2030    0.6710 C   0  0  0  0  0  0  0  0  0  0  0  0
   -3.0230    0.9640    1.6170 O   0  0  0  0  0  0  0  0  0  0  0  0
   -2.3490   -0.1910   -0.3400 C   0  0  1  0  0  0  0  0  0  0  0  0
   -2.9500   -1.0460   -1.2850 O   0  0  0  0  0  0  0  0  0  0  0  0
   -1.8550    1.0100   -1.1570 C   0  0  0  0  0  0  0  0  0  0  0  0
   -0.8040    0.6210   -1.9450 O   0  0  0  0  0  0  0  0  0  0  0  0
    0.3090    0.1830   -1.2720 C   0  0  1  0  0  0  0  0  0  0  0  0
    0.7500   -1.0190   -1.8760 O   0  0  0  0  0  0  0  0  0  0  0  0
    1.4040    1.1770   -1.4480 C   0  0  1  0  0  0  0  0  0  0  0  0
    1.1110    2.5440   -0.9440 C   0  0  0  0  0  0  0  0  0  0  0  0
    0.8360    2.5620    0.4240 O   0  0  0  0  0  0  0  0  0  0  0  0
    2.7050    0.7150   -0.7640 C   0  0  0  0  0  0  0  0  0  0  0  0
    2.5000    0.5480    0.5680 O   0  0  0  0  0  0  0  0  0  0  0  0
    3.5340    0.1630    1.3560 C   0  0  0  0  0  0  0  0  0  0  0  0
    4.1620   -1.1620    1.0510 C   0  0  0  0  0  0  0  0  0  0  0  0
    4.7080   -1.2940   -0.1930 O   0  0  0  0  0  0  0  0  0  0  0  0
    0.0400   -0.1250    0.0460 O   0  0  0  0  0  0  0  0  0  0  0  0
   -1.1110   -0.8250    0.2560 C   0  0  2  0  0  0  0  0  0  0  0  0
   -1.0680   -2.2600   -0.2080 C   0  0  0  0  0  0  0  0  0  0  0  0
   -0.0830   -2.9980    0.4200 O   0  0  0  0  0  0  0  0  0  0  0  0
  1  2  1  0
  2  3  1  0
  3  4  2  0
  3  5  1  0
  5  6  1  6
  5  7  1  0
  5 20  1  0
  7  8  1  0
  8  9  1  0
  9 10  1  6
  9 11  1  0
  9 19  1  0
 11 12  1  1
 11 14  1  0
 12 13  1  0
 14 15  1  0
 15 16  1  0
 16 17  1  0
 17 18  1  0
 19 20  1  0
 20 21  1  6
 21 22  1  0
M  END
