
     RDKit          3D

 22 22  0  0  0  0  0  0  0  0999 V2000
    2.8400   -1.9120   -0.2690 O   0  0  0  0  0  0  0  0  0  0  0  0
    2.6440   -0.6690   -0.2540 C   0  0  0  0  0  0  0  0  0  0  0  0
    3.7780    0.1070    0.0570 O   0  0  0  0  0  0  0  0  0  0  0  0
    5.0200   -0.4950    0.3260 C   0  0  0  0  0  0  0  0  0  0  0  0
    6.0030    0.6320    0.6190 C   0  0  0  0  0  0  0  0  0  0  0  0
    6.1010    1.4750   -0.4780 O   0  0  0  0  0  0  0  0  0  0  0  0
    1.3510   -0.0280   -0.5340 C   0  0  1  0  0  0  0  0  0  0  0  0
    1.4860    1.3320   -0.4360 O   0  0  0  0  0  0  0  0  0  0  0  0
    0.9360   -0.3940   -1.8210 O   0  0  0  0  0  0  0  0  0  0  0  0
   -0.3970    0.0260   -1.7930 C   0  0  1  0  0  0  0  0  0  0  0  0
   -1.1490   -0.4030   -2.8570 O   0  0  0  0  0  0  0  0  0  0  0  0
   -0.8870   -0.7480   -0.5540 C   0  0  2  0  0  0  0  0  0  0  0  0
   -0.9490   -2.1050   -0.8920 O   0  0  0  0  0  0  0  0  0  0  0  0
   -2.2470   -0.2740   -0.2650 C   0  0  1  0  0  0  0  0  0  0  0  0
   -2.9680   -0.8610    0.8970 C   0  0  0  0  0  0  0  0  0  0  0  0
   -2.3700   -0.6930    2.2400 C   0  0  0  0  0  0  0  0  0  0  0  0
   -3.2670   -1.3260    3.1460 O   0  0  0  0  0  0  0  0  0  0  0  0
   -2.4810    1.2130   -0.4200 C   0  0  0  0  0  0  0  0  0  0  0  0
   -3.9220    1.5920   -0.0760 C   0  0  0  0  0  0  0  0  0  0  0  0
   -3.9710    2.9950   -0.2810 O   0  0  0  0  0  0  0  0  0  0  0  0
    0.2190   -0.5520    0.3770 C   0  0  1  0  0  0  0  0  0  0  0  0
    0.7600   -1.7660    0.8780 O   0  0  0  0  0  0  0  0  0  0  0  0
  1  2  2  0
  2  3  1  0
  2  7  1  0
  3  4  1  0
  4  5  1  0
  5  6  1  0
  7  8  1  6
  7  9  1  0
  7 21  1  0
  9 10  1  0
 10 11  1  6
 10 12  1  0
 12 13  1  6
 12 14  1  0
 12 21  1  0
 14 15  1  1
 14 18  1  0
 15 16  1  0
 16 17  1  0
 18 19  1  0
 19 20  1  0
 21 22  1  6
M  END
