
     RDKit          3D

 22 22  0  0  0  0  0  0  0  0999 V2000
    3.3610    1.0570   -2.3300 O   0  0  0  0  0  0  0  0  0  0  0  0
    3.0110    0.5890   -1.2280 C   0  0  0  0  0  0  0  0  0  0  0  0
    3.3730   -0.7110   -0.7820 O   0  0  0  0  0  0  0  0  0  0  0  0
    2.4500   -1.2350    0.2090 C   0  0  2  0  0  0  0  0  0  0  0  0
    2.3830   -2.7220    0.0830 C   0  0  0  0  0  0  0  0  0  0  0  0
    3.6290   -3.3280    0.2700 O   0  0  0  0  0  0  0  0  0  0  0  0
    1.1080   -0.5970   -0.2150 C   0  0  1  0  0  0  0  0  0  0  0  0
   -0.0350   -1.4390    0.2210 C   0  0  0  0  0  0  0  0  0  0  0  0
   -1.2380   -0.9870   -0.2020 O   0  0  0  0  0  0  0  0  0  0  0  0
   -1.7250    0.2100    0.1720 C   0  0  2  0  0  0  0  0  0  0  0  0
   -2.9790    0.0420    1.0670 C   0  0  1  0  0  0  0  0  0  0  0  0
   -3.9350   -0.6320    0.3490 O   0  0  0  0  0  0  0  0  0  0  0  0
   -2.6150   -0.5770    2.3750 C   0  0  0  0  0  0  0  0  0  0  0  0
   -3.7560   -0.6390    3.1720 O   0  0  0  0  0  0  0  0  0  0  0  0
   -2.2450    1.0480   -0.9940 C   0  0  2  0  0  0  0  0  0  0  0  0
   -3.2980    0.3380   -1.6300 O   0  0  0  0  0  0  0  0  0  0  0  0
   -1.2200    1.2790   -2.0620 C   0  0  0  0  0  0  0  0  0  0  0  0
   -1.8490    2.0230   -3.0910 O   0  0  0  0  0  0  0  0  0  0  0  0
    1.1180    0.7010    0.2200 O   0  0  0  0  0  0  0  0  0  0  0  0
    2.1720    1.4040   -0.3130 C   0  0  1  0  0  0  0  0  0  0  0  0
    3.0260    2.0570    0.7650 C   0  0  0  0  0  0  0  0  0  0  0  0
    2.2460    2.9340    1.4990 O   0  0  0  0  0  0  0  0  0  0  0  0
  1  2  2  0
  2  3  1  0
  2 20  1  0
  3  4  1  0
  4  5  1  6
  4  7  1  0
  5  6  1  0
  7  8  1  1
  7 19  1  0
  8  9  1  0
 10  9  1  6
 10 11  1  0
 10 15  1  0
 11 12  1  6
 11 13  1  0
 13 14  1  0
 15 16  1  6
 15 17  1  0
 17 18  1  0
 19 20  1  0
 20 21  1  1
 21 22  1  0
M  END
