
     RDKit          3D

 22 22  0  0  0  0  0  0  0  0999 V2000
   -4.4440    3.7030   -0.5880 C   0  0  0  0  0  0  0  0  0  0  0  0
   -3.4510    3.1620    0.2460 O   0  0  0  0  0  0  0  0  0  0  0  0
   -2.4520    2.3010   -0.2660 C   0  0  0  0  0  0  0  0  0  0  0  0
   -2.5380    2.0810   -1.4830 O   0  0  0  0  0  0  0  0  0  0  0  0
   -1.4890    1.8130    0.7010 C   0  0  0  0  0  0  0  0  0  0  0  0
   -0.4750    0.7950    0.1550 C   0  0  2  0  0  0  0  0  0  0  0  0
    0.2410    1.2600   -0.8520 O   0  0  0  0  0  0  0  0  0  0  0  0
    1.5090    1.5710   -0.9330 C   0  0  0  0  0  0  0  0  0  0  0  0
    2.5970    0.5760   -0.7500 C   0  0  1  0  0  0  0  0  0  0  0  0
    3.8370    1.2740   -0.9990 O   0  0  0  0  0  0  0  0  0  0  0  0
    2.7560   -0.0790    0.5710 C   0  0  0  0  0  0  0  0  0  0  0  0
    3.9730   -1.0360    0.4970 C   0  0  1  0  0  0  0  0  0  0  0  0
    4.1240   -1.6510    1.7310 O   0  0  0  0  0  0  0  0  0  0  0  0
    3.8090   -1.9750   -0.4990 O   0  0  0  0  0  0  0  0  0  0  0  0
   -1.1580   -0.4970   -0.1970 C   0  0  2  0  0  0  0  0  0  0  0  0
   -2.0270   -0.3760   -1.2500 O   0  0  0  0  0  0  0  0  0  0  0  0
   -1.7780   -1.1700    1.0050 C   0  0  0  0  0  0  0  0  0  0  0  0
   -1.6480   -2.6430    0.5960 C   0  0  2  0  0  0  0  0  0  0  0  0
   -1.0520   -3.3820    1.6130 O   0  0  0  0  0  0  0  0  0  0  0  0
   -0.7460   -2.6540   -0.6070 C   0  0  2  0  0  0  0  0  0  0  0  0
    0.2750   -3.5970   -0.4720 O   0  0  0  0  0  0  0  0  0  0  0  0
   -0.1620   -1.4010   -0.6160 O   0  0  0  0  0  0  0  0  0  0  0  0
  1  2  1  0
  2  3  1  0
  3  4  2  0
  3  5  1  0
  6  5  1  6
  6  7  1  0
  6 15  1  0
  7  8  1  0
  8  9  1  0
  9 10  1  1
  9 11  1  0
 11 12  1  0
 12 13  1  1
 12 14  1  0
 15 16  1  6
 15 17  1  0
 15 22  1  0
 17 18  1  0
 18 19  1  1
 18 20  1  0
 20 21  1  1
 20 22  1  0
M  END
