
     RDKit          3D

 22 23  0  0  0  0  0  0  0  0999 V2000
   -4.5880    1.8070   -0.3150 O   0  0  0  0  0  0  0  0  0  0  0  0
   -5.1120    1.0230   -1.1230 C   0  0  0  0  0  0  0  0  0  0  0  0
   -6.4200    1.2520   -1.5250 O   0  0  0  0  0  0  0  0  0  0  0  0
   -4.4120   -0.1440   -1.6780 C   0  0  0  0  0  0  0  0  0  0  0  0
   -3.1550   -0.3540   -1.1970 O   0  0  0  0  0  0  0  0  0  0  0  0
   -3.1590   -0.6260    0.1350 C   0  0  0  0  0  0  0  0  0  0  0  0
   -1.7370   -0.8720    0.6690 C   0  0  2  0  0  0  0  0  0  0  0  0
   -1.8810   -1.1340    2.0220 O   0  0  0  0  0  0  0  0  0  0  0  0
   -0.8620    0.3330    0.4780 C   0  0  0  0  0  0  0  0  0  0  0  0
    0.4230   -0.2890   -0.0450 C   0  0  1  0  0  0  0  0  0  0  0  0
    0.3060   -0.2720   -1.4230 O   0  0  0  0  0  0  0  0  0  0  0  0
    1.6400    0.3560    0.4830 C   0  0  1  0  0  0  0  0  0  0  0  0
    1.6790    0.3310    1.9010 O   0  0  0  0  0  0  0  0  0  0  0  0
    2.9510   -0.0110   -0.0940 C   0  0  1  0  0  0  0  0  0  0  0  0
    3.1630    0.2560   -1.5560 C   0  0  0  0  0  0  0  0  0  0  0  0
    3.3480    1.6200   -1.8090 O   0  0  0  0  0  0  0  0  0  0  0  0
    4.5120    2.0250   -1.1260 C   0  0  0  0  0  0  0  0  0  0  0  0
    4.2010    2.0130    0.2320 O   0  0  0  0  0  0  0  0  0  0  0  0
    4.1090    0.6760    0.6240 C   0  0  0  0  0  0  0  0  0  0  0  0
    0.2250   -1.7220    0.3620 C   0  0  1  0  0  0  0  0  0  0  0  0
    0.3070   -1.9740    1.6960 O   0  0  0  0  0  0  0  0  0  0  0  0
   -1.1240   -1.9190   -0.0140 O   0  0  0  0  0  0  0  0  0  0  0  0
  1  2  2  0
  2  3  1  0
  2  4  1  0
  4  5  1  0
  5  6  1  0
  6  7  1  0
  7  8  1  1
  7  9  1  0
  7 22  1  0
  9 10  1  0
 10 11  1  6
 10 12  1  0
 10 20  1  0
 12 13  1  1
 12 14  1  0
 14 15  1  6
 14 19  1  0
 15 16  1  0
 16 17  1  0
 17 18  1  0
 18 19  1  0
 20 21  1  1
 20 22  1  0
M  END
