
     RDKit          3D

 22 22  0  0  0  0  0  0  0  0999 V2000
   -2.8970    2.5450   -0.2610 O   0  0  0  0  0  0  0  0  0  0  0  0
   -3.2900    1.8730   -1.2210 C   0  0  0  0  0  0  0  0  0  0  0  0
   -3.8580    2.5780   -2.2840 O   0  0  0  0  0  0  0  0  0  0  0  0
   -3.2260    0.4020   -1.3690 C   0  0  0  0  0  0  0  0  0  0  0  0
   -2.6750   -0.3070   -0.1560 C   0  0  1  0  0  0  0  0  0  0  0  0
   -1.4440    0.1510    0.0880 O   0  0  0  0  0  0  0  0  0  0  0  0
   -0.3460   -0.6160   -0.0210 C   0  0  1  0  0  0  0  0  0  0  0  0
   -0.5220   -1.6860    0.8950 O   0  0  0  0  0  0  0  0  0  0  0  0
    0.0410   -1.1940   -1.3170 C   0  0  0  0  0  0  0  0  0  0  0  0
    1.5410   -1.0810   -1.6200 C   0  0  0  0  0  0  0  0  0  0  0  0
    2.3510   -1.2490   -0.5520 O   0  0  0  0  0  0  0  0  0  0  0  0
    2.1060   -0.4980    0.5580 C   0  0  1  0  0  0  0  0  0  0  0  0
    2.1370   -1.4920    1.7350 C   0  0  0  0  0  0  0  0  0  0  0  0
    1.9030   -0.8990    2.9410 O   0  0  0  0  0  0  0  0  0  0  0  0
    3.2240    0.4460    0.9130 C   0  0  0  0  0  0  0  0  0  0  0  0
    3.5740    1.4500   -0.1130 C   0  0  1  0  0  0  0  0  0  0  0  0
    4.6220    2.2510    0.3590 O   0  0  0  0  0  0  0  0  0  0  0  0
    4.0960    0.7910   -1.2420 O   0  0  0  0  0  0  0  0  0  0  0  0
    0.8300    0.2480    0.4630 C   0  0  0  0  0  0  0  0  0  0  0  0
   -3.6940   -0.2470    0.9340 C   0  0  2  0  0  0  0  0  0  0  0  0
   -3.9930    0.9810    1.4400 O   0  0  0  0  0  0  0  0  0  0  0  0
   -3.3420   -1.0940    2.0160 O   0  0  0  0  0  0  0  0  0  0  0  0
  1  2  2  0
  2  3  1  0
  2  4  1  0
  5  4  1  6
  5  6  1  0
  5 20  1  0
  6  7  1  0
  7  8  1  1
  7  9  1  0
  7 19  1  0
  9 10  1  0
 10 11  1  0
 11 12  1  0
 12 13  1  1
 12 15  1  0
 12 19  1  0
 13 14  1  0
 15 16  1  0
 16 17  1  1
 16 18  1  0
 20 21  1  1
 20 22  1  0
M  END
