
     RDKit          3D

 22 21  0  0  0  0  0  0  0  0999 V2000
   -5.5170    0.8500   -1.7690 C   0  0  0  0  0  0  0  0  0  0  0  0
   -4.2780    0.2450   -1.5660 O   0  0  0  0  0  0  0  0  0  0  0  0
   -4.3120   -0.6760   -0.5420 C   0  0  1  0  0  0  0  0  0  0  0  0
   -4.0260   -1.9690   -1.0230 O   0  0  0  0  0  0  0  0  0  0  0  0
   -3.3410   -0.3540    0.5770 C   0  0  2  0  0  0  0  0  0  0  0  0
   -3.4820   -1.3660    1.5420 O   0  0  0  0  0  0  0  0  0  0  0  0
   -3.6640    0.9410    1.2380 C   0  0  0  0  0  0  0  0  0  0  0  0
   -4.9520    0.9540    1.7320 O   0  0  0  0  0  0  0  0  0  0  0  0
   -1.9200   -0.3390    0.0530 C   0  0  0  0  0  0  0  0  0  0  0  0
   -1.0650   -0.1050    1.0760 O   0  0  0  0  0  0  0  0  0  0  0  0
    0.2740   -0.0550    0.8020 C   0  0  1  0  0  0  0  0  0  0  0  0
    0.5800    1.3330    1.0410 O   0  0  0  0  0  0  0  0  0  0  0  0
    1.1720   -0.8110    1.6670 C   0  0  2  0  0  0  0  0  0  0  0  0
    1.2340   -0.3680    2.9930 O   0  0  0  0  0  0  0  0  0  0  0  0
    2.5260   -1.1020    1.1450 C   0  0  0  0  0  0  0  0  0  0  0  0
    3.4280    0.0070    0.7590 C   0  0  2  0  0  0  0  0  0  0  0  0
    3.7010    0.9280    1.7300 O   0  0  0  0  0  0  0  0  0  0  0  0
    3.2170    0.4620   -0.6250 C   0  0  2  0  0  0  0  0  0  0  0  0
    2.9710   -0.6460   -1.4440 O   0  0  0  0  0  0  0  0  0  0  0  0
    4.4040    1.1930   -1.2210 C   0  0  0  0  0  0  0  0  0  0  0  0
    5.6640    0.4100   -1.2920 C   0  0  0  0  0  0  0  0  0  0  0  0
    5.5840   -0.7410   -2.0650 O   0  0  0  0  0  0  0  0  0  0  0  0
  1  2  1  0
  2  3  1  0
  3  4  1  6
  3  5  1  0
  5  6  1  1
  5  7  1  0
  5  9  1  0
  7  8  1  0
  9 10  1  0
 10 11  1  0
 11 12  1  1
 11 13  1  0
 13 14  1  1
 13 15  1  0
 15 16  1  0
 16 17  1  1
 16 18  1  0
 18 19  1  6
 18 20  1  0
 20 21  1  0
 21 22  1  0
M  END
