
     RDKit          3D

 23 23  0  0  0  0  0  0  0  0999 V2000
    4.6710    1.1810   -1.3860 O   0  0  0  0  0  0  0  0  0  0  0  0
    4.1930    0.0180   -1.4550 C   0  0  0  0  0  0  0  0  0  0  0  0
    3.8860   -0.4570   -2.7190 O   0  0  0  0  0  0  0  0  0  0  0  0
    3.9550   -0.8340   -0.2560 C   0  0  0  0  0  0  0  0  0  0  0  0
    4.3360   -0.1820    1.0300 C   0  0  1  0  0  0  0  0  0  0  0  0
    5.7320    0.1150    0.9500 O   0  0  0  0  0  0  0  0  0  0  0  0
    3.5860    1.0450    1.4320 C   0  0  0  0  0  0  0  0  0  0  0  0
    2.2880    0.9240    1.6110 O   0  0  0  0  0  0  0  0  0  0  0  0
    1.3420    0.6550    0.7260 C   0  0  2  0  0  0  0  0  0  0  0  0
    0.3660    1.7010    0.6200 O   0  0  0  0  0  0  0  0  0  0  0  0
   -0.6170    1.1760   -0.2200 C   0  0  2  0  0  0  0  0  0  0  0  0
   -1.2750    2.1550   -0.9510 O   0  0  0  0  0  0  0  0  0  0  0  0
   -1.6110    0.3510    0.6160 C   0  0  1  0  0  0  0  0  0  0  0  0
   -2.1300   -0.6710   -0.1670 O   0  0  0  0  0  0  0  0  0  0  0  0
   -3.5180   -0.5700   -0.2100 C   0  0  2  0  0  0  0  0  0  0  0  0
   -4.1220   -1.8160    0.4370 C   0  0  0  0  0  0  0  0  0  0  0  0
   -5.5040   -1.7400    0.4060 O   0  0  0  0  0  0  0  0  0  0  0  0
   -3.8760   -0.4860   -1.5520 O   0  0  0  0  0  0  0  0  0  0  0  0
   -4.5770    0.6810   -1.8360 C   0  0  0  0  0  0  0  0  0  0  0  0
   -4.8830    0.6610   -3.1960 O   0  0  0  0  0  0  0  0  0  0  0  0
   -0.7440   -0.1980    1.7530 C   0  0  0  0  0  0  0  0  0  0  0  0
    0.5510   -0.6160    1.1070 C   0  0  2  0  0  0  0  0  0  0  0  0
    1.3080   -1.2730    2.0930 O   0  0  0  0  0  0  0  0  0  0  0  0
  1  2  2  0
  2  3  1  0
  2  4  1  0
  4  5  1  0
  5  6  1  6
  5  7  1  0
  7  8  1  0
  9  8  1  1
  9 10  1  0
  9 22  1  0
 10 11  1  0
 11 12  1  1
 11 13  1  0
 13 14  1  6
 13 21  1  0
 14 15  1  0
 15 16  1  6
 15 18  1  0
 16 17  1  0
 18 19  1  0
 19 20  1  0
 21 22  1  0
 22 23  1  1
M  END
