
     RDKit          3D

  8  8  0  0  0  0  0  0  0  0999 V2000
   -2.3740    0.9520   -0.6330 O   0  0  0  0  0  0  0  0  0  0  0  0
   -2.4240   -0.2570    0.0640 C   0  0  0  0  0  0  0  0  0  0  0  0
   -1.0420   -0.5210    0.6030 C   0  0  0  0  0  0  0  0  0  0  0  0
   -0.0230   -0.6190   -0.5170 C   0  0  2  0  0  0  0  0  0  0  0  0
    1.3110   -0.8810    0.1010 C   0  0  0  0  0  0  0  0  0  0  0  0
    2.2000    0.1710   -0.5230 C   0  0  0  0  0  0  0  0  0  0  0  0
    1.1740    1.2310   -0.9090 C   0  0  0  0  0  0  0  0  0  0  0  0
    0.0290    0.5430   -1.2310 O   0  0  0  0  0  0  0  0  0  0  0  0
  1  2  1  0
  2  3  1  0
  4  3  1  1
  4  5  1  0
  4  8  1  0
  5  6  1  0
  6  7  1  0
  7  8  1  0
M  END
