
     RDKit          3D

  8  7  0  0  0  0  0  0  0  0999 V2000
   -2.3050   -1.4700   -0.2240 C   0  0  0  0  0  0  0  0  0  0  0  0
   -2.0730   -0.0410   -0.4890 C   0  0  0  0  0  0  0  0  0  0  0  0
   -0.9350    0.5320   -0.1810 C   0  0  0  0  0  0  0  0  0  0  0  0
   -0.7490    1.9700   -0.4670 C   0  0  0  0  0  0  0  0  0  0  0  0
    0.0500   -0.2480    0.4050 O   0  0  0  0  0  0  0  0  0  0  0  0
    1.4000    0.1550    0.2040 C   0  0  0  0  0  0  0  0  0  0  0  0
    2.2500   -0.8700    0.9500 C   0  0  0  0  0  0  0  0  0  0  0  0
    3.5810   -0.4910    0.7640 O   0  0  0  0  0  0  0  0  0  0  0  0
  1  2  1  0
  2  3  2  3
  3  4  1  0
  3  5  1  0
  5  6  1  0
  6  7  1  0
  7  8  1  0
M  END
