
     RDKit          3D

  8  8  0  0  0  0  0  0  0  0999 V2000
    2.3360   -1.4680    0.5850 O   0  0  0  0  0  0  0  0  0  0  0  0
    1.7750   -0.2070    0.7470 C   0  0  0  0  0  0  0  0  0  0  0  0
    0.5880   -0.0230   -0.1970 C   0  0  2  0  0  0  0  0  0  0  0  0
    0.0560    1.3700    0.0590 C   0  0  0  0  0  0  0  0  0  0  0  0
   -1.2910    1.3910   -0.6790 C   0  0  0  0  0  0  0  0  0  0  0  0
   -2.1260    0.6170    0.0790 O   0  0  0  0  0  0  0  0  0  0  0  0
   -1.8250   -0.7170    0.0660 C   0  0  0  0  0  0  0  0  0  0  0  0
   -0.4190   -1.0980   -0.0770 C   0  0  0  0  0  0  0  0  0  0  0  0
  1  2  1  0
  3  2  1  1
  3  4  1  0
  3  8  1  0
  4  5  1  0
  5  6  1  0
  6  7  1  0
  7  8  1  0
M  END
