
     RDKit          3D

  8  8  0  0  0  0  0  0  0  0999 V2000
    3.2030   -0.0090   -0.2130 C   0  0  0  0  0  0  0  0  0  0  0  0
    1.9560    0.3850    0.3040 O   0  0  0  0  0  0  0  0  0  0  0  0
    1.0390   -0.5640   -0.1130 C   0  0  0  0  0  0  0  0  0  0  0  0
   -0.3600   -0.2820    0.3650 C   0  0  1  0  0  0  0  0  0  0  0  0
   -0.8760    1.0560   -0.1130 C   0  0  0  0  0  0  0  0  0  0  0  0
   -2.3610    0.7120   -0.2120 C   0  0  0  0  0  0  0  0  0  0  0  0
   -2.2020   -0.6780   -0.8440 C   0  0  0  0  0  0  0  0  0  0  0  0
   -1.2150   -1.2520   -0.0790 O   0  0  0  0  0  0  0  0  0  0  0  0
  1  2  1  0
  2  3  1  0
  4  3  1  6
  4  5  1  0
  4  8  1  0
  5  6  1  0
  6  7  1  0
  7  8  1  0
M  END
