
     RDKit          3D

  8  8  0  0  0  0  0  0  0  0999 V2000
    2.2130    0.6330   -0.8170 O   0  0  0  0  0  0  0  0  0  0  0  0
    1.8410    0.7860    0.5190 C   0  0  0  0  0  0  0  0  0  0  0  0
    0.8670   -0.3060    0.8890 C   0  0  0  0  0  0  0  0  0  0  0  0
   -0.3760   -0.2460    0.0270 C   0  0  1  0  0  0  0  0  0  0  0  0
   -1.1600    1.0390    0.1140 C   0  0  0  0  0  0  0  0  0  0  0  0
   -2.2760    0.9920   -0.7110 O   0  0  0  0  0  0  0  0  0  0  0  0
   -0.4930   -1.1460   -1.1400 C   0  0  0  0  0  0  0  0  0  0  0  0
   -1.2350   -1.5060    0.0980 C   0  0  0  0  0  0  0  0  0  0  0  0
  1  2  1  0
  2  3  1  0
  4  3  1  1
  4  5  1  0
  4  7  1  0
  4  8  1  0
  5  6  1  0
  7  8  1  0
M  END
