
     RDKit          3D

  8  8  0  0  0  0  0  0  0  0999 V2000
    2.6130    0.2320   -0.7940 O   0  0  0  0  0  0  0  0  0  0  0  0
    2.1750   -0.5270    0.2890 C   0  0  0  0  0  0  0  0  0  0  0  0
    0.8020   -1.0580    0.0280 C   0  0  0  0  0  0  0  0  0  0  0  0
   -0.2290   -0.0060   -0.2000 C   0  0  1  0  0  0  0  0  0  0  0  0
   -0.0130    0.8450   -1.2720 O   0  0  0  0  0  0  0  0  0  0  0  0
   -1.6160   -0.6590   -0.2800 C   0  0  0  0  0  0  0  0  0  0  0  0
   -2.1330    0.6330    0.3640 C   0  0  0  0  0  0  0  0  0  0  0  0
   -0.7350    0.7450    0.9790 C   0  0  0  0  0  0  0  0  0  0  0  0
  1  2  1  0
  2  3  1  0
  3  4  1  0
  4  5  1  6
  4  6  1  0
  4  8  1  0
  6  7  1  0
  7  8  1  0
M  END
