
     RDKit          3D

  8  8  0  0  0  0  0  0  0  0999 V2000
    2.6880    0.3520    0.6690 O   0  0  0  0  0  0  0  0  0  0  0  0
    1.9950    0.9380   -0.3840 C   0  0  0  0  0  0  0  0  0  0  0  0
    0.9450   -0.0200   -0.8970 C   0  0  0  0  0  0  0  0  0  0  0  0
   -0.0220   -0.3570    0.2090 C   0  0  2  0  0  0  0  0  0  0  0  0
   -1.0970   -1.3260   -0.2770 C   0  0  0  0  0  0  0  0  0  0  0  0
   -2.3380   -0.4990   -0.2140 C   0  0  0  0  0  0  0  0  0  0  0  0
   -1.8540    0.7890   -0.4380 O   0  0  0  0  0  0  0  0  0  0  0  0
   -0.8580    0.8440    0.5660 C   0  0  0  0  0  0  0  0  0  0  0  0
  1  2  1  0
  2  3  1  0
  4  3  1  6
  4  5  1  0
  4  8  1  0
  5  6  1  0
  6  7  1  0
  7  8  1  0
M  END
