
     RDKit          3D

  8  8  0  0  0  0  0  0  0  0999 V2000
    2.6530    0.3710    0.0480 C   0  0  0  0  0  0  0  0  0  0  0  0
    1.2340   -0.0430   -0.1320 C   0  0  0  0  0  0  0  0  0  0  0  0
    0.7540   -1.2650   -0.6010 C   0  0  0  0  0  0  0  0  0  0  0  0
   -0.6140   -1.1440   -0.5780 C   0  0  0  0  0  0  0  0  0  0  0  0
   -0.9240    0.1040   -0.1130 C   0  0  0  0  0  0  0  0  0  0  0  0
   -2.3020    0.6490    0.0700 C   0  0  0  0  0  0  0  0  0  0  0  0
   -2.7520    0.3480    1.3760 O   0  0  0  0  0  0  0  0  0  0  0  0
    0.2070    0.7170    0.1380 O   0  0  0  0  0  0  0  0  0  0  0  0
  1  2  1  0
  2  3  2  0
  2  8  1  0
  3  4  1  0
  4  5  2  0
  5  6  1  0
  5  8  1  0
  6  7  1  0
M  END
