
     RDKit          3D

  8  8  0  0  0  0  0  0  0  0999 V2000
    2.7800    0.0240    0.4970 C   0  0  0  0  0  0  0  0  0  0  0  0
    1.4250    0.2350    0.7600 O   0  0  0  0  0  0  0  0  0  0  0  0
    0.6140   -0.2880   -0.2190 C   0  0  2  0  0  0  0  0  0  0  0  0
   -0.2660    0.8010   -0.8260 C   0  0  0  0  0  0  0  0  0  0  0  0
   -1.7300    0.5170   -0.6120 C   0  0  0  0  0  0  0  0  0  0  0  0
   -1.9630    0.2870    0.8690 C   0  0  0  0  0  0  0  0  0  0  0  0
   -1.0200   -0.5530    1.4290 O   0  0  0  0  0  0  0  0  0  0  0  0
   -0.3380   -1.2850    0.4370 C   0  0  0  0  0  0  0  0  0  0  0  0
  1  2  1  0
  3  2  1  1
  3  4  1  0
  3  8  1  0
  4  5  1  0
  5  6  1  0
  6  7  1  0
  7  8  1  0
M  END
