
     RDKit          3D

  8  8  0  0  0  0  0  0  0  0999 V2000
   -2.3690   -1.1230   -0.1310 O   0  0  0  0  0  0  0  0  0  0  0  0
   -1.1910   -0.4150   -0.0570 C   0  0  0  0  0  0  0  0  0  0  0  0
   -1.2760    0.9590    0.0180 C   0  0  0  0  0  0  0  0  0  0  0  0
   -0.1210    1.7080    0.0930 C   0  0  0  0  0  0  0  0  0  0  0  0
    1.1370    1.1030    0.0950 C   0  0  0  0  0  0  0  0  0  0  0  0
    1.2300   -0.2720    0.0200 C   0  0  0  0  0  0  0  0  0  0  0  0
    2.4920   -0.8490    0.0230 O   0  0  0  0  0  0  0  0  0  0  0  0
    0.0610   -0.9990   -0.0550 C   0  0  0  0  0  0  0  0  0  0  0  0
  1  2  1  0
  2  3  2  0
  2  8  1  0
  3  4  1  0
  4  5  2  0
  5  6  1  0
  6  7  1  0
  6  8  2  0
M  END
