
     RDKit          3D

 37 38  0  0  0  0  0  0  0  0999 V2000
   -5.0660    2.0520   -3.1890 C   0  0  0  0  0  0  0  0  0  0  0  0
   -4.4940    1.1760   -2.2990 C   0  0  0  0  0  0  0  0  0  0  0  0
   -5.2800    0.1620   -1.6770 C   0  0  0  0  0  0  0  0  0  0  0  0
   -5.1170   -0.7930   -0.8430 C   0  0  0  0  0  0  0  0  0  0  0  0
   -3.8700   -1.1430   -0.2050 C   0  0  0  0  0  0  0  0  0  0  0  0
   -3.8090   -2.0960    0.6790 O   0  0  0  0  0  0  0  0  0  0  0  0
   -2.5930   -0.5840   -0.3960 N   0  0  0  0  0  0  0  0  0  0  0  0
   -1.4370   -1.0910    0.3760 C   0  0  1  0  0  0  0  0  0  0  0  0
   -0.8620   -2.6460   -0.7180 Br  0  0  0  0  0  0  0  0  0  0  0  0
   -0.3880   -0.1050    0.5160 C   0  0  0  0  0  0  0  0  0  0  0  0
   -0.7090    1.2740    0.5090 C   0  0  0  0  0  0  0  0  0  0  0  0
    0.2430    2.2580    0.4980 C   0  0  0  0  0  0  0  0  0  0  0  0
   -0.1300    3.6270    0.4920 N   0  0  0  0  0  0  0  0  0  0  0  0
    0.8190    4.6740    0.4930 C   0  0  0  0  0  0  0  0  0  0  0  0
    0.4540    6.1090    0.4680 C   0  0  0  0  0  0  0  0  0  0  0  0
    2.0320    4.3290    0.5160 O   0  0  0  0  0  0  0  0  0  0  0  0
    1.5340    1.8990    0.4950 N   0  0  0  0  0  0  0  0  0  0  0  0
    1.9010    0.5940    0.5050 C   0  0  0  0  0  0  0  0  0  0  0  0
    0.9510   -0.4170    0.5190 C   0  0  0  0  0  0  0  0  0  0  0  0
    1.4130   -1.7910    0.6580 C   0  0  0  0  0  0  0  0  0  0  0  0
    2.6600   -1.8500    1.5250 C   0  0  0  0  0  0  0  0  0  0  0  0
    3.6330   -0.8610    1.3190 N   0  0  0  0  0  0  0  0  0  0  0  0
    4.2720   -0.3780    2.5240 C   0  0  0  0  0  0  0  0  0  0  0  0
    3.3280    0.2090    0.4490 C   0  0  1  0  0  0  0  0  0  0  0  0
    3.7830   -0.0310   -0.9820 C   0  0  0  0  0  0  0  0  0  0  0  0
    5.2260   -0.4280   -1.0060 C   0  0  0  0  0  0  0  0  0  0  0  0
    6.1610    0.5990   -0.4640 C   0  0  0  0  0  0  0  0  0  0  0  0
    7.6030    0.1520   -0.4880 C   0  0  0  0  0  0  0  0  0  0  0  0
    7.8880   -1.3730    0.5400 P   0  0  0  0  0  0  0  0  0  0  0  0
    8.3150   -0.9460    2.1780 O   0  0  0  0  0  0  0  0  0  0  0  0
    9.2410   -2.2420   -0.1210 O   0  0  0  0  0  0  0  0  0  0  0  0
   -6.3320   -1.6690   -0.5920 C   0  0  0  0  0  0  0  0  0  0  0  0
   -6.2430   -2.6640    0.2600 C   0  0  0  0  0  0  0  0  0  0  0  0
   -7.4800   -3.5370    0.4930 C   0  0  0  0  0  0  0  0  0  0  0  0
   -8.5230   -3.1040   -0.2710 O   0  0  0  0  0  0  0  0  0  0  0  0
   -7.4680   -1.4280   -1.2290 O   0  0  0  0  0  0  0  0  0  0  0  0
   -8.3610   -0.8590   -1.9850 C   0  0  0  0  0  0  0  0  0  0  0  0
  1  2  2  0
  2  3  1  0
  3  4  2  3
  4  5  1  0
  4 32  1  0
  5  6  2  0
  5  7  1  0
  7  8  1  0
  8  9  1  6
  8 10  1  0
 10 11  2  0
 10 19  1  0
 11 12  1  0
 12 13  1  0
 12 17  2  0
 13 14  1  0
 14 15  1  0
 14 16  2  0
 17 18  1  0
 18 19  2  0
 18 24  1  0
 19 20  1  0
 20 21  1  0
 21 22  1  0
 22 23  1  0
 22 24  1  0
 24 25  1  6
 25 26  1  0
 26 27  1  0
 27 28  1  0
 28 29  1  0
 29 30  1  0
 29 31  1  0
 32 33  2  3
 32 36  1  0
 33 34  1  0
 34 35  1  0
 36 37  1  0
M  END
