
     RDKit          3D

 37 39  0  0  0  0  0  0  0  0999 V2000
   -1.7460   -4.5360   -0.7880 C   0  0  0  0  0  0  0  0  0  0  0  0
   -1.8640   -4.8620    0.4850 C   0  0  0  0  0  0  0  0  0  0  0  0
   -2.0860   -3.8050    1.4540 C   0  0  0  0  0  0  0  0  0  0  0  0
   -2.2050   -4.1260    2.7260 C   0  0  0  0  0  0  0  0  0  0  0  0
   -2.1260   -5.5070    3.2290 C   0  0  0  0  0  0  0  0  0  0  0  0
   -2.1750   -2.4180    1.0220 N   0  0  0  0  0  0  0  0  0  0  0  0
   -1.0440   -1.6120    1.1210 C   0  0  0  0  0  0  0  0  0  0  0  0
   -1.1010   -0.1540    0.7620 C   0  0  2  0  0  0  0  0  0  0  0  0
   -2.1980    0.5330    2.3100 Br  0  0  0  0  0  0  0  0  0  0  0  0
   -1.9460    0.0850   -0.3560 N   0  0  0  0  0  0  0  0  0  0  0  0
   -3.3590    0.2140   -0.2620 C   0  0  0  0  0  0  0  0  0  0  0  0
   -3.8500    0.1460    0.9410 O   0  0  0  0  0  0  0  0  0  0  0  0
   -4.3220    0.4080   -1.3140 C   0  0  0  0  0  0  0  0  0  0  0  0
   -5.7680    0.5310   -0.8980 C   0  0  0  0  0  0  0  0  0  0  0  0
   -6.2800    0.5270    0.2610 C   0  0  0  0  0  0  0  0  0  0  0  0
   -4.1800    0.4580   -2.6000 C   0  0  0  0  0  0  0  0  0  0  0  0
   -3.1100    0.3550   -3.5430 C   0  0  0  0  0  0  0  0  0  0  0  0
   -2.8810    1.9240   -4.5500 P   0  0  0  0  0  0  0  0  0  0  0  0
   -4.1720    2.0610   -5.7260 O   0  0  0  0  0  0  0  0  0  0  0  0
    0.1100    0.3080    0.8650 O   0  0  0  0  0  0  0  0  0  0  0  0
    0.6940    1.4460    0.7230 C   0  0  2  0  0  0  0  0  0  0  0  0
    0.6150    2.1730   -0.6280 C   0  0  0  0  0  0  0  0  0  0  0  0
   -0.6220    2.6560   -0.9300 O   0  0  0  0  0  0  0  0  0  0  0  0
    2.1440    1.0990    0.7410 N   0  0  0  0  0  0  0  0  0  0  0  0
    2.7570    0.9260    1.8540 C   0  0  0  0  0  0  0  0  0  0  0  0
    4.1230    0.6020    1.8010 N   0  0  0  0  0  0  0  0  0  0  0  0
    5.0230    0.8700    0.7430 C   0  0  0  0  0  0  0  0  0  0  0  0
    6.3130    0.3190    0.8030 C   0  0  0  0  0  0  0  0  0  0  0  0
    7.2330    0.5440   -0.1920 C   0  0  0  0  0  0  0  0  0  0  0  0
    6.9660    1.3120   -1.3020 C   0  0  0  0  0  0  0  0  0  0  0  0
    7.9950    1.5240   -2.3530 C   0  0  0  0  0  0  0  0  0  0  0  0
    5.7060    1.8600   -1.3780 C   0  0  0  0  0  0  0  0  0  0  0  0
    4.7620    1.6340   -0.3640 C   0  0  0  0  0  0  0  0  0  0  0  0
    2.0190    1.0720    3.0060 O   0  0  0  0  0  0  0  0  0  0  0  0
    1.0930    2.1220    3.1220 C   0  0  0  0  0  0  0  0  0  0  0  0
    0.5900    2.5220    1.7590 C   0  0  2  0  0  0  0  0  0  0  0  0
   -0.6980    3.0090    1.9450 O   0  0  0  0  0  0  0  0  0  0  0  0
  1  2  2  0
  2  3  1  0
  3  4  2  3
  3  6  1  0
  4  5  1  0
  6  7  1  0
  8  7  1  1
  8  9  1  0
  8 10  1  0
  8 20  1  0
 10 11  1  0
 11 12  2  0
 11 13  1  0
 13 14  1  0
 13 16  2  3
 14 15  2  0
 16 17  1  0
 17 18  1  0
 18 19  1  0
 20 21  1  0
 21 22  1  6
 21 24  1  0
 21 36  1  0
 22 23  1  0
 24 25  2  0
 25 26  1  0
 25 34  1  0
 26 27  1  0
 27 28  2  0
 27 33  1  0
 28 29  1  0
 29 30  2  0
 30 31  1  0
 30 32  1  0
 32 33  2  0
 34 35  1  0
 35 36  1  0
 36 37  1  1
 12  9  1  0
M  END
