
     RDKit          3D

 37 39  0  0  0  0  0  0  0  0999 V2000
   -7.7500   -0.9970   -1.4120 C   0  0  0  0  0  0  0  0  0  0  0  0
   -6.7300    0.0860   -1.5500 C   0  0  0  0  0  0  0  0  0  0  0  0
   -5.6290   -0.2970   -2.3050 O   0  0  0  0  0  0  0  0  0  0  0  0
   -4.4500    0.9190   -2.4830 P   0  0  0  0  0  0  0  0  0  0  0  0
   -2.9670    0.6680   -1.3580 C   0  0  0  0  0  0  0  0  0  0  0  0
   -3.3790    0.0810   -0.0670 C   0  0  0  0  0  0  0  0  0  0  0  0
   -2.4430   -0.1560    1.0110 C   0  0  0  0  0  0  0  0  0  0  0  0
   -1.3020   -0.9590    1.0060 N   0  0  0  0  0  0  0  0  0  0  0  0
   -1.4630   -2.2930    1.5880 C   0  0  0  0  0  0  0  0  0  0  0  0
   -2.7580   -2.7910    1.7710 C   0  0  0  0  0  0  0  0  0  0  0  0
   -2.9070   -4.0500    2.3150 C   0  0  0  0  0  0  0  0  0  0  0  0
   -1.8000   -4.7880    2.6650 C   0  0  0  0  0  0  0  0  0  0  0  0
   -0.5300   -4.2970    2.4850 C   0  0  0  0  0  0  0  0  0  0  0  0
   -0.3570   -3.0220    1.9350 C   0  0  0  0  0  0  0  0  0  0  0  0
    1.0570   -2.5250    1.7680 C   0  0  0  0  0  0  0  0  0  0  0  0
    0.9010   -0.9810    1.6960 C   0  0  1  0  0  0  0  0  0  0  0  0
    2.1980   -0.4820    1.8890 N   0  0  0  0  0  0  0  0  0  0  0  0
    2.9460    0.5470    1.1980 C   0  0  0  0  0  0  0  0  0  0  0  0
    3.8460    1.2380    1.8310 C   0  0  0  0  0  0  0  0  0  0  0  0
    4.7640    2.4970    1.0700 Cl  0  0  0  0  0  0  0  0  0  0  0  0
    2.6920    0.8030   -0.2120 C   0  0  0  0  0  0  0  0  0  0  0  0
    3.6980    0.7250   -1.0300 C   0  0  0  0  0  0  0  0  0  0  0  0
    5.0300    0.4070   -0.7390 N   0  0  0  0  0  0  0  0  0  0  0  0
    6.1260    0.6710   -1.6560 C   0  0  1  0  0  0  0  0  0  0  0  0
    6.1640    2.1110   -2.0100 C   0  0  0  0  0  0  0  0  0  0  0  0
    7.4200    0.2130   -1.1360 C   0  0  0  0  0  0  0  0  0  0  0  0
    7.5360   -0.3530    0.0000 O   0  0  0  0  0  0  0  0  0  0  0  0
    8.5870    0.3760   -1.8630 O   0  0  0  0  0  0  0  0  0  0  0  0
    9.8260   -0.0400   -1.4140 C   0  0  0  0  0  0  0  0  0  0  0  0
    9.8810   -0.5920   -0.2880 O   0  0  0  0  0  0  0  0  0  0  0  0
   10.9800    0.1500   -2.1930 O   0  0  0  0  0  0  0  0  0  0  0  0
    1.3770    1.0360   -0.7660 N   0  0  0  0  0  0  0  0  0  0  0  0
    0.1360    0.4700   -0.3040 C   0  0  0  0  0  0  0  0  0  0  0  0
    0.0750   -0.7300    0.5050 C   0  0  2  0  0  0  0  0  0  0  0  0
   -5.0230    2.5230   -2.4490 O   0  0  0  0  0  0  0  0  0  0  0  0
   -4.9860    3.1020   -1.1860 C   0  0  0  0  0  0  0  0  0  0  0  0
   -5.5160    4.5290   -1.2860 C   0  0  0  0  0  0  0  0  0  0  0  0
  1  2  1  0
  2  3  1  0
  3  4  1  0
  4  5  1  0
  4 35  1  0
  5  6  1  0
  6  7  1  0
  7  8  1  0
  8  9  1  0
  8 34  1  0
  9 10  2  0
  9 14  1  0
 10 11  1  0
 11 12  2  0
 12 13  1  0
 13 14  2  0
 14 15  1  0
 16 15  1  6
 16 17  1  0
 16 34  1  0
 17 18  1  0
 18 19  2  3
 18 21  1  0
 19 20  1  0
 21 22  2  3
 21 32  1  0
 22 23  1  0
 23 24  1  0
 24 25  1  1
 24 26  1  0
 26 27  2  0
 26 28  1  0
 28 29  1  0
 29 30  2  0
 29 31  1  0
 32 33  1  0
 34 33  1  1
 35 36  1  0
 36 37  1  0
M  END
