
     RDKit          3D

 37 39  0  0  0  0  0  0  0  0999 V2000
   -6.9300    6.5040    0.4030 C   0  0  0  0  0  0  0  0  0  0  0  0
   -5.9050    5.6730    0.2820 C   0  0  0  0  0  0  0  0  0  0  0  0
   -4.5750    6.2060    0.1170 C   0  0  0  0  0  0  0  0  0  0  0  0
   -3.4740    5.5420   -0.0140 C   0  0  0  0  0  0  0  0  0  0  0  0
   -3.3720    4.1190   -0.0180 C   0  0  0  0  0  0  0  0  0  0  0  0
   -4.4440    3.2860    0.1240 O   0  0  0  0  0  0  0  0  0  0  0  0
   -2.1770    3.5320   -0.1670 C   0  0  0  0  0  0  0  0  0  0  0  0
   -0.6520    4.6450   -0.3680 Br  0  0  0  0  0  0  0  0  0  0  0  0
   -2.0190    2.0870   -0.1760 C   0  0  0  0  0  0  0  0  0  0  0  0
   -3.0500    1.2860   -0.0320 N   0  0  0  0  0  0  0  0  0  0  0  0
   -2.8660   -0.1000   -0.0480 N   0  0  0  0  0  0  0  0  0  0  0  0
   -1.5540   -0.6750   -0.2230 C   0  0  0  0  0  0  0  0  0  0  0  0
   -1.4250   -1.8620   -0.7800 C   0  0  0  0  0  0  0  0  0  0  0  0
   -2.5590   -2.6090   -1.2230 N   0  0  0  0  0  0  0  0  0  0  0  0
   -3.0110   -3.7780   -0.5740 C   0  0  0  0  0  0  0  0  0  0  0  0
   -4.1060   -4.4940   -1.0020 C   0  0  0  0  0  0  0  0  0  0  0  0
   -4.5370   -5.6380   -0.3580 C   0  0  0  0  0  0  0  0  0  0  0  0
   -3.8760   -6.1120    0.7530 C   0  0  0  0  0  0  0  0  0  0  0  0
   -4.3080   -7.2760    1.4140 O   0  0  0  0  0  0  0  0  0  0  0  0
   -2.7780   -5.4080    1.1970 C   0  0  0  0  0  0  0  0  0  0  0  0
   -2.3550   -4.2520    0.5330 C   0  0  0  0  0  0  0  0  0  0  0  0
   -0.0500   -2.4380   -0.9670 C   0  0  0  0  0  0  0  0  0  0  0  0
    0.8010   -1.8160    0.1160 C   0  0  0  0  0  0  0  0  0  0  0  0
    0.8270   -0.3840   -0.1170 N   0  0  0  0  0  0  0  0  0  0  0  0
    1.9200    0.2500    0.5800 C   0  0  0  0  0  0  0  0  0  0  0  0
    3.2710   -0.1200    0.0240 C   0  0  1  0  0  0  0  0  0  0  0  0
    3.3670    0.2530   -1.3310 O   0  0  0  0  0  0  0  0  0  0  0  0
    4.5890    0.8440    0.9100 P   0  0  0  0  0  0  0  0  0  0  0  0
    5.8900   -0.1400    1.4620 O   0  0  0  0  0  0  0  0  0  0  0  0
    5.8600   -1.4400    1.0270 C   0  0  0  0  0  0  0  0  0  0  0  0
    7.0910   -2.1320    1.6170 C   0  0  0  0  0  0  0  0  0  0  0  0
    5.2280    2.1190   -0.0700 O   0  0  0  0  0  0  0  0  0  0  0  0
    6.0930    1.6420   -1.0560 C   0  0  0  0  0  0  0  0  0  0  0  0
    6.6010    2.8090   -1.8580 C   0  0  0  0  0  0  0  0  0  0  0  0
   -0.4270    0.1740    0.2610 C   0  0  1  0  0  0  0  0  0  0  0  0
   -0.6910    1.5240   -0.3420 C   0  0  0  0  0  0  0  0  0  0  0  0
    0.2290    2.0980   -0.9540 O   0  0  0  0  0  0  0  0  0  0  0  0
  1  2  2  0
  2  3  1  0
  3  4  2  3
  4  5  1  0
  5  6  1  0
  5  7  2  3
  7  8  1  0
  7  9  1  0
  9 10  2  0
  9 36  1  0
 10 11  1  0
 11 12  1  0
 12 13  2  0
 12 35  1  0
 13 14  1  0
 13 22  1  0
 14 15  1  0
 15 16  2  0
 15 21  1  0
 16 17  1  0
 17 18  2  0
 18 19  1  0
 18 20  1  0
 20 21  2  0
 22 23  1  0
 23 24  1  0
 24 25  1  0
 35 24  1  6
 25 26  1  0
 26 27  1  6
 26 28  1  0
 28 29  1  0
 28 32  1  0
 29 30  1  0
 30 31  1  0
 32 33  1  0
 33 34  1  0
 35 36  1  0
 36 37  2  0
M  END
