
     RDKit          3D

 37 39  0  0  0  0  0  0  0  0999 V2000
    6.7670    1.3850    2.5710 C   0  0  0  0  0  0  0  0  0  0  0  0
    6.0910    0.3700    1.5540 C   0  0  0  0  0  0  0  0  0  0  0  0
    6.5690    0.7900    0.3550 O   0  0  0  0  0  0  0  0  0  0  0  0
    5.6300    1.0780   -0.9420 P   0  0  0  0  0  0  0  0  0  0  0  0
    3.8790    1.1480   -1.0530 C   0  0  0  0  0  0  0  0  0  0  0  0
    3.2170   -0.1920   -0.5980 C   0  0  0  0  0  0  0  0  0  0  0  0
    1.9100    0.2480   -0.2440 O   0  0  0  0  0  0  0  0  0  0  0  0
    0.9270   -0.4670    0.3160 C   0  0  0  0  0  0  0  0  0  0  0  0
    0.7690   -1.7180    0.6770 C   0  0  0  0  0  0  0  0  0  0  0  0
   -0.3110   -2.4190    1.3010 C   0  0  0  0  0  0  0  0  0  0  0  0
   -0.0580   -3.7780    1.5950 C   0  0  0  0  0  0  0  0  0  0  0  0
   -0.7780   -4.8420    1.7120 C   0  0  0  0  0  0  0  0  0  0  0  0
    0.2160   -6.4650    2.1630 Br  0  0  0  0  0  0  0  0  0  0  0  0
   -2.1710   -5.1060    1.7120 C   0  0  0  0  0  0  0  0  0  0  0  0
   -2.5370   -6.5350    1.8920 N   0  0  0  0  0  0  0  0  0  0  0  0
   -3.1500   -4.3280    1.5540 O   0  0  0  0  0  0  0  0  0  0  0  0
   -1.3540   -1.4930    1.5300 C   0  0  0  0  0  0  0  0  0  0  0  0
   -1.3330   -0.1510    1.2110 C   0  0  0  0  0  0  0  0  0  0  0  0
   -0.2300    0.4430    0.6270 C   0  0  0  0  0  0  0  0  0  0  0  0
    0.1450    1.7450    0.2530 C   0  0  0  0  0  0  0  0  0  0  0  0
   -0.6620    2.0300   -1.0320 C   0  0  0  0  0  0  0  0  0  0  0  0
   -1.9830    2.4930   -0.4810 C   0  0  0  0  0  0  0  0  0  0  0  0
   -2.7970    1.4580    0.0990 N   0  0  0  0  0  0  0  0  0  0  0  0
   -3.9990    1.6130   -0.8010 C   0  0  0  0  0  0  0  0  0  0  0  0
   -3.7160    2.0740   -1.8720 O   0  0  0  0  0  0  0  0  0  0  0  0
   -5.3690    1.2690   -0.3460 C   0  0  2  0  0  0  0  0  0  0  0  0
   -5.6980   -0.1850   -0.6030 C   0  0  0  0  0  0  0  0  0  0  0  0
   -6.3260    2.0260   -1.1400 N   0  0  0  0  0  0  0  0  0  0  0  0
   -6.3380    1.7200   -2.5100 C   0  0  0  0  0  0  0  0  0  0  0  0
   -5.6120    1.5170    1.0920 C   0  0  0  0  0  0  0  0  0  0  0  0
   -6.7330    2.0170    1.3740 O   0  0  0  0  0  0  0  0  0  0  0  0
   -4.7260    1.2740    2.1660 N   0  0  0  0  0  0  0  0  0  0  0  0
   -3.4660    0.5430    2.3220 C   0  0  0  0  0  0  0  0  0  0  0  0
   -2.7340    0.4230    1.1110 C   0  0  2  0  0  0  0  0  0  0  0  0
    6.3590    1.5800   -2.4360 O   0  0  0  0  0  0  0  0  0  0  0  0
    6.9520    0.3140   -2.8100 C   0  0  0  0  0  0  0  0  0  0  0  0
    7.3910    0.3960   -4.2230 C   0  0  0  0  0  0  0  0  0  0  0  0
  1  2  1  0
  2  3  1  0
  3  4  1  0
  4  5  1  0
  4 35  1  0
  5  6  1  0
  6  7  1  0
  7  8  1  0
  8  9  2  0
  8 19  1  0
  9 10  1  0
 10 11  1  0
 10 17  2  0
 11 12  2  3
 12 13  1  0
 12 14  1  0
 14 15  1  0
 14 16  2  0
 17 18  1  0
 18 19  2  0
 18 34  1  0
 19 20  1  0
 20 21  1  0
 21 22  1  0
 22 23  1  0
 23 24  1  0
 23 34  1  0
 24 25  2  0
 24 26  1  0
 26 27  1  1
 26 28  1  0
 26 30  1  0
 28 29  1  0
 30 31  2  0
 30 32  1  0
 32 33  1  0
 34 33  1  1
 35 36  1  0
 36 37  1  0
M  END
