
     RDKit          3D

 37 39  0  0  0  0  0  0  0  0999 V2000
   -5.4630   -5.3510    1.2160 C   0  0  0  0  0  0  0  0  0  0  0  0
   -5.6990   -3.9690    1.0930 O   0  0  0  0  0  0  0  0  0  0  0  0
   -5.1100   -3.5190   -0.4820 P   0  0  0  0  0  0  0  0  0  0  0  0
   -6.2840   -4.1430   -1.7690 C   0  0  0  0  0  0  0  0  0  0  0  0
   -4.9280   -1.8140   -0.5210 O   0  0  0  0  0  0  0  0  0  0  0  0
   -4.7520   -1.3830   -1.8360 C   0  0  0  0  0  0  0  0  0  0  0  0
   -4.5860    0.0820   -1.9830 C   0  0  0  0  0  0  0  0  0  0  0  0
   -3.3970    0.6680   -1.2520 C   0  0  2  0  0  0  0  0  0  0  0  0
   -3.5640    0.3770    0.2120 C   0  0  0  0  0  0  0  0  0  0  0  0
   -3.5310    2.5950   -1.5860 Br  0  0  0  0  0  0  0  0  0  0  0  0
   -2.1540    0.1200   -1.8630 C   0  0  0  0  0  0  0  0  0  0  0  0
   -0.9230    0.5540   -1.3120 N   0  0  0  0  0  0  0  0  0  0  0  0
   -0.2640    1.7230   -1.8020 C   0  0  0  0  0  0  0  0  0  0  0  0
    0.6700    2.4630   -1.2420 C   0  0  0  0  0  0  0  0  0  0  0  0
    1.1080    3.5940   -2.0510 C   0  0  0  0  0  0  0  0  0  0  0  0
    0.7050    4.0140   -3.2970 C   0  0  0  0  0  0  0  0  0  0  0  0
    1.4100    5.1380   -3.6570 C   0  0  0  0  0  0  0  0  0  0  0  0
    2.2620    5.4200   -2.6270 C   0  0  0  0  0  0  0  0  0  0  0  0
    3.2420    6.5660   -2.5580 C   0  0  0  0  0  0  0  0  0  0  0  0
    2.0690    4.4920   -1.6810 N   0  0  0  0  0  0  0  0  0  0  0  0
    1.3130    2.2880    0.0800 C   0  0  0  0  0  0  0  0  0  0  0  0
    0.4640    1.5990    1.0990 C   0  0  0  0  0  0  0  0  0  0  0  0
    0.4100    0.0970    0.9330 C   0  0  2  0  0  0  0  0  0  0  0  0
   -0.1750   -0.4490    2.0580 O   0  0  0  0  0  0  0  0  0  0  0  0
    1.7640   -0.4640    0.7370 C   0  0  0  0  0  0  0  0  0  0  0  0
    2.0650   -1.1110   -0.3320 N   0  0  0  0  0  0  0  0  0  0  0  0
    3.3600   -1.6370   -0.5000 C   0  0  0  0  0  0  0  0  0  0  0  0
    3.5520   -2.5910   -1.2740 O   0  0  0  0  0  0  0  0  0  0  0  0
    4.4550   -0.9870    0.2950 C   0  0  0  0  0  0  0  0  0  0  0  0
    4.0020   -0.7880    1.7260 C   0  0  2  0  0  0  0  0  0  0  0  0
    4.0970   -2.1330    2.4100 C   0  0  0  0  0  0  0  0  0  0  0  0
    3.6700   -2.0770    3.8580 C   0  0  0  0  0  0  0  0  0  0  0  0
    4.5270   -1.1200    4.6580 C   0  0  0  0  0  0  0  0  0  0  0  0
    5.9230   -1.4980    4.6470 N   0  0  0  0  0  0  0  0  0  0  0  0
    2.6950   -0.2710    1.7390 O   0  0  0  0  0  0  0  0  0  0  0  0
   -0.4400   -0.2790   -0.2510 C   0  0  0  0  0  0  0  0  0  0  0  0
   -0.7440   -1.5040   -0.2690 O   0  0  0  0  0  0  0  0  0  0  0  0
  1  2  1  0
  2  3  1  0
  3  4  1  0
  3  5  1  0
  5  6  1  0
  6  7  1  0
  7  8  1  0
  8  9  1  1
  8 10  1  0
  8 11  1  0
 11 12  1  0
 12 13  1  0
 12 36  1  0
 13 14  2  0
 14 15  1  0
 14 21  1  0
 15 16  2  0
 15 20  1  0
 16 17  1  0
 17 18  2  0
 18 19  1  0
 18 20  1  0
 21 22  1  0
 22 23  1  0
 23 24  1  1
 23 25  1  0
 23 36  1  0
 25 26  2  0
 25 35  1  0
 26 27  1  0
 27 28  2  0
 27 29  1  0
 29 30  1  0
 30 31  1  1
 30 35  1  0
 31 32  1  0
 32 33  1  0
 33 34  1  0
 36 37  2  0
M  END
