
     RDKit          3D

 38 42  0  0  0  0  0  0  0  0999 V2000
   -4.8150   -4.7100   -1.2350 N   0  0  0  0  0  0  0  0  0  0  0  0
   -4.0880   -3.4920   -1.3500 C   0  0  0  0  0  0  0  0  0  0  0  0
   -4.2590   -2.6420   -2.3790 N   0  0  0  0  0  0  0  0  0  0  0  0
   -3.5640   -1.4790   -2.4880 C   0  0  0  0  0  0  0  0  0  0  0  0
   -2.6720   -1.1750   -1.5240 N   0  0  0  0  0  0  0  0  0  0  0  0
   -2.4520   -1.9680   -0.4800 C   0  0  0  0  0  0  0  0  0  0  0  0
   -3.1620   -3.1560   -0.3680 C   0  0  0  0  0  0  0  0  0  0  0  0
   -2.7350   -3.7230    0.7560 N   0  0  0  0  0  0  0  0  0  0  0  0
   -1.8160   -2.9410    1.3130 C   0  0  0  0  0  0  0  0  0  0  0  0
   -1.6130   -1.8280    0.5630 N   0  0  0  0  0  0  0  0  0  0  0  0
   -0.6890   -0.8070    0.9050 C   0  0  2  0  0  0  0  0  0  0  0  0
   -1.2240    0.1950    1.7140 O   0  0  0  0  0  0  0  0  0  0  0  0
   -0.3160    1.2200    1.7140 C   0  0  2  0  0  0  0  0  0  0  0  0
   -0.9530    2.5840    1.8460 C   0  0  0  0  0  0  0  0  0  0  0  0
   -1.8340    2.8790    0.8290 O   0  0  0  0  0  0  0  0  0  0  0  0
   -2.4540    4.4270    1.1240 P   0  0  2  0  0  0  0  0  0  0  0  0
   -1.3760    5.4050    1.5130 O   0  0  0  0  0  0  0  0  0  0  0  0
   -3.5790    4.3300    2.3760 O   0  0  0  0  0  0  0  0  0  0  0  0
   -3.1700    4.9800   -0.3070 O   0  0  0  0  0  0  0  0  0  0  0  0
    0.5320    1.1100    0.4890 C   0  0  1  0  0  0  0  0  0  0  0  0
    1.7240    0.5000    0.7940 O   0  0  0  0  0  0  0  0  0  0  0  0
    2.0440   -0.1640   -0.3860 C   0  0  1  0  0  0  0  0  0  0  0  0
    0.8520   -0.6020   -0.9430 O   0  0  0  0  0  0  0  0  0  0  0  0
   -0.1870   -0.0080   -0.2750 C   0  0  1  0  0  0  0  0  0  0  0  0
    2.7460    0.8190   -1.2490 C   0  0  0  0  0  0  0  0  0  0  0  0
    2.1520    1.4350   -2.3750 N   0  0  0  0  0  0  0  0  0  0  0  0
    2.1300    2.6720   -2.4750 O   0  0  0  0  0  0  0  0  0  0  0  0
    1.5920    0.6750   -3.3670 O   0  0  0  0  0  0  0  0  0  0  0  0
    3.9940    1.1170   -0.9260 C   0  0  0  0  0  0  0  0  0  0  0  0
    4.6420    0.4670    0.2730 C   0  0  2  0  0  0  0  0  0  0  0  0
    6.0610    0.5680    0.1840 N   0  0  0  0  0  0  0  0  0  0  0  0
    6.5920    1.1290   -0.7790 O   0  0  0  0  0  0  0  0  0  0  0  0
    6.8340    0.0360    1.1830 O   0  0  0  0  0  0  0  0  0  0  0  0
    4.2210   -0.9790    0.1620 C   0  0  0  0  0  0  0  0  0  0  0  0
    2.9780   -1.2900   -0.1530 C   0  0  0  0  0  0  0  0  0  0  0  0
    2.4740   -2.6090   -0.2850 N   0  0  0  0  0  0  0  0  0  0  0  0
    2.1270   -3.0950   -1.3810 O   0  0  0  0  0  0  0  0  0  0  0  0
    2.3310   -3.4570    0.8120 O   0  0  0  0  0  0  0  0  0  0  0  0
  1  2  1  0
  2  3  2  0
  2  7  1  0
  3  4  1  0
  4  5  2  0
  5  6  1  0
  6  7  2  0
  6 10  1  0
  7  8  1  0
  8  9  2  0
  9 10  1  0
 11 10  1  6
 11 12  1  0
 11 24  1  0
 12 13  1  0
 13 14  1  6
 13 20  1  0
 14 15  1  0
 15 16  1  0
 16 17  2  0
 16 18  1  1
 16 19  1  0
 20 21  1  1
 20 24  1  0
 22 21  1  1
 22 23  1  0
 22 25  1  0
 22 35  1  0
 24 23  1  6
 25 26  1  0
 25 29  2  0
 26 27  2  0
 26 28  1  0
 29 30  1  0
 30 31  1  6
 30 34  1  0
 31 32  2  0
 31 33  1  0
 34 35  2  0
 35 36  1  0
 36 37  2  0
 36 38  1  0
M  CHG  6  26   1  28  -1  31   1  33  -1  36   1  38  -1
M  END
