
     RDKit          3D

 37 39  0  0  0  0  0  0  0  0999 V2000
   -7.6450   -5.0930    1.1880 C   0  0  0  0  0  0  0  0  0  0  0  0
   -6.3560   -4.3490    0.9630 C   0  0  0  0  0  0  0  0  0  0  0  0
   -5.9680   -4.1760   -0.3560 C   0  0  0  0  0  0  0  0  0  0  0  0
   -4.7930   -3.5000   -0.5970 C   0  0  0  0  0  0  0  0  0  0  0  0
   -4.0330   -3.0120    0.4570 C   0  0  0  0  0  0  0  0  0  0  0  0
   -4.4440   -3.1980    1.7640 C   0  0  0  0  0  0  0  0  0  0  0  0
   -5.6180   -3.8740    2.0280 C   0  0  0  0  0  0  0  0  0  0  0  0
   -3.4460   -2.5790    2.6400 C   0  0  0  0  0  0  0  0  0  0  0  0
   -2.4670   -2.0430    1.7970 O   0  0  0  0  0  0  0  0  0  0  0  0
   -2.7650   -2.2720    0.4610 C   0  0  0  0  0  0  0  0  0  0  0  0
   -2.0940   -1.9230   -0.6170 C   0  0  0  0  0  0  0  0  0  0  0  0
   -0.8970   -1.2210   -0.5150 N   0  0  0  0  0  0  0  0  0  0  0  0
   -0.8260    0.0750   -0.2170 C   0  0  0  0  0  0  0  0  0  0  0  0
   -2.0880    0.7170   -0.0030 C   0  0  0  0  0  0  0  0  0  0  0  0
   -2.3490    1.9630    0.3040 C   0  0  0  0  0  0  0  0  0  0  0  0
   -3.6940    2.4710    0.4910 C   0  0  0  0  0  0  0  0  0  0  0  0
   -3.9000    3.7210    0.7960 C   0  0  0  0  0  0  0  0  0  0  0  0
   -2.5490    4.8040    0.9840 Cl  0  0  0  0  0  0  0  0  0  0  0  0
   -5.0980    1.3250    0.2920 P   0  0  0  0  0  0  0  0  0  0  0  0
   -6.4520    2.1100   -0.4820 O   0  0  0  0  0  0  0  0  0  0  0  0
   -5.6500    0.6950    1.8000 O   0  0  0  0  0  0  0  0  0  0  0  0
    0.4490    0.6470   -0.1540 N   0  0  0  0  0  0  0  0  0  0  0  0
    1.6810   -0.0320    0.1970 C   0  0  0  0  0  0  0  0  0  0  0  0
    2.6560    0.5300   -0.4800 N   0  0  0  0  0  0  0  0  0  0  0  0
    2.1400    1.5810   -1.2930 C   0  0  2  0  0  0  0  0  0  0  0  0
    3.0040    2.7230   -1.6220 C   0  0  0  0  0  0  0  0  0  0  0  0
    4.2310    2.3210   -2.3790 C   0  0  0  0  0  0  0  0  0  0  0  0
    5.1400    1.4730   -1.6030 C   0  0  0  0  0  0  0  0  0  0  0  0
    5.0140    1.3080   -0.3770 O   0  0  0  0  0  0  0  0  0  0  0  0
    6.1920    0.8250   -2.2840 N   0  0  0  0  0  0  0  0  0  0  0  0
    7.1290   -0.0220   -1.5910 C   0  0  0  0  0  0  0  0  0  0  0  0
    7.8920    0.7460   -0.5370 C   0  0  0  0  0  0  0  0  0  0  0  0
    8.8700   -0.1930    0.1640 C   0  0  0  0  0  0  0  0  0  0  0  0
    9.7510   -0.7030   -0.7880 O   0  0  0  0  0  0  0  0  0  0  0  0
    0.9030    1.9940   -0.4230 C   0  0  2  0  0  0  0  0  0  0  0  0
    1.5160    2.5760    0.8290 C   0  0  0  0  0  0  0  0  0  0  0  0
    0.6570    2.6210    1.9180 O   0  0  0  0  0  0  0  0  0  0  0  0
  1  2  1  0
  2  3  2  0
  2  7  1  0
  3  4  1  0
  4  5  2  0
  5  6  1  0
  5 10  1  0
  6  7  2  0
  6  8  1  0
  8  9  1  0
  9 10  1  0
 10 11  2  3
 11 12  1  0
 12 13  2  3
 13 14  1  0
 13 22  1  0
 14 15  2  3
 15 16  1  0
 16 17  2  3
 16 19  1  0
 17 18  1  0
 19 20  1  0
 19 21  1  0
 22 23  1  0
 22 35  1  0
 23 24  2  0
 24 25  1  0
 25 26  1  1
 25 35  1  0
 26 27  1  0
 27 28  1  0
 28 29  2  0
 28 30  1  0
 30 31  1  0
 31 32  1  0
 32 33  1  0
 33 34  1  0
 35 36  1  1
 36 37  1  0
M  END
