
     RDKit          3D

 34 37  0  0  0  0  0  0  0  0999 V2000
   -6.7240   -2.1830    0.0550 C   0  0  0  0  0  0  0  0  0  0  0  0
   -6.8370   -0.8500   -0.5450 C   0  0  0  0  0  0  0  0  0  0  0  0
   -8.1080   -0.2590   -0.5170 C   0  0  0  0  0  0  0  0  0  0  0  0
   -8.3150    0.9380   -1.1380 C   0  0  0  0  0  0  0  0  0  0  0  0
   -9.6020    1.5450   -1.1140 N   0  0  0  0  0  0  0  0  0  0  0  0
   -7.2560    1.5500   -1.7870 C   0  0  0  0  0  0  0  0  0  0  0  0
   -7.4970    2.7690   -2.4050 C   0  0  0  0  0  0  0  0  0  0  0  0
   -6.4640    3.4000   -3.0500 C   0  0  0  0  0  0  0  0  0  0  0  0
   -5.2070    2.8640   -3.1000 C   0  0  0  0  0  0  0  0  0  0  0  0
   -5.0090    1.6280   -2.4610 C   0  0  0  0  0  0  0  0  0  0  0  0
   -6.0240    0.9730   -1.8090 C   0  0  0  0  0  0  0  0  0  0  0  0
   -5.8200   -0.2420   -1.1770 N   0  0  0  0  0  0  0  0  0  0  0  0
   -4.5070   -0.7000   -1.1450 C   0  0  0  0  0  0  0  0  0  0  0  0
   -3.9400   -1.4590   -0.2390 C   0  0  0  0  0  0  0  0  0  0  0  0
   -2.4860   -1.8700   -0.3750 C   0  0  0  0  0  0  0  0  0  0  0  0
   -1.6810   -1.3730    0.8280 C   0  0  0  0  0  0  0  0  0  0  0  0
   -0.2330   -1.8420    0.6690 C   0  0  0  0  0  0  0  0  0  0  0  0
    0.5760   -1.3700    1.8350 C   0  0  0  0  0  0  0  0  0  0  0  0
    2.0130   -1.8650    1.7390 C   0  0  0  0  0  0  0  0  0  0  0  0
    2.7110   -1.3840    0.4990 C   0  0  0  0  0  0  0  0  0  0  0  0
    2.8770    0.0690    0.3800 C   0  0  0  0  0  0  0  0  0  0  0  0
    3.7860    0.7990    1.3000 C   0  0  0  0  0  0  0  0  0  0  0  0
    5.1780    0.4980    1.1970 N   0  0  0  0  0  0  0  0  0  0  0  0
    5.8020   -0.3790    1.9680 C   0  0  0  0  0  0  0  0  0  0  0  0
    5.1560   -1.0690    3.0820 C   0  0  0  0  0  0  0  0  0  0  0  0
    7.1650   -0.6990    1.8140 C   0  0  0  0  0  0  0  0  0  0  0  0
    7.9060   -0.1000    0.8420 C   0  0  0  0  0  0  0  0  0  0  0  0
    9.3020   -0.4180    0.6660 N   0  0  0  0  0  0  0  0  0  0  0  0
    7.2720    0.8110    0.0370 C   0  0  0  0  0  0  0  0  0  0  0  0
    8.0370    1.4230   -0.9550 C   0  0  0  0  0  0  0  0  0  0  0  0
    7.4540    2.3470   -1.7890 C   0  0  0  0  0  0  0  0  0  0  0  0
    6.1320    2.6350   -1.6120 C   0  0  0  0  0  0  0  0  0  0  0  0
    5.3830    2.0140   -0.6180 C   0  0  0  0  0  0  0  0  0  0  0  0
    5.9400    1.0940    0.2210 C   0  0  0  0  0  0  0  0  0  0  0  0
  1  2  1  0
  2  3  2  0
  2 12  1  0
  3  4  1  0
  4  5  1  0
  4  6  2  0
  6  7  1  0
  6 11  1  0
  7  8  2  0
  8  9  1  0
  9 10  2  0
 10 11  1  0
 11 12  2  0
 12 13  1  0
 13 14  2  3
 14 15  1  0
 15 16  1  0
 16 17  1  0
 17 18  1  0
 18 19  1  0
 19 20  1  0
 20 21  1  0
 21 22  1  0
 22 23  1  0
 23 24  2  0
 23 34  1  0
 24 25  1  0
 24 26  1  0
 26 27  2  0
 27 28  1  0
 27 29  1  0
 29 30  2  0
 29 34  1  0
 30 31  1  0
 31 32  2  0
 32 33  1  0
 33 34  2  0
M  CHG  2  12   1  23   1
M  END
