
     RDKit          3D

 35 37  0  0  0  0  0  0  0  0999 V2000
    2.2130    6.0800   -0.9310 C   0  0  0  0  0  0  0  0  0  0  0  0
    1.7680    4.6470   -0.6810 C   0  0  0  0  0  0  0  0  0  0  0  0
    1.1610    4.5840    0.7010 C   0  0  2  0  0  0  0  0  0  0  0  0
    2.0590    4.9510    1.6810 O   0  0  0  0  0  0  0  0  0  0  0  0
    0.4630    3.2820    0.9730 C   0  0  0  0  0  0  0  0  0  0  0  0
    1.5890    1.8660    0.8450 S   0  0  0  0  0  0  0  0  0  0  0  0
    0.6190    0.3710    1.2050 C   0  0  1  0  0  0  0  0  0  0  0  0
   -0.4030    0.2030    0.0830 C   0  0  0  0  0  0  0  0  0  0  0  0
   -1.2550   -1.0240    0.3100 C   0  0  0  0  0  0  0  0  0  0  0  0
   -2.1950   -1.1500   -0.7210 N   0  0  0  0  0  0  0  0  0  0  0  0
   -1.6940   -1.8070   -1.8450 C   0  0  0  0  0  0  0  0  0  0  0  0
   -0.4870   -2.1000   -1.8230 O   0  0  0  0  0  0  0  0  0  0  0  0
   -2.5160   -2.0880   -2.8820 C   0  0  0  0  0  0  0  0  0  0  0  0
   -3.8390   -1.7530   -2.8810 C   0  0  0  0  0  0  0  0  0  0  0  0
   -4.3390   -1.1020   -1.7740 C   0  0  0  0  0  0  0  0  0  0  0  0
   -5.6350   -0.7840   -1.7400 N   0  0  0  0  0  0  0  0  0  0  0  0
   -6.1640   -0.1760   -0.6920 C   0  0  0  0  0  0  0  0  0  0  0  0
   -7.3840    0.1080   -0.6900 O   0  0  0  0  0  0  0  0  0  0  0  0
   -5.3850    0.1480    0.3960 C   0  0  0  0  0  0  0  0  0  0  0  0
   -5.9550    0.8030    1.4680 C   0  0  0  0  0  0  0  0  0  0  0  0
   -5.1840    1.1490    2.5410 C   0  0  0  0  0  0  0  0  0  0  0  0
   -3.8520    0.8520    2.5560 C   0  0  0  0  0  0  0  0  0  0  0  0
   -3.2510    0.1850    1.4750 C   0  0  0  0  0  0  0  0  0  0  0  0
   -4.0340   -0.1570    0.4180 C   0  0  0  0  0  0  0  0  0  0  0  0
   -3.4860   -0.8020   -0.6860 C   0  0  0  0  0  0  0  0  0  0  0  0
    1.4800   -0.8320    1.2970 C   0  0  0  0  0  0  0  0  0  0  0  0
    1.5020   -1.4710    2.3800 O   0  0  0  0  0  0  0  0  0  0  0  0
    2.2600   -1.2610    0.2050 N   0  0  0  0  0  0  0  0  0  0  0  0
    3.0890   -2.4360    0.3220 C   0  0  1  0  0  0  0  0  0  0  0  0
    2.5780   -3.5080   -0.6220 C   0  0  0  0  0  0  0  0  0  0  0  0
    3.3920   -4.7610   -0.5550 C   0  0  0  0  0  0  0  0  0  0  0  0
    4.5190   -2.1320    0.0700 C   0  0  0  0  0  0  0  0  0  0  0  0
    4.8710   -0.9450   -0.2080 O   0  0  0  0  0  0  0  0  0  0  0  0
    5.5130   -3.0900    0.1220 O   0  0  0  0  0  0  0  0  0  0  0  0
    6.8860   -2.7770   -0.1230 C   0  0  0  0  0  0  0  0  0  0  0  0
  1  2  1  0
  2  3  1  0
  3  4  1  1
  3  5  1  0
  5  6  1  0
  6  7  1  0
  7  8  1  6
  7 26  1  0
  8  9  1  0
  9 10  1  0
 10 11  1  0
 10 25  1  0
 11 12  2  0
 11 13  1  0
 13 14  2  0
 14 15  1  0
 15 16  1  0
 15 25  2  0
 16 17  1  0
 17 18  2  0
 17 19  1  0
 19 20  2  0
 19 24  1  0
 20 21  1  0
 21 22  2  0
 22 23  1  0
 23 24  2  0
 24 25  1  0
 26 27  2  0
 26 28  1  0
 28 29  1  0
 29 30  1  6
 29 32  1  0
 30 31  1  0
 32 33  2  0
 32 34  1  0
 34 35  1  0
M  END
