
     RDKit          3D

 35 37  0  0  0  0  0  0  0  0999 V2000
   -6.2200   -4.0650   -0.6470 C   0  0  0  0  0  0  0  0  0  0  0  0
   -5.9310   -2.7440   -1.3370 C   0  0  0  0  0  0  0  0  0  0  0  0
   -5.4340   -1.7880   -0.2550 C   0  0  0  0  0  0  0  0  0  0  0  0
   -5.1480   -0.4930   -0.9160 C   0  0  0  0  0  0  0  0  0  0  0  0
   -4.6530    0.5470   -0.0070 N   0  0  0  0  0  0  0  0  0  0  0  0
   -3.2950    0.6520    0.2220 C   0  0  0  0  0  0  0  0  0  0  0  0
   -2.9200    1.6180    0.9940 O   0  0  0  0  0  0  0  0  0  0  0  0
   -2.1810   -0.1520   -0.2630 C   0  0  0  0  0  0  0  0  0  0  0  0
   -1.9920   -1.2270   -1.0050 C   0  0  0  0  0  0  0  0  0  0  0  0
   -0.7650   -1.6980   -1.2800 C   0  0  0  0  0  0  0  0  0  0  0  0
    0.3140   -1.0300   -0.7660 C   0  0  0  0  0  0  0  0  0  0  0  0
    1.7870   -1.2680   -0.8680 C   0  0  0  0  0  0  0  0  0  0  0  0
    2.3720   -0.5500   -2.0640 C   0  0  2  0  0  0  0  0  0  0  0  0
    3.8420   -0.7820   -2.1780 C   0  0  0  0  0  0  0  0  0  0  0  0
    4.5200    0.0200   -1.1960 N   0  0  0  0  0  0  0  0  0  0  0  0
    5.7670   -0.4950   -0.6630 C   0  0  0  0  0  0  0  0  0  0  0  0
    6.2110   -1.5920   -1.0590 O   0  0  0  0  0  0  0  0  0  0  0  0
    6.4890    0.2330    0.3040 N   0  0  0  0  0  0  0  0  0  0  0  0
    7.7160   -0.1160    0.9280 C   0  0  0  0  0  0  0  0  0  0  0  0
    8.3920   -1.2770    0.6670 C   0  0  0  0  0  0  0  0  0  0  0  0
    9.6030   -1.6450    1.2690 C   0  0  0  0  0  0  0  0  0  0  0  0
   10.1530   -0.7820    2.1870 C   0  0  0  0  0  0  0  0  0  0  0  0
    9.4960    0.3870    2.4660 C   0  0  0  0  0  0  0  0  0  0  0  0
    8.2890    0.7450    1.8600 C   0  0  0  0  0  0  0  0  0  0  0  0
    7.6720    1.9190    2.1700 O   0  0  0  0  0  0  0  0  0  0  0  0
    3.9460    1.2740   -0.7940 C   0  0  0  0  0  0  0  0  0  0  0  0
    2.9640    1.6910   -1.8950 C   0  0  0  0  0  0  0  0  0  0  0  0
    1.9730    0.7610   -2.0680 O   0  0  0  0  0  0  0  0  0  0  0  0
   -0.4520    0.2960    0.1270 S   0  0  0  0  0  0  0  0  0  0  0  0
   -5.6320    1.4140    0.6440 C   0  0  1  0  0  0  0  0  0  0  0  0
   -5.6460    1.1480    2.1170 C   0  0  0  0  0  0  0  0  0  0  0  0
   -4.5100    1.3940    2.8160 O   0  0  0  0  0  0  0  0  0  0  0  0
   -5.3830    2.8460    0.3290 C   0  0  0  0  0  0  0  0  0  0  0  0
   -6.3440    3.8210    0.9450 C   0  0  0  0  0  0  0  0  0  0  0  0
   -6.3800    3.8490    2.3070 O   0  0  0  0  0  0  0  0  0  0  0  0
  1  2  1  0
  2  3  1  0
  3  4  1  0
  4  5  1  0
  5  6  1  0
  5 30  1  0
  6  7  2  0
  6  8  1  0
  8  9  2  0
  8 29  1  0
  9 10  1  0
 10 11  2  0
 11 12  1  0
 11 29  1  0
 13 12  1  1
 13 14  1  0
 13 28  1  0
 14 15  1  0
 15 16  1  0
 15 26  1  0
 16 17  2  0
 16 18  1  0
 18 19  1  0
 19 20  2  0
 19 24  1  0
 20 21  1  0
 21 22  2  0
 22 23  1  0
 23 24  2  0
 24 25  1  0
 26 27  1  0
 27 28  1  0
 30 31  1  1
 30 33  1  0
 31 32  1  0
 33 34  1  0
 34 35  1  0
M  END
