
     RDKit          3D

 35 37  0  0  0  0  0  0  0  0999 V2000
   -6.8040    3.9310    0.1250 C   0  0  0  0  0  0  0  0  0  0  0  0
   -6.5120    2.6130    0.5640 O   0  0  0  0  0  0  0  0  0  0  0  0
   -5.2580    2.0840    0.3090 C   0  0  0  0  0  0  0  0  0  0  0  0
   -4.3000    2.8130   -0.3580 C   0  0  0  0  0  0  0  0  0  0  0  0
   -3.0440    2.2310   -0.5910 C   0  0  0  0  0  0  0  0  0  0  0  0
   -2.7090    0.9660   -0.1910 C   0  0  0  0  0  0  0  0  0  0  0  0
   -1.4700    0.3470   -0.4020 N   0  0  0  0  0  0  0  0  0  0  0  0
   -0.3520    0.9090   -1.0700 C   0  0  0  0  0  0  0  0  0  0  0  0
   -0.4050    2.0470   -1.5360 O   0  0  0  0  0  0  0  0  0  0  0  0
    0.8710    0.1990   -1.2350 N   0  0  0  0  0  0  0  0  0  0  0  0
    2.0530    0.7000   -1.9030 C   0  0  2  0  0  0  0  0  0  0  0  0
    2.3160    0.1440   -3.2430 C   0  0  0  0  0  0  0  0  0  0  0  0
    2.5130   -1.3080   -3.4000 C   0  0  0  0  0  0  0  0  0  0  0  0
    1.6780   -2.1000   -4.1120 C   0  0  0  0  0  0  0  0  0  0  0  0
    2.1630   -3.4800   -4.0690 C   0  0  0  0  0  0  0  0  0  0  0  0
    3.4040   -3.4190   -3.2690 C   0  0  0  0  0  0  0  0  0  0  0  0
    3.5550   -2.1770   -2.9140 C   0  0  0  0  0  0  0  0  0  0  0  0
    3.1470    1.0920   -1.0050 C   0  0  0  0  0  0  0  0  0  0  0  0
    3.7150    0.1150   -0.0560 C   0  0  1  0  0  0  0  0  0  0  0  0
    4.8490    0.7440    0.7760 C   0  0  0  0  0  0  0  0  0  0  0  0
    4.2670    1.5560    1.9160 C   0  0  2  0  0  0  0  0  0  0  0  0
    4.7810    2.8510    1.9230 O   0  0  0  0  0  0  0  0  0  0  0  0
    4.6960    0.8990    3.2140 C   0  0  0  0  0  0  0  0  0  0  0  0
    3.6830   -0.0880    3.6960 C   0  0  0  0  0  0  0  0  0  0  0  0
    3.2480   -1.0780    2.6430 C   0  0  0  0  0  0  0  0  0  0  0  0
    2.4430   -0.2710    1.2340 S   0  0  0  0  0  0  0  0  0  0  0  0
   -3.7140    0.2670    0.4820 C   0  0  0  0  0  0  0  0  0  0  0  0
   -3.3960   -1.0250    0.9000 O   0  0  0  0  0  0  0  0  0  0  0  0
   -3.6670   -2.0760   -0.0090 C   0  0  0  0  0  0  0  0  0  0  0  0
   -3.2980   -3.3910    0.5220 C   0  0  0  0  0  0  0  0  0  0  0  0
   -2.7350   -3.5270    1.8180 N   0  0  0  0  0  0  0  0  0  0  0  0
   -3.4710   -4.4340   -0.1550 O   0  0  0  0  0  0  0  0  0  0  0  0
   -4.9630    0.8050    0.7300 C   0  0  0  0  0  0  0  0  0  0  0  0
   -5.8990    0.0290    1.4090 O   0  0  0  0  0  0  0  0  0  0  0  0
   -6.0450    0.0170    2.8070 C   0  0  0  0  0  0  0  0  0  0  0  0
  1  2  1  0
  2  3  1  0
  3  4  2  0
  3 33  1  0
  4  5  1  0
  5  6  2  0
  6  7  1  0
  6 27  1  0
  7  8  1  0
  8  9  2  0
  8 10  1  0
 10 11  1  0
 11 12  1  6
 11 18  1  0
 12 13  1  0
 13 14  2  0
 13 17  1  0
 14 15  1  0
 15 16  1  0
 16 17  2  0
 19 18  1  6
 19 20  1  0
 19 26  1  0
 20 21  1  0
 21 22  1  1
 21 23  1  0
 23 24  1  0
 24 25  1  0
 25 26  1  0
 27 28  1  0
 27 33  2  0
 28 29  1  0
 29 30  1  0
 30 31  1  0
 30 32  2  0
 33 34  1  0
 34 35  1  0
M  END
