
     RDKit          3D

 35 37  0  0  0  0  0  0  0  0999 V2000
   -2.1470    1.3570   -0.2200 C   0  0  0  0  0  0  0  0  0  0  0  0
   -1.1990    0.5080    0.6040 C   0  0  0  0  0  0  0  0  0  0  0  0
   -0.8800   -0.7080   -0.1940 C   0  0  0  0  0  0  0  0  0  0  0  0
   -1.6610   -1.8190   -0.3590 C   0  0  0  0  0  0  0  0  0  0  0  0
   -2.9670   -2.1990    0.1410 C   0  0  0  0  0  0  0  0  0  0  0  0
   -3.4120   -3.3810   -0.1110 O   0  0  0  0  0  0  0  0  0  0  0  0
   -3.8660   -1.4190    0.8960 N   0  0  0  0  0  0  0  0  0  0  0  0
   -5.1630   -1.9380    1.3300 C   0  0  0  0  0  0  0  0  0  0  0  0
   -5.9170   -0.8810    2.1120 C   0  0  0  0  0  0  0  0  0  0  0  0
   -6.1610    0.3550    1.2910 C   0  0  2  0  0  0  0  0  0  0  0  0
   -6.9150    1.3470    2.1420 C   0  0  0  0  0  0  0  0  0  0  0  0
   -8.3310    1.5070    1.6050 C   0  0  0  0  0  0  0  0  0  0  0  0
   -8.9210    0.2660    1.4330 O   0  0  0  0  0  0  0  0  0  0  0  0
   -8.3220   -0.4730    0.4220 C   0  0  0  0  0  0  0  0  0  0  0  0
   -6.9690    0.0840    0.0520 C   0  0  0  0  0  0  0  0  0  0  0  0
   -0.9750   -2.6530   -1.1780 N   0  0  0  0  0  0  0  0  0  0  0  0
    0.1820   -2.0850   -1.5080 C   0  0  0  0  0  0  0  0  0  0  0  0
    1.2190   -2.6780   -2.3950 C   0  0  0  0  0  0  0  0  0  0  0  0
    0.3130   -0.8580   -0.9240 C   0  0  0  0  0  0  0  0  0  0  0  0
    1.3370    0.1150   -0.9580 N   0  0  0  0  0  0  0  0  0  0  0  0
    2.4730    0.1110   -0.0730 C   0  0  0  0  0  0  0  0  0  0  0  0
    2.5690   -0.8050    0.7600 O   0  0  0  0  0  0  0  0  0  0  0  0
    3.4950    1.1710   -0.1550 C   0  0  2  0  0  0  0  0  0  0  0  0
    2.9380    2.5350    0.1820 C   0  0  0  0  0  0  0  0  0  0  0  0
    4.2070    1.1800   -1.4920 C   0  0  0  0  0  0  0  0  0  0  0  0
    5.2390    2.2800   -1.5530 C   0  0  0  0  0  0  0  0  0  0  0  0
    6.2490    2.2180   -0.6210 O   0  0  0  0  0  0  0  0  0  0  0  0
    7.2180    1.2500   -0.4490 C   0  0  0  0  0  0  0  0  0  0  0  0
    7.8670    1.1920    0.6850 C   0  0  0  0  0  0  0  0  0  0  0  0
    8.9240    0.2770    1.1100 C   0  0  0  0  0  0  0  0  0  0  0  0
    9.3140   -0.8890   -0.1390 S   0  0  2  0  0  0  0  0  0  0  0  0
    9.1750   -2.3070    0.3770 O   0  0  0  0  0  0  0  0  0  0  0  0
   10.7510   -0.6560   -0.5550 O   0  0  0  0  0  0  0  0  0  0  0  0
    8.3350   -0.6140   -1.5340 C   0  0  0  0  0  0  0  0  0  0  0  0
    7.4490    0.3390   -1.5800 C   0  0  0  0  0  0  0  0  0  0  0  0
  1  2  1  0
  2  3  1  0
  3  4  2  0
  3 19  1  0
  4  5  1  0
  4 16  1  0
  5  6  2  0
  5  7  1  0
  7  8  1  0
  8  9  1  0
 10  9  1  1
 10 11  1  0
 10 15  1  0
 11 12  1  0
 12 13  1  0
 13 14  1  0
 14 15  1  0
 16 17  1  0
 17 18  1  0
 17 19  2  0
 19 20  1  0
 20 21  1  0
 21 22  2  0
 21 23  1  0
 23 24  1  6
 23 25  1  0
 25 26  1  0
 26 27  1  0
 27 28  1  0
 28 29  2  0
 28 35  1  0
 29 30  1  0
 31 30  1  1
 31 32  2  0
 31 33  2  0
 31 34  1  0
 34 35  2  0
M  END
