
     RDKit          3D

 35 37  0  0  0  0  0  0  0  0999 V2000
    8.5090    1.9440   -3.2600 C   0  0  0  0  0  0  0  0  0  0  0  0
    7.1490    1.5830   -2.8040 C   0  0  0  0  0  0  0  0  0  0  0  0
    6.8460    1.3620   -1.5490 C   0  0  0  0  0  0  0  0  0  0  0  0
    8.1040    1.4930   -0.2970 S   0  0  0  0  0  0  0  0  0  0  0  0
    5.4530    0.9970   -1.2990 C   0  0  0  0  0  0  0  0  0  0  0  0
    4.8580    0.7310   -0.2210 C   0  0  0  0  0  0  0  0  0  0  0  0
    5.2220    0.6670    1.1400 C   0  0  0  0  0  0  0  0  0  0  0  0
    6.3190    0.9200    1.6240 O   0  0  0  0  0  0  0  0  0  0  0  0
    4.1480    0.2370    2.1620 C   0  0  0  0  0  0  0  0  0  0  0  0
    3.0240   -0.2970    1.4680 O   0  0  0  0  0  0  0  0  0  0  0  0
    3.2130   -1.4950    0.7480 C   0  0  0  0  0  0  0  0  0  0  0  0
    4.4260   -2.1400    0.7480 C   0  0  0  0  0  0  0  0  0  0  0  0
    4.5970   -3.3360    0.0320 C   0  0  0  0  0  0  0  0  0  0  0  0
    3.5240   -3.8220   -0.6520 C   0  0  0  0  0  0  0  0  0  0  0  0
    2.2780   -3.1700   -0.6600 C   0  0  0  0  0  0  0  0  0  0  0  0
    2.1210   -1.9900    0.0480 C   0  0  0  0  0  0  0  0  0  0  0  0
    0.9090   -1.2550    0.0900 N   0  0  0  0  0  0  0  0  0  0  0  0
   -0.1990   -1.5850   -0.7100 C   0  0  0  0  0  0  0  0  0  0  0  0
   -0.1710   -2.5740   -1.5330 O   0  0  0  0  0  0  0  0  0  0  0  0
   -1.4600   -0.8090   -0.6540 C   0  0  0  0  0  0  0  0  0  0  0  0
   -1.7250    0.2140    0.1910 C   0  0  0  0  0  0  0  0  0  0  0  0
   -2.9470    0.9050    0.1750 C   0  0  0  0  0  0  0  0  0  0  0  0
   -3.8980    0.5270   -0.7200 C   0  0  0  0  0  0  0  0  0  0  0  0
   -3.6230   -0.5180   -1.5830 C   0  0  0  0  0  0  0  0  0  0  0  0
   -4.4810   -0.8850   -2.4220 O   0  0  0  0  0  0  0  0  0  0  0  0
   -2.4350   -1.1600   -1.5420 N   0  0  0  0  0  0  0  0  0  0  0  0
   -5.1850    1.3280   -0.5530 C   0  0  1  0  0  0  0  0  0  0  0  0
   -6.1200    0.3620    0.0800 C   0  0  0  0  0  0  0  0  0  0  0  0
   -7.5050    0.6880    0.3740 C   0  0  2  0  0  0  0  0  0  0  0  0
   -7.8660    1.8200    1.2400 C   0  0  0  0  0  0  0  0  0  0  0  0
   -8.0760   -0.5980    1.0640 C   0  0  0  0  0  0  0  0  0  0  0  0
   -7.3340   -0.8410    2.1950 O   0  0  0  0  0  0  0  0  0  0  0  0
   -4.7750    2.3250    0.4160 N   0  0  0  0  0  0  0  0  0  0  0  0
   -3.4700    2.0390    0.9130 C   0  0  0  0  0  0  0  0  0  0  0  0
   -2.8640    2.6720    1.8470 O   0  0  0  0  0  0  0  0  0  0  0  0
  1  2  1  0
  2  3  2  3
  3  4  1  0
  3  5  1  0
  5  6  2  3
  6  7  1  0
  7  8  2  0
  7  9  1  0
  9 10  1  0
 10 11  1  0
 11 12  2  0
 11 16  1  0
 12 13  1  0
 13 14  2  0
 14 15  1  0
 15 16  2  0
 16 17  1  0
 17 18  1  0
 18 19  2  0
 18 20  1  0
 20 21  2  0
 20 26  1  0
 21 22  1  0
 22 23  2  0
 22 34  1  0
 23 24  1  0
 23 27  1  0
 24 25  2  0
 24 26  1  0
 27 28  1  1
 27 33  1  0
 28 29  1  0
 29 30  1  1
 29 31  1  0
 31 32  1  0
 33 34  1  0
 34 35  2  0
M  END
