
     RDKit          3D

 35 37  0  0  0  0  0  0  0  0999 V2000
   -5.8600    1.8270   -1.2540 C   0  0  0  0  0  0  0  0  0  0  0  0
   -5.5670    1.7940    0.1940 C   0  0  0  0  0  0  0  0  0  0  0  0
   -5.3950    0.5250    0.8940 C   0  0  0  0  0  0  0  0  0  0  0  0
   -4.2910   -0.4020    0.4510 C   0  0  1  0  0  0  0  0  0  0  0  0
   -3.0540    0.3260    0.5360 N   0  0  0  0  0  0  0  0  0  0  0  0
   -1.8020   -0.2270    0.2430 C   0  0  0  0  0  0  0  0  0  0  0  0
   -1.6570   -1.4400   -0.1240 O   0  0  0  0  0  0  0  0  0  0  0  0
   -0.5920    0.6060    0.3550 C   0  0  0  0  0  0  0  0  0  0  0  0
    0.6380    0.0170    0.0410 C   0  0  0  0  0  0  0  0  0  0  0  0
    1.7750    0.7910    0.1440 C   0  0  0  0  0  0  0  0  0  0  0  0
    3.0440    0.1630    0.0110 N   0  0  0  0  0  0  0  0  0  0  0  0
    3.2650   -1.0170   -0.7260 C   0  0  0  0  0  0  0  0  0  0  0  0
    2.4010   -1.6570   -1.3550 O   0  0  0  0  0  0  0  0  0  0  0  0
    4.6550   -1.5630   -0.7670 C   0  0  0  0  0  0  0  0  0  0  0  0
    4.7890   -2.8210   -1.5530 C   0  0  2  0  0  0  0  0  0  0  0  0
    3.9800   -3.9720   -1.0690 C   0  0  0  0  0  0  0  0  0  0  0  0
    4.9990   -4.6990   -0.1780 C   0  0  0  0  0  0  0  0  0  0  0  0
    6.2810   -4.3360   -0.8510 C   0  0  0  0  0  0  0  0  0  0  0  0
    6.1160   -3.1890   -1.5700 O   0  0  0  0  0  0  0  0  0  0  0  0
    1.6820    2.1000    0.5380 C   0  0  0  0  0  0  0  0  0  0  0  0
    2.8160    2.9970    0.4870 C   0  0  0  0  0  0  0  0  0  0  0  0
    3.9310    2.8900   -0.1620 C   0  0  0  0  0  0  0  0  0  0  0  0
    4.9670    3.9660   -0.0480 C   0  0  0  0  0  0  0  0  0  0  0  0
    4.3230    5.2680    1.0030 S   0  0  0  0  0  0  0  0  0  0  0  0
    5.6270    6.5380    1.1280 C   0  0  0  0  0  0  0  0  0  0  0  0
    3.1200    5.9450    0.2940 O   0  0  0  0  0  0  0  0  0  0  0  0
    0.4460    2.6530    0.8460 C   0  0  0  0  0  0  0  0  0  0  0  0
    0.3830    3.8430    1.2080 O   0  0  0  0  0  0  0  0  0  0  0  0
   -0.6410    1.8800    0.7410 N   0  0  0  0  0  0  0  0  0  0  0  0
   -4.2270   -1.4720    1.5540 C   0  0  0  0  0  0  0  0  0  0  0  0
   -4.3720   -2.8630    1.0570 C   0  0  0  0  0  0  0  0  0  0  0  0
   -5.5610   -3.1130    0.1880 C   0  0  0  0  0  0  0  0  0  0  0  0
   -5.6670   -2.0480   -0.8600 C   0  0  1  0  0  0  0  0  0  0  0  0
   -6.9220   -1.4720   -0.9130 O   0  0  0  0  0  0  0  0  0  0  0  0
   -4.5240   -1.0520   -0.8460 C   0  0  0  0  0  0  0  0  0  0  0  0
  1  2  1  0
  2  3  1  0
  4  3  1  1
  4  5  1  0
  4 30  1  0
  4 35  1  0
  5  6  1  0
  6  7  2  0
  6  8  1  0
  8  9  2  0
  8 29  1  0
  9 10  1  0
 10 11  1  0
 10 20  2  0
 11 12  1  0
 12 13  2  0
 12 14  1  0
 15 14  1  1
 15 16  1  0
 15 19  1  0
 16 17  1  0
 17 18  1  0
 18 19  1  0
 20 21  1  0
 20 27  1  0
 21 22  2  3
 22 23  1  0
 23 24  1  0
 24 25  1  6
 24 26  2  0
 27 28  2  0
 27 29  1  0
 30 31  1  0
 31 32  1  0
 32 33  1  0
 33 34  1  1
 33 35  1  0
M  END
