
     RDKit          3D

 33 33  0  0  0  0  0  0  0  0999 V2000
    2.1720    0.6980   -2.4090 O   0  0  0  0  0  0  0  0  0  0  0  0
    2.0540    1.0210   -1.2150 C   0  0  0  0  0  0  0  0  0  0  0  0
    0.7210    0.9680   -0.5720 C   0  0  0  0  0  0  0  0  0  0  0  0
   -0.3010    0.5340   -1.3400 O   0  0  0  0  0  0  0  0  0  0  0  0
   -0.2930   -0.6920   -1.8940 C   0  0  0  0  0  0  0  0  0  0  0  0
   -0.2090   -1.8000   -0.8660 C   0  0  1  0  0  0  0  0  0  0  0  0
    1.0070   -1.6160   -0.2100 O   0  0  0  0  0  0  0  0  0  0  0  0
   -1.3920   -1.9140    0.0090 C   0  0  2  0  0  0  0  0  0  0  0  0
   -1.2140   -3.1130    0.9480 C   0  0  0  0  0  0  0  0  0  0  0  0
   -1.0510   -4.4110    0.2570 C   0  0  0  0  0  0  0  0  0  0  0  0
   -2.1080   -4.7750   -0.5540 O   0  0  0  0  0  0  0  0  0  0  0  0
   -2.5560   -2.0470   -0.7100 O   0  0  0  0  0  0  0  0  0  0  0  0
   -3.6140   -1.2810   -0.3750 C   0  0  0  0  0  0  0  0  0  0  0  0
   -3.5190    0.2020   -0.4660 C   0  0  1  0  0  0  0  0  0  0  0  0
   -3.3180    0.6670   -1.7590 O   0  0  0  0  0  0  0  0  0  0  0  0
   -4.9020    0.7400   -0.0630 C   0  0  1  0  0  0  0  0  0  0  0  0
   -5.1170    0.2760    1.2410 O   0  0  0  0  0  0  0  0  0  0  0  0
   -6.3580    0.7000    1.7210 C   0  0  0  0  0  0  0  0  0  0  0  0
   -6.4500    2.0880    1.7860 O   0  0  0  0  0  0  0  0  0  0  0  0
   -6.2490    2.6760    0.5230 C   0  0  0  0  0  0  0  0  0  0  0  0
   -4.8960    2.2410   -0.0010 C   0  0  2  0  0  0  0  0  0  0  0  0
   -4.6700    2.8470   -1.2230 O   0  0  0  0  0  0  0  0  0  0  0  0
    3.1790    1.4190   -0.5350 O   0  0  0  0  0  0  0  0  0  0  0  0
    4.4580    1.4800   -1.1160 C   0  0  2  0  0  0  0  0  0  0  0  0
    5.4200    0.6220   -0.3660 C   0  0  0  0  0  0  0  0  0  0  0  0
    6.6150    0.5620   -0.7550 O   0  0  0  0  0  0  0  0  0  0  0  0
    5.0510   -0.1110    0.7380 O   0  0  0  0  0  0  0  0  0  0  0  0
    5.9040   -0.9350    1.4900 C   0  0  0  0  0  0  0  0  0  0  0  0
    7.0060   -0.0980    2.0820 C   0  0  0  0  0  0  0  0  0  0  0  0
    7.8850   -0.8740    2.8440 O   0  0  0  0  0  0  0  0  0  0  0  0
    4.9130    2.9330   -1.0780 C   0  0  1  0  0  0  0  0  0  0  0  0
    4.9390    3.3100    0.2600 O   0  0  0  0  0  0  0  0  0  0  0  0
    6.1930    3.0650   -1.6430 O   0  0  0  0  0  0  0  0  0  0  0  0
  1  2  2  0
  2  3  1  0
  2 23  1  0
  3  4  1  0
  4  5  1  0
  5  6  1  0
  6  7  1  1
  6  8  1  0
  8  9  1  1
  8 12  1  0
  9 10  1  0
 10 11  1  0
 12 13  1  0
 13 14  1  0
 14 15  1  6
 14 16  1  0
 16 17  1  1
 16 21  1  0
 17 18  1  0
 18 19  1  0
 19 20  1  0
 20 21  1  0
 21 22  1  6
 24 23  1  1
 24 25  1  0
 24 31  1  0
 25 26  2  0
 25 27  1  0
 27 28  1  0
 28 29  1  0
 29 30  1  0
 31 32  1  1
 31 33  1  0
M  END
