
     RDKit          3D

 35 37  0  0  0  0  0  0  0  0999 V2000
    2.9650   -5.6140    2.8310 C   0  0  0  0  0  0  0  0  0  0  0  0
    2.8470   -4.4310    1.9870 C   0  0  0  0  0  0  0  0  0  0  0  0
    2.5540   -4.2260    0.6980 C   0  0  0  0  0  0  0  0  0  0  0  0
    2.5210   -2.9840    0.1910 C   0  0  0  0  0  0  0  0  0  0  0  0
    2.7910   -1.9340    1.0150 C   0  0  0  0  0  0  0  0  0  0  0  0
    2.8210   -0.4870    0.8310 C   0  0  0  0  0  0  0  0  0  0  0  0
    1.8070    0.1670    0.3900 C   0  0  0  0  0  0  0  0  0  0  0  0
    1.8820    1.6510    0.2010 C   0  0  0  0  0  0  0  0  0  0  0  0
    3.1710    2.1780    0.4560 N   0  0  0  0  0  0  0  0  0  0  0  0
    4.2880    1.8370   -0.3460 C   0  0  0  0  0  0  0  0  0  0  0  0
    4.1490    1.0630   -1.3090 O   0  0  0  0  0  0  0  0  0  0  0  0
    5.6160    2.4040   -0.0340 C   0  0  0  0  0  0  0  0  0  0  0  0
    6.6110    1.8990   -1.0320 C   0  0  1  0  0  0  0  0  0  0  0  0
    8.0010    2.4410   -0.7730 C   0  0  0  0  0  0  0  0  0  0  0  0
    8.8570    1.3830   -1.4700 C   0  0  0  0  0  0  0  0  0  0  0  0
    7.8700    0.2830   -1.7290 C   0  0  0  0  0  0  0  0  0  0  0  0
    6.8010    0.5310   -0.8590 O   0  0  0  0  0  0  0  0  0  0  0  0
    0.5100   -0.4380    0.1260 C   0  0  0  0  0  0  0  0  0  0  0  0
    0.2370   -1.6390    0.3190 O   0  0  0  0  0  0  0  0  0  0  0  0
   -0.5550    0.3340   -0.3840 O   0  0  0  0  0  0  0  0  0  0  0  0
   -1.7990   -0.2790   -0.6280 C   0  0  2  0  0  0  0  0  0  0  0  0
   -2.0230   -0.1910   -2.1410 C   0  0  0  0  0  0  0  0  0  0  0  0
   -2.9200    0.4540   -0.0020 C   0  0  0  0  0  0  0  0  0  0  0  0
   -2.7270    1.5100    0.6490 O   0  0  0  0  0  0  0  0  0  0  0  0
   -4.2690    0.0270   -0.0880 N   0  0  0  0  0  0  0  0  0  0  0  0
   -5.3790    0.7030    0.4990 C   0  0  2  0  0  0  0  0  0  0  0  0
   -5.9360   -0.0810    1.6980 C   0  0  0  0  0  0  0  0  0  0  0  0
   -6.5630   -1.3210    1.1700 C   0  0  0  0  0  0  0  0  0  0  0  0
   -7.4960   -1.1220    0.0270 C   0  0  0  0  0  0  0  0  0  0  0  0
   -7.6920    0.2910   -0.4000 C   0  0  0  0  0  0  0  0  0  0  0  0
   -6.4540    1.1410   -0.3990 C   0  0  1  0  0  0  0  0  0  0  0  0
   -6.8920    2.5220   -0.0700 C   0  0  0  0  0  0  0  0  0  0  0  0
   -7.9230    3.1570   -0.7900 N   0  0  0  0  0  0  0  0  0  0  0  0
   -6.3300    3.1240    0.8640 O   0  0  0  0  0  0  0  0  0  0  0  0
    3.1060   -2.7200    2.5650 S   0  0  0  0  0  0  0  0  0  0  0  0
  1  2  1  0
  2  3  2  0
  2 35  1  0
  3  4  1  0
  4  5  2  0
  5  6  1  0
  5 35  1  0
  6  7  2  3
  7  8  1  0
  7 18  1  0
  8  9  1  0
  9 10  1  0
 10 11  2  0
 10 12  1  0
 13 12  1  1
 13 14  1  0
 13 17  1  0
 14 15  1  0
 15 16  1  0
 16 17  1  0
 18 19  2  0
 18 20  1  0
 20 21  1  0
 21 22  1  6
 21 23  1  0
 23 24  2  0
 23 25  1  0
 26 25  1  6
 26 27  1  0
 26 31  1  0
 27 28  1  0
 28 29  1  0
 29 30  1  0
 30 31  1  0
 31 32  1  1
 32 33  1  0
 32 34  2  0
M  END
