
     RDKit          3D

 36 39  0  0  0  0  0  0  0  0999 V2000
    7.3010    2.3400   -1.3120 C   0  0  0  0  0  0  0  0  0  0  0  0
    8.3120    1.2680   -1.2340 C   0  0  2  0  0  0  0  0  0  0  0  0
    9.6730    1.8550   -1.1390 C   0  0  0  0  0  0  0  0  0  0  0  0
    8.1710   -0.0230   -1.9830 C   0  0  0  0  0  0  0  0  0  0  0  0
    7.1220   -0.7830   -1.5140 N   0  0  0  0  0  0  0  0  0  0  0  0
    5.6500   -0.3720   -1.6200 C   0  0  0  0  0  0  0  0  0  0  0  0
    5.5890    0.5920   -2.3300 O   0  0  0  0  0  0  0  0  0  0  0  0
    4.9180   -1.2580   -0.8170 N   0  0  0  0  0  0  0  0  0  0  0  0
    3.3090   -0.7580   -1.4440 C   0  0  0  0  0  0  0  0  0  0  0  0
    3.4330   -0.2300   -2.3930 O   0  0  0  0  0  0  0  0  0  0  0  0
    2.2950   -1.1980   -0.4520 C   0  0  0  0  0  0  0  0  0  0  0  0
    1.2510   -0.4580   -0.2010 N   0  0  0  0  0  0  0  0  0  0  0  0
    0.3300   -0.6620    0.8330 C   0  0  0  0  0  0  0  0  0  0  0  0
   -0.6270    0.1970    1.2750 N   0  0  0  0  0  0  0  0  0  0  0  0
   -1.4010    1.1920    0.5990 C   0  0  0  0  0  0  0  0  0  0  0  0
   -2.5560    0.5390   -0.1790 C   0  0  2  0  0  0  0  0  0  0  0  0
   -3.5340   -0.1010    0.7860 C   0  0  0  0  0  0  0  0  0  0  0  0
   -4.7680   -0.3470    0.0790 N   0  0  0  0  0  0  0  0  0  0  0  0
   -5.7000    0.7360    0.3520 C   0  0  0  0  0  0  0  0  0  0  0  0
   -7.0520    0.5310   -0.2320 C   0  0  0  0  0  0  0  0  0  0  0  0
   -7.9290    1.7410    0.0250 C   0  0  1  0  0  0  0  0  0  0  0  0
   -8.1280    2.0620    1.4730 C   0  0  0  0  0  0  0  0  0  0  0  0
   -9.5040    3.3190    1.3630 S   0  0  0  0  0  0  0  0  0  0  0  0
   -8.9120    3.9350   -0.6450 S   0  0  0  0  0  0  0  0  0  0  0  0
   -7.4490    2.9170   -0.6660 N   0  0  0  0  0  0  0  0  0  0  0  0
   -4.4950   -0.4450   -1.3530 C   0  0  0  0  0  0  0  0  0  0  0  0
   -3.1480   -1.1020   -1.6010 C   0  0  0  0  0  0  0  0  0  0  0  0
   -2.0980   -0.4010   -1.0760 O   0  0  0  0  0  0  0  0  0  0  0  0
    0.6300   -1.7720    1.5910 C   0  0  0  0  0  0  0  0  0  0  0  0
    1.6780   -2.5720    1.3820 C   0  0  0  0  0  0  0  0  0  0  0  0
    2.5230   -2.2760    0.3400 N   0  0  0  0  0  0  0  0  0  0  0  0
    1.9040   -3.6990    2.2030 N   0  0  0  0  0  0  0  0  0  0  0  0
    1.0290   -4.0120    3.2540 C   0  0  0  0  0  0  0  0  0  0  0  0
    1.0370   -4.4500    4.3640 O   0  0  0  0  0  0  0  0  0  0  0  0
   -0.4770   -3.6270    2.7650 C   0  0  0  0  0  0  0  0  0  0  0  0
   -0.3670   -2.1830    2.6180 N   0  0  0  0  0  0  0  0  0  0  0  0
  2  1  1  6
  2  3  1  0
  2  4  1  0
  4  5  1  0
  5  6  1  0
  6  7  2  0
  6  8  1  0
  8  9  1  0
  9 10  2  0
  9 11  1  0
 11 12  2  0
 11 31  1  0
 12 13  1  0
 13 14  1  0
 13 29  2  0
 14 15  1  0
 16 15  1  1
 16 17  1  0
 16 28  1  0
 17 18  1  0
 18 19  1  0
 18 26  1  0
 19 20  1  0
 21 20  1  1
 21 22  1  0
 21 25  1  0
 22 23  1  0
 23 24  1  0
 24 25  1  0
 26 27  1  0
 27 28  1  0
 29 30  1  0
 29 36  1  0
 30 31  2  0
 30 32  1  0
 32 33  1  0
 33 34  2  0
 33 35  1  0
 35 36  1  0
M  END
