
     RDKit          3D

 36 39  0  0  0  0  0  0  0  0999 V2000
    0.8170   -0.5250    2.1750 C   0  0  0  0  0  0  0  0  0  0  0  0
    0.0260   -0.4780    0.8610 C   0  0  2  0  0  0  0  0  0  0  0  0
    0.5690    0.4850   -0.0380 N   0  0  0  0  0  0  0  0  0  0  0  0
    1.5170    0.1530   -1.0580 C   0  0  0  0  0  0  0  0  0  0  0  0
    1.8860   -1.0470   -1.1640 O   0  0  0  0  0  0  0  0  0  0  0  0
    2.0850    1.0660   -1.9640 N   0  0  0  0  0  0  0  0  0  0  0  0
    3.0290    0.6770   -2.9160 N   0  0  0  0  0  0  0  0  0  0  0  0
    4.3920    0.3810   -2.5510 C   0  0  0  0  0  0  0  0  0  0  0  0
    5.3260    1.3470   -2.5110 N   0  0  0  0  0  0  0  0  0  0  0  0
    6.6280    1.1040   -2.1670 C   0  0  0  0  0  0  0  0  0  0  0  0
    7.0240   -0.1790   -1.8410 C   0  0  0  0  0  0  0  0  0  0  0  0
    8.4260   -0.5010   -1.4560 C   0  0  0  0  0  0  0  0  0  0  0  0
    9.3170    0.6090   -1.5330 N   0  0  0  0  0  0  0  0  0  0  0  0
   10.8930    0.0460   -1.0460 S   0  0  2  0  0  0  0  0  0  0  0  0
   10.7240   -0.5170    0.6530 C   0  0  0  0  0  0  0  0  0  0  0  0
   11.9270    1.0980   -1.1740 O   0  0  0  0  0  0  0  0  0  0  0  0
   11.2330   -1.1440   -1.9160 O   0  0  0  0  0  0  0  0  0  0  0  0
    6.0530   -1.1560   -1.8870 C   0  0  0  0  0  0  0  0  0  0  0  0
    4.7720   -0.8680   -2.2350 N   0  0  0  0  0  0  0  0  0  0  0  0
   -1.4020   -0.2890    1.1080 C   0  0  0  0  0  0  0  0  0  0  0  0
   -2.2810    0.0040    0.0910 C   0  0  0  0  0  0  0  0  0  0  0  0
   -3.6450    0.1870    0.2880 C   0  0  0  0  0  0  0  0  0  0  0  0
   -4.1880    0.0820    1.5290 C   0  0  0  0  0  0  0  0  0  0  0  0
   -5.6290    0.2470    1.8630 C   0  0  1  0  0  0  0  0  0  0  0  0
   -6.2000    1.5030    1.3000 C   0  0  0  0  0  0  0  0  0  0  0  0
   -6.3580   -1.0070    1.6150 C   0  0  2  0  0  0  0  0  0  0  0  0
   -6.3550   -1.5380    0.1830 C   0  0  0  0  0  0  0  0  0  0  0  0
   -7.6210   -1.2360    0.9670 C   0  0  2  0  0  0  0  0  0  0  0  0
   -8.5300   -0.1990    0.3970 C   0  0  0  0  0  0  0  0  0  0  0  0
   -9.6320    0.0720    0.9710 N   0  0  0  0  0  0  0  0  0  0  0  0
  -10.4420    1.0210    0.4290 N   0  0  0  0  0  0  0  0  0  0  0  0
   -9.7410    1.3670   -1.1370 S   0  0  0  0  0  0  0  0  0  0  0  0
  -10.4380    0.5330   -2.2330 O   0  0  0  0  0  0  0  0  0  0  0  0
   -8.2350    0.5230   -0.7720 N   0  0  0  0  0  0  0  0  0  0  0  0
   -3.3020   -0.2140    2.5620 C   0  0  0  0  0  0  0  0  0  0  0  0
   -1.9530   -0.3960    2.3810 C   0  0  0  0  0  0  0  0  0  0  0  0
  2  1  1  1
  2  3  1  0
  2 20  1  0
  3  4  1  0
  4  5  2  0
  4  6  1  0
  6  7  1  0
  7  8  1  0
  8  9  2  0
  8 19  1  0
  9 10  1  0
 10 11  2  0
 11 12  1  0
 11 18  1  0
 12 13  1  0
 13 14  1  0
 14 15  1  1
 14 16  2  0
 14 17  2  0
 18 19  2  0
 20 21  2  0
 20 36  1  0
 21 22  1  0
 22 23  2  0
 23 24  1  0
 23 35  1  0
 24 25  1  6
 24 26  1  0
 26 27  1  6
 26 28  1  0
 27 28  1  0
 28 29  1  6
 29 30  2  0
 29 34  1  0
 30 31  1  0
 32 31  1  1
 32 33  2  0
 32 34  1  0
 35 36  2  0
M  END
