
     RDKit          3D

 36 39  0  0  0  0  0  0  0  0999 V2000
   -3.0210   -2.9700    2.9410 C   0  0  0  0  0  0  0  0  0  0  0  0
   -3.2520   -1.9400    1.7660 C   0  0  2  0  0  0  0  0  0  0  0  0
   -3.4850   -2.7030    0.5730 N   0  0  0  0  0  0  0  0  0  0  0  0
   -5.0620   -2.6710   -0.0310 S   0  0  2  0  0  0  0  0  0  0  0  0
   -5.9940   -3.2060    1.0490 O   0  0  0  0  0  0  0  0  0  0  0  0
   -5.1460   -3.5830   -1.2320 O   0  0  0  0  0  0  0  0  0  0  0  0
   -5.6010   -1.0930   -0.5030 C   0  0  0  0  0  0  0  0  0  0  0  0
   -5.6400   -0.7530   -1.8660 C   0  0  0  0  0  0  0  0  0  0  0  0
   -6.0830    0.4760   -2.3000 C   0  0  0  0  0  0  0  0  0  0  0  0
   -6.5130    1.4440   -1.4260 C   0  0  0  0  0  0  0  0  0  0  0  0
   -6.9700    2.7220   -1.8540 N   0  0  0  0  0  0  0  0  0  0  0  0
   -7.1860    2.9360   -3.2130 C   0  0  0  0  0  0  0  0  0  0  0  0
   -7.3480    3.1220   -4.3690 N   0  0  0  0  0  0  0  0  0  0  0  0
   -6.4740    1.1170   -0.0860 C   0  0  0  0  0  0  0  0  0  0  0  0
   -6.9210    2.1230    0.8370 N   0  0  0  0  0  0  0  0  0  0  0  0
   -6.0300   -0.1200    0.3710 C   0  0  0  0  0  0  0  0  0  0  0  0
   -1.9570   -1.2420    1.6800 C   0  0  0  0  0  0  0  0  0  0  0  0
   -0.7900   -1.9110    1.3290 C   0  0  0  0  0  0  0  0  0  0  0  0
    0.2340   -0.9890    1.3780 C   0  0  0  0  0  0  0  0  0  0  0  0
    1.6710   -1.3200    1.0970 C   0  0  0  0  0  0  0  0  0  0  0  0
    2.5030   -0.2300    1.5440 N   0  0  0  0  0  0  0  0  0  0  0  0
    4.1690   -0.5220    1.2790 S   0  0  2  0  0  0  0  0  0  0  0  0
    4.4410   -2.0010    1.4100 O   0  0  0  0  0  0  0  0  0  0  0  0
    4.9420    0.2630    2.2950 O   0  0  0  0  0  0  0  0  0  0  0  0
    4.6280    0.0290   -0.3110 N   0  0  0  0  0  0  0  0  0  0  0  0
    4.4870   -1.0910   -1.1910 C   0  0  0  0  0  0  0  0  0  0  0  0
    5.9120    0.6130   -0.2520 C   0  0  2  0  0  0  0  0  0  0  0  0
    5.8310    2.1300   -0.5700 C   0  0  0  0  0  0  0  0  0  0  0  0
    7.0770    2.4420   -1.3280 C   0  0  2  0  0  0  0  0  0  0  0  0
    6.8370    2.0350   -2.7710 C   0  0  0  0  0  0  0  0  0  0  0  0
    6.4460    0.6220   -2.5880 N   0  0  0  0  0  0  0  0  0  0  0  0
    6.8800    0.1950   -1.3010 C   0  0  1  0  0  0  0  0  0  0  0  0
    7.9830    1.2460   -0.9770 C   0  0  0  0  0  0  0  0  0  0  0  0
   -0.3060    0.1710    1.7370 N   0  0  0  0  0  0  0  0  0  0  0  0
   -1.6190    0.0140    1.9180 N   0  0  0  0  0  0  0  0  0  0  0  0
   -2.5340    1.0620    2.3130 C   0  0  0  0  0  0  0  0  0  0  0  0
  2  1  1  1
  2  3  1  0
  2 17  1  0
  4  3  1  1
  4  5  2  0
  4  6  2  0
  4  7  1  0
  7  8  2  0
  7 16  1  0
  8  9  1  0
  9 10  2  0
 10 11  1  0
 10 14  1  0
 11 12  1  0
 12 13  3  0
 14 15  1  0
 14 16  2  0
 17 18  2  0
 17 35  1  0
 18 19  1  0
 19 20  1  0
 19 34  2  0
 20 21  1  0
 22 21  1  1
 22 23  2  0
 22 24  2  0
 22 25  1  0
 25 26  1  0
 27 25  1  6
 27 28  1  0
 27 32  1  0
 29 28  1  1
 29 30  1  0
 29 33  1  0
 30 31  1  0
 32 31  1  6
 32 33  1  0
 34 35  1  0
 35 36  1  0
M  END
