
     RDKit          3D

 36 39  0  0  0  0  0  0  0  0999 V2000
   -5.4520   -1.8810    2.4650 C   0  0  0  0  0  0  0  0  0  0  0  0
   -6.2130   -0.9540    1.7210 O   0  0  0  0  0  0  0  0  0  0  0  0
   -5.2660    0.0270    1.3130 C   0  0  0  0  0  0  0  0  0  0  0  0
   -5.8970    1.0880    0.5140 C   0  0  1  0  0  0  0  0  0  0  0  0
   -5.0160    2.1770    0.0720 C   0  0  0  0  0  0  0  0  0  0  0  0
   -3.8770    1.9280   -0.7360 N   0  0  0  0  0  0  0  0  0  0  0  0
   -2.6780    1.2540   -0.3970 C   0  0  0  0  0  0  0  0  0  0  0  0
   -2.5080    0.8360    0.7500 O   0  0  0  0  0  0  0  0  0  0  0  0
   -1.6390    1.0450   -1.3820 N   0  0  0  0  0  0  0  0  0  0  0  0
   -0.4140    0.3590   -1.0390 C   0  0  0  0  0  0  0  0  0  0  0  0
    0.3460    1.0850    0.0690 C   0  0  0  0  0  0  0  0  0  0  0  0
    1.6060    0.3380    0.3860 C   0  0  0  0  0  0  0  0  0  0  0  0
    2.5170    0.6830    1.3060 N   0  0  0  0  0  0  0  0  0  0  0  0
    3.4920   -0.2050    1.3080 N   0  0  0  0  0  0  0  0  0  0  0  0
    3.1970   -1.1240    0.3790 C   0  0  0  0  0  0  0  0  0  0  0  0
    4.0470   -2.3240    0.0490 C   0  0  0  0  0  0  0  0  0  0  0  0
    5.0450   -2.0200   -1.0490 C   0  0  2  0  0  0  0  0  0  0  0  0
    6.0030   -3.5120   -1.3610 S   0  0  0  0  0  0  0  0  0  0  0  0
    7.5180   -2.9800   -0.5880 C   0  0  0  0  0  0  0  0  0  0  0  0
    8.6850   -3.8390   -0.3930 C   0  0  0  0  0  0  0  0  0  0  0  0
    9.6050   -4.5330   -0.2240 N   0  0  0  0  0  0  0  0  0  0  0  0
    7.3610   -1.7310   -0.2550 C   0  0  0  0  0  0  0  0  0  0  0  0
    8.6450   -0.7330    0.5710 S   0  0  0  0  0  0  0  0  0  0  0  0
    8.1220    0.9470    0.3790 C   0  0  0  0  0  0  0  0  0  0  0  0
    6.9190    1.2030   -0.0740 C   0  0  0  0  0  0  0  0  0  0  0  0
    6.6110    2.6900   -0.1760 C   0  0  0  0  0  0  0  0  0  0  0  0
    5.9480    0.2390   -0.5280 C   0  0  0  0  0  0  0  0  0  0  0  0
    6.1330   -1.0940   -0.5690 C   0  0  0  0  0  0  0  0  0  0  0  0
    2.0380   -0.7870   -0.1840 N   0  0  0  0  0  0  0  0  0  0  0  0
   -6.7190    0.5550   -0.5730 N   0  0  0  0  0  0  0  0  0  0  0  0
   -6.3680   -0.3300   -1.5180 C   0  0  0  0  0  0  0  0  0  0  0  0
   -5.1990   -0.8340   -1.5700 O   0  0  0  0  0  0  0  0  0  0  0  0
   -7.4070   -0.5410   -2.3070 N   0  0  0  0  0  0  0  0  0  0  0  0
   -8.4190    0.1910   -1.8890 N   0  0  0  0  0  0  0  0  0  0  0  0
   -7.9980    0.8710   -0.8140 C   0  0  0  0  0  0  0  0  0  0  0  0
   -8.7510    1.6730   -0.1780 O   0  0  0  0  0  0  0  0  0  0  0  0
  1  2  1  0
  2  3  1  0
  4  3  1  6
  4  5  1  0
  4 30  1  0
  5  6  1  0
  6  7  1  0
  7  8  2  0
  7  9  1  0
  9 10  1  0
 10 11  1  0
 11 12  1  0
 12 13  2  0
 12 29  1  0
 13 14  1  0
 14 15  1  0
 15 16  1  0
 15 29  2  0
 17 16  1  1
 17 18  1  0
 17 28  1  0
 18 19  1  0
 19 20  1  0
 19 22  2  0
 20 21  3  0
 22 23  1  0
 22 28  1  0
 23 24  1  0
 24 25  2  0
 25 26  1  0
 25 27  1  0
 27 28  2  0
 30 31  1  0
 30 35  1  0
 31 32  2  0
 31 33  1  0
 33 34  1  0
 34 35  1  0
 35 36  2  0
M  END
