
     RDKit          3D

 36 40  0  0  0  0  0  0  0  0999 V2000
   -0.4930    4.8240    3.4570 C   0  0  0  0  0  0  0  0  0  0  0  0
   -0.6790    3.9450    2.2820 C   0  0  0  0  0  0  0  0  0  0  0  0
   -1.4870    4.3260    1.4320 O   0  0  0  0  0  0  0  0  0  0  0  0
    0.0420    2.6590    2.0830 C   0  0  2  0  0  0  0  0  0  0  0  0
    0.8810    2.4750    3.1790 O   0  0  0  0  0  0  0  0  0  0  0  0
    0.9490    2.8520    0.8840 C   0  0  0  0  0  0  0  0  0  0  0  0
    1.5510    1.5770    0.4450 C   0  0  0  0  0  0  0  0  0  0  0  0
    2.8930    1.4420    0.1750 C   0  0  0  0  0  0  0  0  0  0  0  0
    3.6520    2.5630    0.3030 O   0  0  0  0  0  0  0  0  0  0  0  0
    3.3540    0.1780   -0.2020 C   0  0  0  0  0  0  0  0  0  0  0  0
    2.4850   -0.9170   -0.3030 C   0  0  0  0  0  0  0  0  0  0  0  0
    1.1390   -0.7640   -0.0290 C   0  0  0  0  0  0  0  0  0  0  0  0
    0.2750   -1.8040   -0.1130 O   0  0  0  0  0  0  0  0  0  0  0  0
    0.6950    0.5050    0.3450 C   0  0  0  0  0  0  0  0  0  0  0  0
   -0.7020    0.7420    0.6410 C   0  0  1  0  0  0  0  0  0  0  0  0
   -1.4670   -0.3830    0.5960 O   0  0  0  0  0  0  0  0  0  0  0  0
   -2.5650   -0.2500   -0.2890 C   0  0  1  0  0  0  0  0  0  0  0  0
   -2.5810   -1.3690   -1.2340 C   0  0  0  0  0  0  0  0  0  0  0  0
   -3.8800   -1.5650   -1.9740 C   0  0  2  0  0  0  0  0  0  0  0  0
   -3.8800   -0.9030   -3.2620 N   0  0  0  0  0  0  0  0  0  0  0  0
   -5.0330   -1.0990   -1.1070 C   0  0  2  0  0  0  0  0  0  0  0  0
   -5.3190    0.2370   -1.3790 O   0  0  0  0  0  0  0  0  0  0  0  0
   -4.5650   -1.2310    0.3270 C   0  0  2  0  0  0  0  0  0  0  0  0
   -5.6920   -1.1020    1.3190 C   0  0  0  0  0  0  0  0  0  0  0  0
   -3.6680   -0.2030    0.5700 O   0  0  0  0  0  0  0  0  0  0  0  0
   -0.8890    1.5000    1.9490 C   0  0  0  0  0  0  0  0  0  0  0  0
    3.0620   -2.1900   -0.7040 C   0  0  0  0  0  0  0  0  0  0  0  0
    2.3360   -3.2140   -0.8140 O   0  0  0  0  0  0  0  0  0  0  0  0
    4.4950   -2.3310   -0.9930 C   0  0  0  0  0  0  0  0  0  0  0  0
    4.9860   -3.5700   -1.3710 C   0  0  0  0  0  0  0  0  0  0  0  0
    6.3280   -3.7060   -1.6430 C   0  0  0  0  0  0  0  0  0  0  0  0
    7.2130   -2.6540   -1.5550 C   0  0  0  0  0  0  0  0  0  0  0  0
    6.6790   -1.4290   -1.1720 C   0  0  0  0  0  0  0  0  0  0  0  0
    5.3280   -1.2680   -0.8930 C   0  0  0  0  0  0  0  0  0  0  0  0
    4.7690    0.0200   -0.4910 C   0  0  0  0  0  0  0  0  0  0  0  0
    5.6050    0.9610   -0.4210 O   0  0  0  0  0  0  0  0  0  0  0  0
  1  2  1  0
  2  3  2  0
  2  4  1  0
  4  5  1  1
  4  6  1  0
  4 26  1  0
  6  7  1  0
  7  8  2  0
  7 14  1  0
  8  9  1  0
  8 10  1  0
 10 11  2  0
 10 35  1  0
 11 12  1  0
 11 27  1  0
 12 13  1  0
 12 14  2  0
 14 15  1  0
 15 16  1  1
 15 26  1  0
 17 16  1  1
 17 18  1  0
 17 25  1  0
 18 19  1  0
 19 20  1  6
 19 21  1  0
 21 22  1  6
 21 23  1  0
 23 24  1  1
 23 25  1  0
 27 28  2  0
 27 29  1  0
 29 30  2  0
 29 34  1  0
 30 31  1  0
 31 32  2  0
 32 33  1  0
 33 34  2  0
 34 35  1  0
 35 36  2  0
M  CHG  1  20   1
M  END
