
     RDKit          3D

 36 39  0  0  0  0  0  0  0  0999 V2000
   -7.7000    1.2090   -1.9980 C   0  0  0  0  0  0  0  0  0  0  0  0
   -7.2610   -0.0410   -2.6870 C   0  0  2  0  0  0  0  0  0  0  0  0
   -8.4560   -0.6890   -3.2490 N   0  0  0  0  0  0  0  0  0  0  0  0
   -6.6240   -1.0410   -1.7740 C   0  0  2  0  0  0  0  0  0  0  0  0
   -5.4140   -0.5930   -1.0710 C   0  0  0  0  0  0  0  0  0  0  0  0
   -4.1810   -0.7860   -1.7920 C   0  0  1  0  0  0  0  0  0  0  0  0
   -3.1720   -1.3240   -0.8990 N   0  0  0  0  0  0  0  0  0  0  0  0
   -2.9390   -0.8490    0.2190 C   0  0  0  0  0  0  0  0  0  0  0  0
   -2.0050   -1.1900    1.2830 C   0  0  0  0  0  0  0  0  0  0  0  0
   -1.3630    0.1130    1.7900 C   0  0  0  0  0  0  0  0  0  0  0  0
   -0.0100   -0.0120    2.1870 N   0  0  0  0  0  0  0  0  0  0  0  0
    0.9660    0.8230    2.6510 C   0  0  0  0  0  0  0  0  0  0  0  0
    0.7750    2.0110    2.8110 O   0  0  0  0  0  0  0  0  0  0  0  0
    2.3200    0.2990    2.9820 C   0  0  0  0  0  0  0  0  0  0  0  0
    2.5640   -0.8990    2.8380 O   0  0  0  0  0  0  0  0  0  0  0  0
    3.3220    1.1560    3.4570 N   0  0  0  0  0  0  0  0  0  0  0  0
    4.6400    0.6580    3.7820 C   0  0  0  0  0  0  0  0  0  0  0  0
    5.4340    0.4010    2.5620 C   0  0  0  0  0  0  0  0  0  0  0  0
    5.1060    0.4970    1.2810 N   0  0  0  0  0  0  0  0  0  0  0  0
    6.1810    0.1610    0.5160 C   0  0  0  0  0  0  0  0  0  0  0  0
    6.2580    0.1340   -0.9800 C   0  0  2  0  0  0  0  0  0  0  0  0
    4.8490    0.0720   -1.5270 C   0  0  0  0  0  0  0  0  0  0  0  0
    4.7750   -1.1810   -2.3810 C   0  0  0  0  0  0  0  0  0  0  0  0
    5.9280   -1.9750   -1.8710 C   0  0  0  0  0  0  0  0  0  0  0  0
    5.9340   -3.2300   -1.8410 O   0  0  0  0  0  0  0  0  0  0  0  0
    6.9180   -1.0550   -1.4670 N   0  0  0  0  0  0  0  0  0  0  0  0
    7.1790   -0.1440    1.3340 N   0  0  0  0  0  0  0  0  0  0  0  0
    8.5350   -0.5640    1.0380 C   0  0  0  0  0  0  0  0  0  0  0  0
    6.7330   -0.0010    2.5670 N   0  0  0  0  0  0  0  0  0  0  0  0
   -2.1230    1.1310    1.7600 C   0  0  0  0  0  0  0  0  0  0  0  0
   -2.0970    2.5230    2.0840 C   0  0  0  0  0  0  0  0  0  0  0  0
   -3.3340    3.3040    1.8370 N   0  0  0  0  0  0  0  0  0  0  0  0
   -1.2330    3.2690    2.5510 O   0  0  0  0  0  0  0  0  0  0  0  0
   -3.7300    0.5460    0.9970 S   0  0  0  0  0  0  0  0  0  0  0  0
   -4.2750   -1.7010   -2.9440 C   0  0  0  0  0  0  0  0  0  0  0  0
   -5.9700   -2.3950   -2.8280 S   0  0  0  0  0  0  0  0  0  0  0  0
  2  1  1  1
  2  3  1  0
  2  4  1  0
  4  5  1  6
  4 36  1  0
  5  6  1  0
  6  7  1  1
  6 35  1  0
  7  8  2  3
  8  9  1  0
  8 34  1  0
  9 10  1  0
 10 11  1  0
 10 30  2  0
 11 12  1  0
 12 13  2  0
 12 14  1  0
 14 15  2  0
 14 16  1  0
 16 17  1  0
 17 18  1  0
 18 19  1  0
 18 29  2  0
 19 20  2  0
 21 20  1  1
 20 27  1  0
 21 22  1  0
 21 26  1  0
 22 23  1  0
 23 24  1  0
 24 25  2  0
 24 26  1  0
 27 28  1  0
 27 29  1  0
 30 31  1  0
 30 34  1  0
 31 32  1  0
 31 33  2  0
 35 36  1  0
M  END
