
     RDKit          3D

 36 40  0  0  0  0  0  0  0  0999 V2000
   -7.3320    2.7290   -2.2530 O   0  0  0  0  0  0  0  0  0  0  0  0
   -6.3160    3.0270   -1.2440 S   0  0  0  0  0  0  0  0  0  0  0  0
   -6.6270    2.1100    0.5370 S   0  0  1  0  0  0  0  0  0  0  0  0
   -6.0100    3.0860    1.5010 O   0  0  0  0  0  0  0  0  0  0  0  0
   -8.0620    2.0600    0.9280 O   0  0  0  0  0  0  0  0  0  0  0  0
   -6.1180    0.5140    0.7340 N   0  0  0  0  0  0  0  0  0  0  0  0
   -7.0970   -0.4770    0.3800 C   0  0  2  0  0  0  0  0  0  0  0  0
   -7.3860   -1.2680    1.5560 N   0  0  0  0  0  0  0  0  0  0  0  0
   -7.3240   -2.6530    1.2500 C   0  0  0  0  0  0  0  0  0  0  0  0
   -7.4490   -3.6170    2.0870 O   0  0  0  0  0  0  0  0  0  0  0  0
   -7.1020   -2.7560   -0.1440 N   0  0  0  0  0  0  0  0  0  0  0  0
   -6.5960   -1.4850   -0.6020 C   0  0  2  0  0  0  0  0  0  0  0  0
   -5.1230   -1.5320   -0.6480 C   0  0  0  0  0  0  0  0  0  0  0  0
   -4.3650   -2.0600    0.3680 C   0  0  0  0  0  0  0  0  0  0  0  0
   -2.9840   -2.1000    0.3170 C   0  0  0  0  0  0  0  0  0  0  0  0
   -2.3150   -1.6010   -0.7780 C   0  0  0  0  0  0  0  0  0  0  0  0
   -0.8290   -1.6470   -0.8270 C   0  0  0  0  0  0  0  0  0  0  0  0
   -0.3480   -0.3360   -0.1990 C   0  0  0  0  0  0  0  0  0  0  0  0
    1.1040   -0.2820   -0.1990 N   0  0  0  0  0  0  0  0  0  0  0  0
    1.7080    0.8760    0.3520 C   0  0  0  0  0  0  0  0  0  0  0  0
    0.9790    1.9210    0.8730 C   0  0  0  0  0  0  0  0  0  0  0  0
    1.5830    3.0220    1.3960 N   0  0  0  0  0  0  0  0  0  0  0  0
    2.9490    3.0720    1.3940 C   0  0  0  0  0  0  0  0  0  0  0  0
    3.6910    2.0350    0.8770 C   0  0  0  0  0  0  0  0  0  0  0  0
    5.1070    2.0640    0.8630 N   0  0  0  0  0  0  0  0  0  0  0  0
    5.8630    0.9810    0.3230 C   0  0  0  0  0  0  0  0  0  0  0  0
    5.3850   -0.2040    0.1640 N   0  0  0  0  0  0  0  0  0  0  0  0
    6.3770   -1.0940   -0.4020 C   0  0  0  0  0  0  0  0  0  0  0  0
    7.3530   -0.1330   -1.0420 C   0  0  2  0  0  0  0  0  0  0  0  0
    8.7840   -0.5370   -0.9300 C   0  0  0  0  0  0  0  0  0  0  0  0
    9.4060    0.4340    0.0440 C   0  0  0  0  0  0  0  0  0  0  0  0
    8.4740    1.6400   -0.0560 C   0  0  0  0  0  0  0  0  0  0  0  0
    7.2010    1.0080   -0.1140 N   0  0  0  0  0  0  0  0  0  0  0  0
    3.0570    0.9670    0.3700 N   0  0  0  0  0  0  0  0  0  0  0  0
   -3.0590   -1.0670   -1.8090 C   0  0  0  0  0  0  0  0  0  0  0  0
   -4.4530   -1.0340   -1.7420 C   0  0  0  0  0  0  0  0  0  0  0  0
  1  2  2  0
  2  3  1  0
  3  4  2  0
  3  5  2  0
  3  6  1  6
  7  6  1  1
  7  8  1  0
  7 12  1  0
  8  9  1  0
  9 10  2  0
  9 11  1  0
 11 12  1  0
 12 13  1  1
 13 14  2  0
 13 36  1  0
 14 15  1  0
 15 16  2  0
 16 17  1  0
 16 35  1  0
 17 18  1  0
 18 19  1  0
 19 20  1  0
 20 21  2  0
 20 34  1  0
 21 22  1  0
 22 23  2  0
 23 24  1  0
 24 25  1  0
 24 34  2  0
 25 26  1  0
 26 27  2  0
 26 33  1  0
 27 28  1  0
 29 28  1  1
 29 30  1  0
 29 33  1  0
 30 31  1  0
 31 32  1  0
 32 33  1  0
 35 36  2  0
M  END
