
     RDKit          3D

 36 39  0  0  0  0  0  0  0  0999 V2000
   -8.1560    0.6670    0.3920 C   0  0  0  0  0  0  0  0  0  0  0  0
   -7.8350   -0.6790   -0.0480 N   0  0  0  0  0  0  0  0  0  0  0  0
   -7.1370   -1.6040    0.6250 C   0  0  0  0  0  0  0  0  0  0  0  0
   -6.5010   -1.4960    1.9670 C   0  0  0  0  0  0  0  0  0  0  0  0
   -5.0510   -1.6350    1.8540 N   0  0  0  0  0  0  0  0  0  0  0  0
   -4.3000   -0.6870    1.0520 C   0  0  0  0  0  0  0  0  0  0  0  0
   -4.9620    0.2040    0.5060 O   0  0  0  0  0  0  0  0  0  0  0  0
   -2.9150   -0.7790    0.9130 N   0  0  0  0  0  0  0  0  0  0  0  0
   -2.1170    0.1110    0.1570 C   0  0  0  0  0  0  0  0  0  0  0  0
   -2.5110    1.2810   -0.4200 C   0  0  0  0  0  0  0  0  0  0  0  0
   -1.6670    2.1000   -1.1490 C   0  0  0  0  0  0  0  0  0  0  0  0
   -2.1270    3.3420   -1.7610 C   0  0  0  0  0  0  0  0  0  0  0  0
   -3.4990    3.6820   -1.6270 N   0  0  0  0  0  0  0  0  0  0  0  0
   -1.3560    4.0910   -2.3850 O   0  0  0  0  0  0  0  0  0  0  0  0
   -0.3940    1.7080   -1.2890 N   0  0  0  0  0  0  0  0  0  0  0  0
    0.0750    0.5710   -0.7540 C   0  0  0  0  0  0  0  0  0  0  0  0
    1.4430    0.2360   -0.9630 N   0  0  0  0  0  0  0  0  0  0  0  0
    1.7820   -1.1230   -0.6500 C   0  0  0  0  0  0  0  0  0  0  0  0
    3.0870   -1.6230   -1.1240 C   0  0  0  0  0  0  0  0  0  0  0  0
    4.3310   -0.4330   -1.4230 S   0  0  0  0  0  0  0  0  0  0  0  0
    4.9360   -0.5010   -2.7930 O   0  0  0  0  0  0  0  0  0  0  0  0
    3.7430    1.1730   -1.0300 C   0  0  2  0  0  0  0  0  0  0  0  0
    4.4540    2.2670   -1.8480 C   0  0  0  0  0  0  0  0  0  0  0  0
    3.9260    1.4420    0.4460 C   0  0  0  0  0  0  0  0  0  0  0  0
    5.5250    1.3910    1.1200 S   0  0  0  0  0  0  0  0  0  0  0  0
    6.4550   -0.0210    1.4100 C   0  0  1  0  0  0  0  0  0  0  0  0
    5.9550   -1.0160    2.4660 C   0  0  0  0  0  0  0  0  0  0  0  0
    7.0450   -2.0760    2.3610 C   0  0  0  0  0  0  0  0  0  0  0  0
    7.8250   -1.7880    1.1620 N   0  0  0  0  0  0  0  0  0  0  0  0
    6.8530   -0.9710    0.3320 C   0  0  0  0  0  0  0  0  0  0  0  0
    2.2940    1.2520   -1.4340 C   0  0  0  0  0  0  0  0  0  0  0  0
   -0.7750   -0.2380   -0.0290 C   0  0  0  0  0  0  0  0  0  0  0  0
   -7.1050   -2.7080   -0.1750 N   0  0  0  0  0  0  0  0  0  0  0  0
   -7.7690   -2.4420   -1.2920 N   0  0  0  0  0  0  0  0  0  0  0  0
   -8.2350   -1.1910   -1.2450 C   0  0  0  0  0  0  0  0  0  0  0  0
   -8.9060   -0.6160   -2.1380 O   0  0  0  0  0  0  0  0  0  0  0  0
  1  2  1  0
  2  3  1  0
  2 35  1  0
  3  4  1  0
  3 33  2  0
  4  5  1  0
  5  6  1  0
  6  7  2  0
  6  8  1  0
  8  9  1  0
  9 10  2  0
  9 32  1  0
 10 11  1  0
 11 12  1  0
 11 15  2  0
 12 13  1  0
 12 14  2  0
 15 16  1  0
 16 17  1  0
 16 32  2  0
 17 18  1  0
 17 31  1  0
 18 19  1  0
 20 19  1  6
 20 21  2  0
 20 22  1  0
 22 23  1  6
 22 24  1  0
 22 31  1  0
 24 25  1  0
 26 25  1  6
 26 27  1  0
 26 30  1  0
 27 28  1  0
 28 29  1  0
 29 30  1  0
 33 34  1  0
 34 35  1  0
 35 36  2  0
M  END
