
     RDKit          3D

 15 16  0  0  0  0  0  0  0  0999 V2000
   -4.3270    1.4480    0.7810 N   0  0  0  0  0  0  0  0  0  0  0  0
   -3.1290    0.7960    0.4720 C   0  0  0  0  0  0  0  0  0  0  0  0
   -3.1880   -0.5240    0.0520 C   0  0  0  0  0  0  0  0  0  0  0  0
   -2.0050   -1.1840   -0.2590 C   0  0  0  0  0  0  0  0  0  0  0  0
   -0.7850   -0.5480   -0.1570 C   0  0  0  0  0  0  0  0  0  0  0  0
    0.3530   -1.2430   -0.4750 O   0  0  0  0  0  0  0  0  0  0  0  0
    1.6290   -0.7430   -0.4210 C   0  0  0  0  0  0  0  0  0  0  0  0
    2.3960   -0.8380    0.7190 C   0  0  0  0  0  0  0  0  0  0  0  0
    3.6760   -0.3380    0.7760 C   0  0  0  0  0  0  0  0  0  0  0  0
    4.2010    0.2730   -0.3420 C   0  0  0  0  0  0  0  0  0  0  0  0
    5.8460    0.9330   -0.3190 Cl  0  0  0  0  0  0  0  0  0  0  0  0
    3.4380    0.3530   -1.4370 N   0  0  0  0  0  0  0  0  0  0  0  0
    2.1880   -0.1290   -1.5110 C   0  0  0  0  0  0  0  0  0  0  0  0
   -0.7740    0.7610    0.2630 C   0  0  0  0  0  0  0  0  0  0  0  0
   -1.9100    1.3910    0.5610 N   0  0  0  0  0  0  0  0  0  0  0  0
  1  2  1  0
  2  3  2  0
  2 15  1  0
  3  4  1  0
  4  5  2  0
  5  6  1  0
  5 14  1  0
  6  7  1  0
  7  8  2  0
  7 13  1  0
  8  9  1  0
  9 10  2  0
 10 11  1  0
 10 12  1  0
 12 13  2  0
 14 15  2  0
M  END
