
     RDKit          3D

 16 17  0  0  0  0  0  0  0  0999 V2000
    4.5200    0.7630   -0.4900 C   0  0  0  0  0  0  0  0  0  0  0  0
    3.2450    0.1300   -0.0320 C   0  0  0  0  0  0  0  0  0  0  0  0
    3.2910   -0.9630    0.8070 C   0  0  0  0  0  0  0  0  0  0  0  0
    2.0890   -1.5210    1.2110 C   0  0  0  0  0  0  0  0  0  0  0  0
    2.1460   -2.9090    2.2760 Cl  0  0  0  0  0  0  0  0  0  0  0  0
    0.9310   -0.9960    0.7840 N   0  0  0  0  0  0  0  0  0  0  0  0
    0.8490    0.0650   -0.0310 C   0  0  0  0  0  0  0  0  0  0  0  0
   -0.3430    0.6520   -0.5060 N   0  0  0  0  0  0  0  0  0  0  0  0
   -1.6500    0.2660   -0.2360 C   0  0  0  0  0  0  0  0  0  0  0  0
   -1.9890   -0.7900    0.5660 C   0  0  0  0  0  0  0  0  0  0  0  0
   -3.3240   -1.1090    0.7840 C   0  0  0  0  0  0  0  0  0  0  0  0
   -4.3580   -0.4050    0.2230 C   0  0  0  0  0  0  0  0  0  0  0  0
   -4.0390    0.6490   -0.5790 C   0  0  0  0  0  0  0  0  0  0  0  0
   -2.7120    0.9790   -0.8050 C   0  0  0  0  0  0  0  0  0  0  0  0
   -2.4930    2.0660   -1.6340 O   0  0  0  0  0  0  0  0  0  0  0  0
    2.0490    0.5860   -0.4060 N   0  0  0  0  0  0  0  0  0  0  0  0
  1  2  1  0
  2  3  2  0
  2 16  1  0
  3  4  1  0
  4  5  1  0
  4  6  2  0
  6  7  1  0
  7  8  1  0
  7 16  2  0
  8  9  1  0
  9 10  2  0
  9 14  1  0
 10 11  1  0
 11 12  2  0
 12 13  1  0
 13 14  2  0
 14 15  1  0
M  END
