
     RDKit          3D

 16 17  0  0  0  0  0  0  0  0999 V2000
   -2.3120    1.8670    0.1060 C   0  0  0  0  0  0  0  0  0  0  0  0
   -2.6050    0.6370   -0.1830 C   0  0  0  0  0  0  0  0  0  0  0  0
   -3.9610    0.1880   -0.4380 N   0  0  0  0  0  0  0  0  0  0  0  0
   -3.9440   -1.2100   -0.7240 C   0  0  0  0  0  0  0  0  0  0  0  0
   -2.5300   -1.5570   -0.6250 C   0  0  0  0  0  0  0  0  0  0  0  0
   -1.7470   -0.5010   -0.3140 C   0  0  0  0  0  0  0  0  0  0  0  0
   -0.2910   -0.6750   -0.1750 C   0  0  0  0  0  0  0  0  0  0  0  0
    0.1870   -1.8590   -0.3610 O   0  0  0  0  0  0  0  0  0  0  0  0
    0.6610    0.2940    0.1370 N   0  0  0  0  0  0  0  0  0  0  0  0
    2.0600    0.0320    0.2590 C   0  0  0  0  0  0  0  0  0  0  0  0
    2.6700   -1.1660    0.4390 C   0  0  0  0  0  0  0  0  0  0  0  0
    4.0310   -1.2870    0.5180 N   0  0  0  0  0  0  0  0  0  0  0  0
    4.8460   -0.2260    0.4230 C   0  0  0  0  0  0  0  0  0  0  0  0
    4.2870    1.0190    0.2400 C   0  0  0  0  0  0  0  0  0  0  0  0
    5.3520    2.4050    0.1150 Cl  0  0  0  0  0  0  0  0  0  0  0  0
    2.9190    1.1370    0.1610 C   0  0  0  0  0  0  0  0  0  0  0  0
  1  2  2  0
  2  3  1  0
  2  6  1  0
  3  4  1  0
  4  5  1  0
  5  6  2  0
  6  7  1  0
  7  8  2  0
  7  9  1  0
  9 10  1  0
 10 11  2  0
 10 16  1  0
 11 12  1  0
 12 13  2  0
 13 14  1  0
 14 15  1  0
 14 16  2  0
M  END
