
     RDKit          3D

 22 23  0  0  0  0  0  0  0  0999 V2000
   -5.2800   -0.5800    0.6440 C   0  0  0  0  0  0  0  0  0  0  0  0
   -4.3900    0.5740    0.5300 C   0  0  0  0  0  0  0  0  0  0  0  0
   -3.1460    0.5840    0.2140 C   0  0  0  0  0  0  0  0  0  0  0  0
   -2.4780    1.8400    0.1630 O   0  0  0  0  0  0  0  0  0  0  0  0
   -3.1820    3.0450    0.3850 C   0  0  0  0  0  0  0  0  0  0  0  0
   -2.3370   -0.5700   -0.0970 C   0  0  0  0  0  0  0  0  0  0  0  0
   -1.0460   -0.4140   -0.4420 C   0  0  0  0  0  0  0  0  0  0  0  0
   -0.1340   -1.4720   -0.7820 C   0  0  0  0  0  0  0  0  0  0  0  0
    1.0720   -1.2000   -1.0700 N   0  0  0  0  0  0  0  0  0  0  0  0
    1.6210    0.1150   -1.0850 C   0  0  0  0  0  0  0  0  0  0  0  0
    1.1950    1.1470   -1.8370 N   0  0  0  0  0  0  0  0  0  0  0  0
    1.9440    2.2130   -1.5870 N   0  0  0  0  0  0  0  0  0  0  0  0
    2.8720    1.8970   -0.6680 C   0  0  0  0  0  0  0  0  0  0  0  0
    2.6540    0.6010   -0.3730 N   0  0  0  0  0  0  0  0  0  0  0  0
    3.5320   -0.0010    0.6090 C   0  0  0  0  0  0  0  0  0  0  0  0
    4.9470    0.3540    0.2590 C   0  0  0  0  0  0  0  0  0  0  0  0
    5.2090    1.8170    0.1660 C   0  0  0  0  0  0  0  0  0  0  0  0
    3.9810    2.6590    0.0060 C   0  0  0  0  0  0  0  0  0  0  0  0
   -0.5390   -2.7830   -0.8070 O   0  0  0  0  0  0  0  0  0  0  0  0
    0.3740   -3.8770   -0.8070 C   0  0  0  0  0  0  0  0  0  0  0  0
   -2.8000   -1.8690   -0.0600 O   0  0  0  0  0  0  0  0  0  0  0  0
   -2.6540   -2.5930    1.1500 C   0  0  0  0  0  0  0  0  0  0  0  0
  1  2  1  0
  2  3  2  3
  3  4  1  0
  3  6  1  0
  4  5  1  0
  6  7  2  3
  6 21  1  0
  7  8  1  0
  8  9  2  3
  8 19  1  0
  9 10  1  0
 10 11  2  0
 10 14  1  0
 11 12  1  0
 12 13  2  0
 13 14  1  0
 13 18  1  0
 14 15  1  0
 15 16  1  0
 16 17  1  0
 17 18  1  0
 19 20  1  0
 21 22  1  0
M  END
