
     RDKit          3D

 22 23  0  0  0  0  0  0  0  0999 V2000
    6.1690    1.5410   -1.0670 C   0  0  0  0  0  0  0  0  0  0  0  0
    5.2910    2.4750   -0.2260 C   0  0  0  0  0  0  0  0  0  0  0  0
    3.9720    1.9830   -0.3460 O   0  0  0  0  0  0  0  0  0  0  0  0
    3.7360    0.6730    0.0930 C   0  0  0  0  0  0  0  0  0  0  0  0
    4.6030   -0.1980    0.6200 N   0  0  0  0  0  0  0  0  0  0  0  0
    3.9810   -1.3260    0.9010 N   0  0  0  0  0  0  0  0  0  0  0  0
    4.5680   -2.5180    1.4850 C   0  0  0  0  0  0  0  0  0  0  0  0
    2.6670   -1.1920    0.5470 C   0  0  0  0  0  0  0  0  0  0  0  0
    2.4720    0.0570    0.0330 C   0  0  0  0  0  0  0  0  0  0  0  0
    1.2600    0.7060   -0.5080 C   0  0  0  0  0  0  0  0  0  0  0  0
    0.0970   -0.1540   -0.4200 N   0  0  0  0  0  0  0  0  0  0  0  0
   -0.9730    0.5870   -1.0780 C   0  0  0  0  0  0  0  0  0  0  0  0
   -2.2650   -0.1800   -0.8570 C   0  0  0  0  0  0  0  0  0  0  0  0
   -2.5980   -0.0540    0.5760 C   0  0  0  0  0  0  0  0  0  0  0  0
   -3.7750   -0.1270    1.0250 N   0  0  0  0  0  0  0  0  0  0  0  0
   -4.8800   -0.3440    0.1180 C   0  0  0  0  0  0  0  0  0  0  0  0
   -4.8220   -1.1840   -0.7940 O   0  0  0  0  0  0  0  0  0  0  0  0
   -6.0880    0.4650    0.3060 C   0  0  0  0  0  0  0  0  0  0  0  0
   -7.1270    0.2160   -0.5470 O   0  0  0  0  0  0  0  0  0  0  0  0
   -7.6650   -1.0380   -0.5100 C   0  0  0  0  0  0  0  0  0  0  0  0
   -1.4530    0.1680    1.4930 C   0  0  0  0  0  0  0  0  0  0  0  0
   -0.2010   -0.4960    0.9500 C   0  0  0  0  0  0  0  0  0  0  0  0
  1  2  1  0
  2  3  1  0
  3  4  1  0
  4  5  2  0
  4  9  1  0
  5  6  1  0
  6  7  1  0
  6  8  1  0
  8  9  2  0
  9 10  1  0
 10 11  1  0
 11 12  1  0
 11 22  1  0
 12 13  1  0
 13 14  1  0
 14 15  2  3
 14 21  1  0
 15 16  1  0
 16 17  2  0
 16 18  1  0
 18 19  1  0
 19 20  1  0
 21 22  1  0
M  END
