
     RDKit          3D

 22 23  0  0  0  0  0  0  0  0999 V2000
    6.8150    0.4670    0.5280 C   0  0  0  0  0  0  0  0  0  0  0  0
    5.7440    0.1100    1.3100 O   0  0  0  0  0  0  0  0  0  0  0  0
    4.5340    0.4480    0.7370 C   0  0  0  0  0  0  0  0  0  0  0  0
    4.3020   -0.2110   -0.6060 C   0  0  0  0  0  0  0  0  0  0  0  0
    2.9320    0.2710   -1.0840 C   0  0  0  0  0  0  0  0  0  0  0  0
    2.0000   -0.1300   -0.1370 O   0  0  0  0  0  0  0  0  0  0  0  0
    0.7470    0.2990   -0.5520 C   0  0  2  0  0  0  0  0  0  0  0  0
    0.2650    1.3070    0.4250 C   0  0  0  0  0  0  0  0  0  0  0  0
   -0.6800    2.3440   -0.1430 C   0  0  0  0  0  0  0  0  0  0  0  0
   -2.0800    1.8780   -0.3150 C   0  0  0  0  0  0  0  0  0  0  0  0
   -2.8440    1.8330    1.0070 C   0  0  0  0  0  0  0  0  0  0  0  0
   -4.0250    1.1890    0.7760 O   0  0  0  0  0  0  0  0  0  0  0  0
   -4.0650   -0.1510    1.1690 C   0  0  0  0  0  0  0  0  0  0  0  0
   -3.9690   -1.0020   -0.0000 N   0  0  0  0  0  0  0  0  0  0  0  0
   -4.8420   -0.5020   -1.0860 C   0  0  0  0  0  0  0  0  0  0  0  0
   -3.1830   -2.1620   -0.1550 C   0  0  0  0  0  0  0  0  0  0  0  0
   -3.6900   -3.3870   -0.5240 N   0  0  0  0  0  0  0  0  0  0  0  0
   -2.7620   -4.2790   -0.5980 N   0  0  0  0  0  0  0  0  0  0  0  0
   -1.6090   -3.6730   -0.2800 C   0  0  0  0  0  0  0  0  0  0  0  0
   -1.8840   -2.3590   -0.0070 N   0  0  0  0  0  0  0  0  0  0  0  0
   -0.8770   -1.3910    0.3720 C   0  0  0  0  0  0  0  0  0  0  0  0
   -0.1230   -0.8660   -0.8230 C   0  0  0  0  0  0  0  0  0  0  0  0
  1  2  1  0
  2  3  1  0
  3  4  1  0
  4  5  1  0
  5  6  1  0
  7  6  1  1
  7  8  1  0
  7 22  1  0
  8  9  1  0
  9 10  1  0
 10 11  1  0
 11 12  1  0
 12 13  1  0
 13 14  1  0
 14 15  1  0
 14 16  1  0
 16 17  2  0
 16 20  1  0
 17 18  1  0
 18 19  2  0
 19 20  1  0
 20 21  1  0
 21 22  1  0
M  END
