
     RDKit          3D

 22 23  0  0  0  0  0  0  0  0999 V2000
    7.9340   -0.4400    0.4880 C   0  0  0  0  0  0  0  0  0  0  0  0
    6.7840   -1.1260   -0.2610 C   0  0  0  0  0  0  0  0  0  0  0  0
    5.5920   -0.5990    0.2810 O   0  0  0  0  0  0  0  0  0  0  0  0
    4.3160   -0.9240   -0.1320 C   0  0  0  0  0  0  0  0  0  0  0  0
    4.1960   -1.7580   -1.0620 O   0  0  0  0  0  0  0  0  0  0  0  0
    3.1040   -0.2850    0.5210 C   0  0  0  0  0  0  0  0  0  0  0  0
    3.0610    1.1070   -0.0170 C   0  0  2  0  0  0  0  0  0  0  0  0
    4.3760    1.7780    0.3990 C   0  0  0  0  0  0  0  0  0  0  0  0
    1.9400    1.9660    0.4030 C   0  0  0  0  0  0  0  0  0  0  0  0
    0.6400    1.3860   -0.0090 C   0  0  0  0  0  0  0  0  0  0  0  0
   -0.1720    0.5710    0.6480 N   0  0  0  0  0  0  0  0  0  0  0  0
   -1.2410    0.3150   -0.1350 C   0  0  0  0  0  0  0  0  0  0  0  0
   -2.3830   -0.5440    0.2300 C   0  0  0  0  0  0  0  0  0  0  0  0
   -3.5750    0.1870    0.4370 N   0  0  0  0  0  0  0  0  0  0  0  0
   -4.1200    0.9160   -0.6430 C   0  0  0  0  0  0  0  0  0  0  0  0
   -5.0780    0.1220   -1.5010 C   0  0  0  0  0  0  0  0  0  0  0  0
   -5.9810   -0.6820   -0.7230 N   0  0  0  0  0  0  0  0  0  0  0  0
   -7.2610   -0.1000   -0.4980 C   0  0  0  0  0  0  0  0  0  0  0  0
   -5.3900   -1.3670    0.3730 C   0  0  0  0  0  0  0  0  0  0  0  0
   -4.5960   -0.4240    1.2140 C   0  0  0  0  0  0  0  0  0  0  0  0
   -1.0260    1.0010   -1.2650 N   0  0  0  0  0  0  0  0  0  0  0  0
    0.0860    1.6290   -1.1770 O   0  0  0  0  0  0  0  0  0  0  0  0
  1  2  1  0
  2  3  1  0
  3  4  1  0
  4  5  2  0
  4  6  1  0
  6  7  1  0
  7  8  1  1
  7  9  1  0
  9 10  1  0
 10 11  2  0
 10 22  1  0
 11 12  1  0
 12 13  1  0
 12 21  2  0
 13 14  1  0
 14 15  1  0
 14 20  1  0
 15 16  1  0
 16 17  1  0
 17 18  1  0
 17 19  1  0
 19 20  1  0
 21 22  1  0
M  END
