
     RDKit          3D

 22 23  0  0  0  0  0  0  0  0999 V2000
   -5.1630    3.2930   -0.2040 C   0  0  0  0  0  0  0  0  0  0  0  0
   -5.1870    1.8770   -0.6380 C   0  0  0  0  0  0  0  0  0  0  0  0
   -4.3200    1.0730   -0.1850 N   0  0  0  0  0  0  0  0  0  0  0  0
   -4.2400   -0.3030   -0.5250 C   0  0  0  0  0  0  0  0  0  0  0  0
   -3.1220   -0.9480   -0.2920 C   0  0  0  0  0  0  0  0  0  0  0  0
   -3.0400   -2.3560   -0.6390 C   0  0  0  0  0  0  0  0  0  0  0  0
   -1.8350   -3.1820   -0.4220 C   0  0  0  0  0  0  0  0  0  0  0  0
   -4.0450   -2.9030   -1.1510 O   0  0  0  0  0  0  0  0  0  0  0  0
   -2.0040   -0.2230    0.3080 C   0  0  0  0  0  0  0  0  0  0  0  0
   -2.0940    1.0070    0.6050 O   0  0  0  0  0  0  0  0  0  0  0  0
   -0.7860   -0.8240    0.5890 O   0  0  0  0  0  0  0  0  0  0  0  0
    0.2690   -0.0790    1.1710 C   0  0  0  0  0  0  0  0  0  0  0  0
    1.4980   -0.9100    1.3940 C   0  0  2  0  0  0  0  0  0  0  0  0
    2.5910   -0.1010    2.0070 C   0  0  0  0  0  0  0  0  0  0  0  0
    3.0120    1.0610    1.1400 C   0  0  0  0  0  0  0  0  0  0  0  0
    3.3980    0.5110   -0.1480 N   0  0  0  0  0  0  0  0  0  0  0  0
    4.6810    0.7490   -0.6740 C   0  0  0  0  0  0  0  0  0  0  0  0
    5.5720    0.0660   -1.3030 N   0  0  0  0  0  0  0  0  0  0  0  0
    6.4420    1.1910   -1.3630 C   0  0  0  0  0  0  0  0  0  0  0  0
    5.5610    1.8700   -0.7410 N   0  0  0  0  0  0  0  0  0  0  0  0
    2.4180   -0.2810   -0.8490 C   0  0  0  0  0  0  0  0  0  0  0  0
    1.9730   -1.4010    0.0440 C   0  0  0  0  0  0  0  0  0  0  0  0
  1  2  1  0
  2  3  2  3
  3  4  1  0
  4  5  2  3
  5  6  1  0
  5  9  1  0
  6  7  1  0
  6  8  2  0
  9 10  2  0
  9 11  1  0
 11 12  1  0
 13 12  1  6
 13 14  1  0
 13 22  1  0
 14 15  1  0
 15 16  1  0
 16 17  1  0
 16 21  1  0
 17 18  2  0
 17 20  1  0
 18 19  1  0
 19 20  2  0
 21 22  1  0
M  END
