
     RDKit          3D

 22 23  0  0  0  0  0  0  0  0999 V2000
   -7.3650   -0.4400    0.4240 C   0  0  0  0  0  0  0  0  0  0  0  0
   -5.9270   -0.0870    0.6480 C   0  0  0  0  0  0  0  0  0  0  0  0
   -5.2680    0.5230   -0.5740 C   0  0  0  0  0  0  0  0  0  0  0  0
   -3.8940    0.8030   -0.1900 N   0  0  0  0  0  0  0  0  0  0  0  0
   -3.3660    1.9130    0.3550 C   0  0  0  0  0  0  0  0  0  0  0  0
   -2.0260    1.7180    0.5550 C   0  0  0  0  0  0  0  0  0  0  0  0
   -1.6970    0.4240    0.1140 C   0  0  0  0  0  0  0  0  0  0  0  0
   -0.3560   -0.1360    0.1890 C   0  0  0  0  0  0  0  0  0  0  0  0
    0.7350    0.4750    0.7240 N   0  0  0  0  0  0  0  0  0  0  0  0
    1.8170   -0.3030    0.6390 C   0  0  0  0  0  0  0  0  0  0  0  0
    3.1820   -0.0400    1.1010 C   0  0  0  0  0  0  0  0  0  0  0  0
    3.4410    1.0700    1.6760 O   0  0  0  0  0  0  0  0  0  0  0  0
    4.2740   -1.0110    0.9310 C   0  0  0  0  0  0  0  0  0  0  0  0
    5.1830   -0.7490   -0.2390 C   0  0  0  0  0  0  0  0  0  0  0  0
    5.8540    0.5560   -0.1330 C   0  0  0  0  0  0  0  0  0  0  0  0
    5.1820    1.6030   -0.1420 O   0  0  0  0  0  0  0  0  0  0  0  0
    7.2280    0.6460   -0.0210 O   0  0  0  0  0  0  0  0  0  0  0  0
    7.9410    1.8610    0.0870 C   0  0  0  0  0  0  0  0  0  0  0  0
    1.4020   -1.4170    0.0410 N   0  0  0  0  0  0  0  0  0  0  0  0
    0.1010   -1.3200   -0.2290 N   0  0  0  0  0  0  0  0  0  0  0  0
   -0.6830   -2.3610   -0.8850 C   0  0  0  0  0  0  0  0  0  0  0  0
   -2.8690   -0.0980   -0.3320 C   0  0  0  0  0  0  0  0  0  0  0  0
  1  2  1  0
  2  3  1  0
  3  4  1  0
  4  5  1  0
  4 22  1  0
  5  6  2  0
  6  7  1  0
  7  8  1  0
  7 22  2  0
  8  9  2  0
  8 20  1  0
  9 10  1  0
 10 11  1  0
 10 19  2  0
 11 12  2  0
 11 13  1  0
 13 14  1  0
 14 15  1  0
 15 16  2  0
 15 17  1  0
 17 18  1  0
 19 20  1  0
 20 21  1  0
M  END
