
     RDKit          3D

 22 23  0  0  0  0  0  0  0  0999 V2000
   -5.7790    2.8900    0.1160 C   0  0  0  0  0  0  0  0  0  0  0  0
   -4.6900    2.0510    0.7730 C   0  0  0  0  0  0  0  0  0  0  0  0
   -3.9600    1.3450   -0.3480 C   0  0  0  0  0  0  0  0  0  0  0  0
   -2.8370    0.4680    0.1910 C   0  0  0  0  0  0  0  0  0  0  0  0
   -2.1940   -0.1710   -0.9780 C   0  0  0  0  0  0  0  0  0  0  0  0
   -1.1050   -1.0450   -0.7310 N   0  0  0  0  0  0  0  0  0  0  0  0
    0.1630   -0.3400   -0.7320 C   0  0  0  0  0  0  0  0  0  0  0  0
    1.3370   -1.2010   -0.7870 C   0  0  0  0  0  0  0  0  0  0  0  0
    1.5750   -2.4370   -1.1670 C   0  0  0  0  0  0  0  0  0  0  0  0
    0.5350   -3.3650   -1.7080 C   0  0  0  0  0  0  0  0  0  0  0  0
   -0.4650   -3.5960   -0.6260 C   0  0  0  0  0  0  0  0  0  0  0  0
   -1.3390   -2.4160   -0.5210 C   0  0  0  0  0  0  0  0  0  0  0  0
   -2.5070   -2.6730   -0.1840 O   0  0  0  0  0  0  0  0  0  0  0  0
    2.9430   -2.7180   -0.9800 N   0  0  0  0  0  0  0  0  0  0  0  0
    3.5820   -1.7550   -0.5120 N   0  0  0  0  0  0  0  0  0  0  0  0
    2.6500   -0.6890   -0.3350 C   0  0  0  0  0  0  0  0  0  0  0  0
    2.8890    0.4910    0.1230 N   0  0  0  0  0  0  0  0  0  0  0  0
    4.2250    0.8050    0.5110 C   0  0  0  0  0  0  0  0  0  0  0  0
    5.1560    0.0710    0.1110 O   0  0  0  0  0  0  0  0  0  0  0  0
    4.5400    1.9680    1.3680 C   0  0  0  0  0  0  0  0  0  0  0  0
    5.8660    2.0610    1.6710 O   0  0  0  0  0  0  0  0  0  0  0  0
    6.4240    1.0440    2.3940 C   0  0  0  0  0  0  0  0  0  0  0  0
  1  2  1  0
  2  3  1  0
  3  4  1  0
  4  5  1  0
  5  6  1  0
  6  7  1  0
  6 12  1  0
  7  8  1  0
  8  9  2  0
  8 16  1  0
  9 10  1  0
  9 14  1  0
 10 11  1  0
 11 12  1  0
 12 13  2  0
 14 15  2  0
 15 16  1  0
 16 17  2  3
 17 18  1  0
 18 19  2  0
 18 20  1  0
 20 21  1  0
 21 22  1  0
M  END
