
     RDKit          3D

 22 23  0  0  0  0  0  0  0  0999 V2000
   -4.7090    1.1450    0.9210 C   0  0  0  0  0  0  0  0  0  0  0  0
   -3.5380    0.4880    1.6090 C   0  0  0  0  0  0  0  0  0  0  0  0
   -2.2720    1.3150    1.4560 C   0  0  0  0  0  0  0  0  0  0  0  0
   -1.9510    1.4650    0.0510 N   0  0  0  0  0  0  0  0  0  0  0  0
   -2.3690    2.4540   -0.7550 C   0  0  0  0  0  0  0  0  0  0  0  0
   -1.8670    2.2630   -2.0020 N   0  0  0  0  0  0  0  0  0  0  0  0
   -1.1210    1.1460   -2.0010 C   0  0  0  0  0  0  0  0  0  0  0  0
   -1.1820    0.6550   -0.7040 C   0  0  0  0  0  0  0  0  0  0  0  0
   -0.4980   -0.4970   -0.4190 C   0  0  0  0  0  0  0  0  0  0  0  0
   -0.5730   -0.9200    0.7660 O   0  0  0  0  0  0  0  0  0  0  0  0
    0.2040   -1.1170   -1.3750 N   0  0  0  0  0  0  0  0  0  0  0  0
    0.9160   -2.3160   -1.0570 C   0  0  0  0  0  0  0  0  0  0  0  0
    2.3260   -2.1360   -0.6130 C   0  0  0  0  0  0  0  0  0  0  0  0
    2.4850   -1.3020    0.6150 C   0  0  0  0  0  0  0  0  0  0  0  0
    3.9550   -1.1680    1.0120 C   0  0  0  0  0  0  0  0  0  0  0  0
    4.0690   -0.3270    2.2500 C   0  0  0  0  0  0  0  0  0  0  0  0
    2.8920    0.2470    2.9300 C   0  0  0  0  0  0  0  0  0  0  0  0
    5.1770   -0.1060    2.7170 O   0  0  0  0  0  0  0  0  0  0  0  0
    0.2590   -0.6280   -2.6460 C   0  0  0  0  0  0  0  0  0  0  0  0
    0.9420   -1.2630   -3.5070 O   0  0  0  0  0  0  0  0  0  0  0  0
   -0.4070    0.5010   -2.9400 N   0  0  0  0  0  0  0  0  0  0  0  0
   -0.3380    1.0150   -4.3140 C   0  0  0  0  0  0  0  0  0  0  0  0
  1  2  1  0
  2  3  1  0
  3  4  1  0
  4  5  1  0
  4  8  1  0
  5  6  2  0
  6  7  1  0
  7  8  2  0
  7 21  1  0
  8  9  1  0
  9 10  2  0
  9 11  1  0
 11 12  1  0
 11 19  1  0
 12 13  1  0
 13 14  1  0
 14 15  1  0
 15 16  1  0
 16 17  1  0
 16 18  2  0
 19 20  2  0
 19 21  1  0
 21 22  1  0
M  END
