
     RDKit          3D

 27 28  0  0  0  0  0  0  0  0999 V2000
    7.9680    0.4220   -0.5350 C   0  0  0  0  0  0  0  0  0  0  0  0
    7.6380   -0.5090    0.5640 C   0  0  0  0  0  0  0  0  0  0  0  0
    6.3300   -1.1920    0.5830 C   0  0  0  0  0  0  0  0  0  0  0  0
    5.1100   -0.3600    0.6560 C   0  0  0  0  0  0  0  0  0  0  0  0
    4.8330    0.5320   -0.5100 C   0  0  0  0  0  0  0  0  0  0  0  0
    4.6090   -0.2650   -1.7910 C   0  0  0  0  0  0  0  0  0  0  0  0
    3.4290   -1.0890   -1.5810 N   0  0  0  0  0  0  0  0  0  0  0  0
    2.1560   -0.4380   -1.5080 C   0  0  0  0  0  0  0  0  0  0  0  0
    1.5240   -0.1370   -0.4060 C   0  0  0  0  0  0  0  0  0  0  0  0
    0.2140    0.5360   -0.4610 C   0  0  0  0  0  0  0  0  0  0  0  0
   -0.7910   -0.3100    0.2040 C   0  0  0  0  0  0  0  0  0  0  0  0
   -0.4420   -1.3980    0.7190 O   0  0  0  0  0  0  0  0  0  0  0  0
   -2.1750    0.0680    0.2870 N   0  0  0  0  0  0  0  0  0  0  0  0
   -3.1260   -0.7420    0.9210 C   0  0  0  0  0  0  0  0  0  0  0  0
   -2.6680   -1.8310    1.4230 O   0  0  0  0  0  0  0  0  0  0  0  0
   -4.5270   -0.4430    1.0420 N   0  0  0  0  0  0  0  0  0  0  0  0
   -5.4130   -1.3070    1.7110 O   0  0  0  0  0  0  0  0  0  0  0  0
   -6.6250   -0.6780    1.8570 C   0  0  0  0  0  0  0  0  0  0  0  0
   -7.8630   -1.2420    2.5290 C   0  0  0  0  0  0  0  0  0  0  0  0
   -6.6070    0.5110    1.3350 C   0  0  0  0  0  0  0  0  0  0  0  0
   -7.2620    1.8160    1.0050 C   0  0  0  0  0  0  0  0  0  0  0  0
   -6.1570    2.6970    0.7600 O   0  0  0  0  0  0  0  0  0  0  0  0
   -4.9440    1.9970    0.9860 C   0  0  0  0  0  0  0  0  0  0  0  0
   -3.8930    2.4700    1.4160 O   0  0  0  0  0  0  0  0  0  0  0  0
   -5.2670    0.6310    0.5910 C   0  0  1  0  0  0  0  0  0  0  0  0
   -5.5960    0.4770   -0.8920 C   0  0  0  0  0  0  0  0  0  0  0  0
   -4.4500    0.4030   -1.6070 F   0  0  0  0  0  0  0  0  0  0  0  0
  1  2  1  0
  2  3  1  0
  3  4  1  0
  4  5  1  0
  5  6  1  0
  6  7  1  0
  7  8  1  0
  8  9  2  3
  9 10  1  0
 10 11  1  0
 11 12  2  0
 11 13  1  0
 13 14  1  0
 14 15  2  0
 14 16  1  0
 16 17  1  0
 16 25  1  0
 17 18  1  0
 18 19  1  0
 18 20  2  0
 20 21  1  0
 20 25  1  0
 21 22  1  0
 22 23  1  0
 23 24  2  0
 23 25  1  0
 25 26  1  6
 26 27  1  0
M  END
