
     RDKit          3D

 28 29  0  0  0  0  0  0  0  0999 V2000
    6.4890    0.2030    0.4610 C   0  0  0  0  0  0  0  0  0  0  0  0
    6.1210    1.3240   -0.4570 C   0  0  0  0  0  0  0  0  0  0  0  0
    4.9410    1.9370   -0.0360 O   0  0  0  0  0  0  0  0  0  0  0  0
    3.7050    1.3470    0.0950 C   0  0  0  0  0  0  0  0  0  0  0  0
    3.4640    0.0200   -0.1870 C   0  0  0  0  0  0  0  0  0  0  0  0
    2.1920   -0.4890   -0.0290 C   0  0  0  0  0  0  0  0  0  0  0  0
    1.1560    0.3320    0.4140 C   0  0  0  0  0  0  0  0  0  0  0  0
   -0.1330   -0.3280    0.5500 C   0  0  0  0  0  0  0  0  0  0  0  0
   -1.1720    0.3320    0.0060 C   0  0  0  0  0  0  0  0  0  0  0  0
   -0.7910    1.5250   -0.5820 O   0  0  0  0  0  0  0  0  0  0  0  0
   -1.6120    2.5440   -1.0390 C   0  0  0  0  0  0  0  0  0  0  0  0
   -2.4980    3.1810   -0.0170 C   0  0  2  0  0  0  0  0  0  0  0  0
   -3.3640    4.2750   -0.6230 C   0  0  0  0  0  0  0  0  0  0  0  0
   -1.7410    3.7400    1.0200 O   0  0  0  0  0  0  0  0  0  0  0  0
   -3.3630    2.2720    0.5470 F   0  0  0  0  0  0  0  0  0  0  0  0
   -2.4790   -0.0820    0.0040 O   0  0  0  0  0  0  0  0  0  0  0  0
   -3.0690   -1.3420   -0.1570 C   0  0  1  0  0  0  0  0  0  0  0  0
   -4.4650   -1.2640   -0.0770 O   0  0  0  0  0  0  0  0  0  0  0  0
   -2.6500   -1.9240   -1.4990 C   0  0  0  0  0  0  0  0  0  0  0  0
   -3.2690   -3.2780   -1.7050 C   0  0  0  0  0  0  0  0  0  0  0  0
   -2.8270   -4.1090   -0.6700 O   0  0  0  0  0  0  0  0  0  0  0  0
   -2.5710   -2.2310    0.8720 N   0  0  0  0  0  0  0  0  0  0  0  0
   -1.2490   -2.3750    1.3700 C   0  0  0  0  0  0  0  0  0  0  0  0
   -0.9780   -3.5570    2.1410 N   0  0  0  0  0  0  0  0  0  0  0  0
   -0.1770   -1.6010    1.2640 C   0  0  0  0  0  0  0  0  0  0  0  0
    0.9940   -2.0530    1.9090 N   0  0  0  0  0  0  0  0  0  0  0  0
    1.3940    1.6360    0.6920 C   0  0  0  0  0  0  0  0  0  0  0  0
    2.6660    2.1530    0.5340 C   0  0  0  0  0  0  0  0  0  0  0  0
  1  2  1  0
  2  3  1  0
  3  4  1  0
  4  5  2  0
  4 28  1  0
  5  6  1  0
  6  7  2  0
  7  8  1  0
  7 27  1  0
  8  9  2  0
  8 25  1  0
  9 10  1  0
  9 16  1  0
 10 11  1  0
 11 12  1  0
 12 13  1  6
 12 14  1  0
 12 15  1  0
 16 17  1  0
 17 18  1  6
 17 19  1  0
 17 22  1  0
 19 20  1  0
 20 21  1  0
 22 23  1  0
 23 24  1  0
 23 25  2  0
 25 26  1  0
 27 28  2  0
M  END
