
     RDKit          3D

 28 28  0  0  0  0  0  0  0  0999 V2000
    5.4970   -0.5670    1.4060 C   0  0  0  0  0  0  0  0  0  0  0  0
    4.2080   -0.4610    1.0740 C   0  0  0  0  0  0  0  0  0  0  0  0
    3.3700    0.3110    2.0050 C   0  0  0  0  0  0  0  0  0  0  0  0
    3.7470   -1.1180   -0.1210 C   0  0  0  0  0  0  0  0  0  0  0  0
    4.7590   -1.9760   -0.8820 C   0  0  0  0  0  0  0  0  0  0  0  0
    5.1840   -3.1250    0.0200 C   0  0  0  0  0  0  0  0  0  0  0  0
    2.5510   -1.1310   -0.6460 C   0  0  0  0  0  0  0  0  0  0  0  0
    1.3390   -0.5000   -0.1930 C   0  0  0  0  0  0  0  0  0  0  0  0
    0.2060   -0.6390   -0.8530 C   0  0  0  0  0  0  0  0  0  0  0  0
   -1.0740   -0.0880   -0.5480 C   0  0  0  0  0  0  0  0  0  0  0  0
   -1.3460    0.7510    0.5820 C   0  0  0  0  0  0  0  0  0  0  0  0
   -0.4910    1.0800    1.4100 O   0  0  0  0  0  0  0  0  0  0  0  0
   -2.6390    1.2680    0.8310 O   0  0  0  0  0  0  0  0  0  0  0  0
   -2.8960    2.0800    1.9280 C   0  0  0  0  0  0  0  0  0  0  0  0
   -1.9580    2.3460    2.6960 O   0  0  0  0  0  0  0  0  0  0  0  0
   -4.2000    2.6090    2.1890 N   0  0  0  0  0  0  0  0  0  0  0  0
   -4.4600    3.4560    3.3370 C   0  0  0  0  0  0  0  0  0  0  0  0
   -5.8060    3.8000    3.3060 O   0  0  0  0  0  0  0  0  0  0  0  0
   -6.1090    4.4520    2.1960 O   0  0  0  0  0  0  0  0  0  0  0  0
   -2.1060   -0.3610   -1.3660 C   0  0  0  0  0  0  0  0  0  0  0  0
   -2.0650   -1.1760   -2.5550 N   0  0  0  0  0  0  0  0  0  0  0  0
   -3.2500   -1.1920   -3.0530 C   0  0  0  0  0  0  0  0  0  0  0  0
   -4.1540   -0.3980   -2.2400 C   0  0  0  0  0  0  0  0  0  0  0  0
   -5.6110   -0.1780   -2.4970 C   0  0  0  0  0  0  0  0  0  0  0  0
   -6.1740    0.6210   -1.5410 F   0  0  0  0  0  0  0  0  0  0  0  0
   -3.4520    0.0710   -1.2640 N   0  0  0  0  0  0  0  0  0  0  0  0
    2.4140   -1.8780   -1.8600 O   0  0  0  0  0  0  0  0  0  0  0  0
    2.5850   -1.1520   -3.0800 C   0  0  0  0  0  0  0  0  0  0  0  0
  1  2  2  0
  2  3  1  0
  2  4  1  0
  4  5  1  0
  4  7  2  3
  5  6  1  0
  7  8  1  0
  7 27  1  0
  8  9  2  3
  9 10  1  0
 10 11  1  0
 10 20  2  3
 11 12  2  0
 11 13  1  0
 13 14  1  0
 14 15  2  0
 14 16  1  0
 16 17  1  0
 17 18  1  0
 18 19  1  0
 20 21  1  0
 20 26  1  0
 21 22  2  0
 22 23  1  0
 23 24  1  0
 23 26  2  0
 24 25  1  0
 27 28  1  0
M  END
