
     RDKit          3D

 17 16  0  0  0  0  0  0  0  0999 V2000
   -2.1060    2.3820    0.7960 O   0  0  0  0  0  0  0  0  0  0  0  0
   -2.8040    1.3400    0.7330 C   0  0  0  0  0  0  0  0  0  0  0  0
   -3.5740    1.0120    1.8380 O   0  0  0  0  0  0  0  0  0  0  0  0
   -2.8150    0.4870   -0.4680 C   0  0  2  0  0  0  0  0  0  0  0  0
   -3.6530   -0.6040   -0.3270 O   0  0  0  0  0  0  0  0  0  0  0  0
   -1.4100    0.0370   -0.8160 C   0  0  1  0  0  0  0  0  0  0  0  0
   -0.6190    1.1520   -0.9450 O   0  0  0  0  0  0  0  0  0  0  0  0
   -0.8380   -0.9290    0.1680 C   0  0  2  0  0  0  0  0  0  0  0  0
   -0.6830   -0.4370    1.4440 O   0  0  0  0  0  0  0  0  0  0  0  0
    0.3490   -1.6060   -0.4160 C   0  0  2  0  0  0  0  0  0  0  0  0
    0.7040   -2.7110    0.3930 O   0  0  0  0  0  0  0  0  0  0  0  0
    1.5410   -0.7650   -0.6850 C   0  0  0  0  0  0  0  0  0  0  0  0
    2.0580   -0.3030    0.5340 O   0  0  0  0  0  0  0  0  0  0  0  0
    3.4160    0.6500    0.1650 P   0  0  2  0  0  0  0  0  0  0  0  0
    3.6890    0.6740   -1.3220 O   0  0  0  0  0  0  0  0  0  0  0  0
    4.7920    0.0500    0.9250 O   0  0  0  0  0  0  0  0  0  0  0  0
    3.0580    2.2300    0.6360 O   0  0  0  0  0  0  0  0  0  0  0  0
  1  2  2  0
  2  3  1  0
  2  4  1  0
  4  5  1  1
  4  6  1  0
  6  7  1  1
  6  8  1  0
  8  9  1  1
  8 10  1  0
 10 11  1  1
 10 12  1  0
 12 13  1  0
 13 14  1  0
 14 15  2  0
 14 16  1  1
 14 17  1  0
M  END
