
     RDKit          3D

 28 28  0  0  0  0  0  0  0  0999 V2000
   -4.9790   -3.8280   -0.0410 C   0  0  0  0  0  0  0  0  0  0  0  0
   -4.1020   -2.8250   -0.1930 C   0  0  0  0  0  0  0  0  0  0  0  0
   -2.7540   -2.9440    0.3030 C   0  0  0  0  0  0  0  0  0  0  0  0
   -2.3840   -4.2320    0.9920 C   0  0  0  0  0  0  0  0  0  0  0  0
   -1.8710   -2.0110    0.1840 C   0  0  0  0  0  0  0  0  0  0  0  0
   -2.1430   -0.7420   -0.4640 C   0  0  0  0  0  0  0  0  0  0  0  0
   -1.2190    0.2050   -0.5760 C   0  0  0  0  0  0  0  0  0  0  0  0
    0.0960   -0.0370   -0.0370 N   0  0  0  0  0  0  0  0  0  0  0  0
    0.9990    0.8770   -0.1410 C   0  0  0  0  0  0  0  0  0  0  0  0
    2.3200    0.6340    0.4010 C   0  0  0  0  0  0  0  0  0  0  0  0
    2.7310   -0.4080    0.9920 N   0  0  0  0  0  0  0  0  0  0  0  0
    2.0220   -1.5900    1.2760 C   0  0  0  0  0  0  0  0  0  0  0  0
    1.2400   -1.6320    2.2610 O   0  0  0  0  0  0  0  0  0  0  0  0
    2.1410   -2.7440    0.5120 O   0  0  0  0  0  0  0  0  0  0  0  0
    1.4350   -3.9380    0.7890 C   0  0  0  0  0  0  0  0  0  0  0  0
    3.2740    1.6650    0.2640 O   0  0  0  0  0  0  0  0  0  0  0  0
    4.3940    1.6890    1.0900 C   0  0  0  0  0  0  0  0  0  0  0  0
    5.2320    2.9090    0.7080 C   0  0  0  0  0  0  0  0  0  0  0  0
    6.3730    2.9900    1.5030 O   0  0  0  0  0  0  0  0  0  0  0  0
    0.6570    2.0800   -0.7810 N   0  0  0  0  0  0  0  0  0  0  0  0
   -0.6090    2.3740   -1.3270 C   0  0  0  0  0  0  0  0  0  0  0  0
   -0.9330    3.6260   -1.9830 C   0  0  0  0  0  0  0  0  0  0  0  0
   -1.6320    4.7030   -1.2330 C   0  0  0  0  0  0  0  0  0  0  0  0
   -0.6250    3.8400   -3.2330 C   0  0  0  0  0  0  0  0  0  0  0  0
   -0.3870    4.0880   -4.4330 O   0  0  0  0  0  0  0  0  0  0  0  0
   -1.5600    1.4520   -1.2360 C   0  0  0  0  0  0  0  0  0  0  0  0
   -2.8100    1.7060   -1.7590 O   0  0  0  0  0  0  0  0  0  0  0  0
   -3.9250    1.7390   -1.0420 F   0  0  0  0  0  0  0  0  0  0  0  0
  1  2  2  0
  2  3  1  0
  3  4  1  0
  3  5  2  3
  5  6  1  0
  6  7  2  3
  7  8  1  0
  7 26  1  0
  8  9  2  0
  9 10  1  0
  9 20  1  0
 10 11  2  3
 10 16  1  0
 11 12  1  0
 12 13  2  0
 12 14  1  0
 14 15  1  0
 16 17  1  0
 17 18  1  0
 18 19  1  0
 20 21  1  0
 21 22  1  0
 21 26  2  0
 22 23  1  0
 22 24  2  0
 24 25  2  0
 26 27  1  0
 27 28  1  0
M  END
