
     RDKit          3D

 28 28  0  0  0  0  0  0  0  0999 V2000
   -3.9150   -1.2610   -1.5320 C   0  0  0  0  0  0  0  0  0  0  0  0
   -4.2500   -1.0400   -0.3190 C   0  0  0  0  0  0  0  0  0  0  0  0
   -5.4460   -1.8730    0.0550 N   0  0  0  0  0  0  0  0  0  0  0  0
   -3.7150   -0.2360    0.6930 C   0  0  0  0  0  0  0  0  0  0  0  0
   -4.4400   -0.2720    1.8750 C   0  0  0  0  0  0  0  0  0  0  0  0
   -2.5760    0.6530    0.7820 C   0  0  0  0  0  0  0  0  0  0  0  0
   -1.6230    0.9640   -0.0280 C   0  0  0  0  0  0  0  0  0  0  0  0
   -1.3690    0.5100   -1.3210 O   0  0  0  0  0  0  0  0  0  0  0  0
   -0.4710   -0.5860   -1.3680 C   0  0  0  0  0  0  0  0  0  0  0  0
   -0.0060   -1.0630   -0.3110 O   0  0  0  0  0  0  0  0  0  0  0  0
   -0.0460   -1.2070   -2.6510 C   0  0  2  0  0  0  0  0  0  0  0  0
   -1.0390   -1.4130   -3.5450 F   0  0  0  0  0  0  0  0  0  0  0  0
    0.7750   -2.2860   -2.3980 O   0  0  0  0  0  0  0  0  0  0  0  0
    2.0240   -2.1250   -2.6730 O   0  0  0  0  0  0  0  0  0  0  0  0
    2.6720   -3.3000   -3.0400 C   0  0  0  0  0  0  0  0  0  0  0  0
    4.1360   -3.0590   -3.3410 C   0  0  0  0  0  0  0  0  0  0  0  0
    4.8490   -2.5020   -2.1210 C   0  0  0  0  0  0  0  0  0  0  0  0
    6.2900   -2.2660   -2.4290 C   0  0  0  0  0  0  0  0  0  0  0  0
   -0.6940    1.9610    0.5670 C   0  0  0  0  0  0  0  0  0  0  0  0
    0.3660    2.4900    0.0320 C   0  0  0  0  0  0  0  0  0  0  0  0
    1.4240    2.9670   -0.3850 O   0  0  0  0  0  0  0  0  0  0  0  0
   -1.1930    2.2300    1.8550 N   0  0  0  0  0  0  0  0  0  0  0  0
   -0.6150    3.1470    2.7850 N   0  0  0  0  0  0  0  0  0  0  0  0
   -1.3920    4.2120    3.3320 C   0  0  0  0  0  0  0  0  0  0  0  0
    0.7310    2.9710    3.1440 C   0  0  0  0  0  0  0  0  0  0  0  0
    1.3810    3.9060    4.1140 C   0  0  0  0  0  0  0  0  0  0  0  0
    1.4110    2.0350    2.6630 O   0  0  0  0  0  0  0  0  0  0  0  0
   -2.3480    1.4570    2.0740 C   0  0  0  0  0  0  0  0  0  0  0  0
  1  2  2  0
  2  3  1  0
  2  4  1  0
  4  5  2  0
  4  6  1  0
  6  7  2  0
  6 28  1  0
  7  8  1  0
  7 19  1  0
  8  9  1  0
  9 10  2  0
  9 11  1  0
 11 12  1  1
 11 13  1  0
 13 14  1  0
 14 15  1  0
 15 16  1  0
 16 17  1  0
 17 18  1  0
 19 20  2  0
 19 22  1  0
 20 21  2  0
 22 23  1  0
 22 28  1  0
 23 24  1  0
 23 25  1  0
 25 26  1  0
 25 27  2  0
M  END
