
     RDKit          3D

 28 28  0  0  0  0  0  0  0  0999 V2000
    5.6960   -0.7430   -1.1640 C   0  0  0  0  0  0  0  0  0  0  0  0
    4.9600   -1.3850   -0.3520 C   0  0  0  0  0  0  0  0  0  0  0  0
    3.5550   -1.3480   -0.0840 C   0  0  0  0  0  0  0  0  0  0  0  0
    3.1960   -2.1100    0.9240 O   0  0  0  0  0  0  0  0  0  0  0  0
    2.5110   -0.6430   -0.7010 N   0  0  0  0  0  0  0  0  0  0  0  0
    2.7700   -0.3900   -2.1320 C   0  0  0  0  0  0  0  0  0  0  0  0
    1.8580    0.0120   -2.8820 O   0  0  0  0  0  0  0  0  0  0  0  0
    1.1950   -0.4080   -0.2790 C   0  0  0  0  0  0  0  0  0  0  0  0
    0.5030   -0.9360    0.7090 C   0  0  0  0  0  0  0  0  0  0  0  0
    1.0460   -1.8660    1.5620 O   0  0  0  0  0  0  0  0  0  0  0  0
    1.0540   -1.7000    2.9790 C   0  0  0  0  0  0  0  0  0  0  0  0
   -0.9210   -0.5460    0.9030 C   0  0  0  0  0  0  0  0  0  0  0  0
   -1.6210   -1.1190    1.9580 O   0  0  0  0  0  0  0  0  0  0  0  0
   -1.9500   -2.5050    1.8010 C   0  0  0  0  0  0  0  0  0  0  0  0
   -2.7980   -2.7560    0.5800 C   0  0  0  0  0  0  0  0  0  0  0  0
   -1.5800    0.2950    0.1480 C   0  0  0  0  0  0  0  0  0  0  0  0
   -2.9640    0.6610    0.3760 C   0  0  0  0  0  0  0  0  0  0  0  0
   -3.5280    0.0980    1.5160 F   0  0  0  0  0  0  0  0  0  0  0  0
   -3.7040    1.4620   -0.3390 C   0  0  0  0  0  0  0  0  0  0  0  0
   -3.2470    2.1070   -1.4700 O   0  0  0  0  0  0  0  0  0  0  0  0
   -5.0890    1.7190    0.0430 C   0  0  0  0  0  0  0  0  0  0  0  0
   -5.8620    2.5220   -0.6580 C   0  0  0  0  0  0  0  0  0  0  0  0
   -0.8770    0.8550   -1.0570 C   0  0  0  0  0  0  0  0  0  0  0  0
    0.5640    0.7980   -0.8240 N   0  0  0  0  0  0  0  0  0  0  0  0
    1.2840    1.9740   -1.0360 C   0  0  0  0  0  0  0  0  0  0  0  0
    0.9840    2.6770   -2.1250 N   0  0  0  0  0  0  0  0  0  0  0  0
    2.2980    2.5940   -0.1800 C   0  0  0  0  0  0  0  0  0  0  0  0
    3.4440    1.8400   -0.0610 O   0  0  0  0  0  0  0  0  0  0  0  0
  1  2  2  0
  2  3  1  0
  3  4  2  0
  3  5  1  0
  5  6  1  0
  5  8  1  0
  6  7  2  0
  8  9  2  0
  8 24  1  0
  9 10  1  0
  9 12  1  0
 10 11  1  0
 12 13  1  0
 12 16  2  0
 13 14  1  0
 14 15  1  0
 16 17  1  0
 16 23  1  0
 17 18  1  0
 17 19  2  3
 19 20  1  0
 19 21  1  0
 21 22  2  0
 23 24  1  0
 24 25  1  0
 25 26  2  0
 25 27  1  0
 27 28  1  0
M  END
