
     RDKit          3D

 28 28  0  0  0  0  0  0  0  0999 V2000
    8.0380   -2.2550    0.5640 C   0  0  0  0  0  0  0  0  0  0  0  0
    6.8830   -1.7070    1.3730 C   0  0  0  0  0  0  0  0  0  0  0  0
    5.6050   -1.7140    0.5910 C   0  0  0  0  0  0  0  0  0  0  0  0
    5.6760   -0.8820   -0.6720 C   0  0  0  0  0  0  0  0  0  0  0  0
    5.9670    0.4190   -0.3600 O   0  0  0  0  0  0  0  0  0  0  0  0
    5.0530    0.9900    0.4550 C   0  0  0  0  0  0  0  0  0  0  0  0
    3.6730    1.1030   -0.0610 C   0  0  0  0  0  0  0  0  0  0  0  0
    3.3960    0.7300   -1.2190 O   0  0  0  0  0  0  0  0  0  0  0  0
    2.6310    1.6190    0.6990 O   0  0  0  0  0  0  0  0  0  0  0  0
    1.3330    1.7290    0.2240 C   0  0  0  0  0  0  0  0  0  0  0  0
    0.4380    0.6950    0.4050 C   0  0  0  0  0  0  0  0  0  0  0  0
   -0.8600    0.7500   -0.0430 C   0  0  0  0  0  0  0  0  0  0  0  0
   -1.3080    1.8570   -0.6970 C   0  0  0  0  0  0  0  0  0  0  0  0
   -2.5470    2.0580   -1.1930 O   0  0  0  0  0  0  0  0  0  0  0  0
   -3.7030    1.3270   -1.2420 C   0  0  0  0  0  0  0  0  0  0  0  0
   -4.1670    0.9800    0.0570 N   0  0  0  0  0  0  0  0  0  0  0  0
   -4.3190    2.0810    0.9490 C   0  0  0  0  0  0  0  0  0  0  0  0
   -5.3630    3.0500    0.6670 C   0  0  0  0  0  0  0  0  0  0  0  0
   -5.5500    4.0220    1.4400 O   0  0  0  0  0  0  0  0  0  0  0  0
   -6.1760    2.9470   -0.4370 O   0  0  0  0  0  0  0  0  0  0  0  0
   -5.2070    0.0120    0.1370 C   0  0  1  0  0  0  0  0  0  0  0  0
   -6.3140    0.4200   -0.6070 F   0  0  0  0  0  0  0  0  0  0  0  0
   -4.7920   -1.3030   -0.3730 C   0  0  0  0  0  0  0  0  0  0  0  0
   -5.7690   -2.4580   -0.3860 C   0  0  0  0  0  0  0  0  0  0  0  0
   -3.6410   -1.5580   -0.8170 N   0  0  0  0  0  0  0  0  0  0  0  0
   -3.2170   -2.8300   -1.3180 C   0  0  0  0  0  0  0  0  0  0  0  0
   -0.3950    2.9110   -0.8810 C   0  0  0  0  0  0  0  0  0  0  0  0
    0.8560    2.8040   -0.4240 N   0  0  0  0  0  0  0  0  0  0  0  0
  1  2  1  0
  2  3  1  0
  3  4  1  0
  4  5  1  0
  5  6  1  0
  6  7  1  0
  7  8  2  0
  7  9  1  0
  9 10  1  0
 10 11  2  0
 10 28  1  0
 11 12  1  0
 12 13  2  0
 13 14  1  0
 13 27  1  0
 14 15  1  0
 15 16  1  0
 16 17  1  0
 16 21  1  0
 17 18  1  0
 18 19  2  0
 18 20  1  0
 21 22  1  6
 21 23  1  0
 23 24  1  0
 23 25  2  3
 25 26  1  0
 27 28  2  0
M  END
