
     RDKit          3D

 28 28  0  0  0  0  0  0  0  0999 V2000
    4.7110   -0.2330   -1.7800 C   0  0  0  0  0  0  0  0  0  0  0  0
    4.0120   -0.0570   -0.6870 C   0  0  0  0  0  0  0  0  0  0  0  0
    4.5290    0.4790    0.4830 O   0  0  0  0  0  0  0  0  0  0  0  0
    3.8000    0.1700    1.6700 C   0  0  0  0  0  0  0  0  0  0  0  0
    3.0860   -1.1400    1.6350 C   0  0  0  0  0  0  0  0  0  0  0  0
    2.1070   -1.2770    0.4770 C   0  0  0  0  0  0  0  0  0  0  0  0
    2.6070   -0.4390   -0.6730 C   0  0  0  0  0  0  0  0  0  0  0  0
    1.7710   -0.0580   -1.5910 C   0  0  0  0  0  0  0  0  0  0  0  0
    2.1640    0.8050   -2.7250 C   0  0  0  0  0  0  0  0  0  0  0  0
    1.3490    1.9710   -2.7260 F   0  0  0  0  0  0  0  0  0  0  0  0
    0.3980   -0.5470   -1.5250 N   0  0  0  0  0  0  0  0  0  0  0  0
   -0.7040    0.3080   -1.3580 C   0  0  2  0  0  0  0  0  0  0  0  0
   -0.7180    1.0360   -0.0060 C   0  0  0  0  0  0  0  0  0  0  0  0
    0.4460    1.8360    0.1320 O   0  0  0  0  0  0  0  0  0  0  0  0
    0.7050    2.6050    1.2390 C   0  0  0  0  0  0  0  0  0  0  0  0
   -0.1650    2.5750    2.1720 O   0  0  0  0  0  0  0  0  0  0  0  0
    1.8830    3.4040    1.3580 N   0  0  0  0  0  0  0  0  0  0  0  0
    2.0710    4.1810    2.5610 C   0  0  0  0  0  0  0  0  0  0  0  0
   -2.0440   -0.2410   -1.7020 C   0  0  0  0  0  0  0  0  0  0  0  0
   -2.5130   -1.3830   -0.9950 N   0  0  0  0  0  0  0  0  0  0  0  0
   -2.3470   -2.7280   -1.4920 C   0  0  0  0  0  0  0  0  0  0  0  0
   -3.5310   -3.1130   -2.3830 C   0  0  0  0  0  0  0  0  0  0  0  0
   -3.6330   -2.2540   -3.4730 O   0  0  0  0  0  0  0  0  0  0  0  0
   -3.2260   -1.2150    0.2330 C   0  0  0  0  0  0  0  0  0  0  0  0
   -3.6080   -2.2350    0.8390 O   0  0  0  0  0  0  0  0  0  0  0  0
   -3.5260    0.0010    0.8030 O   0  0  0  0  0  0  0  0  0  0  0  0
   -4.2170    0.2000    1.9950 C   0  0  0  0  0  0  0  0  0  0  0  0
   -3.5700   -0.4150    3.2010 C   0  0  0  0  0  0  0  0  0  0  0  0
  1  2  2  0
  2  3  1  0
  2  7  1  0
  3  4  1  0
  4  5  1  0
  5  6  1  0
  6  7  1  0
  7  8  2  3
  8  9  1  0
  8 11  1  0
  9 10  1  0
 11 12  1  0
 12 13  1  1
 12 19  1  0
 13 14  1  0
 14 15  1  0
 15 16  2  0
 15 17  1  0
 17 18  1  0
 19 20  1  0
 20 21  1  0
 20 24  1  0
 21 22  1  0
 22 23  1  0
 24 25  2  0
 24 26  1  0
 26 27  1  0
 27 28  1  0
M  END
