
     RDKit          3D

 19 20  0  0  0  0  0  0  0  0999 V2000
    0.0100    0.2470    0.0710 O   0  0  0  0  0  0  0  0  0  0  0  0
    0.0440   -0.7530   -0.5150 C   0  0  0  0  0  0  0  0  0  0  0  0
   -0.9580   -1.6890   -0.8880 C   0  0  0  0  0  0  0  0  0  0  0  0
   -2.3230   -1.1760   -1.2190 C   0  0  2  0  0  0  0  0  0  0  0  0
   -2.3350   -0.2900   -2.3590 N   0  0  0  0  0  0  0  0  0  0  0  0
   -3.0450    0.8280   -2.0390 N   0  0  0  0  0  0  0  0  0  0  0  0
   -3.4140    0.7850   -0.7740 C   0  0  0  0  0  0  0  0  0  0  0  0
   -4.1490    1.5490    0.2650 C   0  0  0  0  0  0  0  0  0  0  0  0
   -4.0310    0.7040    1.4710 C   0  0  0  0  0  0  0  0  0  0  0  0
   -4.5670    1.0690    2.7290 O   0  0  0  0  0  0  0  0  0  0  0  0
   -3.3730   -0.3960    1.2020 C   0  0  0  0  0  0  0  0  0  0  0  0
   -2.9710   -0.4150   -0.1860 N   0  0  0  0  0  0  0  0  0  0  0  0
    1.6280   -1.2000   -1.0500 N   0  0  0  0  0  0  0  0  0  0  0  0
    2.3110   -0.2020   -0.3850 C   0  0  0  0  0  0  0  0  0  0  0  0
    2.0460    0.6200    0.4600 O   0  0  0  0  0  0  0  0  0  0  0  0
    3.7330   -0.1870   -0.8900 N   0  0  0  0  0  0  0  0  0  0  0  0
    4.6390    0.7130   -0.3390 C   0  0  0  0  0  0  0  0  0  0  0  0
    4.9030    0.4430    1.1200 C   0  0  0  0  0  0  0  0  0  0  0  0
    5.8200    1.4040    1.5330 O   0  0  0  0  0  0  0  0  0  0  0  0
  1  2  2  0
  2  3  1  0
  2 13  1  0
  4  3  1  1
  4  5  1  0
  4 12  1  0
  5  6  1  0
  6  7  2  0
  7  8  1  0
  7 12  1  0
  8  9  1  0
  9 10  1  0
  9 11  2  0
 11 12  1  0
 13 14  1  0
 14 15  2  0
 14 16  1  0
 16 17  1  0
 17 18  1  0
 18 19  1  0
M  END
