
     RDKit          3D

 11 11  0  0  0  0  0  0  0  0999 V2000
   -3.4510   -0.0140    0.5700 C   0  0  0  0  0  0  0  0  0  0  0  0
   -2.1900   -0.3770    0.4150 C   0  0  0  0  0  0  0  0  0  0  0  0
   -1.8600   -1.6200   -0.3390 C   0  0  0  0  0  0  0  0  0  0  0  0
   -1.0410    0.3950    0.9600 C   0  0  0  0  0  0  0  0  0  0  0  0
   -0.1320    0.8500   -0.0590 N   0  0  0  0  0  0  0  0  0  0  0  0
   -0.4860    1.8670   -1.0370 C   0  0  0  0  0  0  0  0  0  0  0  0
    1.1940    0.2840   -0.1340 C   0  0  0  0  0  0  0  0  0  0  0  0
    2.0130    0.3950   -1.1110 N   0  0  0  0  0  0  0  0  0  0  0  0
    3.2380   -0.3000   -0.8360 C   0  0  0  0  0  0  0  0  0  0  0  0
    3.1750   -0.5620    0.6280 C   0  0  0  0  0  0  0  0  0  0  0  0
    1.7810   -0.4830    0.8790 O   0  0  0  0  0  0  0  0  0  0  0  0
  1  2  2  0
  2  3  1  0
  2  4  1  0
  4  5  1  0
  5  6  1  0
  5  7  1  0
  7  8  2  0
  7 11  1  0
  8  9  1  0
  9 10  1  0
 10 11  1  0
M  END
