
     RDKit          3D

 19 20  0  0  0  0  0  0  0  0999 V2000
   -5.2210    0.2610    1.8760 N   0  0  0  0  0  0  0  0  0  0  0  0
   -4.8830    0.1270    0.5100 C   0  0  0  0  0  0  0  0  0  0  0  0
   -5.6300    0.5930   -0.3720 O   0  0  0  0  0  0  0  0  0  0  0  0
   -3.6450   -0.5650    0.1340 C   0  0  2  0  0  0  0  0  0  0  0  0
   -2.4030    0.2160    0.5810 C   0  0  0  0  0  0  0  0  0  0  0  0
   -1.3940   -0.2700   -0.4340 C   0  0  2  0  0  0  0  0  0  0  0  0
   -0.2190    0.5440   -0.4920 N   0  0  0  0  0  0  0  0  0  0  0  0
    1.0630    0.0370   -0.2350 C   0  0  0  0  0  0  0  0  0  0  0  0
    1.1790   -1.1750    0.0560 O   0  0  0  0  0  0  0  0  0  0  0  0
    2.2540    0.8110   -0.2810 N   0  0  0  0  0  0  0  0  0  0  0  0
    3.5440    0.2880   -0.0190 C   0  0  0  0  0  0  0  0  0  0  0  0
    4.5550    0.2820   -0.8640 C   0  0  0  0  0  0  0  0  0  0  0  0
    5.8850   -0.2810   -0.5310 C   0  0  0  0  0  0  0  0  0  0  0  0
    5.9900   -0.8120    0.7580 O   0  0  0  0  0  0  0  0  0  0  0  0
    4.9400   -0.7980    1.6140 N   0  0  0  0  0  0  0  0  0  0  0  0
    3.8040   -0.3000    1.2880 C   0  0  0  0  0  0  0  0  0  0  0  0
   -2.1710   -0.2820   -1.6790 C   0  0  0  0  0  0  0  0  0  0  0  0
   -1.7050   -0.0690   -2.8390 O   0  0  0  0  0  0  0  0  0  0  0  0
   -3.5160   -0.5760   -1.3090 N   0  0  0  0  0  0  0  0  0  0  0  0
  1  2  1  0
  2  3  2  0
  4  2  1  6
  4  5  1  0
  4 19  1  0
  5  6  1  0
  6  7  1  6
  6 17  1  0
  7  8  1  0
  8  9  2  0
  8 10  1  0
 10 11  1  0
 11 12  2  0
 11 16  1  0
 12 13  1  0
 13 14  1  0
 14 15  1  0
 15 16  2  0
 17 18  2  0
 17 19  1  0
M  END
