
     RDKit          3D

 38 42  0  0  0  0  0  0  0  0999 V2000
   -6.3500    3.5120    1.7320 C   0  0  0  0  0  0  0  0  0  0  0  0
   -6.1400    2.1850    0.9750 C   0  0  2  0  0  0  0  0  0  0  0  0
   -7.5840    1.7880    0.5810 C   0  0  0  0  0  0  0  0  0  0  0  0
   -5.5680    1.1820    1.8870 C   0  0  0  0  0  0  0  0  0  0  0  0
   -4.2940    0.5150    1.4540 C   0  0  0  0  0  0  0  0  0  0  0  0
   -3.9390    0.8580    0.0240 C   0  0  2  0  0  0  0  0  0  0  0  0
   -4.9580    0.1220   -0.8720 C   0  0  0  0  0  0  0  0  0  0  0  0
   -2.6160    0.3100   -0.3220 C   0  0  0  0  0  0  0  0  0  0  0  0
   -1.4960    0.9960   -0.6560 C   0  0  0  0  0  0  0  0  0  0  0  0
   -0.3090    0.3260   -0.9760 C   0  0  0  0  0  0  0  0  0  0  0  0
   -0.1980   -1.0350   -0.9750 C   0  0  0  0  0  0  0  0  0  0  0  0
   -1.3500   -1.7280   -0.6300 C   0  0  0  0  0  0  0  0  0  0  0  0
   -2.5220   -1.0830   -0.3130 C   0  0  0  0  0  0  0  0  0  0  0  0
   -1.3230   -3.2150   -0.6050 C   0  0  0  0  0  0  0  0  0  0  0  0
   -0.4910   -3.8010   -1.6970 C   0  0  0  0  0  0  0  0  0  0  0  0
    0.5790   -2.9190   -2.2210 C   0  0  0  0  0  0  0  0  0  0  0  0
    1.0200   -1.8030   -1.3220 C   0  0  1  0  0  0  0  0  0  0  0  0
    1.8880   -0.9880   -2.0990 O   0  0  0  0  0  0  0  0  0  0  0  0
    1.8170   -2.3000   -0.1820 C   0  0  2  0  0  0  0  0  0  0  0  0
    2.4840   -1.2340    0.6160 C   0  0  0  0  0  0  0  0  0  0  0  0
    1.8080   -0.6040    1.4480 O   0  0  0  0  0  0  0  0  0  0  0  0
    3.8250   -0.9120    0.4700 O   0  0  0  0  0  0  0  0  0  0  0  0
    4.6990   -1.7220   -0.1980 C   0  0  0  0  0  0  0  0  0  0  0  0
    4.2070   -2.9090   -0.7440 C   0  0  0  0  0  0  0  0  0  0  0  0
    5.2810   -3.5080   -1.3360 C   0  0  0  0  0  0  0  0  0  0  0  0
    6.3410   -2.7660   -1.1750 O   0  0  0  0  0  0  0  0  0  0  0  0
    6.0550   -1.6830   -0.5010 C   0  0  0  0  0  0  0  0  0  0  0  0
    6.9980   -0.6220   -0.1380 C   0  0  0  0  0  0  0  0  0  0  0  0
    8.2300   -0.7510   -0.4840 O   0  0  0  0  0  0  0  0  0  0  0  0
    6.6690    0.5220    0.5520 O   0  0  0  0  0  0  0  0  0  0  0  0
    7.7210    1.4660    0.8210 C   0  0  0  0  0  0  0  0  0  0  0  0
    7.1460    2.6340    1.5540 C   0  0  0  0  0  0  0  0  0  0  0  0
    6.0660    3.2940    0.7130 C   0  0  0  0  0  0  0  0  0  0  0  0
    6.5640    3.7350   -0.5150 O   0  0  0  0  0  0  0  0  0  0  0  0
    2.7980   -3.3090   -0.6270 C   0  0  0  0  0  0  0  0  0  0  0  0
    2.5000   -4.5090   -0.9150 O   0  0  0  0  0  0  0  0  0  0  0  0
   -4.1450    2.3120   -0.2440 C   0  0  0  0  0  0  0  0  0  0  0  0
   -5.5180    2.5090   -0.1760 O   0  0  0  0  0  0  0  0  0  0  0  0
  2  1  1  1
  2  3  1  0
  2  4  1  0
  2 38  1  0
  4  5  1  0
  5  6  1  0
  6  7  1  6
  6  8  1  0
  6 37  1  0
  8  9  2  0
  8 13  1  0
  9 10  1  0
 10 11  2  0
 11 12  1  0
 11 17  1  0
 12 13  2  0
 12 14  1  0
 14 15  1  0
 15 16  1  0
 16 17  1  0
 17 18  1  6
 17 19  1  0
 19 20  1  6
 19 35  1  0
 20 21  2  0
 20 22  1  0
 22 23  1  0
 23 24  1  0
 23 27  2  0
 24 25  2  0
 24 35  1  0
 25 26  1  0
 26 27  1  0
 27 28  1  0
 28 29  2  0
 28 30  1  0
 30 31  1  0
 31 32  1  0
 32 33  1  0
 33 34  1  0
 35 36  2  0
 37 38  1  0
M  END
