
     RDKit          3D

 38 41  0  0  0  0  0  0  0  0999 V2000
   -4.5400    3.0400    1.9140 C   0  0  0  0  0  0  0  0  0  0  0  0
   -3.5400    2.0870    1.3030 C   0  0  0  0  0  0  0  0  0  0  0  0
   -4.1830    0.6940    1.1250 C   0  0  0  0  0  0  0  0  0  0  0  0
   -3.2550   -0.2260    0.5440 C   0  0  2  0  0  0  0  0  0  0  0  0
   -2.6670    0.0450   -0.8030 C   0  0  0  0  0  0  0  0  0  0  0  0
   -2.9810    0.8340   -1.7910 C   0  0  0  0  0  0  0  0  0  0  0  0
   -4.2140    1.2320   -2.5310 C   0  0  0  0  0  0  0  0  0  0  0  0
   -5.4290    0.4790   -2.2010 C   0  0  0  0  0  0  0  0  0  0  0  0
   -5.4330   -0.8300   -1.5730 C   0  0  0  0  0  0  0  0  0  0  0  0
   -4.2570   -1.6330   -1.2810 C   0  0  0  0  0  0  0  0  0  0  0  0
   -3.6990   -1.6200    0.1410 C   0  0  1  0  0  0  0  0  0  0  0  0
   -2.2470   -2.1630   -0.0820 C   0  0  1  0  0  0  0  0  0  0  0  0
   -2.2670   -3.3220   -0.8030 O   0  0  0  0  0  0  0  0  0  0  0  0
   -1.5990   -0.9790   -0.8440 C   0  0  2  0  0  0  0  0  0  0  0  0
   -0.2640   -0.5890   -0.3700 C   0  0  2  0  0  0  0  0  0  0  0  0
    0.7750   -1.6940   -0.4370 C   0  0  0  0  0  0  0  0  0  0  0  0
    1.9120   -1.3490   -1.1220 O   0  0  0  0  0  0  0  0  0  0  0  0
    3.1530   -1.8380   -1.2740 C   0  0  0  0  0  0  0  0  0  0  0  0
    3.5320   -2.2030   -2.4540 O   0  0  0  0  0  0  0  0  0  0  0  0
    4.2060   -2.0340   -0.2670 C   0  0  0  0  0  0  0  0  0  0  0  0
    4.4470   -1.2080    0.7950 C   0  0  0  0  0  0  0  0  0  0  0  0
    5.4780   -1.5320    1.6500 C   0  0  0  0  0  0  0  0  0  0  0  0
    6.2660   -2.6450    1.4770 C   0  0  0  0  0  0  0  0  0  0  0  0
    7.3850   -2.9570    2.4450 C   0  0  0  0  0  0  0  0  0  0  0  0
    6.0200   -3.4190    0.4600 O   0  0  0  0  0  0  0  0  0  0  0  0
    5.0530   -3.1470   -0.3730 C   0  0  0  0  0  0  0  0  0  0  0  0
    4.8840   -3.9670   -1.3490 O   0  0  0  0  0  0  0  0  0  0  0  0
    3.6960    0.0230    1.1260 C   0  0  0  0  0  0  0  0  0  0  0  0
    4.3330    1.3040    0.7450 C   0  0  0  0  0  0  0  0  0  0  0  0
    4.3230    1.6610   -0.6880 C   0  0  0  0  0  0  0  0  0  0  0  0
    3.0040    1.9950   -1.2760 C   0  0  0  0  0  0  0  0  0  0  0  0
    3.1460    2.6030   -2.4030 O   0  0  0  0  0  0  0  0  0  0  0  0
    1.8670    1.6820   -0.6740 O   0  0  0  0  0  0  0  0  0  0  0  0
    0.8740    2.2340    0.0840 C   0  0  2  0  0  0  0  0  0  0  0  0
    1.2310    3.5690    0.7100 C   0  0  0  0  0  0  0  0  0  0  0  0
    0.2420    1.3410    1.0920 C   0  0  0  0  0  0  0  0  0  0  0  0
    0.0790    1.7980    2.2690 O   0  0  0  0  0  0  0  0  0  0  0  0
   -0.1880    0.0560    0.8750 O   0  0  0  0  0  0  0  0  0  0  0  0
  1  2  1  0
  2  3  1  0
  4  3  1  6
  4  5  1  0
  4 11  1  0
  5  6  2  0
 14  5  1  1
  6  7  1  0
  7  8  1  0
  8  9  1  0
  9 10  1  0
 11 10  1  6
 11 12  1  0
 12 13  1  6
 12 14  1  0
 14 15  1  0
 15 16  1  1
 15 38  1  0
 16 17  1  0
 17 18  1  0
 18 19  2  0
 18 20  1  0
 20 21  2  0
 20 26  1  0
 21 22  1  0
 21 28  1  0
 22 23  2  0
 23 24  1  0
 23 25  1  0
 25 26  1  0
 26 27  2  0
 28 29  1  0
 29 30  1  0
 30 31  1  0
 31 32  2  0
 31 33  1  0
 33 34  1  0
 34 35  1  1
 34 36  1  0
 36 37  2  0
 36 38  1  0
M  END
