
     RDKit          3D

 38 42  0  0  0  0  0  0  0  0999 V2000
   -4.7490    1.1780   -3.7740 C   0  0  0  0  0  0  0  0  0  0  0  0
   -5.2280    1.3740   -2.3610 C   0  0  0  0  0  0  0  0  0  0  0  0
   -5.0620    0.1790   -1.5670 C   0  0  0  0  0  0  0  0  0  0  0  0
   -6.1270   -0.6300   -1.3220 C   0  0  0  0  0  0  0  0  0  0  0  0
   -6.0240   -1.7870   -0.5880 C   0  0  0  0  0  0  0  0  0  0  0  0
   -4.7810   -2.1460   -0.0780 C   0  0  0  0  0  0  0  0  0  0  0  0
   -4.6460   -3.3200    0.6200 C   0  0  0  0  0  0  0  0  0  0  0  0
   -3.4400   -3.7590    1.1120 C   0  0  0  0  0  0  0  0  0  0  0  0
   -2.3390   -2.9790    0.8830 C   0  0  0  0  0  0  0  0  0  0  0  0
   -2.4560   -1.7880    0.1800 C   0  0  0  0  0  0  0  0  0  0  0  0
   -3.6590   -1.3310   -0.3140 C   0  0  0  0  0  0  0  0  0  0  0  0
   -3.7920   -0.1710   -1.0500 C   0  0  0  0  0  0  0  0  0  0  0  0
   -2.7670    0.7580   -1.3700 C   0  0  0  0  0  0  0  0  0  0  0  0
   -1.4740    0.7270   -0.8050 N   0  0  0  0  0  0  0  0  0  0  0  0
   -1.2410    1.1320    0.5680 C   0  0  0  0  0  0  0  0  0  0  0  0
   -2.3050    1.4940    1.1590 O   0  0  0  0  0  0  0  0  0  0  0  0
    0.0180    1.1440    1.2390 C   0  0  0  0  0  0  0  0  0  0  0  0
    0.0290    1.5310    2.5870 C   0  0  0  0  0  0  0  0  0  0  0  0
   -1.1890    1.8620    3.1590 O   0  0  0  0  0  0  0  0  0  0  0  0
   -1.2050    2.2560    4.5220 C   0  0  0  0  0  0  0  0  0  0  0  0
    1.2060    1.5760    3.3040 C   0  0  0  0  0  0  0  0  0  0  0  0
    2.4000    1.2310    2.6920 C   0  0  0  0  0  0  0  0  0  0  0  0
    3.5610    1.2880    3.4420 O   0  0  0  0  0  0  0  0  0  0  0  0
    2.4290    0.8410    1.3670 C   0  0  0  0  0  0  0  0  0  0  0  0
    1.2160    0.8130    0.6540 C   0  0  0  0  0  0  0  0  0  0  0  0
    1.4830    0.4350   -0.6820 O   0  0  0  0  0  0  0  0  0  0  0  0
    2.8560    0.2520   -0.8460 C   0  0  0  0  0  0  0  0  0  0  0  0
    3.6640    0.1000   -1.8710 C   0  0  0  0  0  0  0  0  0  0  0  0
    5.1130   -0.0380   -1.7670 C   0  0  0  0  0  0  0  0  0  0  0  0
    5.8780   -0.2330   -2.8990 O   0  0  0  0  0  0  0  0  0  0  0  0
    5.6560    0.0310   -0.5650 C   0  0  0  0  0  0  0  0  0  0  0  0
    7.0980   -0.1180   -0.3510 C   0  0  0  0  0  0  0  0  0  0  0  0
    7.9780   -0.3510   -1.5130 C   0  0  0  0  0  0  0  0  0  0  0  0
    7.6000   -0.0510    0.7970 O   0  0  0  0  0  0  0  0  0  0  0  0
    4.8060    0.4780    0.5780 C   0  0  0  0  0  0  0  0  0  0  0  0
    5.4300    1.0680    1.5070 O   0  0  0  0  0  0  0  0  0  0  0  0
    3.4140    0.2050    0.5150 C   0  0  1  0  0  0  0  0  0  0  0  0
    3.3340   -1.3640    0.9220 C   0  0  0  0  0  0  0  0  0  0  0  0
  1  2  1  0
  2  3  1  0
  3  4  2  0
  3 12  1  0
  4  5  1  0
  5  6  2  0
  6  7  1  0
  6 11  1  0
  7  8  2  0
  8  9  1  0
  9 10  2  0
 10 11  1  0
 11 12  2  0
 12 13  1  0
 13 14  1  0
 14 15  1  0
 15 16  2  0
 15 17  1  0
 17 18  2  0
 17 25  1  0
 18 19  1  0
 18 21  1  0
 19 20  1  0
 21 22  2  0
 22 23  1  0
 22 24  1  0
 24 25  2  0
 24 37  1  0
 25 26  1  0
 26 27  1  0
 27 28  2  0
 27 37  1  0
 28 29  1  0
 29 30  1  0
 29 31  2  0
 31 32  1  0
 31 35  1  0
 32 33  1  0
 32 34  2  0
 35 36  2  0
 35 37  1  0
 37 38  1  1
M  END
