
     RDKit          3D

 38 41  0  0  0  0  0  0  0  0999 V2000
   -6.3660    3.0810   -1.0840 C   0  0  0  0  0  0  0  0  0  0  0  0
   -7.1140    2.4710    0.0820 C   0  0  0  0  0  0  0  0  0  0  0  0
   -6.2220    1.7770    1.0420 C   0  0  0  0  0  0  0  0  0  0  0  0
   -5.4100    0.6420    0.5230 C   0  0  2  0  0  0  0  0  0  0  0  0
   -4.5300    0.9340   -0.4940 O   0  0  0  0  0  0  0  0  0  0  0  0
   -3.2960    1.4690   -0.6340 C   0  0  0  0  0  0  0  0  0  0  0  0
   -3.2570    2.3260   -1.6400 O   0  0  0  0  0  0  0  0  0  0  0  0
   -2.0320    1.3210    0.0520 C   0  0  0  0  0  0  0  0  0  0  0  0
   -1.4820    2.5580    0.4450 C   0  0  0  0  0  0  0  0  0  0  0  0
   -0.2880    2.6620    1.1170 C   0  0  0  0  0  0  0  0  0  0  0  0
    0.4160    1.5300    1.4300 C   0  0  0  0  0  0  0  0  0  0  0  0
    1.7320    1.6060    2.1670 C   0  0  0  0  0  0  0  0  0  0  0  0
    2.6610    0.8730    1.3890 O   0  0  0  0  0  0  0  0  0  0  0  0
    3.9720    0.6990    1.7120 C   0  0  0  0  0  0  0  0  0  0  0  0
    4.3590    1.2440    2.7880 O   0  0  0  0  0  0  0  0  0  0  0  0
    4.9550   -0.0600    0.9190 C   0  0  0  0  0  0  0  0  0  0  0  0
    4.6360   -0.6570   -0.2090 C   0  0  0  0  0  0  0  0  0  0  0  0
    3.3360   -0.7220   -0.9210 C   0  0  0  0  0  0  0  0  0  0  0  0
    3.5470   -1.4440   -2.0020 C   0  0  0  0  0  0  0  0  0  0  0  0
    4.9200   -1.8820   -2.0750 C   0  0  0  0  0  0  0  0  0  0  0  0
    5.5730   -1.4150   -1.0090 C   0  0  0  0  0  0  0  0  0  0  0  0
    6.9760   -1.5460   -0.5520 C   0  0  0  0  0  0  0  0  0  0  0  0
    7.3250   -0.3230    0.2570 C   0  0  2  0  0  0  0  0  0  0  0  0
    7.2060    0.8790   -0.6470 C   0  0  0  0  0  0  0  0  0  0  0  0
    8.7110   -0.4900    0.7990 C   0  0  0  0  0  0  0  0  0  0  0  0
    6.3550   -0.1430    1.4090 C   0  0  0  0  0  0  0  0  0  0  0  0
   -0.0880    0.3110    1.0630 C   0  0  0  0  0  0  0  0  0  0  0  0
   -1.3200    0.1610    0.3660 C   0  0  0  0  0  0  0  0  0  0  0  0
   -1.6280   -1.1160    0.1000 O   0  0  0  0  0  0  0  0  0  0  0  0
   -2.1150   -1.9080   -0.9310 C   0  0  0  0  0  0  0  0  0  0  0  0
   -3.5410   -2.1080   -0.7790 C   0  0  1  0  0  0  0  0  0  0  0  0
   -4.1900   -1.6850   -1.9400 O   0  0  0  0  0  0  0  0  0  0  0  0
   -4.1520   -3.4150   -0.4150 C   0  0  1  0  0  0  0  0  0  0  0  0
   -3.4260   -4.1530    0.5060 O   0  0  0  0  0  0  0  0  0  0  0  0
   -5.4710   -2.9800    0.2910 C   0  0  0  0  0  0  0  0  0  0  0  0
   -5.8440   -1.7750   -0.2170 O   0  0  0  0  0  0  0  0  0  0  0  0
   -6.2180   -0.5510    0.1290 C   0  0  0  0  0  0  0  0  0  0  0  0
   -7.4830   -0.3200    0.1350 O   0  0  0  0  0  0  0  0  0  0  0  0
  1  2  1  0
  2  3  1  0
  4  3  1  6
  4  5  1  0
  4 37  1  0
  5  6  1  0
  6  7  2  0
  6  8  1  0
  8  9  2  0
  8 28  1  0
  9 10  1  0
 10 11  2  0
 11 12  1  0
 11 27  1  0
 12 13  1  0
 13 14  1  0
 14 15  2  0
 14 16  1  0
 16 17  2  0
 16 26  1  0
 17 18  1  0
 17 21  1  0
 18 19  2  0
 19 20  1  0
 20 21  2  0
 21 22  1  0
 22 23  1  0
 23 24  1  6
 23 25  1  0
 23 26  1  0
 27 28  2  0
 28 29  1  0
 29 30  1  0
 30 31  1  0
 31 32  1  6
 31 33  1  0
 33 34  1  1
 33 35  1  0
 35 36  1  0
 36 37  1  0
 37 38  2  0
M  END
