
     RDKit          3D

 38 42  0  0  0  0  0  0  0  0999 V2000
   -0.6070    1.2090   -1.1520 C   0  0  0  0  0  0  0  0  0  0  0  0
   -1.0970    0.9740    0.2300 C   0  0  2  0  0  0  0  0  0  0  0  0
    0.0260    0.5740    1.2060 C   0  0  0  0  0  0  0  0  0  0  0  0
    0.5180   -0.7850    0.9450 C   0  0  2  0  0  0  0  0  0  0  0  0
    0.5630   -1.5240    2.2940 C   0  0  0  0  0  0  0  0  0  0  0  0
    1.9530   -0.8920    0.4000 C   0  0  2  0  0  0  0  0  0  0  0  0
    2.0180   -0.3870   -0.9160 O   0  0  0  0  0  0  0  0  0  0  0  0
    2.1870   -2.3800    0.3000 C   0  0  0  0  0  0  0  0  0  0  0  0
    3.6390   -2.7640    0.3200 C   0  0  0  0  0  0  0  0  0  0  0  0
    4.1900   -2.3930    1.6620 C   0  0  0  0  0  0  0  0  0  0  0  0
    3.8580   -0.9960    1.9960 C   0  0  0  0  0  0  0  0  0  0  0  0
    4.3490   -0.5160    3.0020 O   0  0  0  0  0  0  0  0  0  0  0  0
    2.9650   -0.1360    1.1870 C   0  0  1  0  0  0  0  0  0  0  0  0
    3.8530    0.7210    0.3280 C   0  0  0  0  0  0  0  0  0  0  0  0
    3.4670    1.9500   -0.1550 C   0  0  0  0  0  0  0  0  0  0  0  0
    4.2690    2.7640   -0.9260 C   0  0  0  0  0  0  0  0  0  0  0  0
    5.5380    2.3650   -1.2570 C   0  0  0  0  0  0  0  0  0  0  0  0
    5.9540    1.1400   -0.7890 C   0  0  0  0  0  0  0  0  0  0  0  0
    5.1460    0.3180   -0.0110 C   0  0  0  0  0  0  0  0  0  0  0  0
    7.3080    0.7250   -1.1480 C   0  0  0  0  0  0  0  0  0  0  0  0
    7.7040   -0.3840   -0.7330 O   0  0  0  0  0  0  0  0  0  0  0  0
    8.1040    1.5680   -1.9330 O   0  0  0  0  0  0  0  0  0  0  0  0
    7.8250    2.9600   -1.9180 C   0  0  0  0  0  0  0  0  0  0  0  0
    6.4030    3.1270   -2.0270 O   0  0  0  0  0  0  0  0  0  0  0  0
   -0.2250   -1.5380    0.0390 O   0  0  0  0  0  0  0  0  0  0  0  0
   -1.5720   -1.4300    0.0950 C   0  0  1  0  0  0  0  0  0  0  0  0
   -2.1110   -1.8370   -1.2860 C   0  0  0  0  0  0  0  0  0  0  0  0
   -2.2070   -2.4330    1.0700 C   0  0  0  0  0  0  0  0  0  0  0  0
   -2.1370   -0.0850    0.3890 C   0  0  2  0  0  0  0  0  0  0  0  0
   -3.3710    0.2230   -0.4160 C   0  0  0  0  0  0  0  0  0  0  0  0
   -3.4390    1.2690   -1.1060 O   0  0  0  0  0  0  0  0  0  0  0  0
   -4.4570   -0.6250   -0.4200 O   0  0  0  0  0  0  0  0  0  0  0  0
   -5.6560   -0.4300   -1.1330 C   0  0  0  0  0  0  0  0  0  0  0  0
   -6.3010    0.8330   -0.6500 C   0  0  2  0  0  0  0  0  0  0  0  0
   -6.7970    0.6990    0.7850 C   0  0  0  0  0  0  0  0  0  0  0  0
   -7.7960    1.8340    0.8630 C   0  0  0  0  0  0  0  0  0  0  0  0
   -8.1610    2.0350   -0.5870 C   0  0  0  0  0  0  0  0  0  0  0  0
   -7.5010    1.0800   -1.3190 O   0  0  0  0  0  0  0  0  0  0  0  0
  2  1  1  6
  2  3  1  0
  2 29  1  0
  3  4  1  0
  4  5  1  1
  4  6  1  0
  4 25  1  0
  6  7  1  6
  6  8  1  0
  6 13  1  0
  8  9  1  0
  9 10  1  0
 10 11  1  0
 11 12  2  0
 11 13  1  0
 13 14  1  6
 14 15  2  0
 14 19  1  0
 15 16  1  0
 16 17  2  0
 17 18  1  0
 17 24  1  0
 18 19  2  0
 18 20  1  0
 20 21  2  0
 20 22  1  0
 22 23  1  0
 23 24  1  0
 25 26  1  0
 26 27  1  6
 26 28  1  0
 26 29  1  0
 29 30  1  6
 30 31  2  0
 30 32  1  0
 32 33  1  0
 34 33  1  6
 34 35  1  0
 34 38  1  0
 35 36  1  0
 36 37  1  0
 37 38  1  0
M  END
