
     RDKit          3D

 38 41  0  0  0  0  0  0  0  0999 V2000
   -3.2860    2.2290    3.7720 C   0  0  0  0  0  0  0  0  0  0  0  0
   -3.9580    1.0020    3.5890 O   0  0  0  0  0  0  0  0  0  0  0  0
   -4.1350    0.4480    2.2970 C   0  0  0  0  0  0  0  0  0  0  0  0
   -5.3530    0.5290    1.8040 C   0  0  0  0  0  0  0  0  0  0  0  0
   -5.8460    0.0710    0.5380 C   0  0  0  0  0  0  0  0  0  0  0  0
   -5.6650    0.5940   -0.6820 C   0  0  0  0  0  0  0  0  0  0  0  0
   -6.3300   -0.1390   -1.8540 C   0  0  0  0  0  0  0  0  0  0  0  0
   -4.9600    1.7030   -0.9960 O   0  0  0  0  0  0  0  0  0  0  0  0
   -3.7170    2.1690   -0.8810 C   0  0  0  0  0  0  0  0  0  0  0  0
   -3.3170    2.9610    0.0140 O   0  0  0  0  0  0  0  0  0  0  0  0
   -2.6560    1.7630   -1.8600 C   0  0  0  0  0  0  0  0  0  0  0  0
   -1.3090    1.6840   -1.2330 C   0  0  0  0  0  0  0  0  0  0  0  0
   -0.6070    0.3620   -1.5550 C   0  0  1  0  0  0  0  0  0  0  0  0
   -1.3440   -0.2090   -2.6190 O   0  0  0  0  0  0  0  0  0  0  0  0
    0.7440    0.6790   -2.0600 C   0  0  0  0  0  0  0  0  0  0  0  0
    1.7090   -0.4370   -2.0170 C   0  0  0  0  0  0  0  0  0  0  0  0
    2.6090   -0.5590   -2.8810 O   0  0  0  0  0  0  0  0  0  0  0  0
    1.5790   -1.4000   -0.9290 C   0  0  0  0  0  0  0  0  0  0  0  0
    2.6840   -2.0610   -0.5810 C   0  0  0  0  0  0  0  0  0  0  0  0
    3.8960   -1.8730   -1.1910 O   0  0  0  0  0  0  0  0  0  0  0  0
    4.7790   -0.8530   -0.9940 C   0  0  0  0  0  0  0  0  0  0  0  0
    5.9560   -0.8940   -1.7500 C   0  0  0  0  0  0  0  0  0  0  0  0
    6.9320    0.0730   -1.6480 C   0  0  0  0  0  0  0  0  0  0  0  0
    6.7230    1.1120   -0.7640 C   0  0  0  0  0  0  0  0  0  0  0  0
    5.5600    1.1490   -0.0190 C   0  0  0  0  0  0  0  0  0  0  0  0
    5.3570    2.1850    0.8600 O   0  0  0  0  0  0  0  0  0  0  0  0
    6.2980    3.2060    1.0230 C   0  0  0  0  0  0  0  0  0  0  0  0
    4.5830    0.1820   -0.1200 C   0  0  0  0  0  0  0  0  0  0  0  0
    2.6030   -3.0560    0.5300 C   0  0  0  0  0  0  0  0  0  0  0  0
    1.8460   -2.2840    1.6240 C   0  0  0  0  0  0  0  0  0  0  0  0
    0.4640   -2.0180    1.1540 C   0  0  2  0  0  0  0  0  0  0  0  0
   -0.3900   -3.2200    1.5110 C   0  0  0  0  0  0  0  0  0  0  0  0
    0.3090   -1.6220   -0.2870 C   0  0  1  0  0  0  0  0  0  0  0  0
   -0.6950   -0.5160   -0.3730 C   0  0  2  0  0  0  0  0  0  0  0  0
   -2.0450   -1.1290   -0.3530 C   0  0  0  0  0  0  0  0  0  0  0  0
   -2.1900   -2.1440   -1.1200 O   0  0  0  0  0  0  0  0  0  0  0  0
   -3.0710   -0.6560    0.4230 O   0  0  0  0  0  0  0  0  0  0  0  0
   -2.9390   -0.1350    1.6960 C   0  0  0  0  0  0  0  0  0  0  0  0
  1  2  1  0
  2  3  1  0
  3  4  2  0
  3 38  1  0
  4  5  1  0
  5  6  2  0
  6  7  1  0
  6  8  1  0
  8  9  1  0
  9 10  2  0
  9 11  1  0
 11 12  1  0
 12 13  1  0
 13 14  1  6
 13 15  1  0
 13 34  1  0
 15 16  1  0
 16 17  2  0
 16 18  1  0
 18 19  2  0
 33 18  1  1
 19 20  1  0
 19 29  1  0
 20 21  1  0
 21 22  2  0
 21 28  1  0
 22 23  1  0
 23 24  2  0
 24 25  1  0
 25 26  1  0
 25 28  2  0
 26 27  1  0
 29 30  1  0
 30 31  1  0
 31 32  1  6
 31 33  1  0
 33 34  1  0
 34 35  1  6
 35 36  2  0
 35 37  1  0
 37 38  1  0
M  END
