
     RDKit          3D

 38 42  0  0  0  0  0  0  0  0999 V2000
    1.5390    3.8100   -4.8350 O   0  0  0  0  0  0  0  0  0  0  0  0
    1.4490    4.7360   -4.0310 C   0  0  0  0  0  0  0  0  0  0  0  0
    0.9170    4.5080   -2.6860 C   0  0  0  0  0  0  0  0  0  0  0  0
    0.8060    5.5250   -1.7670 C   0  0  0  0  0  0  0  0  0  0  0  0
    0.2900    5.2230   -0.5170 C   0  0  0  0  0  0  0  0  0  0  0  0
   -0.1220    3.9610   -0.1310 C   0  0  0  0  0  0  0  0  0  0  0  0
   -0.0080    2.9230   -1.0570 C   0  0  0  0  0  0  0  0  0  0  0  0
    0.5090    3.2520   -2.3000 C   0  0  0  0  0  0  0  0  0  0  0  0
   -0.3980    1.6070   -0.7350 O   0  0  0  0  0  0  0  0  0  0  0  0
    0.1350    0.8920    0.3510 C   0  0  2  0  0  0  0  0  0  0  0  0
    1.4620    0.4640   -0.0340 O   0  0  0  0  0  0  0  0  0  0  0  0
    2.6150    0.9580    0.5370 C   0  0  0  0  0  0  0  0  0  0  0  0
    2.5000    1.8130    1.4250 O   0  0  0  0  0  0  0  0  0  0  0  0
    3.9410    0.5170    0.1390 C   0  0  0  0  0  0  0  0  0  0  0  0
    5.1270    0.9700    0.6680 C   0  0  0  0  0  0  0  0  0  0  0  0
    6.1780    0.3160    0.0350 C   0  0  0  0  0  0  0  0  0  0  0  0
    5.5420   -0.5310   -0.8800 C   0  0  0  0  0  0  0  0  0  0  0  0
    6.3240   -1.4210   -1.7730 C   0  0  0  0  0  0  0  0  0  0  0  0
    6.5590   -2.7770   -1.1030 C   0  0  0  0  0  0  0  0  0  0  0  0
    5.3110   -3.3760   -0.8260 O   0  0  0  0  0  0  0  0  0  0  0  0
    4.2570   -0.3700   -0.7720 O   0  0  0  0  0  0  0  0  0  0  0  0
   -0.5940   -0.2400    0.8830 C   0  0  0  0  0  0  0  0  0  0  0  0
   -1.7450   -0.8470    0.1940 C   0  0  1  0  0  0  0  0  0  0  0  0
   -2.9150    0.0080   -0.1230 C   0  0  0  0  0  0  0  0  0  0  0  0
   -3.7820    0.3790    1.0440 C   0  0  0  0  0  0  0  0  0  0  0  0
   -3.0450    0.5050    2.1910 O   0  0  0  0  0  0  0  0  0  0  0  0
   -3.2790    1.7060    2.7970 C   0  0  0  0  0  0  0  0  0  0  0  0
   -2.0570    2.6050    2.7080 C   0  0  0  0  0  0  0  0  0  0  0  0
   -1.9960    3.3160    1.3850 C   0  0  0  0  0  0  0  0  0  0  0  0
   -0.6430    3.7270    1.1480 O   0  0  0  0  0  0  0  0  0  0  0  0
   -1.3730   -1.5960   -1.0670 C   0  0  0  0  0  0  0  0  0  0  0  0
   -1.4440   -3.0600   -0.6850 C   0  0  0  0  0  0  0  0  0  0  0  0
   -2.4530   -2.9840    0.4380 C   0  0  2  0  0  0  0  0  0  0  0  0
   -2.1120   -4.1320    1.3990 C   0  0  0  0  0  0  0  0  0  0  0  0
   -2.9480   -5.2980    0.9220 C   0  0  0  0  0  0  0  0  0  0  0  0
   -4.1220   -4.7190    0.2000 C   0  0  0  0  0  0  0  0  0  0  0  0
   -3.8520   -3.2450   -0.0070 C   0  0  0  0  0  0  0  0  0  0  0  0
   -2.2400   -1.8210    1.1010 O   0  0  0  0  0  0  0  0  0  0  0  0
  1  2  2  0
  2  3  1  0
  3  4  2  0
  3  8  1  0
  4  5  1  0
  5  6  2  0
  6  7  1  0
  6 30  1  0
  7  8  2  0
  7  9  1  0
  9 10  1  0
 10 11  1  6
 10 22  1  0
 11 12  1  0
 12 13  2  0
 12 14  1  0
 14 15  2  0
 14 21  1  0
 15 16  1  0
 16 17  2  0
 17 18  1  0
 17 21  1  0
 18 19  1  0
 19 20  1  0
 23 22  1  1
 23 24  1  0
 23 31  1  0
 23 38  1  0
 24 25  1  0
 25 26  1  0
 26 27  1  0
 27 28  1  0
 28 29  1  0
 29 30  1  0
 31 32  1  0
 33 32  1  6
 33 34  1  0
 33 37  1  0
 33 38  1  0
 34 35  1  0
 35 36  1  0
 36 37  1  0
M  END
