
     RDKit          3D

 15 16  0  0  0  0  0  0  0  0999 V2000
    4.9080    0.2390   -0.7190 C   0  0  0  0  0  0  0  0  0  0  0  0
    4.2390   -0.1580    0.6100 C   0  0  1  0  0  0  0  0  0  0  0  0
    4.3640    0.9650    1.4290 O   0  0  0  0  0  0  0  0  0  0  0  0
    2.8220   -0.3770    0.3120 C   0  0  0  0  0  0  0  0  0  0  0  0
    2.1580   -1.2480   -0.4440 C   0  0  0  0  0  0  0  0  0  0  0  0
    0.8240   -1.1980   -0.5650 C   0  0  0  0  0  0  0  0  0  0  0  0
    0.1640   -0.2180    0.1120 C   0  0  0  0  0  0  0  0  0  0  0  0
   -1.2580    0.1630    0.1620 C   0  0  1  0  0  0  0  0  0  0  0  0
   -1.3520    1.4470    0.7620 O   0  0  0  0  0  0  0  0  0  0  0  0
   -1.7310    0.3330   -1.2780 C   0  0  0  0  0  0  0  0  0  0  0  0
   -3.1790    0.6600   -1.3630 C   0  0  0  0  0  0  0  0  0  0  0  0
   -3.8670    0.6860   -0.0100 C   0  0  0  0  0  0  0  0  0  0  0  0
   -3.5620   -0.5940    0.7230 C   0  0  0  0  0  0  0  0  0  0  0  0
   -2.0620   -0.8060    0.9310 C   0  0  0  0  0  0  0  0  0  0  0  0
    1.4790    0.6930    0.9840 S   0  0  0  0  0  0  0  0  0  0  0  0
  2  1  1  6
  2  3  1  0
  2  4  1  0
  4  5  2  0
  4 15  1  0
  5  6  1  0
  6  7  2  0
  7  8  1  0
  7 15  1  0
  8  9  1  1
  8 10  1  0
  8 14  1  0
 10 11  1  0
 11 12  1  0
 12 13  1  0
 13 14  1  0
M  END
