
     RDKit          3D

 15 15  0  0  0  0  0  0  0  0999 V2000
   -4.2380    0.3550   -2.4040 C   0  0  0  0  0  0  0  0  0  0  0  0
   -4.6750   -0.2730   -1.1140 C   0  0  0  0  0  0  0  0  0  0  0  0
   -6.0100   -0.5720   -0.9380 O   0  0  0  0  0  0  0  0  0  0  0  0
   -3.7760   -0.5150   -0.2060 C   0  0  0  0  0  0  0  0  0  0  0  0
   -2.3840   -0.2030   -0.3910 C   0  0  0  0  0  0  0  0  0  0  0  0
   -1.4870   -0.4690    0.5730 C   0  0  0  0  0  0  0  0  0  0  0  0
   -1.9340   -1.0510    1.7520 O   0  0  0  0  0  0  0  0  0  0  0  0
   -0.0950   -0.1640    0.4050 C   0  0  0  0  0  0  0  0  0  0  0  0
    0.7670   -0.4300    1.3560 C   0  0  0  0  0  0  0  0  0  0  0  0
    2.1950   -0.1360    1.2240 C   0  0  0  0  0  0  0  0  0  0  0  0
    3.2500   -0.3280    2.0800 C   0  0  0  0  0  0  0  0  0  0  0  0
    4.4690    0.0570    1.6580 C   0  0  0  0  0  0  0  0  0  0  0  0
    4.6230    0.6020    0.4500 C   0  0  0  0  0  0  0  0  0  0  0  0
    5.8190    1.1120   -0.2700 C   0  0  0  0  0  0  0  0  0  0  0  0
    3.0010    0.6140   -0.2030 S   0  0  0  0  0  0  0  0  0  0  0  0
  1  2  1  0
  2  3  1  0
  2  4  2  3
  4  5  1  0
  5  6  2  3
  6  7  1  0
  6  8  1  0
  8  9  2  3
  9 10  1  0
 10 11  2  0
 10 15  1  0
 11 12  1  0
 12 13  2  0
 13 14  1  0
 13 15  1  0
M  END
