
     RDKit          3D

 15 16  0  0  0  0  0  0  0  0999 V2000
    2.7300    1.9790   -1.0810 O   0  0  0  0  0  0  0  0  0  0  0  0
    2.5480    0.8290   -0.6240 C   0  0  0  0  0  0  0  0  0  0  0  0
    3.6890   -0.0770   -0.4260 C   0  0  0  0  0  0  0  0  0  0  0  0
    5.0020    0.5520   -0.8310 C   0  0  0  0  0  0  0  0  0  0  0  0
    6.0260   -0.3630   -0.6160 O   0  0  0  0  0  0  0  0  0  0  0  0
    1.2110    0.3960   -0.2910 C   0  0  0  0  0  0  0  0  0  0  0  0
    0.7490   -0.7860    0.2140 C   0  0  0  0  0  0  0  0  0  0  0  0
   -0.5650   -0.9240    0.4330 C   0  0  0  0  0  0  0  0  0  0  0  0
   -1.3880    0.1270    0.1400 C   0  0  0  0  0  0  0  0  0  0  0  0
   -2.8400    0.2340    0.2840 C   0  0  0  0  0  0  0  0  0  0  0  0
   -3.5970   -0.7400    0.7480 C   0  0  0  0  0  0  0  0  0  0  0  0
   -4.9920   -0.2950    0.7570 C   0  0  0  0  0  0  0  0  0  0  0  0
   -4.9570    1.0850    0.2310 C   0  0  0  0  0  0  0  0  0  0  0  0
   -3.6910    1.3590   -0.0330 C   0  0  0  0  0  0  0  0  0  0  0  0
   -0.2870    1.3460   -0.4590 S   0  0  0  0  0  0  0  0  0  0  0  0
  1  2  2  0
  2  3  1  0
  2  6  1  0
  3  4  1  0
  4  5  1  0
  6  7  2  0
  6 15  1  0
  7  8  1  0
  8  9  2  0
  9 10  1  0
  9 15  1  0
 10 11  2  0
 10 14  1  0
 11 12  1  0
 12 13  1  0
 13 14  2  0
M  END
