
     RDKit          3D

 15 16  0  0  0  0  0  0  0  0999 V2000
   -4.0550    1.7630    0.0700 O   0  0  0  0  0  0  0  0  0  0  0  0
   -2.9770    0.9010   -0.0750 C   0  0  0  0  0  0  0  0  0  0  0  0
   -1.7630    1.3710   -0.5260 C   0  0  0  0  0  0  0  0  0  0  0  0
   -0.6950    0.4750   -0.6610 C   0  0  0  0  0  0  0  0  0  0  0  0
   -0.8440   -0.8420   -0.3520 C   0  0  0  0  0  0  0  0  0  0  0  0
    0.2430   -1.7740   -0.3980 C   0  0  0  0  0  0  0  0  0  0  0  0
    1.5020   -1.7840   -0.3470 C   0  0  0  0  0  0  0  0  0  0  0  0
    2.5250   -0.7740   -0.1890 C   0  0  0  0  0  0  0  0  0  0  0  0
    2.5790    0.5040    0.2380 C   0  0  0  0  0  0  0  0  0  0  0  0
    3.7180    1.1900    0.1850 C   0  0  0  0  0  0  0  0  0  0  0  0
    4.8280    0.5660   -0.3080 C   0  0  0  0  0  0  0  0  0  0  0  0
    4.2220   -1.0090   -0.6950 S   0  0  0  0  0  0  0  0  0  0  0  0
   -2.1200   -1.2820    0.1100 C   0  0  0  0  0  0  0  0  0  0  0  0
   -3.1690   -0.4130    0.2440 C   0  0  0  0  0  0  0  0  0  0  0  0
   -4.4050   -0.8560    0.6950 O   0  0  0  0  0  0  0  0  0  0  0  0
  1  2  1  0
  2  3  2  0
  2 14  1  0
  3  4  1  0
  4  5  2  0
  5  6  1  0
  5 13  1  0
  6  7  2  3
  7  8  1  0
  8  9  2  0
  8 12  1  0
  9 10  1  0
 10 11  2  0
 11 12  1  0
 13 14  2  0
 14 15  1  0
M  END
