
     RDKit          3D

 15 16  0  0  0  0  0  0  0  0999 V2000
    4.9370   -0.6720    0.7000 O   0  0  0  0  0  0  0  0  0  0  0  0
    3.5980   -0.8030    0.3690 C   0  0  0  0  0  0  0  0  0  0  0  0
    3.0060    0.5790    0.0600 C   0  0  0  0  0  0  0  0  0  0  0  0
    1.5750    0.4290   -0.2930 C   0  0  0  0  0  0  0  0  0  0  0  0
    1.1950    0.5210   -1.6230 C   0  0  0  0  0  0  0  0  0  0  0  0
   -0.1290    0.3850   -1.9800 C   0  0  0  0  0  0  0  0  0  0  0  0
   -1.0600    0.1580   -1.0010 C   0  0  0  0  0  0  0  0  0  0  0  0
   -0.7030    0.0640    0.3120 C   0  0  0  0  0  0  0  0  0  0  0  0
    0.6390    0.2020    0.6800 C   0  0  0  0  0  0  0  0  0  0  0  0
    1.0210    0.1070    2.0370 O   0  0  0  0  0  0  0  0  0  0  0  0
   -1.6770   -0.1730    1.3830 C   0  0  0  0  0  0  0  0  0  0  0  0
   -3.0700   -0.3270    0.9280 C   0  0  0  0  0  0  0  0  0  0  0  0
   -3.3740   -0.2140   -0.4860 C   0  0  0  0  0  0  0  0  0  0  0  0
   -5.1300   -0.4030   -0.9480 S   0  0  0  0  0  0  0  0  0  0  0  0
   -2.4770    0.0080   -1.4040 C   0  0  0  0  0  0  0  0  0  0  0  0
  1  2  1  0
  2  3  1  0
  3  4  1  0
  4  5  2  0
  4  9  1  0
  5  6  1  0
  6  7  2  0
  7  8  1  0
  7 15  1  0
  8  9  2  0
  8 11  1  0
  9 10  1  0
 11 12  1  0
 12 13  1  0
 13 14  1  0
 13 15  2  0
M  END
