
     RDKit          3D

 11 11  0  0  0  0  0  0  0  0999 V2000
    4.1850    0.1120   -0.3160 C   0  0  0  0  0  0  0  0  0  0  0  0
    2.6860    0.0430   -0.4790 C   0  0  0  0  0  0  0  0  0  0  0  0
    1.8130    0.0260    1.1030 S   0  0  0  0  0  0  0  0  0  0  0  0
    0.0740   -0.0550    0.7630 C   0  0  0  0  0  0  0  0  0  0  0  0
   -0.6530    1.0520    0.6080 N   0  0  0  0  0  0  0  0  0  0  0  0
   -1.9880    0.9290    0.3470 C   0  0  0  0  0  0  0  0  0  0  0  0
   -2.8610    2.1060    0.1630 C   0  0  0  0  0  0  0  0  0  0  0  0
   -2.5270   -0.3000    0.2550 N   0  0  0  0  0  0  0  0  0  0  0  0
   -1.8000   -1.4070    0.4090 C   0  0  0  0  0  0  0  0  0  0  0  0
   -2.3970   -2.6820    0.3060 N   0  0  0  0  0  0  0  0  0  0  0  0
   -0.4890   -1.2600    0.6650 N   0  0  0  0  0  0  0  0  0  0  0  0
  1  2  1  0
  2  3  1  0
  3  4  1  0
  4  5  2  0
  4 11  1  0
  5  6  1  0
  6  7  1  0
  6  8  2  0
  8  9  1  0
  9 10  1  0
  9 11  2  0
M  END
