
     RDKit          3D

 13 14  0  0  0  0  0  0  0  0999 V2000
    4.1630    0.3460   -0.5200 N   0  0  0  0  0  0  0  0  0  0  0  0
    2.7510    0.1920   -0.4210 C   0  0  0  0  0  0  0  0  0  0  0  0
    2.0210   -0.4140   -1.4210 C   0  0  0  0  0  0  0  0  0  0  0  0
    0.6450   -0.5660   -1.3250 C   0  0  0  0  0  0  0  0  0  0  0  0
   -0.0510   -0.1140   -0.2230 C   0  0  0  0  0  0  0  0  0  0  0  0
   -1.5000   -0.2750   -0.1260 C   0  0  0  0  0  0  0  0  0  0  0  0
   -2.4370   -0.0260   -1.1120 C   0  0  0  0  0  0  0  0  0  0  0  0
   -3.6900   -0.3120   -0.5930 C   0  0  0  0  0  0  0  0  0  0  0  0
   -3.5430   -0.7260    0.6770 N   0  0  0  0  0  0  0  0  0  0  0  0
   -2.2320   -0.7080    0.9670 C   0  0  0  0  0  0  0  0  0  0  0  0
    0.6770    0.4930    0.7790 C   0  0  0  0  0  0  0  0  0  0  0  0
   -0.0250    0.9680    1.9300 N   0  0  0  0  0  0  0  0  0  0  0  0
    2.0570    0.6440    0.6820 C   0  0  0  0  0  0  0  0  0  0  0  0
  1  2  1  0
  2  3  2  0
  2 13  1  0
  3  4  1  0
  4  5  2  0
  5  6  1  0
  5 11  1  0
  6  7  1  0
  6 10  2  0
  7  8  2  0
  8  9  1  0
  9 10  1  0
 11 12  1  0
 11 13  2  0
M  END
