
     RDKit          3D

 20 20  0  0  0  0  0  0  0  0999 V2000
    6.5100   -0.0060   -1.0780 N   0  0  0  0  0  0  0  0  0  0  0  0
    5.4950    0.1170   -0.1550 O   0  0  0  0  0  0  0  0  0  0  0  0
    4.2130   -0.3550   -0.3670 C   0  0  0  0  0  0  0  0  0  0  0  0
    3.9630   -0.9210   -1.4450 O   0  0  0  0  0  0  0  0  0  0  0  0
    3.2230   -0.1480    0.7220 C   0  0  2  0  0  0  0  0  0  0  0  0
    3.7920   -0.7280    1.9940 C   0  0  0  0  0  0  0  0  0  0  0  0
    3.8850   -2.1140    1.8180 O   0  0  0  0  0  0  0  0  0  0  0  0
    1.9250   -0.6680    0.4160 N   0  0  0  0  0  0  0  0  0  0  0  0
    0.7560    0.1360    0.3090 C   0  0  0  0  0  0  0  0  0  0  0  0
    0.9110    1.3850    0.5040 O   0  0  0  0  0  0  0  0  0  0  0  0
   -0.5870   -0.4420   -0.0130 C   0  0  0  0  0  0  0  0  0  0  0  0
   -1.5770    0.6760   -0.0450 C   0  0  1  0  0  0  0  0  0  0  0  0
   -1.1760    1.6140   -1.0600 N   0  0  0  0  0  0  0  0  0  0  0  0
   -3.0040    0.2500   -0.1790 C   0  0  2  0  0  0  0  0  0  0  0  0
   -3.3260   -0.5250   -1.4100 C   0  0  0  0  0  0  0  0  0  0  0  0
   -2.5940   -1.6880   -1.4740 O   0  0  0  0  0  0  0  0  0  0  0  0
   -3.9710    1.3970   -0.0520 C   0  0  0  0  0  0  0  0  0  0  0  0
   -4.9990    0.9810    0.9810 C   0  0  0  0  0  0  0  0  0  0  0  0
   -4.7720   -0.3560    1.2160 O   0  0  0  0  0  0  0  0  0  0  0  0
   -3.4310   -0.6140    1.0150 C   0  0  0  0  0  0  0  0  0  0  0  0
  1  2  1  0
  2  3  1  0
  3  4  2  0
  3  5  1  0
  5  6  1  1
  5  8  1  0
  6  7  1  0
  8  9  1  0
  9 10  2  0
  9 11  1  0
 11 12  1  0
 12 13  1  6
 12 14  1  0
 14 15  1  6
 14 17  1  0
 14 20  1  0
 15 16  1  0
 17 18  1  0
 18 19  1  0
 19 20  1  0
M  CHG  2   1   1  13   1
M  END
