
     RDKit          3D

 13 14  0  0  0  0  0  0  0  0999 V2000
    4.1600   -0.0970   -0.1280 N   0  0  0  0  0  0  0  0  0  0  0  0
    2.7550   -0.0250   -0.0220 C   0  0  0  0  0  0  0  0  0  0  0  0
    2.1400    1.2010    0.0400 C   0  0  0  0  0  0  0  0  0  0  0  0
    0.7740    1.3370    0.1440 C   0  0  0  0  0  0  0  0  0  0  0  0
   -0.0060    0.1710    0.1870 C   0  0  0  0  0  0  0  0  0  0  0  0
   -1.4650    0.3360    0.2990 C   0  0  0  0  0  0  0  0  0  0  0  0
   -2.4670   -0.5960    0.3620 C   0  0  0  0  0  0  0  0  0  0  0  0
   -3.7210    0.0270    0.4640 C   0  0  0  0  0  0  0  0  0  0  0  0
   -3.4380    1.3660    0.4590 C   0  0  0  0  0  0  0  0  0  0  0  0
   -2.1110    1.5430    0.3620 N   0  0  0  0  0  0  0  0  0  0  0  0
    0.5680   -1.0480    0.1290 C   0  0  0  0  0  0  0  0  0  0  0  0
   -0.1860   -2.2500    0.1710 N   0  0  0  0  0  0  0  0  0  0  0  0
    1.9760   -1.1520    0.0230 C   0  0  0  0  0  0  0  0  0  0  0  0
  1  2  1  0
  2  3  2  0
  2 13  1  0
  3  4  1  0
  4  5  2  0
  5  6  1  0
  5 11  1  0
  6  7  2  0
  6 10  1  0
  7  8  1  0
  8  9  2  0
  9 10  1  0
 11 12  1  0
 11 13  2  0
M  END
