
     RDKit          3D

 13 14  0  0  0  0  0  0  0  0999 V2000
   -3.1580   -0.7020    1.9210 N   0  0  0  0  0  0  0  0  0  0  0  0
   -2.3090   -0.4010    0.8200 C   0  0  0  0  0  0  0  0  0  0  0  0
   -2.8170   -0.2070   -0.4510 C   0  0  0  0  0  0  0  0  0  0  0  0
   -1.9890    0.0850   -1.5160 C   0  0  0  0  0  0  0  0  0  0  0  0
   -0.6020    0.1960   -1.3470 C   0  0  0  0  0  0  0  0  0  0  0  0
    0.1570    0.4980   -2.5010 N   0  0  0  0  0  0  0  0  0  0  0  0
   -0.0860    0.0050   -0.0870 C   0  0  0  0  0  0  0  0  0  0  0  0
    1.3410    0.1090    0.1390 C   0  0  0  0  0  0  0  0  0  0  0  0
    1.9310   -0.0720    1.3820 C   0  0  0  0  0  0  0  0  0  0  0  0
    3.2960    0.0870    1.2890 C   0  0  0  0  0  0  0  0  0  0  0  0
    3.5470    0.3670   -0.0200 C   0  0  0  0  0  0  0  0  0  0  0  0
    2.3560    0.3730   -0.6820 N   0  0  0  0  0  0  0  0  0  0  0  0
   -0.9450   -0.2880    0.9650 C   0  0  0  0  0  0  0  0  0  0  0  0
  1  2  1  0
  2  3  2  0
  2 13  1  0
  3  4  1  0
  4  5  2  0
  5  6  1  0
  5  7  1  0
  7  8  1  0
  7 13  2  0
  8  9  2  0
  8 12  1  0
  9 10  1  0
 10 11  2  0
 11 12  1  0
M  END
