
     RDKit          3D

 19 19  0  0  0  0  0  0  0  0999 V2000
   -3.3070    1.4010    1.5040 N   0  0  0  0  0  0  0  0  0  0  0  0
   -3.6030    0.8180    0.2480 C   0  0  0  0  0  0  0  0  0  0  0  0
   -2.7280   -0.3120   -0.1960 C   0  0  2  0  0  0  0  0  0  0  0  0
   -3.2800   -0.7410   -1.5680 C   0  0  0  0  0  0  0  0  0  0  0  0
   -3.2370    0.2840   -2.4800 O   0  0  0  0  0  0  0  0  0  0  0  0
   -2.8650   -1.5370    0.6810 C   0  0  0  0  0  0  0  0  0  0  0  0
   -2.1160   -2.5560    0.1230 O   0  0  0  0  0  0  0  0  0  0  0  0
   -0.7750   -2.2760    0.0370 C   0  0  0  0  0  0  0  0  0  0  0  0
   -0.4220   -0.8630    0.4620 C   0  0  1  0  0  0  0  0  0  0  0  0
    0.9250   -0.6860    0.1600 O   0  0  0  0  0  0  0  0  0  0  0  0
    1.5920   -0.3080    1.3070 C   0  0  0  0  0  0  0  0  0  0  0  0
    3.0390   -0.0950    1.0850 C   0  0  0  0  0  0  0  0  0  0  0  0
    3.7440    0.2530    2.0670 O   0  0  0  0  0  0  0  0  0  0  0  0
    3.6870   -0.2560   -0.1600 N   0  0  0  0  0  0  0  0  0  0  0  0
    5.1060   -0.0420   -0.3540 C   0  0  0  0  0  0  0  0  0  0  0  0
    5.5200    1.3740   -0.0130 C   0  0  0  0  0  0  0  0  0  0  0  0
    6.9090    1.4400   -0.2440 O   0  0  0  0  0  0  0  0  0  0  0  0
   -1.2970    0.0490   -0.4090 C   0  0  2  0  0  0  0  0  0  0  0  0
   -0.9450    1.4060   -0.1480 N   0  0  0  0  0  0  0  0  0  0  0  0
  1  2  1  0
  3  2  1  1
  3  4  1  0
  3  6  1  0
  3 18  1  0
  4  5  1  0
  6  7  1  0
  7  8  1  0
  8  9  1  0
  9 10  1  6
  9 18  1  0
 10 11  1  0
 11 12  1  0
 12 13  2  0
 12 14  1  0
 14 15  1  0
 15 16  1  0
 16 17  1  0
 18 19  1  1
M  CHG  2   1   1  19   1
M  END
