
     RDKit          3D

 19 19  0  0  0  0  0  0  0  0999 V2000
    3.8640   -1.3900    0.4340 N   0  0  0  0  0  0  0  0  0  0  0  0
    4.4690   -0.1370    0.1290 C   0  0  0  0  0  0  0  0  0  0  0  0
    5.5770    0.1970    0.6650 O   0  0  0  0  0  0  0  0  0  0  0  0
    3.8070    0.7770   -0.8140 C   0  0  2  0  0  0  0  0  0  0  0  0
    4.5920    1.9190   -0.9500 O   0  0  0  0  0  0  0  0  0  0  0  0
    2.4770    1.2220   -0.2510 C   0  0  0  0  0  0  0  0  0  0  0  0
    1.5510    0.1140   -0.0590 N   0  0  0  0  0  0  0  0  0  0  0  0
    0.2570    0.6020   -0.3980 C   0  0  0  0  0  0  0  0  0  0  0  0
   -0.8500   -0.3950   -0.3240 C   0  0  2  0  0  0  0  0  0  0  0  0
   -2.1890    0.2290   -0.6550 C   0  0  0  0  0  0  0  0  0  0  0  0
   -2.5810    1.3480    0.2620 C   0  0  2  0  0  0  0  0  0  0  0  0
   -2.6910    0.9620    1.6410 N   0  0  0  0  0  0  0  0  0  0  0  0
   -3.9600    1.8070   -0.1860 C   0  0  0  0  0  0  0  0  0  0  0  0
   -4.8960    0.7880   -0.0560 O   0  0  0  0  0  0  0  0  0  0  0  0
   -0.9330   -0.8730    0.9660 O   0  0  0  0  0  0  0  0  0  0  0  0
   -0.3480   -2.0910    1.0740 C   0  0  0  0  0  0  0  0  0  0  0  0
   -0.0910   -2.6490   -0.2860 C   0  0  0  0  0  0  0  0  0  0  0  0
   -0.6810   -1.5960   -1.1850 C   0  0  2  0  0  0  0  0  0  0  0  0
    0.0560   -1.3800   -2.3350 O   0  0  0  0  0  0  0  0  0  0  0  0
  1  2  1  0
  2  3  2  0
  2  4  1  0
  4  5  1  1
  4  6  1  0
  6  7  1  0
  7  8  1  0
  9  8  1  1
  9 10  1  0
  9 15  1  0
  9 18  1  0
 10 11  1  0
 11 12  1  1
 11 13  1  0
 13 14  1  0
 15 16  1  0
 16 17  1  0
 17 18  1  0
 18 19  1  6
M  CHG  2   7   1  12   1
M  END
