
     RDKit          3D

 13 14  0  0  0  0  0  0  0  0999 V2000
   -2.4940   -1.9700   -0.7730 C   0  0  0  0  0  0  0  0  0  0  0  0
   -1.9380   -0.8940   -0.2420 C   0  0  0  0  0  0  0  0  0  0  0  0
   -2.8310    0.0750    0.4230 C   0  0  0  0  0  0  0  0  0  0  0  0
   -2.1460    1.2530    0.9940 C   0  0  0  0  0  0  0  0  0  0  0  0
   -0.8390    1.3760    0.8880 C   0  0  0  0  0  0  0  0  0  0  0  0
    0.0360    0.4240    0.2350 C   0  0  0  0  0  0  0  0  0  0  0  0
   -0.5040   -0.7030   -0.3270 C   0  0  0  0  0  0  0  0  0  0  0  0
    0.3080   -1.5940   -0.9370 N   0  0  0  0  0  0  0  0  0  0  0  0
    1.6430   -1.3980   -1.0070 C   0  0  0  0  0  0  0  0  0  0  0  0
    2.2440   -0.2840   -0.4600 C   0  0  0  0  0  0  0  0  0  0  0  0
    3.6520   -0.1580   -0.5780 N   0  0  0  0  0  0  0  0  0  0  0  0
    1.4190    0.6210    0.1600 C   0  0  0  0  0  0  0  0  0  0  0  0
    1.9770    1.7700    0.7310 N   0  0  0  0  0  0  0  0  0  0  0  0
  1  2  2  0
  2  3  1  0
  2  7  1  0
  3  4  1  0
  4  5  2  0
  5  6  1  0
  6  7  2  0
  6 12  1  0
  7  8  1  0
  8  9  2  0
  9 10  1  0
 10 11  1  0
 10 12  2  0
 12 13  1  0
M  END
