
     RDKit          3D

 18 19  0  0  0  0  0  0  0  0999 V2000
    4.9450   -0.8370   -0.9600 C   0  0  0  0  0  0  0  0  0  0  0  0
    3.6910   -0.3760   -0.3080 C   0  0  0  0  0  0  0  0  0  0  0  0
    3.0800   -1.0930    0.7070 C   0  0  0  0  0  0  0  0  0  0  0  0
    1.9150   -0.6510    1.3010 C   0  0  0  0  0  0  0  0  0  0  0  0
    1.3110    0.5250    0.9070 C   0  0  0  0  0  0  0  0  0  0  0  0
   -0.1590    1.0490    1.6830 S   0  0  2  0  0  0  0  0  0  0  0  0
   -0.2880    2.5360    1.7110 O   0  0  0  0  0  0  0  0  0  0  0  0
   -0.2490    0.5560    3.0960 O   0  0  0  0  0  0  0  0  0  0  0  0
   -1.4990    0.3680    0.7860 C   0  0  0  0  0  0  0  0  0  0  0  0
   -2.4360    1.1920    0.1990 C   0  0  0  0  0  0  0  0  0  0  0  0
   -3.5110    0.6860   -0.5200 C   0  0  0  0  0  0  0  0  0  0  0  0
   -4.5190    1.5900   -1.1510 C   0  0  0  0  0  0  0  0  0  0  0  0
   -3.5840   -0.6550   -0.6100 N   0  0  0  0  0  0  0  0  0  0  0  0
   -2.6990   -1.4810   -0.0570 C   0  0  0  0  0  0  0  0  0  0  0  0
   -2.7640   -2.9000   -0.1440 N   0  0  0  0  0  0  0  0  0  0  0  0
   -1.6600   -0.9530    0.6390 N   0  0  0  0  0  0  0  0  0  0  0  0
    1.9290    1.2300   -0.1050 C   0  0  0  0  0  0  0  0  0  0  0  0
    3.0990    0.8020   -0.7130 C   0  0  0  0  0  0  0  0  0  0  0  0
  1  2  1  0
  2  3  2  0
  2 18  1  0
  3  4  1  0
  4  5  2  0
  6  5  1  6
  5 17  1  0
  6  7  2  0
  6  8  2  0
  6  9  1  0
  9 10  2  0
  9 16  1  0
 10 11  1  0
 11 12  1  0
 11 13  2  0
 13 14  1  0
 14 15  1  0
 14 16  2  0
 17 18  2  0
M  END
