
     RDKit          3D

 13 14  0  0  0  0  0  0  0  0999 V2000
    3.2860    1.6720    0.9370 N   0  0  0  0  0  0  0  0  0  0  0  0
    2.3630    0.7100    0.4850 C   0  0  0  0  0  0  0  0  0  0  0  0
    2.8220   -0.5330    0.0640 C   0  0  0  0  0  0  0  0  0  0  0  0
    1.9340   -1.4880   -0.3820 C   0  0  0  0  0  0  0  0  0  0  0  0
    0.5760   -1.2080   -0.4120 C   0  0  0  0  0  0  0  0  0  0  0  0
   -0.3210   -2.2150   -0.8780 N   0  0  0  0  0  0  0  0  0  0  0  0
    0.0790    0.0120   -0.0030 C   0  0  0  0  0  0  0  0  0  0  0  0
   -1.3200    0.2590   -0.0490 N   0  0  0  0  0  0  0  0  0  0  0  0
   -2.1400    0.1910    0.9940 C   0  0  0  0  0  0  0  0  0  0  0  0
   -3.4420    0.4890    0.6110 C   0  0  0  0  0  0  0  0  0  0  0  0
   -3.3890    0.7490   -0.7370 C   0  0  0  0  0  0  0  0  0  0  0  0
   -2.0750    0.5990   -1.1080 C   0  0  0  0  0  0  0  0  0  0  0  0
    0.9940    0.9440    0.4370 C   0  0  0  0  0  0  0  0  0  0  0  0
  1  2  1  0
  2  3  2  0
  2 13  1  0
  3  4  1  0
  4  5  2  0
  5  6  1  0
  5  7  1  0
  7  8  1  0
  7 13  2  0
  8  9  1  0
  8 12  1  0
  9 10  2  0
 10 11  1  0
 11 12  2  0
M  END
