
     RDKit          3D

 13 14  0  0  0  0  0  0  0  0999 V2000
    3.1890   -0.1080    0.6570 C   0  0  0  0  0  0  0  0  0  0  0  0
    2.5770   -0.6120   -0.3930 C   0  0  0  0  0  0  0  0  0  0  0  0
    1.1860   -0.9000   -0.3680 N   0  0  0  0  0  0  0  0  0  0  0  0
    0.6240   -2.1120   -0.6090 C   0  0  0  0  0  0  0  0  0  0  0  0
   -0.7350   -2.0250   -0.5200 C   0  0  0  0  0  0  0  0  0  0  0  0
   -1.0330   -0.7000   -0.2110 C   0  0  0  0  0  0  0  0  0  0  0  0
   -2.2550   -0.0520   -0.0140 C   0  0  0  0  0  0  0  0  0  0  0  0
   -3.4650   -0.8110   -0.1180 N   0  0  0  0  0  0  0  0  0  0  0  0
   -2.2340    1.2750    0.2680 C   0  0  0  0  0  0  0  0  0  0  0  0
   -1.0440    1.9580    0.3550 C   0  0  0  0  0  0  0  0  0  0  0  0
    0.1640    1.3250    0.1630 C   0  0  0  0  0  0  0  0  0  0  0  0
    1.3960    2.0290    0.2240 N   0  0  0  0  0  0  0  0  0  0  0  0
    0.1750   -0.0460   -0.1280 C   0  0  0  0  0  0  0  0  0  0  0  0
  1  2  2  0
  2  3  1  0
  3  4  1  0
  3 13  1  0
  4  5  2  0
  5  6  1  0
  6  7  2  0
  6 13  1  0
  7  8  1  0
  7  9  1  0
  9 10  2  0
 10 11  1  0
 11 12  1  0
 11 13  2  0
M  END
