
     RDKit          3D

 19 20  0  0  0  0  0  0  0  0999 V2000
   -3.6920    0.0280   -1.8910 C   0  0  0  0  0  0  0  0  0  0  0  0
   -4.0880   -0.0620   -0.4410 C   0  0  0  0  0  0  0  0  0  0  0  0
   -5.3030    0.2210   -0.0190 C   0  0  0  0  0  0  0  0  0  0  0  0
   -5.3000    0.0170    1.4440 C   0  0  0  0  0  0  0  0  0  0  0  0
   -3.9300   -0.4110    1.7500 C   0  0  0  0  0  0  0  0  0  0  0  0
   -3.2310   -0.4540    0.6420 C   0  0  0  0  0  0  0  0  0  0  0  0
   -1.8400   -0.8390    0.5890 N   0  0  0  0  0  0  0  0  0  0  0  0
   -0.8910    0.0850    0.0930 C   0  0  0  0  0  0  0  0  0  0  0  0
   -1.2970    1.2090   -0.2830 O   0  0  0  0  0  0  0  0  0  0  0  0
    0.5350   -0.2410    0.0130 C   0  0  0  0  0  0  0  0  0  0  0  0
    1.3700    0.8820   -0.5430 C   0  0  0  0  0  0  0  0  0  0  0  0
    2.7700    0.4480   -0.5780 N   0  0  0  0  0  0  0  0  0  0  0  0
    3.3970   -0.2100   -1.6720 C   0  0  0  0  0  0  0  0  0  0  0  0
    4.6670   -0.4760   -1.4090 C   0  0  0  0  0  0  0  0  0  0  0  0
    4.9750    0.0140   -0.0570 C   0  0  0  0  0  0  0  0  0  0  0  0
    6.1480   -0.0780    0.5430 C   0  0  0  0  0  0  0  0  0  0  0  0
    6.3330    0.4160    1.8210 O   0  0  0  0  0  0  0  0  0  0  0  0
    3.7420    0.6010    0.4510 C   0  0  0  0  0  0  0  0  0  0  0  0
    3.5930    1.1310    1.5770 O   0  0  0  0  0  0  0  0  0  0  0  0
  1  2  1  0
  2  3  2  0
  2  6  1  0
  3  4  1  0
  4  5  1  0
  5  6  2  0
  6  7  1  0
  7  8  1  0
  8  9  2  0
  8 10  1  0
 10 11  1  0
 11 12  1  0
 12 13  1  0
 12 18  1  0
 13 14  2  0
 14 15  1  0
 15 16  2  3
 15 18  1  0
 16 17  1  0
 18 19  2  0
M  END
