
     RDKit          3D

 19 20  0  0  0  0  0  0  0  0999 V2000
   -3.2400   -1.7690   -0.5070 C   0  0  0  0  0  0  0  0  0  0  0  0
   -3.5180   -0.6720    0.1610 C   0  0  0  0  0  0  0  0  0  0  0  0
   -4.5220   -0.6910    1.1480 O   0  0  0  0  0  0  0  0  0  0  0  0
   -4.8580    0.4340    1.8790 C   0  0  0  0  0  0  0  0  0  0  0  0
   -4.2160    1.5660    1.6450 C   0  0  0  0  0  0  0  0  0  0  0  0
   -3.1840    1.6230    0.6460 C   0  0  0  0  0  0  0  0  0  0  0  0
   -2.8100    0.5700   -0.0970 C   0  0  0  0  0  0  0  0  0  0  0  0
   -1.7850    0.7070   -1.0700 N   0  0  0  0  0  0  0  0  0  0  0  0
   -0.5370    0.0350   -1.0300 C   0  0  0  0  0  0  0  0  0  0  0  0
   -0.2920   -0.7420   -0.0690 O   0  0  0  0  0  0  0  0  0  0  0  0
    0.4970    0.2190   -2.0920 C   0  0  0  0  0  0  0  0  0  0  0  0
    1.6730   -0.5420   -1.8530 N   0  0  0  0  0  0  0  0  0  0  0  0
    2.5080   -0.3350   -0.7120 C   0  0  0  0  0  0  0  0  0  0  0  0
    2.2800    0.6680    0.2050 C   0  0  0  0  0  0  0  0  0  0  0  0
    3.0870    0.8710    1.3190 C   0  0  0  0  0  0  0  0  0  0  0  0
    4.1660    0.0520    1.5430 C   0  0  0  0  0  0  0  0  0  0  0  0
    4.4150   -0.9650    0.6340 C   0  0  0  0  0  0  0  0  0  0  0  0
    5.4920   -1.8230    0.8100 O   0  0  0  0  0  0  0  0  0  0  0  0
    3.6010   -1.1500   -0.4680 C   0  0  0  0  0  0  0  0  0  0  0  0
  1  2  2  0
  2  3  1  0
  2  7  1  0
  3  4  1  0
  4  5  2  0
  5  6  1  0
  6  7  2  0
  7  8  1  0
  8  9  1  0
  9 10  2  0
  9 11  1  0
 11 12  1  0
 12 13  1  0
 13 14  2  0
 13 19  1  0
 14 15  1  0
 15 16  2  0
 16 17  1  0
 17 18  1  0
 17 19  2  0
M  END
