
     RDKit          3D

 23 26  0  0  0  0  0  0  0  0999 V2000
    3.5190   -3.1750    0.8140 C   0  0  0  0  0  0  0  0  0  0  0  0
    2.5850   -2.2390    0.8110 C   0  0  0  0  0  0  0  0  0  0  0  0
    2.9550   -0.8840    0.4820 N   0  0  0  0  0  0  0  0  0  0  0  0
    1.9400    0.1350    0.4790 C   0  0  1  0  0  0  0  0  0  0  0  0
    2.5550    1.4690    0.1130 C   0  0  0  0  0  0  0  0  0  0  0  0
    1.4600    2.5460    0.0740 C   0  0  0  0  0  0  0  0  0  0  0  0
    0.7480    2.3500   -1.2440 C   0  0  0  0  0  0  0  0  0  0  0  0
   -0.5580    1.6760   -0.9930 C   0  0  0  0  0  0  0  0  0  0  0  0
   -0.4700    0.4210   -0.1560 C   0  0  1  0  0  0  0  0  0  0  0  0
   -1.5210   -0.4890   -0.5430 N   0  0  0  0  0  0  0  0  0  0  0  0
   -2.7120   -0.3550    0.2670 C   0  0  1  0  0  0  0  0  0  0  0  0
   -3.5330    0.8460   -0.0610 C   0  0  0  0  0  0  0  0  0  0  0  0
   -5.0080    0.6500    0.2450 C   0  0  0  0  0  0  0  0  0  0  0  0
   -5.6230   -0.4530   -0.5630 C   0  0  0  0  0  0  0  0  0  0  0  0
   -4.5070   -1.2900   -1.1340 C   0  0  0  0  0  0  0  0  0  0  0  0
   -3.5550   -1.5930    0.0220 C   0  0  0  0  0  0  0  0  0  0  0  0
    0.8520   -0.2630   -0.4730 C   0  0  0  0  0  0  0  0  0  0  0  0
    4.3180   -0.6400    0.1770 C   0  0  0  0  0  0  0  0  0  0  0  0
    4.9560    0.4120   -0.1420 N   0  0  0  0  0  0  0  0  0  0  0  0
    6.3520    0.1930   -0.3650 C   0  0  0  0  0  0  0  0  0  0  0  0
    6.5450   -1.1900   -0.1380 O   0  0  0  0  0  0  0  0  0  0  0  0
    5.2850   -1.7140    0.2000 C   0  0  0  0  0  0  0  0  0  0  0  0
    4.8750   -2.9000    0.5050 N   0  0  0  0  0  0  0  0  0  0  0  0
  1  2  2  0
  1 23  1  0
  2  3  1  0
  4  3  1  6
  3 18  1  0
  4  5  1  0
  4 17  1  0
  5  6  1  0
  6  7  1  0
  7  8  1  0
  8  9  1  0
  9 10  1  6
  9 17  1  0
 11 10  1  6
 11 12  1  0
 11 16  1  0
 12 13  1  0
 13 14  1  0
 14 15  1  0
 15 16  1  0
 18 19  2  0
 18 22  1  0
 19 20  1  0
 20 21  1  0
 21 22  1  0
 22 23  2  0
M  CHG  1  10   1
M  END
