
     RDKit          3D

 23 25  0  0  0  0  0  0  0  0999 V2000
    6.7370   -1.4210   -0.2400 C   0  0  0  0  0  0  0  0  0  0  0  0
    5.6920   -0.6390   -0.1350 C   0  0  0  0  0  0  0  0  0  0  0  0
    4.3250   -1.0910   -0.0280 N   0  0  0  0  0  0  0  0  0  0  0  0
    3.5050   -0.1550    0.0680 C   0  0  0  0  0  0  0  0  0  0  0  0
    2.0550   -0.3100    0.1840 N   0  0  0  0  0  0  0  0  0  0  0  0
    1.5440   -1.6210    0.0060 C   0  0  0  0  0  0  0  0  0  0  0  0
    0.1230   -1.8620   -0.1020 C   0  0  0  0  0  0  0  0  0  0  0  0
   -0.2100   -3.1200   -0.1720 O   0  0  0  0  0  0  0  0  0  0  0  0
   -0.9280   -0.9660   -0.1430 N   0  0  0  0  0  0  0  0  0  0  0  0
   -0.9120    0.4720   -0.1700 C   0  0  0  0  0  0  0  0  0  0  0  0
   -2.2620    0.9680   -0.7160 C   0  0  0  0  0  0  0  0  0  0  0  0
   -3.4140    0.6180    0.2010 C   0  0  2  0  0  0  0  0  0  0  0  0
   -3.1480   -0.7390    0.8440 C   0  0  1  0  0  0  0  0  0  0  0  0
   -4.3940   -1.5060    1.0800 C   0  0  0  0  0  0  0  0  0  0  0  0
   -5.6030   -0.6600    1.3990 C   0  0  0  0  0  0  0  0  0  0  0  0
   -5.7340    0.5230    0.4780 C   0  0  0  0  0  0  0  0  0  0  0  0
   -4.6620    0.5450   -0.4960 N   0  0  1  0  0  0  0  0  0  0  0  0
   -4.8730    1.6640   -1.3940 C   0  0  0  0  0  0  0  0  0  0  0  0
   -2.2840   -1.5560   -0.1380 C   0  0  0  0  0  0  0  0  0  0  0  0
    4.1800    1.1460    0.0880 C   0  0  0  0  0  0  0  0  0  0  0  0
    5.6250    0.8110   -0.0970 C   0  0  0  0  0  0  0  0  0  0  0  0
    6.6030    1.7150   -0.2120 C   0  0  0  0  0  0  0  0  0  0  0  0
    8.0270    1.4410   -0.4120 C   0  0  0  0  0  0  0  0  0  0  0  0
  1  2  2  0
  2  3  1  0
  2 21  1  0
  3  4  2  0
  4  5  1  0
  4 20  1  0
  5  6  1  0
  6  7  1  0
  7  8  2  0
  7  9  1  0
  9 10  1  0
  9 19  1  0
 10 11  1  0
 12 11  1  6
 12 13  1  0
 12 17  1  0
 13 14  1  6
 13 19  1  0
 14 15  1  0
 15 16  1  0
 16 17  1  0
 17 18  1  6
 20 21  1  0
 21 22  2  3
 22 23  1  0
M  CHG  1  17   1
M  END
