
     RDKit          3D

 19 19  0  0  0  0  0  0  0  0999 V2000
   -4.6310   -3.5490   -0.2870 C   0  0  0  0  0  0  0  0  0  0  0  0
   -3.6170   -2.7250   -0.4610 C   0  0  0  0  0  0  0  0  0  0  0  0
   -3.7960   -1.2760   -0.5010 C   0  0  0  0  0  0  0  0  0  0  0  0
   -2.8400   -0.3610   -0.6710 C   0  0  0  0  0  0  0  0  0  0  0  0
   -1.4310   -0.7040   -0.8470 C   0  0  0  0  0  0  0  0  0  0  0  0
   -0.5400   -0.1770    0.1650 N   0  0  0  0  0  0  0  0  0  0  0  0
    0.8430   -0.4930    0.0100 C   0  0  0  0  0  0  0  0  0  0  0  0
    1.2400   -1.2020   -0.9760 O   0  0  0  0  0  0  0  0  0  0  0  0
    1.8300   -0.0570    0.9070 N   0  0  0  0  0  0  0  0  0  0  0  0
    3.2240   -0.4060    0.7050 C   0  0  0  0  0  0  0  0  0  0  0  0
    4.1070    0.1630    1.7800 C   0  0  1  0  0  0  0  0  0  0  0  0
    5.5340   -0.2510    1.4860 C   0  0  0  0  0  0  0  0  0  0  0  0
    4.0790    1.6920    1.6510 C   0  0  0  0  0  0  0  0  0  0  0  0
   -3.4440    0.9610   -0.6500 C   0  0  0  0  0  0  0  0  0  0  0  0
   -2.9160    2.1370   -0.7870 C   0  0  0  0  0  0  0  0  0  0  0  0
   -1.5140    2.4680   -1.0120 C   0  0  0  0  0  0  0  0  0  0  0  0
   -4.9080    0.7080   -0.4390 C   0  0  0  0  0  0  0  0  0  0  0  0
   -5.7670    1.6160   -0.3640 O   0  0  0  0  0  0  0  0  0  0  0  0
   -5.0240   -0.6510   -0.3620 O   0  0  0  0  0  0  0  0  0  0  0  0
  1  2  2  0
  2  3  1  0
  3  4  2  0
  3 19  1  0
  4  5  1  0
  4 14  1  0
  5  6  1  0
  6  7  1  0
  7  8  2  0
  7  9  1  0
  9 10  1  0
 10 11  1  0
 11 12  1  6
 11 13  1  0
 14 15  2  3
 14 17  1  0
 15 16  1  0
 17 18  2  0
 17 19  1  0
M  END
