
     RDKit          3D

 17 18  0  0  0  0  0  0  0  0999 V2000
   -4.3880   -1.3920   -1.0240 N   0  0  0  0  0  0  0  0  0  0  0  0
   -3.3880   -0.5360   -0.4490 C   0  0  0  0  0  0  0  0  0  0  0  0
   -2.0480   -0.8600   -0.6050 C   0  0  0  0  0  0  0  0  0  0  0  0
   -1.0940   -0.0260   -0.0450 C   0  0  0  0  0  0  0  0  0  0  0  0
    0.2550   -0.3090   -0.1740 O   0  0  0  0  0  0  0  0  0  0  0  0
    1.2420    0.5140    0.3800 C   0  0  0  0  0  0  0  0  0  0  0  0
    2.5990   -0.0270    0.0880 C   0  0  0  0  0  0  0  0  0  0  0  0
    2.7190   -1.1750   -0.6310 C   0  0  0  0  0  0  0  0  0  0  0  0
    3.9630   -1.6400   -0.8790 N   0  0  0  0  0  0  0  0  0  0  0  0
    5.0480   -1.0380   -0.4610 N   0  0  0  0  0  0  0  0  0  0  0  0
    4.9900    0.1030    0.2560 C   0  0  0  0  0  0  0  0  0  0  0  0
    6.0570    0.6530    0.6410 O   0  0  0  0  0  0  0  0  0  0  0  0
    3.7350    0.6140    0.5320 C   0  0  0  0  0  0  0  0  0  0  0  0
   -1.4610    1.0990    0.6510 C   0  0  0  0  0  0  0  0  0  0  0  0
   -2.7820    1.4470    0.8220 C   0  0  0  0  0  0  0  0  0  0  0  0
   -3.7390    0.5980    0.2530 C   0  0  0  0  0  0  0  0  0  0  0  0
   -5.0900    0.8740    0.3780 O   0  0  0  0  0  0  0  0  0  0  0  0
  1  2  1  0
  2  3  2  0
  2 16  1  0
  3  4  1  0
  4  5  1  0
  4 14  2  0
  5  6  1  0
  6  7  1  0
  7  8  1  0
  7 13  2  0
  8  9  2  0
  9 10  1  0
 10 11  1  0
 11 12  2  0
 11 13  1  0
 14 15  1  0
 15 16  2  0
 16 17  1  0
M  END
