
     RDKit          3D

 17 18  0  0  0  0  0  0  0  0999 V2000
   -4.1600   -0.1740   -0.9480 C   0  0  0  0  0  0  0  0  0  0  0  0
   -3.3950   -0.1800    0.2380 O   0  0  0  0  0  0  0  0  0  0  0  0
   -2.0220   -0.1590    0.2640 C   0  0  0  0  0  0  0  0  0  0  0  0
   -1.3950    1.0690    0.2940 C   0  0  0  0  0  0  0  0  0  0  0  0
   -2.1250    2.2800    0.2980 N   0  0  0  0  0  0  0  0  0  0  0  0
   -0.0020    1.1420    0.3200 C   0  0  0  0  0  0  0  0  0  0  0  0
    0.7600    0.0060    0.3170 C   0  0  0  0  0  0  0  0  0  0  0  0
    2.2280   -0.0020    0.3410 C   0  0  0  0  0  0  0  0  0  0  0  0
    2.9730    0.8510   -0.3090 C   0  0  0  0  0  0  0  0  0  0  0  0
    2.3090    1.8560   -1.0940 N   0  0  0  0  0  0  0  0  0  0  0  0
    4.4010    0.8150   -0.2680 C   0  0  0  0  0  0  0  0  0  0  0  0
    5.0480   -0.0450    0.3990 N   0  0  0  0  0  0  0  0  0  0  0  0
    0.1020   -1.2030    0.2870 C   0  0  0  0  0  0  0  0  0  0  0  0
   -1.2730   -1.3150    0.2600 C   0  0  0  0  0  0  0  0  0  0  0  0
   -1.6410   -2.6550    0.2340 O   0  0  0  0  0  0  0  0  0  0  0  0
   -0.4890   -3.3890    0.6300 C   0  0  0  0  0  0  0  0  0  0  0  0
    0.5770   -2.5110    0.2750 O   0  0  0  0  0  0  0  0  0  0  0  0
  1  2  1  0
  2  3  1  0
  3  4  2  0
  3 14  1  0
  4  5  1  0
  4  6  1  0
  6  7  2  0
  7  8  1  0
  7 13  1  0
  8  9  2  3
  9 10  1  0
  9 11  1  0
 11 12  2  0
 13 14  2  0
 13 17  1  0
 14 15  1  0
 15 16  1  0
 16 17  1  0
M  END
