
     RDKit          3D

 17 17  0  0  0  0  0  0  0  0999 V2000
    1.0860   -2.4510    0.7540 C   0  0  0  0  0  0  0  0  0  0  0  0
   -0.0670   -2.0330   -0.0350 C   0  0  0  0  0  0  0  0  0  0  0  0
   -0.5380   -0.8490   -0.2660 C   0  0  0  0  0  0  0  0  0  0  0  0
   -1.7570   -0.7340   -1.1240 C   0  0  0  0  0  0  0  0  0  0  0  0
   -1.8890   -1.6570   -1.9440 O   0  0  0  0  0  0  0  0  0  0  0  0
   -2.7490    0.3160   -1.0760 N   0  0  0  0  0  0  0  0  0  0  0  0
   -2.8200    1.3320   -0.0650 C   0  0  0  0  0  0  0  0  0  0  0  0
   -4.1620    1.9040    0.1170 C   0  0  0  0  0  0  0  0  0  0  0  0
   -1.8680    1.8280    0.7170 C   0  0  0  0  0  0  0  0  0  0  0  0
   -0.4440    1.4370    0.7350 C   0  0  0  0  0  0  0  0  0  0  0  0
    0.1330    0.2890    0.3130 C   0  0  0  0  0  0  0  0  0  0  0  0
    1.5250    0.2350    0.4210 N   0  0  0  0  0  0  0  0  0  0  0  0
    2.3370    0.0600   -0.7230 C   0  0  0  0  0  0  0  0  0  0  0  0
    1.8750   -0.0560   -1.8860 O   0  0  0  0  0  0  0  0  0  0  0  0
    3.7990    0.0070   -0.5810 C   0  0  0  0  0  0  0  0  0  0  0  0
    4.6620   -0.1670   -1.6960 N   0  0  0  0  0  0  0  0  0  0  0  0
    4.3260    0.1180    0.5630 O   0  0  0  0  0  0  0  0  0  0  0  0
  1  2  1  0
  2  3  2  3
  3  4  1  0
  3 11  1  0
  4  5  2  0
  4  6  1  0
  6  7  1  0
  7  8  1  0
  7  9  2  0
  9 10  1  0
 10 11  2  0
 11 12  1  0
 12 13  1  0
 13 14  2  0
 13 15  1  0
 15 16  1  0
 15 17  2  0
M  END
