
     RDKit          3D

 16 17  0  0  0  0  0  0  0  0999 V2000
    4.4880    1.0090    0.4600 C   0  0  0  0  0  0  0  0  0  0  0  0
    3.1740    0.3810    0.1290 C   0  0  0  0  0  0  0  0  0  0  0  0
    2.2160    1.1190   -0.3840 C   0  0  0  0  0  0  0  0  0  0  0  0
    0.8920    0.5840   -0.7400 C   0  0  0  0  0  0  0  0  0  0  0  0
   -0.0100    1.3050   -1.2290 O   0  0  0  0  0  0  0  0  0  0  0  0
    0.5990   -0.8290   -0.5250 C   0  0  0  0  0  0  0  0  0  0  0  0
   -0.5730   -1.3660   -0.8260 C   0  0  0  0  0  0  0  0  0  0  0  0
   -1.6270   -0.5940   -1.3810 N   0  0  0  0  0  0  0  0  0  0  0  0
   -2.6700   -0.1690   -0.4810 C   0  0  0  0  0  0  0  0  0  0  0  0
   -2.7780   -0.4170    0.8600 C   0  0  0  0  0  0  0  0  0  0  0  0
   -3.9280    0.1800    1.3050 C   0  0  0  0  0  0  0  0  0  0  0  0
   -4.4940    0.7710    0.2530 N   0  0  0  0  0  0  0  0  0  0  0  0
   -3.7610    0.5840   -0.8580 C   0  0  0  0  0  0  0  0  0  0  0  0
    1.6810   -1.6260    0.0460 C   0  0  0  0  0  0  0  0  0  0  0  0
    1.4790   -2.8450    0.2500 O   0  0  0  0  0  0  0  0  0  0  0  0
    2.9220   -0.9990    0.3510 N   0  0  0  0  0  0  0  0  0  0  0  0
  1  2  1  0
  2  3  2  0
  2 16  1  0
  3  4  1  0
  4  5  2  0
  4  6  1  0
  6  7  2  3
  6 14  1  0
  7  8  1  0
  8  9  1  0
  9 10  1  0
  9 13  2  0
 10 11  2  0
 11 12  1  0
 12 13  1  0
 14 15  2  0
 14 16  1  0
M  END
