
     RDKit          3D

 17 17  0  0  0  0  0  0  0  0999 V2000
    0.0150    1.7260   -2.9700 C   0  0  0  0  0  0  0  0  0  0  0  0
   -0.1880    0.9290   -1.6860 C   0  0  0  0  0  0  0  0  0  0  0  0
   -0.8180   -0.1970   -1.7920 C   0  0  0  0  0  0  0  0  0  0  0  0
   -1.1130   -1.0970   -0.7080 C   0  0  0  0  0  0  0  0  0  0  0  0
   -1.7920   -2.2270   -1.0690 C   0  0  0  0  0  0  0  0  0  0  0  0
   -2.1460   -3.1990   -0.0950 N   0  0  0  0  0  0  0  0  0  0  0  0
   -0.7720   -0.9370    0.6910 C   0  0  0  0  0  0  0  0  0  0  0  0
   -1.1560   -1.8910    1.4630 O   0  0  0  0  0  0  0  0  0  0  0  0
   -0.0720    0.1270    1.3380 C   0  0  0  0  0  0  0  0  0  0  0  0
    1.3140    0.0410    1.4510 C   0  0  0  0  0  0  0  0  0  0  0  0
    2.0490   -1.1250    0.8850 C   0  0  0  0  0  0  0  0  0  0  0  0
    1.9740    1.0250    2.0770 N   0  0  0  0  0  0  0  0  0  0  0  0
    1.3250    2.0870    2.5950 C   0  0  0  0  0  0  0  0  0  0  0  0
    2.0150    2.9670    3.1660 O   0  0  0  0  0  0  0  0  0  0  0  0
   -0.0120    2.1990    2.5020 N   0  0  0  0  0  0  0  0  0  0  0  0
   -0.7200    1.2410    1.8860 C   0  0  0  0  0  0  0  0  0  0  0  0
   -1.9810    1.2990    1.7720 O   0  0  0  0  0  0  0  0  0  0  0  0
  1  2  1  0
  2  3  2  3
  3  4  1  0
  4  5  2  3
  4  7  1  0
  5  6  1  0
  7  8  2  0
  7  9  1  0
  9 10  2  0
  9 16  1  0
 10 11  1  0
 10 12  1  0
 12 13  1  0
 13 14  2  0
 13 15  1  0
 15 16  1  0
 16 17  2  0
M  END
