
     RDKit          3D

 17 18  0  0  0  0  0  0  0  0999 V2000
    0.1640   -0.7220    0.0840 O   0  0  0  0  0  0  0  0  0  0  0  0
    0.1380    0.5330    0.0890 C   0  0  0  0  0  0  0  0  0  0  0  0
    1.4170    1.3300    0.1300 C   0  0  0  0  0  0  0  0  0  0  0  0
    2.5550    0.4590    0.1600 N   0  0  0  0  0  0  0  0  0  0  0  0
    3.2330   -0.0890    1.2900 C   0  0  0  0  0  0  0  0  0  0  0  0
    2.6840   -0.2250    2.4100 O   0  0  0  0  0  0  0  0  0  0  0  0
    4.6170   -0.4280    0.8600 C   0  0  0  0  0  0  0  0  0  0  0  0
    4.4690   -0.7160   -0.6200 C   0  0  0  0  0  0  0  0  0  0  0  0
    3.2200   -0.0180   -1.0140 C   0  0  0  0  0  0  0  0  0  0  0  0
    2.8400    0.1130   -2.2130 O   0  0  0  0  0  0  0  0  0  0  0  0
   -1.1250    1.1700    0.0550 N   0  0  0  0  0  0  0  0  0  0  0  0
   -2.3540    0.4310    0.0150 C   0  0  0  0  0  0  0  0  0  0  0  0
   -3.2410    0.5780    0.9810 C   0  0  0  0  0  0  0  0  0  0  0  0
   -4.5390   -0.1140    1.0690 C   0  0  0  0  0  0  0  0  0  0  0  0
   -4.7740   -1.0060   -0.0340 N   0  0  0  0  0  0  0  0  0  0  0  0
   -3.8020   -1.1390   -1.0510 C   0  0  0  0  0  0  0  0  0  0  0  0
   -2.6620   -0.4890   -1.0670 C   0  0  0  0  0  0  0  0  0  0  0  0
  1  2  2  0
  2  3  1  0
  2 11  1  0
  3  4  1  0
  4  5  1  0
  4  9  1  0
  5  6  2  0
  5  7  1  0
  7  8  1  0
  8  9  1  0
  9 10  2  0
 11 12  1  0
 12 13  2  0
 12 17  1  0
 13 14  1  0
 14 15  1  0
 15 16  1  0
 16 17  2  0
M  END
