
     RDKit          3D

 17 17  0  0  0  0  0  0  0  0999 V2000
   -3.2940   -1.4340    0.8940 C   0  0  0  0  0  0  0  0  0  0  0  0
   -2.3470   -0.8950   -0.0350 N   0  0  0  0  0  0  0  0  0  0  0  0
   -2.2510   -1.3690   -1.3640 C   0  0  0  0  0  0  0  0  0  0  0  0
   -2.4260   -2.5890   -1.5810 O   0  0  0  0  0  0  0  0  0  0  0  0
   -1.9560   -0.4930   -2.5210 C   0  0  0  0  0  0  0  0  0  0  0  0
   -1.1700    0.7350   -2.1650 C   0  0  0  0  0  0  0  0  0  0  0  0
   -0.5240    0.5630   -0.7940 C   0  0  0  0  0  0  0  0  0  0  0  0
    0.7190    0.8180   -0.6870 C   0  0  0  0  0  0  0  0  0  0  0  0
    1.8030    0.8400    0.2250 C   0  0  0  0  0  0  0  0  0  0  0  0
    2.9730    1.3020   -0.3830 C   0  0  0  0  0  0  0  0  0  0  0  0
    2.9580    1.6710   -1.7380 N   0  0  0  0  0  0  0  0  0  0  0  0
    2.0320    0.4350    1.5710 C   0  0  0  0  0  0  0  0  0  0  0  0
    3.2540    0.6840    2.0190 O   0  0  0  0  0  0  0  0  0  0  0  0
    1.1810   -0.2160    2.5710 C   0  0  0  0  0  0  0  0  0  0  0  0
    1.9860   -0.7930    3.6520 N   0  0  0  0  0  0  0  0  0  0  0  0
   -1.4080    0.1650    0.2870 C   0  0  0  0  0  0  0  0  0  0  0  0
   -1.4150    0.6550    1.4050 O   0  0  0  0  0  0  0  0  0  0  0  0
  1  2  1  0
  2  3  1  0
  2 16  1  0
  3  4  2  0
  3  5  1  0
  5  6  1  0
  6  7  1  0
  7  8  2  3
  7 16  1  0
  8  9  1  0
  9 10  2  3
  9 12  1  0
 10 11  1  0
 12 13  2  0
 12 14  1  0
 14 15  1  0
 16 17  2  0
M  END
