
     RDKit          3D

 12 11  0  0  0  0  0  0  0  0999 V2000
   -3.4050   -0.3100   -0.5040 N   0  0  0  0  0  0  0  0  0  0  0  0
   -2.5070   -1.3900   -0.1620 C   0  0  0  0  0  0  0  0  0  0  0  0
   -1.6640   -1.0000    1.0520 C   0  0  2  0  0  0  0  0  0  0  0  0
   -2.5280   -0.7490    2.0980 O   0  0  0  0  0  0  0  0  0  0  0  0
   -0.8690    0.2580    0.6810 C   0  0  0  0  0  0  0  0  0  0  0  0
   -0.0440   -0.1120   -0.3700 O   0  0  0  0  0  0  0  0  0  0  0  0
    0.7580    0.8900   -0.8580 C   0  0  0  0  0  0  0  0  0  0  0  0
    1.7080    1.4670    0.1700 C   0  0  0  0  0  0  0  0  0  0  0  0
    2.5700    0.5390    0.6910 O   0  0  0  0  0  0  0  0  0  0  0  0
    3.4020   -0.0850   -0.1990 C   0  0  2  0  0  0  0  0  0  0  0  0
    3.0830   -1.4390   -0.2200 O   0  0  0  0  0  0  0  0  0  0  0  0
    4.7540    0.1300    0.0580 O   0  0  0  0  0  0  0  0  0  0  0  0
  1  2  1  0
  2  3  1  0
  3  4  1  1
  3  5  1  0
  5  6  1  0
  6  7  1  0
  7  8  1  0
  8  9  1  0
  9 10  1  0
 10 11  1  1
 10 12  1  0
M  CHG  1   1   1
M  END
