
     RDKit          3D

 12 11  0  0  0  0  0  0  0  0999 V2000
    0.8460   -2.5150   -0.0420 O   0  0  0  0  0  0  0  0  0  0  0  0
    1.9740   -1.6850   -0.1600 C   0  0  0  0  0  0  0  0  0  0  0  0
    1.6260   -0.2830    0.2980 C   0  0  1  0  0  0  0  0  0  0  0  0
    2.8680    0.5650    0.2480 C   0  0  0  0  0  0  0  0  0  0  0  0
    3.4000    0.6550   -1.0290 O   0  0  0  0  0  0  0  0  0  0  0  0
    0.5640    0.2130   -0.5330 N   0  0  0  0  0  0  0  0  0  0  0  0
   -0.0380    1.4220   -0.0330 C   0  0  0  0  0  0  0  0  0  0  0  0
   -1.3260    1.0340    0.6740 C   0  0  0  0  0  0  0  0  0  0  0  0
   -2.1320    0.4150   -0.2650 O   0  0  0  0  0  0  0  0  0  0  0  0
   -3.3530    0.0090    0.2630 C   0  0  2  0  0  0  0  0  0  0  0  0
   -3.4080   -1.3780    0.1550 O   0  0  0  0  0  0  0  0  0  0  0  0
   -4.4370    0.6290   -0.3490 O   0  0  0  0  0  0  0  0  0  0  0  0
  1  2  1  0
  3  2  1  6
  3  4  1  0
  3  6  1  0
  4  5  1  0
  6  7  1  0
  7  8  1  0
  8  9  1  0
  9 10  1  0
 10 11  1  6
 10 12  1  0
M  CHG  1   6   1
M  END
