
     RDKit          3D

 13 12  0  0  0  0  0  0  0  0999 V2000
   -4.3260   -0.3240   -0.0480 C   0  0  0  0  0  0  0  0  0  0  0  0
   -3.1490    0.3300    0.6430 C   0  0  0  0  0  0  0  0  0  0  0  0
   -2.1500    0.6890   -0.2280 O   0  0  0  0  0  0  0  0  0  0  0  0
   -1.6180   -0.3750   -0.9320 C   0  0  0  0  0  0  0  0  0  0  0  0
   -1.0540   -1.3500   -0.1380 O   0  0  0  0  0  0  0  0  0  0  0  0
   -0.0170   -0.9060    0.6470 C   0  0  0  0  0  0  0  0  0  0  0  0
    1.1300   -0.3400   -0.1680 C   0  0  2  0  0  0  0  0  0  0  0  0
    1.6750   -1.3870   -0.9300 O   0  0  0  0  0  0  0  0  0  0  0  0
    2.1510    0.0900    0.7680 N   0  0  0  0  0  0  0  0  0  0  0  0
    3.3010    0.6520    0.0710 C   0  0  2  0  0  0  0  0  0  0  0  0
    3.8860   -0.2580   -0.7810 O   0  0  0  0  0  0  0  0  0  0  0  0
    4.2490    0.9740    1.0550 O   0  0  0  0  0  0  0  0  0  0  0  0
    2.9410    1.7870   -0.6500 O   0  0  0  0  0  0  0  0  0  0  0  0
  1  2  1  0
  2  3  1  0
  3  4  1  0
  4  5  1  0
  5  6  1  0
  6  7  1  0
  7  8  1  6
  7  9  1  0
  9 10  1  0
 10 11  1  6
 10 12  1  0
 10 13  1  0
M  END
