
     RDKit          3D

 12 11  0  0  0  0  0  0  0  0999 V2000
   -2.8710   -0.2540   -0.2790 N   0  0  0  0  0  0  0  0  0  0  0  0
   -1.7170    0.2560    0.4370 C   0  0  2  0  0  0  0  0  0  0  0  0
   -0.9750    1.2600   -0.3910 C   0  0  0  0  0  0  0  0  0  0  0  0
   -1.8450    2.3350   -0.6950 O   0  0  0  0  0  0  0  0  0  0  0  0
   -0.8910   -0.8270    1.0370 C   0  0  1  0  0  0  0  0  0  0  0  0
   -1.7750   -1.4930    1.9320 O   0  0  0  0  0  0  0  0  0  0  0  0
   -0.2960   -1.6950    0.1750 O   0  0  0  0  0  0  0  0  0  0  0  0
    1.0430   -1.8740    0.2470 C   0  0  0  0  0  0  0  0  0  0  0  0
    1.9420   -0.7260    0.0300 C   0  0  0  0  0  0  0  0  0  0  0  0
    1.8590   -0.1000   -1.1880 O   0  0  0  0  0  0  0  0  0  0  0  0
    2.7860    0.9380   -1.2250 C   0  0  0  0  0  0  0  0  0  0  0  0
    2.5870    1.9000   -0.2410 O   0  0  0  0  0  0  0  0  0  0  0  0
  2  1  1  6
  2  3  1  0
  2  5  1  0
  3  4  1  0
  5  6  1  1
  5  7  1  0
  7  8  1  0
  8  9  1  0
  9 10  1  0
 10 11  1  0
 11 12  1  0
M  CHG  1   1   1
M  END
