
     RDKit          3D

 13 12  0  0  0  0  0  0  0  0999 V2000
   -3.1210    0.8120    1.0060 N   0  0  0  0  0  0  0  0  0  0  0  0
   -2.8210   -0.2990    0.1360 C   0  0  2  0  0  0  0  0  0  0  0  0
   -2.4180   -1.3760    0.8880 O   0  0  0  0  0  0  0  0  0  0  0  0
   -3.2450   -2.4020    0.7890 O   0  0  0  0  0  0  0  0  0  0  0  0
   -1.8080    0.0590   -0.9260 C   0  0  1  0  0  0  0  0  0  0  0  0
   -2.2630    1.0910   -1.7320 O   0  0  0  0  0  0  0  0  0  0  0  0
   -0.4830    0.4700   -0.3180 C   0  0  0  0  0  0  0  0  0  0  0  0
    0.3940    0.7050   -1.3460 O   0  0  0  0  0  0  0  0  0  0  0  0
    1.6560    1.0960   -0.9740 C   0  0  0  0  0  0  0  0  0  0  0  0
    2.3520    0.0580   -0.1120 C   0  0  0  0  0  0  0  0  0  0  0  0
    3.6260    0.5450    0.2140 O   0  0  0  0  0  0  0  0  0  0  0  0
    4.2490   -0.4190    1.0050 C   0  0  0  0  0  0  0  0  0  0  0  0
    4.3630   -1.6120    0.3270 O   0  0  0  0  0  0  0  0  0  0  0  0
  2  1  1  1
  2  3  1  0
  2  5  1  0
  3  4  1  0
  5  6  1  1
  5  7  1  0
  7  8  1  0
  8  9  1  0
  9 10  1  0
 10 11  1  0
 11 12  1  0
 12 13  1  0
M  CHG  1   1   1
M  END
