
     RDKit          3D

 12 11  0  0  0  0  0  0  0  0999 V2000
   -2.1410    1.8240   -0.3890 N   0  0  0  0  0  0  0  0  0  0  0  0
   -2.1020    0.3810   -0.3930 C   0  0  2  0  0  0  0  0  0  0  0  0
   -2.6050   -0.1840    0.9080 C   0  0  0  0  0  0  0  0  0  0  0  0
   -3.9270    0.2390    1.0900 O   0  0  0  0  0  0  0  0  0  0  0  0
   -0.7200   -0.1530   -0.6730 C   0  0  2  0  0  0  0  0  0  0  0  0
   -0.8040   -1.5380   -0.6520 O   0  0  0  0  0  0  0  0  0  0  0  0
    0.3180    0.3760    0.2480 C   0  0  0  0  0  0  0  0  0  0  0  0
    1.5790   -0.0280   -0.0310 O   0  0  0  0  0  0  0  0  0  0  0  0
    1.8820   -1.3530   -0.0140 C   0  0  0  0  0  0  0  0  0  0  0  0
    3.2690   -1.4370   -0.3350 O   0  0  0  0  0  0  0  0  0  0  0  0
    3.9990   -0.7420    0.6100 C   0  0  0  0  0  0  0  0  0  0  0  0
    3.6620    0.6040    0.6780 O   0  0  0  0  0  0  0  0  0  0  0  0
  2  1  1  1
  2  3  1  0
  2  5  1  0
  3  4  1  0
  5  6  1  1
  5  7  1  0
  7  8  1  0
  8  9  1  0
  9 10  1  0
 10 11  1  0
 11 12  1  0
M  CHG  1   1   1
M  END
