
     RDKit          3D

 13 12  0  0  0  0  0  0  0  0999 V2000
    3.8420   -0.0250    0.7990 N   0  0  0  0  0  0  0  0  0  0  0  0
    2.4860   -0.1850    1.2110 C   0  0  0  0  0  0  0  0  0  0  0  0
    2.2450   -0.5240    2.3360 O   0  0  0  0  0  0  0  0  0  0  0  0
    1.4080    0.0890    0.1830 C   0  0  0  0  0  0  0  0  0  0  0  0
    0.1700   -0.1010    0.7080 O   0  0  0  0  0  0  0  0  0  0  0  0
   -0.9210    0.0920   -0.0690 C   0  0  1  0  0  0  0  0  0  0  0  0
   -1.1060    1.4590   -0.6560 C   0  0  0  0  0  0  0  0  0  0  0  0
   -0.1120    1.9020   -1.4810 O   0  0  0  0  0  0  0  0  0  0  0  0
   -1.1350   -0.9650   -1.1490 C   0  0  0  0  0  0  0  0  0  0  0  0
   -0.1070   -1.0650   -2.0450 O   0  0  0  0  0  0  0  0  0  0  0  0
   -2.1340   -0.0990    0.8680 C   0  0  1  0  0  0  0  0  0  0  0  0
   -3.2600    0.1000    0.0650 O   0  0  0  0  0  0  0  0  0  0  0  0
   -2.1480   -1.3750    1.3840 O   0  0  0  0  0  0  0  0  0  0  0  0
  1  2  1  0
  2  3  2  0
  2  4  1  0
  4  5  1  0
  5  6  1  0
  6  7  1  6
  6  9  1  0
  6 11  1  0
  7  8  1  0
  9 10  1  0
 11 12  1  6
 11 13  1  0
M  CHG  1   1   1
M  END
