
     RDKit          3D

 25 27  0  0  0  0  0  0  0  0999 V2000
   -0.3530   -4.3470   -1.0870 C   0  0  0  0  0  0  0  0  0  0  0  0
   -0.6530   -2.9250   -0.6980 C   0  0  0  0  0  0  0  0  0  0  0  0
    0.2400   -2.2050    0.0450 C   0  0  0  0  0  0  0  0  0  0  0  0
   -0.0330   -0.8810    0.4110 C   0  0  0  0  0  0  0  0  0  0  0  0
   -1.2280   -0.3530   -0.0130 C   0  0  0  0  0  0  0  0  0  0  0  0
   -2.1210   -1.0820   -0.7610 C   0  0  0  0  0  0  0  0  0  0  0  0
   -3.2900   -0.5750   -1.1780 F   0  0  0  0  0  0  0  0  0  0  0  0
   -1.8360   -2.3800   -1.1090 C   0  0  0  0  0  0  0  0  0  0  0  0
   -2.7860   -3.1820   -1.9150 C   0  0  0  0  0  0  0  0  0  0  0  0
   -1.2710    1.0570    0.5050 C   0  0  0  0  0  0  0  0  0  0  0  0
   -2.2760    1.8670    0.2900 C   0  0  0  0  0  0  0  0  0  0  0  0
   -2.3570    3.2170    0.7650 C   0  0  0  0  0  0  0  0  0  0  0  0
   -1.4890    3.7670    1.4310 O   0  0  0  0  0  0  0  0  0  0  0  0
   -3.5790    4.0350    0.4390 C   0  0  0  0  0  0  0  0  0  0  0  0
   -3.4240    5.3390    1.0200 C   0  0  0  0  0  0  0  0  0  0  0  0
   -3.3010    6.3800    1.5060 N   0  0  0  0  0  0  0  0  0  0  0  0
   -0.0440    1.2970    1.2410 C   0  0  0  0  0  0  0  0  0  0  0  0
    0.3430    2.3300    1.8400 O   0  0  0  0  0  0  0  0  0  0  0  0
    0.7000    0.0700    1.1590 N   0  0  0  0  0  0  0  0  0  0  0  0
    2.0000   -0.0940    1.7780 C   0  0  0  0  0  0  0  0  0  0  0  0
    3.1090    0.2860    0.8590 C   0  0  0  0  0  0  0  0  0  0  0  0
    4.1000   -0.4760    0.4250 C   0  0  0  0  0  0  0  0  0  0  0  0
    4.9920    0.2760   -0.4700 C   0  0  0  0  0  0  0  0  0  0  0  0
    4.3870    1.6230   -0.5130 C   0  0  0  0  0  0  0  0  0  0  0  0
    3.3150    1.5870    0.2580 C   0  0  0  0  0  0  0  0  0  0  0  0
  1  2  1  0
  2  3  2  0
  2  8  1  0
  3  4  1  0
  4  5  2  0
  4 19  1  0
  5  6  1  0
  5 10  1  0
  6  7  1  0
  6  8  2  0
  8  9  1  0
 10 11  2  3
 10 17  1  0
 11 12  1  0
 12 13  2  0
 12 14  1  0
 14 15  1  0
 15 16  3  0
 17 18  2  0
 17 19  1  0
 19 20  1  0
 20 21  1  0
 21 22  2  0
 21 25  1  0
 22 23  1  0
 23 24  1  0
 24 25  2  0
M  END
