
     RDKit          3D

 25 27  0  0  0  0  0  0  0  0999 V2000
   -3.8390   -2.1180    1.9420 C   0  0  0  0  0  0  0  0  0  0  0  0
   -2.8620   -1.1490    1.4090 C   0  0  0  0  0  0  0  0  0  0  0  0
   -2.4050   -1.2760    0.1770 C   0  0  0  0  0  0  0  0  0  0  0  0
   -1.4360   -0.3310   -0.3860 C   0  0  0  0  0  0  0  0  0  0  0  0
   -1.0520    0.8890    0.3480 C   0  0  2  0  0  0  0  0  0  0  0  0
   -2.2230    1.8260    0.3580 C   0  0  0  0  0  0  0  0  0  0  0  0
   -3.3850    1.4120    0.2630 O   0  0  0  0  0  0  0  0  0  0  0  0
   -2.0110    3.2370    0.4790 N   0  0  0  0  0  0  0  0  0  0  0  0
   -3.0310    4.1290    0.9770 C   0  0  0  0  0  0  0  0  0  0  0  0
   -0.7180    3.7510    0.0780 C   0  0  0  0  0  0  0  0  0  0  0  0
   -0.1370    2.7750   -0.9410 C   0  0  0  0  0  0  0  0  0  0  0  0
    0.0980    1.5460   -0.2240 N   0  0  0  0  0  0  0  0  0  0  0  0
    1.3960    1.0340   -0.0950 C   0  0  0  0  0  0  0  0  0  0  0  0
    2.3850    1.6550   -0.6310 O   0  0  0  0  0  0  0  0  0  0  0  0
    1.7220   -0.2110    0.6400 C   0  0  0  0  0  0  0  0  0  0  0  0
    3.1760   -0.4810    0.5360 C   0  0  1  0  0  0  0  0  0  0  0  0
    3.6120   -1.7310    1.2700 C   0  0  0  0  0  0  0  0  0  0  0  0
    5.0410   -1.8850    0.7730 C   0  0  0  0  0  0  0  0  0  0  0  0
    5.0720   -1.2240   -0.5920 C   0  0  0  0  0  0  0  0  0  0  0  0
    3.6030   -0.8810   -0.8800 C   0  0  0  0  0  0  0  0  0  0  0  0
   -0.9470   -0.5790   -1.6110 C   0  0  0  0  0  0  0  0  0  0  0  0
   -1.3660   -1.7340   -2.3630 C   0  0  0  0  0  0  0  0  0  0  0  0
   -2.2450   -2.5930   -1.9040 C   0  0  0  0  0  0  0  0  0  0  0  0
   -2.8770   -2.4440   -0.5890 C   0  0  2  0  0  0  0  0  0  0  0  0
   -4.2440   -2.3600   -0.7950 F   0  0  0  0  0  0  0  0  0  0  0  0
  1  2  1  0
  2  3  2  3
  3  4  1  0
  3 24  1  0
  5  4  1  6
  4 21  2  0
  5  6  1  0
  5 12  1  0
  6  7  2  0
  6  8  1  0
  8  9  1  0
  8 10  1  0
 10 11  1  0
 11 12  1  0
 12 13  1  0
 13 14  2  0
 13 15  1  0
 16 15  1  6
 16 17  1  0
 16 20  1  0
 17 18  1  0
 18 19  1  0
 19 20  1  0
 21 22  1  0
 22 23  2  0
 23 24  1  0
 24 25  1  6
M  END
