
     RDKit          3D

 23 25  0  0  0  0  0  0  0  0999 V2000
    4.9910   -2.0290    0.9760 N   0  0  0  0  0  0  0  0  0  0  0  0
    4.3530   -1.8290   -0.6350 S   0  0  2  0  0  0  0  0  0  0  0  0
    3.6930   -3.0910   -1.0830 O   0  0  0  0  0  0  0  0  0  0  0  0
    5.4500   -1.4000   -1.5620 O   0  0  0  0  0  0  0  0  0  0  0  0
    3.1640   -0.5570   -0.5860 C   0  0  0  0  0  0  0  0  0  0  0  0
    3.5850    0.7480   -0.8090 C   0  0  0  0  0  0  0  0  0  0  0  0
    2.6730    1.7560   -0.7740 C   0  0  0  0  0  0  0  0  0  0  0  0
    1.3360    1.4800   -0.5190 C   0  0  0  0  0  0  0  0  0  0  0  0
    0.2260    2.2350   -0.4210 N   0  0  0  0  0  0  0  0  0  0  0  0
   -0.8600    1.4930   -0.1530 C   0  0  0  0  0  0  0  0  0  0  0  0
   -2.2420    1.9950    0.0190 C   0  0  0  0  0  0  0  0  0  0  0  0
   -3.1550    1.1910    0.2660 O   0  0  0  0  0  0  0  0  0  0  0  0
   -2.5370    3.3750   -0.0930 N   0  0  0  0  0  0  0  0  0  0  0  0
   -3.8500    3.8740    0.0670 N   0  0  0  0  0  0  0  0  0  0  0  0
   -0.4340    0.1930   -0.0720 C   0  0  0  0  0  0  0  0  0  0  0  0
   -1.2730   -0.9690    0.2050 C   0  0  0  0  0  0  0  0  0  0  0  0
   -1.6280   -1.3010    1.4830 C   0  0  0  0  0  0  0  0  0  0  0  0
   -2.4240   -2.4060    1.7090 C   0  0  0  0  0  0  0  0  0  0  0  0
   -2.8460   -3.1550    0.6360 C   0  0  0  0  0  0  0  0  0  0  0  0
   -2.4850   -2.8150   -0.6430 C   0  0  0  0  0  0  0  0  0  0  0  0
   -1.6960   -1.7190   -0.8720 C   0  0  0  0  0  0  0  0  0  0  0  0
    0.9350    0.1750   -0.2990 C   0  0  0  0  0  0  0  0  0  0  0  0
    1.8430   -0.8540   -0.3300 C   0  0  0  0  0  0  0  0  0  0  0  0
  2  1  1  1
  2  3  2  0
  2  4  2  0
  2  5  1  0
  5  6  2  0
  5 23  1  0
  6  7  1  0
  7  8  2  0
  8  9  1  0
  8 22  1  0
  9 10  1  0
 10 11  1  0
 10 15  2  0
 11 12  2  0
 11 13  1  0
 13 14  1  0
 15 16  1  0
 15 22  1  0
 16 17  2  0
 16 21  1  0
 17 18  1  0
 18 19  2  0
 19 20  1  0
 20 21  2  0
 22 23  2  0
M  CHG  1  14   1
M  END
