
     RDKit          3D

 25 26  0  0  0  0  0  0  0  0999 V2000
    5.3150    2.5400   -0.9980 C   0  0  0  0  0  0  0  0  0  0  0  0
    5.4600    1.8210    0.0550 C   0  0  0  0  0  0  0  0  0  0  0  0
    6.6780    2.1470    0.8040 F   0  0  0  0  0  0  0  0  0  0  0  0
    4.6900    0.7900    0.6560 C   0  0  0  0  0  0  0  0  0  0  0  0
    3.4910    0.1500    0.3400 C   0  0  0  0  0  0  0  0  0  0  0  0
    2.5720    0.2340   -0.5710 C   0  0  0  0  0  0  0  0  0  0  0  0
    2.3600    1.0760   -1.7280 C   0  0  0  0  0  0  0  0  0  0  0  0
    0.9680    0.8590   -2.1920 C   0  0  0  0  0  0  0  0  0  0  0  0
    0.4290    1.3100   -3.2340 O   0  0  0  0  0  0  0  0  0  0  0  0
    0.3450    0.0300   -1.2190 N   0  0  0  0  0  0  0  0  0  0  0  0
   -1.0930    0.0400   -0.9630 C   0  0  2  0  0  0  0  0  0  0  0  0
   -1.4160    0.3680    0.4440 C   0  0  0  0  0  0  0  0  0  0  0  0
   -0.5210    0.3130    1.3530 O   0  0  0  0  0  0  0  0  0  0  0  0
   -2.6980    0.7510    0.8450 N   0  0  0  0  0  0  0  0  0  0  0  0
   -3.0040    1.0300    2.2520 C   0  0  0  0  0  0  0  0  0  0  0  0
   -4.0100    0.0300    2.7410 C   0  0  0  0  0  0  0  0  0  0  0  0
   -4.7750   -0.6770    1.6910 C   0  0  0  0  0  0  0  0  0  0  0  0
   -4.9230   -0.0030    0.3760 C   0  0  0  0  0  0  0  0  0  0  0  0
   -3.8540    0.9500    0.0000 C   0  0  0  0  0  0  0  0  0  0  0  0
   -1.6980   -1.3130   -1.3210 C   0  0  2  0  0  0  0  0  0  0  0  0
   -1.1260   -2.4530   -0.5460 C   0  0  0  0  0  0  0  0  0  0  0  0
   -1.5850   -1.4880   -2.8290 C   0  0  0  0  0  0  0  0  0  0  0  0
    1.3620   -0.7530   -0.5830 C   0  0  0  0  0  0  0  0  0  0  0  0
    5.2980    0.2910    1.8280 C   0  0  0  0  0  0  0  0  0  0  0  0
    4.6590   -0.7740    2.5910 C   0  0  0  0  0  0  0  0  0  0  0  0
  1  2  2  0
  2  3  1  0
  2  4  1  0
  4  5  1  0
  4 24  2  3
  5  6  2  3
  6  7  1  0
  6 23  1  0
  7  8  1  0
  8  9  2  0
  8 10  1  0
 11 10  1  1
 10 23  1  0
 11 12  1  0
 11 20  1  0
 12 13  2  0
 12 14  1  0
 14 15  1  0
 14 19  1  0
 15 16  1  0
 16 17  1  0
 17 18  1  0
 18 19  1  0
 20 21  1  1
 20 22  1  0
 24 25  1  0
M  END
