
     RDKit          3D

 25 26  0  0  0  0  0  0  0  0999 V2000
   -1.8280   -2.6980    3.1030 C   0  0  0  0  0  0  0  0  0  0  0  0
   -1.5880   -1.5910    2.4520 C   0  0  0  0  0  0  0  0  0  0  0  0
   -1.1250   -1.5990    0.9910 C   0  0  0  0  0  0  0  0  0  0  0  0
   -1.9220   -0.6580    0.1790 C   0  0  0  0  0  0  0  0  0  0  0  0
   -3.3430   -0.9320    0.0110 C   0  0  0  0  0  0  0  0  0  0  0  0
   -3.9700   -1.9250    0.5360 C   0  0  0  0  0  0  0  0  0  0  0  0
   -5.4600   -2.0130    0.2260 C   0  0  0  0  0  0  0  0  0  0  0  0
   -1.4550    0.4020   -0.4760 C   0  0  0  0  0  0  0  0  0  0  0  0
   -2.4370    1.2270   -1.1960 N   0  0  0  0  0  0  0  0  0  0  0  0
   -2.4160    2.5600   -1.0700 C   0  0  0  0  0  0  0  0  0  0  0  0
   -1.5300    3.3990   -0.2920 C   0  0  0  0  0  0  0  0  0  0  0  0
   -0.2590    3.1240    0.0660 C   0  0  0  0  0  0  0  0  0  0  0  0
    0.3650    4.0890    0.8080 O   0  0  0  0  0  0  0  0  0  0  0  0
   -0.2070    4.8700    1.8110 C   0  0  0  0  0  0  0  0  0  0  0  0
   -0.6800    4.0540    2.8200 F   0  0  0  0  0  0  0  0  0  0  0  0
    0.4850    1.8770   -0.2840 C   0  0  0  0  0  0  0  0  0  0  0  0
   -0.0210    0.6740   -0.5320 C   0  0  0  0  0  0  0  0  0  0  0  0
    0.8310   -0.4040   -0.8970 C   0  0  0  0  0  0  0  0  0  0  0  0
    0.2250   -1.5100   -1.2780 O   0  0  0  0  0  0  0  0  0  0  0  0
    2.2110   -0.5420   -0.9360 N   0  0  0  0  0  0  0  0  0  0  0  0
    2.7530   -1.8340   -1.4360 C   0  0  0  0  0  0  0  0  0  0  0  0
    3.8130   -1.5480   -2.4760 C   0  0  0  0  0  0  0  0  0  0  0  0
    5.0070   -0.8610   -1.8210 C   0  0  0  0  0  0  0  0  0  0  0  0
    4.5860   -0.3740   -0.4690 C   0  0  0  0  0  0  0  0  0  0  0  0
    3.2340    0.3720   -0.5270 C   0  0  0  0  0  0  0  0  0  0  0  0
  1  2  2  0
  2  3  1  0
  3  4  1  0
  4  5  1  0
  4  8  2  3
  5  6  2  3
  6  7  1  0
  8  9  1  0
  8 17  1  0
  9 10  2  0
 10 11  1  0
 11 12  2  0
 12 13  1  0
 12 16  1  0
 13 14  1  0
 14 15  1  0
 16 17  2  0
 17 18  1  0
 18 19  2  0
 18 20  1  0
 20 21  1  0
 20 25  1  0
 21 22  1  0
 22 23  1  0
 23 24  1  0
 24 25  1  0
M  END
