
     RDKit          3D

 25 26  0  0  0  0  0  0  0  0999 V2000
    2.3080   -0.2180    5.2090 C   0  0  0  0  0  0  0  0  0  0  0  0
    1.1720   -0.3040    4.3080 C   0  0  0  0  0  0  0  0  0  0  0  0
    1.2340   -0.0560    3.0000 C   0  0  0  0  0  0  0  0  0  0  0  0
    0.0860   -0.1500    2.0740 C   0  0  0  0  0  0  0  0  0  0  0  0
    0.4300    0.1530    0.8350 C   0  0  0  0  0  0  0  0  0  0  0  0
   -0.5860    0.1240   -0.2700 C   0  0  0  0  0  0  0  0  0  0  0  0
   -0.3250    0.4870   -1.4870 C   0  0  0  0  0  0  0  0  0  0  0  0
    0.7490    0.9770   -2.2200 N   0  0  0  0  0  0  0  0  0  0  0  0
    1.3620    2.2360   -1.9370 C   0  0  0  0  0  0  0  0  0  0  0  0
    1.2260    0.1960   -3.3660 C   0  0  0  0  0  0  0  0  0  0  0  0
    0.1190    0.1170   -4.2370 O   0  0  0  0  0  0  0  0  0  0  0  0
   -1.9320   -0.2980    0.0440 C   0  0  0  0  0  0  0  0  0  0  0  0
   -2.0320   -0.7210    1.2930 O   0  0  0  0  0  0  0  0  0  0  0  0
   -3.1410   -0.3690   -0.6340 N   0  0  0  0  0  0  0  0  0  0  0  0
   -4.2860   -0.9920    0.1910 C   0  0  0  0  0  0  0  0  0  0  0  0
   -4.2920   -2.4630   -0.0240 C   0  0  0  0  0  0  0  0  0  0  0  0
   -3.5170    0.0570   -1.9190 C   0  0  0  0  0  0  0  0  0  0  0  0
   -3.3530   -0.9430   -3.0400 C   0  0  0  0  0  0  0  0  0  0  0  0
    1.8320    0.4410    0.8030 C   0  0  2  0  0  0  0  0  0  0  0  0
    2.8190   -0.1760   -0.0680 C   0  0  0  0  0  0  0  0  0  0  0  0
    4.1440    0.5840    0.1060 C   0  0  0  0  0  0  0  0  0  0  0  0
    4.4410    1.0700    1.2860 C   0  0  0  0  0  0  0  0  0  0  0  0
    3.5430    0.9260    2.4020 C   0  0  0  0  0  0  0  0  0  0  0  0
    3.8390    1.3980    3.6510 F   0  0  0  0  0  0  0  0  0  0  0  0
    2.3650    0.3350    2.2570 C   0  0  0  0  0  0  0  0  0  0  0  0
  1  2  1  0
  2  3  2  3
  3  4  1  0
  3 25  1  0
  4  5  2  0
  5  6  1  0
  5 19  1  0
  6  7  2  3
  6 12  1  0
  7  8  1  0
  8  9  1  0
  8 10  1  0
 10 11  1  0
 12 13  2  0
 12 14  1  0
 14 15  1  0
 14 17  1  0
 15 16  1  0
 17 18  1  0
 19 20  1  6
 19 25  1  0
 20 21  1  0
 21 22  2  0
 22 23  1  0
 23 24  1  0
 23 25  2  0
M  END
