
     RDKit          3D

 25 27  0  0  0  0  0  0  0  0999 V2000
   -5.3930   -1.3760   -1.2110 C   0  0  0  0  0  0  0  0  0  0  0  0
   -4.6530   -0.5390   -0.5020 C   0  0  0  0  0  0  0  0  0  0  0  0
   -3.1960   -0.4680   -0.7880 C   0  0  2  0  0  0  0  0  0  0  0  0
   -2.3940   -0.8550    0.4110 C   0  0  0  0  0  0  0  0  0  0  0  0
   -2.5820   -2.1770    1.0500 C   0  0  0  0  0  0  0  0  0  0  0  0
   -1.8320   -2.7170    2.1750 C   0  0  0  0  0  0  0  0  0  0  0  0
   -3.4980   -2.9390    0.5690 O   0  0  0  0  0  0  0  0  0  0  0  0
   -1.5460    0.1030    0.7230 C   0  0  0  0  0  0  0  0  0  0  0  0
   -0.5780    0.1020    1.8540 C   0  0  0  0  0  0  0  0  0  0  0  0
    0.8460   -0.1410    1.4890 C   0  0  0  0  0  0  0  0  0  0  0  0
    1.5020    0.8520    0.5790 C   0  0  1  0  0  0  0  0  0  0  0  0
    1.4880    2.1990    1.2440 C   0  0  0  0  0  0  0  0  0  0  0  0
    2.7670    0.4150    0.1540 N   0  0  0  0  0  0  0  0  0  0  0  0
    3.8030    0.1900    1.0730 C   0  0  0  0  0  0  0  0  0  0  0  0
    5.1870    0.3700    0.4910 C   0  0  0  0  0  0  0  0  0  0  0  0
    5.1290   -0.0240   -0.9610 C   0  0  1  0  0  0  0  0  0  0  0  0
    6.3620   -0.6290   -1.2440 F   0  0  0  0  0  0  0  0  0  0  0  0
    4.0790   -1.0650   -1.2750 C   0  0  0  0  0  0  0  0  0  0  0  0
    2.7030   -0.6200   -0.8170 C   0  0  0  0  0  0  0  0  0  0  0  0
   -1.7500    1.2060   -0.2230 C   0  0  0  0  0  0  0  0  0  0  0  0
   -1.3460    2.4500   -0.5490 N   0  0  0  0  0  0  0  0  0  0  0  0
   -2.0270    2.8520   -1.5490 O   0  0  0  0  0  0  0  0  0  0  0  0
   -2.8800    1.9780   -1.9480 C   0  0  0  0  0  0  0  0  0  0  0  0
   -3.8230    2.0970   -3.0610 C   0  0  0  0  0  0  0  0  0  0  0  0
   -2.7400    0.8790   -1.1120 C   0  0  0  0  0  0  0  0  0  0  0  0
  1  2  2  0
  3  2  1  1
  3  4  1  0
  3 25  1  0
  4  5  1  0
  4  8  2  0
  5  6  1  0
  5  7  2  0
  8  9  1  0
  8 20  1  0
  9 10  1  0
 10 11  1  0
 11 12  1  1
 11 13  1  0
 13 14  1  0
 13 19  1  0
 14 15  1  0
 15 16  1  0
 16 17  1  1
 16 18  1  0
 18 19  1  0
 20 21  2  0
 20 25  1  0
 21 22  1  0
 22 23  1  0
 23 24  1  0
 23 25  2  0
M  END
