
     RDKit          3D

 19 19  0  0  0  0  0  0  0  0999 V2000
    6.2000   -1.1350   -1.6250 C   0  0  0  0  0  0  0  0  0  0  0  0
    5.2950   -0.0800   -1.5030 O   0  0  0  0  0  0  0  0  0  0  0  0
    4.1830   -0.0450   -0.6850 C   0  0  0  0  0  0  0  0  0  0  0  0
    3.8480   -1.1130    0.1340 C   0  0  0  0  0  0  0  0  0  0  0  0
    2.7460   -1.0820    0.9460 C   0  0  0  0  0  0  0  0  0  0  0  0
    1.9010    0.0480    0.9810 C   0  0  0  0  0  0  0  0  0  0  0  0
    0.5330    0.0130    2.0710 S   0  0  0  0  0  0  0  0  0  0  0  0
   -0.7130    1.2450    1.9040 C   0  0  0  0  0  0  0  0  0  0  0  0
   -1.5510    1.0420    0.6510 C   0  0  0  0  0  0  0  0  0  0  0  0
   -2.2030   -0.2990    0.7850 C   0  0  0  0  0  0  0  0  0  0  0  0
   -2.0230   -0.9760    1.8250 O   0  0  0  0  0  0  0  0  0  0  0  0
   -3.0280   -0.8680   -0.2070 N   0  0  0  0  0  0  0  0  0  0  0  0
   -3.6420   -2.1580   -0.0770 C   0  0  0  0  0  0  0  0  0  0  0  0
   -3.2840   -0.1280   -1.4220 C   0  0  0  0  0  0  0  0  0  0  0  0
   -4.5220    0.6940   -1.2290 C   0  0  0  0  0  0  0  0  0  0  0  0
   -5.5850   -0.1940   -0.9490 O   0  0  0  0  0  0  0  0  0  0  0  0
    2.2570    1.0760    0.1690 C   0  0  0  0  0  0  0  0  0  0  0  0
    1.4960    2.2690    0.1730 N   0  0  0  0  0  0  0  0  0  0  0  0
    3.3800    1.0680   -0.6710 C   0  0  0  0  0  0  0  0  0  0  0  0
  1  2  1  0
  2  3  1  0
  3  4  2  0
  3 19  1  0
  4  5  1  0
  5  6  2  0
  6  7  1  0
  6 17  1  0
  7  8  1  0
  8  9  1  0
  9 10  1  0
 10 11  2  0
 10 12  1  0
 12 13  1  0
 12 14  1  0
 14 15  1  0
 15 16  1  0
 17 18  1  0
 17 19  2  0
M  END
