
     RDKit          3D

 19 19  0  0  0  0  0  0  0  0999 V2000
    3.7900    1.1930   -2.4660 C   0  0  0  0  0  0  0  0  0  0  0  0
    4.5080    0.5690   -1.5320 C   0  0  0  0  0  0  0  0  0  0  0  0
    3.8700   -0.3310   -0.5940 C   0  0  0  0  0  0  0  0  0  0  0  0
    4.5930   -0.9370    0.3190 C   0  0  0  0  0  0  0  0  0  0  0  0
    6.0570   -0.7160    0.4070 C   0  0  0  0  0  0  0  0  0  0  0  0
    2.5060   -0.5710   -0.6340 O   0  0  0  0  0  0  0  0  0  0  0  0
    1.6370    0.2690    0.0620 C   0  0  0  0  0  0  0  0  0  0  0  0
    0.2450   -0.2010   -0.1430 C   0  0  0  0  0  0  0  0  0  0  0  0
    0.0370   -1.2220   -0.8640 O   0  0  0  0  0  0  0  0  0  0  0  0
   -0.8480    0.4780    0.4590 N   0  0  0  0  0  0  0  0  0  0  0  0
   -2.1780    0.0240    0.2600 C   0  0  0  0  0  0  0  0  0  0  0  0
   -2.5480   -1.3930   -0.7340 S   0  0  0  0  0  0  0  0  0  0  0  0
   -4.3320   -1.3030   -0.4930 C   0  0  0  0  0  0  0  0  0  0  0  0
   -5.3030   -2.2570   -1.0910 C   0  0  0  0  0  0  0  0  0  0  0  0
   -4.4800   -0.2380    0.2960 C   0  0  0  0  0  0  0  0  0  0  0  0
   -3.3700    0.4470    0.6840 C   0  0  0  0  0  0  0  0  0  0  0  0
   -3.4760    1.6520    1.5710 C   0  0  0  0  0  0  0  0  0  0  0  0
   -4.7340    2.1290    2.0410 N   0  0  0  0  0  0  0  0  0  0  0  0
   -2.4650    2.2940    1.9370 O   0  0  0  0  0  0  0  0  0  0  0  0
  1  2  2  0
  2  3  1  0
  3  4  2  3
  3  6  1  0
  4  5  1  0
  6  7  1  0
  7  8  1  0
  8  9  2  0
  8 10  1  0
 10 11  1  0
 11 12  1  0
 11 16  2  0
 12 13  1  0
 13 14  1  0
 13 15  2  0
 15 16  1  0
 16 17  1  0
 17 18  1  0
 17 19  2  0
M  END
