
     RDKit          3D

 19 19  0  0  0  0  0  0  0  0999 V2000
    3.8250    1.0980   -1.7540 C   0  0  0  0  0  0  0  0  0  0  0  0
    4.9900    0.3150   -1.2220 C   0  0  0  0  0  0  0  0  0  0  0  0
    4.8360   -0.1350    0.1870 C   0  0  0  0  0  0  0  0  0  0  0  0
    3.6910   -1.0220    0.4850 C   0  0  0  0  0  0  0  0  0  0  0  0
    2.4330   -0.4200    0.2310 O   0  0  0  0  0  0  0  0  0  0  0  0
    1.2770   -1.1140    0.4350 C   0  0  0  0  0  0  0  0  0  0  0  0
    1.3630   -2.2870    0.8400 O   0  0  0  0  0  0  0  0  0  0  0  0
   -0.0690   -0.5410    0.1990 C   0  0  0  0  0  0  0  0  0  0  0  0
   -0.1490    0.7740   -0.2410 C   0  0  0  0  0  0  0  0  0  0  0  0
    0.8870    1.6960   -0.4930 N   0  0  0  0  0  0  0  0  0  0  0  0
   -1.8770    1.0410   -0.4050 S   0  0  0  0  0  0  0  0  0  0  0  0
   -2.3890   -0.5830    0.1120 C   0  0  0  0  0  0  0  0  0  0  0  0
   -3.7530   -1.1000    0.2070 C   0  0  0  0  0  0  0  0  0  0  0  0
   -3.9380   -2.3220    0.5680 O   0  0  0  0  0  0  0  0  0  0  0  0
   -4.9650   -0.3420   -0.0770 C   0  0  0  0  0  0  0  0  0  0  0  0
   -4.8500    1.1530   -0.0470 C   0  0  0  0  0  0  0  0  0  0  0  0
   -4.4100    1.5770    1.3380 C   0  0  0  0  0  0  0  0  0  0  0  0
   -1.2060   -1.2190    0.3750 C   0  0  0  0  0  0  0  0  0  0  0  0
   -1.2660   -2.6100    0.8350 N   0  0  0  0  0  0  0  0  0  0  0  0
  1  2  1  0
  2  3  1  0
  3  4  1  0
  4  5  1  0
  5  6  1  0
  6  7  2  0
  6  8  1  0
  8  9  2  0
  8 18  1  0
  9 10  1  0
  9 11  1  0
 11 12  1  0
 12 13  1  0
 12 18  2  0
 13 14  2  0
 13 15  1  0
 15 16  1  0
 16 17  1  0
 18 19  1  0
M  END
