
     RDKit          3D

 16 17  0  0  0  0  0  0  0  0999 V2000
   -2.1700   -2.4210    1.6890 O   0  0  0  0  0  0  0  0  0  0  0  0
   -2.9560   -1.4920    1.4600 C   0  0  0  0  0  0  0  0  0  0  0  0
   -4.2500   -1.7130    2.0010 O   0  0  0  0  0  0  0  0  0  0  0  0
   -2.7040   -0.2630    0.7330 C   0  0  0  0  0  0  0  0  0  0  0  0
   -3.7520    0.6760    0.6010 C   0  0  0  0  0  0  0  0  0  0  0  0
   -3.5540    1.8550   -0.0690 C   0  0  0  0  0  0  0  0  0  0  0  0
   -2.3490    2.1900   -0.6430 C   0  0  0  0  0  0  0  0  0  0  0  0
   -1.3330    1.2820   -0.5170 C   0  0  0  0  0  0  0  0  0  0  0  0
   -1.5040    0.0670    0.1630 C   0  0  0  0  0  0  0  0  0  0  0  0
   -0.4240   -0.8570    0.2370 N   0  0  0  0  0  0  0  0  0  0  0  0
    0.8850   -0.4170   -0.2430 C   0  0  1  0  0  0  0  0  0  0  0  0
    1.5110    0.6380    0.6340 C   0  0  0  0  0  0  0  0  0  0  0  0
    2.7030    1.1740   -0.1660 C   0  0  0  0  0  0  0  0  0  0  0  0
    3.7030    0.0450   -0.3050 C   0  0  0  0  0  0  0  0  0  0  0  0
    3.0840   -1.0920   -1.0440 C   0  0  0  0  0  0  0  0  0  0  0  0
    1.8750   -1.5850   -0.2440 C   0  0  0  0  0  0  0  0  0  0  0  0
  1  2  2  0
  2  3  1  0
  2  4  1  0
  4  5  2  0
  4  9  1  0
  5  6  1  0
  6  7  2  0
  7  8  1  0
  8  9  2  0
  9 10  1  0
 11 10  1  1
 11 12  1  0
 11 16  1  0
 12 13  1  0
 13 14  1  0
 14 15  1  0
 15 16  1  0
M  END
