
     RDKit          3D

 22 24  0  0  0  0  0  0  0  0999 V2000
    6.0890    1.4700   -1.1430 O   0  0  0  0  0  0  0  0  0  0  0  0
    6.2010    0.0910   -0.9530 C   0  0  0  0  0  0  0  0  0  0  0  0
    4.9010   -0.5450   -0.5810 C   0  0  0  0  0  0  0  0  0  0  0  0
    4.8400   -1.9100   -0.7340 C   0  0  0  0  0  0  0  0  0  0  0  0
    3.6840   -2.5640   -0.3650 C   0  0  0  0  0  0  0  0  0  0  0  0
    2.6210   -1.8640    0.1450 C   0  0  0  0  0  0  0  0  0  0  0  0
    1.4610   -2.4890    0.5180 O   0  0  0  0  0  0  0  0  0  0  0  0
    2.6530   -0.4800    0.3110 C   0  0  0  0  0  0  0  0  0  0  0  0
    1.5800    0.2610    0.9780 C   0  0  0  0  0  0  0  0  0  0  0  0
    0.3060    0.1760    0.4750 N   0  0  0  0  0  0  0  0  0  0  0  0
   -0.1550    0.4700   -0.7890 C   0  0  0  0  0  0  0  0  0  0  0  0
   -1.5330    1.1100   -0.8380 C   0  0  0  0  0  0  0  0  0  0  0  0
   -2.5060    0.5040    0.0570 N   0  0  0  0  0  0  0  0  0  0  0  0
   -3.9230    0.5450   -0.0990 C   0  0  0  0  0  0  0  0  0  0  0  0
   -4.5810    1.3290   -1.0140 C   0  0  0  0  0  0  0  0  0  0  0  0
   -5.9620    1.3150   -1.0400 C   0  0  0  0  0  0  0  0  0  0  0  0
   -6.7050    0.5390   -0.1790 C   0  0  0  0  0  0  0  0  0  0  0  0
   -6.0010   -0.2360    0.7250 C   0  0  0  0  0  0  0  0  0  0  0  0
   -4.6570   -0.2050    0.7320 N   0  0  0  0  0  0  0  0  0  0  0  0
   -1.9580   -0.1780    1.2420 C   0  0  0  0  0  0  0  0  0  0  0  0
   -0.6470    0.5350    1.5130 C   0  0  0  0  0  0  0  0  0  0  0  0
    3.8280    0.1430   -0.0750 C   0  0  0  0  0  0  0  0  0  0  0  0
  1  2  1  0
  2  3  1  0
  3  4  2  0
  3 22  1  0
  4  5  1  0
  5  6  2  0
  6  7  1  0
  6  8  1  0
  8  9  1  0
  8 22  2  0
  9 10  1  0
 10 11  1  0
 10 21  1  0
 11 12  1  0
 12 13  1  0
 13 14  1  0
 13 20  1  0
 14 15  2  0
 14 19  1  0
 15 16  1  0
 16 17  2  0
 17 18  1  0
 18 19  2  0
 20 21  1  0
M  CHG  1  19   1
M  END
