
     RDKit          3D

 22 24  0  0  0  0  0  0  0  0999 V2000
   -1.8870    0.8640    2.6240 C   0  0  0  0  0  0  0  0  0  0  0  0
   -2.2470    0.4600    1.2590 C   0  0  0  0  0  0  0  0  0  0  0  0
   -1.3550    0.3600    0.1730 C   0  0  0  0  0  0  0  0  0  0  0  0
    0.0800    0.6230    0.1390 C   0  0  0  0  0  0  0  0  0  0  0  0
    0.8790   -0.4750    0.7650 C   0  0  0  0  0  0  0  0  0  0  0  0
    0.2440   -1.4290    1.2130 O   0  0  0  0  0  0  0  0  0  0  0  0
    2.2950   -0.4290    0.8440 N   0  0  0  0  0  0  0  0  0  0  0  0
    2.9180    0.3370   -0.1890 C   0  0  1  0  0  0  0  0  0  0  0  0
    2.8820    1.8260    0.0680 C   0  0  0  0  0  0  0  0  0  0  0  0
    4.3440   -0.0930   -0.4610 C   0  0  2  0  0  0  0  0  0  0  0  0
    4.4320   -1.5350   -0.8930 C   0  0  0  0  0  0  0  0  0  0  0  0
    5.2430    0.1280    0.7200 C   0  0  0  0  0  0  0  0  0  0  0  0
   -2.0980   -0.0520   -0.9280 C   0  0  0  0  0  0  0  0  0  0  0  0
   -1.8820   -0.3430   -2.2750 C   0  0  0  0  0  0  0  0  0  0  0  0
   -0.7330   -0.2330   -2.7100 O   0  0  0  0  0  0  0  0  0  0  0  0
   -2.9680   -0.7280   -3.0060 N   0  0  0  0  0  0  0  0  0  0  0  0
   -4.2170   -0.8390   -2.4990 C   0  0  0  0  0  0  0  0  0  0  0  0
   -4.4390   -0.5450   -1.1350 C   0  0  0  0  0  0  0  0  0  0  0  0
   -3.3480   -0.1690   -0.4450 C   0  0  0  0  0  0  0  0  0  0  0  0
   -3.4910    0.1190    0.8300 N   0  0  0  0  0  0  0  0  0  0  0  0
   -4.9100   -0.0690    1.1610 C   0  0  0  0  0  0  0  0  0  0  0  0
   -5.5380   -0.5160   -0.1740 C   0  0  0  0  0  0  0  0  0  0  0  0
  1  2  1  0
  2  3  2  0
  2 20  1  0
  3  4  1  0
  3 13  1  0
  4  5  1  0
  5  6  2  0
  5  7  1  0
  7  8  1  0
  8  9  1  1
  8 10  1  0
 10 11  1  1
 10 12  1  0
 13 14  1  0
 13 19  2  0
 14 15  2  0
 14 16  1  0
 16 17  1  0
 17 18  2  0
 18 19  1  0
 18 22  1  0
 19 20  1  0
 20 21  1  0
 21 22  1  0
M  CHG  1   7   1
M  END
