
     RDKit          3D

 21 21  0  0  0  0  0  0  0  0999 V2000
    5.2680    0.9560   -1.1670 O   0  0  0  0  0  0  0  0  0  0  0  0
    4.9390    0.5770   -0.0140 C   0  0  0  0  0  0  0  0  0  0  0  0
    5.9390    0.3750    0.9160 O   0  0  0  0  0  0  0  0  0  0  0  0
    3.5710    0.3590    0.3290 N   0  0  0  0  0  0  0  0  0  0  0  0
    2.5240    0.5670   -0.6320 C   0  0  0  0  0  0  0  0  0  0  0  0
    2.9110    0.9470   -1.7730 O   0  0  0  0  0  0  0  0  0  0  0  0
    1.1070    0.3490   -0.3030 C   0  0  2  0  0  0  0  0  0  0  0  0
    0.7210    1.2700    0.8400 C   0  0  1  0  0  0  0  0  0  0  0  0
    0.9210    2.5740    0.3850 O   0  0  0  0  0  0  0  0  0  0  0  0
   -0.7110    1.1390    1.2450 C   0  0  0  0  0  0  0  0  0  0  0  0
   -1.3190   -0.0960    0.6170 C   0  0  2  0  0  0  0  0  0  0  0  0
   -2.6340   -0.2850    0.9350 O   0  0  0  0  0  0  0  0  0  0  0  0
   -3.5430   -0.2180   -0.0670 C   0  0  1  0  0  0  0  0  0  0  0  0
   -4.3060   -1.3290   -0.2820 O   0  0  0  0  0  0  0  0  0  0  0  0
   -4.3980    1.0330    0.1620 C   0  0  0  0  0  0  0  0  0  0  0  0
   -5.3590    1.1920   -0.8100 O   0  0  0  0  0  0  0  0  0  0  0  0
   -0.4130   -1.2410    0.9100 C   0  0  0  0  0  0  0  0  0  0  0  0
    0.8140   -1.1070    0.0270 C   0  0  2  0  0  0  0  0  0  0  0  0
    1.9120   -1.7330    0.6040 O   0  0  0  0  0  0  0  0  0  0  0  0
    0.4500   -1.7800   -1.3000 C   0  0  0  0  0  0  0  0  0  0  0  0
    1.5010   -1.7120   -2.1830 O   0  0  0  0  0  0  0  0  0  0  0  0
  1  2  2  0
  2  3  1  0
  2  4  1  0
  4  5  1  0
  5  6  2  0
  7  5  1  1
  7  8  1  0
  7 18  1  0
  8  9  1  6
  8 10  1  0
 10 11  1  0
 11 12  1  1
 11 17  1  0
 12 13  1  0
 13 14  1  1
 13 15  1  0
 15 16  1  0
 17 18  1  0
 18 19  1  1
 18 20  1  0
 20 21  1  0
M  END
