
     RDKit          3D

 21 21  0  0  0  0  0  0  0  0999 V2000
   -2.6620   -2.4840   -1.0770 C   0  0  0  0  0  0  0  0  0  0  0  0
   -1.8260   -1.7690   -0.0310 C   0  0  2  0  0  0  0  0  0  0  0  0
   -1.4740   -2.7510    0.9160 O   0  0  0  0  0  0  0  0  0  0  0  0
   -2.6040   -0.7810    0.5050 O   0  0  0  0  0  0  0  0  0  0  0  0
   -2.0070    0.0330    1.4420 C   0  0  0  0  0  0  0  0  0  0  0  0
   -0.5200   -0.0230    1.4420 C   0  0  2  0  0  0  0  0  0  0  0  0
   -0.0000    0.9590    2.2350 O   0  0  0  0  0  0  0  0  0  0  0  0
   -0.0390   -0.0190    0.0110 C   0  0  2  0  0  0  0  0  0  0  0  0
    1.4070    0.2490   -0.1310 C   0  0  0  0  0  0  0  0  0  0  0  0
    2.3650   -0.6620    0.5320 C   0  0  0  0  0  0  0  0  0  0  0  0
    3.7520   -0.1450    0.2320 C   0  0  0  0  0  0  0  0  0  0  0  0
    3.9160    0.8820   -0.4670 O   0  0  0  0  0  0  0  0  0  0  0  0
    4.8760   -0.7850    0.7150 O   0  0  0  0  0  0  0  0  0  0  0  0
    6.0940   -0.2870    0.4210 O   0  0  0  0  0  0  0  0  0  0  0  0
   -0.7440    1.1120   -0.7560 C   0  0  0  0  0  0  0  0  0  0  0  0
   -0.4910    2.4070   -0.2200 N   0  0  0  0  0  0  0  0  0  0  0  0
   -1.1080    3.5130   -0.8660 C   0  0  0  0  0  0  0  0  0  0  0  0
   -1.8570    3.3810   -1.8770 O   0  0  0  0  0  0  0  0  0  0  0  0
   -0.9030    4.8070   -0.3930 O   0  0  0  0  0  0  0  0  0  0  0  0
   -0.5220   -1.2820   -0.6390 C   0  0  1  0  0  0  0  0  0  0  0  0
    0.4060   -2.3040   -0.6470 O   0  0  0  0  0  0  0  0  0  0  0  0
  2  1  1  6
  2  3  1  0
  2  4  1  0
  2 20  1  0
  4  5  1  0
  5  6  1  0
  6  7  1  1
  6  8  1  0
  8  9  1  1
  8 15  1  0
  8 20  1  0
  9 10  1  0
 10 11  1  0
 11 12  2  0
 11 13  1  0
 13 14  1  0
 15 16  1  0
 16 17  1  0
 17 18  2  0
 17 19  1  0
 20 21  1  1
M  END
