
     RDKit          3D

 20 20  0  0  0  0  0  0  0  0999 V2000
    4.0400    1.4560   -1.6330 C   0  0  0  0  0  0  0  0  0  0  0  0
    3.6710    0.2370   -1.0410 O   0  0  0  0  0  0  0  0  0  0  0  0
    2.3740    0.4460   -0.4870 C   0  0  0  0  0  0  0  0  0  0  0  0
    1.8620   -0.7620    0.1700 C   0  0  0  0  0  0  0  0  0  0  0  0
    0.5400   -0.7540    0.8270 C   0  0  1  0  0  0  0  0  0  0  0  0
    0.4450   -2.0970    1.3610 O   0  0  0  0  0  0  0  0  0  0  0  0
    0.4530    0.1120    2.0440 C   0  0  0  0  0  0  0  0  0  0  0  0
    1.5150   -0.1240    2.9300 O   0  0  0  0  0  0  0  0  0  0  0  0
   -0.6700   -0.6740   -0.0430 C   0  0  1  0  0  0  0  0  0  0  0  0
   -0.6580   -1.8820   -0.9650 C   0  0  0  0  0  0  0  0  0  0  0  0
   -0.6890   -3.1800   -0.3980 N   0  0  0  0  0  0  0  0  0  0  0  0
   -0.6230   -1.7630   -2.1990 O   0  0  0  0  0  0  0  0  0  0  0  0
   -1.8700   -0.8610    0.9100 C   0  0  0  0  0  0  0  0  0  0  0  0
   -2.3070    0.2920    1.4890 O   0  0  0  0  0  0  0  0  0  0  0  0
   -2.7210    1.2920    0.6560 C   0  0  2  0  0  0  0  0  0  0  0  0
   -4.0820    1.4910    0.7840 O   0  0  0  0  0  0  0  0  0  0  0  0
   -2.3680    0.9270   -0.7590 C   0  0  1  0  0  0  0  0  0  0  0  0
   -2.6020    1.9810   -1.6430 O   0  0  0  0  0  0  0  0  0  0  0  0
   -0.8870    0.5210   -0.8590 C   0  0  2  0  0  0  0  0  0  0  0  0
   -0.6780    0.3380   -2.2360 O   0  0  0  0  0  0  0  0  0  0  0  0
  1  2  1  0
  2  3  1  0
  3  4  1  0
  4  5  1  0
  5  6  1  1
  5  7  1  0
  5  9  1  0
  7  8  1  0
  9 10  1  6
  9 13  1  0
  9 19  1  0
 10 11  1  0
 10 12  2  0
 13 14  1  0
 14 15  1  0
 15 16  1  6
 15 17  1  0
 17 18  1  6
 17 19  1  0
 19 20  1  6
M  END
