
     RDKit          3D

 21 21  0  0  0  0  0  0  0  0999 V2000
   -2.4770   -3.3640    0.9490 C   0  0  0  0  0  0  0  0  0  0  0  0
   -1.8510   -2.0140    1.0530 C   0  0  0  0  0  0  0  0  0  0  0  0
   -1.5660   -1.5520    2.2040 O   0  0  0  0  0  0  0  0  0  0  0  0
   -1.5560   -1.2150   -0.0820 N   0  0  0  0  0  0  0  0  0  0  0  0
   -0.9580    0.0620    0.1000 C   0  0  2  0  0  0  0  0  0  0  0  0
   -1.9300    1.1270   -0.4330 C   0  0  1  0  0  0  0  0  0  0  0  0
   -3.2030    0.9530    0.0660 O   0  0  0  0  0  0  0  0  0  0  0  0
   -1.3250    2.4560   -0.0480 C   0  0  0  0  0  0  0  0  0  0  0  0
    0.0380    2.5290   -0.7230 C   0  0  1  0  0  0  0  0  0  0  0  0
   -0.0880    2.3890   -2.1100 O   0  0  0  0  0  0  0  0  0  0  0  0
    0.6250    3.8320   -0.3810 C   0  0  0  0  0  0  0  0  0  0  0  0
    0.9400    4.6460   -1.2780 O   0  0  0  0  0  0  0  0  0  0  0  0
    0.8330    4.1660    0.9380 O   0  0  0  0  0  0  0  0  0  0  0  0
    0.8480    1.4900   -0.2780 O   0  0  0  0  0  0  0  0  0  0  0  0
    0.3130    0.2680   -0.6770 C   0  0  1  0  0  0  0  0  0  0  0  0
    1.2890   -0.8620   -0.5370 C   0  0  2  0  0  0  0  0  0  0  0  0
    0.7160   -2.0400   -0.9410 O   0  0  0  0  0  0  0  0  0  0  0  0
    1.8500   -0.9880    0.8530 C   0  0  2  0  0  0  0  0  0  0  0  0
    2.4290    0.2090    1.2560 O   0  0  0  0  0  0  0  0  0  0  0  0
    2.9450   -2.0420    0.8030 C   0  0  0  0  0  0  0  0  0  0  0  0
    3.9460   -1.6920   -0.0910 O   0  0  0  0  0  0  0  0  0  0  0  0
  1  2  1  0
  2  3  2  0
  2  4  1  0
  5  4  1  6
  5  6  1  0
  5 15  1  0
  6  7  1  1
  6  8  1  0
  8  9  1  0
  9 10  1  6
  9 11  1  0
  9 14  1  0
 11 12  2  0
 11 13  1  0
 15 14  1  1
 15 16  1  0
 16 17  1  1
 16 18  1  0
 18 19  1  6
 18 20  1  0
 20 21  1  0
M  END
