
     RDKit          3D

 20 20  0  0  0  0  0  0  0  0999 V2000
    3.8240    0.0410   -1.8490 N   0  0  0  0  0  0  0  0  0  0  0  0
    3.5310   -0.3300   -0.4540 C   0  0  1  0  0  0  0  0  0  0  0  0
    3.8390    0.7040    0.3930 O   0  0  0  0  0  0  0  0  0  0  0  0
    4.8170    0.3410    1.3170 C   0  0  0  0  0  0  0  0  0  0  0  0
    6.0010   -0.0420    0.6680 O   0  0  0  0  0  0  0  0  0  0  0  0
    2.0750   -0.7120   -0.4250 C   0  0  1  0  0  0  0  0  0  0  0  0
    1.7710   -1.7650   -1.2480 O   0  0  0  0  0  0  0  0  0  0  0  0
    1.5210   -0.9540    0.9400 C   0  0  0  0  0  0  0  0  0  0  0  0
    0.2510   -0.4170    0.9900 O   0  0  0  0  0  0  0  0  0  0  0  0
   -0.1170    0.0270   -0.2530 C   0  0  1  0  0  0  0  0  0  0  0  0
   -1.0960    1.1780   -0.1660 C   0  0  0  0  0  0  0  0  0  0  0  0
   -2.3360    0.6770    0.5830 C   0  0  1  0  0  0  0  0  0  0  0  0
   -1.9030    0.2700    1.8480 O   0  0  0  0  0  0  0  0  0  0  0  0
   -3.2340    1.8860    0.7390 C   0  0  0  0  0  0  0  0  0  0  0  0
   -2.4420    2.8760    1.3560 O   0  0  0  0  0  0  0  0  0  0  0  0
   -2.9550   -0.3300   -0.1280 O   0  0  0  0  0  0  0  0  0  0  0  0
   -4.0700   -0.8250    0.5040 C   0  0  0  0  0  0  0  0  0  0  0  0
   -4.6400   -1.9240   -0.3930 C   0  0  0  0  0  0  0  0  0  0  0  0
   -4.9650   -1.3500   -1.6230 O   0  0  0  0  0  0  0  0  0  0  0  0
    1.1930    0.4620   -0.8770 C   0  0  0  0  0  0  0  0  0  0  0  0
  2  1  1  6
  2  3  1  0
  2  6  1  0
  3  4  1  0
  4  5  1  0
  6  7  1  6
  6  8  1  0
  6 20  1  0
  8  9  1  0
  9 10  1  0
 10 11  1  1
 10 20  1  0
 11 12  1  0
 12 13  1  1
 12 14  1  0
 12 16  1  0
 14 15  1  0
 16 17  1  0
 17 18  1  0
 18 19  1  0
M  END
