
     RDKit          3D

 20 20  0  0  0  0  0  0  0  0999 V2000
    5.1280    1.9150   -0.3850 O   0  0  0  0  0  0  0  0  0  0  0  0
    4.5470    0.6550   -0.5270 C   0  0  0  0  0  0  0  0  0  0  0  0
    3.5250    0.5250    0.5950 C   0  0  1  0  0  0  0  0  0  0  0  0
    2.5210    1.6280    0.4230 C   0  0  0  0  0  0  0  0  0  0  0  0
    1.5030    1.3060   -0.4630 O   0  0  0  0  0  0  0  0  0  0  0  0
    0.8050    0.2150    0.1130 C   0  0  1  0  0  0  0  0  0  0  0  0
    0.8030    0.4870    1.4960 O   0  0  0  0  0  0  0  0  0  0  0  0
   -0.5460    0.2170   -0.4710 C   0  0  1  0  0  0  0  0  0  0  0  0
   -0.4420    0.0700   -1.8510 O   0  0  0  0  0  0  0  0  0  0  0  0
   -1.5090   -0.7820    0.0860 C   0  0  0  0  0  0  0  0  0  0  0  0
   -2.8670   -0.6990   -0.5790 C   0  0  1  0  0  0  0  0  0  0  0  0
   -2.7020   -0.9500   -1.9610 O   0  0  0  0  0  0  0  0  0  0  0  0
   -3.7240   -1.7820    0.0240 C   0  0  0  0  0  0  0  0  0  0  0  0
   -3.8410   -1.5510    1.3850 O   0  0  0  0  0  0  0  0  0  0  0  0
   -3.5110    0.6310   -0.4450 C   0  0  0  0  0  0  0  0  0  0  0  0
   -3.7770    1.1040    0.8720 N   0  0  0  0  0  0  0  0  0  0  0  0
   -4.3280    2.3720    0.7680 O   0  0  0  0  0  0  0  0  0  0  0  0
    1.6420   -0.9830   -0.1120 C   0  0  0  0  0  0  0  0  0  0  0  0
    2.9290   -0.8380    0.6850 C   0  0  1  0  0  0  0  0  0  0  0  0
    3.8730   -1.7800    0.2610 O   0  0  0  0  0  0  0  0  0  0  0  0
  1  2  1  0
  3  2  1  6
  3  4  1  0
  3 19  1  0
  4  5  1  0
  5  6  1  0
  6  7  1  1
  6  8  1  0
  6 18  1  0
  8  9  1  6
  8 10  1  0
 10 11  1  0
 11 12  1  6
 11 13  1  0
 11 15  1  0
 13 14  1  0
 15 16  1  0
 16 17  1  0
 18 19  1  0
 19 20  1  6
M  END
