
     RDKit          3D

 20 21  0  0  0  0  0  0  0  0999 V2000
   -0.2290   -1.8030   -1.3910 N   0  0  0  0  0  0  0  0  0  0  0  0
   -1.3490   -1.0070   -0.8940 C   0  0  2  0  0  0  0  0  0  0  0  0
   -1.8120   -0.2560   -1.9320 O   0  0  0  0  0  0  0  0  0  0  0  0
   -0.7880   -0.1600    0.2570 C   0  0  2  0  0  0  0  0  0  0  0  0
   -1.8540    0.6600    0.9050 C   0  0  1  0  0  0  0  0  0  0  0  0
   -1.3340    1.2800    2.0190 O   0  0  0  0  0  0  0  0  0  0  0  0
   -2.5060    1.6750    0.0510 C   0  0  0  0  0  0  0  0  0  0  0  0
   -3.9430    1.1900   -0.0210 C   0  0  0  0  0  0  0  0  0  0  0  0
   -3.7970   -0.1800    0.1350 O   0  0  0  0  0  0  0  0  0  0  0  0
   -2.9940   -0.2630    1.2770 C   0  0  0  0  0  0  0  0  0  0  0  0
    0.3890    0.6300   -0.2300 C   0  0  0  0  0  0  0  0  0  0  0  0
    1.5070    0.7180    0.7560 C   0  0  2  0  0  0  0  0  0  0  0  0
    2.7080   -0.1020    0.3530 C   0  0  0  0  0  0  0  0  0  0  0  0
    3.0850    0.1880   -0.9780 O   0  0  0  0  0  0  0  0  0  0  0  0
    4.1900   -0.5680   -1.3450 C   0  0  2  0  0  0  0  0  0  0  0  0
    5.2480    0.3230   -1.5850 O   0  0  0  0  0  0  0  0  0  0  0  0
    3.9730   -1.3240   -2.4910 O   0  0  0  0  0  0  0  0  0  0  0  0
    1.1570    0.4240    2.0440 O   0  0  0  0  0  0  0  0  0  0  0  0
    0.3610   -0.6700    2.2160 C   0  0  0  0  0  0  0  0  0  0  0  0
   -0.3340   -1.1140    1.1510 O   0  0  0  0  0  0  0  0  0  0  0  0
  2  1  1  6
  2  3  1  0
  2  4  1  0
  4  5  1  0
  4 11  1  6
  4 20  1  0
  5  6  1  1
  5  7  1  0
  5 10  1  0
  7  8  1  0
  8  9  1  0
  9 10  1  0
 11 12  1  0
 12 13  1  6
 12 18  1  0
 13 14  1  0
 14 15  1  0
 15 16  1  6
 15 17  1  0
 18 19  1  0
 19 20  1  0
M  END
