
     RDKit          3D

 21 21  0  0  0  0  0  0  0  0999 V2000
    5.4660    1.1620   -2.3320 N   0  0  0  0  0  0  0  0  0  0  0  0
    4.4640    0.9470   -1.3430 C   0  0  0  0  0  0  0  0  0  0  0  0
    4.3860    1.7620   -0.3880 O   0  0  0  0  0  0  0  0  0  0  0  0
    3.5820   -0.1010   -1.3790 O   0  0  0  0  0  0  0  0  0  0  0  0
    2.5940   -0.3140   -0.4030 C   0  0  0  0  0  0  0  0  0  0  0  0
    3.1520   -0.5230    0.9680 C   0  0  2  0  0  0  0  0  0  0  0  0
    4.0080   -1.6460    0.9970 O   0  0  0  0  0  0  0  0  0  0  0  0
    2.0620   -0.8400    1.9840 C   0  0  2  0  0  0  0  0  0  0  0  0
    2.6640   -1.0150    3.2510 O   0  0  0  0  0  0  0  0  0  0  0  0
    1.2970   -1.9260    1.6380 O   0  0  0  0  0  0  0  0  0  0  0  0
   -0.0560   -1.6800    1.5100 C   0  0  0  0  0  0  0  0  0  0  0  0
   -0.3640   -0.7460    0.5550 O   0  0  0  0  0  0  0  0  0  0  0  0
   -1.7180   -0.5540    0.4830 C   0  0  2  0  0  0  0  0  0  0  0  0
   -2.2480   -0.7300   -0.9460 C   0  0  0  0  0  0  0  0  0  0  0  0
   -3.4870    0.1390   -0.9950 C   0  0  2  0  0  0  0  0  0  0  0  0
   -4.6190   -0.6570   -1.1710 O   0  0  0  0  0  0  0  0  0  0  0  0
   -3.4250    1.1340   -2.1320 C   0  0  0  0  0  0  0  0  0  0  0  0
   -4.5680    1.9290   -2.1250 O   0  0  0  0  0  0  0  0  0  0  0  0
   -3.5370    0.8960    0.3150 C   0  0  0  0  0  0  0  0  0  0  0  0
   -2.0750    0.9170    0.7110 C   0  0  2  0  0  0  0  0  0  0  0  0
   -1.3030    1.6920   -0.1360 O   0  0  0  0  0  0  0  0  0  0  0  0
  1  2  1  0
  2  3  2  0
  2  4  1  0
  4  5  1  0
  5  6  1  0
  6  7  1  6
  6  8  1  0
  8  9  1  1
  8 10  1  0
 10 11  1  0
 11 12  1  0
 13 12  1  6
 13 14  1  0
 13 20  1  0
 14 15  1  0
 15 16  1  6
 15 17  1  0
 15 19  1  0
 17 18  1  0
 19 20  1  0
 20 21  1  6
M  END
