
     RDKit          3D

 21 21  0  0  0  0  0  0  0  0999 V2000
    2.3630   -2.1750   -0.4500 C   0  0  0  0  0  0  0  0  0  0  0  0
    1.7480   -0.7820   -0.0980 C   0  0  1  0  0  0  0  0  0  0  0  0
    0.3020   -0.8950   -0.0300 C   0  0  2  0  0  0  0  0  0  0  0  0
   -0.1950   -1.2130   -1.3020 O   0  0  0  0  0  0  0  0  0  0  0  0
   -0.4910    0.1200    0.7070 C   0  0  0  0  0  0  0  0  0  0  0  0
   -1.9790   -0.2110    0.6460 C   0  0  2  0  0  0  0  0  0  0  0  0
   -2.1340   -1.4890    1.2400 O   0  0  0  0  0  0  0  0  0  0  0  0
   -2.5140   -0.2150   -0.7300 C   0  0  0  0  0  0  0  0  0  0  0  0
   -3.0950   -1.3530   -1.3480 N   0  0  0  0  0  0  0  0  0  0  0  0
   -2.4620    0.8360   -1.4130 O   0  0  0  0  0  0  0  0  0  0  0  0
   -2.7490    0.7330    1.5160 C   0  0  2  0  0  0  0  0  0  0  0  0
   -4.0880    0.2670    1.5050 O   0  0  0  0  0  0  0  0  0  0  0  0
   -2.7440    2.1240    1.0100 C   0  0  0  0  0  0  0  0  0  0  0  0
   -1.7340    2.8490    0.9110 O   0  0  0  0  0  0  0  0  0  0  0  0
   -3.9490    2.7080    0.5980 O   0  0  0  0  0  0  0  0  0  0  0  0
    2.4360   -0.4220    1.0550 O   0  0  0  0  0  0  0  0  0  0  0  0
    3.7480   -0.2920    0.5830 C   0  0  0  0  0  0  0  0  0  0  0  0
    3.7220   -0.1990   -0.7940 O   0  0  0  0  0  0  0  0  0  0  0  0
    2.3660    0.1840   -1.0700 C   0  0  2  0  0  0  0  0  0  0  0  0
    2.3260    1.6250   -0.6530 C   0  0  0  0  0  0  0  0  0  0  0  0
    3.2980    2.3070   -1.4060 O   0  0  0  0  0  0  0  0  0  0  0  0
  2  1  1  6
  2  3  1  0
  2 16  1  0
  2 19  1  0
  3  4  1  6
  3  5  1  0
  5  6  1  0
  6  7  1  1
  6  8  1  0
  6 11  1  0
  8  9  1  0
  8 10  2  0
 11 12  1  6
 11 13  1  0
 13 14  2  0
 13 15  1  0
 16 17  1  0
 17 18  1  0
 18 19  1  0
 19 20  1  1
 20 21  1  0
M  END
