
     RDKit          3D

 42 46  0  0  0  0  0  0  0  0999 V2000
   -4.8020   -5.4210   -0.3940 N   0  0  0  0  0  0  0  0  0  0  0  0
   -3.5640   -4.7150   -0.1850 C   0  0  0  0  0  0  0  0  0  0  0  0
   -2.6300   -5.2020    0.6510 N   0  0  0  0  0  0  0  0  0  0  0  0
   -1.4680   -4.5670    0.8660 C   0  0  0  0  0  0  0  0  0  0  0  0
   -1.2430   -3.4120    0.2200 N   0  0  0  0  0  0  0  0  0  0  0  0
   -2.1310   -2.8680   -0.6280 C   0  0  0  0  0  0  0  0  0  0  0  0
   -3.3200   -3.5280   -0.8410 C   0  0  0  0  0  0  0  0  0  0  0  0
   -4.0320   -2.7980   -1.7170 N   0  0  0  0  0  0  0  0  0  0  0  0
   -3.3360   -1.7020   -2.0650 C   0  0  0  0  0  0  0  0  0  0  0  0
   -2.1750   -1.7600   -1.3900 N   0  0  0  0  0  0  0  0  0  0  0  0
   -1.1200   -0.7940   -1.4540 C   0  0  2  0  0  0  0  0  0  0  0  0
    0.1540   -1.3820   -1.5130 O   0  0  0  0  0  0  0  0  0  0  0  0
    1.0320   -0.3500   -1.2400 C   0  0  2  0  0  0  0  0  0  0  0  0
    2.3090   -0.9700   -0.7120 C   0  0  0  0  0  0  0  0  0  0  0  0
    3.2330    0.0280   -0.4190 O   0  0  0  0  0  0  0  0  0  0  0  0
    4.6520   -0.6780    0.1690 P   0  0  2  0  0  0  0  0  0  0  0  0
    5.7280   -0.4850   -0.8820 O   0  0  0  0  0  0  0  0  0  0  0  0
    4.4570   -2.3430    0.3920 O   0  0  0  0  0  0  0  0  0  0  0  0
    5.1230    0.0270    1.6270 O   0  0  0  0  0  0  0  0  0  0  0  0
    6.7990   -0.1610    1.7590 P   0  0  2  0  0  0  0  0  0  0  0  0
    7.2730   -0.1740    3.1720 O   0  0  0  0  0  0  0  0  0  0  0  0
    7.5150    1.0910    0.8750 O   0  0  0  0  0  0  0  0  0  0  0  0
    7.1730   -1.6620    1.0350 O   0  0  0  0  0  0  0  0  0  0  0  0
    0.3580    0.5160   -0.1970 C   0  0  1  0  0  0  0  0  0  0  0  0
    0.0450    1.7600   -0.6820 O   0  0  0  0  0  0  0  0  0  0  0  0
   -1.2040    2.1100   -0.0660 C   0  0  2  0  0  0  0  0  0  0  0  0
   -1.9050    0.9110    0.0650 O   0  0  0  0  0  0  0  0  0  0  0  0
   -1.0210   -0.1080   -0.0980 C   0  0  1  0  0  0  0  0  0  0  0  0
   -1.8950    2.9930   -1.0500 C   0  0  0  0  0  0  0  0  0  0  0  0
   -2.2740    2.4380   -2.3370 N   0  0  0  0  0  0  0  0  0  0  0  0
   -1.4740    2.5010   -3.2540 O   0  0  0  0  0  0  0  0  0  0  0  0
   -3.4920    1.8790   -2.4600 O   0  0  0  0  0  0  0  0  0  0  0  0
   -2.1770    4.2420   -0.8030 C   0  0  0  0  0  0  0  0  0  0  0  0
   -1.8630    4.9160    0.4440 C   0  0  0  0  0  0  0  0  0  0  0  0
   -2.1720    6.2780    0.6830 N   0  0  0  0  0  0  0  0  0  0  0  0
   -3.3640    6.6350    0.5990 O   0  0  0  0  0  0  0  0  0  0  0  0
   -1.2510    7.2320    1.0020 O   0  0  0  0  0  0  0  0  0  0  0  0
   -1.2680    4.1800    1.3500 C   0  0  0  0  0  0  0  0  0  0  0  0
   -0.9070    2.7670    1.2180 C   0  0  1  0  0  0  0  0  0  0  0  0
   -1.4970    2.0230    2.3530 N   0  0  0  0  0  0  0  0  0  0  0  0
   -2.4350    2.5070    3.0020 O   0  0  0  0  0  0  0  0  0  0  0  0
   -0.9960    0.8150    2.6660 O   0  0  0  0  0  0  0  0  0  0  0  0
  1  2  1  0
  2  3  2  0
  2  7  1  0
  3  4  1  0
  4  5  2  0
  5  6  1  0
  6  7  2  0
  6 10  1  0
  7  8  1  0
  8  9  2  0
  9 10  1  0
 11 10  1  1
 11 12  1  0
 11 28  1  0
 12 13  1  0
 13 14  1  1
 13 24  1  0
 14 15  1  0
 15 16  1  0
 16 17  2  0
 16 18  1  1
 16 19  1  0
 19 20  1  0
 20 21  2  0
 20 22  1  6
 20 23  1  0
 24 25  1  6
 24 28  1  0
 26 25  1  6
 26 27  1  0
 26 29  1  0
 26 39  1  0
 28 27  1  6
 29 30  1  0
 29 33  2  0
 30 31  2  0
 30 32  1  0
 33 34  1  0
 34 35  1  0
 34 38  2  0
 35 36  2  0
 35 37  1  0
 38 39  1  0
 39 40  1  1
 40 41  2  0
 40 42  1  0
M  CHG  6  30   1  32  -1  35   1  37  -1  40   1  42  -1
M  END
