
     RDKit          3D

 40 41  0  0  0  0  0  0  0  0999 V2000
   -0.0410    3.5450   -0.9750 C   0  0  0  0  0  0  0  0  0  0  0  0
   -0.4580    2.1540   -0.9110 N   0  0  0  0  0  0  0  0  0  0  0  0
   -0.1470    1.6530    0.4840 C   0  0  0  0  0  0  0  0  0  0  0  0
   -0.9400    0.3630    0.4720 C   0  0  2  0  0  0  0  0  0  0  0  0
   -0.5340   -0.6420    1.2860 O   0  0  0  0  0  0  0  0  0  0  0  0
   -1.0230   -2.1920    0.5160 P   0  0  0  0  0  0  0  0  0  0  0  0
   -1.5980   -3.1850    1.8040 O   0  0  0  0  0  0  0  0  0  0  0  0
   -2.3470   -1.8130   -0.6690 N   0  0  0  0  0  0  0  0  0  0  0  0
   -1.8000   -0.8430   -1.6560 C   0  0  2  0  0  0  0  0  0  0  0  0
   -2.7540   -0.0100   -2.1800 O   0  0  0  0  0  0  0  0  0  0  0  0
   -1.3540   -1.7230   -2.8000 C   0  0  0  0  0  0  0  0  0  0  0  0
   -2.5290   -2.4950   -3.2510 N   0  0  0  0  0  0  0  0  0  0  0  0
   -2.1650   -3.3100   -4.2750 O   0  0  0  0  0  0  0  0  0  0  0  0
   -0.6940   -0.1630   -0.9350 C   0  0  0  0  0  0  0  0  0  0  0  0
    0.4750   -0.0890   -1.4500 C   0  0  0  0  0  0  0  0  0  0  0  0
    0.7830   -0.5560   -2.7890 N   0  0  0  0  0  0  0  0  0  0  0  0
    1.3060    0.2870   -3.5630 O   0  0  0  0  0  0  0  0  0  0  0  0
    1.6200    0.4270   -0.8130 O   0  0  0  0  0  0  0  0  0  0  0  0
    2.5420   -0.4040   -0.2270 C   0  0  0  0  0  0  0  0  0  0  0  0
    2.2660   -1.6580   -0.3070 O   0  0  0  0  0  0  0  0  0  0  0  0
    3.6960    0.0450    0.4100 N   0  0  0  0  0  0  0  0  0  0  0  0
    4.5840   -0.9840    0.9870 C   0  0  0  0  0  0  0  0  0  0  0  0
    4.2380   -1.2640    2.3020 O   0  0  0  0  0  0  0  0  0  0  0  0
    5.0180   -2.1830    2.8300 O   0  0  0  0  0  0  0  0  0  0  0  0
    4.0740    1.3390    0.5170 N   0  0  0  0  0  0  0  0  0  0  0  0
    3.3800    2.2730   -0.1190 O   0  0  0  0  0  0  0  0  0  0  0  0
    5.4740    1.6150    0.6360 C   0  0  0  0  0  0  0  0  0  0  0  0
    5.7820    3.4720    0.7120 P   0  0  0  0  0  0  0  0  0  0  0  0
    6.1790    4.1830   -0.6150 O   0  0  0  0  0  0  0  0  0  0  0  0
   -2.2840    0.9360    0.6860 C   0  0  1  0  0  0  0  0  0  0  0  0
   -3.4770    0.2050    0.7610 N   0  0  0  0  0  0  0  0  0  0  0  0
   -3.7690   -0.6130    1.8980 C   0  0  0  0  0  0  0  0  0  0  0  0
   -2.9870   -0.7060    2.8880 O   0  0  0  0  0  0  0  0  0  0  0  0
   -4.9910   -1.4010    2.0040 C   0  0  0  0  0  0  0  0  0  0  0  0
   -5.8540   -1.3910    1.0530 O   0  0  0  0  0  0  0  0  0  0  0  0
   -5.3090   -2.1880    3.0760 O   0  0  0  0  0  0  0  0  0  0  0  0
   -2.1770    1.6930    2.0230 C   0  0  0  0  0  0  0  0  0  0  0  0
   -3.2470    2.2570    2.3650 O   0  0  0  0  0  0  0  0  0  0  0  0
   -1.0700    1.7710    2.8000 O   0  0  0  0  0  0  0  0  0  0  0  0
   -2.2600    2.2370   -0.5980 S   0  0  0  0  0  0  0  0  0  0  0  0
  1  2  1  0
  2  3  1  0
  2 40  1  0
  4  3  1  1
  4  5  1  0
  4 14  1  0
  4 30  1  0
  5  6  1  0
  6  7  1  0
  6  8  1  0
  8  9  1  0
  9 10  1  6
  9 11  1  0
  9 14  1  0
 11 12  1  0
 12 13  1  0
 14 15  2  3
 15 16  1  0
 15 18  1  0
 16 17  2  0
 18 19  1  0
 19 20  2  0
 19 21  1  0
 21 22  1  0
 21 25  1  0
 22 23  1  0
 23 24  1  0
 25 26  1  0
 25 27  1  0
 27 28  1  0
 28 29  2  0
 30 31  1  1
 30 37  1  0
 30 40  1  0
 31 32  1  0
 32 33  2  0
 32 34  1  0
 34 35  2  0
 34 36  1  0
 37 38  2  0
 37 39  1  0
M  END
