
     RDKit          3D

 40 42  0  0  0  0  0  0  0  0999 V2000
   -3.6110   -2.2050    0.1470 C   0  0  0  0  0  0  0  0  0  0  0  0
   -2.2390   -1.6520    0.0930 C   0  0  0  0  0  0  0  0  0  0  0  0
   -1.3720   -2.3440   -0.6330 C   0  0  0  0  0  0  0  0  0  0  0  0
   -0.2040   -3.4210   -1.0250 S   0  0  0  0  0  0  0  0  0  0  0  0
   -1.8000   -0.4390    0.7640 C   0  0  0  0  0  0  0  0  0  0  0  0
   -1.3840   -0.0570    1.9360 C   0  0  0  0  0  0  0  0  0  0  0  0
   -2.1110    1.1600    2.3040 O   0  0  0  0  0  0  0  0  0  0  0  0
   -2.6230    2.0150    1.3350 C   0  0  2  0  0  0  0  0  0  0  0  0
   -2.8510    3.2480    1.8470 O   0  0  0  0  0  0  0  0  0  0  0  0
   -3.8000    1.3680    0.6980 C   0  0  0  0  0  0  0  0  0  0  0  0
   -5.0770    1.4190    1.2530 O   0  0  0  0  0  0  0  0  0  0  0  0
   -6.1350    1.8750    0.5710 O   0  0  0  0  0  0  0  0  0  0  0  0
   -3.4380    0.7590   -0.4440 C   0  0  0  0  0  0  0  0  0  0  0  0
   -4.2860    0.3430   -1.4710 N   0  0  0  0  0  0  0  0  0  0  0  0
   -1.9250    0.6470   -0.3250 C   0  0  2  0  0  0  0  0  0  0  0  0
   -1.2960    0.2630   -1.5940 C   0  0  0  0  0  0  0  0  0  0  0  0
   -1.6610    1.9940    0.1550 C   0  0  2  0  0  0  0  0  0  0  0  0
   -0.3250    2.4460    0.4820 C   0  0  0  0  0  0  0  0  0  0  0  0
   -0.4130    3.4840    1.2650 O   0  0  0  0  0  0  0  0  0  0  0  0
    0.7720    1.8840    0.0480 O   0  0  0  0  0  0  0  0  0  0  0  0
    1.7670    1.8030   -0.8440 C   0  0  2  0  0  0  0  0  0  0  0  0
    2.7160    2.8260   -0.5440 O   0  0  0  0  0  0  0  0  0  0  0  0
    1.2650    2.2520   -2.0940 O   0  0  0  0  0  0  0  0  0  0  0  0
    2.4280    0.5460   -1.0350 N   0  0  0  0  0  0  0  0  0  0  0  0
    2.4400   -0.0150   -2.2590 O   0  0  0  0  0  0  0  0  0  0  0  0
    2.0950   -1.2900   -2.3250 N   0  0  0  0  0  0  0  0  0  0  0  0
    3.1210   -0.2050   -0.0160 C   0  0  0  0  0  0  0  0  0  0  0  0
    4.3570   -0.9240   -0.3580 C   0  0  0  0  0  0  0  0  0  0  0  0
    4.8820   -0.8980   -1.6460 O   0  0  0  0  0  0  0  0  0  0  0  0
    5.4890   -1.9390   -2.1960 O   0  0  0  0  0  0  0  0  0  0  0  0
    5.1440   -1.7830    0.8160 P   0  0  0  0  0  0  0  0  0  0  0  0
    6.6030   -2.6430    0.4550 O   0  0  0  0  0  0  0  0  0  0  0  0
    7.6910   -1.8780    0.7230 N   0  0  0  0  0  0  0  0  0  0  0  0
    2.7170   -0.2810    1.1910 N   0  0  0  0  0  0  0  0  0  0  0  0
    1.6550    0.2470    1.8070 O   0  0  0  0  0  0  0  0  0  0  0  0
    0.9360   -0.0630    2.8210 O   0  0  0  0  0  0  0  0  0  0  0  0
   -0.4440   -0.4660    2.9370 C   0  0  0  0  0  0  0  0  0  0  0  0
   -0.4720   -1.1620    4.0250 N   0  0  0  0  0  0  0  0  0  0  0  0
   -1.7100   -2.0050    4.8830 P   0  0  0  0  0  0  0  0  0  0  0  0
   -1.8580   -3.5400    4.8000 O   0  0  0  0  0  0  0  0  0  0  0  0
  1  2  1  0
  2  3  2  0
  2  5  1  0
  3  4  2  0
  5  6  2  0
  5 15  1  0
  6  7  1  0
  6 37  1  0
  7  8  1  0
  8  9  1  1
  8 10  1  0
  8 17  1  0
 10 11  1  0
 10 13  2  0
 11 12  1  0
 13 14  1  0
 13 15  1  0
 15 16  1  6
 15 17  1  0
 17 18  1  1
 18 19  2  0
 18 20  1  0
 20 21  1  0
 21 22  1  1
 21 23  1  0
 21 24  1  0
 24 25  1  0
 24 27  1  0
 25 26  1  0
 27 28  1  0
 27 34  2  0
 28 29  1  0
 28 31  2  3
 29 30  1  0
 31 32  1  0
 32 33  1  0
 34 35  1  0
 35 36  1  0
 36 37  1  0
 37 38  2  3
 38 39  1  0
 39 40  2  0
M  END
