
     RDKit          3D

 40 40  0  0  0  0  0  0  0  0999 V2000
   -3.7480    0.4760    3.0470 C   0  0  0  0  0  0  0  0  0  0  0  0
   -2.8330    0.4340    1.8940 N   0  0  0  0  0  0  0  0  0  0  0  0
   -1.9030   -0.5450    2.1540 O   0  0  0  0  0  0  0  0  0  0  0  0
   -3.6550   -0.0280    0.7790 C   0  0  1  0  0  0  0  0  0  0  0  0
   -4.7530    0.8290    0.5960 O   0  0  0  0  0  0  0  0  0  0  0  0
   -2.9220   -0.0500   -0.4370 N   0  0  0  0  0  0  0  0  0  0  0  0
   -2.3520    1.0720   -0.8180 O   0  0  0  0  0  0  0  0  0  0  0  0
   -2.2640    1.3210   -2.0870 O   0  0  0  0  0  0  0  0  0  0  0  0
   -1.4910   -0.0060   -2.9200 S   0  0  0  0  0  0  0  0  0  0  0  0
   -2.2080   -1.4870   -2.0770 C   0  0  2  0  0  0  0  0  0  0  0  0
   -1.5230   -2.7250   -2.4470 C   0  0  0  0  0  0  0  0  0  0  0  0
   -1.0290   -3.4570   -1.5840 O   0  0  0  0  0  0  0  0  0  0  0  0
   -1.4290   -3.0800   -3.7790 O   0  0  0  0  0  0  0  0  0  0  0  0
   -3.6270   -1.4900   -2.5160 C   0  0  0  0  0  0  0  0  0  0  0  0
   -4.5810   -1.5620   -1.6480 C   0  0  0  0  0  0  0  0  0  0  0  0
   -5.6060   -1.9240   -0.9880 O   0  0  0  0  0  0  0  0  0  0  0  0
   -3.9790   -1.4340   -3.8910 N   0  0  0  0  0  0  0  0  0  0  0  0
   -3.6280   -0.3690   -4.6250 O   0  0  0  0  0  0  0  0  0  0  0  0
   -2.1370   -1.1550   -0.6770 N   0  0  0  0  0  0  0  0  0  0  0  0
   -0.9020   -0.9350   -0.2300 O   0  0  0  0  0  0  0  0  0  0  0  0
   -0.3810    0.2480   -0.4210 O   0  0  0  0  0  0  0  0  0  0  0  0
    1.0140    0.3940    0.1150 C   0  0  0  0  0  0  0  0  0  0  0  0
    1.8360   -0.5720   -0.4940 C   0  0  0  0  0  0  0  0  0  0  0  0
    1.1320   -1.3180   -1.3780 O   0  0  0  0  0  0  0  0  0  0  0  0
    3.1400   -1.0060   -0.4800 N   0  0  0  0  0  0  0  0  0  0  0  0
    4.2290   -0.5640    0.3120 C   0  0  0  0  0  0  0  0  0  0  0  0
    4.3610   -1.3390    1.5750 C   0  0  0  0  0  0  0  0  0  0  0  0
    5.3900   -1.0280    2.4770 N   0  0  0  0  0  0  0  0  0  0  0  0
    3.5550   -2.2530    1.8130 O   0  0  0  0  0  0  0  0  0  0  0  0
    3.6350   -2.3890   -1.6400 P   0  0  0  0  0  0  0  0  0  0  0  0
    3.0140   -1.9880   -3.1850 O   0  0  0  0  0  0  0  0  0  0  0  0
    2.8080   -3.7880   -1.0370 O   0  0  0  0  0  0  0  0  0  0  0  0
    1.1170    1.3570    0.9850 C   0  0  0  0  0  0  0  0  0  0  0  0
   -0.1990    2.0460    1.1960 N   0  0  0  0  0  0  0  0  0  0  0  0
   -0.4250    2.3160    2.3880 O   0  0  0  0  0  0  0  0  0  0  0  0
    2.1490    1.9560    1.7800 C   0  0  1  0  0  0  0  0  0  0  0  0
    2.9250    1.1860    2.5920 O   0  0  0  0  0  0  0  0  0  0  0  0
    2.9710    3.0370    1.1040 C   0  0  0  0  0  0  0  0  0  0  0  0
    2.0700    4.1980    0.6760 C   0  0  0  0  0  0  0  0  0  0  0  0
    1.4800    4.6890    1.8190 O   0  0  0  0  0  0  0  0  0  0  0  0
  1  2  1  0
  2  3  1  0
  2  4  1  0
  4  5  1  6
  4  6  1  0
  6  7  1  0
  6 19  1  0
  7  8  1  0
  8  9  1  0
  9 10  1  0
 10 11  1  1
 10 14  1  0
 10 19  1  0
 11 12  2  0
 11 13  1  0
 14 15  2  0
 14 17  1  0
 15 16  2  0
 17 18  1  0
 19 20  1  0
 20 21  1  0
 21 22  1  0
 22 23  1  0
 22 33  2  3
 23 24  2  0
 23 25  1  0
 25 26  1  0
 25 30  1  0
 26 27  1  0
 27 28  1  0
 27 29  2  0
 30 31  1  0
 30 32  1  0
 33 34  1  0
 33 36  1  0
 34 35  2  0
 36 37  1  6
 36 38  1  0
 38 39  1  0
 39 40  1  0
M  END
