
     RDKit          3D

 39 42  0  0  0  0  0  0  0  0999 V2000
    6.3480   -2.9580   -0.9890 N   0  0  0  0  0  0  0  0  0  0  0  0
    5.0720   -3.3140   -0.7880 O   0  0  0  0  0  0  0  0  0  0  0  0
    4.2590   -2.2040   -0.5040 C   0  0  0  0  0  0  0  0  0  0  0  0
    2.9790   -2.6640   -0.3110 O   0  0  0  0  0  0  0  0  0  0  0  0
    2.0740   -1.8070   -0.0300 O   0  0  0  0  0  0  0  0  0  0  0  0
    2.3560   -0.1810   -0.4080 P   0  0  0  0  0  0  0  0  0  0  0  0
    3.9600    0.3650    0.0740 O   0  0  0  0  0  0  0  0  0  0  0  0
    3.8030    1.3940    0.9490 O   0  0  0  0  0  0  0  0  0  0  0  0
    3.0410    2.4550    0.4250 N   0  0  0  0  0  0  0  0  0  0  0  0
    1.7750    2.2940    0.2280 C   0  0  0  0  0  0  0  0  0  0  0  0
    0.9420    3.3410   -0.3070 C   0  0  0  0  0  0  0  0  0  0  0  0
    1.5180    4.5670   -0.5560 C   0  0  0  0  0  0  0  0  0  0  0  0
    0.7270    5.5430   -1.0760 N   0  0  0  0  0  0  0  0  0  0  0  0
   -0.5860    5.3370   -1.3470 C   0  0  0  0  0  0  0  0  0  0  0  0
   -1.3520    6.4040   -1.8890 N   0  0  0  0  0  0  0  0  0  0  0  0
   -1.1730    4.1130   -1.1010 C   0  0  0  0  0  0  0  0  0  0  0  0
   -0.4190    3.1120   -0.5830 C   0  0  0  0  0  0  0  0  0  0  0  0
   -0.8490    1.8060   -0.2570 N   0  0  0  0  0  0  0  0  0  0  0  0
   -0.1780    0.8490    0.2380 C   0  0  0  0  0  0  0  0  0  0  0  0
   -0.8930   -0.3960    0.4740 N   0  0  0  0  0  0  0  0  0  0  0  0
   -2.1340   -0.6800   -0.0740 N   0  0  0  0  0  0  0  0  0  0  0  0
   -2.8060    0.3500   -0.6560 O   0  0  0  0  0  0  0  0  0  0  0  0
   -3.9700    0.5680   -0.0760 O   0  0  0  0  0  0  0  0  0  0  0  0
   -3.8150    1.6030    0.7220 O   0  0  0  0  0  0  0  0  0  0  0  0
   -5.0880    1.6000    1.8850 P   0  0  0  0  0  0  0  0  0  0  0  0
   -4.9120    1.1210    3.3340 O   0  0  0  0  0  0  0  0  0  0  0  0
   -2.7400   -1.9490   -0.0680 C   0  0  0  0  0  0  0  0  0  0  0  0
   -2.7200   -2.6940   -1.1610 C   0  0  0  0  0  0  0  0  0  0  0  0
   -3.3030   -3.9580   -1.2160 O   0  0  0  0  0  0  0  0  0  0  0  0
   -3.9140   -4.3610   -2.3560 O   0  0  0  0  0  0  0  0  0  0  0  0
   -3.3870   -2.4480    1.1420 C   0  0  0  0  0  0  0  0  0  0  0  0
   -3.4210   -1.7570    2.1890 O   0  0  0  0  0  0  0  0  0  0  0  0
   -4.1600   -4.0990    1.1440 P   0  0  0  0  0  0  0  0  0  0  0  0
   -0.2980   -1.3800    1.3210 C   0  0  0  0  0  0  0  0  0  0  0  0
   -0.5950   -2.5760    1.2870 O   0  0  0  0  0  0  0  0  0  0  0  0
    0.9630   -0.7650    2.4950 P   0  0  0  0  0  0  0  0  0  0  0  0
    2.1840   -1.9680    2.6730 O   0  0  0  0  0  0  0  0  0  0  0  0
    1.5290    0.7240    1.8940 O   0  0  0  0  0  0  0  0  0  0  0  0
    1.2250    0.9760    0.5690 C   0  0  1  0  0  0  0  0  0  0  0  0
  1  2  1  0
  2  3  1  0
  3  4  1  0
  4  5  1  0
  5  6  1  0
  6  7  1  0
  6 39  1  0
  7  8  1  0
  8  9  1  0
  9 10  2  0
 10 11  1  0
 10 39  1  0
 11 12  2  0
 11 17  1  0
 12 13  1  0
 13 14  2  0
 14 15  1  0
 14 16  1  0
 16 17  2  0
 17 18  1  0
 18 19  2  0
 19 20  1  0
 19 39  1  0
 20 21  1  0
 20 34  1  0
 21 22  1  0
 21 27  1  0
 22 23  1  0
 23 24  1  0
 24 25  1  0
 25 26  2  0
 27 28  2  3
 27 31  1  0
 28 29  1  0
 29 30  1  0
 31 32  2  0
 31 33  1  0
 34 35  2  0
 34 36  1  0
 36 37  1  0
 36 38  1  0
 39 38  1  1
M  END
