
     RDKit          3D

 40 41  0  0  0  0  0  0  0  0999 V2000
    3.1990    1.4550    0.7220 C   0  0  0  0  0  0  0  0  0  0  0  0
    2.8510    0.3990    0.0590 C   0  0  0  0  0  0  0  0  0  0  0  0
    3.5800   -0.7810   -0.3010 C   0  0  0  0  0  0  0  0  0  0  0  0
    2.7870   -1.6300   -1.0070 O   0  0  0  0  0  0  0  0  0  0  0  0
    4.8490   -1.2480   -0.1110 N   0  0  0  0  0  0  0  0  0  0  0  0
    5.1280   -2.6080   -0.7130 C   0  0  0  0  0  0  0  0  0  0  0  0
    5.9490   -0.7070    0.5320 C   0  0  0  0  0  0  0  0  0  0  0  0
    7.2800   -1.4740    0.5760 C   0  0  0  0  0  0  0  0  0  0  0  0
    6.0280    0.3810    1.1190 O   0  0  0  0  0  0  0  0  0  0  0  0
    1.4380    0.4780   -0.3830 N   0  0  0  0  0  0  0  0  0  0  0  0
    0.5170    0.3820    0.5270 O   0  0  0  0  0  0  0  0  0  0  0  0
   -0.7340    0.1120    0.0210 N   0  0  0  0  0  0  0  0  0  0  0  0
   -1.5340    1.2380   -0.3240 C   0  0  0  0  0  0  0  0  0  0  0  0
   -2.8520    1.3860    0.3330 C   0  0  2  0  0  0  0  0  0  0  0  0
   -3.8630    1.8870   -0.6400 C   0  0  0  0  0  0  0  0  0  0  0  0
   -5.1100    1.2550   -0.7830 N   0  0  0  0  0  0  0  0  0  0  0  0
   -3.5960    2.8860   -1.3420 O   0  0  0  0  0  0  0  0  0  0  0  0
   -2.6910    2.4970    1.3440 C   0  0  0  0  0  0  0  0  0  0  0  0
   -3.0130    2.3880    2.5430 O   0  0  0  0  0  0  0  0  0  0  0  0
   -2.1570    3.6810    0.8880 O   0  0  0  0  0  0  0  0  0  0  0  0
   -2.0040    4.6900    1.7820 O   0  0  0  0  0  0  0  0  0  0  0  0
   -2.6330    6.1000    1.0320 S   0  0  0  0  0  0  0  0  0  0  0  0
   -3.3980    0.2870    0.9700 O   0  0  0  0  0  0  0  0  0  0  0  0
   -3.3900   -1.0500    0.6800 N   0  0  0  0  0  0  0  0  0  0  0  0
   -4.4080   -1.9060    0.8480 C   0  0  0  0  0  0  0  0  0  0  0  0
   -5.6630   -1.6300    1.3280 O   0  0  0  0  0  0  0  0  0  0  0  0
   -6.5970   -2.5540    1.4540 O   0  0  0  0  0  0  0  0  0  0  0  0
   -3.9700   -3.1080    0.4520 N   0  0  0  0  0  0  0  0  0  0  0  0
   -2.6780   -3.0180    0.0350 C   0  0  0  0  0  0  0  0  0  0  0  0
   -1.9240   -3.9860   -0.4190 C   0  0  0  0  0  0  0  0  0  0  0  0
   -2.3990   -5.2650   -0.5220 O   0  0  0  0  0  0  0  0  0  0  0  0
   -3.6130   -5.5780   -1.0130 O   0  0  0  0  0  0  0  0  0  0  0  0
   -2.3080   -1.6820    0.1840 C   0  0  0  0  0  0  0  0  0  0  0  0
   -1.1160   -1.2280   -0.1240 N   0  0  0  0  0  0  0  0  0  0  0  0
    1.1510    0.6930   -2.1060 P   0  0  0  0  0  0  0  0  0  0  0  0
    1.3430    2.1500   -2.8400 N   0  0  0  0  0  0  0  0  0  0  0  0
    1.7490    3.2990   -2.1130 C   0  0  0  0  0  0  0  0  0  0  0  0
    0.9480    4.0170   -1.4600 O   0  0  0  0  0  0  0  0  0  0  0  0
    3.5160    3.7660   -2.1200 P   0  0  0  0  0  0  0  0  0  0  0  0
    4.1840    4.4940   -0.9220 O   0  0  0  0  0  0  0  0  0  0  0  0
  1  2  2  0
  2  3  1  0
  2 10  1  0
  3  4  2  0
  3  5  1  0
  5  6  1  0
  5  7  1  0
  7  8  1  0
  7  9  2  0
 10 11  1  0
 10 35  1  0
 11 12  1  0
 12 13  1  0
 12 34  1  0
 13 14  1  0
 14 15  1  6
 14 18  1  0
 14 23  1  0
 15 16  1  0
 15 17  2  0
 18 19  2  0
 18 20  1  0
 20 21  1  0
 21 22  1  0
 23 24  1  0
 24 25  1  0
 24 33  1  0
 25 26  1  0
 25 28  2  0
 26 27  1  0
 28 29  1  0
 29 30  2  3
 29 33  1  0
 30 31  1  0
 31 32  1  0
 33 34  2  0
 35 36  2  3
 36 37  1  0
 37 38  2  0
 37 39  1  0
 39 40  2  0
M  END
