
     RDKit          3D

 39 40  0  0  0  0  0  0  0  0999 V2000
    6.5830   -3.5870    0.2000 C   0  0  0  0  0  0  0  0  0  0  0  0
    6.0520   -2.5080   -0.2390 N   0  0  0  0  0  0  0  0  0  0  0  0
    4.6310   -2.3420   -0.2790 C   0  0  0  0  0  0  0  0  0  0  0  0
    3.8170   -2.9050    0.5680 C   0  0  0  0  0  0  0  0  0  0  0  0
    3.2580   -3.3790    1.5600 O   0  0  0  0  0  0  0  0  0  0  0  0
    4.1430   -1.5280   -1.2910 O   0  0  0  0  0  0  0  0  0  0  0  0
    2.9280   -0.8280   -1.1060 N   0  0  0  0  0  0  0  0  0  0  0  0
    2.7690    0.1570   -0.1490 N   0  0  0  0  0  0  0  0  0  0  0  0
    2.7600    1.3950   -0.2900 N   0  0  0  0  0  0  0  0  0  0  0  0
    2.6070    2.4230    0.6290 C   0  0  0  0  0  0  0  0  0  0  0  0
    3.7770    3.1880    0.9090 O   0  0  0  0  0  0  0  0  0  0  0  0
    3.9440    4.3990    0.2050 C   0  0  0  0  0  0  0  0  0  0  0  0
    1.5130    2.7820    1.2780 C   0  0  0  0  0  0  0  0  0  0  0  0
    0.2680    2.1750    1.1540 O   0  0  0  0  0  0  0  0  0  0  0  0
   -0.3720    1.9190    0.0180 O   0  0  0  0  0  0  0  0  0  0  0  0
   -1.6120    2.2300   -0.4500 C   0  0  0  0  0  0  0  0  0  0  0  0
   -1.5600    2.7180   -1.6780 O   0  0  0  0  0  0  0  0  0  0  0  0
   -2.8830    2.1180    0.1440 N   0  0  0  0  0  0  0  0  0  0  0  0
   -3.5610    3.3350    0.6140 N   0  0  0  0  0  0  0  0  0  0  0  0
   -4.7720    3.6990   -0.6600 P   0  0  0  0  0  0  0  0  0  0  0  0
   -4.2080    2.8190    1.6870 O   0  0  0  0  0  0  0  0  0  0  0  0
   -4.6170    1.5350    1.4080 C   0  0  0  0  0  0  0  0  0  0  0  0
   -5.5860    0.9340    1.9630 O   0  0  0  0  0  0  0  0  0  0  0  0
   -3.7180    1.0370    0.3580 N   0  0  0  0  0  0  0  0  0  0  0  0
   -3.8100   -0.2310   -0.2420 C   0  0  0  0  0  0  0  0  0  0  0  0
   -3.1570   -1.3590   -0.1830 C   0  0  0  0  0  0  0  0  0  0  0  0
   -3.6370   -2.4430   -1.0260 O   0  0  0  0  0  0  0  0  0  0  0  0
   -3.8940   -4.0350   -0.3190 P   0  0  0  0  0  0  0  0  0  0  0  0
   -5.4040   -4.3930    0.2180 C   0  0  0  0  0  0  0  0  0  0  0  0
   -6.4440   -5.0850    0.3490 O   0  0  0  0  0  0  0  0  0  0  0  0
   -2.0050   -1.7760    0.5930 C   0  0  0  0  0  0  0  0  0  0  0  0
   -2.1750   -3.0900    1.6710 P   0  0  0  0  0  0  0  0  0  0  0  0
   -0.9590   -3.7220    2.6570 O   0  0  0  0  0  0  0  0  0  0  0  0
   -0.6660   -1.2150    0.5850 C   0  0  0  0  0  0  0  0  0  0  0  0
   -0.1170   -1.0610    1.7470 O   0  0  0  0  0  0  0  0  0  0  0  0
    0.0690   -0.8340   -0.5120 O   0  0  0  0  0  0  0  0  0  0  0  0
    0.5930   -1.5490   -1.5010 O   0  0  0  0  0  0  0  0  0  0  0  0
    1.8940   -1.2570   -2.0030 C   0  0  0  0  0  0  0  0  0  0  0  0
    2.1320   -1.3750   -3.2280 O   0  0  0  0  0  0  0  0  0  0  0  0
  1  2  2  0
  2  3  1  0
  3  4  2  0
  3  6  1  0
  4  5  2  0
  6  7  1  0
  7  8  1  0
  7 38  1  0
  8  9  2  0
  9 10  1  0
 10 11  1  0
 10 13  2  0
 11 12  1  0
 13 14  1  0
 14 15  1  0
 15 16  1  0
 16 17  2  0
 16 18  1  0
 18 19  1  0
 18 24  1  0
 19 20  1  0
 19 21  1  0
 21 22  1  0
 22 23  2  0
 22 24  1  0
 24 25  1  0
 25 26  2  0
 26 27  1  0
 26 31  1  0
 27 28  1  0
 28 29  2  0
 29 30  2  0
 31 32  2  3
 31 34  1  0
 32 33  1  0
 34 35  2  0
 34 36  1  0
 36 37  1  0
 37 38  1  0
 38 39  2  0
M  END
