
     RDKit          3D

 15 15  0  0  0  0  0  0  0  0999 V2000
    4.9940    0.8980    0.2710 N   0  0  0  0  0  0  0  0  0  0  0  0
    3.7000    1.2860   -0.1810 C   0  0  0  0  0  0  0  0  0  0  0  0
    3.4480    2.3220   -0.7970 O   0  0  0  0  0  0  0  0  0  0  0  0
    2.6480    0.2900    0.0850 C   0  0  0  0  0  0  0  0  0  0  0  0
    1.3430    0.7090   -0.0510 O   0  0  0  0  0  0  0  0  0  0  0  0
    0.5800   -0.1710   -0.8430 C   0  0  1  0  0  0  0  0  0  0  0  0
    0.6410   -1.5290   -0.0690 C   0  0  0  0  0  0  0  0  0  0  0  0
   -0.6090   -2.0140    0.3560 N   0  0  0  0  0  0  0  0  0  0  0  0
   -1.3210   -0.8440    0.9300 C   0  0  0  0  0  0  0  0  0  0  0  0
   -1.8430   -0.1430   -0.2420 C   0  0  1  0  0  0  0  0  0  0  0  0
   -2.7220   -0.9740   -1.0160 O   0  0  0  0  0  0  0  0  0  0  0  0
   -2.7540    1.0150    0.1540 C   0  0  0  0  0  0  0  0  0  0  0  0
   -3.8800    0.3580    0.7040 O   0  0  0  0  0  0  0  0  0  0  0  0
   -4.9650    0.8310    0.0960 O   0  0  0  0  0  0  0  0  0  0  0  0
   -0.7250    0.3130   -1.1510 C   0  0  0  0  0  0  0  0  0  0  0  0
  1  2  1  0
  2  3  2  0
  2  4  1  0
  4  5  1  0
  6  5  1  1
  6  7  1  0
  6 15  1  0
  7  8  1  0
  8  9  1  0
  9 10  1  0
 10 11  1  6
 10 12  1  0
 10 15  1  0
 12 13  1  0
 13 14  1  0
M  END
