
     RDKit          3D

 15 15  0  0  0  0  0  0  0  0999 V2000
   -0.4880   -1.8980    0.9640 C   0  0  0  0  0  0  0  0  0  0  0  0
    0.4670   -0.7650    0.7460 C   0  0  1  0  0  0  0  0  0  0  0  0
    1.0780   -0.9660   -0.4920 O   0  0  0  0  0  0  0  0  0  0  0  0
    2.0780   -0.0680   -0.7510 C   0  0  2  0  0  0  0  0  0  0  0  0
    3.3200   -0.4740    0.0120 C   0  0  0  0  0  0  0  0  0  0  0  0
    4.3030    0.4670   -0.2880 O   0  0  0  0  0  0  0  0  0  0  0  0
    1.6720    1.3460   -0.4550 C   0  0  0  0  0  0  0  0  0  0  0  0
    1.0120    1.4790    0.7340 O   0  0  0  0  0  0  0  0  0  0  0  0
   -0.0850    0.6080    0.8920 C   0  0  1  0  0  0  0  0  0  0  0  0
   -1.2020    0.9790    0.0460 C   0  0  0  0  0  0  0  0  0  0  0  0
   -1.0840    1.9460   -0.7440 O   0  0  0  0  0  0  0  0  0  0  0  0
   -2.4360    0.2920    0.0710 N   0  0  0  0  0  0  0  0  0  0  0  0
   -3.4930    0.7220   -0.8110 C   0  0  0  0  0  0  0  0  0  0  0  0
   -4.7280    0.0450   -0.7960 N   0  0  0  0  0  0  0  0  0  0  0  0
   -3.3240    1.6940   -1.5930 O   0  0  0  0  0  0  0  0  0  0  0  0
  2  1  1  6
  2  3  1  0
  2  9  1  0
  3  4  1  0
  4  5  1  1
  4  7  1  0
  5  6  1  0
  7  8  1  0
  8  9  1  0
  9 10  1  6
 10 11  2  0
 10 12  1  0
 12 13  1  0
 13 14  1  0
 13 15  2  0
M  END
