
     RDKit          3D

 15 15  0  0  0  0  0  0  0  0999 V2000
    3.7860   -0.1460   -0.5490 N   0  0  0  0  0  0  0  0  0  0  0  0
    3.0380    1.0210   -0.8440 C   0  0  0  0  0  0  0  0  0  0  0  0
    3.5570    2.1450   -1.0680 O   0  0  0  0  0  0  0  0  0  0  0  0
    1.5350    0.9260   -0.8960 C   0  0  0  0  0  0  0  0  0  0  0  0
    1.0960   -0.4880   -0.6040 C   0  0  2  0  0  0  0  0  0  0  0  0
   -0.3830   -0.6800   -0.6360 C   0  0  0  0  0  0  0  0  0  0  0  0
   -1.0760    0.0640    0.4630 C   0  0  1  0  0  0  0  0  0  0  0  0
   -1.8180    1.2200   -0.1980 C   0  0  0  0  0  0  0  0  0  0  0  0
   -2.7560    0.6900   -1.0820 O   0  0  0  0  0  0  0  0  0  0  0  0
   -2.0800   -0.7380    1.1740 C   0  0  0  0  0  0  0  0  0  0  0  0
   -3.1930   -1.3570    0.5460 N   0  0  0  0  0  0  0  0  0  0  0  0
   -1.9610   -0.8950    2.4140 O   0  0  0  0  0  0  0  0  0  0  0  0
   -0.1260    0.5090    1.3590 O   0  0  0  0  0  0  0  0  0  0  0  0
    0.7450   -0.5240    1.6550 C   0  0  0  0  0  0  0  0  0  0  0  0
    1.6060   -0.8520    0.6280 O   0  0  0  0  0  0  0  0  0  0  0  0
  1  2  1  0
  2  3  2  0
  2  4  1  0
  5  4  1  1
  5  6  1  0
  5 15  1  0
  6  7  1  0
  7  8  1  6
  7 10  1  0
  7 13  1  0
  8  9  1  0
 10 11  1  0
 10 12  2  0
 13 14  1  0
 14 15  1  0
M  END
