
     RDKit          3D

 15 15  0  0  0  0  0  0  0  0999 V2000
   -4.5710   -0.2320    0.8970 C   0  0  0  0  0  0  0  0  0  0  0  0
   -3.6430    0.0090   -0.2470 C   0  0  2  0  0  0  0  0  0  0  0  0
   -3.4630   -1.1110   -1.0620 O   0  0  0  0  0  0  0  0  0  0  0  0
   -2.2650    0.3830    0.2920 C   0  0  1  0  0  0  0  0  0  0  0  0
   -1.6850   -0.6820    1.0520 N   0  0  0  0  0  0  0  0  0  0  0  0
   -0.2810   -0.6110    0.8180 C   0  0  0  0  0  0  0  0  0  0  0  0
   -0.1030    0.1380   -0.2420 C   0  0  0  0  0  0  0  0  0  0  0  0
    1.1750    0.4730   -0.8300 C   0  0  0  0  0  0  0  0  0  0  0  0
    1.2630    1.2020   -1.8540 O   0  0  0  0  0  0  0  0  0  0  0  0
    2.3540    0.0040   -0.2890 O   0  0  0  0  0  0  0  0  0  0  0  0
    3.6310    0.2950   -0.8170 C   0  0  0  0  0  0  0  0  0  0  0  0
    4.6600   -0.3690    0.0110 C   0  0  0  0  0  0  0  0  0  0  0  0
    6.0410   -0.2220   -0.3260 N   0  0  0  0  0  0  0  0  0  0  0  0
    4.3080   -1.0550    0.9990 O   0  0  0  0  0  0  0  0  0  0  0  0
   -1.3420    0.5810   -0.7400 O   0  0  0  0  0  0  0  0  0  0  0  0
  2  1  1  1
  2  3  1  0
  2  4  1  0
  4  5  1  1
  4 15  1  0
  5  6  1  0
  6  7  2  0
  7  8  1  0
  7 15  1  0
  8  9  2  0
  8 10  1  0
 10 11  1  0
 11 12  1  0
 12 13  1  0
 12 14  2  0
M  END
