
     RDKit          3D

 15 15  0  0  0  0  0  0  0  0999 V2000
   -3.8150    0.7430   -1.9860 N   0  0  0  0  0  0  0  0  0  0  0  0
   -2.7130    0.3830   -1.3720 C   0  0  0  0  0  0  0  0  0  0  0  0
   -1.5830   -0.1410   -1.9750 O   0  0  0  0  0  0  0  0  0  0  0  0
   -0.6760   -0.6470   -1.0130 C   0  0  1  0  0  0  0  0  0  0  0  0
    0.6010    0.0760   -1.0970 C   0  0  0  0  0  0  0  0  0  0  0  0
    0.8360    1.0090   -1.9160 O   0  0  0  0  0  0  0  0  0  0  0  0
    1.6470   -0.3000   -0.1950 N   0  0  0  0  0  0  0  0  0  0  0  0
    2.9350    0.3560   -0.2070 C   0  0  0  0  0  0  0  0  0  0  0  0
    3.8010   -0.2720    0.8570 C   0  0  0  0  0  0  0  0  0  0  0  0
    5.0630    0.3090    0.9080 O   0  0  0  0  0  0  0  0  0  0  0  0
   -1.3540   -0.5300    0.3180 C   0  0  2  0  0  0  0  0  0  0  0  0
   -1.9840   -1.7400    0.6590 O   0  0  0  0  0  0  0  0  0  0  0  0
   -2.4270    0.4490    0.0490 C   0  0  0  0  0  0  0  0  0  0  0  0
   -3.0000    1.2230    0.9420 C   0  0  0  0  0  0  0  0  0  0  0  0
   -2.5940    1.1500    2.2700 O   0  0  0  0  0  0  0  0  0  0  0  0
  1  2  2  0
  2  3  1  0
  2 13  1  0
  3  4  1  0
  4  5  1  1
  4 11  1  0
  5  6  2  0
  5  7  1  0
  7  8  1  0
  8  9  1  0
  9 10  1  0
 11 12  1  6
 11 13  1  0
 13 14  2  3
 14 15  1  0
M  END
