
     RDKit          3D

 15 16  0  0  0  0  0  0  0  0999 V2000
    2.5520    0.5260   -1.3500 N   0  0  0  0  0  0  0  0  0  0  0  0
    1.8170    0.7950   -0.1620 C   0  0  0  0  0  0  0  0  0  0  0  0
    2.0410    1.8670    0.4400 O   0  0  0  0  0  0  0  0  0  0  0  0
    0.8400   -0.1920    0.2940 C   0  0  1  0  0  0  0  0  0  0  0  0
    1.2880   -0.6610    1.6830 C   0  0  0  0  0  0  0  0  0  0  0  0
    0.2200   -0.5280    2.5250 O   0  0  0  0  0  0  0  0  0  0  0  0
   -0.9210   -0.5350    1.7600 C   0  0  0  0  0  0  0  0  0  0  0  0
   -0.5130    0.3930    0.6100 C   0  0  2  0  0  0  0  0  0  0  0  0
   -1.5160    0.2070   -0.4780 C   0  0  1  0  0  0  0  0  0  0  0  0
   -1.2780    1.0450   -1.6890 C   0  0  0  0  0  0  0  0  0  0  0  0
   -1.2040    2.3950   -1.3450 O   0  0  0  0  0  0  0  0  0  0  0  0
   -1.5880   -1.1810   -0.8600 N   0  0  0  0  0  0  0  0  0  0  0  0
   -0.3460   -1.8590   -1.0820 C   0  0  0  0  0  0  0  0  0  0  0  0
   -0.3320   -2.9300   -1.7430 O   0  0  0  0  0  0  0  0  0  0  0  0
    0.7830   -1.2940   -0.5530 O   0  0  0  0  0  0  0  0  0  0  0  0
  1  2  1  0
  2  3  2  0
  4  2  1  6
  4  5  1  0
  4  8  1  0
  4 15  1  0
  5  6  1  0
  6  7  1  0
  8  7  1  1
  8  9  1  0
  9 10  1  6
  9 12  1  0
 10 11  1  0
 12 13  1  0
 13 14  2  0
 13 15  1  0
M  END
