
     RDKit          3D

 15 15  0  0  0  0  0  0  0  0999 V2000
    5.3170   -0.2250    0.0880 C   0  0  0  0  0  0  0  0  0  0  0  0
    3.9900   -0.2700    0.6100 O   0  0  0  0  0  0  0  0  0  0  0  0
    2.8980    0.0780   -0.1570 C   0  0  0  0  0  0  0  0  0  0  0  0
    3.0730    0.4400   -1.3330 O   0  0  0  0  0  0  0  0  0  0  0  0
    1.5910    0.0190    0.4000 N   0  0  0  0  0  0  0  0  0  0  0  0
    0.4300    0.3820   -0.3930 C   0  0  0  0  0  0  0  0  0  0  0  0
   -0.7940    0.2160    0.4720 C   0  0  2  0  0  0  0  0  0  0  0  0
   -0.7380    1.0300    1.6040 O   0  0  0  0  0  0  0  0  0  0  0  0
   -1.0010   -1.2030    0.8600 C   0  0  0  0  0  0  0  0  0  0  0  0
   -0.2740   -1.8220    1.6970 O   0  0  0  0  0  0  0  0  0  0  0  0
   -2.1190   -1.7380    0.1580 N   0  0  0  0  0  0  0  0  0  0  0  0
   -2.2630   -0.8570   -0.9890 C   0  0  0  0  0  0  0  0  0  0  0  0
   -2.0280    0.4930   -0.3550 C   0  0  1  0  0  0  0  0  0  0  0  0
   -3.1350    0.8570    0.6180 C   0  0  0  0  0  0  0  0  0  0  0  0
   -4.3320    1.1350   -0.0410 O   0  0  0  0  0  0  0  0  0  0  0  0
  1  2  1  0
  2  3  1  0
  3  4  2  0
  3  5  1  0
  5  6  1  0
  6  7  1  0
  7  8  1  1
  7  9  1  0
  7 13  1  0
  9 10  2  0
  9 11  1  0
 11 12  1  0
 12 13  1  0
 13 14  1  1
 14 15  1  0
M  END
