
     RDKit          3D

 15 15  0  0  0  0  0  0  0  0999 V2000
   -4.0040   -0.0470   -1.7460 N   0  0  0  0  0  0  0  0  0  0  0  0
   -4.2140    0.1440   -0.3650 C   0  0  0  0  0  0  0  0  0  0  0  0
   -3.2740   -0.1150    0.5130 C   0  0  0  0  0  0  0  0  0  0  0  0
   -3.5130    0.0840    1.8610 O   0  0  0  0  0  0  0  0  0  0  0  0
   -1.9630   -0.6160    0.0690 C   0  0  2  0  0  0  0  0  0  0  0  0
   -1.7740   -1.8680    0.6750 O   0  0  0  0  0  0  0  0  0  0  0  0
   -0.9050    0.3190    0.5850 C   0  0  0  0  0  0  0  0  0  0  0  0
    0.4420   -0.1650    0.2750 N   0  0  0  0  0  0  0  0  0  0  0  0
    1.5120    0.6720    0.7340 C   0  0  0  0  0  0  0  0  0  0  0  0
    1.3240    1.7400    1.3560 O   0  0  0  0  0  0  0  0  0  0  0  0
    2.9050    0.2640    0.4660 C   0  0  2  0  0  0  0  0  0  0  0  0
    3.5010    1.2170   -0.5790 C   0  0  0  0  0  0  0  0  0  0  0  0
    4.3490    0.3950   -1.2820 O   0  0  0  0  0  0  0  0  0  0  0  0
    4.2920   -0.8700   -0.7330 C   0  0  0  0  0  0  0  0  0  0  0  0
    2.9700   -0.9440   -0.2340 O   0  0  0  0  0  0  0  0  0  0  0  0
  1  2  1  0
  2  3  2  3
  3  4  1  0
  3  5  1  0
  5  6  1  1
  5  7  1  0
  7  8  1  0
  8  9  1  0
  9 10  2  0
 11  9  1  6
 11 12  1  0
 11 15  1  0
 12 13  1  0
 13 14  1  0
 14 15  1  0
M  END
