
     RDKit          3D

 17 18  0  0  0  0  0  0  0  0999 V2000
    4.5830    0.1290   -0.9320 N   0  0  0  0  0  0  0  0  0  0  0  0
    4.8080   -0.5860    0.0890 C   0  0  0  0  0  0  0  0  0  0  0  0
    4.0120   -0.4080    1.3190 C   0  0  0  0  0  0  0  0  0  0  0  0
    2.6240   -0.2680    0.9300 N   0  0  0  0  0  0  0  0  0  0  0  0
    1.9110    0.7490    1.2620 C   0  0  0  0  0  0  0  0  0  0  0  0
    0.5120    0.8440    0.8440 C   0  0  0  0  0  0  0  0  0  0  0  0
   -0.0340   -0.1800    0.0820 C   0  0  0  0  0  0  0  0  0  0  0  0
   -1.3510   -0.1030   -0.3190 C   0  0  0  0  0  0  0  0  0  0  0  0
   -1.9190   -1.1070   -1.0760 C   0  0  0  0  0  0  0  0  0  0  0  0
   -3.2350   -1.0590   -1.4930 C   0  0  0  0  0  0  0  0  0  0  0  0
   -3.9950    0.0340   -1.1340 C   0  0  0  0  0  0  0  0  0  0  0  0
   -5.3300    0.1060   -1.5440 O   0  0  0  0  0  0  0  0  0  0  0  0
   -3.4240    1.0410   -0.3730 C   0  0  0  0  0  0  0  0  0  0  0  0
   -2.1190    0.9920    0.0390 C   0  0  0  0  0  0  0  0  0  0  0  0
   -1.5100    1.9700    0.7960 C   0  0  0  0  0  0  0  0  0  0  0  0
   -2.1990    2.9730    1.1290 O   0  0  0  0  0  0  0  0  0  0  0  0
   -0.2540    1.8440    1.1490 O   0  0  0  0  0  0  0  0  0  0  0  0
  1  2  2  0
  2  3  1  0
  3  4  1  0
  4  5  2  3
  5  6  1  0
  6  7  2  0
  6 17  1  0
  7  8  1  0
  8  9  2  0
  8 14  1  0
  9 10  1  0
 10 11  2  0
 11 12  1  0
 11 13  1  0
 13 14  2  0
 14 15  1  0
 15 16  2  0
 15 17  1  0
M  END
