
     RDKit          3D

 17 18  0  0  0  0  0  0  0  0999 V2000
    5.9790    0.9930   -0.2810 C   0  0  0  0  0  0  0  0  0  0  0  0
    5.4970   -0.1670    0.3500 O   0  0  0  0  0  0  0  0  0  0  0  0
    4.1580   -0.2850   -0.0210 C   0  0  0  0  0  0  0  0  0  0  0  0
    3.5330   -1.4980    0.5980 C   0  0  0  0  0  0  0  0  0  0  0  0
    2.1920   -1.6000    0.2140 O   0  0  0  0  0  0  0  0  0  0  0  0
    1.2890   -0.6170    0.5540 C   0  0  0  0  0  0  0  0  0  0  0  0
    1.6370    0.3990    1.2220 O   0  0  0  0  0  0  0  0  0  0  0  0
   -0.1270   -0.6950    0.1590 C   0  0  0  0  0  0  0  0  0  0  0  0
   -0.6630   -1.7280   -0.5650 C   0  0  0  0  0  0  0  0  0  0  0  0
   -1.9850   -1.4610   -0.7390 N   0  0  0  0  0  0  0  0  0  0  0  0
   -2.2650   -0.2980   -0.1420 C   0  0  0  0  0  0  0  0  0  0  0  0
   -3.5390    0.4200   -0.0450 C   0  0  0  0  0  0  0  0  0  0  0  0
   -4.6460   -0.0210   -0.5710 C   0  0  0  0  0  0  0  0  0  0  0  0
   -5.7340    0.9230   -0.2990 C   0  0  0  0  0  0  0  0  0  0  0  0
   -5.0850    2.0010    0.4790 C   0  0  0  0  0  0  0  0  0  0  0  0
   -3.8210    1.6780    0.6060 C   0  0  0  0  0  0  0  0  0  0  0  0
   -1.1130    0.1750    0.4140 N   0  0  0  0  0  0  0  0  0  0  0  0
  1  2  1  0
  2  3  1  0
  3  4  1  0
  4  5  1  0
  5  6  1  0
  6  7  2  0
  6  8  1  0
  8  9  2  0
  8 17  1  0
  9 10  1  0
 10 11  1  0
 11 12  1  0
 11 17  2  0
 12 13  2  0
 12 16  1  0
 13 14  1  0
 14 15  1  0
 15 16  2  0
M  END
