
     RDKit          3D

 17 18  0  0  0  0  0  0  0  0999 V2000
    1.2720    0.3960    1.9360 C   0  0  0  0  0  0  0  0  0  0  0  0
    1.7870    0.2000    0.5650 C   0  0  0  0  0  0  0  0  0  0  0  0
    0.9930   -0.2420   -0.3830 C   0  0  0  0  0  0  0  0  0  0  0  0
   -0.3290   -0.6010   -0.3880 N   0  0  0  0  0  0  0  0  0  0  0  0
   -1.3850   -0.6650    0.5100 C   0  0  0  0  0  0  0  0  0  0  0  0
   -1.2450   -0.3350    1.6740 O   0  0  0  0  0  0  0  0  0  0  0  0
   -2.7650   -1.1580    0.0430 C   0  0  2  0  0  0  0  0  0  0  0  0
   -3.2470   -0.2130   -1.0040 C   0  0  0  0  0  0  0  0  0  0  0  0
   -4.4890    0.3870   -0.3340 C   0  0  0  0  0  0  0  0  0  0  0  0
   -4.8980   -0.7880    0.5540 C   0  0  0  0  0  0  0  0  0  0  0  0
   -3.6410   -1.1340    1.0940 O   0  0  0  0  0  0  0  0  0  0  0  0
    1.7040   -0.3070   -1.7330 C   0  0  0  0  0  0  0  0  0  0  0  0
    1.4380   -1.2280   -2.5100 O   0  0  0  0  0  0  0  0  0  0  0  0
    2.6790    0.7800   -1.9870 C   0  0  0  0  0  0  0  0  0  0  0  0
    3.7520    0.6760   -0.9420 C   0  0  0  0  0  0  0  0  0  0  0  0
    3.1930    0.4710    0.3460 N   0  0  0  0  0  0  0  0  0  0  0  0
    4.0820    0.5270    1.5250 C   0  0  0  0  0  0  0  0  0  0  0  0
  1  2  1  0
  2  3  2  0
  2 16  1  0
  3  4  1  0
  3 12  1  0
  4  5  1  0
  5  6  2  0
  7  5  1  1
  7  8  1  0
  7 11  1  0
  8  9  1  0
  9 10  1  0
 10 11  1  0
 12 13  2  0
 12 14  1  0
 14 15  1  0
 15 16  1  0
 16 17  1  0
M  END
