
     RDKit          3D

 25 26  0  0  0  0  0  0  0  0999 V2000
   -2.3820   -2.7390    0.1570 C   0  0  0  0  0  0  0  0  0  0  0  0
   -1.7530   -1.3270    0.1130 C   0  0  2  0  0  0  0  0  0  0  0  0
   -1.9250   -0.8030    1.3440 O   0  0  0  0  0  0  0  0  0  0  0  0
   -2.4200   -0.5790   -1.0330 C   0  0  0  0  0  0  0  0  0  0  0  0
   -2.0090    0.6990   -1.2100 O   0  0  0  0  0  0  0  0  0  0  0  0
   -2.0030    1.8810   -0.5930 C   0  0  0  0  0  0  0  0  0  0  0  0
   -2.5550    2.1630    0.6230 C   0  0  0  0  0  0  0  0  0  0  0  0
   -2.4930    3.4340    1.2010 C   0  0  0  0  0  0  0  0  0  0  0  0
   -1.8690    4.4330    0.5400 C   0  0  0  0  0  0  0  0  0  0  0  0
   -1.7330    5.7380    1.0690 C   0  0  0  0  0  0  0  0  0  0  0  0
   -1.6310    6.8410    1.5220 N   0  0  0  0  0  0  0  0  0  0  0  0
   -1.2990    4.1720   -0.7060 C   0  0  0  0  0  0  0  0  0  0  0  0
   -1.3530    2.9460   -1.2650 C   0  0  0  0  0  0  0  0  0  0  0  0
   -0.3230   -1.4740   -0.2600 C   0  0  0  0  0  0  0  0  0  0  0  0
   -0.0580   -1.5710   -1.5090 O   0  0  0  0  0  0  0  0  0  0  0  0
    0.7550   -1.5110    0.6840 N   0  0  0  0  0  0  0  0  0  0  0  0
    2.0620   -1.6120    0.1250 C   0  0  0  0  0  0  0  0  0  0  0  0
    2.3850   -0.8520   -1.0080 C   0  0  0  0  0  0  0  0  0  0  0  0
    3.6360   -0.9980   -1.5440 C   0  0  0  0  0  0  0  0  0  0  0  0
    4.6040   -1.8540   -1.0270 C   0  0  0  0  0  0  0  0  0  0  0  0
    5.8500   -1.9240   -1.6320 C   0  0  0  0  0  0  0  0  0  0  0  0
    6.9520   -1.9660   -2.1670 N   0  0  0  0  0  0  0  0  0  0  0  0
    4.2770   -2.6130    0.1090 C   0  0  0  0  0  0  0  0  0  0  0  0
    5.6990   -3.9140    0.9030 I   0  0  0  0  0  0  0  0  0  0  0  0
    2.9890   -2.4360    0.6260 C   0  0  0  0  0  0  0  0  0  0  0  0
  2  1  1  1
  2  3  1  0
  2  4  1  0
  2 14  1  0
  4  5  1  0
  5  6  1  0
  6  7  2  0
  6 13  1  0
  7  8  1  0
  8  9  2  0
  9 10  1  0
  9 12  1  0
 10 11  3  0
 12 13  2  0
 14 15  2  0
 14 16  1  0
 16 17  1  0
 17 18  2  0
 17 25  1  0
 18 19  1  0
 19 20  2  0
 20 21  1  0
 20 23  1  0
 21 22  3  0
 23 24  1  0
 23 25  2  0
M  END
