
     RDKit          3D

 17 18  0  0  0  0  0  0  0  0999 V2000
   -5.4380   -1.5160   -0.5890 C   0  0  0  0  0  0  0  0  0  0  0  0
   -4.9340   -0.3000   -0.5450 C   0  0  0  0  0  0  0  0  0  0  0  0
   -3.4900   -0.1570   -0.3670 C   0  0  0  0  0  0  0  0  0  0  0  0
   -2.9800    1.0510   -0.3220 C   0  0  0  0  0  0  0  0  0  0  0  0
   -1.5670    1.2430   -0.1490 C   0  0  0  0  0  0  0  0  0  0  0  0
   -1.1680    2.4580   -0.1180 O   0  0  0  0  0  0  0  0  0  0  0  0
   -0.5790    0.2500   -0.0110 N   0  0  0  0  0  0  0  0  0  0  0  0
    0.8080    0.4080    0.1640 C   0  0  0  0  0  0  0  0  0  0  0  0
    1.4210    1.5920    0.4330 C   0  0  0  0  0  0  0  0  0  0  0  0
    2.7890    1.6400    0.5710 N   0  0  0  0  0  0  0  0  0  0  0  0
    3.5600    0.5580    0.4530 C   0  0  0  0  0  0  0  0  0  0  0  0
    2.9970   -0.6610    0.1830 C   0  0  0  0  0  0  0  0  0  0  0  0
    1.6290   -0.7080    0.0440 C   0  0  0  0  0  0  0  0  0  0  0  0
    4.0720   -1.6460    0.1100 C   0  0  0  0  0  0  0  0  0  0  0  0
    3.9570   -2.8770   -0.1190 O   0  0  0  0  0  0  0  0  0  0  0  0
    5.2570   -0.9800    0.3410 O   0  0  0  0  0  0  0  0  0  0  0  0
    5.0270    0.3910    0.5630 C   0  0  0  0  0  0  0  0  0  0  0  0
  1  2  2  0
  2  3  1  0
  3  4  2  3
  4  5  1  0
  5  6  2  0
  5  7  1  0
  7  8  1  0
  8  9  2  0
  8 13  1  0
  9 10  1  0
 10 11  2  0
 11 12  1  0
 11 17  1  0
 12 13  2  0
 12 14  1  0
 14 15  2  0
 14 16  1  0
 16 17  1  0
M  END
