
     RDKit          3D

 31 35  0  0  0  0  0  0  0  0999 V2000
   -6.1710   -0.7870   -3.0370 C   0  0  0  0  0  0  0  0  0  0  0  0
   -5.2640   -0.0880   -2.1470 N   0  0  0  0  0  0  0  0  0  0  0  0
   -4.7060    1.0610   -2.6070 C   0  0  0  0  0  0  0  0  0  0  0  0
   -3.8390    1.7550   -1.7920 C   0  0  0  0  0  0  0  0  0  0  0  0
   -3.5510    1.2640   -0.5110 C   0  0  0  0  0  0  0  0  0  0  0  0
   -4.1200    0.1000   -0.0540 C   0  0  0  0  0  0  0  0  0  0  0  0
   -3.8410   -0.3800    1.2680 C   0  0  0  0  0  0  0  0  0  0  0  0
   -4.8900   -0.6770    2.1400 C   0  0  0  0  0  0  0  0  0  0  0  0
   -4.6520   -1.0990    3.4110 C   0  0  0  0  0  0  0  0  0  0  0  0
   -3.3580   -1.2390    3.8540 C   0  0  0  0  0  0  0  0  0  0  0  0
   -2.3640   -0.9560    3.0190 N   0  0  0  0  0  0  0  0  0  0  0  0
   -2.5770   -0.5300    1.7340 C   0  0  0  0  0  0  0  0  0  0  0  0
   -1.4570   -0.2870    0.8990 N   0  0  0  0  0  0  0  0  0  0  0  0
   -0.1160   -0.4360    1.4140 C   0  0  0  0  0  0  0  0  0  0  0  0
    0.0180   -0.7790    2.5950 O   0  0  0  0  0  0  0  0  0  0  0  0
    1.0360   -0.1970    0.5960 N   0  0  0  0  0  0  0  0  0  0  0  0
    2.3350   -0.3710    1.1960 C   0  0  0  0  0  0  0  0  0  0  0  0
    3.4780   -0.1190    0.3480 C   0  0  0  0  0  0  0  0  0  0  0  0
    3.3670    0.2680   -0.9560 C   0  0  0  0  0  0  0  0  0  0  0  0
    4.5040    0.5050   -1.7470 C   0  0  0  0  0  0  0  0  0  0  0  0
    5.7490    0.3460   -1.2060 C   0  0  0  0  0  0  0  0  0  0  0  0
    5.8810   -0.0430    0.1020 C   0  0  0  0  0  0  0  0  0  0  0  0
    7.0110   -0.2670    0.8610 C   0  0  0  0  0  0  0  0  0  0  0  0
    6.5340   -0.6390    2.1100 C   0  0  0  0  0  0  0  0  0  0  0  0
    5.2080   -0.6320    2.0820 N   0  0  0  0  0  0  0  0  0  0  0  0
    4.7500   -0.2700    0.8620 C   0  0  0  0  0  0  0  0  0  0  0  0
    6.7150    0.6340   -2.1710 O   0  0  0  0  0  0  0  0  0  0  0  0
    6.0790    0.7980   -3.4000 C   0  0  0  0  0  0  0  0  0  0  0  0
    4.7040    0.8950   -3.0600 O   0  0  0  0  0  0  0  0  0  0  0  0
   -4.9810   -0.5580   -0.9060 C   0  0  0  0  0  0  0  0  0  0  0  0
   -5.5130   -1.6340   -0.4960 O   0  0  0  0  0  0  0  0  0  0  0  0
  1  2  1  0
  2  3  1  0
  2 30  1  0
  3  4  2  0
  4  5  1  0
  5  6  2  0
  6  7  1  0
  6 30  1  0
  7  8  2  0
  7 12  1  0
  8  9  1  0
  9 10  2  0
 10 11  1  0
 11 12  2  0
 12 13  1  0
 13 14  1  0
 14 15  2  0
 14 16  1  0
 16 17  1  0
 17 18  1  0
 18 19  2  0
 18 26  1  0
 19 20  1  0
 20 21  2  0
 20 29  1  0
 21 22  1  0
 21 27  1  0
 22 23  1  0
 22 26  2  0
 23 24  2  0
 24 25  1  0
 25 26  1  0
 27 28  1  0
 28 29  1  0
 30 31  2  0
M  END
