
     RDKit          3D

 29 30  0  0  0  0  0  0  0  0999 V2000
    0.8760   -2.2410    1.2820 C   0  0  0  0  0  0  0  0  0  0  0  0
    0.6180   -0.8110    0.7760 C   0  0  2  0  0  0  0  0  0  0  0  0
    0.8570   -0.7140   -0.5580 O   0  0  0  0  0  0  0  0  0  0  0  0
    1.3820    0.1100    1.6730 C   0  0  0  0  0  0  0  0  0  0  0  0
    2.7030   -0.0120    1.6260 O   0  0  0  0  0  0  0  0  0  0  0  0
    3.7140    0.1960    0.7560 C   0  0  0  0  0  0  0  0  0  0  0  0
    3.6050    0.7150   -0.5160 C   0  0  0  0  0  0  0  0  0  0  0  0
    4.7170    0.8780   -1.3260 C   0  0  0  0  0  0  0  0  0  0  0  0
    5.9820    0.5350   -0.9130 C   0  0  0  0  0  0  0  0  0  0  0  0
    7.1180    0.7020   -1.7420 N   0  0  0  0  0  0  0  0  0  0  0  0
    6.9730    1.1680   -2.8710 O   0  0  0  0  0  0  0  0  0  0  0  0
    8.3590    0.3460   -1.2870 O   0  0  0  0  0  0  0  0  0  0  0  0
    6.1130    0.0160    0.3530 C   0  0  0  0  0  0  0  0  0  0  0  0
    5.0340   -0.1460    1.1480 C   0  0  0  0  0  0  0  0  0  0  0  0
   -0.8520   -0.4980    1.0270 C   0  0  0  0  0  0  0  0  0  0  0  0
   -1.2140   -0.5500    2.2110 O   0  0  0  0  0  0  0  0  0  0  0  0
   -1.6740   -0.1840   -0.0570 N   0  0  0  0  0  0  0  0  0  0  0  0
   -3.0390    0.1230    0.0770 C   0  0  0  0  0  0  0  0  0  0  0  0
   -3.6690    0.4000    1.2500 C   0  0  0  0  0  0  0  0  0  0  0  0
   -5.0210    0.6690    1.2660 C   0  0  0  0  0  0  0  0  0  0  0  0
   -5.7510    0.6640    0.1060 C   0  0  0  0  0  0  0  0  0  0  0  0
   -7.1670    0.9400    0.0740 C   0  0  0  0  0  0  0  0  0  0  0  0
   -8.3080    1.1640    0.0590 N   0  0  0  0  0  0  0  0  0  0  0  0
   -5.1030    0.3820   -1.0910 C   0  0  0  0  0  0  0  0  0  0  0  0
   -5.8900    0.3750   -2.3490 C   0  0  1  0  0  0  0  0  0  0  0  0
   -6.4280    1.6530   -2.4840 F   0  0  0  0  0  0  0  0  0  0  0  0
   -5.0490    0.1690   -3.4140 F   0  0  0  0  0  0  0  0  0  0  0  0
   -6.8900   -0.5740   -2.2630 F   0  0  0  0  0  0  0  0  0  0  0  0
   -3.7680    0.1140   -1.1180 C   0  0  0  0  0  0  0  0  0  0  0  0
  2  1  1  1
  2  3  1  0
  2  4  1  0
  2 15  1  0
  4  5  1  0
  5  6  1  0
  6  7  2  0
  6 14  1  0
  7  8  1  0
  8  9  2  0
  9 10  1  0
  9 13  1  0
 10 11  2  0
 10 12  1  0
 13 14  2  0
 15 16  2  0
 15 17  1  0
 17 18  1  0
 18 19  2  0
 18 29  1  0
 19 20  1  0
 20 21  2  0
 21 22  1  0
 21 24  1  0
 22 23  3  0
 24 25  1  0
 24 29  2  0
 25 26  1  6
 25 27  1  0
 25 28  1  0
M  CHG  2  10   1  12  -1
M  END
