
     RDKit          3D

 31 35  0  0  0  0  0  0  0  0999 V2000
   -2.5810   -2.2830   -0.0690 O   0  0  0  0  0  0  0  0  0  0  0  0
   -2.5660   -1.5480    0.8750 C   0  0  0  0  0  0  0  0  0  0  0  0
   -3.8720   -1.4870    1.6500 N   0  0  0  0  0  0  0  0  0  0  0  0
   -4.9750   -2.2350    1.2340 C   0  0  0  0  0  0  0  0  0  0  0  0
   -5.7560   -1.5030    0.1970 C   0  0  0  0  0  0  0  0  0  0  0  0
   -6.0770   -2.0470   -1.0150 C   0  0  0  0  0  0  0  0  0  0  0  0
   -6.8520   -1.3290   -1.9470 C   0  0  0  0  0  0  0  0  0  0  0  0
   -7.2890   -0.0680   -1.6250 C   0  0  0  0  0  0  0  0  0  0  0  0
   -6.9570    0.4550   -0.4130 C   0  0  0  0  0  0  0  0  0  0  0  0
   -6.2060   -0.2110    0.5160 C   0  0  0  0  0  0  0  0  0  0  0  0
   -7.5110    1.7360   -0.3300 O   0  0  0  0  0  0  0  0  0  0  0  0
   -8.3430    1.9460   -1.4390 C   0  0  0  0  0  0  0  0  0  0  0  0
   -8.0520    0.8810   -2.2940 O   0  0  0  0  0  0  0  0  0  0  0  0
   -1.6820   -0.6850    1.5240 N   0  0  0  0  0  0  0  0  0  0  0  0
   -0.3470   -1.0390    0.5330 C   0  0  0  0  0  0  0  0  0  0  0  0
   -0.4950   -1.8450   -0.3030 O   0  0  0  0  0  0  0  0  0  0  0  0
    0.8070   -0.2670    0.8760 C   0  0  0  0  0  0  0  0  0  0  0  0
    1.9270   -0.4250    0.2240 N   0  0  0  0  0  0  0  0  0  0  0  0
    3.0910    0.2790    0.4850 N   0  0  0  0  0  0  0  0  0  0  0  0
    4.2890    0.0810   -0.2440 C   0  0  0  0  0  0  0  0  0  0  0  0
    5.3830    0.7500    0.0050 C   0  0  0  0  0  0  0  0  0  0  0  0
    6.5500    0.4380   -0.8340 C   0  0  0  0  0  0  0  0  0  0  0  0
    7.7130    1.0410   -0.6840 C   0  0  0  0  0  0  0  0  0  0  0  0
    8.6730    0.5080   -1.6680 C   0  0  0  0  0  0  0  0  0  0  0  0
    7.8650   -0.4920   -2.3990 C   0  0  0  0  0  0  0  0  0  0  0  0
    6.6350   -0.5320   -1.9150 C   0  0  0  0  0  0  0  0  0  0  0  0
    5.4540    1.7540    1.0620 C   0  0  0  0  0  0  0  0  0  0  0  0
    4.1910    1.9280    1.7900 C   0  0  0  0  0  0  0  0  0  0  0  0
    3.0960    1.2600    1.5400 C   0  0  0  0  0  0  0  0  0  0  0  0
    1.8410    1.4170    2.2460 C   0  0  0  0  0  0  0  0  0  0  0  0
    0.8300    0.7000    1.9070 N   0  0  0  0  0  0  0  0  0  0  0  0
  1  2  2  0
  2  3  1  0
  2 14  1  0
  3  4  1  0
  4  5  1  0
  5  6  2  0
  5 10  1  0
  6  7  1  0
  7  8  2  0
  8  9  1  0
  8 13  1  0
  9 10  2  0
  9 11  1  0
 11 12  1  0
 12 13  1  0
 14 15  1  0
 15 16  2  0
 15 17  1  0
 17 18  2  0
 17 31  1  0
 18 19  1  0
 19 20  1  0
 19 29  1  0
 20 21  2  0
 21 22  1  0
 21 27  1  0
 22 23  2  0
 22 26  1  0
 23 24  1  0
 24 25  1  0
 25 26  2  0
 27 28  1  0
 28 29  2  0
 29 30  1  0
 30 31  2  0
M  END
