
     RDKit          3D

 30 32  0  0  0  0  0  0  0  0999 V2000
   -5.3680    3.7210   -0.6710 C   0  0  0  0  0  0  0  0  0  0  0  0
   -4.2460    3.0920   -1.3350 N   0  0  0  0  0  0  0  0  0  0  0  0
   -3.2490    2.3610   -0.6970 N   0  0  0  0  0  0  0  0  0  0  0  0
   -3.2920    1.0920   -0.4780 C   0  0  0  0  0  0  0  0  0  0  0  0
   -4.5460    0.4180   -0.9820 C   0  0  0  0  0  0  0  0  0  0  0  0
   -2.2510    0.3400    0.1800 C   0  0  0  0  0  0  0  0  0  0  0  0
   -1.1400    0.9420    0.6200 C   0  0  0  0  0  0  0  0  0  0  0  0
   -0.9540    2.3830    0.4500 C   0  0  0  0  0  0  0  0  0  0  0  0
   -0.1410    0.1040    1.2820 C   0  0  0  0  0  0  0  0  0  0  0  0
    1.1310    0.0920    1.0820 C   0  0  0  0  0  0  0  0  0  0  0  0
    1.9070    0.8700    0.1670 C   0  0  0  0  0  0  0  0  0  0  0  0
    1.4960    1.7150   -0.6590 O   0  0  0  0  0  0  0  0  0  0  0  0
    3.3660    0.7150    0.1350 N   0  0  0  0  0  0  0  0  0  0  0  0
    4.1730    1.4700   -0.7510 C   0  0  0  0  0  0  0  0  0  0  0  0
    3.6190    2.3020   -1.5400 O   0  0  0  0  0  0  0  0  0  0  0  0
    5.5800    1.2970   -0.7540 N   0  0  0  0  0  0  0  0  0  0  0  0
    6.4690    2.0310   -1.6250 C   0  0  0  0  0  0  0  0  0  0  0  0
    7.7670    2.4010   -0.9610 C   0  0  0  0  0  0  0  0  0  0  0  0
    8.2160    1.4980   -0.0290 O   0  0  0  0  0  0  0  0  0  0  0  0
    7.6460    0.2440   -0.1290 C   0  0  0  0  0  0  0  0  0  0  0  0
    6.1680    0.3390    0.1570 C   0  0  0  0  0  0  0  0  0  0  0  0
   -0.7660   -0.9100    2.2340 C   0  0  0  0  0  0  0  0  0  0  0  0
   -1.7760   -1.5940    1.5620 N   0  0  0  0  0  0  0  0  0  0  0  0
   -1.8150   -3.0170    1.7640 C   0  0  0  0  0  0  0  0  0  0  0  0
   -2.8970   -3.7060    1.0590 C   0  0  0  0  0  0  0  0  0  0  0  0
   -2.6810   -4.6630    0.1400 C   0  0  0  0  0  0  0  0  0  0  0  0
   -4.0010   -5.1280   -0.3560 C   0  0  0  0  0  0  0  0  0  0  0  0
   -4.9810   -4.3170    0.3990 C   0  0  0  0  0  0  0  0  0  0  0  0
   -4.3300   -3.5070    1.2050 C   0  0  0  0  0  0  0  0  0  0  0  0
   -2.4000   -1.1280    0.4070 C   0  0  0  0  0  0  0  0  0  0  0  0
  1  2  1  0
  2  3  1  0
  3  4  2  3
  4  5  1  0
  4  6  1  0
  6  7  2  0
  6 30  1  0
  7  8  1  0
  7  9  1  0
  9 10  2  3
  9 22  1  0
 10 11  1  0
 11 12  2  0
 11 13  1  0
 13 14  1  0
 14 15  2  0
 14 16  1  0
 16 17  1  0
 16 21  1  0
 17 18  1  0
 18 19  1  0
 19 20  1  0
 20 21  1  0
 22 23  1  0
 23 24  1  0
 23 30  1  0
 24 25  1  0
 25 26  2  0
 25 29  1  0
 26 27  1  0
 27 28  1  0
 28 29  2  0
M  END
