
     RDKit          3D

 30 33  0  0  0  0  0  0  0  0999 V2000
    8.6800   -2.2210    0.9550 C   0  0  0  0  0  0  0  0  0  0  0  0
    8.3540   -0.8360    0.6650 N   0  0  0  0  0  0  0  0  0  0  0  0
    9.2140    0.2870    0.9620 C   0  0  0  0  0  0  0  0  0  0  0  0
    8.5380    1.4470    0.2830 C   0  0  0  0  0  0  0  0  0  0  0  0
    7.2050    0.9520   -0.1370 C   0  0  0  0  0  0  0  0  0  0  0  0
    7.1450   -0.3260    0.0820 C   0  0  0  0  0  0  0  0  0  0  0  0
    5.8670   -0.8510   -0.4880 C   0  0  0  0  0  0  0  0  0  0  0  0
    5.0240    0.3170   -0.5000 N   0  0  0  0  0  0  0  0  0  0  0  0
    3.5990    0.3100   -0.3890 C   0  0  0  0  0  0  0  0  0  0  0  0
    2.8710   -0.7550   -0.8330 C   0  0  0  0  0  0  0  0  0  0  0  0
    1.5010   -0.7580   -0.6670 C   0  0  0  0  0  0  0  0  0  0  0  0
    0.8120    0.2620   -0.0690 C   0  0  0  0  0  0  0  0  0  0  0  0
   -0.6240    0.3140    0.0870 C   0  0  0  0  0  0  0  0  0  0  0  0
   -1.2620    0.2250    1.1440 O   0  0  0  0  0  0  0  0  0  0  0  0
   -1.3660    0.5010   -1.1490 N   0  0  0  0  0  0  0  0  0  0  0  0
   -2.7690    0.6190   -1.0890 C   0  0  0  0  0  0  0  0  0  0  0  0
   -3.4460   -0.6140   -0.5830 C   0  0  0  0  0  0  0  0  0  0  0  0
   -4.8890   -0.1850   -0.4090 C   0  0  0  0  0  0  0  0  0  0  0  0
   -5.8890   -0.9640   -0.1020 N   0  0  0  0  0  0  0  0  0  0  0  0
   -6.9860   -0.1860   -0.0310 C   0  0  0  0  0  0  0  0  0  0  0  0
   -8.3900   -0.5560    0.3130 C   0  0  2  0  0  0  0  0  0  0  0  0
   -9.1220    0.7490    0.5490 C   0  0  0  0  0  0  0  0  0  0  0  0
   -8.4020   -1.4250    1.5510 C   0  0  0  0  0  0  0  0  0  0  0  0
   -9.0490   -1.3100   -0.8050 C   0  0  0  0  0  0  0  0  0  0  0  0
   -6.5500    1.0820   -0.3280 N   0  0  0  0  0  0  0  0  0  0  0  0
   -5.2920    1.0530   -0.5480 O   0  0  0  0  0  0  0  0  0  0  0  0
    1.5750    1.3480    0.3800 C   0  0  0  0  0  0  0  0  0  0  0  0
    2.9420    1.3620    0.2190 C   0  0  0  0  0  0  0  0  0  0  0  0
    5.8710    1.4580   -0.5420 C   0  0  0  0  0  0  0  0  0  0  0  0
    5.5470    2.6320   -0.8550 O   0  0  0  0  0  0  0  0  0  0  0  0
  1  2  1  0
  2  3  1  0
  2  6  1  0
  3  4  1  0
  4  5  1  0
  5  6  2  0
  5 29  1  0
  6  7  1  0
  7  8  1  0
  8  9  1  0
  8 29  1  0
  9 10  2  0
  9 28  1  0
 10 11  1  0
 11 12  2  0
 12 13  1  0
 12 27  1  0
 13 14  2  0
 13 15  1  0
 15 16  1  0
 16 17  1  0
 17 18  1  0
 18 19  2  0
 18 26  1  0
 19 20  1  0
 20 21  1  0
 20 25  2  0
 21 22  1  1
 21 23  1  0
 21 24  1  0
 25 26  1  0
 27 28  2  0
 29 30  2  0
M  END
