
     RDKit          3D

 30 34  0  0  0  0  0  0  0  0999 V2000
   -5.1910    1.2020    3.8820 C   0  0  0  0  0  0  0  0  0  0  0  0
   -4.1660    0.6960    2.8850 C   0  0  0  0  0  0  0  0  0  0  0  0
   -3.0110    0.5480    3.2900 O   0  0  0  0  0  0  0  0  0  0  0  0
   -4.5900    0.4200    1.5390 C   0  0  0  0  0  0  0  0  0  0  0  0
   -5.9100    0.7280    1.1510 C   0  0  0  0  0  0  0  0  0  0  0  0
   -6.4040    0.5160   -0.1060 C   0  0  0  0  0  0  0  0  0  0  0  0
   -5.5510   -0.0280   -1.0270 C   0  0  0  0  0  0  0  0  0  0  0  0
   -4.2540   -0.3430   -0.6870 C   0  0  0  0  0  0  0  0  0  0  0  0
   -3.3790   -0.8950   -1.5970 C   0  0  0  0  0  0  0  0  0  0  0  0
   -3.8050   -1.1010   -2.7620 O   0  0  0  0  0  0  0  0  0  0  0  0
   -2.1080   -1.2300   -1.3380 N   0  0  0  0  0  0  0  0  0  0  0  0
   -1.6630   -1.0050   -0.0920 C   0  0  0  0  0  0  0  0  0  0  0  0
   -0.4470   -1.3190    0.1780 N   0  0  0  0  0  0  0  0  0  0  0  0
    0.4270   -1.8800   -0.7610 C   0  0  0  0  0  0  0  0  0  0  0  0
    1.2860   -1.2050   -1.4470 N   0  0  0  0  0  0  0  0  0  0  0  0
    2.1590   -1.7680   -2.3870 C   0  0  0  0  0  0  0  0  0  0  0  0
    3.4640   -1.5390   -2.4170 C   0  0  0  0  0  0  0  0  0  0  0  0
    4.4340   -2.0530   -3.3190 N   0  0  0  0  0  0  0  0  0  0  0  0
    5.6070   -1.6260   -3.0620 C   0  0  0  0  0  0  0  0  0  0  0  0
    5.5110   -0.7480   -1.9110 C   0  0  0  0  0  0  0  0  0  0  0  0
    6.4370   -0.0020   -1.1830 C   0  0  0  0  0  0  0  0  0  0  0  0
    6.0590    0.7670   -0.1030 C   0  0  0  0  0  0  0  0  0  0  0  0
    4.7440    0.8260    0.2990 C   0  0  0  0  0  0  0  0  0  0  0  0
    3.8130    0.0850   -0.4200 C   0  0  0  0  0  0  0  0  0  0  0  0
    4.1980   -0.6790   -1.4960 C   0  0  0  0  0  0  0  0  0  0  0  0
    4.6120    1.6480    1.3860 O   0  0  0  0  0  0  0  0  0  0  0  0
    5.9330    1.8590    1.8760 C   0  0  0  0  0  0  0  0  0  0  0  0
    6.7760    1.5870    0.7710 O   0  0  0  0  0  0  0  0  0  0  0  0
   -2.4790   -0.4610    0.8580 N   0  0  0  0  0  0  0  0  0  0  0  0
   -3.7560   -0.1220    0.6050 C   0  0  0  0  0  0  0  0  0  0  0  0
  1  2  1  0
  2  3  2  0
  2  4  1  0
  4  5  2  0
  4 30  1  0
  5  6  1  0
  6  7  2  0
  7  8  1  0
  8  9  1  0
  8 30  2  0
  9 10  2  0
  9 11  1  0
 11 12  1  0
 12 13  2  3
 12 29  1  0
 13 14  1  0
 14 15  2  3
 15 16  1  0
 16 17  2  3
 17 18  1  0
 17 25  1  0
 18 19  2  0
 19 20  1  0
 20 21  2  0
 20 25  1  0
 21 22  1  0
 22 23  2  0
 22 28  1  0
 23 24  1  0
 23 26  1  0
 24 25  2  0
 26 27  1  0
 27 28  1  0
 29 30  1  0
M  END
