
     RDKit          3D

 31 35  0  0  0  0  0  0  0  0999 V2000
   -5.4830    3.0080    2.4830 O   0  0  0  0  0  0  0  0  0  0  0  0
   -4.6730    2.2840    1.8520 C   0  0  0  0  0  0  0  0  0  0  0  0
   -5.0820    0.8910    1.5430 C   0  0  0  0  0  0  0  0  0  0  0  0
   -4.4600    0.5340    0.2390 C   0  0  0  0  0  0  0  0  0  0  0  0
   -3.2230    0.9140   -0.1030 C   0  0  0  0  0  0  0  0  0  0  0  0
   -2.6270    0.5420   -1.4150 C   0  0  0  0  0  0  0  0  0  0  0  0
   -1.4360   -0.2420   -1.3000 N   0  0  0  0  0  0  0  0  0  0  0  0
   -0.1510    0.1520   -1.2490 C   0  0  0  0  0  0  0  0  0  0  0  0
    0.3040    1.3500   -1.3100 N   0  0  0  0  0  0  0  0  0  0  0  0
    1.7250    1.6180   -1.2420 C   0  0  0  0  0  0  0  0  0  0  0  0
    2.1920    2.1650   -2.2190 O   0  0  0  0  0  0  0  0  0  0  0  0
    2.3940    1.2060   -0.0390 C   0  0  0  0  0  0  0  0  0  0  0  0
    1.6370    1.1170    1.1590 C   0  0  0  0  0  0  0  0  0  0  0  0
    2.1940    0.7980    2.3610 C   0  0  0  0  0  0  0  0  0  0  0  0
    3.5410    0.5480    2.4380 C   0  0  0  0  0  0  0  0  0  0  0  0
    4.3380    0.6140    1.3180 C   0  0  0  0  0  0  0  0  0  0  0  0
    5.6580    0.3420    1.4370 N   0  0  0  0  0  0  0  0  0  0  0  0
    6.4680    0.3740    0.3730 C   0  0  0  0  0  0  0  0  0  0  0  0
    5.9170    0.6840   -0.8010 N   0  0  0  0  0  0  0  0  0  0  0  0
    4.5940    0.9660   -0.9770 C   0  0  0  0  0  0  0  0  0  0  0  0
    4.1620    1.2400   -2.1010 O   0  0  0  0  0  0  0  0  0  0  0  0
    3.7410    0.9420    0.1030 C   0  0  0  0  0  0  0  0  0  0  0  0
    0.6360   -0.9350   -1.1290 N   0  0  0  0  0  0  0  0  0  0  0  0
   -0.1270   -2.0180   -1.1010 C   0  0  0  0  0  0  0  0  0  0  0  0
    0.1360   -3.3630   -0.9950 C   0  0  0  0  0  0  0  0  0  0  0  0
   -0.8660   -4.3270   -0.9900 C   0  0  0  0  0  0  0  0  0  0  0  0
   -2.1610   -3.8720   -1.0980 C   0  0  0  0  0  0  0  0  0  0  0  0
   -2.4290   -2.5230   -1.2050 C   0  0  0  0  0  0  0  0  0  0  0  0
   -1.4330   -1.5830   -1.2090 C   0  0  0  0  0  0  0  0  0  0  0  0
   -2.4780    1.7280    0.8890 C   0  0  0  0  0  0  0  0  0  0  0  0
   -3.4200    2.6800    1.4170 O   0  0  0  0  0  0  0  0  0  0  0  0
  1  2  2  0
  2  3  1  0
  2 31  1  0
  3  4  1  0
  4  5  2  0
  5  6  1  0
  5 30  1  0
  6  7  1  0
  7  8  1  0
  7 29  1  0
  8  9  2  3
  8 23  1  0
  9 10  1  0
 10 11  2  0
 10 12  1  0
 12 13  2  0
 12 22  1  0
 13 14  1  0
 14 15  2  0
 15 16  1  0
 16 17  1  0
 16 22  2  0
 17 18  2  0
 18 19  1  0
 19 20  1  0
 20 21  2  0
 20 22  1  0
 23 24  1  0
 24 25  2  0
 24 29  1  0
 25 26  1  0
 26 27  2  0
 27 28  1  0
 28 29  2  0
 30 31  1  0
M  END
