
     RDKit          3D

 31 35  0  0  0  0  0  0  0  0999 V2000
    8.8400   -0.3710   -1.2790 C   0  0  0  0  0  0  0  0  0  0  0  0
    7.4870   -0.6790   -1.4650 O   0  0  0  0  0  0  0  0  0  0  0  0
    6.5390   -0.3080   -0.4900 C   0  0  0  0  0  0  0  0  0  0  0  0
    6.9580    0.3550    0.6380 C   0  0  0  0  0  0  0  0  0  0  0  0
    6.0450    0.7190    1.5910 C   0  0  0  0  0  0  0  0  0  0  0  0
    4.6940    0.4350    1.4500 C   0  0  0  0  0  0  0  0  0  0  0  0
    4.2930   -0.2410    0.2930 C   0  0  0  0  0  0  0  0  0  0  0  0
    5.2040   -0.6060   -0.6610 C   0  0  0  0  0  0  0  0  0  0  0  0
    2.8690   -0.5330    0.1580 C   0  0  0  0  0  0  0  0  0  0  0  0
    1.9940   -0.1460    1.1420 C   0  0  0  0  0  0  0  0  0  0  0  0
    0.7580   -0.5570    0.7290 N   0  0  0  0  0  0  0  0  0  0  0  0
    0.8760   -1.1640   -0.4490 C   0  0  0  0  0  0  0  0  0  0  0  0
   -0.0920   -1.6760   -1.1310 N   0  0  0  0  0  0  0  0  0  0  0  0
   -1.4320   -1.6680   -0.7250 C   0  0  0  0  0  0  0  0  0  0  0  0
   -1.9500   -2.7890   -0.4090 O   0  0  0  0  0  0  0  0  0  0  0  0
   -2.2450   -0.4690   -0.6470 C   0  0  0  0  0  0  0  0  0  0  0  0
   -1.6710    0.7280   -0.9900 C   0  0  0  0  0  0  0  0  0  0  0  0
   -2.4290    1.8760   -0.9220 C   0  0  0  0  0  0  0  0  0  0  0  0
   -3.7050    1.8100   -0.5250 N   0  0  0  0  0  0  0  0  0  0  0  0
   -4.3250    0.6610   -0.1740 C   0  0  0  0  0  0  0  0  0  0  0  0
   -5.6730    0.6200    0.2410 N   0  0  0  0  0  0  0  0  0  0  0  0
   -6.4040    1.8710    0.2870 C   0  0  0  0  0  0  0  0  0  0  0  0
   -7.6930    1.7830    1.0370 C   0  0  0  0  0  0  0  0  0  0  0  0
   -7.8410    0.6090    1.7630 O   0  0  0  0  0  0  0  0  0  0  0  0
   -7.7260   -0.4490    0.8370 C   0  0  0  0  0  0  0  0  0  0  0  0
   -6.2560   -0.6490    0.5980 C   0  0  0  0  0  0  0  0  0  0  0  0
   -3.5560   -0.4860   -0.2460 C   0  0  0  0  0  0  0  0  0  0  0  0
    2.1950   -1.1540   -0.8170 N   0  0  0  0  0  0  0  0  0  0  0  0
    2.6600   -1.7280   -2.0350 C   0  0  0  0  0  0  0  0  0  0  0  0
    2.4250    0.5630    2.3530 C   0  0  0  0  0  0  0  0  0  0  0  0
    3.7840    0.8030    2.4070 O   0  0  0  0  0  0  0  0  0  0  0  0
  1  2  1  0
  2  3  1  0
  3  4  2  0
  3  8  1  0
  4  5  1  0
  5  6  2  0
  6  7  1  0
  6 31  1  0
  7  8  2  0
  7  9  1  0
  9 10  2  0
  9 28  1  0
 10 11  1  0
 10 30  1  0
 11 12  1  0
 12 13  2  3
 12 28  1  0
 13 14  1  0
 14 15  2  0
 14 16  1  0
 16 17  2  0
 16 27  1  0
 17 18  1  0
 18 19  2  0
 19 20  1  0
 20 21  1  0
 20 27  2  0
 21 22  1  0
 21 26  1  0
 22 23  1  0
 23 24  1  0
 24 25  1  0
 25 26  1  0
 28 29  1  0
 30 31  1  0
M  END
