
     RDKit          3D

 32 35  0  0  0  0  0  0  0  0999 V2000
   -4.8950    1.9140    0.8380 C   0  0  0  0  0  0  0  0  0  0  0  0
   -5.2940    0.4630    1.1120 C   0  0  0  0  0  0  0  0  0  0  0  0
   -6.2400    0.3160    2.1930 C   0  0  0  0  0  0  0  0  0  0  0  0
   -6.9080    1.6310    2.4820 N   0  0  0  0  0  0  0  0  0  0  0  0
   -4.7430   -0.3980    0.3120 C   0  0  0  0  0  0  0  0  0  0  0  0
   -3.8930    0.0890   -0.6680 N   0  0  0  0  0  0  0  0  0  0  0  0
   -3.2380   -0.6050   -1.5710 C   0  0  0  0  0  0  0  0  0  0  0  0
   -2.3390    0.0630   -2.5830 C   0  0  0  0  0  0  0  0  0  0  0  0
   -1.0260    0.0840   -2.0330 N   0  0  2  0  0  0  0  0  0  0  0  0
   -1.0290    0.2830   -0.6190 C   0  0  0  0  0  0  0  0  0  0  0  0
    0.3220    0.3790   -0.0090 C   0  0  0  0  0  0  0  0  0  0  0  0
    1.4220    0.4280   -0.9490 N   0  0  0  0  0  0  0  0  0  0  0  0
    2.7320    0.2730   -0.4400 C   0  0  0  0  0  0  0  0  0  0  0  0
    2.9630    0.0980    0.9000 C   0  0  0  0  0  0  0  0  0  0  0  0
    4.2700   -0.0500    1.3250 C   0  0  0  0  0  0  0  0  0  0  0  0
    5.3120   -0.0230    0.4200 C   0  0  0  0  0  0  0  0  0  0  0  0
    6.6990   -0.1770    0.8310 C   0  0  0  0  0  0  0  0  0  0  0  0
    7.1010    0.2800    2.0550 C   0  0  0  0  0  0  0  0  0  0  0  0
    8.4340    0.1260    2.4390 C   0  0  0  0  0  0  0  0  0  0  0  0
    9.3530   -0.4730    1.6150 C   0  0  0  0  0  0  0  0  0  0  0  0
   11.0110   -0.6290    2.1710 Cl  0  0  0  0  0  0  0  0  0  0  0  0
    8.9500   -0.9340    0.3820 C   0  0  0  0  0  0  0  0  0  0  0  0
    7.6330   -0.7780    0.0130 C   0  0  0  0  0  0  0  0  0  0  0  0
    5.0460    0.1560   -0.9260 C   0  0  0  0  0  0  0  0  0  0  0  0
    3.7700    0.2940   -1.2830 N   0  0  0  0  0  0  0  0  0  0  0  0
    1.2520    0.6260   -2.3640 C   0  0  0  0  0  0  0  0  0  0  0  0
   -0.1650    1.1290   -2.5960 C   0  0  0  0  0  0  0  0  0  0  0  0
   -3.3890   -1.9790   -1.5710 C   0  0  0  0  0  0  0  0  0  0  0  0
   -4.2050   -2.5620   -0.6420 C   0  0  0  0  0  0  0  0  0  0  0  0
   -4.8830   -1.7570    0.3040 C   0  0  0  0  0  0  0  0  0  0  0  0
   -5.5900   -2.3850    1.2180 C   0  0  0  0  0  0  0  0  0  0  0  0
   -5.6640   -3.7740    1.1050 F   0  0  0  0  0  0  0  0  0  0  0  0
  1  2  1  0
  2  3  1  0
  2  5  2  3
  3  4  1  0
  5  6  1  0
  5 30  1  0
  6  7  2  0
  7  8  1  0
  7 28  1  0
  9  8  1  6
  9 10  1  0
  9 27  1  0
 10 11  1  0
 11 12  1  0
 12 13  1  0
 12 26  1  0
 13 14  2  0
 13 25  1  0
 14 15  1  0
 15 16  2  0
 16 17  1  0
 16 24  1  0
 17 18  2  0
 17 23  1  0
 18 19  1  0
 19 20  2  0
 20 21  1  0
 20 22  1  0
 22 23  2  0
 24 25  2  0
 26 27  1  0
 28 29  2  0
 29 30  1  0
 30 31  2  3
 31 32  1  0
M  CHG  2   4   1   9   1
M  END
