
     RDKit          3D

 32 36  0  0  0  0  0  0  0  0999 V2000
   -7.2890   -0.7020   -1.4690 F   0  0  0  0  0  0  0  0  0  0  0  0
   -7.8200   -0.0390   -0.4250 C   0  0  0  0  0  0  0  0  0  0  0  0
   -9.0100   -0.2370    0.0740 C   0  0  0  0  0  0  0  0  0  0  0  0
   -9.2220    0.6780    1.2000 C   0  0  0  0  0  0  0  0  0  0  0  0
   -7.9600    1.4320    1.2640 C   0  0  0  0  0  0  0  0  0  0  0  0
   -7.1450    1.0110    0.3140 C   0  0  0  0  0  0  0  0  0  0  0  0
   -5.7670    1.5110    0.0300 C   0  0  0  0  0  0  0  0  0  0  0  0
   -4.8210    0.4100    0.1640 N   0  0  0  0  0  0  0  0  0  0  0  0
   -4.3930    0.0290   -1.1700 C   0  0  0  0  0  0  0  0  0  0  0  0
   -2.9050    0.2490   -1.2200 C   0  0  0  0  0  0  0  0  0  0  0  0
   -2.3730    1.4550   -1.6140 C   0  0  0  0  0  0  0  0  0  0  0  0
   -1.0080    1.6520   -1.6580 C   0  0  0  0  0  0  0  0  0  0  0  0
   -0.1830    0.6070   -1.2950 C   0  0  0  0  0  0  0  0  0  0  0  0
   -0.6820   -0.6030   -0.8980 C   0  0  0  0  0  0  0  0  0  0  0  0
    0.1710   -1.7470   -0.4960 C   0  0  0  0  0  0  0  0  0  0  0  0
    1.4940   -1.3510   -0.1440 N   0  0  0  0  0  0  0  0  0  0  0  0
    1.5650   -0.4460    0.9860 C   0  0  0  0  0  0  0  0  0  0  0  0
    2.9580    0.1460    0.9600 C   0  0  0  0  0  0  0  0  0  0  0  0
    3.9900   -0.8090    0.8910 N   0  0  0  0  0  0  0  0  0  0  0  0
    3.6680   -2.1500    0.6700 C   0  0  2  0  0  0  0  0  0  0  0  0
    4.6920   -2.6600   -0.3490 C   0  0  0  0  0  0  0  0  0  0  0  0
    5.1620   -1.3660   -0.9770 C   0  0  0  0  0  0  0  0  0  0  0  0
    5.0980   -0.4530    0.1360 N   0  0  0  0  0  0  0  0  0  0  0  0
    5.9960    0.6040    0.4050 C   0  0  0  0  0  0  0  0  0  0  0  0
    6.7400    0.6650    1.5860 C   0  0  0  0  0  0  0  0  0  0  0  0
    7.5970    1.7180    1.7920 C   0  0  0  0  0  0  0  0  0  0  0  0
    7.7570    2.7070    0.8990 N   0  0  0  0  0  0  0  0  0  0  0  0
    7.0640    2.6880   -0.2450 C   0  0  0  0  0  0  0  0  0  0  0  0
    6.1970    1.6440   -0.4780 C   0  0  0  0  0  0  0  0  0  0  0  0
    5.2680    1.5900   -1.9770 Cl  0  0  0  0  0  0  0  0  0  0  0  0
    2.3170   -2.4750    0.1610 C   0  0  0  0  0  0  0  0  0  0  0  0
   -2.0580   -0.7650   -0.8660 C   0  0  0  0  0  0  0  0  0  0  0  0
  1  2  1  0
  2  3  2  0
  2  6  1  0
  3  4  1  0
  4  5  1  0
  5  6  2  0
  6  7  1  0
  7  8  1  0
  8  9  1  0
  9 10  1  0
 10 11  2  0
 10 32  1  0
 11 12  1  0
 12 13  2  0
 13 14  1  0
 14 15  1  0
 14 32  2  0
 15 16  1  0
 16 17  1  0
 16 31  1  0
 17 18  1  0
 18 19  1  0
 19 20  1  0
 19 23  1  0
 20 21  1  6
 20 31  1  0
 21 22  1  0
 22 23  1  0
 23 24  1  0
 24 25  2  0
 24 29  1  0
 25 26  1  0
 26 27  2  0
 27 28  1  0
 28 29  2  0
 29 30  1  0
M  CHG  2   8   1  27   1
M  END
