
     RDKit          3D

 31 35  0  0  0  0  0  0  0  0999 V2000
    7.8990   -0.5280   -1.7940 C   0  0  0  0  0  0  0  0  0  0  0  0
    7.1400   -0.4120   -0.5100 C   0  0  0  0  0  0  0  0  0  0  0  0
    7.5940   -1.0430    0.6350 C   0  0  0  0  0  0  0  0  0  0  0  0
    6.8840   -0.9300    1.8180 C   0  0  0  0  0  0  0  0  0  0  0  0
    5.7170   -0.2020    1.9190 C   0  0  0  0  0  0  0  0  0  0  0  0
    4.8360   -0.0780    3.4380 Cl  0  0  0  0  0  0  0  0  0  0  0  0
    5.2670    0.4270    0.7720 C   0  0  0  0  0  0  0  0  0  0  0  0
    4.0130    1.2220    0.8200 C   0  0  0  0  0  0  0  0  0  0  0  0
    2.7860    0.3580    0.8280 C   0  0  1  0  0  0  0  0  0  0  0  0
    1.5480    1.2380    0.8880 C   0  0  0  0  0  0  0  0  0  0  0  0
    0.8770    0.1800   -0.0020 C   0  0  1  0  0  0  0  0  0  0  0  0
   -0.0450    0.7990   -0.9080 N   0  0  0  0  0  0  0  0  0  0  0  0
   -1.1540   -0.0270   -1.2740 C   0  0  0  0  0  0  0  0  0  0  0  0
   -2.1320   -0.1310   -0.1210 C   0  0  1  0  0  0  0  0  0  0  0  0
   -2.6800    1.1800    0.2940 C   0  0  0  0  0  0  0  0  0  0  0  0
   -2.7260    2.2540   -0.5970 C   0  0  0  0  0  0  0  0  0  0  0  0
   -3.2190    3.4610   -0.1680 C   0  0  0  0  0  0  0  0  0  0  0  0
   -3.6680    3.6780    1.0800 N   0  0  0  0  0  0  0  0  0  0  0  0
   -3.6350    2.6580    1.9620 C   0  0  0  0  0  0  0  0  0  0  0  0
   -3.1420    1.4160    1.5670 C   0  0  0  0  0  0  0  0  0  0  0  0
   -3.0980   -1.1680   -0.2780 N   0  0  0  0  0  0  0  0  0  0  0  0
   -3.6260   -1.5890    0.9800 C   0  0  0  0  0  0  0  0  0  0  0  0
   -4.2540   -2.9850    0.7700 C   0  0  0  0  0  0  0  0  0  0  0  0
   -5.3650   -2.7630   -0.1820 C   0  0  0  0  0  0  0  0  0  0  0  0
   -6.5260   -3.3950   -0.3460 N   0  0  0  0  0  0  0  0  0  0  0  0
   -7.2170   -2.8260   -1.3480 N   0  0  0  0  0  0  0  0  0  0  0  0
   -6.4650   -1.8090   -1.8240 C   0  0  0  0  0  0  0  0  0  0  0  0
   -5.2820   -1.7460   -1.1010 C   0  0  0  0  0  0  0  0  0  0  0  0
   -4.1410   -0.8230   -1.2290 C   0  0  0  0  0  0  0  0  0  0  0  0
    2.2870   -0.0420   -0.5750 C   0  0  0  0  0  0  0  0  0  0  0  0
    5.9740    0.3140   -0.4070 C   0  0  0  0  0  0  0  0  0  0  0  0
  1  2  1  0
  2  3  2  0
  2 31  1  0
  3  4  1  0
  4  5  2  0
  5  6  1  0
  5  7  1  0
  7  8  1  0
  7 31  2  0
  9  8  1  6
  9 10  1  0
  9 30  1  0
 10 11  1  0
 11 12  1  6
 11 30  1  0
 12 13  1  0
 14 13  1  6
 14 15  1  0
 14 21  1  0
 15 16  2  0
 15 20  1  0
 16 17  1  0
 17 18  2  0
 18 19  1  0
 19 20  2  0
 21 22  1  0
 21 29  1  0
 22 23  1  0
 23 24  1  0
 24 25  2  0
 24 28  1  0
 25 26  1  0
 26 27  1  0
 27 28  2  0
 28 29  1  0
M  CHG  2  12   1  18   1
M  END
