
     RDKit          3D

 32 36  0  0  0  0  0  0  0  0999 V2000
   -6.7950    0.0900    0.1120 C   0  0  0  0  0  0  0  0  0  0  0  0
   -6.1210    0.0710   -1.2300 C   0  0  1  0  0  0  0  0  0  0  0  0
   -7.0450    0.6160   -2.2090 N   0  0  0  0  0  0  0  0  0  0  0  0
   -4.8190    0.8320   -1.2330 C   0  0  0  0  0  0  0  0  0  0  0  0
   -3.9130    0.2410   -0.2710 N   0  0  2  0  0  0  0  0  0  0  0  0
   -3.8380    1.1230    0.8740 C   0  0  0  0  0  0  0  0  0  0  0  0
   -3.6860    0.3730    2.1830 C   0  0  0  0  0  0  0  0  0  0  0  0
   -2.2460    0.1830    2.4030 N   0  0  0  0  0  0  0  0  0  0  0  0
   -1.8380   -0.7660    1.3570 C   0  0  0  0  0  0  0  0  0  0  0  0
   -1.4970    0.0220    0.1160 C   0  0  1  0  0  0  0  0  0  0  0  0
   -0.2030   -0.4840   -0.4310 C   0  0  0  0  0  0  0  0  0  0  0  0
    0.8230   -0.3260    0.5240 N   0  0  0  0  0  0  0  0  0  0  0  0
    1.2410    0.9660    0.8560 C   0  0  0  0  0  0  0  0  0  0  0  0
    2.1690    1.4630   -0.2290 C   0  0  0  0  0  0  0  0  0  0  0  0
    3.4610    0.7300   -0.2220 C   0  0  0  0  0  0  0  0  0  0  0  0
    4.4270    1.5580   -0.7400 C   0  0  0  0  0  0  0  0  0  0  0  0
    5.7450    1.2200   -0.8870 C   0  0  0  0  0  0  0  0  0  0  0  0
    6.6530    2.0730   -1.4030 N   0  0  0  0  0  0  0  0  0  0  0  0
    7.9480    1.7680   -1.5590 C   0  0  0  0  0  0  0  0  0  0  0  0
    8.3860    0.5270   -1.1770 C   0  0  0  0  0  0  0  0  0  0  0  0
    9.6700    0.1110   -1.2870 F   0  0  0  0  0  0  0  0  0  0  0  0
    7.4500   -0.3700   -0.6380 C   0  0  0  0  0  0  0  0  0  0  0  0
    6.1240   -0.0640   -0.4770 C   0  0  0  0  0  0  0  0  0  0  0  0
    5.1710   -0.9320    0.0540 C   0  0  0  0  0  0  0  0  0  0  0  0
    5.5910   -2.1820    0.4430 C   0  0  0  0  0  0  0  0  0  0  0  0
    4.7060   -3.1010    0.9780 C   0  0  0  0  0  0  0  0  0  0  0  0
    5.2780   -4.7040    1.4690 Cl  0  0  0  0  0  0  0  0  0  0  0  0
    3.3920   -2.7410    1.1150 C   0  0  0  0  0  0  0  0  0  0  0  0
    2.9610   -1.4670    0.7200 C   0  0  0  0  0  0  0  0  0  0  0  0
    3.8320   -0.5410    0.1850 C   0  0  0  0  0  0  0  0  0  0  0  0
    1.5000   -1.4280    1.0110 C   0  0  0  0  0  0  0  0  0  0  0  0
   -2.6200   -0.0360   -0.8670 C   0  0  0  0  0  0  0  0  0  0  0  0
  2  1  1  1
  2  3  1  0
  2  4  1  0
  5  4  1  6
  5  6  1  0
  5 32  1  0
  6  7  1  0
  7  8  1  0
  8  9  1  0
  9 10  1  0
 10 11  1  6
 10 32  1  0
 11 12  1  0
 12 13  1  0
 12 31  1  0
 13 14  1  0
 14 15  1  0
 15 16  1  0
 15 30  2  0
 16 17  2  0
 17 18  1  0
 17 23  1  0
 18 19  2  0
 19 20  1  0
 20 21  1  0
 20 22  2  0
 22 23  1  0
 23 24  2  0
 24 25  1  0
 24 30  1  0
 25 26  2  0
 26 27  1  0
 26 28  1  0
 28 29  2  0
 29 30  1  0
 29 31  1  0
M  CHG  2   3   1   5   1
M  END
