
     RDKit          3D

 32 33  0  0  0  0  0  0  0  0999 V2000
    1.2980   -2.6730   -0.0110 C   0  0  0  0  0  0  0  0  0  0  0  0
    1.1580   -1.2090    0.2390 C   0  0  2  0  0  0  0  0  0  0  0  0
    1.6390   -0.5070   -0.8540 O   0  0  0  0  0  0  0  0  0  0  0  0
    1.7870   -0.7300    1.5140 C   0  0  0  0  0  0  0  0  0  0  0  0
    3.1560   -0.7920    1.6110 O   0  0  0  0  0  0  0  0  0  0  0  0
    4.1320   -0.1970    0.8720 C   0  0  0  0  0  0  0  0  0  0  0  0
    4.6860   -0.8090   -0.2290 C   0  0  0  0  0  0  0  0  0  0  0  0
    4.3080   -2.0560   -0.6520 F   0  0  0  0  0  0  0  0  0  0  0  0
    5.6870   -0.1400   -0.9480 C   0  0  0  0  0  0  0  0  0  0  0  0
    6.2340   -0.7370   -2.0300 F   0  0  0  0  0  0  0  0  0  0  0  0
    6.1180    1.0960   -0.5790 C   0  0  0  0  0  0  0  0  0  0  0  0
    7.0750    1.7570   -1.2510 F   0  0  0  0  0  0  0  0  0  0  0  0
    5.5480    1.6950    0.5320 C   0  0  0  0  0  0  0  0  0  0  0  0
    5.9530    2.9300    0.9300 F   0  0  0  0  0  0  0  0  0  0  0  0
    4.5670    1.0590    1.2500 C   0  0  0  0  0  0  0  0  0  0  0  0
    4.0040    1.6380    2.3370 F   0  0  0  0  0  0  0  0  0  0  0  0
   -0.3270   -0.8750    0.3390 C   0  0  0  0  0  0  0  0  0  0  0  0
   -1.0040   -1.3920    1.2350 O   0  0  0  0  0  0  0  0  0  0  0  0
   -0.8850    0.0110   -0.5900 N   0  0  0  0  0  0  0  0  0  0  0  0
   -2.2400    0.3890   -0.6030 C   0  0  0  0  0  0  0  0  0  0  0  0
   -2.5370    1.5510   -1.3300 C   0  0  0  0  0  0  0  0  0  0  0  0
   -3.8390    1.9670   -1.3990 C   0  0  0  0  0  0  0  0  0  0  0  0
   -4.8770    1.2750   -0.7720 C   0  0  0  0  0  0  0  0  0  0  0  0
   -6.1920    1.7520   -0.8560 N   0  0  0  0  0  0  0  0  0  0  0  0
   -7.1950    1.0490   -0.8680 O   0  0  0  0  0  0  0  0  0  0  0  0
   -6.3760    3.1280   -0.9350 O   0  0  0  0  0  0  0  0  0  0  0  0
   -4.5630    0.1500   -0.0750 C   0  0  0  0  0  0  0  0  0  0  0  0
   -5.6030   -0.6350    0.5890 C   0  0  1  0  0  0  0  0  0  0  0  0
   -6.3360    0.0920    1.5040 F   0  0  0  0  0  0  0  0  0  0  0  0
   -6.3820   -1.2680   -0.3520 F   0  0  0  0  0  0  0  0  0  0  0  0
   -4.9930   -1.6590    1.3430 F   0  0  0  0  0  0  0  0  0  0  0  0
   -3.2430   -0.2970    0.0120 C   0  0  0  0  0  0  0  0  0  0  0  0
  2  1  1  6
  2  3  1  0
  2  4  1  0
  2 17  1  0
  4  5  1  0
  5  6  1  0
  6  7  2  0
  6 15  1  0
  7  8  1  0
  7  9  1  0
  9 10  1  0
  9 11  2  0
 11 12  1  0
 11 13  1  0
 13 14  1  0
 13 15  2  0
 15 16  1  0
 17 18  2  0
 17 19  1  0
 19 20  1  0
 20 21  2  0
 20 32  1  0
 21 22  1  0
 22 23  2  0
 23 24  1  0
 23 27  1  0
 24 25  2  0
 24 26  1  0
 27 28  1  0
 27 32  2  0
 28 29  1  1
 28 30  1  0
 28 31  1  0
M  CHG  2  24   1  26  -1
M  END
