
     RDKit          3D

 33 35  0  0  0  0  0  0  0  0999 V2000
    0.2460    5.1250   -1.7090 C   0  0  0  0  0  0  0  0  0  0  0  0
    0.6820    3.8390   -1.3760 O   0  0  0  0  0  0  0  0  0  0  0  0
    0.6730    3.3850   -0.0810 C   0  0  0  0  0  0  0  0  0  0  0  0
    0.2160    4.2720    0.9160 C   0  0  0  0  0  0  0  0  0  0  0  0
    0.1860    3.9130    2.2240 C   0  0  0  0  0  0  0  0  0  0  0  0
    0.6170    2.6550    2.5490 C   0  0  0  0  0  0  0  0  0  0  0  0
    1.0600    1.7880    1.5930 C   0  0  0  0  0  0  0  0  0  0  0  0
    1.1020    2.1310    0.2120 C   0  0  0  0  0  0  0  0  0  0  0  0
    1.4710    1.0640   -0.6970 C   0  0  0  0  0  0  0  0  0  0  0  0
    2.3740    0.0520   -0.2670 C   0  0  0  0  0  0  0  0  0  0  0  0
    2.4680   -0.8590   -1.2750 C   0  0  0  0  0  0  0  0  0  0  0  0
    3.2860   -2.0740   -1.2800 C   0  0  0  0  0  0  0  0  0  0  0  0
    3.2640   -2.8250   -2.2960 O   0  0  0  0  0  0  0  0  0  0  0  0
    4.1020   -2.4390   -0.1860 N   0  0  0  0  0  0  0  0  0  0  0  0
    4.8960   -3.6480   -0.2310 C   0  0  1  0  0  0  0  0  0  0  0  0
    6.3530   -3.2120   -0.1690 C   0  0  0  0  0  0  0  0  0  0  0  0
    4.5580   -4.5610    0.8880 C   0  0  0  0  0  0  0  0  0  0  0  0
    5.2470   -5.7900    0.9880 N   0  0  0  0  0  0  0  0  0  0  0  0
    3.6830   -4.2940    1.7600 O   0  0  0  0  0  0  0  0  0  0  0  0
    1.6740   -0.4210   -2.2400 N   0  0  0  0  0  0  0  0  0  0  0  0
    1.0620    0.7420   -1.9010 N   0  0  0  0  0  0  0  0  0  0  0  0
    0.1010    1.2820   -2.8380 C   0  0  0  0  0  0  0  0  0  0  0  0
   -1.2500    0.5840   -2.5770 C   0  0  0  0  0  0  0  0  0  0  0  0
   -1.6570    0.8590   -1.1520 C   0  0  0  0  0  0  0  0  0  0  0  0
   -2.9520    0.1950   -0.9500 N   0  0  0  0  0  0  0  0  0  0  0  0
   -3.6290    0.2520    0.2890 C   0  0  0  0  0  0  0  0  0  0  0  0
   -3.0880    0.8910    1.2250 O   0  0  0  0  0  0  0  0  0  0  0  0
   -4.9340   -0.4190    0.4880 C   0  0  0  0  0  0  0  0  0  0  0  0
   -5.6170   -1.1200   -0.3910 C   0  0  0  0  0  0  0  0  0  0  0  0
   -6.8770   -1.6280    0.1940 C   0  0  0  0  0  0  0  0  0  0  0  0
   -6.8180   -1.1020    1.5780 C   0  0  0  0  0  0  0  0  0  0  0  0
   -5.7050   -0.4190    1.7210 C   0  0  0  0  0  0  0  0  0  0  0  0
   -5.3070    0.2350    2.9240 N   0  0  0  0  0  0  0  0  0  0  0  0
  1  2  1  0
  2  3  1  0
  3  4  2  0
  3  8  1  0
  4  5  1  0
  5  6  2  0
  6  7  1  0
  7  8  2  0
  8  9  1  0
  9 10  2  0
  9 21  1  0
 10 11  1  0
 11 12  1  0
 11 20  2  0
 12 13  2  0
 12 14  1  0
 14 15  1  0
 15 16  1  1
 15 17  1  0
 17 18  1  0
 17 19  2  0
 20 21  1  0
 21 22  1  0
 22 23  1  0
 23 24  1  0
 24 25  1  0
 25 26  1  0
 26 27  2  0
 26 28  1  0
 28 29  2  0
 28 32  1  0
 29 30  1  0
 30 31  1  0
 31 32  2  0
 32 33  1  0
M  END
