
     RDKit          3D

 33 35  0  0  0  0  0  0  0  0999 V2000
    9.4880   -2.3140   -0.6850 C   0  0  0  0  0  0  0  0  0  0  0  0
    8.5710   -1.6020    0.2940 C   0  0  0  0  0  0  0  0  0  0  0  0
    7.2510   -1.7820   -0.1670 O   0  0  0  0  0  0  0  0  0  0  0  0
    6.2090   -1.2290    0.5410 C   0  0  0  0  0  0  0  0  0  0  0  0
    4.9200   -1.3970    0.1070 C   0  0  0  0  0  0  0  0  0  0  0  0
    3.8760   -0.8370    0.8240 C   0  0  0  0  0  0  0  0  0  0  0  0
    4.1560   -0.1200    1.9630 C   0  0  0  0  0  0  0  0  0  0  0  0
    3.0660    0.5040    2.7610 C   0  0  0  0  0  0  0  0  0  0  0  0
    1.8540    0.5340    1.9510 N   0  0  0  0  0  0  0  0  0  0  0  0
    1.8510    1.2400    0.7350 C   0  0  0  0  0  0  0  0  0  0  0  0
    2.9820    1.8790    0.3490 N   0  0  0  0  0  0  0  0  0  0  0  0
    3.0720    2.5780   -0.7880 C   0  0  0  0  0  0  0  0  0  0  0  0
    4.3240    3.2710   -1.1940 C   0  0  0  0  0  0  0  0  0  0  0  0
    1.9680    2.6520   -1.6050 C   0  0  0  0  0  0  0  0  0  0  0  0
    0.7880    2.0110   -1.2470 C   0  0  0  0  0  0  0  0  0  0  0  0
    0.7260    1.2950   -0.0640 C   0  0  0  0  0  0  0  0  0  0  0  0
   -0.4580    0.6040    0.3360 N   0  0  0  0  0  0  0  0  0  0  0  0
   -1.7120    0.6110   -0.3060 C   0  0  0  0  0  0  0  0  0  0  0  0
   -1.8920    1.2730   -1.3370 O   0  0  0  0  0  0  0  0  0  0  0  0
   -2.8490   -0.1680    0.2270 C   0  0  0  0  0  0  0  0  0  0  0  0
   -3.9940   -0.1260   -0.3990 C   0  0  0  0  0  0  0  0  0  0  0  0
   -4.3360    0.6140   -1.6040 C   0  0  0  0  0  0  0  0  0  0  0  0
   -5.6870    0.3900   -1.8850 N   0  0  0  0  0  0  0  0  0  0  0  0
   -6.2940   -0.3680   -0.8110 C   0  0  1  0  0  0  0  0  0  0  0  0
   -7.2170    0.5570   -0.0610 C   0  0  0  0  0  0  0  0  0  0  0  0
   -7.9370   -0.0550    1.0520 C   0  0  0  0  0  0  0  0  0  0  0  0
   -8.8120   -1.0530    0.7050 O   0  0  0  0  0  0  0  0  0  0  0  0
   -6.9660   -1.5610   -1.4060 C   0  0  0  0  0  0  0  0  0  0  0  0
   -7.4260   -2.6360   -0.6410 N   0  0  0  0  0  0  0  0  0  0  0  0
   -7.1360   -1.6360   -2.6720 O   0  0  0  0  0  0  0  0  0  0  0  0
   -5.1900   -0.8710    0.0410 C   0  0  0  0  0  0  0  0  0  0  0  0
    5.4740    0.0280    2.3710 C   0  0  0  0  0  0  0  0  0  0  0  0
    6.4580   -0.5280    1.6510 N   0  0  0  0  0  0  0  0  0  0  0  0
  1  2  1  0
  2  3  1  0
  3  4  1  0
  4  5  2  0
  4 33  1  0
  5  6  1  0
  6  7  2  0
  7  8  1  0
  7 32  1  0
  8  9  1  0
  9 10  1  0
 10 11  2  0
 10 16  1  0
 11 12  1  0
 12 13  1  0
 12 14  2  0
 14 15  1  0
 15 16  2  0
 16 17  1  0
 17 18  1  0
 18 19  2  0
 18 20  1  0
 20 21  2  3
 21 22  1  0
 21 31  1  0
 22 23  1  0
 23 24  1  0
 24 25  1  1
 24 28  1  0
 24 31  1  0
 25 26  1  0
 26 27  1  0
 28 29  1  0
 28 30  2  0
 32 33  2  0
M  END
