
     RDKit          3D

 33 35  0  0  0  0  0  0  0  0999 V2000
    6.0600   -0.6930    3.1000 C   0  0  0  0  0  0  0  0  0  0  0  0
    6.5620   -1.4870    1.9150 C   0  0  0  0  0  0  0  0  0  0  0  0
    5.5400   -2.2770    1.2890 N   0  0  0  0  0  0  0  0  0  0  0  0
    4.4120   -1.6510    0.6790 C   0  0  0  0  0  0  0  0  0  0  0  0
    4.2950   -0.2800    0.6380 C   0  0  0  0  0  0  0  0  0  0  0  0
    3.1900    0.3300    0.0320 C   0  0  0  0  0  0  0  0  0  0  0  0
    2.1780   -0.3910   -0.5450 C   0  0  0  0  0  0  0  0  0  0  0  0
    1.0620    0.2020   -1.1860 N   0  0  0  0  0  0  0  0  0  0  0  0
    1.1580    1.3670   -1.9880 C   0  0  0  0  0  0  0  0  0  0  0  0
    2.4080    1.7360   -2.4610 C   0  0  0  0  0  0  0  0  0  0  0  0
    2.6110    2.8100   -3.3000 C   0  0  0  0  0  0  0  0  0  0  0  0
    1.5210    3.5330   -3.6750 C   0  0  0  0  0  0  0  0  0  0  0  0
    0.2530    3.1690   -3.2040 C   0  0  0  0  0  0  0  0  0  0  0  0
    0.0210    2.1130   -2.3730 C   0  0  0  0  0  0  0  0  0  0  0  0
   -1.2170    1.7110   -1.8330 N   0  0  0  0  0  0  0  0  0  0  0  0
   -2.4480    2.2840   -2.2020 C   0  0  0  0  0  0  0  0  0  0  0  0
   -2.5270    3.1890   -3.0420 O   0  0  0  0  0  0  0  0  0  0  0  0
   -3.7240    1.8100   -1.5830 C   0  0  0  0  0  0  0  0  0  0  0  0
   -3.5550    0.7670   -0.6200 N   0  0  0  0  0  0  0  0  0  0  0  0
   -3.5450   -0.6480   -0.8080 C   0  0  0  0  0  0  0  0  0  0  0  0
   -4.0180   -1.2010   -1.8320 O   0  0  0  0  0  0  0  0  0  0  0  0
   -2.9300   -1.2260    0.3350 N   0  0  0  0  0  0  0  0  0  0  0  0
   -2.7150   -2.6300    0.5590 C   0  0  0  0  0  0  0  0  0  0  0  0
   -3.8610   -3.2940    1.2700 C   0  0  0  0  0  0  0  0  0  0  0  0
   -2.5660   -0.1700    1.2150 C   0  0  0  0  0  0  0  0  0  0  0  0
   -1.7450   -0.1900    2.1660 O   0  0  0  0  0  0  0  0  0  0  0  0
   -3.3660    1.0080    0.7870 C   0  0  2  0  0  0  0  0  0  0  0  0
   -4.6890    0.9080    1.5040 C   0  0  0  0  0  0  0  0  0  0  0  0
   -5.7210    1.8860    1.0280 C   0  0  0  0  0  0  0  0  0  0  0  0
   -6.8760    1.6470    1.8100 O   0  0  0  0  0  0  0  0  0  0  0  0
    2.3160   -1.7870   -0.4920 C   0  0  0  0  0  0  0  0  0  0  0  0
    3.3990   -2.3830    0.1020 C   0  0  0  0  0  0  0  0  0  0  0  0
    3.4960   -3.7970    0.1310 N   0  0  0  0  0  0  0  0  0  0  0  0
  1  2  1  0
  2  3  1  0
  3  4  1  0
  4  5  2  0
  4 32  1  0
  5  6  1  0
  6  7  2  0
  7  8  1  0
  7 31  1  0
  8  9  1  0
  9 10  2  0
  9 14  1  0
 10 11  1  0
 11 12  2  0
 12 13  1  0
 13 14  2  0
 14 15  1  0
 15 16  1  0
 16 17  2  0
 16 18  1  0
 18 19  1  0
 19 20  1  0
 19 27  1  0
 20 21  2  0
 20 22  1  0
 22 23  1  0
 22 25  1  0
 23 24  1  0
 25 26  2  0
 25 27  1  0
 27 28  1  1
 28 29  1  0
 29 30  1  0
 31 32  2  0
 32 33  1  0
M  END
