
     RDKit          3D

 30 33  0  0  0  0  0  0  0  0999 V2000
    6.8080    2.4730   -0.3150 C   0  0  0  0  0  0  0  0  0  0  0  0
    5.9950    1.2540   -0.0260 C   0  0  0  0  0  0  0  0  0  0  0  0
    4.6750    1.2450    0.3740 C   0  0  0  0  0  0  0  0  0  0  0  0
    4.2600   -0.0780    0.5460 C   0  0  0  0  0  0  0  0  0  0  0  0
    3.0670   -0.6530    0.9270 C   0  0  0  0  0  0  0  0  0  0  0  0
    1.9670    0.1740    1.2520 N   0  0  0  0  0  0  0  0  0  0  0  0
    0.6350   -0.2920    1.5710 C   0  0  0  0  0  0  0  0  0  0  0  0
    0.0020   -0.8430    0.3440 C   0  0  0  0  0  0  0  0  0  0  0  0
   -1.1360   -0.3090   -0.1280 C   0  0  0  0  0  0  0  0  0  0  0  0
   -1.7210    0.8210    0.6020 C   0  0  0  0  0  0  0  0  0  0  0  0
   -2.9390    1.4200    0.0700 C   0  0  0  0  0  0  0  0  0  0  0  0
   -3.8120    0.7880   -0.6890 C   0  0  0  0  0  0  0  0  0  0  0  0
   -5.0120    1.4990   -1.1680 C   0  0  0  0  0  0  0  0  0  0  0  0
   -6.1890    0.8270   -0.6640 N   0  0  0  0  0  0  0  0  0  0  0  0
   -6.9710   -0.2190   -1.2650 C   0  0  0  0  0  0  0  0  0  0  0  0
   -7.0980   -0.4210   -2.4740 O   0  0  0  0  0  0  0  0  0  0  0  0
   -7.5510   -0.9470   -0.0830 C   0  0  0  0  0  0  0  0  0  0  0  0
   -7.8890    0.2130    0.8120 C   0  0  0  0  0  0  0  0  0  0  0  0
   -6.7600    1.1460    0.6080 C   0  0  0  0  0  0  0  0  0  0  0  0
   -6.3950    2.0390    1.4150 O   0  0  0  0  0  0  0  0  0  0  0  0
   -3.4980   -0.8840   -1.1260 S   0  0  0  0  0  0  0  0  0  0  0  0
   -4.1840   -1.3210   -2.4110 O   0  0  0  0  0  0  0  0  0  0  0  0
   -1.6840   -0.9430   -1.3590 C   0  0  0  0  0  0  0  0  0  0  0  0
    2.9710   -2.0210    1.0040 C   0  0  0  0  0  0  0  0  0  0  0  0
    4.0750   -2.8270    0.6980 C   0  0  0  0  0  0  0  0  0  0  0  0
    3.9450   -4.7350    0.8040 Br  0  0  0  0  0  0  0  0  0  0  0  0
    5.2380   -2.1870    0.3230 C   0  0  0  0  0  0  0  0  0  0  0  0
    5.3260   -0.8410    0.2500 N   0  0  0  0  0  0  0  0  0  0  0  0
    6.3710   -0.0690   -0.0940 C   0  0  0  0  0  0  0  0  0  0  0  0
    7.7450   -0.5070   -0.4950 C   0  0  0  0  0  0  0  0  0  0  0  0
  1  2  1  0
  2  3  1  0
  2 29  2  0
  3  4  2  0
  4  5  1  0
  4 28  1  0
  5  6  1  0
  5 24  2  0
  6  7  1  0
  7  8  1  0
  8  9  2  3
  9 10  1  0
  9 23  1  0
 10 11  1  0
 11 12  2  0
 12 13  1  0
 12 21  1  0
 13 14  1  0
 14 15  1  0
 14 19  1  0
 15 16  2  0
 15 17  1  0
 17 18  1  0
 18 19  1  0
 19 20  2  0
 21 22  2  0
 21 23  1  6
 24 25  1  0
 25 26  1  0
 25 27  2  0
 27 28  1  0
 28 29  1  0
 29 30  1  0
M  END
