
     RDKit          3D

 30 33  0  0  0  0  0  0  0  0999 V2000
   -2.5110    1.3380   -2.2700 C   0  0  0  0  0  0  0  0  0  0  0  0
   -2.3380    1.3580   -0.9010 O   0  0  0  0  0  0  0  0  0  0  0  0
   -2.7610    0.4960    0.0420 C   0  0  0  0  0  0  0  0  0  0  0  0
   -4.0950    0.4860    0.2800 C   0  0  0  0  0  0  0  0  0  0  0  0
   -4.6020   -0.4180    1.2890 C   0  0  0  0  0  0  0  0  0  0  0  0
   -5.8490   -0.2070    1.5110 N   0  0  0  0  0  0  0  0  0  0  0  0
   -6.3700    0.8620    0.7120 C   0  0  2  0  0  0  0  0  0  0  0  0
   -8.0810    0.4300   -0.0690 Br  0  0  0  0  0  0  0  0  0  0  0  0
   -5.2930    1.1090   -0.3160 C   0  0  1  0  0  0  0  0  0  0  0  0
   -5.1440    2.5680   -0.6140 C   0  0  0  0  0  0  0  0  0  0  0  0
   -5.6990    0.2970   -1.5620 C   0  0  0  0  0  0  0  0  0  0  0  0
   -3.6830   -1.2590    1.9730 N   0  0  0  0  0  0  0  0  0  0  0  0
   -4.2020   -2.1750    2.9840 C   0  0  0  0  0  0  0  0  0  0  0  0
   -2.3120   -1.2190    1.6920 C   0  0  0  0  0  0  0  0  0  0  0  0
   -1.8300   -0.3620    0.7480 C   0  0  0  0  0  0  0  0  0  0  0  0
   -0.3960   -0.3740    0.5340 C   0  0  0  0  0  0  0  0  0  0  0  0
    0.2780    0.3570   -0.2840 C   0  0  0  0  0  0  0  0  0  0  0  0
    1.7530    0.2870   -0.4530 C   0  0  0  0  0  0  0  0  0  0  0  0
    2.2580    1.0820   -1.3050 O   0  0  0  0  0  0  0  0  0  0  0  0
    2.5390   -0.5980    0.2810 N   0  0  0  0  0  0  0  0  0  0  0  0
    3.9700   -0.7130    0.1710 C   0  0  0  0  0  0  0  0  0  0  0  0
    4.6060   -1.8000    0.7850 C   0  0  0  0  0  0  0  0  0  0  0  0
    5.9700   -1.9840    0.7430 C   0  0  0  0  0  0  0  0  0  0  0  0
    6.7720   -1.0810    0.0780 C   0  0  0  0  0  0  0  0  0  0  0  0
    6.1580   -0.0130   -0.5280 C   0  0  0  0  0  0  0  0  0  0  0  0
    4.7740    0.1690   -0.4820 C   0  0  0  0  0  0  0  0  0  0  0  0
    7.1980    1.1590   -1.3970 S   0  0  0  0  0  0  0  0  0  0  0  0
    8.8840    0.4880   -1.3430 C   0  0  0  0  0  0  0  0  0  0  0  0
    9.0290   -0.1200    0.0490 C   0  0  0  0  0  0  0  0  0  0  0  0
    8.1580   -1.2630    0.0330 O   0  0  0  0  0  0  0  0  0  0  0  0
  1  2  1  0
  2  3  1  0
  3  4  2  0
  3 15  1  0
  4  5  1  0
  4  9  1  0
  5  6  2  0
  5 12  1  0
  6  7  1  0
  7  8  1  6
  7  9  1  0
  9 10  1  6
  9 11  1  0
 12 13  1  0
 12 14  1  0
 14 15  2  0
 15 16  1  0
 16 17  2  3
 17 18  1  0
 18 19  2  0
 18 20  1  0
 20 21  1  0
 21 22  2  0
 21 26  1  0
 22 23  1  0
 23 24  2  0
 24 25  1  0
 24 30  1  0
 25 26  2  0
 25 27  1  0
 27 28  1  0
 28 29  1  0
 29 30  1  0
M  END
