
     RDKit          3D

 31 32  0  0  0  0  0  0  0  0999 V2000
   -8.3860   -1.3040   -1.7040 C   0  0  0  0  0  0  0  0  0  0  0  0
   -7.0790   -1.2830   -0.9380 C   0  0  0  0  0  0  0  0  0  0  0  0
   -6.8440   -2.2330   -0.1730 O   0  0  0  0  0  0  0  0  0  0  0  0
   -6.1860   -0.2060   -1.1120 N   0  0  0  0  0  0  0  0  0  0  0  0
   -4.9540   -0.0760   -0.4700 C   0  0  0  0  0  0  0  0  0  0  0  0
   -4.3460    1.1730   -0.4890 C   0  0  0  0  0  0  0  0  0  0  0  0
   -3.1310    1.3590    0.1070 C   0  0  0  0  0  0  0  0  0  0  0  0
   -2.4700    0.3430    0.7400 C   0  0  0  0  0  0  0  0  0  0  0  0
   -1.2370    0.5720    1.3350 O   0  0  0  0  0  0  0  0  0  0  0  0
   -0.6190    1.8450    1.3140 C   0  0  0  0  0  0  0  0  0  0  0  0
    0.6810    1.7370    2.0370 C   0  0  2  0  0  0  0  0  0  0  0  0
    0.4090    1.2150    3.4280 C   0  0  0  0  0  0  0  0  0  0  0  0
    1.4090    2.8970    2.1050 O   0  0  0  0  0  0  0  0  0  0  0  0
    1.4760    0.6440    1.3420 C   0  0  0  0  0  0  0  0  0  0  0  0
    0.9760   -0.4900    1.1880 O   0  0  0  0  0  0  0  0  0  0  0  0
    2.7720    0.8950    0.8700 N   0  0  0  0  0  0  0  0  0  0  0  0
    3.6100   -0.0280    0.2120 C   0  0  0  0  0  0  0  0  0  0  0  0
    3.3450   -1.3130   -0.1100 C   0  0  0  0  0  0  0  0  0  0  0  0
    4.2500   -2.1230   -0.7560 C   0  0  0  0  0  0  0  0  0  0  0  0
    5.5250   -1.6740   -1.1340 C   0  0  0  0  0  0  0  0  0  0  0  0
    6.4210   -2.5680   -1.7810 N   0  0  0  0  0  0  0  0  0  0  0  0
    6.2570   -3.7970   -1.5050 O   0  0  0  0  0  0  0  0  0  0  0  0
    7.4100   -2.2340   -2.6450 O   0  0  0  0  0  0  0  0  0  0  0  0
    5.8090   -0.3680   -0.8140 C   0  0  0  0  0  0  0  0  0  0  0  0
    7.1330    0.1870   -1.2000 C   0  0  1  0  0  0  0  0  0  0  0  0
    7.1940    1.5110   -0.7140 F   0  0  0  0  0  0  0  0  0  0  0  0
    8.1300   -0.5010   -0.5550 F   0  0  0  0  0  0  0  0  0  0  0  0
    7.3040    0.2620   -2.5730 F   0  0  0  0  0  0  0  0  0  0  0  0
    4.8810    0.4270   -0.1620 C   0  0  0  0  0  0  0  0  0  0  0  0
   -3.0480   -0.9020    0.7740 C   0  0  0  0  0  0  0  0  0  0  0  0
   -4.2930   -1.1000    0.1640 C   0  0  0  0  0  0  0  0  0  0  0  0
  1  2  1  0
  2  3  2  0
  2  4  1  0
  4  5  1  0
  5  6  2  0
  5 31  1  0
  6  7  1  0
  7  8  2  0
  8  9  1  0
  8 30  1  0
  9 10  1  0
 10 11  1  0
 11 12  1  1
 11 13  1  0
 11 14  1  0
 14 15  2  0
 14 16  1  0
 16 17  1  0
 17 18  2  0
 17 29  1  0
 18 19  1  0
 19 20  2  0
 20 21  1  0
 20 24  1  0
 21 22  2  0
 21 23  1  0
 24 25  1  0
 24 29  2  0
 25 26  1  1
 25 27  1  0
 25 28  1  0
 30 31  2  0
M  CHG  2  21   1  23  -1
M  END
