
     RDKit          3D

 30 33  0  0  0  0  0  0  0  0999 V2000
    6.1480   -3.6210    1.4090 C   0  0  0  0  0  0  0  0  0  0  0  0
    6.6190   -2.3890    0.9290 O   0  0  0  0  0  0  0  0  0  0  0  0
    5.9490   -2.0900   -0.5720 S   0  0  1  0  0  0  0  0  0  0  0  0
    7.0840   -1.8140   -1.5460 O   0  0  0  0  0  0  0  0  0  0  0  0
    5.2530   -3.3300   -1.0770 O   0  0  0  0  0  0  0  0  0  0  0  0
    4.8500   -0.7160   -0.5370 C   0  0  0  0  0  0  0  0  0  0  0  0
    5.3160    0.5610   -0.7840 C   0  0  0  0  0  0  0  0  0  0  0  0
    4.4450    1.6370   -0.7550 C   0  0  0  0  0  0  0  0  0  0  0  0
    3.1010    1.4800   -0.4820 C   0  0  0  0  0  0  0  0  0  0  0  0
    2.6220    0.2150   -0.2340 C   0  0  0  0  0  0  0  0  0  0  0  0
    3.5070   -0.8650   -0.2650 C   0  0  0  0  0  0  0  0  0  0  0  0
    1.2330   -0.2200    0.0820 C   0  0  0  0  0  0  0  0  0  0  0  0
    0.5550    0.9090    0.6890 N   0  0  0  0  0  0  0  0  0  0  0  0
   -0.5740    0.3530    1.4150 C   0  0  0  0  0  0  0  0  0  0  0  0
   -1.5760   -0.1990    0.4670 C   0  0  0  0  0  0  0  0  0  0  0  0
   -2.8180   -0.0740    0.7440 N   0  0  0  0  0  0  0  0  0  0  0  0
   -3.8840   -0.5440   -0.0560 C   0  0  0  0  0  0  0  0  0  0  0  0
   -3.7200   -1.0120   -1.3470 C   0  0  0  0  0  0  0  0  0  0  0  0
   -4.7890   -1.4650   -2.0990 C   0  0  0  0  0  0  0  0  0  0  0  0
   -4.5110   -2.1030   -3.8800 Br  0  0  0  0  0  0  0  0  0  0  0  0
   -6.0350   -1.4370   -1.5230 C   0  0  0  0  0  0  0  0  0  0  0  0
   -6.2480   -0.9740   -0.2220 C   0  0  0  0  0  0  0  0  0  0  0  0
   -5.1670   -0.5290    0.5060 C   0  0  0  0  0  0  0  0  0  0  0  0
   -5.5610   -0.1290    1.7120 C   0  0  0  0  0  0  0  0  0  0  0  0
   -7.0300   -0.3260    1.7910 C   0  0  0  0  0  0  0  0  0  0  0  0
   -7.3670   -0.8800    0.4750 C   0  0  0  0  0  0  0  0  0  0  0  0
    0.0540    1.8540   -0.2430 C   0  0  0  0  0  0  0  0  0  0  0  0
    0.9570    2.9820   -0.5880 C   0  0  1  0  0  0  0  0  0  0  0  0
    0.7020    4.2190    0.2530 C   0  0  0  0  0  0  0  0  0  0  0  0
    2.3610    2.6830   -0.4960 N   0  0  0  0  0  0  0  0  0  0  0  0
  1  2  1  0
  3  2  1  1
  3  4  2  0
  3  5  2  0
  3  6  1  0
  6  7  2  0
  6 11  1  0
  7  8  1  0
  8  9  2  0
  9 10  1  0
  9 30  1  0
 10 11  2  0
 10 12  1  0
 12 13  1  0
 13 14  1  0
 13 27  1  0
 14 15  1  0
 15 16  2  3
 16 17  1  0
 17 18  2  0
 17 23  1  0
 18 19  1  0
 19 20  1  0
 19 21  2  0
 21 22  1  0
 22 23  1  0
 22 26  2  0
 23 24  2  0
 24 25  1  0
 25 26  1  0
 27 28  1  0
 28 29  1  1
 28 30  1  0
M  END
