
     RDKit          3D

 28 32  0  0  0  0  0  0  0  0999 V2000
   -8.3190   -1.2620   -0.6390 C   0  0  0  0  0  0  0  0  0  0  0  0
   -7.1690   -0.7420   -1.4470 C   0  0  1  0  0  0  0  0  0  0  0  0
   -7.6120    0.6150   -2.0030 C   0  0  0  0  0  0  0  0  0  0  0  0
   -5.9410   -0.5710   -0.6260 C   0  0  0  0  0  0  0  0  0  0  0  0
   -4.6500   -0.6550   -1.0760 N   0  0  0  0  0  0  0  0  0  0  0  0
   -3.9110   -0.4350    0.0020 C   0  0  0  0  0  0  0  0  0  0  0  0
   -4.6610   -0.2240    1.0940 N   0  0  0  0  0  0  0  0  0  0  0  0
   -5.9180   -0.3100    0.6930 N   0  0  0  0  0  0  0  0  0  0  0  0
   -4.0350   -0.0390    2.3690 C   0  0  2  0  0  0  0  0  0  0  0  0
   -4.9130    0.9700    3.1660 C   0  0  0  0  0  0  0  0  0  0  0  0
   -2.6690    0.4180    2.4830 C   0  0  0  0  0  0  0  0  0  0  0  0
   -1.8080    0.0740    1.2780 C   0  0  0  0  0  0  0  0  0  0  0  0
   -0.4960    0.1320    1.2100 N   0  0  0  0  0  0  0  0  0  0  0  0
    0.2110   -0.0770    0.2920 C   0  0  0  0  0  0  0  0  0  0  0  0
    1.5920   -0.0760   -0.1240 N   0  0  0  0  0  0  0  0  0  0  0  0
    2.0210   -0.5260   -1.4200 C   0  0  0  0  0  0  0  0  0  0  0  0
    3.1390    0.3880   -1.8550 C   0  0  0  0  0  0  0  0  0  0  0  0
    4.3120    0.2640   -0.9940 N   0  0  0  0  0  0  0  0  0  0  0  0
    5.0560   -0.9280   -1.3550 C   0  0  0  0  0  0  0  0  0  0  0  0
    6.4170   -1.0080   -0.7810 C   0  0  1  0  0  0  0  0  0  0  0  0
    7.3880   -0.0240   -1.3990 C   0  0  0  0  0  0  0  0  0  0  0  0
    8.0530    0.6270   -0.2340 C   0  0  0  0  0  0  0  0  0  0  0  0
    7.4370   -0.0130    0.9650 C   0  0  0  0  0  0  0  0  0  0  0  0
    6.5620   -0.9900    0.5690 O   0  0  0  0  0  0  0  0  0  0  0  0
    3.9910    0.2390    0.3910 C   0  0  0  0  0  0  0  0  0  0  0  0
    2.5680    0.4280    0.7890 C   0  0  0  0  0  0  0  0  0  0  0  0
   -1.0650   -0.5100   -1.0090 S   0  0  0  0  0  0  0  0  0  0  0  0
   -2.4290   -0.2840    0.1060 C   0  0  0  0  0  0  0  0  0  0  0  0
  2  1  1  1
  2  3  1  0
  2  4  1  0
  4  5  1  0
  4  8  2  0
  5  6  2  0
  6  7  1  0
  6 28  1  0
  7  8  1  0
  7  9  1  0
  9 10  1  1
  9 11  1  0
 11 12  1  0
 12 13  1  0
 12 28  2  0
 13 14  2  0
 14 15  1  0
 14 27  1  0
 15 16  1  0
 15 26  1  0
 16 17  1  0
 17 18  1  0
 18 19  1  0
 18 25  1  0
 20 19  1  1
 20 21  1  0
 20 24  1  0
 21 22  1  0
 22 23  1  0
 23 24  1  0
 25 26  1  0
 27 28  1  0
M  END
