
     RDKit          3D

 30 33  0  0  0  0  0  0  0  0999 V2000
   -4.5680   -1.3120    1.5470 C   0  0  0  0  0  0  0  0  0  0  0  0
   -5.0220   -0.2990    0.5580 C   0  0  0  0  0  0  0  0  0  0  0  0
   -6.1150   -0.4840   -0.1660 C   0  0  0  0  0  0  0  0  0  0  0  0
   -6.6300    0.4640   -1.1600 C   0  0  0  0  0  0  0  0  0  0  0  0
   -5.8020    1.6820   -1.2800 C   0  0  0  0  0  0  0  0  0  0  0  0
   -5.9360    2.7240   -2.0350 N   0  0  0  0  0  0  0  0  0  0  0  0
   -4.9320    3.6220   -1.8200 O   0  0  0  0  0  0  0  0  0  0  0  0
   -4.0620    3.1290   -0.8400 C   0  0  0  0  0  0  0  0  0  0  0  0
   -3.0360    3.6650   -0.3810 O   0  0  0  0  0  0  0  0  0  0  0  0
   -4.6130    1.8350   -0.4570 C   0  0  0  0  0  0  0  0  0  0  0  0
   -4.2270    0.9090    0.4170 C   0  0  0  0  0  0  0  0  0  0  0  0
   -3.0320    1.1120    1.2210 C   0  0  0  0  0  0  0  0  0  0  0  0
   -1.9370    0.1090    0.9690 C   0  0  0  0  0  0  0  0  0  0  0  0
   -1.4830   -0.6540    1.9370 C   0  0  0  0  0  0  0  0  0  0  0  0
   -0.4240   -1.6830    1.8730 C   0  0  0  0  0  0  0  0  0  0  0  0
   -0.1780   -1.9650    0.3810 C   0  0  0  0  0  0  0  0  0  0  0  0
    0.0080   -0.6740   -0.2080 N   0  0  0  0  0  0  0  0  0  0  0  0
    1.1010    0.0470   -0.5930 C   0  0  0  0  0  0  0  0  0  0  0  0
    0.7100    1.2230   -1.1330 O   0  0  0  0  0  0  0  0  0  0  0  0
    2.5380   -0.0220   -0.6170 C   0  0  0  0  0  0  0  0  0  0  0  0
    3.4640   -0.8520   -0.2520 C   0  0  0  0  0  0  0  0  0  0  0  0
    3.0960   -2.1790    0.4070 C   0  0  0  0  0  0  0  0  0  0  0  0
    4.7960   -0.5410   -0.4700 N   0  0  0  0  0  0  0  0  0  0  0  0
    5.0960    0.6800   -1.0870 C   0  0  0  0  0  0  0  0  0  0  0  0
    6.2710    1.2070   -1.4270 C   0  0  0  0  0  0  0  0  0  0  0  0
    7.5130    0.4780   -1.1580 C   0  0  0  0  0  0  0  0  0  0  0  0
    8.4370    1.2650   -0.2230 C   0  0  0  0  0  0  0  0  0  0  0  0
   10.0190    0.1590    0.0220 Br  0  0  0  0  0  0  0  0  0  0  0  0
    3.4940    1.4030   -1.3320 S   0  0  0  0  0  0  0  0  0  0  0  0
   -1.3670   -0.0190   -0.3960 C   0  0  0  0  0  0  0  0  0  0  0  0
  1  2  1  0
  2  3  2  0
  2 11  1  0
  3  4  1  0
  4  5  1  0
  5  6  2  0
  5 10  1  0
  6  7  1  0
  7  8  1  0
  8  9  2  0
  8 10  1  0
 10 11  2  0
 11 12  1  0
 12 13  1  0
 13 14  2  0
 13 30  1  0
 14 15  1  0
 15 16  1  0
 16 17  1  0
 17 18  1  0
 17 30  1  0
 18 19  2  0
 18 20  1  0
 20 21  2  0
 20 29  1  0
 21 22  1  0
 21 23  1  0
 23 24  1  0
 24 25  2  3
 24 29  1  0
 25 26  1  0
 26 27  1  0
 27 28  1  0
M  END
