
     RDKit          3D

 30 33  0  0  0  0  0  0  0  0999 V2000
   -3.4280    2.3710   -3.0110 C   0  0  0  0  0  0  0  0  0  0  0  0
   -3.6950    2.8100   -1.8080 C   0  0  0  0  0  0  0  0  0  0  0  0
   -2.9200    2.7610   -0.5990 C   0  0  0  0  0  0  0  0  0  0  0  0
   -3.5120    3.3800    0.4540 C   0  0  0  0  0  0  0  0  0  0  0  0
   -2.6700    3.4290    2.1360 Br  0  0  0  0  0  0  0  0  0  0  0  0
   -1.5670    2.2430   -0.4190 C   0  0  0  0  0  0  0  0  0  0  0  0
   -0.6210    3.0210    0.2730 C   0  0  0  0  0  0  0  0  0  0  0  0
    0.5580    2.3140    0.4320 C   0  0  0  0  0  0  0  0  0  0  0  0
    0.3150    1.1090   -0.1650 C   0  0  0  0  0  0  0  0  0  0  0  0
   -0.9710    1.0930   -0.6670 N   0  0  0  0  0  0  0  0  0  0  0  0
   -1.5310   -0.0800   -1.2570 C   0  0  0  0  0  0  0  0  0  0  0  0
   -2.2750   -0.9890   -0.3330 C   0  0  1  0  0  0  0  0  0  0  0  0
   -1.4450   -1.5340    0.8100 C   0  0  0  0  0  0  0  0  0  0  0  0
   -2.4710   -2.1820    1.7410 C   0  0  0  0  0  0  0  0  0  0  0  0
   -3.7970   -1.6030    1.3100 C   0  0  0  0  0  0  0  0  0  0  0  0
   -3.4690   -0.4380    0.3520 C   0  0  0  0  0  0  0  0  0  0  0  0
    1.3430    0.0510   -0.1640 C   0  0  0  0  0  0  0  0  0  0  0  0
    2.5140    0.0780    0.3550 C   0  0  0  0  0  0  0  0  0  0  0  0
    3.4960   -0.9770    0.3090 C   0  0  0  0  0  0  0  0  0  0  0  0
    4.5170   -1.0020    1.2870 C   0  0  0  0  0  0  0  0  0  0  0  0
    5.5360   -1.9230    1.3070 C   0  0  0  0  0  0  0  0  0  0  0  0
    5.5390   -2.8630    0.3050 C   0  0  0  0  0  0  0  0  0  0  0  0
    4.5690   -2.8680   -0.6590 C   0  0  0  0  0  0  0  0  0  0  0  0
    4.6070   -3.7450   -1.5580 O   0  0  0  0  0  0  0  0  0  0  0  0
    3.5630   -1.9130   -0.6320 N   0  0  0  0  0  0  0  0  0  0  0  0
    2.6900   -1.9960   -1.7760 C   0  0  0  0  0  0  0  0  0  0  0  0
    2.9840    1.4980    1.3130 S   0  0  1  0  0  0  0  0  0  0  0  0
    2.9810    1.1630    2.7910 O   0  0  0  0  0  0  0  0  0  0  0  0
    4.3650    1.9270    0.9320 O   0  0  0  0  0  0  0  0  0  0  0  0
    1.7990    2.6890    1.0090 N   0  0  0  0  0  0  0  0  0  0  0  0
  1  2  2  0
  2  3  1  0
  3  4  2  3
  3  6  1  0
  4  5  1  0
  6  7  2  0
  6 10  1  0
  7  8  1  0
  8  9  2  0
  8 30  1  0
  9 10  1  0
  9 17  1  0
 10 11  1  0
 12 11  1  1
 12 13  1  0
 12 16  1  0
 13 14  1  0
 14 15  1  0
 15 16  1  0
 17 18  2  0
 18 19  1  0
 18 27  1  0
 19 20  2  0
 19 25  1  0
 20 21  1  0
 21 22  2  0
 22 23  1  0
 23 24  2  0
 23 25  1  0
 25 26  1  0
 27 28  2  0
 27 29  2  0
 27 30  1  1
M  END
