
     RDKit          3D

 21 24  0  0  0  0  0  0  0  0999 V2000
    1.0980   -3.0940   -0.8070 C   0  0  0  0  0  0  0  0  0  0  0  0
    0.4230   -1.8260   -0.4270 C   0  0  0  0  0  0  0  0  0  0  0  0
   -0.9550   -1.6460   -0.6160 C   0  0  0  0  0  0  0  0  0  0  0  0
   -1.5660   -0.4680   -0.2590 C   0  0  0  0  0  0  0  0  0  0  0  0
   -3.0010   -0.2870   -0.4620 C   0  0  1  0  0  0  0  0  0  0  0  0
   -3.5960   -1.4380   -1.0310 O   0  0  0  0  0  0  0  0  0  0  0  0
   -3.7660    0.0450    0.7760 C   0  0  0  0  0  0  0  0  0  0  0  0
   -4.8110    1.0570    0.3450 C   0  0  0  0  0  0  0  0  0  0  0  0
   -4.7550    1.1120   -1.1570 C   0  0  0  0  0  0  0  0  0  0  0  0
   -3.2990    0.8290   -1.4490 C   0  0  0  0  0  0  0  0  0  0  0  0
   -0.7820    0.5180    0.2850 C   0  0  0  0  0  0  0  0  0  0  0  0
   -1.3720    1.6910    0.6440 O   0  0  0  0  0  0  0  0  0  0  0  0
    0.5830    0.3550    0.4790 C   0  0  0  0  0  0  0  0  0  0  0  0
    1.1750   -0.8160    0.1210 C   0  0  0  0  0  0  0  0  0  0  0  0
    2.6310   -1.0300    0.3080 C   0  0  0  0  0  0  0  0  0  0  0  0
    3.3330    0.2660    0.6450 C   0  0  1  0  0  0  0  0  0  0  0  0
    4.7700   -0.0010    1.0080 C   0  0  0  0  0  0  0  0  0  0  0  0
    5.1970    1.1170    0.0830 C   0  0  0  0  0  0  0  0  0  0  0  0
    3.8090    1.0570   -0.5430 C   0  0  0  0  0  0  0  0  0  0  0  0
    2.6000    0.9460    1.5830 O   0  0  0  0  0  0  0  0  0  0  0  0
    1.4220    1.4360    1.0740 C   0  0  0  0  0  0  0  0  0  0  0  0
  1  2  1  0
  2  3  2  0
  2 14  1  0
  3  4  1  0
  4  5  1  0
  4 11  2  0
  5  6  1  6
  5  7  1  0
  5 10  1  0
  7  8  1  0
  8  9  1  0
  9 10  1  0
 11 12  1  0
 11 13  1  0
 13 14  2  0
 13 21  1  0
 14 15  1  0
 16 15  1  6
 16 17  1  0
 16 19  1  0
 16 20  1  0
 17 18  1  0
 18 19  1  0
 20 21  1  0
M  END
