
     RDKit          3D

 21 23  0  0  0  0  0  0  0  0999 V2000
   -3.4210    1.6240   -1.6270 C   0  0  0  0  0  0  0  0  0  0  0  0
   -3.4540    0.1410   -1.5120 C   0  0  0  0  0  0  0  0  0  0  0  0
   -2.8370   -0.3560   -0.1900 C   0  0  1  0  0  0  0  0  0  0  0  0
   -3.6790    0.2760    0.8890 C   0  0  0  0  0  0  0  0  0  0  0  0
   -3.0350   -1.8520   -0.2080 C   0  0  0  0  0  0  0  0  0  0  0  0
   -1.4330    0.0780   -0.1490 C   0  0  0  0  0  0  0  0  0  0  0  0
   -0.5880   -0.3080    1.0190 C   0  0  2  0  0  0  0  0  0  0  0  0
   -1.0530    0.2340    2.3300 C   0  0  0  0  0  0  0  0  0  0  0  0
    0.1170    0.6810    2.9750 O   0  0  0  0  0  0  0  0  0  0  0  0
    1.1980    0.6050    2.1220 C   0  0  0  0  0  0  0  0  0  0  0  0
    2.5020    1.0500    2.3730 C   0  0  0  0  0  0  0  0  0  0  0  0
    2.8420    1.6520    3.5790 O   0  0  0  0  0  0  0  0  0  0  0  0
    3.4630    0.8940    1.4170 C   0  0  0  0  0  0  0  0  0  0  0  0
    4.7770    1.3140    1.5970 O   0  0  0  0  0  0  0  0  0  0  0  0
    3.1040    0.2770    0.1890 C   0  0  0  0  0  0  0  0  0  0  0  0
    1.8250   -0.1460   -0.0240 C   0  0  0  0  0  0  0  0  0  0  0  0
    0.8320    0.0090    0.9410 C   0  0  0  0  0  0  0  0  0  0  0  0
    1.4100   -0.8160   -1.2690 C   0  0  0  0  0  0  0  0  0  0  0  0
    2.6200   -1.5890   -1.8400 C   0  0  0  0  0  0  0  0  0  0  0  0
    3.7760   -0.6450   -2.0260 C   0  0  0  0  0  0  0  0  0  0  0  0
    4.1500    0.1080   -0.8220 C   0  0  0  0  0  0  0  0  0  0  0  0
  1  2  1  0
  2  3  1  0
  3  4  1  1
  3  5  1  0
  3  6  1  0
  7  6  1  6
  7  8  1  0
  7 17  1  0
  8  9  1  0
  9 10  1  0
 10 11  2  0
 10 17  1  0
 11 12  1  0
 11 13  1  0
 13 14  1  0
 13 15  2  0
 15 16  1  0
 15 21  1  0
 16 17  2  0
 16 18  1  0
 18 19  1  0
 19 20  1  0
 20 21  1  0
M  END
