
     RDKit          3D

 21 22  0  0  0  0  0  0  0  0999 V2000
    6.0760    1.1950    0.9880 C   0  0  0  0  0  0  0  0  0  0  0  0
    4.9280    0.5540    0.9040 C   0  0  0  0  0  0  0  0  0  0  0  0
    3.7080    1.2670    0.5560 C   0  0  0  0  0  0  0  0  0  0  0  0
    2.5640    0.5980    0.4770 C   0  0  0  0  0  0  0  0  0  0  0  0
    2.5040   -0.7630    0.7190 O   0  0  0  0  0  0  0  0  0  0  0  0
    1.2770   -1.2450    1.2140 C   0  0  0  0  0  0  0  0  0  0  0  0
    0.1180   -0.8200    0.3070 C   0  0  0  0  0  0  0  0  0  0  0  0
    0.1340    0.6300    0.0410 C   0  0  0  0  0  0  0  0  0  0  0  0
   -1.0760    1.3600   -0.2350 C   0  0  0  0  0  0  0  0  0  0  0  0
   -2.3040    1.0100   -0.4010 C   0  0  0  0  0  0  0  0  0  0  0  0
   -3.4270    2.0350   -0.6770 C   0  0  0  0  0  0  0  0  0  0  0  0
   -4.5610    1.4650    0.1230 C   0  0  0  0  0  0  0  0  0  0  0  0
   -4.3020    0.0160    0.3140 C   0  0  0  0  0  0  0  0  0  0  0  0
   -5.0150   -0.8280    1.0110 C   0  0  0  0  0  0  0  0  0  0  0  0
   -3.0660   -0.2300   -0.4710 C   0  0  0  0  0  0  0  0  0  0  0  0
   -2.7230   -1.2930   -1.1310 C   0  0  0  0  0  0  0  0  0  0  0  0
   -3.5910   -2.4990   -1.1230 C   0  0  0  0  0  0  0  0  0  0  0  0
    1.3250    1.2710    0.1330 C   0  0  0  0  0  0  0  0  0  0  0  0
    1.3250    2.6310   -0.1200 O   0  0  0  0  0  0  0  0  0  0  0  0
    4.9200   -0.8070    1.1550 O   0  0  0  0  0  0  0  0  0  0  0  0
    5.6380   -1.6500    0.2680 C   0  0  0  0  0  0  0  0  0  0  0  0
  1  2  2  0
  2  3  1  0
  2 20  1  0
  3  4  2  3
  4  5  1  0
  4 18  1  0
  5  6  1  0
  6  7  1  0
  7  8  1  0
  8  9  1  0
  8 18  2  0
  9 10  2  3
 10 11  1  0
 10 15  1  0
 11 12  1  0
 12 13  1  0
 13 14  2  0
 13 15  1  0
 15 16  2  3
 16 17  1  0
 18 19  1  0
 20 21  1  0
M  END
