
     RDKit          3D

 21 24  0  0  0  0  0  0  0  0999 V2000
    0.9730    1.7650   -0.7020 C   0  0  0  0  0  0  0  0  0  0  0  0
    0.0020    0.8870   -0.8540 C   0  0  0  0  0  0  0  0  0  0  0  0
   -0.6500    0.6600   -2.0870 O   0  0  0  0  0  0  0  0  0  0  0  0
   -2.0790    0.3960   -2.0540 C   0  0  0  0  0  0  0  0  0  0  0  0
   -2.5960    0.7410   -0.7010 C   0  0  1  0  0  0  0  0  0  0  0  0
   -4.0240    0.4860   -0.4200 C   0  0  0  0  0  0  0  0  0  0  0  0
   -4.0960   -0.0040    1.0380 C   0  0  1  0  0  0  0  0  0  0  0  0
   -4.3790   -1.3760    0.9460 O   0  0  0  0  0  0  0  0  0  0  0  0
   -2.6480    0.1910    1.5310 C   0  0  0  0  0  0  0  0  0  0  0  0
   -1.9250   -0.1950    0.2920 C   0  0  2  0  0  0  0  0  0  0  0  0
   -0.4790    0.0750    0.2470 C   0  0  0  0  0  0  0  0  0  0  0  0
    0.3730   -0.4130    1.1220 C   0  0  0  0  0  0  0  0  0  0  0  0
    1.8070   -0.2620    1.1540 C   0  0  0  0  0  0  0  0  0  0  0  0
    2.5220    0.1960    2.2400 C   0  0  0  0  0  0  0  0  0  0  0  0
    3.8020    0.1760    1.9800 O   0  0  0  0  0  0  0  0  0  0  0  0
    4.0180   -0.2740    0.7650 C   0  0  0  0  0  0  0  0  0  0  0  0
    5.1770   -0.4770    0.0510 C   0  0  0  0  0  0  0  0  0  0  0  0
    5.0850   -0.9750   -1.2310 C   0  0  0  0  0  0  0  0  0  0  0  0
    3.8600   -1.2740   -1.8100 C   0  0  0  0  0  0  0  0  0  0  0  0
    2.7070   -1.0610   -1.0710 C   0  0  0  0  0  0  0  0  0  0  0  0
    2.7660   -0.5630    0.2090 C   0  0  0  0  0  0  0  0  0  0  0  0
  1  2  2  0
  2  3  1  0
  2 11  1  0
  3  4  1  0
  5  4  1  6
  5  6  1  0
  5 10  1  0
  6  7  1  0
  7  8  1  6
  7  9  1  0
 10  9  1  1
 10 11  1  0
 11 12  2  3
 12 13  1  0
 13 14  2  0
 13 21  1  0
 14 15  1  0
 15 16  1  0
 16 17  2  0
 16 21  1  0
 17 18  1  0
 18 19  2  0
 19 20  1  0
 20 21  2  0
M  END
