
     RDKit          3D

 21 23  0  0  0  0  0  0  0  0999 V2000
   -4.3620   -2.4390   -0.2740 C   0  0  0  0  0  0  0  0  0  0  0  0
   -3.2990   -1.5060   -0.2440 O   0  0  0  0  0  0  0  0  0  0  0  0
   -1.9790   -1.8580   -0.4280 C   0  0  0  0  0  0  0  0  0  0  0  0
   -1.7480   -3.0650   -0.6270 O   0  0  0  0  0  0  0  0  0  0  0  0
   -0.8720   -0.8740   -0.3970 C   0  0  0  0  0  0  0  0  0  0  0  0
    0.3790   -1.2420   -0.5900 C   0  0  0  0  0  0  0  0  0  0  0  0
    0.6840   -2.6690   -0.8620 C   0  0  0  0  0  0  0  0  0  0  0  0
    1.5390   -0.3630   -0.4250 C   0  0  0  0  0  0  0  0  0  0  0  0
    2.9300   -0.7900   -0.6420 C   0  0  2  0  0  0  0  0  0  0  0  0
    3.3170   -1.8200    0.2140 O   0  0  0  0  0  0  0  0  0  0  0  0
    3.8880    0.3730   -0.5050 C   0  0  2  0  0  0  0  0  0  0  0  0
    5.3680   -0.0200   -0.7140 C   0  0  0  0  0  0  0  0  0  0  0  0
    4.7980    0.5590    0.6120 C   0  0  0  0  0  0  0  0  0  0  0  0
    1.2910    0.8760   -0.0350 C   0  0  0  0  0  0  0  0  0  0  0  0
   -0.0640    1.3350    0.2300 C   0  0  0  0  0  0  0  0  0  0  0  0
   -0.2720    2.5070    0.8710 C   0  0  0  0  0  0  0  0  0  0  0  0
   -1.6080    2.9790    1.1670 C   0  0  0  0  0  0  0  0  0  0  0  0
   -2.6550    2.2690    0.8390 C   0  0  0  0  0  0  0  0  0  0  0  0
   -4.0450    2.7990    1.1500 C   0  0  0  0  0  0  0  0  0  0  0  0
   -2.5070    0.9030    0.2830 C   0  0  0  0  0  0  0  0  0  0  0  0
   -1.1980    0.5720   -0.3000 C   0  0  2  0  0  0  0  0  0  0  0  0
  1  2  1  0
  2  3  1  0
  3  4  2  0
  3  5  1  0
  5  6  2  0
  5 21  1  0
  6  7  1  0
  6  8  1  0
  8  9  1  0
  8 14  2  0
  9 10  1  1
  9 11  1  0
 11 12  1  6
 11 13  1  0
 12 13  1  0
 14 15  1  0
 15 16  2  0
 15 21  1  0
 16 17  1  0
 17 18  2  0
 18 19  1  0
 18 20  1  0
 21 20  1  1
M  END
