
     RDKit          3D

 21 23  0  0  0  0  0  0  0  0999 V2000
   -5.5090    1.2290   -1.1320 C   0  0  0  0  0  0  0  0  0  0  0  0
   -4.3150    0.5600   -0.6070 C   0  0  0  0  0  0  0  0  0  0  0  0
   -3.0630    0.8100   -1.1200 C   0  0  0  0  0  0  0  0  0  0  0  0
   -1.9390    0.1570   -0.6000 C   0  0  0  0  0  0  0  0  0  0  0  0
   -2.0830   -0.7420    0.4330 C   0  0  0  0  0  0  0  0  0  0  0  0
   -3.3670   -0.9880    0.9470 C   0  0  0  0  0  0  0  0  0  0  0  0
   -4.4540   -0.3410    0.4270 C   0  0  0  0  0  0  0  0  0  0  0  0
   -5.8010   -0.6150    0.9850 C   0  0  0  0  0  0  0  0  0  0  0  0
   -0.9330   -1.4640    1.0250 C   0  0  0  0  0  0  0  0  0  0  0  0
    0.2540   -1.1080    0.4040 O   0  0  0  0  0  0  0  0  0  0  0  0
    0.4290   -0.2150   -0.6270 C   0  0  0  0  0  0  0  0  0  0  0  0
    1.7900    0.0230   -1.1470 C   0  0  2  0  0  0  0  0  0  0  0  0
    2.4430   -1.2030   -1.4190 O   0  0  0  0  0  0  0  0  0  0  0  0
    2.6340    0.9620   -0.3480 C   0  0  2  0  0  0  0  0  0  0  0  0
    3.9930    1.0800   -1.0280 C   0  0  0  0  0  0  0  0  0  0  0  0
    4.9180   -0.0320   -0.6040 C   0  0  0  0  0  0  0  0  0  0  0  0
    4.9920   -0.2520    0.8710 C   0  0  0  0  0  0  0  0  0  0  0  0
    3.5740   -0.6030    1.3450 C   0  0  0  0  0  0  0  0  0  0  0  0
    2.7710    0.6580    1.1000 C   0  0  2  0  0  0  0  0  0  0  0  0
    1.5560    0.6430    1.7380 O   0  0  0  0  0  0  0  0  0  0  0  0
   -0.6170    0.4120   -1.1330 C   0  0  0  0  0  0  0  0  0  0  0  0
  1  2  1  0
  2  3  2  0
  2  7  1  0
  3  4  1  0
  4  5  2  0
  4 21  1  0
  5  6  1  0
  5  9  1  0
  6  7  2  0
  7  8  1  0
  9 10  1  0
 10 11  1  0
 11 12  1  0
 11 21  2  0
 12 13  1  1
 12 14  1  0
 14 15  1  6
 14 19  1  0
 15 16  1  0
 16 17  1  0
 17 18  1  0
 18 19  1  0
 19 20  1  6
M  END
