
     RDKit          3D

 21 25  0  0  0  0  0  0  0  0999 V2000
    4.1200    2.1360   -0.3170 O   0  0  0  0  0  0  0  0  0  0  0  0
    3.5610    1.0120    0.3330 C   0  0  0  0  0  0  0  0  0  0  0  0
    2.1810    0.7230   -0.2450 C   0  0  2  0  0  0  0  0  0  0  0  0
    1.2270    1.8270   -0.0990 C   0  0  0  0  0  0  0  0  0  0  0  0
   -0.1240    1.5760   -0.7190 C   0  0  0  0  0  0  0  0  0  0  0  0
   -0.6860    0.3030   -0.2940 C   0  0  0  0  0  0  0  0  0  0  0  0
    0.1740   -0.7680   -0.0720 C   0  0  0  0  0  0  0  0  0  0  0  0
   -0.3820   -1.9580    0.3290 C   0  0  0  0  0  0  0  0  0  0  0  0
   -1.7400   -2.1000    0.5080 C   0  0  0  0  0  0  0  0  0  0  0  0
   -2.5890   -1.0460    0.2890 C   0  0  0  0  0  0  0  0  0  0  0  0
   -3.9570   -1.1810    0.4600 C   0  0  0  0  0  0  0  0  0  0  0  0
   -4.7660   -0.1000    0.2220 C   0  0  0  0  0  0  0  0  0  0  0  0
   -4.2590    1.1080   -0.1800 C   0  0  0  0  0  0  0  0  0  0  0  0
   -5.0640    2.2150   -0.4260 O   0  0  0  0  0  0  0  0  0  0  0  0
   -2.8890    1.2520   -0.3540 C   0  0  0  0  0  0  0  0  0  0  0  0
   -2.0610    0.1800   -0.1200 C   0  0  0  0  0  0  0  0  0  0  0  0
    0.4810   -3.0490    0.5550 O   0  0  0  0  0  0  0  0  0  0  0  0
    1.7620   -2.7690    1.0780 C   0  0  0  0  0  0  0  0  0  0  0  0
    2.4700   -1.7060    0.3180 C   0  0  0  0  0  0  0  0  0  0  0  0
    1.6280   -0.6320   -0.2680 C   0  0  2  0  0  0  0  0  0  0  0  0
    2.1650   -0.0350   -1.5560 C   0  0  0  0  0  0  0  0  0  0  0  0
  1  2  1  0
  3  2  1  1
  3  4  1  0
  3 20  1  0
  3 21  1  0
  4  5  1  0
  5  6  1  0
  6  7  2  0
  6 16  1  0
  7  8  1  0
  7 20  1  0
  8  9  2  0
  8 17  1  0
  9 10  1  0
 10 11  2  0
 10 16  1  0
 11 12  1  0
 12 13  2  0
 13 14  1  0
 13 15  1  0
 15 16  2  0
 17 18  1  0
 18 19  1  0
 20 19  1  1
 20 21  1  0
M  END
