
     RDKit          3D

 21 23  0  0  0  0  0  0  0  0999 V2000
    5.8750    1.7370    0.5920 C   0  0  0  0  0  0  0  0  0  0  0  0
    4.9270    0.5330    0.4530 C   0  0  0  0  0  0  0  0  0  0  0  0
    3.5540    1.0720    0.6370 C   0  0  1  0  0  0  0  0  0  0  0  0
    3.3320    2.0620   -0.3710 O   0  0  0  0  0  0  0  0  0  0  0  0
    2.4980    0.0370    0.3040 C   0  0  0  0  0  0  0  0  0  0  0  0
    2.8330   -1.2610    0.0770 C   0  0  0  0  0  0  0  0  0  0  0  0
    1.7970   -2.1090   -0.2620 C   0  0  0  0  0  0  0  0  0  0  0  0
    2.1520   -3.5270   -0.5600 C   0  0  0  0  0  0  0  0  0  0  0  0
    0.4940   -1.6660   -0.3610 C   0  0  0  0  0  0  0  0  0  0  0  0
    0.1430   -0.3180   -0.1240 C   0  0  0  0  0  0  0  0  0  0  0  0
   -1.2370    0.0780   -0.3050 C   0  0  1  0  0  0  0  0  0  0  0  0
   -1.3480    1.2630   -1.0800 O   0  0  0  0  0  0  0  0  0  0  0  0
   -1.9910   -0.9870   -1.1020 C   0  0  0  0  0  0  0  0  0  0  0  0
   -3.2100   -0.3380   -1.7370 C   0  0  0  0  0  0  0  0  0  0  0  0
   -3.4580    0.8150   -1.0180 O   0  0  0  0  0  0  0  0  0  0  0  0
   -3.4630    0.6400    0.3610 C   0  0  2  0  0  0  0  0  0  0  0  0
   -4.5920   -0.2520    0.8390 C   0  0  0  0  0  0  0  0  0  0  0  0
   -5.4750    0.9930    0.6250 C   0  0  0  0  0  0  0  0  0  0  0  0
   -4.2100    1.7850    1.0020 C   0  0  0  0  0  0  0  0  0  0  0  0
   -2.0830    0.3430    0.9230 C   0  0  0  0  0  0  0  0  0  0  0  0
    1.1960    0.4970    0.2090 C   0  0  0  0  0  0  0  0  0  0  0  0
  1  2  1  0
  2  3  1  0
  3  4  1  6
  3  5  1  0
  5  6  2  0
  5 21  1  0
  6  7  1  0
  7  8  1  0
  7  9  2  0
  9 10  1  0
 10 11  1  0
 10 21  2  0
 11 12  1  6
 11 13  1  0
 11 20  1  0
 13 14  1  0
 14 15  1  0
 15 16  1  0
 16 17  1  6
 16 19  1  0
 16 20  1  0
 17 18  1  0
 18 19  1  0
M  END
