
     RDKit          3D

 29 31  0  0  0  0  0  0  0  0999 V2000
   -5.9820   -2.8270    0.1400 C   0  0  0  0  0  0  0  0  0  0  0  0
   -4.9460   -2.6000   -0.7380 O   0  0  0  0  0  0  0  0  0  0  0  0
   -5.2190   -1.4320   -1.4480 C   0  0  2  0  0  0  0  0  0  0  0  0
   -5.2880   -1.6480   -2.8940 C   0  0  0  0  0  0  0  0  0  0  0  0
   -6.0830   -2.4410   -3.5190 O   0  0  0  0  0  0  0  0  0  0  0  0
   -4.3150   -0.8250   -3.5110 N   0  0  0  0  0  0  0  0  0  0  0  0
   -3.6370   -0.0840   -2.4940 C   0  0  0  0  0  0  0  0  0  0  0  0
   -2.6130    0.8570   -2.5500 C   0  0  0  0  0  0  0  0  0  0  0  0
   -2.1170    1.4530   -1.3840 C   0  0  0  0  0  0  0  0  0  0  0  0
   -2.6310    1.1220   -0.1490 C   0  0  0  0  0  0  0  0  0  0  0  0
   -3.6440    0.1880   -0.1130 C   0  0  0  0  0  0  0  0  0  0  0  0
   -4.1530   -0.4200   -1.2740 C   0  0  0  0  0  0  0  0  0  0  0  0
   -2.1310    1.7470    1.1130 C   0  0  0  0  0  0  0  0  0  0  0  0
   -0.6190    1.5660    1.2440 C   0  0  2  0  0  0  0  0  0  0  0  0
   -0.1760    2.2440    2.4860 C   0  0  0  0  0  0  0  0  0  0  0  0
    1.1390    2.2120    2.8040 O   0  0  0  0  0  0  0  0  0  0  0  0
    1.7410    1.0080    3.0090 C   0  0  2  0  0  0  0  0  0  0  0  0
    2.3850    0.9240    4.4010 C   0  0  0  0  0  0  0  0  0  0  0  0
    2.8000    0.8670    2.1190 O   0  0  0  0  0  0  0  0  0  0  0  0
    2.7080   -0.2980    1.3360 C   0  0  0  0  0  0  0  0  0  0  0  0
    3.9040   -0.2890    0.4710 C   0  0  0  0  0  0  0  0  0  0  0  0
    5.2300   -0.2970    1.2240 C   0  0  0  0  0  0  0  0  0  0  0  0
    3.9880   -0.2770   -0.8260 C   0  0  0  0  0  0  0  0  0  0  0  0
    5.3270   -0.2680   -1.5310 C   0  0  0  0  0  0  0  0  0  0  0  0
    2.8040   -0.2730   -1.7040 C   0  0  0  0  0  0  0  0  0  0  0  0
    2.7920   -1.5110   -2.6060 C   0  0  0  0  0  0  0  0  0  0  0  0
    1.6770   -1.5050   -3.4290 O   0  0  0  0  0  0  0  0  0  0  0  0
    0.2100    2.2920   -0.2780 P   0  0  0  0  0  0  0  0  0  0  0  0
   -1.0960    2.3860   -1.4830 O   0  0  0  0  0  0  0  0  0  0  0  0
  1  2  1  0
  3  2  1  1
  3  4  1  0
  3 12  1  0
  4  5  2  0
  4  6  1  0
  6  7  1  0
  7  8  2  0
  7 12  1  0
  8  9  1  0
  9 10  2  0
  9 29  1  0
 10 11  1  0
 10 13  1  0
 11 12  2  0
 13 14  1  0
 14 15  1  1
 14 28  1  0
 15 16  1  0
 16 17  1  0
 17 18  1  1
 17 19  1  0
 19 20  1  0
 20 21  1  0
 21 22  1  0
 21 23  2  3
 23 24  1  0
 23 25  1  0
 25 26  1  0
 26 27  1  0
 28 29  1  0
M  END
