
     RDKit          3D

 29 30  0  0  0  0  0  0  0  0999 V2000
    1.2320    3.2380   -4.1270 C   0  0  0  0  0  0  0  0  0  0  0  0
    2.0750    2.5660   -3.4230 C   0  0  0  0  0  0  0  0  0  0  0  0
    1.5620    1.6720   -2.3310 C   0  0  0  0  0  0  0  0  0  0  0  0
    2.3900    1.0110   -1.6400 C   0  0  0  0  0  0  0  0  0  0  0  0
    2.4260    0.0430   -0.5200 C   0  0  0  0  0  0  0  0  0  0  0  0
    1.2190   -0.3000    0.2600 C   0  0  0  0  0  0  0  0  0  0  0  0
    0.0290   -0.0920   -0.2750 C   0  0  0  0  0  0  0  0  0  0  0  0
   -1.3290   -0.2940    0.1740 C   0  0  2  0  0  0  0  0  0  0  0  0
   -2.2370    0.5600   -0.4560 O   0  0  0  0  0  0  0  0  0  0  0  0
   -3.0200   -0.0050   -1.4200 C   0  0  0  0  0  0  0  0  0  0  0  0
   -3.9970    0.9260   -2.0550 C   0  0  0  0  0  0  0  0  0  0  0  0
   -4.7800    0.1460   -3.0950 C   0  0  0  0  0  0  0  0  0  0  0  0
   -5.7110    0.9740   -3.7220 O   0  0  0  0  0  0  0  0  0  0  0  0
   -1.5830   -0.4990    1.5750 C   0  0  0  0  0  0  0  0  0  0  0  0
   -2.7780   -0.4180    2.1270 C   0  0  0  0  0  0  0  0  0  0  0  0
   -3.0730   -0.6240    3.5610 C   0  0  0  0  0  0  0  0  0  0  0  0
   -4.3660   -0.4650    3.7610 C   0  0  0  0  0  0  0  0  0  0  0  0
   -5.0320   -0.1420    2.4860 C   0  0  0  0  0  0  0  0  0  0  0  0
   -3.9900   -0.1360    1.5520 O   0  0  0  0  0  0  0  0  0  0  0  0
   -0.0910   -0.8590    2.5360 P   0  0  0  0  0  0  0  0  0  0  0  0
    1.3580   -0.6920    1.6520 C   0  0  0  0  0  0  0  0  0  0  0  0
    2.5800   -0.8580    2.3450 N   0  0  0  0  0  0  0  0  0  0  0  0
    2.8410   -0.2610    3.4790 C   0  0  0  0  0  0  0  0  0  0  0  0
    1.8520    0.6330    4.0950 C   0  0  0  0  0  0  0  0  0  0  0  0
    3.6410   -0.3110   -0.1460 C   0  0  0  0  0  0  0  0  0  0  0  0
    4.6980    0.3260   -0.8890 O   0  0  0  0  0  0  0  0  0  0  0  0
    4.0430   -1.1480    0.7710 O   0  0  0  0  0  0  0  0  0  0  0  0
    5.1200   -2.0580    0.7570 C   0  0  0  0  0  0  0  0  0  0  0  0
    5.0290   -3.0790   -0.3360 C   0  0  0  0  0  0  0  0  0  0  0  0
  1  2  2  0
  2  3  1  0
  3  4  2  3
  4  5  1  0
  5  6  1  0
  5 25  2  3
  6  7  2  0
  6 21  1  0
  7  8  1  0
  8  9  1  1
  8 14  1  0
  9 10  1  0
 10 11  1  0
 11 12  1  0
 12 13  1  0
 14 15  2  3
 14 20  1  0
 15 16  1  0
 15 19  1  0
 16 17  2  0
 17 18  1  0
 18 19  1  0
 20 21  2  0
 21 22  1  0
 22 23  2  3
 23 24  1  0
 25 26  1  0
 25 27  1  0
 27 28  1  0
 28 29  1  0
M  END
