
     RDKit          3D

 29 30  0  0  0  0  0  0  0  0999 V2000
   -4.3700   -1.1810    2.4020 C   0  0  0  0  0  0  0  0  0  0  0  0
   -3.2150   -1.9620    2.1140 O   0  0  0  0  0  0  0  0  0  0  0  0
   -2.5260   -1.5980    0.9180 C   0  0  0  0  0  0  0  0  0  0  0  0
   -2.5630   -2.3620   -0.1520 C   0  0  0  0  0  0  0  0  0  0  0  0
   -3.4080   -3.6190    0.0630 C   0  0  0  0  0  0  0  0  0  0  0  0
   -3.9520   -3.6900    1.3150 O   0  0  0  0  0  0  0  0  0  0  0  0
   -1.9770   -2.1850   -1.4570 C   0  0  0  0  0  0  0  0  0  0  0  0
   -0.6900   -2.2270   -1.8590 C   0  0  0  0  0  0  0  0  0  0  0  0
   -0.5430   -1.9860   -3.3560 C   0  0  0  0  0  0  0  0  0  0  0  0
    0.4720   -2.5340   -1.0690 C   0  0  0  0  0  0  0  0  0  0  0  0
    1.3280   -1.7730   -0.3600 C   0  0  0  0  0  0  0  0  0  0  0  0
    2.4090   -2.4820    0.3400 C   0  0  0  0  0  0  0  0  0  0  0  0
    3.3040   -1.8730    1.0650 C   0  0  0  0  0  0  0  0  0  0  0  0
    3.5080   -0.4740    1.3860 C   0  0  0  0  0  0  0  0  0  0  0  0
    4.8020   -0.0310    0.9280 O   0  0  0  0  0  0  0  0  0  0  0  0
    5.1610    1.3280    1.1760 C   0  0  0  0  0  0  0  0  0  0  0  0
    5.6110    1.8890    2.2350 C   0  0  0  0  0  0  0  0  0  0  0  0
    5.7700    3.2720    1.8400 C   0  0  0  0  0  0  0  0  0  0  0  0
    5.1590    2.8090    0.2030 P   0  0  0  0  0  0  0  0  0  0  0  0
    1.1880   -0.3690   -0.3070 O   0  0  0  0  0  0  0  0  0  0  0  0
    1.3000    0.4770   -1.4250 C   0  0  0  0  0  0  0  0  0  0  0  0
    0.2580    1.5020   -1.6290 C   0  0  0  0  0  0  0  0  0  0  0  0
   -0.3200    2.0000   -0.3970 N   0  0  0  0  0  0  0  0  0  0  0  0
    0.7320    2.5970    0.4340 C   0  0  0  0  0  0  0  0  0  0  0  0
   -1.2820    3.0320   -0.8080 C   0  0  0  0  0  0  0  0  0  0  0  0
   -2.6850    2.6080   -0.4780 C   0  0  0  0  0  0  0  0  0  0  0  0
   -2.8930    1.1360   -0.3820 C   0  0  0  0  0  0  0  0  0  0  0  0
   -1.7530    0.3950   -0.1220 O   0  0  0  0  0  0  0  0  0  0  0  0
   -1.8120   -0.3060    1.0570 C   0  0  0  0  0  0  0  0  0  0  0  0
  1  2  1  0
  2  3  1  0
  3  4  2  0
  3 29  1  0
  4  5  1  0
  4  7  1  0
  5  6  1  0
  7  8  2  0
  8  9  1  0
  8 10  1  0
 10 11  2  0
 11 12  1  0
 11 20  1  0
 12 13  2  3
 13 14  1  0
 14 15  1  0
 15 16  1  0
 16 17  2  0
 16 19  1  0
 17 18  1  0
 18 19  1  0
 20 21  1  0
 21 22  1  0
 22 23  1  0
 23 24  1  0
 23 25  1  0
 25 26  1  0
 26 27  1  0
 27 28  1  0
 28 29  1  0
M  END
