
     RDKit          3D

 29 30  0  0  0  0  0  0  0  0999 V2000
   -3.4450   -0.4350    4.1010 C   0  0  0  0  0  0  0  0  0  0  0  0
   -2.8470   -1.0990    2.8410 C   0  0  0  0  0  0  0  0  0  0  0  0
   -1.4140   -1.2590    2.9680 C   0  0  0  0  0  0  0  0  0  0  0  0
   -1.0340   -1.9180    4.2930 C   0  0  0  0  0  0  0  0  0  0  0  0
   -0.4160   -1.0040    2.1590 C   0  0  0  0  0  0  0  0  0  0  0  0
    1.2420   -1.3390    2.7220 P   0  0  0  0  0  0  0  0  0  0  0  0
    2.4490   -0.9210    1.5680 C   0  0  0  0  0  0  0  0  0  0  0  0
    1.9780   -0.3950    0.3920 C   0  0  0  0  0  0  0  0  0  0  0  0
    2.9070   -0.0720   -0.5440 C   0  0  0  0  0  0  0  0  0  0  0  0
    4.3390   -0.2910   -0.2700 C   0  0  0  0  0  0  0  0  0  0  0  0
    5.1880    0.0210   -1.4670 C   0  0  1  0  0  0  0  0  0  0  0  0
    5.0330    1.4590   -1.9000 C   0  0  0  0  0  0  0  0  0  0  0  0
    6.6230   -0.3830   -1.2710 C   0  0  0  0  0  0  0  0  0  0  0  0
    4.6980   -0.7620   -2.5380 O   0  0  0  0  0  0  0  0  0  0  0  0
    0.6540   -0.1960    0.1030 C   0  0  0  0  0  0  0  0  0  0  0  0
    0.3640    0.3750   -1.1800 O   0  0  0  0  0  0  0  0  0  0  0  0
    0.3200    1.7520   -1.3600 C   0  0  0  0  0  0  0  0  0  0  0  0
   -0.6720    2.5090   -0.5460 C   0  0  0  0  0  0  0  0  0  0  0  0
   -0.5130    3.8740   -0.9050 O   0  0  0  0  0  0  0  0  0  0  0  0
   -1.4100    4.6630   -0.1840 C   0  0  0  0  0  0  0  0  0  0  0  0
   -0.4320   -0.4770    0.9070 C   0  0  0  0  0  0  0  0  0  0  0  0
   -1.7040   -0.1960    0.3210 O   0  0  0  0  0  0  0  0  0  0  0  0
   -2.2430   -1.1530   -0.5650 C   0  0  1  0  0  0  0  0  0  0  0  0
   -3.6430   -1.6040   -0.3780 C   0  0  1  0  0  0  0  0  0  0  0  0
   -4.5930   -0.6220   -0.3100 O   0  0  0  0  0  0  0  0  0  0  0  0
   -3.8060   -2.5740   -2.0010 P   0  0  0  0  0  0  0  0  0  0  0  0
   -2.2110   -1.8940   -2.7600 C   0  0  0  0  0  0  0  0  0  0  0  0
   -2.1300   -0.6610   -1.9350 N   0  0  0  0  0  0  0  0  0  0  0  0
   -3.1790    0.2180   -2.3380 C   0  0  0  0  0  0  0  0  0  0  0  0
  1  2  1  0
  2  3  1  0
  3  4  1  0
  3  5  2  3
  5  6  1  0
  5 21  1  0
  6  7  2  0
  7  8  1  0
  8  9  2  3
  8 15  1  0
  9 10  1  0
 10 11  1  0
 11 12  1  6
 11 13  1  0
 11 14  1  0
 15 16  1  0
 15 21  2  0
 16 17  1  0
 17 18  1  0
 18 19  1  0
 19 20  1  0
 21 22  1  0
 23 22  1  1
 23 24  1  0
 23 28  1  0
 24 25  1  6
 24 26  1  0
 26 27  1  0
 27 28  1  0
 28 29  1  0
M  END
