
     RDKit          3D

 29 30  0  0  0  0  0  0  0  0999 V2000
   -4.3530    5.1440    0.1090 C   0  0  0  0  0  0  0  0  0  0  0  0
   -3.4390    3.9810    0.1330 C   0  0  0  0  0  0  0  0  0  0  0  0
   -3.1280    3.2930   -0.9480 C   0  0  0  0  0  0  0  0  0  0  0  0
   -2.2070    2.1410   -0.8510 C   0  0  0  0  0  0  0  0  0  0  0  0
   -1.9320    1.4880   -1.9650 C   0  0  0  0  0  0  0  0  0  0  0  0
   -2.5410    1.9220   -3.2440 C   0  0  0  0  0  0  0  0  0  0  0  0
   -1.6800    1.8010    0.3880 O   0  0  0  0  0  0  0  0  0  0  0  0
   -0.9750    0.6010    0.6500 C   0  0  2  0  0  0  0  0  0  0  0  0
    0.1170    0.5370   -0.1230 O   0  0  0  0  0  0  0  0  0  0  0  0
    1.3590    0.3480    0.5050 C   0  0  1  0  0  0  0  0  0  0  0  0
    2.4360    0.2180   -0.4920 C   0  0  0  0  0  0  0  0  0  0  0  0
    2.1220   -0.1360   -1.7050 O   0  0  0  0  0  0  0  0  0  0  0  0
    3.8380    0.4380   -0.2840 N   0  0  0  0  0  0  0  0  0  0  0  0
    4.5580    0.8530    0.8840 C   0  0  0  0  0  0  0  0  0  0  0  0
    6.0160    0.7710    0.5800 C   0  0  0  0  0  0  0  0  0  0  0  0
    6.1170   -0.0980   -0.6420 C   0  0  1  0  0  0  0  0  0  0  0  0
    6.1650   -1.4330   -0.2540 O   0  0  0  0  0  0  0  0  0  0  0  0
    7.3060   -2.0770   -0.6740 C   0  0  0  0  0  0  0  0  0  0  0  0
    4.8380    0.2420   -1.3090 C   0  0  0  0  0  0  0  0  0  0  0  0
    4.6400    0.3450   -2.5210 O   0  0  0  0  0  0  0  0  0  0  0  0
    1.4960    1.0440    1.7990 C   0  0  0  0  0  0  0  0  0  0  0  0
    1.4130   -0.4560    1.7520 C   0  0  0  0  0  0  0  0  0  0  0  0
   -2.1020   -0.8150    0.1130 P   0  0  0  0  0  0  0  0  0  0  0  0
   -3.8410   -0.2430   -0.0290 C   0  0  0  0  0  0  0  0  0  0  0  0
   -2.0180   -2.1250    1.2960 O   0  0  0  0  0  0  0  0  0  0  0  0
   -2.7440   -3.2670    0.9880 C   0  0  0  0  0  0  0  0  0  0  0  0
   -2.3040   -4.0330   -0.2130 C   0  0  0  0  0  0  0  0  0  0  0  0
   -3.7620   -3.6430    1.7230 C   0  0  0  0  0  0  0  0  0  0  0  0
   -4.5370   -4.8690    1.3890 C   0  0  0  0  0  0  0  0  0  0  0  0
  1  2  1  0
  2  3  2  3
  3  4  1  0
  4  5  2  3
  4  7  1  0
  5  6  1  0
  8  7  1  6
  8  9  1  0
  8 23  1  0
 10  9  1  6
 10 11  1  0
 10 21  1  0
 10 22  1  0
 11 12  2  0
 11 13  1  0
 13 14  1  0
 13 19  1  0
 14 15  1  0
 15 16  1  0
 16 17  1  1
 16 19  1  0
 17 18  1  0
 19 20  2  0
 21 22  1  0
 23 24  1  0
 23 25  1  0
 25 26  1  0
 26 27  1  0
 26 28  2  3
 28 29  1  0
M  END
