
     RDKit          3D

  9 10  0  0  0  0  0  0  0  0999 V2000
    2.3380   -0.0340    0.0060 C   0  0  0  0  0  0  0  0  0  0  0  0
    1.3840    0.9220   -0.2370 C   0  0  0  0  0  0  0  0  0  0  0  0
    0.0580    0.6040   -0.1540 C   0  0  0  0  0  0  0  0  0  0  0  0
   -1.0710    1.3170   -0.3350 N   0  0  0  0  0  0  0  0  0  0  0  0
   -2.1380    0.5330   -0.1340 C   0  0  0  0  0  0  0  0  0  0  0  0
   -1.7030   -0.7330    0.1890 C   0  0  0  0  0  0  0  0  0  0  0  0
   -0.3120   -0.6940    0.1780 C   0  0  0  0  0  0  0  0  0  0  0  0
    0.6610   -1.6420    0.4190 C   0  0  0  0  0  0  0  0  0  0  0  0
    1.9690   -1.2830    0.3260 N   0  0  0  0  0  0  0  0  0  0  0  0
  1  2  2  0
  1  9  1  0
  2  3  1  0
  3  4  1  0
  3  7  2  0
  4  5  1  0
  5  6  2  0
  6  7  1  0
  7  8  1  0
  8  9  2  0
M  END
