
     RDKit          3D

 23 23  0  0  0  0  0  0  0  0999 V2000
   -3.3080    2.4150   -0.9490 C   0  0  0  0  0  0  0  0  0  0  0  0
   -4.0810    1.7180    0.1010 C   0  0  1  0  0  0  0  0  0  0  0  0
   -5.4480    1.3200   -0.4710 C   0  0  0  0  0  0  0  0  0  0  0  0
   -3.4810    0.7090    0.9490 C   0  0  0  0  0  0  0  0  0  0  0  0
   -2.8910   -0.5610    0.5200 C   0  0  1  0  0  0  0  0  0  0  0  0
   -3.9550   -1.3770   -0.1600 C   0  0  0  0  0  0  0  0  0  0  0  0
   -3.8710   -2.0060   -1.3940 N   0  0  0  0  0  0  0  0  0  0  0  0
   -5.0410   -1.5030    0.4600 O   0  0  0  0  0  0  0  0  0  0  0  0
   -1.6340   -0.6590   -0.0550 N   0  0  0  0  0  0  0  0  0  0  0  0
   -1.3290   -0.1140   -1.3300 C   0  0  0  0  0  0  0  0  0  0  0  0
   -0.2430   -0.9270   -2.0270 C   0  0  0  0  0  0  0  0  0  0  0  0
    0.9590   -0.9320   -1.2330 N   0  0  0  0  0  0  0  0  0  0  0  0
    0.8610   -0.6700    0.1400 C   0  0  1  0  0  0  0  0  0  0  0  0
    1.8290    0.3890    0.5960 C   0  0  0  0  0  0  0  0  0  0  0  0
    3.2690    0.1850    0.4910 C   0  0  0  0  0  0  0  0  0  0  0  0
    3.9140   -0.0320   -0.8200 C   0  0  0  0  0  0  0  0  0  0  0  0
    5.4440   -0.1780   -0.7270 C   0  0  0  0  0  0  0  0  0  0  0  0
    6.0820    1.0450   -0.1640 C   0  0  0  0  0  0  0  0  0  0  0  0
    7.8880    0.8260   -0.1080 S   0  0  0  0  0  0  0  0  0  0  0  0
    8.5390    2.2040    0.0810 O   0  0  0  0  0  0  0  0  0  0  0  0
   -0.4940   -0.4690    0.7520 C   0  0  2  0  0  0  0  0  0  0  0  0
   -0.5120   -1.1080    2.1100 C   0  0  0  0  0  0  0  0  0  0  0  0
   -0.6480   -2.5120    2.1290 N   0  0  0  0  0  0  0  0  0  0  0  0
  2  1  1  6
  2  3  1  0
  2  4  1  0
  5  4  1  6
  5  6  1  0
  5  9  1  0
  6  7  1  0
  6  8  2  0
  9 10  1  0
  9 21  1  0
 10 11  1  0
 11 12  1  0
 12 13  1  0
 13 14  1  6
 13 21  1  0
 14 15  1  0
 15 16  1  0
 16 17  1  0
 17 18  1  0
 18 19  1  0
 19 20  2  0
 21 22  1  1
 22 23  1  0
M  CHG  1  12   1
M  END
