
     RDKit          3D

 22 22  0  0  0  0  0  0  0  0999 V2000
    2.6740    2.0050   -3.5920 C   0  0  0  0  0  0  0  0  0  0  0  0
    3.0490    1.3570   -2.2960 C   0  0  0  0  0  0  0  0  0  0  0  0
    2.0690    1.8170   -1.2190 C   0  0  0  0  0  0  0  0  0  0  0  0
    2.3520    1.2420    0.0600 N   0  0  0  0  0  0  0  0  0  0  0  0
    1.9170    0.1140    0.4650 C   0  0  0  0  0  0  0  0  0  0  0  0
    1.0640   -0.7220   -0.3590 C   0  0  0  0  0  0  0  0  0  0  0  0
   -0.3070   -1.0250    0.1560 C   0  0  1  0  0  0  0  0  0  0  0  0
   -0.3130   -1.7170    1.4800 C   0  0  0  0  0  0  0  0  0  0  0  0
   -1.1480    0.1360    0.2060 N   0  0  0  0  0  0  0  0  0  0  0  0
   -0.7500    1.2030    1.0550 C   0  0  0  0  0  0  0  0  0  0  0  0
   -2.0200    1.8940    1.5970 C   0  0  0  0  0  0  0  0  0  0  0  0
   -2.7660    2.3830    0.5290 O   0  0  0  0  0  0  0  0  0  0  0  0
   -3.8960    2.9930    1.0740 C   0  0  0  0  0  0  0  0  0  0  0  0
   -0.9650   -1.9800   -0.8470 C   0  0  1  0  0  0  0  0  0  0  0  0
   -0.1440   -3.2190   -1.0590 C   0  0  0  0  0  0  0  0  0  0  0  0
   -2.3610   -2.3390   -0.5510 C   0  0  0  0  0  0  0  0  0  0  0  0
   -3.1330   -1.8500   -1.6880 N   0  0  0  0  0  0  0  0  0  0  0  0
   -2.1210   -1.7840   -2.7310 C   0  0  0  0  0  0  0  0  0  0  0  0
   -1.0220   -1.3050   -2.0620 O   0  0  0  0  0  0  0  0  0  0  0  0
    2.3170   -0.3050    1.7710 N   0  0  0  0  0  0  0  0  0  0  0  0
    2.7170    0.7330    2.7010 C   0  0  0  0  0  0  0  0  0  0  0  0
    3.1160    0.1900    4.0370 C   0  0  0  0  0  0  0  0  0  0  0  0
  1  2  1  0
  2  3  1  0
  3  4  1  0
  4  5  2  3
  5  6  1  0
  5 20  1  0
  6  7  1  0
  7  8  1  1
  7  9  1  0
  7 14  1  0
  9 10  1  0
 10 11  1  0
 11 12  1  0
 12 13  1  0
 14 15  1  6
 14 16  1  0
 14 19  1  0
 16 17  1  0
 17 18  1  0
 18 19  1  0
 20 21  1  0
 21 22  1  0
M  CHG  2   9   1  17   1
M  END
