
     RDKit          3D

  9 10  0  0  0  0  0  0  0  0999 V2000
    3.1580   -0.0210    0.3330 C   0  0  0  0  0  0  0  0  0  0  0  0
    2.2810    0.5130   -0.5000 C   0  0  0  0  0  0  0  0  0  0  0  0
    1.1700   -0.0890    0.2380 C   0  0  0  0  0  0  0  0  0  0  0  0
   -0.2860   -0.0840    0.0910 C   0  0  0  0  0  0  0  0  0  0  0  0
   -1.0430    0.5500   -0.8710 C   0  0  0  0  0  0  0  0  0  0  0  0
   -2.3810    0.2810   -0.6230 C   0  0  0  0  0  0  0  0  0  0  0  0
   -2.4100   -0.5210    0.4990 C   0  0  0  0  0  0  0  0  0  0  0  0
   -1.1360   -0.7280    0.9120 N   0  0  0  0  0  0  0  0  0  0  0  0
    2.0520   -0.5930    1.0290 N   0  0  0  0  0  0  0  0  0  0  0  0
  1  2  2  0
  1  9  1  0
  2  3  1  0
  3  4  1  0
  3  9  2  0
  4  5  2  0
  4  8  1  0
  5  6  1  0
  6  7  2  0
  7  8  1  0
M  END
