
     RDKit          3D

  9 10  0  0  0  0  0  0  0  0999 V2000
   -2.3500    0.4350   -0.0660 C   0  0  0  0  0  0  0  0  0  0  0  0
   -1.1800    1.1900   -0.0950 C   0  0  0  0  0  0  0  0  0  0  0  0
    0.0710    0.6110   -0.0380 C   0  0  0  0  0  0  0  0  0  0  0  0
    1.3700    1.1090   -0.0480 C   0  0  0  0  0  0  0  0  0  0  0  0
    2.2410    0.0880    0.0310 N   0  0  0  0  0  0  0  0  0  0  0  0
    1.5330   -1.0580    0.0920 C   0  0  0  0  0  0  0  0  0  0  0  0
    0.1790   -0.7620    0.0510 C   0  0  0  0  0  0  0  0  0  0  0  0
   -0.9860   -1.4950    0.0790 C   0  0  0  0  0  0  0  0  0  0  0  0
   -2.1870   -0.8970    0.0220 N   0  0  0  0  0  0  0  0  0  0  0  0
  1  2  2  0
  1  9  1  0
  2  3  1  0
  3  4  2  0
  3  7  1  0
  4  5  1  0
  5  6  1  0
  6  7  2  0
  7  8  1  0
  8  9  2  0
M  END
