
     RDKit          3D

 25 25  0  0  0  0  0  0  0  0999 V2000
   -7.9680    0.3620    2.2420 C   0  0  0  0  0  0  0  0  0  0  0  0
   -7.6720   -0.2220    1.1330 C   0  0  0  0  0  0  0  0  0  0  0  0
   -6.5140   -0.2070    0.2870 C   0  0  0  0  0  0  0  0  0  0  0  0
   -6.6080   -0.9780   -0.8170 C   0  0  0  0  0  0  0  0  0  0  0  0
   -5.5170   -1.0780   -1.7870 C   0  0  0  0  0  0  0  0  0  0  0  0
   -5.3050    0.5300    0.4870 C   0  0  0  0  0  0  0  0  0  0  0  0
   -4.8950    1.3480    1.4750 C   0  0  0  0  0  0  0  0  0  0  0  0
   -3.6090    1.7970    1.1430 C   0  0  0  0  0  0  0  0  0  0  0  0
   -3.3030    1.2120   -0.0570 C   0  0  0  0  0  0  0  0  0  0  0  0
   -2.0130    1.4070   -0.8080 C   0  0  0  0  0  0  0  0  0  0  0  0
   -1.0280    0.3320   -0.3500 C   0  0  0  0  0  0  0  0  0  0  0  0
    0.2640    0.4730   -1.0660 C   0  0  0  0  0  0  0  0  0  0  0  0
    0.4910    1.3650   -1.9270 O   0  0  0  0  0  0  0  0  0  0  0  0
    1.3090   -0.4450   -0.7730 N   0  0  0  0  0  0  0  0  0  0  0  0
    2.5390   -0.3550   -1.4230 N   0  0  0  0  0  0  0  0  0  0  0  0
    3.7240    0.1500   -0.7560 C   0  0  0  0  0  0  0  0  0  0  0  0
    3.5740    0.4930    0.4170 O   0  0  0  0  0  0  0  0  0  0  0  0
    4.9530    0.2410   -1.4030 N   0  0  0  0  0  0  0  0  0  0  0  0
    6.1890    0.6940   -0.8660 C   0  0  0  0  0  0  0  0  0  0  0  0
    6.7700   -0.1720    0.1870 C   0  0  1  0  0  0  0  0  0  0  0  0
    6.0110   -0.3820    1.4290 C   0  0  0  0  0  0  0  0  0  0  0  0
    7.1050   -1.5410   -0.3610 C   0  0  0  0  0  0  0  0  0  0  0  0
    8.0370   -1.7100   -1.4090 N   0  0  0  0  0  0  0  0  0  0  0  0
    6.5420   -2.5270    0.1290 O   0  0  0  0  0  0  0  0  0  0  0  0
   -4.3120    0.4970   -0.3830 O   0  0  0  0  0  0  0  0  0  0  0  0
  1  2  2  0
  2  3  1  0
  3  4  2  3
  3  6  1  0
  4  5  1  0
  6  7  2  0
  6 25  1  0
  7  8  1  0
  8  9  2  0
  9 10  1  0
  9 25  1  0
 10 11  1  0
 11 12  1  0
 12 13  2  0
 12 14  1  0
 14 15  1  0
 15 16  1  0
 16 17  2  0
 16 18  1  0
 18 19  1  0
 19 20  1  0
 20 21  1  1
 20 22  1  0
 22 23  1  0
 22 24  2  0
M  END
