
     RDKit          3D

 25 26  0  0  0  0  0  0  0  0999 V2000
    8.1830   -0.7880   -0.5050 C   0  0  0  0  0  0  0  0  0  0  0  0
    6.8540   -0.7170    0.2350 C   0  0  0  0  0  0  0  0  0  0  0  0
    6.0340    0.3930   -0.3940 C   0  0  1  0  0  0  0  0  0  0  0  0
    5.8030    0.1410   -1.7340 O   0  0  0  0  0  0  0  0  0  0  0  0
    4.7120    0.5500    0.3280 C   0  0  0  0  0  0  0  0  0  0  0  0
    4.7290    0.7550    1.5780 O   0  0  0  0  0  0  0  0  0  0  0  0
    3.5290    0.4680   -0.3860 N   0  0  0  0  0  0  0  0  0  0  0  0
    2.2510    0.5990    0.1700 C   0  0  0  0  0  0  0  0  0  0  0  0
    1.1630    0.1330   -0.5750 C   0  0  0  0  0  0  0  0  0  0  0  0
   -0.1220    0.2270   -0.0940 C   0  0  0  0  0  0  0  0  0  0  0  0
   -0.4140    0.7770    1.1320 C   0  0  0  0  0  0  0  0  0  0  0  0
   -1.6560    0.9060    1.6860 O   0  0  0  0  0  0  0  0  0  0  0  0
   -2.8100    0.4980    1.0430 C   0  0  0  0  0  0  0  0  0  0  0  0
   -3.6180    1.3730    0.3460 C   0  0  0  0  0  0  0  0  0  0  0  0
   -4.7690    0.9470   -0.2860 C   0  0  0  0  0  0  0  0  0  0  0  0
   -5.1830   -0.3680   -0.2600 C   0  0  0  0  0  0  0  0  0  0  0  0
   -6.3750   -0.8330   -0.8800 N   0  0  0  0  0  0  0  0  0  0  0  0
   -7.2570    0.0290   -1.5290 N   0  0  0  0  0  0  0  0  0  0  0  0
   -7.9790    0.9630   -0.7070 C   0  0  0  0  0  0  0  0  0  0  0  0
   -7.8180    1.0050    0.5590 O   0  0  0  0  0  0  0  0  0  0  0  0
   -4.3640   -1.2390    0.4430 C   0  0  0  0  0  0  0  0  0  0  0  0
   -4.7710   -2.5980    0.4780 N   0  0  0  0  0  0  0  0  0  0  0  0
   -3.2180   -0.8370    1.0750 C   0  0  0  0  0  0  0  0  0  0  0  0
    0.6780    1.2450    1.8750 C   0  0  0  0  0  0  0  0  0  0  0  0
    1.9520    1.1440    1.3810 C   0  0  0  0  0  0  0  0  0  0  0  0
  1  2  1  0
  2  3  1  0
  3  4  1  6
  3  5  1  0
  5  6  2  0
  5  7  1  0
  7  8  1  0
  8  9  2  0
  8 25  1  0
  9 10  1  0
 10 11  2  0
 11 12  1  0
 11 24  1  0
 12 13  1  0
 13 14  2  0
 13 23  1  0
 14 15  1  0
 15 16  2  0
 16 17  1  0
 16 21  1  0
 17 18  1  0
 18 19  1  0
 19 20  2  0
 21 22  1  0
 21 23  2  0
 24 25  2  0
M  END
