
     RDKit          3D

 25 27  0  0  0  0  0  0  0  0999 V2000
   -2.2850    1.3490   -1.9930 C   0  0  0  0  0  0  0  0  0  0  0  0
   -1.7550    1.2110   -0.6330 C   0  0  0  0  0  0  0  0  0  0  0  0
   -1.4330    2.2140    0.1590 C   0  0  0  0  0  0  0  0  0  0  0  0
   -1.5210    3.6410   -0.1080 C   0  0  0  0  0  0  0  0  0  0  0  0
   -1.1590    4.5410    0.7880 C   0  0  0  0  0  0  0  0  0  0  0  0
   -1.2450    5.9290    0.5270 N   0  0  0  0  0  0  0  0  0  0  0  0
   -0.9520    1.6740    1.3740 N   0  0  0  0  0  0  0  0  0  0  0  0
   -0.5280    0.2680    1.0850 C   0  0  2  0  0  0  0  0  0  0  0  0
    0.8630    0.4260    0.5150 C   0  0  0  0  0  0  0  0  0  0  0  0
    1.3790    1.5610    0.4590 O   0  0  0  0  0  0  0  0  0  0  0  0
    1.6240   -0.6660    0.0310 N   0  0  0  0  0  0  0  0  0  0  0  0
    2.9130   -0.6420   -0.5120 C   0  0  0  0  0  0  0  0  0  0  0  0
    3.7310    0.4300   -0.7130 C   0  0  0  0  0  0  0  0  0  0  0  0
    5.0000    0.3610   -1.2600 C   0  0  0  0  0  0  0  0  0  0  0  0
    5.4920   -0.8550   -1.6330 C   0  0  0  0  0  0  0  0  0  0  0  0
    4.7140   -1.9760   -1.4550 C   0  0  0  0  0  0  0  0  0  0  0  0
    3.4540   -1.8750   -0.9070 C   0  0  0  0  0  0  0  0  0  0  0  0
   -1.5030   -0.0850    0.0760 C   0  0  0  0  0  0  0  0  0  0  0  0
   -2.1100   -1.1710   -0.2470 C   0  0  0  0  0  0  0  0  0  0  0  0
   -2.0520   -2.5190    0.2580 C   0  0  0  0  0  0  0  0  0  0  0  0
   -2.8190   -3.5030   -0.2590 C   0  0  0  0  0  0  0  0  0  0  0  0
   -2.5660   -4.7640    0.4300 C   0  0  0  0  0  0  0  0  0  0  0  0
   -1.5470   -4.4350    1.4230 C   0  0  0  0  0  0  0  0  0  0  0  0
   -1.2750   -3.1170    1.2920 C   0  0  0  0  0  0  0  0  0  0  0  0
   -0.3280   -2.5750    2.1400 O   0  0  0  0  0  0  0  0  0  0  0  0
  1  2  1  0
  2  3  2  0
  2 18  1  0
  3  4  1  0
  3  7  1  0
  4  5  2  3
  5  6  1  0
  7  8  1  0
  8  9  1  6
  8 18  1  0
  9 10  2  0
  9 11  1  0
 11 12  1  0
 12 13  2  0
 12 17  1  0
 13 14  1  0
 14 15  2  0
 15 16  1  0
 16 17  2  0
 18 19  2  3
 19 20  1  0
 20 21  2  0
 20 24  1  0
 21 22  1  0
 22 23  1  0
 23 24  2  0
 24 25  1  0
M  CHG  1   6   1
M  END
