
     RDKit          3D

 18 18  0  0  0  0  0  0  0  0999 V2000
    7.6850    1.8150   -0.5430 C   0  0  0  0  0  0  0  0  0  0  0  0
    6.4060    1.1520   -0.2490 C   0  0  0  0  0  0  0  0  0  0  0  0
    5.3460    0.6220   -0.0170 C   0  0  0  0  0  0  0  0  0  0  0  0
    4.0570   -0.0220    0.2380 C   0  0  0  0  0  0  0  0  0  0  0  0
    3.0400    0.5300   -0.6000 O   0  0  0  0  0  0  0  0  0  0  0  0
    1.7310    0.0830   -0.5440 C   0  0  0  0  0  0  0  0  0  0  0  0
    1.2770   -0.9090    0.2960 C   0  0  0  0  0  0  0  0  0  0  0  0
   -0.0580   -1.3080    0.2980 C   0  0  0  0  0  0  0  0  0  0  0  0
   -0.9460   -0.6970   -0.5610 C   0  0  0  0  0  0  0  0  0  0  0  0
   -2.6150   -1.2500   -0.5060 S   0  0  1  0  0  0  0  0  0  0  0  0
   -3.2440   -1.1400   -1.8660 O   0  0  0  0  0  0  0  0  0  0  0  0
   -2.5950   -2.6960   -0.1340 O   0  0  0  0  0  0  0  0  0  0  0  0
   -3.4410   -0.2740    0.6980 C   0  0  0  0  0  0  0  0  0  0  0  0
   -4.8800   -0.5960    0.8970 C   0  0  0  0  0  0  0  0  0  0  0  0
   -5.7010   -0.4200   -0.3600 C   0  0  0  0  0  0  0  0  0  0  0  0
   -5.6030    1.2930   -0.9390 S   0  0  0  0  0  0  0  0  0  0  0  0
   -0.5210    0.2900   -1.4050 C   0  0  0  0  0  0  0  0  0  0  0  0
    0.8160    0.6730   -1.3900 C   0  0  0  0  0  0  0  0  0  0  0  0
  1  2  1  0
  2  3  3  0
  3  4  1  0
  4  5  1  0
  5  6  1  0
  6  7  2  0
  6 18  1  0
  7  8  1  0
  8  9  2  0
  9 10  1  0
  9 17  1  0
 10 11  2  0
 10 12  2  0
 10 13  1  1
 13 14  1  0
 14 15  1  0
 15 16  1  0
 17 18  2  0
M  END
