
     RDKit          3D

 25 26  0  0  0  0  0  0  0  0999 V2000
   -9.2760    0.5850    1.5110 C   0  0  0  0  0  0  0  0  0  0  0  0
   -8.3000    0.9030    0.4050 C   0  0  0  0  0  0  0  0  0  0  0  0
   -6.9700    0.3370    0.8100 C   0  0  0  0  0  0  0  0  0  0  0  0
   -6.8620   -0.2620    1.9000 O   0  0  0  0  0  0  0  0  0  0  0  0
   -5.8370    0.4700   -0.0220 N   0  0  0  0  0  0  0  0  0  0  0  0
   -4.5430   -0.0110    0.2380 C   0  0  0  0  0  0  0  0  0  0  0  0
   -4.1100   -0.7000    1.3350 C   0  0  0  0  0  0  0  0  0  0  0  0
   -2.7980   -1.1380    1.5040 C   0  0  0  0  0  0  0  0  0  0  0  0
   -1.8390   -0.8860    0.5360 C   0  0  0  0  0  0  0  0  0  0  0  0
   -0.5320   -1.3510    0.7370 N   0  0  0  0  0  0  0  0  0  0  0  0
    0.6040   -1.0870   -0.0510 C   0  0  0  0  0  0  0  0  0  0  0  0
    0.5090   -0.3620   -1.0550 O   0  0  0  0  0  0  0  0  0  0  0  0
    1.8910   -1.6150    0.2370 N   0  0  0  0  0  0  0  0  0  0  0  0
    3.1000   -1.3960   -0.5010 C   0  0  0  0  0  0  0  0  0  0  0  0
    3.5930    0.0090   -0.5750 C   0  0  2  0  0  0  0  0  0  0  0  0
    2.7020    0.8700   -1.1820 O   0  0  0  0  0  0  0  0  0  0  0  0
    4.8330   -0.0210   -1.4780 C   0  0  0  0  0  0  0  0  0  0  0  0
    5.7410   -0.8790   -0.9080 O   0  0  0  0  0  0  0  0  0  0  0  0
    6.1710   -0.5530    0.3490 C   0  0  0  0  0  0  0  0  0  0  0  0
    6.8330    0.8080    0.3310 C   0  0  2  0  0  0  0  0  0  0  0  0
    8.0480    0.9920   -0.5570 C   0  0  0  0  0  0  0  0  0  0  0  0
    8.1840    0.9270    0.9200 C   0  0  0  0  0  0  0  0  0  0  0  0
   -2.2510   -0.2030   -0.5610 C   0  0  0  0  0  0  0  0  0  0  0  0
   -3.5550    0.2320   -0.7280 C   0  0  0  0  0  0  0  0  0  0  0  0
   -3.8800    0.9460   -1.9260 N   0  0  0  0  0  0  0  0  0  0  0  0
  1  2  1  0
  2  3  1  0
  3  4  2  0
  3  5  1  0
  5  6  1  0
  6  7  2  0
  6 24  1  0
  7  8  1  0
  8  9  2  0
  9 10  1  0
  9 23  1  0
 10 11  1  0
 11 12  2  0
 11 13  1  0
 13 14  1  0
 14 15  1  0
 15 16  1  6
 15 17  1  0
 17 18  1  0
 18 19  1  0
 20 19  1  6
 20 21  1  0
 20 22  1  0
 21 22  1  0
 23 24  2  0
 24 25  1  0
M  END
