
     RDKit          3D

 28 30  0  0  0  0  0  0  0  0999 V2000
   -7.0500    0.0990   -0.9380 N   0  0  0  0  0  0  0  0  0  0  0  0
   -5.9300   -0.7640   -0.7020 C   0  0  0  0  0  0  0  0  0  0  0  0
   -4.7310   -0.2050   -0.4970 N   0  0  0  0  0  0  0  0  0  0  0  0
   -3.6310   -0.9570   -0.2680 C   0  0  0  0  0  0  0  0  0  0  0  0
   -3.8080   -2.3350   -0.2570 C   0  0  0  0  0  0  0  0  0  0  0  0
   -2.6140   -2.8690   -0.0170 N   0  0  0  0  0  0  0  0  0  0  0  0
   -1.7250   -1.8770    0.1160 C   0  0  0  0  0  0  0  0  0  0  0  0
   -2.3360   -0.6900   -0.0350 N   0  0  0  0  0  0  0  0  0  0  0  0
   -1.7350    0.6430    0.0330 C   0  0  2  0  0  0  0  0  0  0  0  0
   -0.4290    0.4910   -0.4200 O   0  0  0  0  0  0  0  0  0  0  0  0
    0.3090    1.5390    0.0690 C   0  0  2  0  0  0  0  0  0  0  0  0
    1.6930    1.0570    0.4960 C   0  0  0  0  0  0  0  0  0  0  0  0
    2.3520    0.5150   -0.5690 O   0  0  0  0  0  0  0  0  0  0  0  0
    3.8410   -0.0410   -0.2780 P   0  0  0  0  0  0  0  0  0  0  0  0
    4.1360   -1.0980    0.9870 O   0  0  0  0  0  0  0  0  0  0  0  0
    4.2840    1.1440    0.5720 O   0  0  0  0  0  0  0  0  0  0  0  0
    5.0930    0.2400   -1.3460 O   0  0  0  0  0  0  0  0  0  0  0  0
    6.3130   -0.6460   -1.0770 P   0  0  0  0  0  0  0  0  0  0  0  0
    7.1940   -0.0440   -2.3120 O   0  0  0  0  0  0  0  0  0  0  0  0
    6.4280    0.0020    0.4540 O   0  0  0  0  0  0  0  0  0  0  0  0
    5.3850   -1.9900   -1.2900 O   0  0  0  0  0  0  0  0  0  0  0  0
   -0.3710    2.0500    1.3090 C   0  0  1  0  0  0  0  0  0  0  0  0
   -0.7650    3.3560    1.0790 O   0  0  0  0  0  0  0  0  0  0  0  0
   -1.5300    1.0950    1.4560 C   0  0  1  0  0  0  0  0  0  0  0  0
   -2.6170    1.8050    1.9570 O   0  0  0  0  0  0  0  0  0  0  0  0
   -5.0290   -2.9220   -0.4650 C   0  0  0  0  0  0  0  0  0  0  0  0
   -5.2310   -4.1660   -0.4630 O   0  0  0  0  0  0  0  0  0  0  0  0
   -6.0850   -2.1140   -0.6880 N   0  0  0  0  0  0  0  0  0  0  0  0
  1  2  1  0
  2  3  1  0
  2 28  2  0
  3  4  1  0
  4  5  2  0
  4  8  1  0
  5  6  1  0
  5 26  1  0
  6  7  2  0
  7  8  1  0
  9  8  1  1
  9 10  1  0
  9 24  1  0
 10 11  1  0
 11 12  1  1
 11 22  1  0
 12 13  1  0
 13 14  1  0
 14 15  1  0
 14 16  1  0
 14 17  1  0
 17 18  1  0
 18 19  1  0
 18 20  1  0
 18 21  1  0
 22 23  1  6
 22 24  1  0
 24 25  1  6
 26 27  2  0
 26 28  1  0
M  CHG  1  28   1
M  END
