
     RDKit          3D

 13 14  0  0  0  0  0  0  0  0999 V2000
   -1.6170   -0.5430    1.4460 C   0  0  0  0  0  0  0  0  0  0  0  0
   -1.1730    0.0640    0.0850 C   0  0  2  0  0  0  0  0  0  0  0  0
   -2.2030   -0.4490   -0.8930 C   0  0  0  0  0  0  0  0  0  0  0  0
   -1.9390   -1.9290   -0.7370 C   0  0  0  0  0  0  0  0  0  0  0  0
   -0.6630   -2.1100   -0.4070 C   0  0  0  0  0  0  0  0  0  0  0  0
   -0.0260   -0.7700   -0.3280 C   0  0  0  0  0  0  0  0  0  0  0  0
    1.1520   -0.4440   -0.6030 N   0  0  0  0  0  0  0  0  0  0  0  0
    1.7070    0.8280   -0.6000 N   0  0  0  0  0  0  0  0  0  0  0  0
    3.1080    1.0760   -0.9390 C   0  0  0  0  0  0  0  0  0  0  0  0
    3.9170    0.3250    0.0230 N   0  0  0  0  0  0  0  0  0  0  0  0
    0.5230    2.0970   -0.1400 P   0  0  0  0  0  0  0  0  0  0  0  0
   -0.9800    1.4770    0.1880 C   0  0  0  0  0  0  0  0  0  0  0  0
   -2.0510    2.2760    0.5580 O   0  0  0  0  0  0  0  0  0  0  0  0
  2  1  1  1
  2  3  1  0
  2  6  1  0
  2 12  1  0
  3  4  1  0
  4  5  2  0
  5  6  1  0
  6  7  2  0
  7  8  1  0
  8  9  1  0
  8 11  1  0
  9 10  1  0
 11 12  2  0
 12 13  1  0
M  END
