
     RDKit          3D

 13 13  0  0  0  0  0  0  0  0999 V2000
    1.4980    1.4410   -0.9130 C   0  0  0  0  0  0  0  0  0  0  0  0
    0.8410    0.4070   -0.4770 C   0  0  0  0  0  0  0  0  0  0  0  0
    1.5380   -0.8460   -0.4860 N   0  0  0  0  0  0  0  0  0  0  0  0
    2.6510   -1.0180    0.1350 C   0  0  0  0  0  0  0  0  0  0  0  0
    3.3180    0.0290    0.9090 C   0  0  0  0  0  0  0  0  0  0  0  0
   -0.5500    0.4930    0.0330 C   0  0  0  0  0  0  0  0  0  0  0  0
   -1.0180    1.7070    0.3200 N   0  0  0  0  0  0  0  0  0  0  0  0
   -2.2150    1.9980    0.7690 O   0  0  0  0  0  0  0  0  0  0  0  0
   -3.2530    0.7230    1.0050 P   0  0  0  0  0  0  0  0  0  0  0  0
   -4.9770    0.8210    1.1670 O   0  0  0  0  0  0  0  0  0  0  0  0
   -2.5380   -0.7620    0.6040 N   0  0  0  0  0  0  0  0  0  0  0  0
   -1.2720   -0.6830    0.1670 C   0  0  0  0  0  0  0  0  0  0  0  0
   -0.6480   -2.0070   -0.1950 C   0  0  0  0  0  0  0  0  0  0  0  0
  1  2  2  0
  2  3  1  0
  2  6  1  0
  3  4  2  3
  4  5  1  0
  6  7  1  0
  6 12  2  0
  7  8  1  0
  8  9  1  0
  9 10  1  0
  9 11  1  0
 11 12  1  0
 12 13  1  0
M  END
