
     RDKit          3D

 13 14  0  0  0  0  0  0  0  0999 V2000
    3.8410   -0.4390   -0.2720 C   0  0  0  0  0  0  0  0  0  0  0  0
    2.6300    0.4620   -0.4250 C   0  0  0  0  0  0  0  0  0  0  0  0
    1.6530    0.0030    0.4680 O   0  0  0  0  0  0  0  0  0  0  0  0
    0.5280    0.7220    0.4280 N   0  0  0  0  0  0  0  0  0  0  0  0
    0.4830    2.1020    0.6220 N   0  0  0  0  0  0  0  0  0  0  0  0
   -0.4790    2.6920   -0.0820 O   0  0  0  0  0  0  0  0  0  0  0  0
   -1.7550    2.2550    0.3040 C   0  0  0  0  0  0  0  0  0  0  0  0
   -1.8430    0.8620   -0.0810 N   0  0  0  0  0  0  0  0  0  0  0  0
   -2.8370    0.0040   -0.7010 C   0  0  0  0  0  0  0  0  0  0  0  0
   -2.4700   -1.3640   -0.1880 C   0  0  0  0  0  0  0  0  0  0  0  0
   -1.0410   -1.2440    0.1150 C   0  0  0  0  0  0  0  0  0  0  0  0
   -0.0340   -2.3350    0.3400 C   0  0  0  0  0  0  0  0  0  0  0  0
   -0.7220    0.0330    0.1690 C   0  0  0  0  0  0  0  0  0  0  0  0
  1  2  1  0
  2  3  1  0
  3  4  1  0
  4  5  1  0
  4 13  1  0
  5  6  1  0
  6  7  1  0
  7  8  1  0
  8  9  1  0
  8 13  1  0
  9 10  1  0
 10 11  1  0
 11 12  1  0
 11 13  2  0
M  END
