
     RDKit          3D

 13 13  0  0  0  0  0  0  0  0999 V2000
   -4.7320    1.3770    0.6730 C   0  0  0  0  0  0  0  0  0  0  0  0
   -4.0470    0.3540    0.3690 N   0  0  0  0  0  0  0  0  0  0  0  0
   -2.6690    0.2150    0.3540 C   0  0  0  0  0  0  0  0  0  0  0  0
   -1.8910    0.5550    1.2970 N   0  0  0  0  0  0  0  0  0  0  0  0
   -0.5560    0.4420    1.3320 O   0  0  0  0  0  0  0  0  0  0  0  0
    0.2470   -0.0630    0.3600 C   0  0  0  0  0  0  0  0  0  0  0  0
    1.6960   -0.0820    0.6320 C   0  0  0  0  0  0  0  0  0  0  0  0
    2.1980    0.3680    1.7630 C   0  0  0  0  0  0  0  0  0  0  0  0
    2.6170   -0.5920   -0.3230 N   0  0  0  0  0  0  0  0  0  0  0  0
    3.8410    0.1030   -0.6810 C   0  0  0  0  0  0  0  0  0  0  0  0
   -0.1380   -0.5460   -0.8210 C   0  0  0  0  0  0  0  0  0  0  0  0
   -1.9370   -0.5210   -1.1570 P   0  0  0  0  0  0  0  0  0  0  0  0
   -2.5710   -2.0760   -1.4970 O   0  0  0  0  0  0  0  0  0  0  0  0
  1  2  2  0
  2  3  1  0
  3  4  2  0
  3 12  1  0
  4  5  1  0
  5  6  1  0
  6  7  1  0
  6 11  2  0
  7  8  2  0
  7  9  1  0
  9 10  1  0
 11 12  1  0
 12 13  1  0
M  END
