
     RDKit          3D

 11 11  0  0  0  0  0  0  0  0999 V2000
    4.1750    0.9020    0.3580 O   0  0  0  0  0  0  0  0  0  0  0  0
    2.8800    0.6110    0.2490 O   0  0  0  0  0  0  0  0  0  0  0  0
    2.8000   -0.5930   -0.2150 O   0  0  0  0  0  0  0  0  0  0  0  0
    1.6110   -1.0770   -0.3280 O   0  0  0  0  0  0  0  0  0  0  0  0
    0.5860   -0.1930   -0.0920 C   0  0  2  0  0  0  0  0  0  0  0  0
   -0.2660   -0.7640    1.0270 C   0  0  0  0  0  0  0  0  0  0  0  0
   -1.4260   -1.3810    0.5200 O   0  0  0  0  0  0  0  0  0  0  0  0
   -2.3870   -0.3970    0.4010 C   0  0  0  0  0  0  0  0  0  0  0  0
   -1.8840    0.8930   -0.1490 C   0  0  0  0  0  0  0  0  0  0  0  0
   -1.0820    0.7890   -1.2470 O   0  0  0  0  0  0  0  0  0  0  0  0
   -0.2240   -0.1720   -1.2320 O   0  0  0  0  0  0  0  0  0  0  0  0
  1  2  1  0
  2  3  1  0
  3  4  1  0
  5  4  1  6
  5  6  1  0
  5 11  1  0
  6  7  1  0
  7  8  1  0
  8  9  1  0
  9 10  1  0
 10 11  1  0
M  END
