
     RDKit          3D

 11 10  0  0  0  0  0  0  0  0999 V2000
   -3.4480    0.2960   -0.0480 O   0  0  0  0  0  0  0  0  0  0  0  0
   -2.4660   -0.4900   -0.0310 C   0  0  0  0  0  0  0  0  0  0  0  0
   -2.7790   -1.8400   -0.1250 O   0  0  0  0  0  0  0  0  0  0  0  0
   -1.1140    0.0420    0.0820 C   0  0  2  0  0  0  0  0  0  0  0  0
   -1.1770    1.4310    0.1550 O   0  0  0  0  0  0  0  0  0  0  0  0
   -0.7420    1.9060    1.2930 O   0  0  0  0  0  0  0  0  0  0  0  0
   -0.2910   -0.2720   -0.9860 O   0  0  0  0  0  0  0  0  0  0  0  0
    0.8590   -0.9260   -0.6450 C   0  0  0  0  0  0  0  0  0  0  0  0
    1.7630   -0.1790    0.2850 C   0  0  0  0  0  0  0  0  0  0  0  0
    2.1730    1.0330   -0.2720 O   0  0  0  0  0  0  0  0  0  0  0  0
    2.9650    1.6400    0.5970 O   0  0  0  0  0  0  0  0  0  0  0  0
  1  2  2  0
  2  3  1  0
  2  4  1  0
  4  5  1  6
  4  7  1  0
  5  6  1  0
  7  8  1  0
  8  9  1  0
  9 10  1  0
 10 11  1  0
M  END
