
     RDKit          3D

 11 10  0  0  0  0  0  0  0  0999 V2000
    2.1740    0.7250    1.1710 O   0  0  0  0  0  0  0  0  0  0  0  0
    2.3890    0.8420   -0.0590 C   0  0  0  0  0  0  0  0  0  0  0  0
    3.3100    1.8180   -0.4490 O   0  0  0  0  0  0  0  0  0  0  0  0
    1.7660    0.0620   -1.0120 O   0  0  0  0  0  0  0  0  0  0  0  0
    0.8470   -0.9120   -0.6340 C   0  0  0  0  0  0  0  0  0  0  0  0
   -0.3560   -0.3980    0.0950 C   0  0  2  0  0  0  0  0  0  0  0  0
   -1.2190   -1.6220    0.4180 C   0  0  0  0  0  0  0  0  0  0  0  0
   -2.3500   -1.2790    1.1370 O   0  0  0  0  0  0  0  0  0  0  0  0
   -1.0850    0.5130   -0.6620 O   0  0  0  0  0  0  0  0  0  0  0  0
   -1.2030    1.6710   -0.0500 O   0  0  0  0  0  0  0  0  0  0  0  0
   -2.3720    2.2050   -0.2970 O   0  0  0  0  0  0  0  0  0  0  0  0
  1  2  2  0
  2  3  1  0
  2  4  1  0
  4  5  1  0
  6  5  1  6
  6  7  1  0
  6  9  1  0
  7  8  1  0
  9 10  1  0
 10 11  1  0
M  END
