
     RDKit          3D

 17 18  0  0  0  0  0  0  0  0999 V2000
    2.9900   -1.8290    0.5420 C   0  0  0  0  0  0  0  0  0  0  0  0
    3.1750   -0.3930    0.7020 C   0  0  0  0  0  0  0  0  0  0  0  0
    4.3320    0.1250    1.1550 O   0  0  0  0  0  0  0  0  0  0  0  0
    4.2070    1.4240    1.1990 C   0  0  0  0  0  0  0  0  0  0  0  0
    2.9590    1.7940    0.7730 C   0  0  0  0  0  0  0  0  0  0  0  0
    2.3040    3.5760    0.6570 Br  0  0  0  0  0  0  0  0  0  0  0  0
    2.2800    0.5990    0.4450 C   0  0  0  0  0  0  0  0  0  0  0  0
    0.9800    0.6480   -0.0750 N   0  0  0  0  0  0  0  0  0  0  0  0
    0.2620   -0.3030   -0.8280 C   0  0  0  0  0  0  0  0  0  0  0  0
    0.8160   -1.3760   -1.1240 O   0  0  0  0  0  0  0  0  0  0  0  0
   -1.1560   -0.0410   -1.2760 C   0  0  1  0  0  0  0  0  0  0  0  0
   -1.5980   -1.2010   -2.0180 N   0  0  0  0  0  0  0  0  0  0  0  0
   -2.0500    0.1640   -0.0970 C   0  0  0  0  0  0  0  0  0  0  0  0
   -2.7640    1.2330    0.1910 C   0  0  0  0  0  0  0  0  0  0  0  0
   -3.5220    1.0390    1.4560 C   0  0  0  0  0  0  0  0  0  0  0  0
   -3.1310   -0.3160    1.8570 C   0  0  0  0  0  0  0  0  0  0  0  0
   -2.2920   -0.8050    0.9630 C   0  0  0  0  0  0  0  0  0  0  0  0
  1  2  1  0
  2  3  1  0
  2  7  2  0
  3  4  1  0
  4  5  2  0
  5  6  1  0
  5  7  1  0
  7  8  1  0
  8  9  1  0
  9 10  2  0
  9 11  1  0
 11 12  1  1
 11 13  1  0
 13 14  2  0
 13 17  1  0
 14 15  1  0
 15 16  1  0
 16 17  2  0
M  CHG  1  12   1
M  END
