
     RDKit          3D

 17 18  0  0  0  0  0  0  0  0999 V2000
    3.7910    0.1900   -1.4150 N   0  0  0  0  0  0  0  0  0  0  0  0
    3.7360   -0.6650   -0.2220 C   0  0  0  0  0  0  0  0  0  0  0  0
    3.3240    0.1040    0.9900 C   0  0  0  0  0  0  0  0  0  0  0  0
    1.9850    0.7520    0.9110 C   0  0  0  0  0  0  0  0  0  0  0  0
    0.8550   -0.1890    0.7130 C   0  0  0  0  0  0  0  0  0  0  0  0
    1.1190   -1.4170    0.6860 O   0  0  0  0  0  0  0  0  0  0  0  0
   -0.4690    0.2980    0.5620 N   0  0  0  0  0  0  0  0  0  0  0  0
   -0.9550    1.6580    0.5680 C   0  0  0  0  0  0  0  0  0  0  0  0
   -2.4720    1.6000    0.3210 C   0  0  0  0  0  0  0  0  0  0  0  0
   -2.5470    0.3020   -0.4440 C   0  0  2  0  0  0  0  0  0  0  0  0
   -3.8270   -0.2660   -0.7550 C   0  0  0  0  0  0  0  0  0  0  0  0
   -5.1580    0.7450   -1.7530 Br  0  0  0  0  0  0  0  0  0  0  0  0
   -4.1450   -1.4920   -0.3770 C   0  0  0  0  0  0  0  0  0  0  0  0
   -3.2460   -2.3480    0.3850 C   0  0  0  0  0  0  0  0  0  0  0  0
   -3.5630   -3.5160    0.7240 O   0  0  0  0  0  0  0  0  0  0  0  0
   -1.9570   -1.7560    0.7240 C   0  0  0  0  0  0  0  0  0  0  0  0
   -1.6360   -0.5460    0.3700 C   0  0  0  0  0  0  0  0  0  0  0  0
  1  2  1  0
  2  3  1  0
  3  4  1  0
  4  5  1  0
  5  6  2  0
  5  7  1  0
  7  8  1  0
  7 17  1  0
  8  9  1  0
 10  9  1  1
 10 11  1  0
 10 17  1  0
 11 12  1  0
 11 13  2  0
 13 14  1  0
 14 15  2  0
 14 16  1  0
 16 17  2  0
M  CHG  1   1   1
M  END
