
     RDKit          3D

 17 17  0  0  0  0  0  0  0  0999 V2000
   -3.7450   -1.1150    1.2530 C   0  0  0  0  0  0  0  0  0  0  0  0
   -2.2900   -1.0650    1.3150 C   0  0  0  0  0  0  0  0  0  0  0  0
   -1.4120   -0.9710    0.3550 C   0  0  0  0  0  0  0  0  0  0  0  0
   -0.0360   -0.9470    0.8370 N   0  0  0  0  0  0  0  0  0  0  0  0
    1.0960   -0.5240    0.0430 C   0  0  2  0  0  0  0  0  0  0  0  0
    2.3730   -0.6760    0.7080 C   0  0  0  0  0  0  0  0  0  0  0  0
    2.5270   -1.1010    1.9000 O   0  0  0  0  0  0  0  0  0  0  0  0
    3.5360   -0.3460    0.0240 O   0  0  0  0  0  0  0  0  0  0  0  0
    4.8200   -0.4570    0.5720 C   0  0  0  0  0  0  0  0  0  0  0  0
    0.7630    0.8880   -0.3580 C   0  0  0  0  0  0  0  0  0  0  0  0
    1.5320    1.8390    0.0990 C   0  0  0  0  0  0  0  0  0  0  0  0
    1.4850    3.2780   -0.0940 C   0  0  0  0  0  0  0  0  0  0  0  0
   -0.3740    1.1950   -1.2010 C   0  0  0  0  0  0  0  0  0  0  0  0
   -0.3670    2.9090   -2.0270 Br  0  0  0  0  0  0  0  0  0  0  0  0
   -1.4540    0.4930   -1.5350 C   0  0  0  0  0  0  0  0  0  0  0  0
   -1.7560   -0.8940   -1.0730 C   0  0  2  0  0  0  0  0  0  0  0  0
   -2.9840   -1.3930   -1.5210 N   0  0  0  0  0  0  0  0  0  0  0  0
  1  2  1  0
  2  3  2  3
  3  4  1  0
  3 16  1  0
  4  5  1  0
  5  6  1  1
  5 10  1  0
  6  7  2  0
  6  8  1  0
  8  9  1  0
 10 11  2  3
 10 13  1  0
 11 12  1  0
 13 14  1  0
 13 15  2  0
 15 16  1  0
 16 17  1  1
M  CHG  1  17   1
M  END
