
     RDKit          3D

 27 31  0  0  0  0  0  0  0  0999 V2000
   -5.8400   -1.7110   -0.4010 O   0  0  0  0  0  0  0  0  0  0  0  0
   -4.7680   -1.0150   -0.5620 C   0  0  0  0  0  0  0  0  0  0  0  0
   -3.5810   -1.7910   -0.9570 C   0  0  0  0  0  0  0  0  0  0  0  0
   -2.7840   -2.2100    0.2520 C   0  0  0  0  0  0  0  0  0  0  0  0
   -1.3930   -1.6050    0.2310 C   0  0  0  0  0  0  0  0  0  0  0  0
   -0.2840   -2.5610    0.4880 C   0  0  0  0  0  0  0  0  0  0  0  0
    1.0200   -1.9320    0.1620 C   0  0  0  0  0  0  0  0  0  0  0  0
    2.2780   -2.5310   -0.0170 C   0  0  0  0  0  0  0  0  0  0  0  0
    3.1310   -1.5490   -0.2880 N   0  0  0  0  0  0  0  0  0  0  0  0
    2.5410   -0.3620   -0.3010 N   0  0  0  0  0  0  0  0  0  0  0  0
    2.9450    0.9030   -0.5170 C   0  0  0  0  0  0  0  0  0  0  0  0
    4.3060    1.1810   -0.8060 N   0  0  0  0  0  0  0  0  0  0  0  0
    5.3170    0.1700   -0.8720 C   0  0  2  0  0  0  0  0  0  0  0  0
    5.7060   -0.6790    0.2670 C   0  0  0  0  0  0  0  0  0  0  0  0
    6.6570    0.3820   -0.2590 C   0  0  0  0  0  0  0  0  0  0  0  0
    2.0220    1.8840   -0.4450 N   0  0  0  0  0  0  0  0  0  0  0  0
    0.7490    1.6770   -0.1780 C   0  0  0  0  0  0  0  0  0  0  0  0
    0.3700    0.3730    0.0370 N   0  0  0  0  0  0  0  0  0  0  0  0
    1.2240   -0.6120   -0.0200 C   0  0  0  0  0  0  0  0  0  0  0  0
   -0.2740    2.6870   -0.1030 N   0  0  0  0  0  0  0  0  0  0  0  0
   -1.6920    2.4250    0.0750 C   0  0  0  0  0  0  0  0  0  0  0  0
   -2.1830    3.2590    1.1080 C   0  0  0  0  0  0  0  0  0  0  0  0
   -3.4610    3.1630    1.5890 C   0  0  0  0  0  0  0  0  0  0  0  0
   -4.2340    2.2030    1.0050 C   0  0  0  0  0  0  0  0  0  0  0  0
   -3.7860    1.3420   -0.0360 C   0  0  0  0  0  0  0  0  0  0  0  0
   -2.4940    1.4700   -0.5050 C   0  0  0  0  0  0  0  0  0  0  0  0
   -4.8150    0.4040   -0.3530 N   0  0  0  0  0  0  0  0  0  0  0  0
  1  2  2  0
  2  3  1  0
  2 27  1  0
  3  4  1  0
  4  5  1  0
  5  6  1  0
  6  7  1  0
  7  8  1  0
  7 19  2  0
  8  9  2  0
  9 10  1  0
 10 11  1  0
 10 19  1  0
 11 12  1  0
 11 16  2  0
 13 12  1  1
 13 14  1  0
 13 15  1  0
 14 15  1  0
 16 17  1  0
 17 18  2  0
 17 20  1  0
 18 19  1  0
 20 21  1  0
 21 22  1  0
 21 26  2  0
 22 23  2  0
 23 24  1  0
 24 25  2  0
 25 26  1  0
 25 27  1  0
M  END
