
     RDKit          3D

 17 17  0  0  0  0  0  0  0  0999 V2000
    4.4250   -0.8730    0.1540 C   0  0  0  0  0  0  0  0  0  0  0  0
    4.2400    0.2950   -0.7200 C   0  0  0  0  0  0  0  0  0  0  0  0
    5.2780    0.7030   -1.5280 O   0  0  0  0  0  0  0  0  0  0  0  0
    3.0530    0.9340   -0.7060 C   0  0  0  0  0  0  0  0  0  0  0  0
    2.9020    2.4250   -1.8620 Br  0  0  0  0  0  0  0  0  0  0  0  0
    2.0270    0.4610    0.1480 C   0  0  0  0  0  0  0  0  0  0  0  0
    0.8130    0.8070    0.4150 C   0  0  0  0  0  0  0  0  0  0  0  0
    0.0860    1.8920   -0.1450 C   0  0  0  0  0  0  0  0  0  0  0  0
    0.4030    2.7460   -0.9900 O   0  0  0  0  0  0  0  0  0  0  0  0
    0.0660    0.0120    1.4070 N   0  0  0  0  0  0  0  0  0  0  0  0
   -1.3160   -0.2130    1.1950 C   0  0  0  0  0  0  0  0  0  0  0  0
   -2.1940    0.1520    2.1120 C   0  0  0  0  0  0  0  0  0  0  0  0
   -3.6450   -0.0810    1.8980 C   0  0  0  0  0  0  0  0  0  0  0  0
   -4.0430    0.1780    0.4830 C   0  0  0  0  0  0  0  0  0  0  0  0
   -3.1540   -0.4540   -0.5310 C   0  0  0  0  0  0  0  0  0  0  0  0
   -1.8270   -0.8470   -0.0190 C   0  0  0  0  0  0  0  0  0  0  0  0
   -1.0880   -1.7390   -0.6100 N   0  0  0  0  0  0  0  0  0  0  0  0
  1  2  1  0
  2  3  1  0
  2  4  2  3
  4  5  1  0
  4  6  1  0
  6  7  2  3
  7  8  1  0
  7 10  1  0
  8  9  2  0
 10 11  1  0
 11 12  2  0
 11 16  1  0
 12 13  1  0
 13 14  1  0
 14 15  1  0
 15 16  1  0
 16 17  2  0
M  CHG  1  17   1
M  END
