
     RDKit          3D

 17 18  0  0  0  0  0  0  0  0999 V2000
    3.6100   -1.4730    0.7830 O   0  0  0  0  0  0  0  0  0  0  0  0
    3.6030   -0.6250   -0.3290 C   0  0  0  0  0  0  0  0  0  0  0  0
    3.0530    0.7040    0.1250 C   0  0  2  0  0  0  0  0  0  0  0  0
    1.7530    0.5270    0.9210 C   0  0  0  0  0  0  0  0  0  0  0  0
    0.6790    0.2900   -0.1250 C   0  0  1  0  0  0  0  0  0  0  0  0
   -0.4810   -0.3620    0.3240 N   0  0  0  0  0  0  0  0  0  0  0  0
   -0.3140   -1.7530    0.7990 C   0  0  0  0  0  0  0  0  0  0  0  0
   -1.6290   -2.4870    0.7510 C   0  0  0  0  0  0  0  0  0  0  0  0
   -2.5580   -1.9480   -0.3150 C   0  0  0  0  0  0  0  0  0  0  0  0
   -2.9330   -0.5770   -0.0100 N   0  0  0  0  0  0  0  0  0  0  0  0
   -1.7890    0.1920    0.3570 C   0  0  0  0  0  0  0  0  0  0  0  0
   -1.9450    1.4210    0.7390 C   0  0  0  0  0  0  0  0  0  0  0  0
   -3.2930    2.0270    0.7820 C   0  0  0  0  0  0  0  0  0  0  0  0
   -3.4090    3.5760   -0.3840 Br  0  0  0  0  0  0  0  0  0  0  0  0
    0.5760    1.5100   -0.9550 C   0  0  0  0  0  0  0  0  0  0  0  0
    1.9200    1.5640   -1.7320 C   0  0  0  0  0  0  0  0  0  0  0  0
    2.9800    1.6500   -0.8490 O   0  0  0  0  0  0  0  0  0  0  0  0
  1  2  1  0
  3  2  1  6
  3  4  1  0
  3 17  1  0
  4  5  1  0
  5  6  1  1
  5 15  1  0
  6  7  1  0
  6 11  1  0
  7  8  1  0
  8  9  1  0
  9 10  1  0
 10 11  1  0
 11 12  2  3
 12 13  1  0
 13 14  1  0
 15 16  1  0
 16 17  1  0
M  CHG  1  10   1
M  END
