
     RDKit          3D

 17 18  0  0  0  0  0  0  0  0999 V2000
   -0.6990    2.1400   -0.4050 C   0  0  0  0  0  0  0  0  0  0  0  0
   -1.2320    0.9010    0.2870 C   0  0  1  0  0  0  0  0  0  0  0  0
   -2.7830    1.1450    0.2650 C   0  0  0  0  0  0  0  0  0  0  0  0
   -3.4920    0.0820    0.9090 N   0  0  0  0  0  0  0  0  0  0  0  0
   -3.1380   -1.1750    0.3160 C   0  0  0  0  0  0  0  0  0  0  0  0
   -2.0580   -1.0490   -0.7170 C   0  0  0  0  0  0  0  0  0  0  0  0
   -0.9130   -0.3000   -0.2370 N   0  0  0  0  0  0  0  0  0  0  0  0
    0.2450   -0.8470   -0.7520 C   0  0  0  0  0  0  0  0  0  0  0  0
    1.5770   -0.4700   -0.3000 C   0  0  0  0  0  0  0  0  0  0  0  0
    2.3150    0.5500   -0.7090 C   0  0  0  0  0  0  0  0  0  0  0  0
    3.6000    0.7590   -0.3100 C   0  0  0  0  0  0  0  0  0  0  0  0
    4.6600    2.2340   -0.9090 Br  0  0  0  0  0  0  0  0  0  0  0  0
    4.2080   -0.1510    0.5610 C   0  0  0  0  0  0  0  0  0  0  0  0
    5.4780    0.0830    0.9750 O   0  0  0  0  0  0  0  0  0  0  0  0
    3.4850   -1.2740    1.0140 C   0  0  0  0  0  0  0  0  0  0  0  0
    2.1870   -1.3500    0.5440 C   0  0  0  0  0  0  0  0  0  0  0  0
    1.4750   -2.5260    0.9760 O   0  0  0  0  0  0  0  0  0  0  0  0
  2  1  1  6
  2  3  1  0
  2  7  1  0
  3  4  1  0
  4  5  1  0
  5  6  1  0
  6  7  1  0
  7  8  1  0
  8  9  1  0
  9 10  2  0
  9 16  1  0
 10 11  1  0
 11 12  1  0
 11 13  2  0
 13 14  1  0
 13 15  1  0
 15 16  2  0
 16 17  1  0
M  CHG  1   4   1
M  END
