
     RDKit          3D

 23 25  0  0  0  0  0  0  0  0999 V2000
   -6.8740    1.5220    0.0810 C   0  0  0  0  0  0  0  0  0  0  0  0
   -5.8720    1.9430    0.9840 O   0  0  0  0  0  0  0  0  0  0  0  0
   -4.6120    1.3610    0.9760 C   0  0  0  0  0  0  0  0  0  0  0  0
   -3.6660    1.8090    1.8800 C   0  0  0  0  0  0  0  0  0  0  0  0
   -2.3950    1.2590    1.9110 C   0  0  0  0  0  0  0  0  0  0  0  0
   -2.0510    0.2440    1.0300 C   0  0  0  0  0  0  0  0  0  0  0  0
   -0.7910   -0.3160    1.0460 C   0  0  0  0  0  0  0  0  0  0  0  0
    0.0470    0.1230    1.8890 O   0  0  0  0  0  0  0  0  0  0  0  0
   -0.4310   -1.3130    0.1910 N   0  0  0  0  0  0  0  0  0  0  0  0
    0.9050   -1.8150    0.3020 C   0  0  0  0  0  0  0  0  0  0  0  0
    1.8400   -1.0940   -0.5460 N   0  0  0  0  0  0  0  0  0  0  0  0
    3.1250   -1.5930   -0.4260 N   0  0  0  0  0  0  0  0  0  0  0  0
    4.2400   -0.7290   -0.6030 C   0  0  0  0  0  0  0  0  0  0  0  0
    5.5420   -1.1710   -0.4950 C   0  0  0  0  0  0  0  0  0  0  0  0
    6.6310   -0.3410   -0.6660 C   0  0  0  0  0  0  0  0  0  0  0  0
    6.4400    0.9950   -0.9580 C   0  0  0  0  0  0  0  0  0  0  0  0
    7.9200    2.1880   -1.2040 Br  0  0  0  0  0  0  0  0  0  0  0  0
    5.1380    1.4380   -1.0670 C   0  0  0  0  0  0  0  0  0  0  0  0
    4.0470    0.6030   -0.8950 C   0  0  0  0  0  0  0  0  0  0  0  0
   -1.3310   -1.7740   -0.7040 C   0  0  0  0  0  0  0  0  0  0  0  0
   -2.5970   -1.2200   -0.7290 C   0  0  0  0  0  0  0  0  0  0  0  0
   -2.9870   -0.2140    0.1210 C   0  0  0  0  0  0  0  0  0  0  0  0
   -4.2490    0.3510    0.1090 C   0  0  0  0  0  0  0  0  0  0  0  0
  1  2  1  0
  2  3  1  0
  3  4  2  0
  3 23  1  0
  4  5  1  0
  5  6  2  0
  6  7  1  0
  6 22  1  0
  7  8  2  0
  7  9  1  0
  9 10  1  0
  9 20  1  0
 10 11  1  0
 11 12  1  0
 12 13  1  0
 13 14  2  0
 13 19  1  0
 14 15  1  0
 15 16  2  0
 16 17  1  0
 16 18  1  0
 18 19  2  0
 20 21  2  0
 21 22  1  0
 22 23  2  0
M  END
