
     RDKit          3D

 23 25  0  0  0  0  0  0  0  0999 V2000
   -7.7660    1.2750    0.1330 N   0  0  0  0  0  0  0  0  0  0  0  0
   -6.4890    0.6830    0.2900 C   0  0  0  0  0  0  0  0  0  0  0  0
   -6.2790   -0.3970    1.1440 C   0  0  0  0  0  0  0  0  0  0  0  0
   -5.0340   -0.9560    1.2820 C   0  0  0  0  0  0  0  0  0  0  0  0
   -3.9480   -0.4560    0.5710 C   0  0  0  0  0  0  0  0  0  0  0  0
   -2.6800   -0.7720    0.4990 O   0  0  0  0  0  0  0  0  0  0  0  0
   -2.0440    0.0130   -0.3330 C   0  0  0  0  0  0  0  0  0  0  0  0
   -0.6220   -0.0340   -0.6740 C   0  0  0  0  0  0  0  0  0  0  0  0
   -0.0520    0.8460   -1.5680 C   0  0  0  0  0  0  0  0  0  0  0  0
    1.2950    0.7980   -1.8870 C   0  0  0  0  0  0  0  0  0  0  0  0
    2.0690   -0.1300   -1.3120 N   0  0  0  0  0  0  0  0  0  0  0  0
    1.5700   -1.0100   -0.4370 C   0  0  0  0  0  0  0  0  0  0  0  0
    2.3830   -1.9470    0.1280 O   0  0  0  0  0  0  0  0  0  0  0  0
    3.7180   -2.1440   -0.0390 C   0  0  0  0  0  0  0  0  0  0  0  0
    4.7070   -1.1500    0.4160 C   0  0  0  0  0  0  0  0  0  0  0  0
    4.6820    0.2330   -0.0850 C   0  0  0  0  0  0  0  0  0  0  0  0
    5.8840    0.9270    0.5560 C   0  0  0  0  0  0  0  0  0  0  0  0
    6.8450    1.4520   -0.1850 C   0  0  0  0  0  0  0  0  0  0  0  0
    6.7000    1.3250   -2.0970 Br  0  0  0  0  0  0  0  0  0  0  0  0
    0.2000   -0.9730   -0.1020 C   0  0  0  0  0  0  0  0  0  0  0  0
   -2.9560    0.8760   -0.8170 N   0  0  0  0  0  0  0  0  0  0  0  0
   -4.1730    0.6310   -0.2850 C   0  0  0  0  0  0  0  0  0  0  0  0
   -5.4240    1.1830   -0.4150 C   0  0  0  0  0  0  0  0  0  0  0  0
  1  2  1  0
  2  3  2  0
  2 23  1  0
  3  4  1  0
  4  5  2  0
  5  6  1  0
  5 22  1  0
  6  7  1  0
  7  8  1  0
  7 21  2  0
  8  9  2  0
  8 20  1  0
  9 10  1  0
 10 11  2  0
 11 12  1  0
 12 13  1  0
 12 20  2  0
 13 14  1  0
 14 15  1  0
 15 16  1  0
 16 17  1  0
 17 18  2  3
 18 19  1  0
 21 22  1  0
 22 23  2  0
M  END
