
     RDKit          3D

 23 24  0  0  0  0  0  0  0  0999 V2000
   -6.1220    0.9440    1.4700 C   0  0  0  0  0  0  0  0  0  0  0  0
   -4.6310    0.8990    1.1980 C   0  0  0  0  0  0  0  0  0  0  0  0
   -4.2340    0.1600    0.1990 C   0  0  0  0  0  0  0  0  0  0  0  0
   -5.2530   -0.5640   -0.5780 C   0  0  0  0  0  0  0  0  0  0  0  0
   -4.8520   -1.2980   -1.5820 C   0  0  0  0  0  0  0  0  0  0  0  0
   -3.4400   -1.4110   -1.9380 C   0  0  0  0  0  0  0  0  0  0  0  0
   -2.5110   -0.7550   -1.2330 C   0  0  0  0  0  0  0  0  0  0  0  0
   -2.8630    0.0700   -0.1210 N   0  0  0  0  0  0  0  0  0  0  0  0
   -1.8760    0.7730    0.6070 C   0  0  0  0  0  0  0  0  0  0  0  0
   -1.2170    1.9310   -0.0480 C   0  0  0  0  0  0  0  0  0  0  0  0
   -0.4520    1.6920   -1.2880 C   0  0  0  0  0  0  0  0  0  0  0  0
    0.6710    0.8040   -1.1840 N   0  0  0  0  0  0  0  0  0  0  0  0
    1.7950    1.0470   -0.3530 C   0  0  0  0  0  0  0  0  0  0  0  0
    1.7880    2.1110    0.3160 O   0  0  0  0  0  0  0  0  0  0  0  0
    2.9400    0.1370   -0.2410 C   0  0  0  0  0  0  0  0  0  0  0  0
    4.0840    0.3920    0.4640 C   0  0  0  0  0  0  0  0  0  0  0  0
    4.9170   -0.6950    0.3490 C   0  0  0  0  0  0  0  0  0  0  0  0
    6.1920   -0.8580    0.9150 O   0  0  0  0  0  0  0  0  0  0  0  0
    6.7270    0.1940    1.6980 C   0  0  0  0  0  0  0  0  0  0  0  0
    4.2690   -1.6230   -0.4370 C   0  0  0  0  0  0  0  0  0  0  0  0
    4.7960   -2.9700   -0.8260 C   0  0  0  0  0  0  0  0  0  0  0  0
    4.6230   -4.1470    0.7180 Br  0  0  0  0  0  0  0  0  0  0  0  0
    3.0830   -1.0850   -0.7720 N   0  0  0  0  0  0  0  0  0  0  0  0
  1  2  1  0
  2  3  2  3
  3  4  1  0
  3  8  1  0
  4  5  2  0
  5  6  1  0
  6  7  2  0
  7  8  1  0
  8  9  1  0
  9 10  1  0
 10 11  1  0
 11 12  1  0
 12 13  1  0
 13 14  2  0
 13 15  1  0
 15 16  2  0
 15 23  1  0
 16 17  1  0
 17 18  1  0
 17 20  2  0
 18 19  1  0
 20 21  1  0
 20 23  1  0
 21 22  1  0
M  END
