
     RDKit          3D

 23 24  0  0  0  0  0  0  0  0999 V2000
    7.2530   -0.0810   -2.6520 C   0  0  0  0  0  0  0  0  0  0  0  0
    6.5920    0.0300   -1.5230 C   0  0  0  0  0  0  0  0  0  0  0  0
    5.1630   -0.1390   -1.4920 C   0  0  0  0  0  0  0  0  0  0  0  0
    4.4150   -0.0460   -0.4060 C   0  0  0  0  0  0  0  0  0  0  0  0
    2.9810   -0.2290   -0.4540 C   0  0  0  0  0  0  0  0  0  0  0  0
    2.2100   -0.1340    0.6650 C   0  0  0  0  0  0  0  0  0  0  0  0
    0.7960   -0.3450    0.4350 C   0  0  0  0  0  0  0  0  0  0  0  0
    0.4100   -0.5890   -0.7880 O   0  0  0  0  0  0  0  0  0  0  0  0
   -0.2510   -0.3280    1.3570 N   0  0  0  0  0  0  0  0  0  0  0  0
   -1.6490   -0.5540    0.9770 C   0  0  0  0  0  0  0  0  0  0  0  0
   -2.1820    0.4500    0.0180 C   0  0  0  0  0  0  0  0  0  0  0  0
   -3.5830    0.1820   -0.3250 N   0  0  0  0  0  0  0  0  0  0  0  0
   -3.8680   -0.6730   -1.4600 C   0  0  0  0  0  0  0  0  0  0  0  0
   -5.3280   -0.9460   -1.5860 C   0  0  0  0  0  0  0  0  0  0  0  0
   -6.1400    0.3360   -1.5070 C   0  0  0  0  0  0  0  0  0  0  0  0
   -6.0500    0.8380   -0.0980 C   0  0  0  0  0  0  0  0  0  0  0  0
   -4.6640    0.7300    0.4120 C   0  0  0  0  0  0  0  0  0  0  0  0
   -4.4290    1.1500    1.5730 O   0  0  0  0  0  0  0  0  0  0  0  0
    2.8360    0.1570    1.9340 C   0  0  0  0  0  0  0  0  0  0  0  0
    2.0410    0.2830    3.1900 C   0  0  0  0  0  0  0  0  0  0  0  0
    4.1740    0.3360    2.0280 C   0  0  0  0  0  0  0  0  0  0  0  0
    4.9640    0.7200    3.7200 Br  0  0  0  0  0  0  0  0  0  0  0  0
    4.9770    0.2380    0.8660 N   0  0  0  0  0  0  0  0  0  0  0  0
  1  2  2  0
  2  3  1  0
  3  4  2  3
  4  5  1  0
  4 23  1  0
  5  6  2  0
  6  7  1  0
  6 19  1  0
  7  8  2  0
  7  9  1  0
  9 10  1  0
 10 11  1  0
 11 12  1  0
 12 13  1  0
 12 17  1  0
 13 14  1  0
 14 15  1  0
 15 16  1  0
 16 17  1  0
 17 18  2  0
 19 20  1  0
 19 21  2  0
 21 22  1  0
 21 23  1  0
M  END
