
     RDKit          3D

 23 25  0  0  0  0  0  0  0  0999 V2000
    6.5350   -0.9820   -0.0750 C   0  0  0  0  0  0  0  0  0  0  0  0
    6.3710    0.2250    0.5380 O   0  0  0  0  0  0  0  0  0  0  0  0
    5.1230    0.5790    0.9400 C   0  0  0  0  0  0  0  0  0  0  0  0
    4.0780    0.6690   -0.1400 C   0  0  2  0  0  0  0  0  0  0  0  0
    4.3750    1.5680   -1.1420 O   0  0  0  0  0  0  0  0  0  0  0  0
    2.6610    0.8730    0.4180 C   0  0  0  0  0  0  0  0  0  0  0  0
    2.2850   -0.3960   -0.0710 N   0  0  0  0  0  0  0  0  0  0  0  0
    1.2230   -0.5650   -0.9850 C   0  0  0  0  0  0  0  0  0  0  0  0
   -0.1130   -0.1950   -0.5640 C   0  0  0  0  0  0  0  0  0  0  0  0
   -0.3790    0.3120    0.6810 C   0  0  0  0  0  0  0  0  0  0  0  0
   -1.6690    0.6490    1.0530 C   0  0  0  0  0  0  0  0  0  0  0  0
   -2.7260    0.4880    0.1940 C   0  0  0  0  0  0  0  0  0  0  0  0
   -4.0980    0.8680    0.5910 C   0  0  0  0  0  0  0  0  0  0  0  0
   -5.0700   -0.0260    0.4290 C   0  0  0  0  0  0  0  0  0  0  0  0
   -5.0110   -1.3780   -0.0950 C   0  0  0  0  0  0  0  0  0  0  0  0
   -6.2210   -1.8950   -0.0640 C   0  0  0  0  0  0  0  0  0  0  0  0
   -7.1540   -0.9790    0.4580 N   0  0  0  0  0  0  0  0  0  0  0  0
   -6.4830    0.2170    0.7850 C   0  0  0  0  0  0  0  0  0  0  0  0
   -6.9800    1.3180    1.2780 N   0  0  0  0  0  0  0  0  0  0  0  0
   -2.4720   -0.0200   -1.0630 C   0  0  0  0  0  0  0  0  0  0  0  0
   -1.1780   -0.3530   -1.4230 C   0  0  0  0  0  0  0  0  0  0  0  0
   -0.9230   -1.0490   -3.1850 Br  0  0  0  0  0  0  0  0  0  0  0  0
    3.5930   -0.6800   -0.5650 C   0  0  0  0  0  0  0  0  0  0  0  0
  1  2  1  0
  2  3  1  0
  3  4  1  0
  4  5  1  6
  4  6  1  0
  4 23  1  0
  6  7  1  0
  7  8  1  0
  7 23  1  0
  8  9  1  0
  9 10  2  0
  9 21  1  0
 10 11  1  0
 11 12  2  0
 12 13  1  0
 12 20  1  0
 13 14  2  3
 14 15  1  0
 14 18  1  0
 15 16  2  0
 16 17  1  0
 17 18  1  0
 18 19  2  0
 20 21  2  0
 21 22  1  0
M  END
