
     RDKit          3D

 15 14  0  0  0  0  0  0  0  0999 V2000
   -3.1850    0.7880   -0.9180 C   0  0  0  0  0  0  0  0  0  0  0  0
   -2.0650    0.0190   -0.2580 C   0  0  2  0  0  0  0  0  0  0  0  0
   -2.2270   -1.4350   -0.6510 C   0  0  0  0  0  0  0  0  0  0  0  0
   -2.2150    0.0940    1.2430 C   0  0  0  0  0  0  0  0  0  0  0  0
   -2.1740    1.3890    1.7270 O   0  0  0  0  0  0  0  0  0  0  0  0
   -0.7060    0.5520   -0.7000 C   0  0  1  0  0  0  0  0  0  0  0  0
   -0.6230    1.8730   -0.3410 O   0  0  0  0  0  0  0  0  0  0  0  0
    0.3950   -0.2750   -0.1670 C   0  0  0  0  0  0  0  0  0  0  0  0
    0.4390   -1.5030   -0.4210 O   0  0  0  0  0  0  0  0  0  0  0  0
    1.4390    0.2500    0.6390 N   0  0  0  0  0  0  0  0  0  0  0  0
    2.5120   -0.5350    1.1640 C   0  0  0  0  0  0  0  0  0  0  0  0
    3.3510   -1.2050    0.1100 C   0  0  0  0  0  0  0  0  0  0  0  0
    3.9620   -0.1740   -0.7860 C   0  0  0  0  0  0  0  0  0  0  0  0
    4.7050   -0.4920   -1.7420 O   0  0  0  0  0  0  0  0  0  0  0  0
    3.7240    1.1860   -0.5870 O   0  0  0  0  0  0  0  0  0  0  0  0
  2  1  1  6
  2  3  1  0
  2  4  1  0
  2  6  1  0
  4  5  1  0
  6  7  1  1
  6  8  1  0
  8  9  2  0
  8 10  1  0
 10 11  1  0
 11 12  1  0
 12 13  1  0
 13 14  2  0
 13 15  1  0
M  END
