
     RDKit          3D

 27 28  0  0  0  0  0  0  0  0999 V2000
    4.3300   -0.8730    0.5040 C   0  0  0  0  0  0  0  0  0  0  0  0
    4.3700    0.2000   -0.5680 C   0  0  1  0  0  0  0  0  0  0  0  0
    5.3690   -0.2280   -1.5990 C   0  0  0  0  0  0  0  0  0  0  0  0
    6.6310   -0.3690   -0.9910 O   0  0  0  0  0  0  0  0  0  0  0  0
    7.3350    0.6390   -0.3650 C   0  0  0  0  0  0  0  0  0  0  0  0
    6.8480    1.7860   -0.3140 O   0  0  0  0  0  0  0  0  0  0  0  0
    8.5820    0.4290    0.2200 O   0  0  0  0  0  0  0  0  0  0  0  0
    3.0300    0.3210   -1.2100 C   0  0  0  0  0  0  0  0  0  0  0  0
    2.8640    0.1260   -2.4370 O   0  0  0  0  0  0  0  0  0  0  0  0
    1.9460    0.6560   -0.4330 O   0  0  0  0  0  0  0  0  0  0  0  0
    0.6330    0.8020   -0.9100 C   0  0  0  0  0  0  0  0  0  0  0  0
    0.0760   -0.4500   -1.5350 C   0  0  0  0  0  0  0  0  0  0  0  0
    0.0430   -1.5290   -0.6100 O   0  0  0  0  0  0  0  0  0  0  0  0
   -0.7170   -1.3520    0.5360 C   0  0  0  0  0  0  0  0  0  0  0  0
   -1.7240   -0.5500    0.4930 N   0  0  0  0  0  0  0  0  0  0  0  0
   -2.5470   -0.3220    1.6300 C   0  0  0  0  0  0  0  0  0  0  0  0
   -2.1300   -0.3730    2.9590 C   0  0  0  0  0  0  0  0  0  0  0  0
   -3.2260   -0.0950    3.6850 N   0  0  0  0  0  0  0  0  0  0  0  0
   -4.2500    0.1140    2.8590 C   0  0  0  0  0  0  0  0  0  0  0  0
   -5.4210    0.3970    3.2330 O   0  0  0  0  0  0  0  0  0  0  0  0
   -3.8540   -0.0210    1.5780 N   0  0  0  0  0  0  0  0  0  0  0  0
   -4.6400    0.1210    0.3920 C   0  0  0  0  0  0  0  0  0  0  0  0
   -5.2170   -0.9540   -0.2520 C   0  0  0  0  0  0  0  0  0  0  0  0
   -5.9740   -0.7990   -1.3970 C   0  0  0  0  0  0  0  0  0  0  0  0
   -6.1820    0.4500   -1.9440 C   0  0  0  0  0  0  0  0  0  0  0  0
   -5.6070    1.5290   -1.3060 C   0  0  0  0  0  0  0  0  0  0  0  0
   -4.8520    1.3670   -0.1610 C   0  0  0  0  0  0  0  0  0  0  0  0
  2  1  1  1
  2  3  1  0
  2  8  1  0
  3  4  1  0
  4  5  1  0
  5  6  2  0
  5  7  1  0
  8  9  2  0
  8 10  1  0
 10 11  1  0
 11 12  1  0
 12 13  1  0
 13 14  1  0
 14 15  2  3
 15 16  1  0
 16 17  2  0
 16 21  1  0
 17 18  1  0
 18 19  1  0
 19 20  2  0
 19 21  1  0
 21 22  1  0
 22 23  2  0
 22 27  1  0
 23 24  1  0
 24 25  2  0
 25 26  1  0
 26 27  2  0
M  END
