
     RDKit          3D

 27 29  0  0  0  0  0  0  0  0999 V2000
   -6.2870   -1.4960   -1.4840 N   0  0  0  0  0  0  0  0  0  0  0  0
   -5.4450   -0.3810   -1.2900 C   0  0  0  0  0  0  0  0  0  0  0  0
   -5.6190    0.7870   -1.9720 N   0  0  0  0  0  0  0  0  0  0  0  0
   -4.8180    1.8480   -1.7870 C   0  0  0  0  0  0  0  0  0  0  0  0
   -3.7880    1.8000   -0.9010 N   0  0  0  0  0  0  0  0  0  0  0  0
   -3.5580    0.6910   -0.1990 C   0  0  0  0  0  0  0  0  0  0  0  0
   -4.3850   -0.3930   -0.3940 C   0  0  0  0  0  0  0  0  0  0  0  0
   -3.9860   -1.4050    0.4050 N   0  0  0  0  0  0  0  0  0  0  0  0
   -2.9210   -0.9470    1.0870 C   0  0  0  0  0  0  0  0  0  0  0  0
   -2.6470    0.3240    0.7330 N   0  0  0  0  0  0  0  0  0  0  0  0
   -1.5840    1.1920    1.2260 C   0  0  2  0  0  0  0  0  0  0  0  0
   -0.5620    1.2090    0.3080 O   0  0  0  0  0  0  0  0  0  0  0  0
    0.6200    0.9420    0.9440 C   0  0  2  0  0  0  0  0  0  0  0  0
    1.6640    0.3500    0.0430 C   0  0  0  0  0  0  0  0  0  0  0  0
    2.8490    0.0840    0.6880 O   0  0  0  0  0  0  0  0  0  0  0  0
    4.0040   -0.5750   -0.3270 P   0  0  2  0  0  0  0  0  0  0  0  0
    3.7050   -2.0700   -0.4680 O   0  0  0  0  0  0  0  0  0  0  0  0
    5.5600   -0.4000    0.3310 O   0  0  0  0  0  0  0  0  0  0  0  0
    3.9580    0.0750   -1.8740 O   0  0  0  0  0  0  0  0  0  0  0  0
    5.4970    0.3680   -2.5010 P   0  0  2  0  0  0  0  0  0  0  0  0
    5.4270    1.7230   -3.2030 O   0  0  0  0  0  0  0  0  0  0  0  0
    5.9240   -0.7590   -3.6870 O   0  0  0  0  0  0  0  0  0  0  0  0
    6.6740    0.4720   -1.3140 O   0  0  0  0  0  0  0  0  0  0  0  0
    0.1970   -0.0520    2.0310 C   0  0  1  0  0  0  0  0  0  0  0  0
    1.1640   -0.1870    3.0090 O   0  0  0  0  0  0  0  0  0  0  0  0
   -1.0290    0.6900    2.5300 C   0  0  1  0  0  0  0  0  0  0  0  0
   -0.5600    1.7500    3.3140 O   0  0  0  0  0  0  0  0  0  0  0  0
  1  2  1  0
  2  3  2  0
  2  7  1  0
  3  4  1  0
  4  5  2  0
  5  6  1  0
  6  7  2  0
  6 10  1  0
  7  8  1  0
  8  9  2  0
  9 10  1  0
 11 10  1  6
 11 12  1  0
 11 26  1  0
 12 13  1  0
 13 14  1  6
 13 24  1  0
 14 15  1  0
 15 16  1  0
 16 17  2  0
 16 18  1  1
 16 19  1  0
 19 20  1  0
 20 21  2  0
 20 22  1  6
 20 23  1  0
 24 25  1  1
 24 26  1  0
 26 27  1  1
M  END
