
     RDKit          3D

 27 27  0  0  0  0  0  0  0  0999 V2000
   -3.0750   -1.0690    0.9800 C   0  0  0  0  0  0  0  0  0  0  0  0
   -2.7950   -0.7030   -0.2790 C   0  0  0  0  0  0  0  0  0  0  0  0
   -3.6020   -1.2350   -1.3350 C   0  0  0  0  0  0  0  0  0  0  0  0
   -3.4510   -0.9700   -2.5880 C   0  0  0  0  0  0  0  0  0  0  0  0
   -4.3050   -1.5530   -3.5330 O   0  0  0  0  0  0  0  0  0  0  0  0
   -1.6920    0.2020   -0.4530 C   0  0  0  0  0  0  0  0  0  0  0  0
   -1.3430    0.6080   -1.5730 O   0  0  0  0  0  0  0  0  0  0  0  0
   -0.9630    0.6610    0.6550 O   0  0  0  0  0  0  0  0  0  0  0  0
    0.0960    1.5260    0.5090 C   0  0  0  0  0  0  0  0  0  0  0  0
   -0.1070    2.9440    0.5500 C   0  0  0  0  0  0  0  0  0  0  0  0
   -1.2010    3.5790    0.7150 N   0  0  0  0  0  0  0  0  0  0  0  0
   -2.5100    3.0440    0.9020 C   0  0  0  0  0  0  0  0  0  0  0  0
   -3.4310    4.0450    1.5440 C   0  0  0  0  0  0  0  0  0  0  0  0
   -2.9750    5.1830    1.8200 O   0  0  0  0  0  0  0  0  0  0  0  0
   -4.7380    3.7700    1.8380 O   0  0  0  0  0  0  0  0  0  0  0  0
    1.3010    1.0190    0.3300 C   0  0  0  0  0  0  0  0  0  0  0  0
    1.4840   -0.4180    0.2910 C   0  0  0  0  0  0  0  0  0  0  0  0
    2.5750   -1.0920    0.1280 C   0  0  0  0  0  0  0  0  0  0  0  0
    2.6720   -2.5020    0.1010 N   0  0  0  0  0  0  0  0  0  0  0  0
    1.6390   -3.4420    0.2550 C   0  0  0  0  0  0  0  0  0  0  0  0
    1.9190   -4.8620    0.1990 N   0  0  0  0  0  0  0  0  0  0  0  0
    0.4810   -3.0870    0.4400 O   0  0  0  0  0  0  0  0  0  0  0  0
    3.8670   -0.3910   -0.0470 C   0  0  0  0  0  0  0  0  0  0  0  0
    5.1210   -0.9590   -0.2290 C   0  0  0  0  0  0  0  0  0  0  0  0
    6.0060    0.0880   -0.3430 C   0  0  0  0  0  0  0  0  0  0  0  0
    5.2440    1.2410   -0.2250 C   0  0  0  0  0  0  0  0  0  0  0  0
    3.9920    0.9050   -0.0520 O   0  0  0  0  0  0  0  0  0  0  0  0
  1  2  2  0
  2  3  1  0
  2  6  1  0
  3  4  2  3
  4  5  1  0
  6  7  2  0
  6  8  1  0
  8  9  1  0
  9 10  1  0
  9 16  2  3
 10 11  2  3
 11 12  1  0
 12 13  1  0
 13 14  2  0
 13 15  1  0
 16 17  1  0
 17 18  2  3
 18 19  1  0
 18 23  1  0
 19 20  1  0
 20 21  1  0
 20 22  2  0
 23 24  2  0
 23 27  1  0
 24 25  1  0
 25 26  2  0
 26 27  1  0
M  END
