
     RDKit          3D

 27 28  0  0  0  0  0  0  0  0999 V2000
    5.6780    2.6070    0.4440 C   0  0  0  0  0  0  0  0  0  0  0  0
    4.9840    1.3770    0.2220 N   0  0  0  0  0  0  0  0  0  0  0  0
    3.7080    1.2830   -0.4120 C   0  0  0  0  0  0  0  0  0  0  0  0
    3.1890    2.3550   -0.7870 O   0  0  0  0  0  0  0  0  0  0  0  0
    3.0270   -0.0200   -0.6200 C   0  0  0  0  0  0  0  0  0  0  0  0
    1.7340    0.2290   -1.3300 C   0  0  0  0  0  0  0  0  0  0  0  0
    0.9580   -1.0420   -1.5890 C   0  0  0  0  0  0  0  0  0  0  0  0
    0.6150   -1.7390   -0.3830 N   0  0  0  0  0  0  0  0  0  0  0  0
   -0.5740   -1.4960    0.3080 C   0  0  0  0  0  0  0  0  0  0  0  0
   -0.8760   -2.1200    1.3450 O   0  0  0  0  0  0  0  0  0  0  0  0
   -1.4800   -0.4980   -0.1850 N   0  0  0  0  0  0  0  0  0  0  0  0
   -2.7080   -0.2350    0.5060 C   0  0  0  0  0  0  0  0  0  0  0  0
   -2.8950   -0.9320    1.5370 O   0  0  0  0  0  0  0  0  0  0  0  0
   -3.6490    0.7640    0.0360 C   0  0  0  0  0  0  0  0  0  0  0  0
   -3.3710    1.4530   -1.0620 C   0  0  0  0  0  0  0  0  0  0  0  0
   -4.2920    2.4490   -1.5470 C   0  0  0  0  0  0  0  0  0  0  0  0
   -5.4190    2.7050   -0.9280 C   0  0  0  0  0  0  0  0  0  0  0  0
   -5.7660    2.0280    0.2130 O   0  0  0  0  0  0  0  0  0  0  0  0
   -4.8980    1.0440    0.7260 C   0  0  0  0  0  0  0  0  0  0  0  0
   -5.2640    0.4270    1.8080 C   0  0  0  0  0  0  0  0  0  0  0  0
   -6.4860    0.7590    2.4090 O   0  0  0  0  0  0  0  0  0  0  0  0
   -6.6560    1.9640    2.9810 O   0  0  0  0  0  0  0  0  0  0  0  0
    1.5210   -2.7090    0.1160 C   0  0  0  0  0  0  0  0  0  0  0  0
    2.2990   -3.5510   -0.6840 C   0  0  0  0  0  0  0  0  0  0  0  0
    3.0490   -4.3510    0.1370 C   0  0  0  0  0  0  0  0  0  0  0  0
    2.7120   -3.9820    1.4160 C   0  0  0  0  0  0  0  0  0  0  0  0
    1.8140   -3.0170    1.3530 O   0  0  0  0  0  0  0  0  0  0  0  0
  1  2  1  0
  2  3  1  0
  3  4  2  0
  3  5  1  0
  5  6  1  0
  6  7  1  0
  7  8  1  0
  8  9  1  0
  8 23  1  0
  9 10  2  0
  9 11  1  0
 11 12  1  0
 12 13  2  0
 12 14  1  0
 14 15  2  0
 14 19  1  0
 15 16  1  0
 16 17  2  0
 17 18  1  0
 18 19  1  0
 19 20  2  3
 20 21  1  0
 21 22  1  0
 23 24  2  0
 23 27  1  0
 24 25  1  0
 25 26  2  0
 26 27  1  0
M  END
