
     RDKit          3D

 27 28  0  0  0  0  0  0  0  0999 V2000
   -5.4740   -2.0340   -0.6390 O   0  0  0  0  0  0  0  0  0  0  0  0
   -4.6650   -2.8710   -0.1250 C   0  0  0  0  0  0  0  0  0  0  0  0
   -3.4170   -2.3950    0.3260 N   0  0  0  0  0  0  0  0  0  0  0  0
   -3.0640   -0.9740    0.2050 C   0  0  1  0  0  0  0  0  0  0  0  0
   -2.8770   -0.4120    1.6150 C   0  0  0  0  0  0  0  0  0  0  0  0
   -1.8750   -1.1320    2.2860 O   0  0  0  0  0  0  0  0  0  0  0  0
   -1.8380   -0.7630   -0.5370 C   0  0  0  0  0  0  0  0  0  0  0  0
   -1.2580   -1.9170   -0.8460 O   0  0  0  0  0  0  0  0  0  0  0  0
   -1.1350    0.3380   -0.9930 N   0  0  0  0  0  0  0  0  0  0  0  0
    0.1730   -0.1040   -1.6760 C   0  0  0  0  0  0  0  0  0  0  0  0
    1.2300   -0.1570   -0.6570 C   0  0  0  0  0  0  0  0  0  0  0  0
    0.9510    0.1360    0.5210 O   0  0  0  0  0  0  0  0  0  0  0  0
    2.5350   -0.5350   -1.0210 N   0  0  0  0  0  0  0  0  0  0  0  0
    3.6690   -0.6400   -0.1890 C   0  0  0  0  0  0  0  0  0  0  0  0
    3.6680   -0.2480    1.1190 C   0  0  0  0  0  0  0  0  0  0  0  0
    4.8390   -0.3980    1.8830 C   0  0  0  0  0  0  0  0  0  0  0  0
    5.9770   -0.9310    1.3310 C   0  0  0  0  0  0  0  0  0  0  0  0
    5.9510   -1.3190    0.0070 C   0  0  0  0  0  0  0  0  0  0  0  0
    7.0920   -1.8550   -0.5500 O   0  0  0  0  0  0  0  0  0  0  0  0
    4.8310   -1.1840   -0.7530 C   0  0  0  0  0  0  0  0  0  0  0  0
   -1.2880    1.7130   -0.9850 C   0  0  0  0  0  0  0  0  0  0  0  0
   -0.2070    2.3050   -1.5170 O   0  0  0  0  0  0  0  0  0  0  0  0
   -2.2850    2.6580   -0.5650 C   0  0  0  0  0  0  0  0  0  0  0  0
   -2.0570    4.0440   -0.6000 C   0  0  0  0  0  0  0  0  0  0  0  0
   -3.2080    4.6490   -0.1770 C   0  0  0  0  0  0  0  0  0  0  0  0
   -4.0720    3.7310    0.0950 O   0  0  0  0  0  0  0  0  0  0  0  0
   -3.5740    2.5350   -0.1180 C   0  0  0  0  0  0  0  0  0  0  0  0
  1  2  2  0
  2  3  1  0
  3  4  1  0
  4  5  1  1
  4  7  1  0
  5  6  1  0
  7  8  2  0
  7  9  1  0
  9 10  1  0
  9 21  1  0
 10 11  1  0
 11 12  2  0
 11 13  1  0
 13 14  1  0
 14 15  2  0
 14 20  1  0
 15 16  1  0
 16 17  2  0
 17 18  1  0
 18 19  1  0
 18 20  2  0
 21 22  2  0
 21 23  1  0
 23 24  1  0
 23 27  2  0
 24 25  2  0
 25 26  1  0
 26 27  1  0
M  END
