
     RDKit          3D

 27 28  0  0  0  0  0  0  0  0999 V2000
    2.2590    2.2550   -0.0620 C   0  0  0  0  0  0  0  0  0  0  0  0
    2.4040    0.7170   -0.1430 C   0  0  1  0  0  0  0  0  0  0  0  0
    3.0140    0.3900   -1.5220 C   0  0  0  0  0  0  0  0  0  0  0  0
    4.2050    1.0690   -1.7800 N   0  0  0  0  0  0  0  0  0  0  0  0
    5.3490    0.7560   -1.0460 C   0  0  0  0  0  0  0  0  0  0  0  0
    5.9230   -0.6080   -1.2990 C   0  0  0  0  0  0  0  0  0  0  0  0
    5.0460   -1.6270   -1.0000 O   0  0  0  0  0  0  0  0  0  0  0  0
    5.5770   -2.7870   -1.2310 O   0  0  0  0  0  0  0  0  0  0  0  0
    3.2700    0.3490    0.7930 O   0  0  0  0  0  0  0  0  0  0  0  0
    3.0710   -0.5560    1.7450 C   0  0  0  0  0  0  0  0  0  0  0  0
    2.0270   -0.2090    2.7500 C   0  0  0  0  0  0  0  0  0  0  0  0
    0.6940   -0.0600    2.1530 C   0  0  0  0  0  0  0  0  0  0  0  0
    0.1430    1.0870    2.0090 O   0  0  0  0  0  0  0  0  0  0  0  0
   -0.0610   -1.1370    1.7090 O   0  0  0  0  0  0  0  0  0  0  0  0
   -1.3250   -0.8920    1.1630 C   0  0  0  0  0  0  0  0  0  0  0  0
   -1.5360   -0.6950   -0.1240 C   0  0  0  0  0  0  0  0  0  0  0  0
   -2.8060   -0.4620   -0.5710 O   0  0  0  0  0  0  0  0  0  0  0  0
   -3.9300   -0.4120    0.2350 C   0  0  0  0  0  0  0  0  0  0  0  0
   -5.2650   -0.1600   -0.2900 C   0  0  0  0  0  0  0  0  0  0  0  0
   -6.3330   -0.1260    0.5810 C   0  0  0  0  0  0  0  0  0  0  0  0
   -7.6080    0.1150    0.0710 C   0  0  0  0  0  0  0  0  0  0  0  0
   -7.7800    0.3150   -1.2820 C   0  0  0  0  0  0  0  0  0  0  0  0
   -9.0260    0.5590   -1.8360 O   0  0  0  0  0  0  0  0  0  0  0  0
   -6.6740    0.2730   -2.1300 C   0  0  0  0  0  0  0  0  0  0  0  0
   -5.4250    0.0360   -1.6250 C   0  0  0  0  0  0  0  0  0  0  0  0
   -3.7230   -0.6060    1.5070 N   0  0  0  0  0  0  0  0  0  0  0  0
   -2.4650   -0.8480    2.0320 N   0  0  0  0  0  0  0  0  0  0  0  0
  2  1  1  6
  2  3  1  0
  2  9  1  0
  3  4  1  0
  4  5  1  0
  5  6  1  0
  6  7  1  0
  7  8  1  0
  9 10  1  0
 10 11  1  0
 11 12  1  0
 12 13  2  0
 12 14  1  0
 14 15  1  0
 15 16  2  0
 15 27  1  0
 16 17  1  0
 17 18  1  0
 18 19  1  0
 18 26  2  0
 19 20  2  0
 19 25  1  0
 20 21  1  0
 21 22  2  0
 22 23  1  0
 22 24  1  0
 24 25  2  0
 26 27  1  0
M  END
