
     RDKit          3D

 27 27  0  0  0  0  0  0  0  0999 V2000
   -3.6310   -4.2030   -3.6520 C   0  0  0  0  0  0  0  0  0  0  0  0
   -2.9230   -3.0970   -3.1510 O   0  0  0  0  0  0  0  0  0  0  0  0
   -3.0930   -2.7130   -1.8180 C   0  0  0  0  0  0  0  0  0  0  0  0
   -3.8760   -3.3910   -1.1510 O   0  0  0  0  0  0  0  0  0  0  0  0
   -2.3560   -1.5530   -1.2740 C   0  0  0  0  0  0  0  0  0  0  0  0
   -1.5290   -0.8860   -2.1120 C   0  0  0  0  0  0  0  0  0  0  0  0
   -0.6750    0.2850   -1.8280 C   0  0  0  0  0  0  0  0  0  0  0  0
   -1.3490    1.4790   -2.3530 O   0  0  0  0  0  0  0  0  0  0  0  0
   -1.4100    1.4710   -3.7170 O   0  0  0  0  0  0  0  0  0  0  0  0
    0.4830    0.4550   -1.2520 C   0  0  0  0  0  0  0  0  0  0  0  0
    1.4090    1.5220   -0.9000 C   0  0  0  0  0  0  0  0  0  0  0  0
    1.4580    2.2710    0.2290 C   0  0  0  0  0  0  0  0  0  0  0  0
    0.5480    2.1210    1.3760 C   0  0  0  0  0  0  0  0  0  0  0  0
   -0.2020    3.1310    1.7440 C   0  0  0  0  0  0  0  0  0  0  0  0
   -0.1820    4.4550    1.0460 C   0  0  0  0  0  0  0  0  0  0  0  0
    0.1960    5.4740    1.9400 O   0  0  0  0  0  0  0  0  0  0  0  0
    0.4600    0.9220    2.1850 N   0  0  0  0  0  0  0  0  0  0  0  0
    0.3500   -0.4300    1.8160 C   0  0  0  0  0  0  0  0  0  0  0  0
    1.5610   -1.3470    2.0620 C   0  0  2  0  0  0  0  0  0  0  0  0
    1.5800   -1.4570    3.5510 N   0  0  0  0  0  0  0  0  0  0  0  0
    2.8380   -0.8900    1.6600 C   0  0  0  0  0  0  0  0  0  0  0  0
    3.7070   -0.5180    2.5290 O   0  0  0  0  0  0  0  0  0  0  0  0
    3.2840   -0.7970    0.3530 O   0  0  0  0  0  0  0  0  0  0  0  0
    4.5560   -0.3420    0.0000 C   0  0  0  0  0  0  0  0  0  0  0  0
   -0.7390   -0.9530    1.4500 N   0  0  0  0  0  0  0  0  0  0  0  0
   -2.0380   -0.9300    1.1850 C   0  0  0  0  0  0  0  0  0  0  0  0
   -2.6950   -1.1720    0.0910 C   0  0  0  0  0  0  0  0  0  0  0  0
  1  2  1  0
  2  3  1  0
  3  4  2  0
  3  5  1  0
  5  6  2  0
  5 27  1  0
  6  7  1  0
  7  8  1  0
  7 10  2  0
  8  9  1  0
 10 11  1  0
 11 12  2  0
 12 13  1  0
 13 14  2  3
 13 17  1  0
 14 15  1  0
 15 16  1  0
 17 18  1  0
 18 19  1  0
 18 25  2  0
 19 20  1  1
 19 21  1  0
 21 22  2  0
 21 23  1  0
 23 24  1  0
 25 26  1  0
 26 27  2  0
M  END
