
     RDKit          3D

 27 28  0  0  0  0  0  0  0  0999 V2000
    6.2570   -0.6790   -0.9870 O   0  0  0  0  0  0  0  0  0  0  0  0
    6.3790   -1.9300   -1.1170 C   0  0  0  0  0  0  0  0  0  0  0  0
    5.3220   -2.6410   -1.6250 O   0  0  0  0  0  0  0  0  0  0  0  0
    4.0940   -2.0660   -2.0160 C   0  0  0  0  0  0  0  0  0  0  0  0
    3.3830   -1.3570   -0.8750 C   0  0  0  0  0  0  0  0  0  0  0  0
    2.1040   -0.8020   -1.4450 C   0  0  0  0  0  0  0  0  0  0  0  0
    1.2990   -0.1040   -0.5240 N   0  0  0  0  0  0  0  0  0  0  0  0
    1.4150    1.3420   -0.2840 C   0  0  0  0  0  0  0  0  0  0  0  0
    2.1140    2.0130   -1.0840 O   0  0  0  0  0  0  0  0  0  0  0  0
    0.8130    2.0740    0.7740 N   0  0  0  0  0  0  0  0  0  0  0  0
   -0.5380    2.4380    1.1080 C   0  0  0  0  0  0  0  0  0  0  0  0
   -0.9620    1.9450    2.4260 C   0  0  0  0  0  0  0  0  0  0  0  0
   -1.7020    0.8770    2.6540 O   0  0  0  0  0  0  0  0  0  0  0  0
   -3.0120    0.6960    2.7120 C   0  0  0  0  0  0  0  0  0  0  0  0
   -3.3020   -0.8590    2.9440 C   0  0  0  0  0  0  0  0  0  0  0  0
   -1.9250   -1.4220    2.9010 C   0  0  0  0  0  0  0  0  0  0  0  0
   -1.0630   -1.2520    1.8790 C   0  0  0  0  0  0  0  0  0  0  0  0
    0.1310   -1.8570    2.1780 O   0  0  0  0  0  0  0  0  0  0  0  0
    0.9490   -1.6450    1.2760 N   0  0  0  0  0  0  0  0  0  0  0  0
    0.3340   -0.8700    0.2990 C   0  0  0  0  0  0  0  0  0  0  0  0
   -0.9750   -0.6380    0.6450 C   0  0  0  0  0  0  0  0  0  0  0  0
   -2.0410   -0.2360   -0.1680 C   0  0  0  0  0  0  0  0  0  0  0  0
   -2.1150    0.3920   -1.4380 C   0  0  0  0  0  0  0  0  0  0  0  0
   -3.3770    0.6160   -1.8910 C   0  0  0  0  0  0  0  0  0  0  0  0
   -4.4380    0.2280   -1.1040 O   0  0  0  0  0  0  0  0  0  0  0  0
   -1.0770    0.8050   -2.3840 C   0  0  0  0  0  0  0  0  0  0  0  0
   -1.7160    1.3250   -3.5470 O   0  0  0  0  0  0  0  0  0  0  0  0
  1  2  2  0
  2  3  1  0
  3  4  1  0
  4  5  1  0
  5  6  1  0
  6  7  1  0
  7  8  1  0
  7 20  1  0
  8  9  2  0
  8 10  1  0
 10 11  1  0
 11 12  1  0
 12 13  1  0
 13 14  1  0
 14 15  1  0
 15 16  1  0
 16 17  2  0
 17 18  1  0
 17 21  1  0
 18 19  1  0
 19 20  2  0
 20 21  1  0
 21 22  2  3
 22 23  1  0
 23 24  2  3
 23 26  1  0
 24 25  1  0
 26 27  1  0
M  END
