
     RDKit          3D

 27 28  0  0  0  0  0  0  0  0999 V2000
    6.5830    0.7200   -2.1340 C   0  0  0  0  0  0  0  0  0  0  0  0
    6.1640   -0.0410   -1.0110 O   0  0  0  0  0  0  0  0  0  0  0  0
    7.0530   -0.4770   -0.0420 C   0  0  0  0  0  0  0  0  0  0  0  0
    8.2580   -0.1900   -0.1650 O   0  0  0  0  0  0  0  0  0  0  0  0
    6.5470   -1.2640    1.0990 C   0  0  0  0  0  0  0  0  0  0  0  0
    5.1500   -1.4600    1.0180 O   0  0  0  0  0  0  0  0  0  0  0  0
    4.2950   -0.3690    1.0010 C   0  0  0  0  0  0  0  0  0  0  0  0
    4.7240    0.7860    1.0560 O   0  0  0  0  0  0  0  0  0  0  0  0
    2.8970   -0.6430    0.9170 N   0  0  0  0  0  0  0  0  0  0  0  0
    1.9080    0.3760    0.8910 C   0  0  0  0  0  0  0  0  0  0  0  0
    2.1000    1.7100    0.9390 N   0  0  0  0  0  0  0  0  0  0  0  0
    0.8820    2.3100    0.8890 C   0  0  0  0  0  0  0  0  0  0  0  0
   -0.0390    1.3410    0.8110 N   0  0  0  0  0  0  0  0  0  0  0  0
    0.5360    0.1320    0.8090 C   0  0  0  0  0  0  0  0  0  0  0  0
   -0.0970   -1.2100    0.7370 C   0  0  0  0  0  0  0  0  0  0  0  0
   -1.5060   -1.1170    0.6630 O   0  0  0  0  0  0  0  0  0  0  0  0
   -2.1830   -0.4780   -0.3340 C   0  0  0  0  0  0  0  0  0  0  0  0
   -1.5100    0.0650   -1.2480 O   0  0  0  0  0  0  0  0  0  0  0  0
   -3.6360   -0.3840   -0.4100 C   0  0  0  0  0  0  0  0  0  0  0  0
   -4.2790   -0.9760    0.5820 C   0  0  0  0  0  0  0  0  0  0  0  0
   -5.7000   -1.1510    0.9420 C   0  0  0  0  0  0  0  0  0  0  0  0
   -6.8350   -0.5360    0.6520 C   0  0  0  0  0  0  0  0  0  0  0  0
   -7.2750    0.6200   -0.1610 C   0  0  0  0  0  0  0  0  0  0  0  0
   -6.6740    0.6810   -1.4960 C   0  0  0  0  0  0  0  0  0  0  0  0
   -7.5020    0.6480   -2.4240 O   0  0  0  0  0  0  0  0  0  0  0  0
   -5.3140    0.7730   -2.0070 C   0  0  0  0  0  0  0  0  0  0  0  0
   -4.1240    0.3500   -1.5710 C   0  0  0  0  0  0  0  0  0  0  0  0
  1  2  1  0
  2  3  1  0
  3  4  2  0
  3  5  1  0
  5  6  1  0
  6  7  1  0
  7  8  2  0
  7  9  1  0
  9 10  1  0
 10 11  1  0
 10 14  2  0
 11 12  1  0
 12 13  2  0
 13 14  1  0
 14 15  1  0
 15 16  1  0
 16 17  1  0
 17 18  2  0
 17 19  1  0
 19 20  2  0
 19 27  1  0
 20 21  1  0
 21 22  2  0
 22 23  1  0
 23 24  1  0
 24 25  2  0
 24 26  1  0
 26 27  2  0
M  END
