
     RDKit          3D

 27 29  0  0  0  0  0  0  0  0999 V2000
    5.3270    2.1960   -1.1970 C   0  0  0  0  0  0  0  0  0  0  0  0
    5.6450    1.4490   -0.0760 O   0  0  0  0  0  0  0  0  0  0  0  0
    4.9600    1.8430    1.0520 C   0  0  0  0  0  0  0  0  0  0  0  0
    3.4510    1.7300    0.8990 C   0  0  0  0  0  0  0  0  0  0  0  0
    3.0550    0.3810    0.6290 N   0  0  0  0  0  0  0  0  0  0  0  0
    1.6590    0.0170    0.4440 C   0  0  0  0  0  0  0  0  0  0  0  0
    0.8940    0.9700    0.5430 O   0  0  0  0  0  0  0  0  0  0  0  0
    1.3280   -1.3640    0.1740 C   0  0  0  0  0  0  0  0  0  0  0  0
    0.0690   -1.8100   -0.0130 C   0  0  0  0  0  0  0  0  0  0  0  0
   -0.9600   -0.8750    0.0610 N   0  0  0  0  0  0  0  0  0  0  0  0
   -2.3490   -0.9290   -0.0690 C   0  0  0  0  0  0  0  0  0  0  0  0
   -2.9260   -1.9710   -0.2980 O   0  0  0  0  0  0  0  0  0  0  0  0
   -3.1970    0.2850    0.0680 C   0  0  0  0  0  0  0  0  0  0  0  0
   -2.7100    1.5600   -0.0630 C   0  0  0  0  0  0  0  0  0  0  0  0
   -3.5680    2.6470    0.0890 C   0  0  0  0  0  0  0  0  0  0  0  0
   -4.9080    2.5030    0.3690 C   0  0  0  0  0  0  0  0  0  0  0  0
   -5.7360    3.6080    0.5150 O   0  0  0  0  0  0  0  0  0  0  0  0
   -5.4130    4.4620    1.5110 O   0  0  0  0  0  0  0  0  0  0  0  0
   -5.3620    1.2020    0.4940 C   0  0  0  0  0  0  0  0  0  0  0  0
   -4.5300    0.1170    0.3480 C   0  0  0  0  0  0  0  0  0  0  0  0
   -0.0560   -3.2400   -0.2740 C   0  0  0  0  0  0  0  0  0  0  0  0
   -1.1410   -4.0410   -0.5080 C   0  0  0  0  0  0  0  0  0  0  0  0
   -0.7350   -5.3800   -0.7070 C   0  0  0  0  0  0  0  0  0  0  0  0
    0.5850   -5.3550   -0.5890 N   0  0  0  0  0  0  0  0  0  0  0  0
    1.0170   -4.1130   -0.3340 C   0  0  0  0  0  0  0  0  0  0  0  0
    2.2750   -3.5680   -0.1300 O   0  0  0  0  0  0  0  0  0  0  0  0
    2.4140   -2.2730    0.1080 O   0  0  0  0  0  0  0  0  0  0  0  0
  1  2  1  0
  2  3  1  0
  3  4  1  0
  4  5  1  0
  5  6  1  0
  6  7  2  0
  6  8  1  0
  8  9  2  0
  8 27  1  0
  9 10  1  0
  9 21  1  0
 10 11  1  0
 11 12  2  0
 11 13  1  0
 13 14  2  0
 13 20  1  0
 14 15  1  0
 15 16  2  0
 16 17  1  0
 16 19  1  0
 17 18  1  0
 19 20  2  0
 21 22  1  0
 21 25  2  0
 22 23  2  0
 23 24  1  0
 24 25  1  0
 25 26  1  0
 26 27  1  0
M  END
