
     RDKit          3D

 27 28  0  0  0  0  0  0  0  0999 V2000
   -2.8960   -0.8060    3.7650 C   0  0  0  0  0  0  0  0  0  0  0  0
   -2.2190   -0.8140    2.5270 O   0  0  0  0  0  0  0  0  0  0  0  0
   -2.7910   -0.2330    1.4120 C   0  0  0  0  0  0  0  0  0  0  0  0
   -3.9120    0.2940    1.5260 O   0  0  0  0  0  0  0  0  0  0  0  0
   -2.0990   -0.2440    0.1530 C   0  0  0  0  0  0  0  0  0  0  0  0
   -0.9180   -0.8210    0.0620 C   0  0  0  0  0  0  0  0  0  0  0  0
   -0.3390   -1.4330    1.2220 N   0  0  0  0  0  0  0  0  0  0  0  0
    0.7570   -0.7510    1.8230 C   0  0  0  0  0  0  0  0  0  0  0  0
    1.6520   -0.2800    1.0020 N   0  0  0  0  0  0  0  0  0  0  0  0
    2.7570    0.4050    1.5580 C   0  0  0  0  0  0  0  0  0  0  0  0
    2.6890    0.8770    2.7170 O   0  0  0  0  0  0  0  0  0  0  0  0
    3.9790    0.5590    0.7620 C   0  0  0  0  0  0  0  0  0  0  0  0
    4.0880    0.0350   -0.5000 C   0  0  0  0  0  0  0  0  0  0  0  0
    5.2220    0.1630   -1.2850 C   0  0  0  0  0  0  0  0  0  0  0  0
    6.2320    0.8230   -0.7800 O   0  0  0  0  0  0  0  0  0  0  0  0
    6.1800    1.3490    0.4320 C   0  0  0  0  0  0  0  0  0  0  0  0
    7.2040    1.9790    0.8570 O   0  0  0  0  0  0  0  0  0  0  0  0
    5.0740    1.2470    1.2500 C   0  0  0  0  0  0  0  0  0  0  0  0
   -0.2810   -0.8120   -1.1520 O   0  0  0  0  0  0  0  0  0  0  0  0
    0.4870   -1.8550   -1.6960 C   0  0  0  0  0  0  0  0  0  0  0  0
   -2.7300    0.3740   -1.0200 C   0  0  0  0  0  0  0  0  0  0  0  0
   -2.7370   -0.2820   -2.2480 C   0  0  0  0  0  0  0  0  0  0  0  0
   -3.2970    0.2560   -3.3770 C   0  0  0  0  0  0  0  0  0  0  0  0
   -3.8710    1.5010   -3.2620 C   0  0  0  0  0  0  0  0  0  0  0  0
   -3.8850    2.1650   -2.0990 N   0  0  0  0  0  0  0  0  0  0  0  0
   -3.3270    1.6160   -0.9980 C   0  0  0  0  0  0  0  0  0  0  0  0
   -3.3830    2.3040    0.0380 O   0  0  0  0  0  0  0  0  0  0  0  0
  1  2  1  0
  2  3  1  0
  3  4  2  0
  3  5  1  0
  5  6  2  3
  5 21  1  0
  6  7  1  0
  6 19  1  0
  7  8  1  0
  8  9  2  3
  9 10  1  0
 10 11  2  0
 10 12  1  0
 12 13  1  0
 12 18  2  0
 13 14  2  0
 14 15  1  0
 15 16  1  0
 16 17  2  0
 16 18  1  0
 19 20  1  0
 21 22  2  0
 21 26  1  0
 22 23  1  0
 23 24  2  0
 24 25  1  0
 25 26  1  0
 26 27  2  0
M  END
