
     RDKit          3D

 22 24  0  0  0  0  0  0  0  0999 V2000
   -5.5510   -0.0110    1.3810 C   0  0  0  0  0  0  0  0  0  0  0  0
   -4.5440   -0.5770    0.3960 C   0  0  2  0  0  0  0  0  0  0  0  0
   -4.1310   -1.9640    0.8410 C   0  0  0  0  0  0  0  0  0  0  0  0
   -3.3420    0.3000    0.2860 C   0  0  0  0  0  0  0  0  0  0  0  0
   -2.9340    0.9440   -0.8200 N   0  0  0  0  0  0  0  0  0  0  0  0
   -1.8010    1.6430   -0.5300 C   0  0  0  0  0  0  0  0  0  0  0  0
   -1.0250    2.5040   -1.4750 C   0  0  0  0  0  0  0  0  0  0  0  0
   -0.2630    1.6480   -2.3350 N   0  0  0  0  0  0  0  0  0  0  0  0
    0.8150    0.8150   -1.9410 C   0  0  0  0  0  0  0  0  0  0  0  0
    1.3480   -0.1350   -2.8050 C   0  0  0  0  0  0  0  0  0  0  0  0
    2.4030   -0.9500   -2.4590 C   0  0  0  0  0  0  0  0  0  0  0  0
    2.9750   -0.8380   -1.2040 C   0  0  0  0  0  0  0  0  0  0  0  0
    2.4660    0.0960   -0.3290 C   0  0  0  0  0  0  0  0  0  0  0  0
    1.3980    0.9110   -0.7000 C   0  0  0  0  0  0  0  0  0  0  0  0
    2.9030    0.3810    1.0140 N   0  0  0  0  0  0  0  0  0  0  0  0
    4.1270    0.0530    1.6560 C   0  0  0  0  0  0  0  0  0  0  0  0
    4.5180    0.8610    2.5360 O   0  0  0  0  0  0  0  0  0  0  0  0
    5.0130   -1.0960    1.4450 C   0  0  0  0  0  0  0  0  0  0  0  0
    5.5660   -1.1900    0.0440 C   0  0  0  0  0  0  0  0  0  0  0  0
    4.3190   -1.9990   -1.0020 S   0  0  0  0  0  0  0  0  0  0  0  0
   -1.5690    1.3850    0.7630 N   0  0  0  0  0  0  0  0  0  0  0  0
   -2.4730    0.5860    1.2740 N   0  0  0  0  0  0  0  0  0  0  0  0
  2  1  1  1
  2  3  1  0
  2  4  1  0
  4  5  2  0
  4 22  1  0
  5  6  1  0
  6  7  1  0
  6 21  2  0
  7  8  1  0
  8  9  1  0
  9 10  2  0
  9 14  1  0
 10 11  1  0
 11 12  2  0
 12 13  1  0
 12 20  1  0
 13 14  2  0
 13 15  1  0
 15 16  1  0
 16 17  2  0
 16 18  1  0
 18 19  1  0
 19 20  1  0
 21 22  1  0
M  END
