
     RDKit          3D

 22 24  0  0  0  0  0  0  0  0999 V2000
   -0.0910   -3.8760    0.7060 C   0  0  0  0  0  0  0  0  0  0  0  0
    0.9500   -2.9490    0.5430 O   0  0  0  0  0  0  0  0  0  0  0  0
    0.7140   -1.6260    0.3160 C   0  0  0  0  0  0  0  0  0  0  0  0
    1.7690   -0.7900    0.0940 C   0  0  0  0  0  0  0  0  0  0  0  0
    3.1060   -1.3270    0.1040 C   0  0  0  0  0  0  0  0  0  0  0  0
    4.2210   -0.7910   -0.0670 C   0  0  0  0  0  0  0  0  0  0  0  0
    4.5860    0.5750   -0.3410 C   0  0  0  0  0  0  0  0  0  0  0  0
    3.9790    1.7380   -0.5140 C   0  0  0  0  0  0  0  0  0  0  0  0
    4.6700    2.8720   -0.7670 C   0  0  0  0  0  0  0  0  0  0  0  0
    6.0130    2.7980   -0.8420 C   0  0  0  0  0  0  0  0  0  0  0  0
    6.3180    1.0530   -0.5420 S   0  0  0  0  0  0  0  0  0  0  0  0
   -0.6110   -1.0780    0.3030 C   0  0  0  0  0  0  0  0  0  0  0  0
   -1.6740   -1.8470    0.5130 N   0  0  0  0  0  0  0  0  0  0  0  0
   -2.9510   -1.4020    0.5160 C   0  0  0  0  0  0  0  0  0  0  0  0
   -4.0670   -2.2490    0.7440 N   0  0  0  0  0  0  0  0  0  0  0  0
   -3.1860   -0.0970    0.2920 N   0  0  0  0  0  0  0  0  0  0  0  0
   -4.3020    0.5860    0.2400 N   0  0  0  0  0  0  0  0  0  0  0  0
   -4.0600    1.8850   -0.0130 C   0  0  0  0  0  0  0  0  0  0  0  0
   -5.0540    2.9830   -0.1490 C   0  0  0  0  0  0  0  0  0  0  0  0
   -2.6760    1.9740   -0.1200 C   0  0  0  0  0  0  0  0  0  0  0  0
   -2.1230    0.7080    0.0750 C   0  0  0  0  0  0  0  0  0  0  0  0
   -0.8630    0.2410    0.0780 N   0  0  0  0  0  0  0  0  0  0  0  0
  1  2  1  0
  2  3  1  0
  3  4  2  3
  3 12  1  0
  4  5  1  0
  5  6  2  3
  6  7  1  0
  7  8  2  0
  7 11  1  0
  8  9  1  0
  9 10  2  0
 10 11  1  0
 12 13  1  0
 12 22  2  0
 13 14  2  0
 14 15  1  0
 14 16  1  0
 16 17  1  0
 16 21  1  0
 17 18  2  0
 18 19  1  0
 18 20  1  0
 20 21  2  0
 21 22  1  0
M  END
