
     RDKit          3D

 22 24  0  0  0  0  0  0  0  0999 V2000
   -6.7930   -0.1490    0.8170 C   0  0  0  0  0  0  0  0  0  0  0  0
   -6.6770   -0.2810   -0.6780 C   0  0  0  0  0  0  0  0  0  0  0  0
   -5.4580   -0.9070   -1.0680 O   0  0  0  0  0  0  0  0  0  0  0  0
   -4.2510   -0.3280   -0.7240 C   0  0  0  0  0  0  0  0  0  0  0  0
   -3.0960   -0.9470   -1.1100 C   0  0  0  0  0  0  0  0  0  0  0  0
   -1.8630   -0.3690   -0.7670 C   0  0  0  0  0  0  0  0  0  0  0  0
   -1.8100    0.7830   -0.0660 C   0  0  0  0  0  0  0  0  0  0  0  0
   -0.6250    1.4120    0.3230 N   0  0  0  0  0  0  0  0  0  0  0  0
    0.6740    0.9000    0.2360 C   0  0  0  0  0  0  0  0  0  0  0  0
    0.9220   -0.3040   -0.2450 N   0  0  0  0  0  0  0  0  0  0  0  0
    2.1470   -0.8260   -0.3430 C   0  0  0  0  0  0  0  0  0  0  0  0
    3.2360   -0.0710    0.0820 C   0  0  0  0  0  0  0  0  0  0  0  0
    4.5870   -0.6410   -0.0240 C   0  0  0  0  0  0  0  0  0  0  0  0
    4.9060   -2.2440   -0.6650 S   0  0  0  0  0  0  0  0  0  0  0  0
    6.7500   -2.2170   -0.4720 C   0  0  0  0  0  0  0  0  0  0  0  0
    6.8920   -0.9490    0.0750 C   0  0  0  0  0  0  0  0  0  0  0  0
    5.8330   -0.1790    0.2930 C   0  0  0  0  0  0  0  0  0  0  0  0
    5.9890    1.1540    0.8680 N   0  0  0  0  0  0  0  0  0  0  0  0
    3.0040    1.1610    0.5750 C   0  0  0  0  0  0  0  0  0  0  0  0
    1.7500    1.6540    0.6590 N   0  0  0  0  0  0  0  0  0  0  0  0
   -3.0430    1.3710    0.3010 C   0  0  0  0  0  0  0  0  0  0  0  0
   -4.2020    0.8150   -0.0290 N   0  0  0  0  0  0  0  0  0  0  0  0
  1  2  1  0
  2  3  1  0
  3  4  1  0
  4  5  2  0
  4 22  1  0
  5  6  1  0
  6  7  2  0
  7  8  1  0
  7 21  1  0
  8  9  1  0
  9 10  2  0
  9 20  1  0
 10 11  1  0
 11 12  2  0
 12 13  1  0
 12 19  1  0
 13 14  1  0
 13 17  2  0
 14 15  1  0
 15 16  2  0
 16 17  1  0
 17 18  1  0
 19 20  2  0
 21 22  2  0
M  END
