
     RDKit          3D

 22 24  0  0  0  0  0  0  0  0999 V2000
   -2.5210    2.8800    1.2850 C   0  0  0  0  0  0  0  0  0  0  0  0
   -2.8290    1.4390    1.5530 C   0  0  0  0  0  0  0  0  0  0  0  0
   -2.5570    0.4910    0.6800 C   0  0  0  0  0  0  0  0  0  0  0  0
   -2.8320   -0.9580    0.8740 C   0  0  0  0  0  0  0  0  0  0  0  0
   -3.2630   -1.3480   -0.5290 C   0  0  0  0  0  0  0  0  0  0  0  0
   -2.3610   -0.5310   -1.3740 C   0  0  2  0  0  0  0  0  0  0  0  0
   -1.2010   -1.2170   -1.9940 C   0  0  0  0  0  0  0  0  0  0  0  0
   -0.2620   -1.8210   -1.1070 N   0  0  0  0  0  0  0  0  0  0  0  0
   -0.2450   -3.0710   -0.6200 C   0  0  0  0  0  0  0  0  0  0  0  0
   -1.1420   -4.1380   -0.8510 N   0  0  0  0  0  0  0  0  0  0  0  0
    0.8360   -3.2320    0.2010 N   0  0  0  0  0  0  0  0  0  0  0  0
    1.4600   -2.0910    0.2060 N   0  0  0  0  0  0  0  0  0  0  0  0
    0.8350   -1.1970   -0.5740 C   0  0  0  0  0  0  0  0  0  0  0  0
    1.2480    0.1310   -0.7950 N   0  0  0  0  0  0  0  0  0  0  0  0
    2.3740    0.7890   -0.2460 C   0  0  0  0  0  0  0  0  0  0  0  0
    3.2440    0.1910    0.6220 C   0  0  0  0  0  0  0  0  0  0  0  0
    4.3560    0.8550    1.1570 C   0  0  0  0  0  0  0  0  0  0  0  0
    4.5780    2.1460    0.7990 C   0  0  0  0  0  0  0  0  0  0  0  0
    6.0130    2.9750    1.5010 S   0  0  0  0  0  0  0  0  0  0  0  0
    3.7300    2.7810   -0.0680 C   0  0  0  0  0  0  0  0  0  0  0  0
    2.6490    2.1110   -0.5790 C   0  0  0  0  0  0  0  0  0  0  0  0
   -1.9750    0.5910   -0.5770 O   0  0  0  0  0  0  0  0  0  0  0  0
  1  2  1  0
  2  3  2  3
  3  4  1  0
  3 22  1  0
  4  5  1  0
  5  6  1  0
  6  7  1  1
  6 22  1  0
  7  8  1  0
  8  9  1  0
  8 13  1  0
  9 10  1  0
  9 11  2  0
 11 12  1  0
 12 13  2  0
 13 14  1  0
 14 15  1  0
 15 16  2  0
 15 21  1  0
 16 17  1  0
 17 18  2  0
 18 19  1  0
 18 20  1  0
 20 21  2  0
M  END
