
     RDKit          3D

 22 24  0  0  0  0  0  0  0  0999 V2000
    7.5460    0.7420    0.1720 C   0  0  0  0  0  0  0  0  0  0  0  0
    6.4890    1.6320    0.5130 O   0  0  0  0  0  0  0  0  0  0  0  0
    5.1720    1.2290    0.3710 C   0  0  0  0  0  0  0  0  0  0  0  0
    4.1490    2.0930    0.7010 C   0  0  0  0  0  0  0  0  0  0  0  0
    2.8470    1.6720    0.5530 C   0  0  0  0  0  0  0  0  0  0  0  0
    2.5060    0.4210    0.0880 C   0  0  0  0  0  0  0  0  0  0  0  0
    1.1060    0.0110   -0.0580 C   0  0  0  0  0  0  0  0  0  0  0  0
    0.0320    0.7550    0.2180 N   0  0  0  0  0  0  0  0  0  0  0  0
   -1.1060    0.0440   -0.0410 C   0  0  0  0  0  0  0  0  0  0  0  0
   -2.4740    0.5300    0.1350 C   0  0  0  0  0  0  0  0  0  0  0  0
   -3.0090    2.1250    0.6900 S   0  0  0  0  0  0  0  0  0  0  0  0
   -4.8450    1.6630    0.5250 C   0  0  0  0  0  0  0  0  0  0  0  0
   -5.7770    2.7260    0.8930 N   0  0  0  0  0  0  0  0  0  0  0  0
   -4.7380    0.5860    0.1500 N   0  0  0  0  0  0  0  0  0  0  0  0
   -3.6820   -0.1480   -0.1030 C   0  0  0  0  0  0  0  0  0  0  0  0
   -3.6880   -1.5880   -0.5920 C   0  0  2  0  0  0  0  0  0  0  0  0
   -5.0610   -2.0440   -0.9620 C   0  0  0  0  0  0  0  0  0  0  0  0
   -3.1230   -2.4450    0.5450 C   0  0  0  0  0  0  0  0  0  0  0  0
   -0.6970   -1.1420   -0.4770 N   0  0  0  0  0  0  0  0  0  0  0  0
    0.6250   -1.1640   -0.4880 N   0  0  0  0  0  0  0  0  0  0  0  0
    3.5320   -0.4360   -0.2400 C   0  0  0  0  0  0  0  0  0  0  0  0
    4.8410   -0.0350   -0.0990 C   0  0  0  0  0  0  0  0  0  0  0  0
  1  2  1  0
  2  3  1  0
  3  4  2  0
  3 22  1  0
  4  5  1  0
  5  6  2  0
  6  7  1  0
  6 21  1  0
  7  8  2  0
  7 20  1  0
  8  9  1  0
  9 10  1  0
  9 19  2  0
 10 11  1  0
 10 15  2  0
 11 12  1  0
 12 13  1  0
 12 14  2  0
 14 15  1  0
 15 16  1  0
 16 17  1  1
 16 18  1  0
 19 20  1  0
 21 22  2  0
M  END
