
     RDKit          3D

 22 24  0  0  0  0  0  0  0  0999 V2000
    2.8350    0.6660   -1.3800 C   0  0  0  0  0  0  0  0  0  0  0  0
    3.5700    0.1320   -0.2470 N   0  0  0  0  0  0  0  0  0  0  0  0
    3.5200    0.5730    1.0130 C   0  0  0  0  0  0  0  0  0  0  0  0
    2.7270    1.6840    1.5980 C   0  0  0  0  0  0  0  0  0  0  0  0
    1.4630    1.7600    0.9240 N   0  0  0  0  0  0  0  0  0  0  0  0
    0.5020    0.7200    0.9200 C   0  0  0  0  0  0  0  0  0  0  0  0
    0.7410   -0.4350    1.6330 C   0  0  0  0  0  0  0  0  0  0  0  0
   -0.2040   -1.4230    1.6100 C   0  0  0  0  0  0  0  0  0  0  0  0
   -1.4180   -1.3200    0.8900 C   0  0  0  0  0  0  0  0  0  0  0  0
   -2.3190   -2.4170    1.0120 N   0  0  0  0  0  0  0  0  0  0  0  0
   -1.6340   -0.1800    0.1950 C   0  0  0  0  0  0  0  0  0  0  0  0
   -2.8020    0.0330   -0.6570 C   0  0  0  0  0  0  0  0  0  0  0  0
   -3.5900   -0.9200   -1.0570 C   0  0  0  0  0  0  0  0  0  0  0  0
   -4.7700   -0.6830   -1.9170 C   0  0  0  0  0  0  0  0  0  0  0  0
   -4.9870    0.6500   -2.1870 O   0  0  0  0  0  0  0  0  0  0  0  0
   -4.1780    1.6740   -1.7820 C   0  0  0  0  0  0  0  0  0  0  0  0
   -3.1150    1.4280   -1.0450 C   0  0  0  0  0  0  0  0  0  0  0  0
   -0.6720    0.8260    0.2190 C   0  0  0  0  0  0  0  0  0  0  0  0
    4.3650   -0.2050    1.7300 N   0  0  0  0  0  0  0  0  0  0  0  0
    4.9160   -1.0940    0.9390 N   0  0  0  0  0  0  0  0  0  0  0  0
    4.4230   -0.8850   -0.2890 C   0  0  0  0  0  0  0  0  0  0  0  0
    4.8030   -1.7380   -1.6250 S   0  0  0  0  0  0  0  0  0  0  0  0
  1  2  1  0
  2  3  1  0
  2 21  1  0
  3  4  1  0
  3 19  2  0
  4  5  1  0
  5  6  1  0
  6  7  2  0
  6 18  1  0
  7  8  1  0
  8  9  2  0
  9 10  1  0
  9 11  1  0
 11 12  1  0
 11 18  2  0
 12 13  2  0
 12 17  1  0
 13 14  1  0
 14 15  1  0
 15 16  1  0
 16 17  2  0
 19 20  1  0
 20 21  1  0
 21 22  2  0
M  END
