
     RDKit          3D

 22 24  0  0  0  0  0  0  0  0999 V2000
   -5.5880    2.9050   -0.1470 N   0  0  0  0  0  0  0  0  0  0  0  0
   -4.5230    1.9630   -0.0120 C   0  0  0  0  0  0  0  0  0  0  0  0
   -4.3340    0.9290   -0.9000 C   0  0  0  0  0  0  0  0  0  0  0  0
   -3.2960    0.0180   -0.7620 C   0  0  0  0  0  0  0  0  0  0  0  0
   -2.4350    0.1530    0.2930 C   0  0  0  0  0  0  0  0  0  0  0  0
   -1.3500   -0.7810    0.4590 C   0  0  0  0  0  0  0  0  0  0  0  0
   -1.2010   -1.7390   -0.3940 N   0  0  0  0  0  0  0  0  0  0  0  0
   -0.1950   -2.6890   -0.3280 N   0  0  0  0  0  0  0  0  0  0  0  0
    1.1180   -2.4250   -0.2640 C   0  0  0  0  0  0  0  0  0  0  0  0
    1.7360   -1.0930   -0.2510 C   0  0  0  0  0  0  0  0  0  0  0  0
    3.0430   -0.9840   -0.1850 C   0  0  0  0  0  0  0  0  0  0  0  0
    3.7110    0.3290   -0.1690 C   0  0  0  0  0  0  0  0  0  0  0  0
    5.0140    0.5360   -0.1050 C   0  0  0  0  0  0  0  0  0  0  0  0
    5.2570    2.0180   -0.1140 C   0  0  0  0  0  0  0  0  0  0  0  0
    4.0470    2.5520   -0.5600 O   0  0  0  0  0  0  0  0  0  0  0  0
    3.0660    1.6550   -0.2220 C   0  0  0  0  0  0  0  0  0  0  0  0
    1.7710   -3.5980   -0.2130 N   0  0  0  0  0  0  0  0  0  0  0  0
    0.8900   -4.5740   -0.2440 N   0  0  0  0  0  0  0  0  0  0  0  0
   -0.3330   -4.0170   -0.3150 C   0  0  0  0  0  0  0  0  0  0  0  0
   -1.7710   -4.8140   -0.3780 S   0  0  0  0  0  0  0  0  0  0  0  0
   -2.6100    1.1740    1.1830 C   0  0  0  0  0  0  0  0  0  0  0  0
   -3.6520    2.0880    1.0420 C   0  0  0  0  0  0  0  0  0  0  0  0
  1  2  1  0
  2  3  2  0
  2 22  1  0
  3  4  1  0
  4  5  2  0
  5  6  1  0
  5 21  1  0
  6  7  2  3
  7  8  1  0
  8  9  1  0
  8 19  1  0
  9 10  1  0
  9 17  2  0
 10 11  2  3
 11 12  1  0
 12 13  2  0
 12 16  1  0
 13 14  1  0
 14 15  1  0
 15 16  1  0
 17 18  1  0
 18 19  1  0
 19 20  2  0
 21 22  2  0
M  END
