
     RDKit          3D

 20 22  0  0  0  0  0  0  0  0999 V2000
   -2.3850   -3.1690    0.2590 O   0  0  0  0  0  0  0  0  0  0  0  0
   -1.5840   -2.1670    0.0690 C   0  0  0  0  0  0  0  0  0  0  0  0
   -0.2650   -2.2480    0.2950 O   0  0  0  0  0  0  0  0  0  0  0  0
    0.8680   -2.3450   -0.4930 C   0  0  0  0  0  0  0  0  0  0  0  0
    1.9370   -1.3820   -0.1180 C   0  0  0  0  0  0  0  0  0  0  0  0
    2.3520   -0.9930    1.0510 C   0  0  0  0  0  0  0  0  0  0  0  0
    2.0350    0.4870    1.3080 C   0  0  0  0  0  0  0  0  0  0  0  0
    2.2320    1.3330    0.1320 C   0  0  2  0  0  0  0  0  0  0  0  0
    1.0660    1.9050   -0.5520 C   0  0  0  0  0  0  0  0  0  0  0  0
    1.3810    2.3850   -1.7140 O   0  0  0  0  0  0  0  0  0  0  0  0
   -0.2200    2.0050   -0.1760 O   0  0  0  0  0  0  0  0  0  0  0  0
   -1.2340    1.1570    0.1710 C   0  0  1  0  0  0  0  0  0  0  0  0
   -2.6190    1.8390    0.1550 C   0  0  0  0  0  0  0  0  0  0  0  0
   -3.5580    0.8920    0.8230 C   0  0  0  0  0  0  0  0  0  0  0  0
   -3.3780   -0.5420    0.5890 C   0  0  0  0  0  0  0  0  0  0  0  0
   -2.3560   -0.9840   -0.4140 C   0  0  1  0  0  0  0  0  0  0  0  0
   -1.4340    0.0580   -0.8770 C   0  0  0  0  0  0  0  0  0  0  0  0
    3.1400    0.6320   -0.8870 C   0  0  1  0  0  0  0  0  0  0  0  0
    4.4140    0.6140   -0.3620 O   0  0  0  0  0  0  0  0  0  0  0  0
    2.6340   -0.7130   -1.3010 C   0  0  0  0  0  0  0  0  0  0  0  0
  1  2  2  0
  2  3  1  0
  2 16  1  0
  3  4  1  0
  4  5  1  0
  5  6  2  0
  5 20  1  0
  6  7  1  0
  7  8  1  0
  8  9  1  6
  8 18  1  0
  9 10  2  0
  9 11  1  0
 11 12  1  0
 12 13  1  6
 12 17  1  0
 13 14  1  0
 14 15  1  0
 16 15  1  1
 16 17  1  0
 18 19  1  1
 18 20  1  0
M  END
