
     RDKit          3D

 20 22  0  0  0  0  0  0  0  0999 V2000
   -2.3480   -0.2010    2.4410 O   0  0  0  0  0  0  0  0  0  0  0  0
   -2.6290    0.0590    1.2860 C   0  0  0  0  0  0  0  0  0  0  0  0
   -3.8260    0.7670    0.7790 C   0  0  0  0  0  0  0  0  0  0  0  0
   -3.9910    0.4300   -0.5320 O   0  0  0  0  0  0  0  0  0  0  0  0
   -2.8010   -0.0340   -1.0450 C   0  0  0  0  0  0  0  0  0  0  0  0
   -1.8370   -0.2670    0.0460 C   0  0  2  0  0  0  0  0  0  0  0  0
   -1.3730   -1.6930    0.2040 C   0  0  0  0  0  0  0  0  0  0  0  0
   -0.0450   -1.9680   -0.4700 C   0  0  1  0  0  0  0  0  0  0  0  0
    0.1740   -0.9040   -1.4960 C   0  0  0  0  0  0  0  0  0  0  0  0
    0.2030    0.3760   -1.0160 O   0  0  0  0  0  0  0  0  0  0  0  0
   -0.6270    0.6030    0.0570 C   0  0  1  0  0  0  0  0  0  0  0  0
   -0.9320    2.0960    0.0520 C   0  0  0  0  0  0  0  0  0  0  0  0
    0.4440    2.7380   -0.1930 C   0  0  0  0  0  0  0  0  0  0  0  0
    1.4310    2.3830    0.8920 C   0  0  0  0  0  0  0  0  0  0  0  0
    2.5800    1.5600    0.4260 C   0  0  0  0  0  0  0  0  0  0  0  0
    2.5890    0.2440    0.9460 O   0  0  0  0  0  0  0  0  0  0  0  0
    3.0020   -0.6510   -0.0170 C   0  0  0  0  0  0  0  0  0  0  0  0
    2.4310   -2.0010    0.0290 C   0  0  2  0  0  0  0  0  0  0  0  0
    2.5510   -2.6020   -1.2470 O   0  0  0  0  0  0  0  0  0  0  0  0
    1.0530   -2.1910    0.4970 C   0  0  0  0  0  0  0  0  0  0  0  0
  1  2  2  0
  2  3  1  0
  2  6  1  0
  3  4  1  0
  4  5  1  0
  6  5  1  6
  6  7  1  0
  6 11  1  0
  7  8  1  0
  8  9  1  6
  8 20  1  0
  9 10  1  0
 10 11  1  0
 11 12  1  6
 12 13  1  0
 13 14  1  0
 14 15  1  0
 15 16  1  0
 16 17  1  0
 17 18  1  0
 18 19  1  6
 18 20  1  0
M  END
