
     RDKit          3D

  7  6  0  0  0  0  0  0  0  0999 V2000
    2.7180    0.6360    0.0700 N   0  0  0  0  0  0  0  0  0  0  0  0
    1.6330    0.2360    0.2150 C   0  0  0  0  0  0  0  0  0  0  0  0
    0.2640   -0.2970    0.4010 C   0  0  2  0  0  0  0  0  0  0  0  0
    0.1080   -1.4620   -0.2710 O   0  0  0  0  0  0  0  0  0  0  0  0
   -0.6540    0.7680   -0.1810 C   0  0  0  0  0  0  0  0  0  0  0  0
   -1.9400    0.2840   -0.3610 O   0  0  0  0  0  0  0  0  0  0  0  0
   -2.1840   -0.8100    0.3150 O   0  0  0  0  0  0  0  0  0  0  0  0
  1  2  3  0
  2  3  1  0
  3  4  1  6
  3  5  1  0
  5  6  1  0
  6  7  1  0
M  CHG  1   7  -1
M  END
