
     RDKit          3D

 20 23  0  0  0  0  0  0  0  0999 V2000
   -0.0680   -1.3540    1.3960 O   0  0  0  0  0  0  0  0  0  0  0  0
   -0.2580   -0.3630    0.3780 C   0  0  2  0  0  0  0  0  0  0  0  0
   -0.9690    0.7040    1.1440 C   0  0  2  0  0  0  0  0  0  0  0  0
   -2.1310   -0.0340    1.8180 C   0  0  0  0  0  0  0  0  0  0  0  0
   -2.4560   -1.3530    1.3250 C   0  0  0  0  0  0  0  0  0  0  0  0
   -2.0290   -1.8210    0.1190 O   0  0  0  0  0  0  0  0  0  0  0  0
   -1.2190   -0.9050   -0.5940 C   0  0  1  0  0  0  0  0  0  0  0  0
   -2.2150   -0.0070   -1.2140 C   0  0  0  0  0  0  0  0  0  0  0  0
   -1.7660    1.2660   -1.7940 C   0  0  0  0  0  0  0  0  0  0  0  0
   -1.1620    2.0620   -0.8760 O   0  0  0  0  0  0  0  0  0  0  0  0
   -1.4920    1.8690    0.4290 C   0  0  0  0  0  0  0  0  0  0  0  0
   -0.4750   -1.6210   -1.6900 C   0  0  0  0  0  0  0  0  0  0  0  0
    0.5050   -0.9320   -2.2770 O   0  0  0  0  0  0  0  0  0  0  0  0
    1.2370   -0.0220   -1.6160 C   0  0  0  0  0  0  0  0  0  0  0  0
    1.1160   -0.0790   -0.0990 C   0  0  2  0  0  0  0  0  0  0  0  0
    2.1090   -1.2000    0.2860 C   0  0  0  0  0  0  0  0  0  0  0  0
    3.5180   -0.8190    0.2030 C   0  0  0  0  0  0  0  0  0  0  0  0
    3.8540    0.4020   -0.2730 O   0  0  0  0  0  0  0  0  0  0  0  0
    3.0850    1.4600    0.0570 C   0  0  0  0  0  0  0  0  0  0  0  0
    1.7140    1.1180    0.5780 C   0  0  0  0  0  0  0  0  0  0  0  0
  2  1  1  1
  2  3  1  0
  2  7  1  0
  2 15  1  0
  3  4  1  6
  3 11  1  0
  4  5  1  0
  5  6  1  0
  6  7  1  0
  7  8  1  6
  7 12  1  0
  8  9  1  0
  9 10  1  0
 10 11  1  0
 12 13  1  0
 13 14  1  0
 15 14  1  6
 15 16  1  0
 15 20  1  0
 16 17  1  0
 17 18  1  0
 18 19  1  0
 19 20  1  0
M  END
