
     RDKit          3D

 20 22  0  0  0  0  0  0  0  0999 V2000
   -3.6240   -0.4860    0.1500 C   0  0  0  0  0  0  0  0  0  0  0  0
   -2.2240    0.1530    0.0290 C   0  0  2  0  0  0  0  0  0  0  0  0
   -2.2320    1.2750    1.0320 C   0  0  0  0  0  0  0  0  0  0  0  0
   -2.1600    0.7340   -1.3400 C   0  0  0  0  0  0  0  0  0  0  0  0
   -1.8650   -0.2540   -2.4060 C   0  0  0  0  0  0  0  0  0  0  0  0
   -2.2100   -0.0720   -3.5800 O   0  0  0  0  0  0  0  0  0  0  0  0
   -1.1850   -1.4050   -2.0670 O   0  0  0  0  0  0  0  0  0  0  0  0
   -1.3000   -1.9590   -0.7750 C   0  0  0  0  0  0  0  0  0  0  0  0
   -1.2600   -0.9370    0.3350 C   0  0  2  0  0  0  0  0  0  0  0  0
   -1.8380   -1.6300    1.4390 O   0  0  0  0  0  0  0  0  0  0  0  0
    0.1110   -0.5110    0.7380 C   0  0  1  0  0  0  0  0  0  0  0  0
    0.9680   -1.7250    1.0370 C   0  0  0  0  0  0  0  0  0  0  0  0
    2.0380   -1.9140   -0.0210 C   0  0  0  0  0  0  0  0  0  0  0  0
    2.9410   -0.8600   -0.0290 O   0  0  0  0  0  0  0  0  0  0  0  0
    2.3490    0.3730    0.0530 C   0  0  2  0  0  0  0  0  0  0  0  0
    2.9830    1.2640   -1.0040 C   0  0  0  0  0  0  0  0  0  0  0  0
    3.6440    2.3790   -0.2570 C   0  0  0  0  0  0  0  0  0  0  0  0
    3.7570    1.9400    1.0360 O   0  0  0  0  0  0  0  0  0  0  0  0
    2.6640    1.1270    1.3160 C   0  0  0  0  0  0  0  0  0  0  0  0
    0.8510    0.3410   -0.2330 C   0  0  0  0  0  0  0  0  0  0  0  0
  2  1  1  6
  2  3  1  0
  2  4  1  0
  2  9  1  0
  4  5  1  0
  5  6  2  0
  5  7  1  0
  7  8  1  0
  8  9  1  0
  9 10  1  1
  9 11  1  0
 11 12  1  6
 11 20  1  0
 12 13  1  0
 13 14  1  0
 14 15  1  0
 15 16  1  6
 15 19  1  0
 15 20  1  0
 16 17  1  0
 17 18  1  0
 18 19  1  0
M  END
