
     RDKit          3D

 34 38  0  0  0  0  0  0  0  0999 V2000
    7.5590    2.6690   -1.6880 C   0  0  0  0  0  0  0  0  0  0  0  0
    6.4930    2.1540   -0.7500 C   0  0  0  0  0  0  0  0  0  0  0  0
    6.4590    0.6200   -0.7420 C   0  0  0  0  0  0  0  0  0  0  0  0
    5.3840    0.2240    0.2040 C   0  0  0  0  0  0  0  0  0  0  0  0
    5.6650    0.0260    1.5390 C   0  0  0  0  0  0  0  0  0  0  0  0
    4.6990   -0.3390    2.4420 C   0  0  0  0  0  0  0  0  0  0  0  0
    3.3760   -0.5220    2.0200 C   0  0  0  0  0  0  0  0  0  0  0  0
    3.0830   -0.3320    0.7100 C   0  0  0  0  0  0  0  0  0  0  0  0
    1.6890   -0.5490    0.2610 C   0  0  0  0  0  0  0  0  0  0  0  0
    0.9650   -1.5850    0.5370 C   0  0  0  0  0  0  0  0  0  0  0  0
    1.9180   -2.7460    1.5580 Cl  0  0  0  0  0  0  0  0  0  0  0  0
   -0.3680   -1.9630    0.2030 C   0  0  0  0  0  0  0  0  0  0  0  0
   -0.7470   -3.1920    0.7200 C   0  0  0  0  0  0  0  0  0  0  0  0
    0.3840   -4.1190    1.6840 Cl  0  0  0  0  0  0  0  0  0  0  0  0
   -2.0290   -3.8550    0.5540 C   0  0  0  0  0  0  0  0  0  0  0  0
   -3.1990   -2.9890    0.2660 C   0  0  0  0  0  0  0  0  0  0  0  0
   -2.7430   -1.5790    0.2300 C   0  0  0  0  0  0  0  0  0  0  0  0
   -1.4370   -1.3770   -0.5790 C   0  0  2  0  0  0  0  0  0  0  0  0
   -1.5940   -2.2950   -1.8230 C   0  0  0  0  0  0  0  0  0  0  0  0
   -1.5370    0.0370   -0.9890 C   0  0  2  0  0  0  0  0  0  0  0  0
   -0.5730    0.5900   -1.9640 C   0  0  0  0  0  0  0  0  0  0  0  0
   -1.5330    0.8480    0.2090 N   0  0  0  0  0  0  0  0  0  0  0  0
   -2.5590    1.4230    1.0100 C   0  0  0  0  0  0  0  0  0  0  0  0
   -2.2580    1.3960    2.3620 C   0  0  0  0  0  0  0  0  0  0  0  0
   -3.1610    1.9160    3.2600 C   0  0  0  0  0  0  0  0  0  0  0  0
   -4.3640    2.4660    2.8390 C   0  0  0  0  0  0  0  0  0  0  0  0
   -4.6580    2.4910    1.4970 C   0  0  0  0  0  0  0  0  0  0  0  0
   -3.7340    1.9610    0.6020 C   0  0  0  0  0  0  0  0  0  0  0  0
   -4.2570    2.1100   -0.7780 C   0  0  0  0  0  0  0  0  0  0  0  0
   -4.0470    0.8770   -1.4610 N   0  0  0  0  0  0  0  0  0  0  0  0
   -5.2380    0.2430   -2.0320 C   0  0  0  0  0  0  0  0  0  0  0  0
   -2.8710    0.1540   -1.6910 C   0  0  0  0  0  0  0  0  0  0  0  0
   -2.9370   -0.5590   -2.7150 O   0  0  0  0  0  0  0  0  0  0  0  0
    4.0710    0.0320   -0.1670 C   0  0  0  0  0  0  0  0  0  0  0  0
  1  2  1  0
  2  3  1  0
  3  4  1  0
  4  5  2  0
  4 34  1  0
  5  6  1  0
  6  7  2  0
  7  8  1  0
  8  9  1  0
  8 34  2  0
  9 10  2  3
 10 11  1  0
 10 12  1  0
 12 13  2  0
 12 18  1  0
 13 14  1  0
 13 15  1  0
 15 16  1  0
 16 17  1  0
 17 18  1  0
 18 19  1  6
 18 20  1  0
 20 21  1  6
 20 22  1  0
 20 32  1  0
 22 23  1  0
 23 24  2  0
 23 28  1  0
 24 25  1  0
 25 26  2  0
 26 27  1  0
 27 28  2  0
 28 29  1  0
 29 30  1  0
 30 31  1  0
 30 32  1  0
 32 33  2  0
 14 11  1  0
M  END
