
     RDKit          3D

 34 38  0  0  0  0  0  0  0  0999 V2000
    7.4760    2.1320   -1.9750 C   0  0  0  0  0  0  0  0  0  0  0  0
    6.6520    1.5510   -0.8630 C   0  0  0  0  0  0  0  0  0  0  0  0
    5.3170    1.7940   -0.8240 N   0  0  0  0  0  0  0  0  0  0  0  0
    4.5530    1.1700    0.1130 C   0  0  0  0  0  0  0  0  0  0  0  0
    3.1840    1.2740    0.0190 C   0  0  0  0  0  0  0  0  0  0  0  0
    2.3570    0.5220    0.8200 C   0  0  0  0  0  0  0  0  0  0  0  0
    0.6040    0.6330    0.4750 S   0  0  0  0  0  0  0  0  0  0  0  0
    0.2020   -0.7340   -0.6630 C   0  0  0  0  0  0  0  0  0  0  0  0
   -1.2000   -0.6040   -1.1460 C   0  0  0  0  0  0  0  0  0  0  0  0
   -1.3990   -0.2690   -2.3430 O   0  0  0  0  0  0  0  0  0  0  0  0
   -2.2940   -0.8830   -0.2410 N   0  0  0  0  0  0  0  0  0  0  0  0
   -1.9870   -1.2470    1.1090 C   0  0  0  0  0  0  0  0  0  0  0  0
   -3.1970   -1.2920    2.0010 C   0  0  0  0  0  0  0  0  0  0  0  0
   -4.2050   -0.4310    1.5560 O   0  0  0  0  0  0  0  0  0  0  0  0
   -4.6120   -0.8640    0.3300 C   0  0  1  0  0  0  0  0  0  0  0  0
   -6.0300   -0.8270   -0.0150 C   0  0  0  0  0  0  0  0  0  0  0  0
   -6.8290   -1.9280   -0.2270 C   0  0  0  0  0  0  0  0  0  0  0  0
   -8.1780   -1.9040   -0.4560 C   0  0  0  0  0  0  0  0  0  0  0  0
   -8.8100   -0.7110   -0.4850 N   0  0  0  0  0  0  0  0  0  0  0  0
   -8.1030    0.4010   -0.2930 C   0  0  0  0  0  0  0  0  0  0  0  0
   -8.7100    1.6460   -0.3860 C   0  0  0  0  0  0  0  0  0  0  0  0
   -7.9710    2.7810   -0.2590 C   0  0  0  0  0  0  0  0  0  0  0  0
   -6.6030    2.7900   -0.0270 C   0  0  0  0  0  0  0  0  0  0  0  0
   -5.9930    1.5470    0.0720 C   0  0  0  0  0  0  0  0  0  0  0  0
   -6.7330    0.4010   -0.0570 C   0  0  0  0  0  0  0  0  0  0  0  0
   -3.6290   -0.7270   -0.7970 C   0  0  0  0  0  0  0  0  0  0  0  0
    2.9190   -0.3260    1.7280 C   0  0  0  0  0  0  0  0  0  0  0  0
    4.3100   -0.4470    1.8480 C   0  0  0  0  0  0  0  0  0  0  0  0
    5.1050    0.3150    1.0250 C   0  0  0  0  0  0  0  0  0  0  0  0
    6.4860    0.1010    0.9710 C   0  0  0  0  0  0  0  0  0  0  0  0
    7.1200   -0.6340    2.0990 C   0  0  0  0  0  0  0  0  0  0  0  0
    7.2390    0.7110    0.0170 C   0  0  0  0  0  0  0  0  0  0  0  0
    8.6950    0.3240   -0.1800 C   0  0  0  0  0  0  0  0  0  0  0  0
    8.5980   -1.1500   -0.2330 N   0  0  0  0  0  0  0  0  0  0  0  0
  1  2  1  0
  2  3  2  0
  2 32  1  0
  3  4  1  0
  4  5  2  0
  4 29  1  0
  5  6  1  0
  6  7  1  0
  6 27  2  0
  7  8  1  0
  8  9  1  0
  9 10  2  0
  9 11  1  0
 11 12  1  0
 11 26  1  0
 12 13  1  0
 13 14  1  0
 14 15  1  0
 15 16  1  6
 15 26  1  0
 16 17  2  0
 16 25  1  0
 17 18  1  0
 18 19  2  0
 19 20  1  0
 20 21  2  0
 20 25  1  0
 21 22  1  0
 22 23  2  0
 23 24  1  0
 24 25  2  0
 27 28  1  0
 28 29  2  0
 29 30  1  0
 30 31  1  0
 30 32  2  0
 32 33  1  0
 33 34  1  0
M  CHG  1  19   1
M  END
