
     RDKit          3D

 34 38  0  0  0  0  0  0  0  0999 V2000
    8.8490    2.5880   -1.7770 C   0  0  0  0  0  0  0  0  0  0  0  0
    8.0930    1.5090   -1.1430 C   0  0  0  0  0  0  0  0  0  0  0  0
    7.4160    0.6150   -1.1260 N   0  0  0  0  0  0  0  0  0  0  0  0
    6.7410   -0.3120   -0.8260 C   0  0  0  0  0  0  0  0  0  0  0  0
    5.9240   -1.4320   -0.4620 C   0  0  0  0  0  0  0  0  0  0  0  0
    6.1560   -2.5700   -1.1040 O   0  0  0  0  0  0  0  0  0  0  0  0
    4.8590   -1.5950    0.4670 N   0  0  0  0  0  0  0  0  0  0  0  0
    4.2720   -2.9370    0.7620 C   0  0  0  0  0  0  0  0  0  0  0  0
    3.6180   -2.7560    2.0920 C   0  0  0  0  0  0  0  0  0  0  0  0
    3.9940   -1.3580    2.5570 C   0  0  0  0  0  0  0  0  0  0  0  0
    4.0200   -0.6840    1.1930 C   0  0  1  0  0  0  0  0  0  0  0  0
    4.3990    0.7460    1.2250 C   0  0  0  0  0  0  0  0  0  0  0  0
    2.6040   -0.7940    0.6040 C   0  0  0  0  0  0  0  0  0  0  0  0
    2.4440   -1.4490   -0.4150 O   0  0  0  0  0  0  0  0  0  0  0  0
    1.5290   -0.1510    1.2380 N   0  0  0  0  0  0  0  0  0  0  0  0
    0.1800   -0.1580    0.8520 C   0  0  0  0  0  0  0  0  0  0  0  0
   -0.3210   -1.1090    0.0090 C   0  0  0  0  0  0  0  0  0  0  0  0
   -1.6630   -1.1040   -0.3830 C   0  0  0  0  0  0  0  0  0  0  0  0
   -2.5010   -0.1110    0.0960 C   0  0  0  0  0  0  0  0  0  0  0  0
   -2.0450    0.8570    0.9390 C   0  0  0  0  0  0  0  0  0  0  0  0
   -0.6790    0.7990    1.2990 C   0  0  0  0  0  0  0  0  0  0  0  0
   -2.8880    1.8980    1.5210 C   0  0  0  0  0  0  0  0  0  0  0  0
   -4.2030    2.0830    0.9010 C   0  0  0  0  0  0  0  0  0  0  0  0
   -4.6730    0.9690    0.0880 C   0  0  0  0  0  0  0  0  0  0  0  0
   -6.0110    0.9760   -0.2970 C   0  0  0  0  0  0  0  0  0  0  0  0
   -6.5700    0.0270   -1.0780 C   0  0  0  0  0  0  0  0  0  0  0  0
   -7.9440    0.0210   -1.4810 N   0  0  1  0  0  0  0  0  0  0  0  0
   -8.6470    1.1630   -0.9790 C   0  0  0  0  0  0  0  0  0  0  0  0
   -8.1030   -0.1480   -2.8860 C   0  0  0  0  0  0  0  0  0  0  0  0
   -5.7690   -1.0070   -1.5220 C   0  0  0  0  0  0  0  0  0  0  0  0
   -4.4270   -1.0630   -1.1670 C   0  0  0  0  0  0  0  0  0  0  0  0
   -3.9060   -0.0740   -0.3690 C   0  0  0  0  0  0  0  0  0  0  0  0
    7.1550    0.0180    0.8190 C   0  0  0  0  0  0  0  0  0  0  0  0
    8.1930    1.3930    0.7870 S   0  0  0  0  0  0  0  0  0  0  0  0
  1  2  1  0
  2  3  2  0
  2 34  1  0
  3  4  1  0
  4  5  1  0
  4 33  2  0
  5  6  2  0
  5  7  1  0
  7  8  1  0
  7 11  1  0
  8  9  1  0
  9 10  1  0
 10 11  1  0
 11 12  1  1
 11 13  1  0
 13 14  2  0
 13 15  1  0
 15 16  1  0
 16 17  2  0
 16 21  1  0
 17 18  1  0
 18 19  2  0
 19 20  1  0
 19 32  1  0
 20 21  2  0
 20 22  1  0
 22 23  1  0
 23 24  1  0
 24 25  2  0
 24 32  1  0
 25 26  1  0
 26 27  1  0
 26 30  2  0
 27 28  1  6
 27 29  1  0
 30 31  1  0
 31 32  2  0
 33 34  1  0
M  CHG  1  27   1
M  END
