
     RDKit          3D

 33 37  0  0  0  0  0  0  0  0999 V2000
   -8.7220    1.9190    0.4730 C   0  0  0  0  0  0  0  0  0  0  0  0
   -8.3040    1.2400   -0.7960 C   0  0  0  0  0  0  0  0  0  0  0  0
   -6.8380    1.0750   -0.7840 C   0  0  0  0  0  0  0  0  0  0  0  0
   -5.9880    1.8790   -1.5330 C   0  0  0  0  0  0  0  0  0  0  0  0
   -4.6660    1.6640   -1.4660 C   0  0  0  0  0  0  0  0  0  0  0  0
   -3.2510    2.4500   -2.2520 S   0  0  0  0  0  0  0  0  0  0  0  0
   -1.9920    1.3830   -1.4630 C   0  0  0  0  0  0  0  0  0  0  0  0
   -0.6000    1.5310   -1.7120 N   0  0  0  0  0  0  0  0  0  0  0  0
    0.3910    0.6920   -1.0890 C   0  0  2  0  0  0  0  0  0  0  0  0
    0.1070   -0.7470   -1.4530 C   0  0  0  0  0  0  0  0  0  0  0  0
    0.7680   -1.7420   -0.5400 C   0  0  0  0  0  0  0  0  0  0  0  0
    2.2520   -1.6190   -0.4930 C   0  0  0  0  0  0  0  0  0  0  0  0
    2.6860   -0.5110    0.3730 N   0  0  0  0  0  0  0  0  0  0  0  0
    4.0870   -0.4860    0.7390 C   0  0  0  0  0  0  0  0  0  0  0  0
    4.8950    0.3110   -0.2820 C   0  0  0  0  0  0  0  0  0  0  0  0
    6.3420    0.3240    0.1080 C   0  0  0  0  0  0  0  0  0  0  0  0
    6.8740    1.3000    0.9170 C   0  0  0  0  0  0  0  0  0  0  0  0
    8.2070    1.2960    1.2660 C   0  0  0  0  0  0  0  0  0  0  0  0
    9.0330    0.2950    0.7970 C   0  0  0  0  0  0  0  0  0  0  0  0
   10.4910    0.2280    1.1350 C   0  0  0  0  0  0  0  0  0  0  0  0
    8.4450   -0.6540   -0.0080 C   0  0  0  0  0  0  0  0  0  0  0  0
    7.1460   -0.6450   -0.3450 N   0  0  0  0  0  0  0  0  0  0  0  0
    1.8220    0.5110    0.8540 C   0  0  0  0  0  0  0  0  0  0  0  0
    2.3290    1.1890    1.7930 O   0  0  0  0  0  0  0  0  0  0  0  0
    0.4370    0.8820    0.4140 C   0  0  0  0  0  0  0  0  0  0  0  0
   -2.7480    0.6320   -0.7640 N   0  0  0  0  0  0  0  0  0  0  0  0
   -4.0260    0.6970   -0.7070 C   0  0  0  0  0  0  0  0  0  0  0  0
   -4.9050   -0.1200    0.0560 C   0  0  0  0  0  0  0  0  0  0  0  0
   -6.2500    0.1000   -0.0140 C   0  0  0  0  0  0  0  0  0  0  0  0
   -7.0860   -0.7210    0.7480 O   0  0  0  0  0  0  0  0  0  0  0  0
   -6.7120   -2.0200    1.1720 C   0  0  0  0  0  0  0  0  0  0  0  0
   -5.3010   -2.3840    0.8450 C   0  0  0  0  0  0  0  0  0  0  0  0
   -4.3990   -1.1930    0.9170 C   0  0  0  0  0  0  0  0  0  0  0  0
  1  2  1  0
  2  3  1  0
  3  4  2  0
  3 29  1  0
  4  5  1  0
  5  6  1  0
  5 27  2  0
  6  7  1  0
  7  8  1  0
  7 26  2  0
  9  8  1  1
  9 10  1  0
  9 25  1  0
 10 11  1  0
 11 12  1  0
 12 13  1  0
 13 14  1  0
 13 23  1  0
 14 15  1  0
 15 16  1  0
 16 17  2  0
 16 22  1  0
 17 18  1  0
 18 19  2  0
 19 20  1  0
 19 21  1  0
 21 22  2  0
 23 24  2  0
 23 25  1  0
 26 27  1  0
 27 28  1  0
 28 29  2  0
 28 33  1  0
 29 30  1  0
 30 31  1  0
 31 32  1  0
 32 33  1  0
M  CHG  1  22   1
M  END
