
     RDKit          3D

 34 37  0  0  0  0  0  0  0  0999 V2000
   -5.8360   -0.2730    3.6200 C   0  0  0  0  0  0  0  0  0  0  0  0
   -4.6360   -0.0850    2.7910 C   0  0  0  0  0  0  0  0  0  0  0  0
   -4.4800    0.8160    1.8870 C   0  0  0  0  0  0  0  0  0  0  0  0
   -5.5070    1.8190    1.5370 C   0  0  0  0  0  0  0  0  0  0  0  0
   -6.9080    1.3650    1.5750 C   0  0  0  0  0  0  0  0  0  0  0  0
   -5.2930    3.0620    1.1350 C   0  0  0  0  0  0  0  0  0  0  0  0
   -4.0520    3.8040    0.9140 C   0  0  0  0  0  0  0  0  0  0  0  0
   -2.7880    3.2710    1.4890 C   0  0  0  0  0  0  0  0  0  0  0  0
   -2.4480    1.9080    1.1050 N   0  0  0  0  0  0  0  0  0  0  0  0
   -3.1380    0.8050    1.2510 C   0  0  0  0  0  0  0  0  0  0  0  0
   -2.5640   -0.4400    0.8210 C   0  0  0  0  0  0  0  0  0  0  0  0
   -3.1940   -1.6590    0.8290 C   0  0  0  0  0  0  0  0  0  0  0  0
   -2.5630   -2.8330    0.4600 C   0  0  0  0  0  0  0  0  0  0  0  0
   -1.2530   -2.8410    0.0570 C   0  0  0  0  0  0  0  0  0  0  0  0
   -0.6110   -4.1430   -0.3240 C   0  0  0  0  0  0  0  0  0  0  0  0
   -0.4730   -4.1890   -1.8300 C   0  0  0  0  0  0  0  0  0  0  0  0
   -0.5720   -1.6290    0.0290 C   0  0  0  0  0  0  0  0  0  0  0  0
    0.7640   -1.6740   -0.4020 N   0  0  0  0  0  0  0  0  0  0  0  0
    1.6730   -0.5940   -0.4940 C   0  0  0  0  0  0  0  0  0  0  0  0
    1.3380    0.5600   -0.1810 O   0  0  0  0  0  0  0  0  0  0  0  0
    3.0570   -0.8940   -0.9840 C   0  0  0  0  0  0  0  0  0  0  0  0
    3.9210    0.3130   -1.0710 C   0  0  2  0  0  0  0  0  0  0  0  0
    3.3250    1.3260   -2.0040 C   0  0  0  0  0  0  0  0  0  0  0  0
    4.3240    2.2200   -2.6580 C   0  0  1  0  0  0  0  0  0  0  0  0
    3.6320    3.8110   -3.0560 Cl  0  0  0  0  0  0  0  0  0  0  0  0
    5.5670    2.3630   -1.8070 C   0  0  0  0  0  0  0  0  0  0  0  0
    6.1860    1.0270   -1.7780 C   0  0  0  0  0  0  0  0  0  0  0  0
    7.4700    0.7730   -2.0850 C   0  0  0  0  0  0  0  0  0  0  0  0
    7.9930   -0.5290   -2.0590 C   0  0  0  0  0  0  0  0  0  0  0  0
    7.1350   -1.5460   -1.7030 C   0  0  0  0  0  0  0  0  0  0  0  0
    7.7620   -3.1930   -1.6590 Cl  0  0  0  0  0  0  0  0  0  0  0  0
    5.8080   -1.2690   -1.3870 C   0  0  0  0  0  0  0  0  0  0  0  0
    5.3270   -0.0090   -1.4190 C   0  0  0  0  0  0  0  0  0  0  0  0
   -1.2180   -0.4770    0.4010 C   0  0  0  0  0  0  0  0  0  0  0  0
  1  2  1  0
  2  3  2  3
  3  4  1  0
  3 10  1  0
  4  5  1  0
  4  6  2  0
  6  7  1  0
  7  8  1  0
  8  9  1  0
  9 10  2  0
 10 11  1  0
 11 12  2  0
 11 34  1  0
 12 13  1  0
 13 14  2  0
 14 15  1  0
 14 17  1  0
 15 16  1  0
 17 18  1  0
 17 34  2  0
 18 19  1  0
 19 20  2  0
 19 21  1  0
 22 21  1  6
 22 23  1  0
 22 33  1  0
 23 24  1  0
 24 25  1  1
 24 26  1  0
 26 27  1  0
 27 28  2  0
 27 33  1  0
 28 29  1  0
 29 30  2  0
 30 31  1  0
 30 32  1  0
 32 33  2  0
M  END
