
     RDKit          3D

 34 37  0  0  0  0  0  0  0  0999 V2000
   -5.8530   -2.4940    1.7420 C   0  0  0  0  0  0  0  0  0  0  0  0
   -4.6980   -2.0900    0.8800 C   0  0  0  0  0  0  0  0  0  0  0  0
   -3.4010   -2.5150    0.9290 C   0  0  0  0  0  0  0  0  0  0  0  0
   -2.6670   -1.8590   -0.0810 C   0  0  0  0  0  0  0  0  0  0  0  0
   -1.2670   -2.0070   -0.3510 C   0  0  0  0  0  0  0  0  0  0  0  0
   -0.9220   -3.2140   -0.6490 O   0  0  0  0  0  0  0  0  0  0  0  0
   -0.2090   -1.0430   -0.3440 C   0  0  0  0  0  0  0  0  0  0  0  0
   -0.2120    0.2250   -0.0160 C   0  0  0  0  0  0  0  0  0  0  0  0
   -1.2970    1.0710    0.4600 C   0  0  0  0  0  0  0  0  0  0  0  0
   -2.0950    0.7550    1.5390 C   0  0  0  0  0  0  0  0  0  0  0  0
   -3.1340    1.5620    1.9810 C   0  0  0  0  0  0  0  0  0  0  0  0
   -3.3770    2.7400    1.3060 C   0  0  0  0  0  0  0  0  0  0  0  0
   -4.4820    3.6350    1.7480 C   0  0  0  0  0  0  0  0  0  0  0  0
   -2.6160    3.1160    0.2200 C   0  0  0  0  0  0  0  0  0  0  0  0
   -2.9010    4.4080   -0.5010 C   0  0  0  0  0  0  0  0  0  0  0  0
   -1.6020    2.2820   -0.1760 C   0  0  0  0  0  0  0  0  0  0  0  0
    1.2030    0.7760   -0.1940 C   0  0  1  0  0  0  0  0  0  0  0  0
    1.5280    1.7840    0.8660 C   0  0  0  0  0  0  0  0  0  0  0  0
    1.9560   -0.4650    0.0620 N   0  0  0  0  0  0  0  0  0  0  0  0
    3.3420   -0.3310   -0.2110 C   0  0  0  0  0  0  0  0  0  0  0  0
    3.9970   -1.6820    0.0900 C   0  0  0  0  0  0  0  0  0  0  0  0
    5.4390   -1.5680   -0.1860 C   0  0  0  0  0  0  0  0  0  0  0  0
    5.9160   -1.8540   -1.4410 C   0  0  0  0  0  0  0  0  0  0  0  0
    7.2830   -1.7500   -1.7160 C   0  0  0  0  0  0  0  0  0  0  0  0
    8.1410   -1.3570   -0.7140 C   0  0  0  0  0  0  0  0  0  0  0  0
    9.8730   -1.2100   -1.0110 Cl  0  0  0  0  0  0  0  0  0  0  0  0
    7.6830   -1.0650    0.5520 C   0  0  0  0  0  0  0  0  0  0  0  0
    8.7170   -0.5610    1.8660 Cl  0  0  0  0  0  0  0  0  0  0  0  0
    6.3100   -1.1780    0.8000 C   0  0  0  0  0  0  0  0  0  0  0  0
    1.2370   -1.3610   -0.7760 C   0  0  2  0  0  0  0  0  0  0  0  0
    1.2730   -1.0430   -2.2440 C   0  0  0  0  0  0  0  0  0  0  0  0
   -3.6030   -1.0500   -0.7010 C   0  0  0  0  0  0  0  0  0  0  0  0
   -3.2880   -0.1730   -1.8680 C   0  0  0  0  0  0  0  0  0  0  0  0
   -4.7930   -1.2110   -0.1080 N   0  0  0  0  0  0  0  0  0  0  0  0
  1  2  1  0
  2  3  2  0
  2 34  1  0
  3  4  1  0
  4  5  1  0
  4 32  2  0
  5  6  2  0
  5  7  1  0
  7  8  2  0
  7 30  1  0
  8  9  1  0
  8 17  1  0
  9 10  2  0
  9 16  1  0
 10 11  1  0
 11 12  2  0
 12 13  1  0
 12 14  1  0
 14 15  1  0
 14 16  2  0
 17 18  1  1
 17 19  1  0
 19 20  1  0
 19 30  1  0
 20 21  1  0
 21 22  1  0
 22 23  2  0
 22 29  1  0
 23 24  1  0
 24 25  2  0
 25 26  1  0
 25 27  1  0
 27 28  1  0
 27 29  2  0
 30 31  1  6
 32 33  1  0
 32 34  1  0
M  END
