
     RDKit          3D

 34 38  0  0  0  0  0  0  0  0999 V2000
   -6.1470    1.5150   -2.0010 C   0  0  0  0  0  0  0  0  0  0  0  0
   -4.9500    0.8200   -1.4390 C   0  0  0  0  0  0  0  0  0  0  0  0
   -4.9960    0.8070    0.0840 C   0  0  2  0  0  0  0  0  0  0  0  0
   -5.0220    2.1060    0.6590 N   0  0  0  0  0  0  0  0  0  0  0  0
   -3.7810    3.1720    0.2710 S   0  0  1  0  0  0  0  0  0  0  0  0
   -3.6870    3.4860   -1.1970 O   0  0  0  0  0  0  0  0  0  0  0  0
   -4.0590    4.4790    1.0070 O   0  0  0  0  0  0  0  0  0  0  0  0
   -2.2010    2.6170    0.7610 C   0  0  0  0  0  0  0  0  0  0  0  0
   -1.3470    1.9500   -0.0910 C   0  0  0  0  0  0  0  0  0  0  0  0
   -0.0860    1.5010    0.2860 C   0  0  0  0  0  0  0  0  0  0  0  0
    0.3630    1.7190    1.5720 C   0  0  0  0  0  0  0  0  0  0  0  0
    1.6840    1.2510    1.9790 C   0  0  0  0  0  0  0  0  0  0  0  0
    2.1430    1.4520    3.2360 N   0  0  0  0  0  0  0  0  0  0  0  0
    3.3570    1.0230    3.6230 C   0  0  0  0  0  0  0  0  0  0  0  0
    4.1630    0.3710    2.7540 N   0  0  0  0  0  0  0  0  0  0  0  0
    3.7420    0.1540    1.5000 C   0  0  0  0  0  0  0  0  0  0  0  0
    4.5670   -0.5410    0.5290 C   0  0  0  0  0  0  0  0  0  0  0  0
    4.0590   -0.7220   -0.7560 C   0  0  0  0  0  0  0  0  0  0  0  0
    4.7800   -1.3770   -1.7510 C   0  0  0  0  0  0  0  0  0  0  0  0
    4.2320   -1.5670   -3.1220 C   0  0  0  0  0  0  0  0  0  0  0  0
    6.0290   -1.8460   -1.4180 C   0  0  0  0  0  0  0  0  0  0  0  0
    6.5720   -1.6910   -0.1660 C   0  0  0  0  0  0  0  0  0  0  0  0
    5.7990   -1.0260    0.7870 C   0  0  0  0  0  0  0  0  0  0  0  0
    7.9220   -2.2810   -0.0690 C   0  0  0  0  0  0  0  0  0  0  0  0
    8.3150   -2.4760   -1.5170 C   0  0  0  0  0  0  0  0  0  0  0  0
    7.0130   -2.5800   -2.2830 C   0  0  0  0  0  0  0  0  0  0  0  0
    2.4980    0.6050    1.1390 N   0  0  0  0  0  0  0  0  0  0  0  0
   -0.4770    2.3810    2.4260 C   0  0  0  0  0  0  0  0  0  0  0  0
   -1.7290    2.8300    2.0620 C   0  0  0  0  0  0  0  0  0  0  0  0
   -3.8970   -0.0360    0.6350 C   0  0  0  0  0  0  0  0  0  0  0  0
   -4.3830   -1.3320    1.2560 C   0  0  0  0  0  0  0  0  0  0  0  0
   -5.3050   -2.0700    0.3170 C   0  0  0  0  0  0  0  0  0  0  0  0
   -6.4940   -1.2160   -0.0690 C   0  0  0  0  0  0  0  0  0  0  0  0
   -6.3740    0.1910    0.4100 C   0  0  0  0  0  0  0  0  0  0  0  0
  1  2  1  0
  3  2  1  6
  3  4  1  0
  3 30  1  0
  3 34  1  0
  5  4  1  6
  5  6  2  0
  5  7  2  0
  5  8  1  0
  8  9  2  0
  8 29  1  0
  9 10  1  0
 10 11  2  0
 11 12  1  0
 11 28  1  0
 12 13  2  0
 12 27  1  0
 13 14  1  0
 14 15  2  0
 15 16  1  0
 16 17  1  0
 16 27  2  0
 17 18  2  0
 17 23  1  0
 18 19  1  0
 19 20  1  0
 19 21  2  0
 21 22  1  0
 21 26  1  0
 22 23  2  0
 22 24  1  0
 24 25  1  0
 25 26  1  0
 28 29  2  0
 30 31  1  0
 31 32  1  0
 32 33  1  0
 33 34  1  0
M  CHG  1  15   1
M  END
