
     RDKit          3D

 34 37  0  0  0  0  0  0  0  0999 V2000
   -4.9720    3.8500    1.7510 C   0  0  0  0  0  0  0  0  0  0  0  0
   -4.1340    3.2180    0.9210 C   0  0  0  0  0  0  0  0  0  0  0  0
   -3.5510    1.9370    1.2760 C   0  0  0  0  0  0  0  0  0  0  0  0
   -2.7270    1.2450    0.5110 C   0  0  0  0  0  0  0  0  0  0  0  0
   -2.1500   -0.0590    0.9010 C   0  0  1  0  0  0  0  0  0  0  0  0
   -0.6720    0.0400    0.9360 C   0  0  0  0  0  0  0  0  0  0  0  0
   -0.1760    0.3410    2.0570 O   0  0  0  0  0  0  0  0  0  0  0  0
    0.2000   -0.1630   -0.1360 N   0  0  0  0  0  0  0  0  0  0  0  0
    1.6140   -0.0650   -0.1470 C   0  0  0  0  0  0  0  0  0  0  0  0
    2.3670    0.5090    0.8470 C   0  0  0  0  0  0  0  0  0  0  0  0
    3.7640    0.5470    0.7700 C   0  0  0  0  0  0  0  0  0  0  0  0
    4.4420    0.0150   -0.2990 C   0  0  0  0  0  0  0  0  0  0  0  0
    5.8940    0.0440   -0.4120 C   0  0  0  0  0  0  0  0  0  0  0  0
    6.6320    1.0870    0.1140 C   0  0  0  0  0  0  0  0  0  0  0  0
    8.0170    1.1010    0.0040 C   0  0  0  0  0  0  0  0  0  0  0  0
    8.6760    0.0760   -0.6300 C   0  0  0  0  0  0  0  0  0  0  0  0
    7.9610   -0.9860   -1.1670 C   0  0  0  0  0  0  0  0  0  0  0  0
    8.7600   -2.3190   -1.9850 Cl  0  0  0  0  0  0  0  0  0  0  0  0
    6.5800   -0.9730   -1.0430 C   0  0  0  0  0  0  0  0  0  0  0  0
    3.6830   -0.5560   -1.2880 C   0  0  0  0  0  0  0  0  0  0  0  0
    2.3250   -0.5990   -1.2240 C   0  0  0  0  0  0  0  0  0  0  0  0
   -2.6230   -0.5330    2.2340 C   0  0  0  0  0  0  0  0  0  0  0  0
   -2.0110   -1.8730    2.5380 C   0  0  0  0  0  0  0  0  0  0  0  0
   -2.1200   -2.8650    1.4250 C   0  0  0  0  0  0  0  0  0  0  0  0
   -1.8660   -2.2830    0.1630 N   0  0  0  0  0  0  0  0  0  0  0  0
   -1.7820   -3.1790   -0.9240 C   0  0  0  0  0  0  0  0  0  0  0  0
   -0.5490   -4.0670   -0.8660 C   0  0  0  0  0  0  0  0  0  0  0  0
   -2.5460   -1.0850   -0.1610 C   0  0  1  0  0  0  0  0  0  0  0  0
   -4.0550   -1.2060   -0.2330 C   0  0  0  0  0  0  0  0  0  0  0  0
   -4.5890   -2.3740   -1.4570 Cl  0  0  0  0  0  0  0  0  0  0  0  0
   -2.3940    1.8300   -0.7700 C   0  0  0  0  0  0  0  0  0  0  0  0
   -2.8840    3.0000   -1.1630 C   0  0  0  0  0  0  0  0  0  0  0  0
   -2.4670    3.5150   -2.5220 C   0  0  0  0  0  0  0  0  0  0  0  0
   -3.8010    3.8380   -0.3780 C   0  0  0  0  0  0  0  0  0  0  0  0
  1  2  2  0
  2  3  1  0
  2 34  1  0
  3  4  2  0
  4  5  1  0
  4 31  1  0
  5  6  1  1
  5 22  1  0
  5 28  1  0
  6  7  2  0
  6  8  1  0
  8  9  1  0
  9 10  2  0
  9 21  1  0
 10 11  1  0
 11 12  2  0
 12 13  1  0
 12 20  1  0
 13 14  2  0
 13 19  1  0
 14 15  1  0
 15 16  2  0
 16 17  1  0
 17 18  1  0
 17 19  2  0
 20 21  2  0
 22 23  1  0
 23 24  1  0
 24 25  1  0
 25 26  1  0
 25 28  1  0
 26 27  1  0
 28 29  1  1
 29 30  1  0
 31 32  2  0
 32 33  1  0
 32 34  1  0
M  END
