
     RDKit          3D

 41 44  0  0  0  0  0  0  0  0999 V2000
  -10.8070    2.9180    3.1950 C   0  0  0  0  0  0  0  0  0  0  0  0
   -9.4990    2.4160    2.5670 C   0  0  2  0  0  0  0  0  0  0  0  0
   -9.7110    2.2910    1.1130 C   0  0  0  0  0  0  0  0  0  0  0  0
   -8.5610    1.8410    0.3700 N   0  0  0  0  0  0  0  0  0  0  0  0
   -7.7460    0.7140    0.7680 C   0  0  0  0  0  0  0  0  0  0  0  0
   -6.7270    0.4720   -0.0690 N   0  0  0  0  0  0  0  0  0  0  0  0
   -5.8620   -0.5600    0.1650 C   0  0  0  0  0  0  0  0  0  0  0  0
   -4.7330   -0.8110   -0.7930 C   0  0  0  0  0  0  0  0  0  0  0  0
   -3.5240   -0.0040   -0.3820 C   0  0  1  0  0  0  0  0  0  0  0  0
   -3.0220   -0.3410    0.9860 C   0  0  0  0  0  0  0  0  0  0  0  0
   -1.4820   -0.2180    0.9840 C   0  0  0  0  0  0  0  0  0  0  0  0
   -0.9990   -1.3510    0.0930 C   0  0  0  0  0  0  0  0  0  0  0  0
   -1.6340   -1.2000   -1.2580 C   0  0  2  0  0  0  0  0  0  0  0  0
   -0.5530   -1.1200   -2.2650 C   0  0  0  0  0  0  0  0  0  0  0  0
   -0.4590   -0.1000   -2.9800 O   0  0  0  0  0  0  0  0  0  0  0  0
    0.3480   -2.1430   -2.4300 O   0  0  0  0  0  0  0  0  0  0  0  0
    1.3740   -2.0820   -3.3770 C   0  0  0  0  0  0  0  0  0  0  0  0
    2.3170   -0.9700   -3.1720 C   0  0  0  0  0  0  0  0  0  0  0  0
    2.1740   -0.1970   -2.2110 O   0  0  0  0  0  0  0  0  0  0  0  0
    3.3580   -0.7950   -4.0520 O   0  0  0  0  0  0  0  0  0  0  0  0
    4.3180    0.2270   -3.9490 C   0  0  0  0  0  0  0  0  0  0  0  0
    5.1060    0.1410   -2.6600 C   0  0  0  0  0  0  0  0  0  0  0  0
    5.8440   -1.1730   -2.5530 C   0  0  1  0  0  0  0  0  0  0  0  0
    6.8190   -1.3550   -3.7010 C   0  0  0  0  0  0  0  0  0  0  0  0
    6.6060   -1.2170   -1.3650 O   0  0  0  0  0  0  0  0  0  0  0  0
    6.4080   -2.2210   -0.4050 C   0  0  0  0  0  0  0  0  0  0  0  0
    5.5360   -3.0780   -0.6260 O   0  0  0  0  0  0  0  0  0  0  0  0
    7.2400   -2.2380    0.8420 C   0  0  0  0  0  0  0  0  0  0  0  0
    8.3780   -0.8230    0.8060 S   0  0  0  0  0  0  0  0  0  0  0  0
    7.4710    0.7420    0.9360 C   0  0  1  0  0  0  0  0  0  0  0  0
    6.8560    0.7750    2.3390 C   0  0  0  0  0  0  0  0  0  0  0  0
    8.1390    0.6940    3.1720 C   0  0  0  0  0  0  0  0  0  0  0  0
    9.0420    1.6870    2.4730 C   0  0  0  0  0  0  0  0  0  0  0  0
    8.4860    1.8640    1.0740 C   0  0  1  0  0  0  0  0  0  0  0  0
    9.4350    1.8390    0.0840 O   0  0  0  0  0  0  0  0  0  0  0  0
   -2.4770   -0.0490   -1.3810 N   0  0  0  0  0  0  0  0  0  0  0  0
   -6.0750   -1.3350    1.2820 C   0  0  0  0  0  0  0  0  0  0  0  0
   -7.1040   -1.1390    2.1830 C   0  0  0  0  0  0  0  0  0  0  0  0
   -7.9440   -0.0860    1.8980 C   0  0  0  0  0  0  0  0  0  0  0  0
   -9.0520    0.1260    2.8790 C   0  0  0  0  0  0  0  0  0  0  0  0
   -8.9740    1.4200    3.2880 O   0  0  0  0  0  0  0  0  0  0  0  0
  2  1  1  1
  2  3  1  0
  2 41  1  0
  3  4  1  0
  4  5  1  0
  5  6  2  0
  5 39  1  0
  6  7  1  0
  7  8  1  0
  7 37  2  0
  9  8  1  6
  9 10  1  0
  9 36  1  0
 10 11  1  0
 11 12  1  0
 12 13  1  0
 13 14  1  6
 13 36  1  0
 14 15  2  0
 14 16  1  0
 16 17  1  0
 17 18  1  0
 18 19  2  0
 18 20  1  0
 20 21  1  0
 21 22  1  0
 22 23  1  0
 23 24  1  6
 23 25  1  0
 25 26  1  0
 26 27  2  0
 26 28  1  0
 28 29  1  0
 30 29  1  1
 30 31  1  0
 30 34  1  0
 31 32  1  0
 32 33  1  0
 33 34  1  0
 34 35  1  6
 37 38  1  0
 38 39  2  0
 39 40  1  0
 40 41  1  0
M  CHG  1  36   1
M  END
