
     RDKit          3D

 41 44  0  0  0  0  0  0  0  0999 V2000
   -6.6540    4.6860   -1.0880 N   0  0  0  0  0  0  0  0  0  0  0  0
   -5.8550    3.6420   -0.5440 C   0  0  0  0  0  0  0  0  0  0  0  0
   -6.4920    2.5030   -0.0520 C   0  0  0  0  0  0  0  0  0  0  0  0
   -5.6840    1.5300    0.4600 C   0  0  0  0  0  0  0  0  0  0  0  0
   -4.3110    1.5970    0.5210 C   0  0  0  0  0  0  0  0  0  0  0  0
   -3.4180    0.2800    1.2020 S   0  0  1  0  0  0  0  0  0  0  0  0
   -2.2080    0.8980    1.8940 O   0  0  0  0  0  0  0  0  0  0  0  0
   -4.2410   -0.3110    2.3080 O   0  0  0  0  0  0  0  0  0  0  0  0
   -2.9720   -0.9010    0.1090 N   0  0  0  0  0  0  0  0  0  0  0  0
   -2.1230   -0.5290   -0.9570 C   0  0  0  0  0  0  0  0  0  0  0  0
   -0.6490   -0.6570   -0.6600 C   0  0  0  0  0  0  0  0  0  0  0  0
    0.1550   -0.2570   -1.8120 N   0  0  0  0  0  0  0  0  0  0  0  0
    1.3240   -1.0750   -1.8540 C   0  0  0  0  0  0  0  0  0  0  0  0
    2.5440   -0.5710   -1.1920 C   0  0  0  0  0  0  0  0  0  0  0  0
    2.5680   -0.2940    0.1640 N   0  0  0  0  0  0  0  0  0  0  0  0
    2.6230   -1.3830    1.0740 C   0  0  0  0  0  0  0  0  0  0  0  0
    4.0280   -1.8690    1.3160 C   0  0  0  0  0  0  0  0  0  0  0  0
    4.5530   -2.8870    0.5290 C   0  0  0  0  0  0  0  0  0  0  0  0
    5.8360   -3.3420    0.7380 C   0  0  0  0  0  0  0  0  0  0  0  0
    6.6520   -2.8200    1.7220 C   0  0  0  0  0  0  0  0  0  0  0  0
    6.1180   -1.8130    2.4940 C   0  0  0  0  0  0  0  0  0  0  0  0
    4.8370   -1.3470    2.2970 C   0  0  0  0  0  0  0  0  0  0  0  0
    2.5740    1.2440    0.7670 S   0  0  1  0  0  0  0  0  0  0  0  0
    1.3990    2.0480    0.3120 O   0  0  0  0  0  0  0  0  0  0  0  0
    2.5160    1.2410    2.2880 O   0  0  0  0  0  0  0  0  0  0  0  0
    4.0080    2.1280    0.2430 C   0  0  0  0  0  0  0  0  0  0  0  0
    4.0220    2.8560   -0.9170 C   0  0  0  0  0  0  0  0  0  0  0  0
    5.1620    3.5260   -1.2830 C   0  0  0  0  0  0  0  0  0  0  0  0
    6.2970    3.4820   -0.5050 C   0  0  0  0  0  0  0  0  0  0  0  0
    7.4760    4.1970   -0.9200 N   0  0  0  0  0  0  0  0  0  0  0  0
    6.2750    2.7500    0.6560 C   0  0  0  0  0  0  0  0  0  0  0  0
    5.1280    2.0670    1.0380 C   0  0  0  0  0  0  0  0  0  0  0  0
   -3.0680   -2.2470    0.4470 C   0  0  0  0  0  0  0  0  0  0  0  0
   -4.3930   -2.8270    0.0600 C   0  0  0  0  0  0  0  0  0  0  0  0
   -4.6610   -3.1300   -1.2570 C   0  0  0  0  0  0  0  0  0  0  0  0
   -5.8810   -3.6690   -1.6030 C   0  0  0  0  0  0  0  0  0  0  0  0
   -6.8720   -3.9270   -0.6820 C   0  0  0  0  0  0  0  0  0  0  0  0
   -6.5700   -3.6100    0.6280 C   0  0  0  0  0  0  0  0  0  0  0  0
   -5.3580   -3.0700    1.0120 C   0  0  0  0  0  0  0  0  0  0  0  0
   -3.6960    2.7270    0.0320 C   0  0  0  0  0  0  0  0  0  0  0  0
   -4.4800    3.7350   -0.4940 C   0  0  0  0  0  0  0  0  0  0  0  0
  1  2  1  0
  2  3  2  0
  2 41  1  0
  3  4  1  0
  4  5  2  0
  5  6  1  0
  5 40  1  0
  6  7  2  0
  6  8  2  0
  6  9  1  6
  9 10  1  0
  9 33  1  0
 10 11  1  0
 11 12  1  0
 12 13  1  0
 13 14  1  0
 14 15  1  0
 15 16  1  0
 23 15  1  6
 16 17  1  0
 17 18  2  0
 17 22  1  0
 18 19  1  0
 19 20  2  0
 20 21  1  0
 21 22  2  0
 23 24  2  0
 23 25  2  0
 23 26  1  0
 26 27  2  0
 26 32  1  0
 27 28  1  0
 28 29  2  0
 29 30  1  0
 29 31  1  0
 31 32  2  0
 33 34  1  0
 34 35  2  0
 34 39  1  0
 35 36  1  0
 36 37  2  0
 37 38  1  0
 38 39  2  0
 40 41  2  0
M  CHG  1  12   1
M  END
