
     RDKit          3D

 41 44  0  0  0  0  0  0  0  0999 V2000
    3.1850   -0.7030   -3.2230 C   0  0  0  0  0  0  0  0  0  0  0  0
    2.2150    0.1350   -2.6590 O   0  0  0  0  0  0  0  0  0  0  0  0
    1.8800    0.0500   -1.3100 C   0  0  0  0  0  0  0  0  0  0  0  0
    2.5430   -0.8990   -0.5360 C   0  0  0  0  0  0  0  0  0  0  0  0
    2.2510   -1.0260    0.8040 C   0  0  0  0  0  0  0  0  0  0  0  0
    2.8710   -1.9460    1.6340 O   0  0  0  0  0  0  0  0  0  0  0  0
    3.8570   -2.7950    1.1520 C   0  0  0  0  0  0  0  0  0  0  0  0
    5.0060   -1.9800    0.6660 C   0  0  0  0  0  0  0  0  0  0  0  0
    5.2530   -0.6440    0.8740 C   0  0  0  0  0  0  0  0  0  0  0  0
    6.4310   -0.3230    0.2380 C   0  0  0  0  0  0  0  0  0  0  0  0
    6.8600   -1.4990   -0.3420 C   0  0  0  0  0  0  0  0  0  0  0  0
    5.9890   -2.4460   -0.0630 O   0  0  0  0  0  0  0  0  0  0  0  0
    7.9830   -1.5560   -1.0470 C   0  0  0  0  0  0  0  0  0  0  0  0
    8.8470   -0.3880   -1.2620 C   0  0  2  0  0  0  0  0  0  0  0  0
   10.2190   -0.6780   -0.6900 C   0  0  0  0  0  0  0  0  0  0  0  0
    8.3240    0.8320   -0.6120 C   0  0  0  0  0  0  0  0  0  0  0  0
    8.9910    1.9030   -0.7330 O   0  0  0  0  0  0  0  0  0  0  0  0
    7.1160    0.7860    0.1170 N   0  0  0  0  0  0  0  0  0  0  0  0
    1.2810   -0.1880    1.3670 C   0  0  0  0  0  0  0  0  0  0  0  0
    0.9920   -0.3280    2.7390 O   0  0  0  0  0  0  0  0  0  0  0  0
    1.7140    0.4250    3.6870 C   0  0  0  0  0  0  0  0  0  0  0  0
    0.6480    0.7320    0.5850 C   0  0  0  0  0  0  0  0  0  0  0  0
   -0.3640    1.6130    1.1630 C   0  0  0  0  0  0  0  0  0  0  0  0
    0.0140    2.6970    1.6260 O   0  0  0  0  0  0  0  0  0  0  0  0
   -1.7400    1.2690    1.2070 N   0  0  0  0  0  0  0  0  0  0  0  0
   -2.6740    2.2000    1.7960 C   0  0  0  0  0  0  0  0  0  0  0  0
   -3.3790    3.0220    0.7070 C   0  0  1  0  0  0  0  0  0  0  0  0
   -2.6070    4.2390    0.3260 C   0  0  0  0  0  0  0  0  0  0  0  0
   -3.5410    1.8550   -0.7040 S   0  0  0  0  0  0  0  0  0  0  0  0
   -3.5730    0.2070    0.1050 C   0  0  1  0  0  0  0  0  0  0  0  0
   -4.0080   -0.7670   -0.7360 O   0  0  0  0  0  0  0  0  0  0  0  0
   -5.1980   -1.4030   -0.3440 C   0  0  0  0  0  0  0  0  0  0  0  0
   -6.3450   -0.4800   -0.2630 C   0  0  0  0  0  0  0  0  0  0  0  0
   -7.6600   -0.9640    0.1730 C   0  0  1  0  0  0  0  0  0  0  0  0
   -8.6060    0.2660    0.1420 C   0  0  0  0  0  0  0  0  0  0  0  0
   -8.2600   -2.0890   -0.5830 C   0  0  0  0  0  0  0  0  0  0  0  0
   -7.5350   -3.3270   -0.5780 N   0  0  0  0  0  0  0  0  0  0  0  0
   -2.1860   -0.0220    0.6570 C   0  0  0  0  0  0  0  0  0  0  0  0
    0.9270    0.8710   -0.7490 C   0  0  0  0  0  0  0  0  0  0  0  0
    0.2790    1.8130   -1.5480 O   0  0  0  0  0  0  0  0  0  0  0  0
    0.7840    3.1250   -1.7130 C   0  0  0  0  0  0  0  0  0  0  0  0
  1  2  1  0
  2  3  1  0
  3  4  2  0
  3 39  1  0
  4  5  1  0
  5  6  1  0
  5 19  2  0
  6  7  1  0
  7  8  1  0
  8  9  2  0
  8 12  1  0
  9 10  1  0
 10 11  1  0
 10 18  2  0
 11 12  1  0
 11 13  2  0
 13 14  1  0
 14 15  1  1
 14 16  1  0
 16 17  2  0
 16 18  1  0
 19 20  1  0
 19 22  1  0
 20 21  1  0
 22 23  1  0
 22 39  2  0
 23 24  2  0
 23 25  1  0
 25 26  1  0
 25 38  1  0
 26 27  1  0
 27 28  1  6
 27 29  1  0
 29 30  1  0
 30 31  1  6
 30 38  1  0
 31 32  1  0
 32 33  1  0
 33 34  1  0
 34 35  1  6
 34 36  1  0
 36 37  1  0
 39 40  1  0
 40 41  1  0
M  CHG  1  37   1
M  END
