
     RDKit          3D

 41 45  0  0  0  0  0  0  0  0999 V2000
   -3.9590   -0.8020    0.3010 C   0  0  0  0  0  0  0  0  0  0  0  0
   -4.9700    0.0660   -0.4040 C   0  0  1  0  0  0  0  0  0  0  0  0
   -4.7890   -0.0760   -1.8970 C   0  0  0  0  0  0  0  0  0  0  0  0
   -3.6480    0.3750   -2.3610 O   0  0  0  0  0  0  0  0  0  0  0  0
   -2.3540    0.4860   -2.5510 C   0  0  0  0  0  0  0  0  0  0  0  0
   -1.4170   -0.3410   -1.9620 C   0  0  0  0  0  0  0  0  0  0  0  0
   -0.0820   -0.1540   -2.2120 C   0  0  0  0  0  0  0  0  0  0  0  0
    0.9340   -1.0270   -1.5900 C   0  0  0  0  0  0  0  0  0  0  0  0
    2.1170   -0.7960   -1.8720 O   0  0  0  0  0  0  0  0  0  0  0  0
    0.4290   -2.0760   -0.7020 C   0  0  0  0  0  0  0  0  0  0  0  0
    1.4190   -2.9200   -0.0120 C   0  0  0  0  0  0  0  0  0  0  0  0
    2.3030   -2.2230    0.8850 N   0  0  0  0  0  0  0  0  0  0  0  0
    1.9580   -1.9510    2.2590 C   0  0  0  0  0  0  0  0  0  0  0  0
    0.8520   -2.2470    2.8060 O   0  0  0  0  0  0  0  0  0  0  0  0
    3.0030   -1.3080    2.9370 N   0  0  0  0  0  0  0  0  0  0  0  0
    3.9770   -0.9600    1.9420 C   0  0  2  0  0  0  0  0  0  0  0  0
    5.3790   -1.4380    2.3810 C   0  0  0  0  0  0  0  0  0  0  0  0
    5.7930   -0.6760    3.6240 C   0  0  0  0  0  0  0  0  0  0  0  0
    5.8210    0.6990    3.4070 O   0  0  0  0  0  0  0  0  0  0  0  0
    4.5560    1.1080    3.0370 C   0  0  0  0  0  0  0  0  0  0  0  0
    4.1320    0.5150    1.7020 C   0  0  1  0  0  0  0  0  0  0  0  0
    5.0910    0.7030    0.7300 O   0  0  0  0  0  0  0  0  0  0  0  0
    4.7440    1.4580   -0.3360 C   0  0  0  0  0  0  0  0  0  0  0  0
    5.9320    1.5560   -1.2600 C   0  0  0  0  0  0  0  0  0  0  0  0
    6.5670    2.6280   -1.6470 C   0  0  0  0  0  0  0  0  0  0  0  0
    7.6720    2.2620   -2.5540 C   0  0  0  0  0  0  0  0  0  0  0  0
    7.5830    0.7970   -2.6370 C   0  0  0  0  0  0  0  0  0  0  0  0
    6.5690    0.4210   -1.8790 C   0  0  0  0  0  0  0  0  0  0  0  0
    3.6060   -1.7240    0.7330 C   0  0  0  0  0  0  0  0  0  0  0  0
    4.3610   -1.8770   -0.2380 O   0  0  0  0  0  0  0  0  0  0  0  0
    0.3350    0.8510   -3.0450 C   0  0  0  0  0  0  0  0  0  0  0  0
   -0.5680    1.6990   -3.6540 C   0  0  0  0  0  0  0  0  0  0  0  0
   -1.8850    1.5150   -3.4070 C   0  0  0  0  0  0  0  0  0  0  0  0
   -2.8360    2.3420   -3.9950 O   0  0  0  0  0  0  0  0  0  0  0  0
   -6.2650   -0.4290    0.0300 N   0  0  0  0  0  0  0  0  0  0  0  0
   -7.3850    0.3320   -0.3960 C   0  0  1  0  0  0  0  0  0  0  0  0
   -8.6330   -0.4420   -0.0250 C   0  0  0  0  0  0  0  0  0  0  0  0
   -8.7050   -0.4550    1.4950 C   0  0  0  0  0  0  0  0  0  0  0  0
   -8.2580    1.2780    1.8380 S   0  0  0  0  0  0  0  0  0  0  0  0
   -7.2380    1.3770    2.9530 O   0  0  0  0  0  0  0  0  0  0  0  0
   -7.4990    1.6910    0.2350 C   0  0  0  0  0  0  0  0  0  0  0  0
  2  1  1  1
  2  3  1  0
  2 35  1  0
  3  4  1  0
  4  5  1  0
  5  6  2  0
  5 33  1  0
  6  7  1  0
  7  8  1  0
  7 31  2  0
  8  9  2  0
  8 10  1  0
 10 11  1  0
 11 12  1  0
 12 13  1  0
 12 29  1  0
 13 14  2  0
 13 15  1  0
 15 16  1  0
 16 17  1  1
 16 21  1  0
 16 29  1  0
 17 18  1  0
 18 19  1  0
 19 20  1  0
 20 21  1  0
 21 22  1  6
 22 23  1  0
 23 24  1  0
 24 25  2  0
 24 28  1  0
 25 26  1  0
 26 27  1  0
 27 28  2  0
 29 30  2  0
 31 32  1  0
 32 33  2  0
 33 34  1  0
 36 35  1  1
 36 37  1  0
 36 41  1  0
 37 38  1  0
 39 38  1  6
 39 40  2  0
 39 41  1  0
M  CHG  1  35   1
M  END
