
     RDKit          3D

 40 43  0  0  0  0  0  0  0  0999 V2000
    3.3210    0.0270    3.7810 C   0  0  0  0  0  0  0  0  0  0  0  0
    2.1910   -0.8130    3.1700 C   0  0  0  0  0  0  0  0  0  0  0  0
    1.5690   -0.1210    2.0030 C   0  0  0  0  0  0  0  0  0  0  0  0
    0.4650   -0.9290    1.4000 C   0  0  1  0  0  0  0  0  0  0  0  0
   -0.6280   -1.2080    2.3660 C   0  0  0  0  0  0  0  0  0  0  0  0
   -1.7940   -0.5050    1.7570 N   0  0  0  0  0  0  0  0  0  0  0  0
   -2.7660    0.1830    2.4710 C   0  0  0  0  0  0  0  0  0  0  0  0
   -2.5250    0.1730    3.7960 O   0  0  0  0  0  0  0  0  0  0  0  0
   -3.9590    0.9020    2.1750 C   0  0  0  0  0  0  0  0  0  0  0  0
   -4.4660    1.0580    0.8300 N   0  0  2  0  0  0  0  0  0  0  0  0
   -5.3460    2.2100    0.9280 C   0  0  0  0  0  0  0  0  0  0  0  0
   -5.8210    2.8580   -0.2940 C   0  0  0  0  0  0  0  0  0  0  0  0
   -4.8050    3.4160   -1.2280 C   0  0  0  0  0  0  0  0  0  0  0  0
   -3.9080    2.5280   -1.7560 O   0  0  0  0  0  0  0  0  0  0  0  0
   -5.1080   -0.1390    0.4270 C   0  0  1  0  0  0  0  0  0  0  0  0
   -6.4530   -0.4020    1.0720 C   0  0  0  0  0  0  0  0  0  0  0  0
   -5.1570   -0.3880   -1.0580 C   0  0  0  0  0  0  0  0  0  0  0  0
   -5.8290   -1.6140   -1.2520 O   0  0  0  0  0  0  0  0  0  0  0  0
   -1.6120   -0.7310    0.3670 C   0  0  0  0  0  0  0  0  0  0  0  0
   -0.1550   -0.2380    0.2050 C   0  0  1  0  0  0  0  0  0  0  0  0
   -0.0920    1.1260    0.2540 O   0  0  0  0  0  0  0  0  0  0  0  0
    0.4040   -0.8850   -1.0170 C   0  0  0  0  0  0  0  0  0  0  0  0
    1.5170   -1.6450   -0.5430 N   0  0  0  0  0  0  0  0  0  0  0  0
    2.7750   -1.8620   -1.0970 C   0  0  0  0  0  0  0  0  0  0  0  0
    3.5070   -2.6970   -0.4400 O   0  0  0  0  0  0  0  0  0  0  0  0
    3.3830   -1.3140   -2.2790 C   0  0  0  0  0  0  0  0  0  0  0  0
    4.5610   -1.7170   -2.7340 C   0  0  0  0  0  0  0  0  0  0  0  0
    5.4150   -2.7230   -2.1770 C   0  0  0  0  0  0  0  0  0  0  0  0
    6.7880   -2.5340   -1.9990 C   0  0  0  0  0  0  0  0  0  0  0  0
    7.2740   -3.6830   -1.4590 C   0  0  0  0  0  0  0  0  0  0  0  0
    6.2150   -4.5420   -1.3180 C   0  0  0  0  0  0  0  0  0  0  0  0
    5.1440   -3.9060   -1.7640 O   0  0  0  0  0  0  0  0  0  0  0  0
    2.6830    0.0990   -3.1780 S   0  0  0  0  0  0  0  0  0  0  0  0
    2.7170    1.5800   -2.0890 C   0  0  0  0  0  0  0  0  0  0  0  0
    4.1230    1.9920   -1.8450 C   0  0  0  0  0  0  0  0  0  0  0  0
    4.8720    2.8700   -2.5850 C   0  0  0  0  0  0  0  0  0  0  0  0
    6.1250    2.9510   -1.9890 C   0  0  0  0  0  0  0  0  0  0  0  0
    6.0550    2.1050   -0.9080 C   0  0  0  0  0  0  0  0  0  0  0  0
    4.8600    1.5600   -0.8590 O   0  0  0  0  0  0  0  0  0  0  0  0
    1.0170   -2.1840    0.7540 C   0  0  0  0  0  0  0  0  0  0  0  0
  1  2  1  0
  2  3  1  0
  4  3  1  1
  4  5  1  0
  4 20  1  0
  4 40  1  0
  5  6  1  0
  6  7  1  0
  6 19  1  0
  7  8  2  0
  7  9  1  0
 10  9  1  1
 10 11  1  0
 10 15  1  0
 11 12  1  0
 12 13  1  0
 13 14  1  0
 15 16  1  6
 15 17  1  0
 17 18  1  0
 19 20  1  0
 20 21  1  6
 20 22  1  0
 22 23  1  0
 23 24  1  0
 23 40  1  0
 24 25  2  0
 24 26  1  0
 26 27  2  3
 26 33  1  0
 27 28  1  0
 28 29  2  0
 28 32  1  0
 29 30  1  0
 30 31  2  0
 31 32  1  0
 33 34  1  0
 34 35  1  0
 35 36  2  0
 35 39  1  0
 36 37  1  0
 37 38  2  0
 38 39  1  0
M  CHG  1  10   1
M  END
