
     RDKit          3D

 41 44  0  0  0  0  0  0  0  0999 V2000
   -8.3480    2.8910   -0.0470 C   0  0  0  0  0  0  0  0  0  0  0  0
   -7.0640    2.6660   -1.2800 S   0  0  0  0  0  0  0  0  0  0  0  0
   -5.4300    3.1490   -0.7050 C   0  0  0  0  0  0  0  0  0  0  0  0
   -4.8570    2.3330    0.3750 C   0  0  0  0  0  0  0  0  0  0  0  0
   -4.5840    0.9030    0.1860 C   0  0  1  0  0  0  0  0  0  0  0  0
   -3.9900    0.3360    1.4810 C   0  0  0  0  0  0  0  0  0  0  0  0
   -5.1540   -0.0160    2.4060 C   0  0  0  0  0  0  0  0  0  0  0  0
   -5.8860   -1.1360    1.7500 C   0  0  0  0  0  0  0  0  0  0  0  0
   -6.4640   -0.7070    0.5220 N   0  0  2  0  0  0  0  0  0  0  0  0
   -6.9870   -1.8460   -0.2370 C   0  0  0  0  0  0  0  0  0  0  0  0
   -8.2710   -1.5170   -0.9530 C   0  0  2  0  0  0  0  0  0  0  0  0
   -9.4820   -1.0910   -0.1930 C   0  0  0  0  0  0  0  0  0  0  0  0
   -9.4300   -2.4720   -0.7970 C   0  0  0  0  0  0  0  0  0  0  0  0
   -5.6070   -0.0070   -0.3860 C   0  0  2  0  0  0  0  0  0  0  0  0
   -4.4350   -0.8500   -0.9020 C   0  0  0  0  0  0  0  0  0  0  0  0
   -3.6910    0.5040   -0.9550 C   0  0  2  0  0  0  0  0  0  0  0  0
   -2.3160    0.3320   -0.6970 O   0  0  0  0  0  0  0  0  0  0  0  0
   -1.4060    0.6800   -1.6810 C   0  0  0  0  0  0  0  0  0  0  0  0
   -1.8730    1.1470   -2.7590 O   0  0  0  0  0  0  0  0  0  0  0  0
    0.0430    0.5490   -1.5770 C   0  0  2  0  0  0  0  0  0  0  0  0
    0.4150   -0.5210   -2.6600 C   0  0  0  0  0  0  0  0  0  0  0  0
    0.5360    0.0270   -0.3880 O   0  0  0  0  0  0  0  0  0  0  0  0
    1.6530    0.4840    0.2520 C   0  0  0  0  0  0  0  0  0  0  0  0
    2.3150    1.4300   -0.2230 O   0  0  0  0  0  0  0  0  0  0  0  0
    2.0230   -0.2140    1.5250 C   0  0  0  0  0  0  0  0  0  0  0  0
    3.4510   -0.0200    1.7210 N   0  0  0  0  0  0  0  0  0  0  0  0
    4.3480   -0.5120    0.7400 C   0  0  0  0  0  0  0  0  0  0  0  0
    3.8920   -1.0840   -0.2620 O   0  0  0  0  0  0  0  0  0  0  0  0
    5.8110   -0.3680    0.8730 C   0  0  0  0  0  0  0  0  0  0  0  0
    6.3100    0.2140    1.8570 O   0  0  0  0  0  0  0  0  0  0  0  0
    6.6670   -0.8960   -0.1210 N   0  0  0  0  0  0  0  0  0  0  0  0
    8.0790   -0.8630   -0.1360 C   0  0  0  0  0  0  0  0  0  0  0  0
    8.8960   -0.4790    0.8840 C   0  0  0  0  0  0  0  0  0  0  0  0
   10.2780   -0.4860    0.8100 C   0  0  0  0  0  0  0  0  0  0  0  0
   10.9050   -0.8930   -0.3360 C   0  0  0  0  0  0  0  0  0  0  0  0
   12.2430   -0.9420   -0.5290 O   0  0  0  0  0  0  0  0  0  0  0  0
   13.2410   -0.5790    0.3330 C   0  0  0  0  0  0  0  0  0  0  0  0
   13.3250    0.8800    0.6950 C   0  0  0  0  0  0  0  0  0  0  0  0
   13.5310    1.6740   -0.4410 O   0  0  0  0  0  0  0  0  0  0  0  0
   10.0770   -1.2950   -1.4050 C   0  0  0  0  0  0  0  0  0  0  0  0
    8.7150   -1.2800   -1.3100 C   0  0  0  0  0  0  0  0  0  0  0  0
  1  2  1  0
  2  3  1  0
  3  4  1  0
  5  4  1  1
  5  6  1  0
  5 14  1  0
  5 16  1  0
  6  7  1  0
  7  8  1  0
  8  9  1  0
  9 10  1  6
  9 14  1  0
 11 10  1  1
 11 12  1  0
 11 13  1  0
 12 13  1  0
 14 15  1  1
 15 16  1  0
 16 17  1  1
 17 18  1  0
 18 19  2  0
 18 20  1  0
 20 21  1  6
 20 22  1  0
 22 23  1  0
 23 24  2  0
 23 25  1  0
 25 26  1  0
 26 27  1  0
 27 28  2  0
 27 29  1  0
 29 30  2  0
 29 31  1  0
 31 32  1  0
 32 33  2  0
 32 41  1  0
 33 34  1  0
 34 35  2  0
 35 36  1  0
 35 40  1  0
 36 37  1  0
 37 38  1  0
 38 39  1  0
 40 41  2  0
M  CHG  1   9   1
M  END
