
     RDKit          3D

 41 44  0  0  0  0  0  0  0  0999 V2000
   -0.5950   -2.3360   -2.4950 C   0  0  0  0  0  0  0  0  0  0  0  0
   -0.2880   -1.0240   -1.8690 C   0  0  0  0  0  0  0  0  0  0  0  0
   -0.7420   -0.8410   -0.4560 C   0  0  2  0  0  0  0  0  0  0  0  0
   -0.1440   -1.8790    0.4590 C   0  0  0  0  0  0  0  0  0  0  0  0
    1.3090   -1.7370    0.3980 N   0  0  0  0  0  0  0  0  0  0  0  0
    1.9390   -2.1660    1.6130 C   0  0  0  0  0  0  0  0  0  0  0  0
    3.3680   -2.5880    1.4580 C   0  0  1  0  0  0  0  0  0  0  0  0
    3.5070   -3.6370    0.5510 O   0  0  0  0  0  0  0  0  0  0  0  0
    4.2800   -1.5000    1.0220 C   0  0  0  0  0  0  0  0  0  0  0  0
    4.1730   -0.1370    0.9920 C   0  0  0  0  0  0  0  0  0  0  0  0
    5.2050    0.5680    0.5120 C   0  0  0  0  0  0  0  0  0  0  0  0
    6.2940   -0.0620    0.0820 C   0  0  0  0  0  0  0  0  0  0  0  0
    7.5570    0.4030   -0.4830 C   0  0  0  0  0  0  0  0  0  0  0  0
    8.4120   -0.4580   -0.7990 O   0  0  0  0  0  0  0  0  0  0  0  0
    7.8720    1.7110   -0.6920 O   0  0  0  0  0  0  0  0  0  0  0  0
    9.0480    2.2130   -1.2220 C   0  0  2  0  0  0  0  0  0  0  0  0
    9.8050    3.1450   -0.3310 C   0  0  0  0  0  0  0  0  0  0  0  0
   10.2180    2.4890    0.9750 C   0  0  0  0  0  0  0  0  0  0  0  0
    8.8140    2.9200   -2.5440 C   0  0  0  0  0  0  0  0  0  0  0  0
    9.9910    3.4220   -3.0720 O   0  0  0  0  0  0  0  0  0  0  0  0
    5.8920   -1.8040    0.3500 S   0  0  0  0  0  0  0  0  0  0  0  0
   -2.1920   -0.5760   -0.2670 C   0  0  2  0  0  0  0  0  0  0  0  0
   -2.5050   -0.3860    1.1750 C   0  0  0  0  0  0  0  0  0  0  0  0
   -3.7530   -0.3980    1.5680 C   0  0  0  0  0  0  0  0  0  0  0  0
   -4.9100   -0.5950    0.6090 C   0  0  0  0  0  0  0  0  0  0  0  0
   -4.4940   -1.1230   -0.6510 N   0  0  0  0  0  0  0  0  0  0  0  0
   -5.2860   -1.1770   -1.7970 C   0  0  0  0  0  0  0  0  0  0  0  0
   -4.6580   -1.7290   -2.8240 O   0  0  0  0  0  0  0  0  0  0  0  0
   -6.6570   -0.7450   -2.0640 C   0  0  0  0  0  0  0  0  0  0  0  0
   -7.3710   -0.1100   -1.0240 N   0  0  0  0  0  0  0  0  0  0  0  0
   -8.1430   -0.7150   -0.0100 C   0  0  0  0  0  0  0  0  0  0  0  0
   -8.2720   -1.9740    0.1510 O   0  0  0  0  0  0  0  0  0  0  0  0
   -8.7680    0.2800    0.8200 C   0  0  0  0  0  0  0  0  0  0  0  0
   -9.5930    0.5290    1.9080 C   0  0  0  0  0  0  0  0  0  0  0  0
   -9.6720    1.8810    2.0210 C   0  0  0  0  0  0  0  0  0  0  0  0
  -10.4360    2.6370    3.0330 C   0  0  0  0  0  0  0  0  0  0  0  0
   -8.9470    2.4390    1.0700 O   0  0  0  0  0  0  0  0  0  0  0  0
   -8.3810    1.5060    0.3170 C   0  0  0  0  0  0  0  0  0  0  0  0
   -7.5100    1.3140   -0.8310 C   0  0  0  0  0  0  0  0  0  0  0  0
   -6.9940    2.2420   -1.5050 O   0  0  0  0  0  0  0  0  0  0  0  0
   -3.1150   -1.6710   -0.7400 C   0  0  0  0  0  0  0  0  0  0  0  0
  1  2  1  0
  3  2  1  6
  3  4  1  0
  3 22  1  0
  4  5  1  0
  5  6  1  0
  6  7  1  0
  7  8  1  6
  7  9  1  0
  9 10  2  0
  9 21  1  0
 10 11  1  0
 11 12  2  0
 12 13  1  0
 12 21  1  0
 13 14  2  0
 13 15  1  0
 15 16  1  0
 16 17  1  1
 16 19  1  0
 17 18  1  0
 19 20  1  0
 22 23  1  0
 22 41  1  1
 23 24  2  0
 24 25  1  0
 25 26  1  0
 26 27  1  0
 26 41  1  0
 27 28  2  0
 27 29  1  0
 29 30  1  0
 30 31  1  0
 30 39  1  0
 31 32  2  0
 31 33  1  0
 33 34  1  0
 33 38  2  0
 34 35  2  0
 35 36  1  0
 35 37  1  0
 37 38  1  0
 38 39  1  0
 39 40  2  0
M  CHG  1   5   1
M  END
