
     RDKit          3D

 41 44  0  0  0  0  0  0  0  0999 V2000
  -10.5570    2.3270    1.4120 C   0  0  0  0  0  0  0  0  0  0  0  0
   -9.2540    1.5840    1.5980 C   0  0  0  0  0  0  0  0  0  0  0  0
   -8.5270    1.5810    0.3000 C   0  0  2  0  0  0  0  0  0  0  0  0
   -9.3980    0.8750   -0.7350 C   0  0  0  0  0  0  0  0  0  0  0  0
   -7.2630    0.9490    0.3230 O   0  0  0  0  0  0  0  0  0  0  0  0
   -6.0990    1.5960   -0.0330 C   0  0  0  0  0  0  0  0  0  0  0  0
   -6.2020    2.8010   -0.3880 O   0  0  0  0  0  0  0  0  0  0  0  0
   -4.7710    0.9810   -0.0270 C   0  0  0  0  0  0  0  0  0  0  0  0
   -3.5830    1.6180   -0.3960 C   0  0  0  0  0  0  0  0  0  0  0  0
   -2.5370    0.7420   -0.2720 C   0  0  0  0  0  0  0  0  0  0  0  0
   -3.0900   -0.4430    0.1770 C   0  0  0  0  0  0  0  0  0  0  0  0
   -4.4150   -0.2650    0.3110 N   0  0  0  0  0  0  0  0  0  0  0  0
   -2.3420   -1.7030    0.4730 C   0  0  0  0  0  0  0  0  0  0  0  0
   -1.2480   -1.9930   -0.5070 C   0  0  0  0  0  0  0  0  0  0  0  0
   -0.1210   -1.0520   -0.5690 C   0  0  2  0  0  0  0  0  0  0  0  0
    1.2370   -1.5420   -0.2360 C   0  0  1  0  0  0  0  0  0  0  0  0
    1.4960   -2.9950   -0.4430 C   0  0  0  0  0  0  0  0  0  0  0  0
    1.3040   -3.4840   -1.8350 C   0  0  0  0  0  0  0  0  0  0  0  0
    1.6250   -4.9400   -1.8660 C   0  0  0  0  0  0  0  0  0  0  0  0
    2.7050   -5.4260   -1.4430 O   0  0  0  0  0  0  0  0  0  0  0  0
    0.7070   -5.8860   -2.3870 O   0  0  0  0  0  0  0  0  0  0  0  0
    1.0480   -7.2790   -2.4010 C   0  0  0  0  0  0  0  0  0  0  0  0
    2.1670   -0.7210   -0.8500 O   0  0  0  0  0  0  0  0  0  0  0  0
    2.1150    0.5410   -0.2140 C   0  0  1  0  0  0  0  0  0  0  0  0
    3.3300    0.5020    0.6990 C   0  0  0  0  0  0  0  0  0  0  0  0
    4.5080    0.2890   -0.0780 N   0  0  0  0  0  0  0  0  0  0  0  0
    5.8030    0.2290    0.5480 C   0  0  0  0  0  0  0  0  0  0  0  0
    5.8510    0.3690    1.7850 O   0  0  0  0  0  0  0  0  0  0  0  0
    7.2840   -0.0370   -0.4270 S   0  0  0  0  0  0  0  0  0  0  0  0
    8.7270   -0.0550    0.6740 C   0  0  0  0  0  0  0  0  0  0  0  0
    8.9140    1.2850    1.2820 C   0  0  0  0  0  0  0  0  0  0  0  0
    9.6650    2.2910    0.7300 C   0  0  0  0  0  0  0  0  0  0  0  0
    9.5850    3.3760    1.6030 C   0  0  0  0  0  0  0  0  0  0  0  0
    8.7820    2.9520    2.6370 C   0  0  0  0  0  0  0  0  0  0  0  0
    8.4070    1.7100    2.4060 O   0  0  0  0  0  0  0  0  0  0  0  0
    2.2740    1.6370   -1.2200 C   0  0  0  0  0  0  0  0  0  0  0  0
    2.1580    2.9200   -0.8640 O   0  0  0  0  0  0  0  0  0  0  0  0
    2.8930    3.5470    0.0570 C   0  0  0  0  0  0  0  0  0  0  0  0
    0.9220    0.7520    0.6350 C   0  0  0  0  0  0  0  0  0  0  0  0
   -0.3020    0.1730    0.1840 N   0  0  1  0  0  0  0  0  0  0  0  0
   -1.1240    1.0800   -0.5780 C   0  0  0  0  0  0  0  0  0  0  0  0
  1  2  1  0
  2  3  1  0
  3  4  1  6
  3  5  1  0
  5  6  1  0
  6  7  2  0
  6  8  1  0
  8  9  2  0
  8 12  1  0
  9 10  1  0
 10 11  2  0
 10 41  1  0
 11 12  1  0
 11 13  1  0
 13 14  1  0
 15 14  1  1
 15 16  1  0
 15 40  1  0
 16 17  1  6
 16 23  1  0
 17 18  1  0
 18 19  1  0
 19 20  2  0
 19 21  1  0
 21 22  1  0
 23 24  1  0
 24 25  1  1
 24 36  1  0
 24 39  1  0
 25 26  1  0
 26 27  1  0
 27 28  2  0
 27 29  1  0
 29 30  1  0
 30 31  1  0
 31 32  2  0
 31 35  1  0
 32 33  1  0
 33 34  2  0
 34 35  1  0
 36 37  1  0
 37 38  1  0
 40 39  1  6
 40 41  1  0
M  CHG  1  40   1
M  END
