
     RDKit          3D

 41 43  0  0  0  0  0  0  0  0999 V2000
   -8.5170    3.1560    4.3480 C   0  0  0  0  0  0  0  0  0  0  0  0
   -8.4920    2.4530    3.1210 O   0  0  0  0  0  0  0  0  0  0  0  0
   -7.3760    1.8020    2.6350 C   0  0  0  0  0  0  0  0  0  0  0  0
   -6.3180    1.8230    3.2990 O   0  0  0  0  0  0  0  0  0  0  0  0
   -7.5040    1.0940    1.3070 C   0  0  2  0  0  0  0  0  0  0  0  0
   -8.5910    0.0390    1.4210 C   0  0  0  0  0  0  0  0  0  0  0  0
   -6.1910    0.4040    1.0790 C   0  0  0  0  0  0  0  0  0  0  0  0
   -6.1010   -0.3260   -0.1590 N   0  0  2  0  0  0  0  0  0  0  0  0
   -5.8190   -1.7180    0.1100 C   0  0  0  0  0  0  0  0  0  0  0  0
   -6.0160   -2.5570   -1.1010 C   0  0  0  0  0  0  0  0  0  0  0  0
   -6.4550   -1.6600   -2.2460 C   0  0  0  0  0  0  0  0  0  0  0  0
   -5.4640   -0.5390   -2.4380 C   0  0  0  0  0  0  0  0  0  0  0  0
   -5.1930    0.2330   -1.1340 C   0  0  1  0  0  0  0  0  0  0  0  0
   -5.4600    1.6770   -1.4670 C   0  0  0  0  0  0  0  0  0  0  0  0
   -5.3510    2.5540   -0.4210 O   0  0  0  0  0  0  0  0  0  0  0  0
   -3.7530   -0.0630   -0.8110 C   0  0  0  0  0  0  0  0  0  0  0  0
   -2.8630    0.5870   -1.8390 C   0  0  0  0  0  0  0  0  0  0  0  0
   -1.4780    0.2530   -1.5320 N   0  0  0  0  0  0  0  0  0  0  0  0
   -0.9480   -1.0480   -1.5200 C   0  0  0  0  0  0  0  0  0  0  0  0
   -1.6880   -2.0230   -1.7970 O   0  0  0  0  0  0  0  0  0  0  0  0
    0.4640   -1.2960   -1.1850 C   0  0  0  0  0  0  0  0  0  0  0  0
    0.9750   -2.5030   -1.1830 C   0  0  0  0  0  0  0  0  0  0  0  0
    2.3700   -2.8260   -0.8620 C   0  0  0  0  0  0  0  0  0  0  0  0
    3.2030   -1.6420   -0.5190 C   0  0  0  0  0  0  0  0  0  0  0  0
    4.5200   -1.8220   -0.1960 N   0  0  0  0  0  0  0  0  0  0  0  0
    5.3240   -0.7910    0.1280 C   0  0  0  0  0  0  0  0  0  0  0  0
    6.7230   -0.9790    0.4730 C   0  0  0  0  0  0  0  0  0  0  0  0
    7.2880   -2.0990    0.4790 O   0  0  0  0  0  0  0  0  0  0  0  0
    7.4920    0.1250    0.8210 O   0  0  0  0  0  0  0  0  0  0  0  0
    8.8570    0.0030    1.1650 C   0  0  2  0  0  0  0  0  0  0  0  0
    8.9540    0.3130    2.6550 C   0  0  0  0  0  0  0  0  0  0  0  0
    9.7780    0.8730    0.3730 C   0  0  2  0  0  0  0  0  0  0  0  0
    9.4350    2.3530    0.5650 C   0  0  0  0  0  0  0  0  0  0  0  0
    9.7560    0.6070   -1.1020 C   0  0  0  0  0  0  0  0  0  0  0  0
   10.1460   -0.7920   -1.4740 C   0  0  0  0  0  0  0  0  0  0  0  0
   10.0660   -0.9230   -3.2840 S   0  0  0  0  0  0  0  0  0  0  0  0
   10.5220   -2.3330   -3.6350 O   0  0  0  0  0  0  0  0  0  0  0  0
    4.7530    0.4570    0.1160 C   0  0  0  0  0  0  0  0  0  0  0  0
    3.4250    0.6920   -0.2040 C   0  0  0  0  0  0  0  0  0  0  0  0
    2.6220   -0.4070   -0.5340 C   0  0  0  0  0  0  0  0  0  0  0  0
    1.2770   -0.2130   -0.8600 O   0  0  0  0  0  0  0  0  0  0  0  0
  1  2  1  0
  2  3  1  0
  3  4  2  0
  3  5  1  0
  5  6  1  1
  5  7  1  0
  8  7  1  1
  8  9  1  0
  8 13  1  0
  9 10  1  0
 10 11  1  0
 11 12  1  0
 12 13  1  0
 13 14  1  6
 13 16  1  0
 14 15  1  0
 16 17  1  0
 17 18  1  0
 18 19  1  0
 19 20  2  0
 19 21  1  0
 21 22  2  0
 21 41  1  0
 22 23  1  0
 23 24  1  0
 24 25  2  0
 24 40  1  0
 25 26  1  0
 26 27  1  0
 26 38  2  0
 27 28  2  0
 27 29  1  0
 29 30  1  0
 30 31  1  1
 30 32  1  0
 32 33  1  6
 32 34  1  0
 34 35  1  0
 35 36  1  0
 36 37  2  0
 38 39  1  0
 39 40  2  0
 40 41  1  0
M  CHG  1   8   1
M  END
