
     RDKit          3D

 19 21  0  0  0  0  0  0  0  0999 V2000
    6.1860    0.0060   -1.6220 C   0  0  0  0  0  0  0  0  0  0  0  0
    5.4420   -0.7630   -0.5520 C   0  0  0  0  0  0  0  0  0  0  0  0
    4.0030   -0.9100   -0.8730 C   0  0  0  0  0  0  0  0  0  0  0  0
    3.1250   -0.1810   -0.2860 N   0  0  0  0  0  0  0  0  0  0  0  0
    3.2870    0.8080    0.6820 N   0  0  0  0  0  0  0  0  0  0  0  0
    2.1470    1.3070    1.0170 C   0  0  0  0  0  0  0  0  0  0  0  0
    2.0000    2.3930    2.0390 C   0  0  0  0  0  0  0  0  0  0  0  0
    1.1070    0.6400    0.2470 C   0  0  0  0  0  0  0  0  0  0  0  0
    1.7260   -0.2430   -0.5210 C   0  0  0  0  0  0  0  0  0  0  0  0
    0.8640   -1.0640   -1.4180 C   0  0  0  0  0  0  0  0  0  0  0  0
   -0.3850   -1.3930   -0.5880 C   0  0  0  0  0  0  0  0  0  0  0  0
   -1.1360   -0.1900   -0.2930 N   0  0  1  0  0  0  0  0  0  0  0  0
   -2.2910   -0.5720    0.4720 C   0  0  1  0  0  0  0  0  0  0  0  0
   -2.9030    0.5780    1.2400 C   0  0  0  0  0  0  0  0  0  0  0  0
   -4.3420    0.2040    1.5410 C   0  0  0  0  0  0  0  0  0  0  0  0
   -5.2140    0.3060    0.3100 C   0  0  0  0  0  0  0  0  0  0  0  0
   -4.3540   -0.1010   -0.8690 C   0  0  0  0  0  0  0  0  0  0  0  0
   -3.3910   -1.1570   -0.3600 C   0  0  0  0  0  0  0  0  0  0  0  0
   -0.3600    0.8520    0.2640 C   0  0  0  0  0  0  0  0  0  0  0  0
  1  2  1  0
  2  3  1  0
  3  4  2  3
  4  5  1  0
  4  9  1  0
  5  6  2  0
  6  7  1  0
  6  8  1  0
  8  9  2  0
  8 19  1  0
  9 10  1  0
 10 11  1  0
 12 11  1  1
 12 13  1  0
 12 19  1  0
 13 14  1  6
 13 18  1  0
 14 15  1  0
 15 16  1  0
 16 17  1  0
 17 18  1  0
M  CHG  2   4   1  12   1
M  END
