
     RDKit          3D

 19 21  0  0  0  0  0  0  0  0999 V2000
   -2.4470   -3.3940   -0.7240 C   0  0  0  0  0  0  0  0  0  0  0  0
   -2.4910   -1.9250   -0.9880 C   0  0  0  0  0  0  0  0  0  0  0  0
   -1.3270   -1.2030   -0.5640 N   0  0  2  0  0  0  0  0  0  0  0  0
   -0.3060   -2.1410   -0.1510 C   0  0  0  0  0  0  0  0  0  0  0  0
    1.0500   -1.4790    0.0490 C   0  0  0  0  0  0  0  0  0  0  0  0
    0.8530   -0.1300    0.5190 N   0  0  0  0  0  0  0  0  0  0  0  0
    1.9620    0.3020    1.2750 C   0  0  0  0  0  0  0  0  0  0  0  0
    3.2050    0.5830    0.5210 C   0  0  0  0  0  0  0  0  0  0  0  0
    3.4460    0.5410   -0.7730 C   0  0  0  0  0  0  0  0  0  0  0  0
    4.8680    0.9050   -1.0860 C   0  0  0  0  0  0  0  0  0  0  0  0
    5.4100    1.1660    0.2520 C   0  0  0  0  0  0  0  0  0  0  0  0
    4.4830    0.9860    1.1470 C   0  0  0  0  0  0  0  0  0  0  0  0
   -0.3420   -0.1200    1.3360 C   0  0  0  0  0  0  0  0  0  0  0  0
   -1.5980   -0.3130    0.5360 C   0  0  1  0  0  0  0  0  0  0  0  0
   -2.1590    0.9860    0.1020 C   0  0  0  0  0  0  0  0  0  0  0  0
   -2.3720    1.4160   -1.1090 C   0  0  0  0  0  0  0  0  0  0  0  0
   -2.9260    2.7230   -1.1120 N   0  0  0  0  0  0  0  0  0  0  0  0
   -2.8970    3.2660    0.2300 C   0  0  0  0  0  0  0  0  0  0  0  0
   -2.5830    2.0410    1.0560 C   0  0  0  0  0  0  0  0  0  0  0  0
  1  2  1  0
  3  2  1  1
  3  4  1  0
  3 14  1  0
  4  5  1  0
  5  6  1  0
  6  7  1  0
  6 13  1  0
  7  8  1  0
  8  9  2  0
  8 12  1  0
  9 10  1  0
 10 11  1  0
 11 12  2  0
 13 14  1  0
 14 15  1  6
 15 16  2  0
 15 19  1  0
 16 17  1  0
 17 18  1  0
 18 19  1  0
M  CHG  1   3   1
M  END
