
     RDKit          3D

 25 28  0  0  0  0  0  0  0  0999 V2000
   -4.9840   -2.9510   -0.2160 C   0  0  0  0  0  0  0  0  0  0  0  0
   -4.7850   -1.6070    0.1720 O   0  0  0  0  0  0  0  0  0  0  0  0
   -3.6140   -0.9120   -0.0830 C   0  0  0  0  0  0  0  0  0  0  0  0
   -2.5440   -1.4790   -0.7390 C   0  0  0  0  0  0  0  0  0  0  0  0
   -1.3950   -0.7420   -0.9690 C   0  0  0  0  0  0  0  0  0  0  0  0
   -1.2840    0.5690   -0.5560 C   0  0  0  0  0  0  0  0  0  0  0  0
   -0.0840    1.3830   -0.7760 C   0  0  0  0  0  0  0  0  0  0  0  0
   -0.0340    2.6520   -1.2380 N   0  0  0  0  0  0  0  0  0  0  0  0
    1.2090    3.0770   -1.3090 N   0  0  0  0  0  0  0  0  0  0  0  0
    1.9950    2.0930   -0.8950 C   0  0  0  0  0  0  0  0  0  0  0  0
    3.3840    1.9910   -0.7620 C   0  0  0  0  0  0  0  0  0  0  0  0
    3.9350    0.8140   -0.2920 C   0  0  0  0  0  0  0  0  0  0  0  0
    5.3120    0.7340   -0.1680 C   0  0  0  0  0  0  0  0  0  0  0  0
    5.8260   -0.4520    0.3030 C   0  0  0  0  0  0  0  0  0  0  0  0
    7.5660   -0.5950    0.4750 Cl  0  0  0  0  0  0  0  0  0  0  0  0
    5.0400   -1.4690    0.6220 N   0  0  0  0  0  0  0  0  0  0  0  0
    3.7010   -1.3970    0.5040 C   0  0  0  0  0  0  0  0  0  0  0  0
    2.8810   -2.5730    0.8790 C   0  0  0  0  0  0  0  0  0  0  0  0
    3.1160   -0.2450    0.0410 C   0  0  0  0  0  0  0  0  0  0  0  0
    1.7450   -0.1760   -0.0790 C   0  0  0  0  0  0  0  0  0  0  0  0
    1.2130    1.0130   -0.5530 C   0  0  0  0  0  0  0  0  0  0  0  0
   -2.3800    1.0910    0.0950 C   0  0  0  0  0  0  0  0  0  0  0  0
   -3.5400    0.3950    0.3450 C   0  0  0  0  0  0  0  0  0  0  0  0
   -4.6230    0.9980    1.0190 O   0  0  0  0  0  0  0  0  0  0  0  0
   -4.4730    2.3440    1.4280 C   0  0  0  0  0  0  0  0  0  0  0  0
  1  2  1  0
  2  3  1  0
  3  4  2  0
  3 23  1  0
  4  5  1  0
  5  6  2  0
  6  7  1  0
  6 22  1  0
  7  8  2  0
  7 21  1  0
  8  9  1  0
  9 10  1  0
 10 11  2  0
 10 21  1  0
 11 12  1  0
 12 13  2  0
 12 19  1  0
 13 14  1  0
 14 15  1  0
 14 16  2  0
 16 17  1  0
 17 18  1  0
 17 19  2  0
 19 20  1  0
 20 21  2  0
 22 23  2  0
 23 24  1  0
 24 25  1  0
M  END
