
     RDKit          3D

 19 21  0  0  0  0  0  0  0  0999 V2000
    0.8600   -2.9950   -1.1270 C   0  0  0  0  0  0  0  0  0  0  0  0
    1.2490   -1.6250   -0.7000 C   0  0  0  0  0  0  0  0  0  0  0  0
    0.3210   -0.7090   -0.9180 C   0  0  0  0  0  0  0  0  0  0  0  0
    0.4070    0.6890   -0.6150 N   0  0  0  0  0  0  0  0  0  0  0  0
   -0.8870    1.2100   -0.2970 C   0  0  0  0  0  0  0  0  0  0  0  0
   -2.0270    0.3690   -0.3420 N   0  0  0  0  0  0  0  0  0  0  0  0
   -2.9750    0.3460   -1.4280 C   0  0  0  0  0  0  0  0  0  0  0  0
   -4.3090    0.1170   -0.7430 C   0  0  0  0  0  0  0  0  0  0  0  0
   -3.9380   -0.8580    0.3360 C   0  0  0  0  0  0  0  0  0  0  0  0
   -2.4750   -0.6000    0.6300 C   0  0  2  0  0  0  0  0  0  0  0  0
   -2.3420   -0.0950    2.0530 C   0  0  0  0  0  0  0  0  0  0  0  0
   -0.9800    2.4800    0.0320 C   0  0  0  0  0  0  0  0  0  0  0  0
    0.1830    3.3370    0.0720 C   0  0  0  0  0  0  0  0  0  0  0  0
    1.3680    2.8710   -0.2230 C   0  0  0  0  0  0  0  0  0  0  0  0
    1.5950    1.4850   -0.6080 C   0  0  1  0  0  0  0  0  0  0  0  0
    2.6870    0.8500    0.2620 C   0  0  0  0  0  0  0  0  0  0  0  0
    3.2800   -0.2810   -0.4320 N   0  0  1  0  0  0  0  0  0  0  0  0
    4.6690   -0.4220   -0.0490 C   0  0  0  0  0  0  0  0  0  0  0  0
    2.6010   -1.5160   -0.0990 C   0  0  0  0  0  0  0  0  0  0  0  0
  1  2  1  0
  2  3  2  0
  2 19  1  0
  3  4  1  0
  4  5  1  0
  4 15  1  0
  5  6  1  0
  5 12  2  0
  6  7  1  0
  6 10  1  0
  7  8  1  0
  8  9  1  0
  9 10  1  0
 10 11  1  1
 12 13  1  0
 13 14  2  0
 14 15  1  0
 15 16  1  1
 16 17  1  0
 17 18  1  1
 17 19  1  0
M  CHG  1  17   1
M  END
