
     RDKit          3D

 26 29  0  0  0  0  0  0  0  0999 V2000
    6.7960    2.3700   -0.8310 F   0  0  0  0  0  0  0  0  0  0  0  0
    5.4080    2.3570   -0.9120 C   0  0  1  0  0  0  0  0  0  0  0  0
    4.8900    3.4780   -0.3350 F   0  0  0  0  0  0  0  0  0  0  0  0
    4.9940    2.2530   -2.2140 F   0  0  0  0  0  0  0  0  0  0  0  0
    4.9860    1.1620   -0.0930 C   0  0  0  0  0  0  0  0  0  0  0  0
    5.6820    0.9880    1.1060 C   0  0  0  0  0  0  0  0  0  0  0  0
    5.3940   -0.1080    1.8990 C   0  0  0  0  0  0  0  0  0  0  0  0
    4.4400   -1.0100    1.5170 C   0  0  0  0  0  0  0  0  0  0  0  0
    3.7200   -0.8460    0.3070 C   0  0  0  0  0  0  0  0  0  0  0  0
    2.8020   -1.9010   -0.0660 C   0  0  0  0  0  0  0  0  0  0  0  0
    3.0750   -3.2080   -0.0720 N   0  0  0  0  0  0  0  0  0  0  0  0
    1.9820   -3.9080   -0.2670 N   0  0  0  0  0  0  0  0  0  0  0  0
    0.9850   -3.0440   -0.3880 C   0  0  0  0  0  0  0  0  0  0  0  0
   -0.3810   -3.2570   -0.5290 C   0  0  0  0  0  0  0  0  0  0  0  0
   -1.2580   -2.1790   -0.5430 C   0  0  0  0  0  0  0  0  0  0  0  0
   -0.7520   -0.9290   -0.4200 C   0  0  0  0  0  0  0  0  0  0  0  0
   -1.5100    0.2370   -0.1780 N   0  0  0  0  0  0  0  0  0  0  0  0
   -2.7780    0.4370    0.4420 C   0  0  2  0  0  0  0  0  0  0  0  0
   -3.8550   -0.4890    0.0760 C   0  0  0  0  0  0  0  0  0  0  0  0
   -5.1820   -0.0960    0.7650 C   0  0  0  0  0  0  0  0  0  0  0  0
   -5.5180    1.3340    0.6000 C   0  0  0  0  0  0  0  0  0  0  0  0
   -4.5580    2.0600   -0.3190 C   0  0  0  0  0  0  0  0  0  0  0  0
   -3.1530    1.9020    0.2140 C   0  0  0  0  0  0  0  0  0  0  0  0
    0.6210   -0.7740   -0.2910 N   0  0  0  0  0  0  0  0  0  0  0  0
    1.4640   -1.7700   -0.2730 N   0  0  0  0  0  0  0  0  0  0  0  0
    4.0390    0.2510   -0.4450 C   0  0  0  0  0  0  0  0  0  0  0  0
  2  1  1  6
  2  3  1  0
  2  4  1  0
  2  5  1  0
  5  6  2  0
  5 26  1  0
  6  7  1  0
  7  8  2  0
  8  9  1  0
  9 10  1  0
  9 26  2  0
 10 11  2  0
 10 25  1  0
 11 12  1  0
 12 13  2  0
 13 14  1  0
 13 25  1  0
 14 15  2  0
 15 16  1  0
 16 17  1  0
 16 24  2  0
 18 17  1  6
 18 19  1  0
 18 23  1  0
 19 20  1  0
 20 21  1  0
 21 22  1  0
 22 23  1  0
 24 25  1  0
M  END
