
     RDKit          3D

 19 21  0  0  0  0  0  0  0  0999 V2000
   -4.6980    0.8910    0.6310 C   0  0  0  0  0  0  0  0  0  0  0  0
   -3.7770   -0.0520   -0.0260 N   0  0  2  0  0  0  0  0  0  0  0  0
   -3.5970   -1.1400    0.9220 C   0  0  0  0  0  0  0  0  0  0  0  0
   -2.5090   -2.0800    0.4560 C   0  0  0  0  0  0  0  0  0  0  0  0
   -1.1960   -1.2380    0.4820 C   0  0  0  0  0  0  0  0  0  0  0  0
   -1.3560   -0.2190   -0.5530 C   0  0  2  0  0  0  0  0  0  0  0  0
   -0.2350    0.7260   -0.7740 N   0  0  0  0  0  0  0  0  0  0  0  0
   -0.5470    2.0790   -0.8900 N   0  0  0  0  0  0  0  0  0  0  0  0
    0.1970    3.0080   -1.3420 C   0  0  0  0  0  0  0  0  0  0  0  0
    1.5310    2.6020   -1.7520 C   0  0  0  0  0  0  0  0  0  0  0  0
    1.9260    1.3610   -1.6080 C   0  0  0  0  0  0  0  0  0  0  0  0
    1.0990    0.2520   -0.9960 C   0  0  1  0  0  0  0  0  0  0  0  0
    1.7050    0.1120    0.4230 C   0  0  0  0  0  0  0  0  0  0  0  0
    3.0590   -0.4340    0.4190 C   0  0  0  0  0  0  0  0  0  0  0  0
    3.8300   -0.8700   -0.5330 C   0  0  0  0  0  0  0  0  0  0  0  0
    5.1470   -1.3260    0.0070 C   0  0  0  0  0  0  0  0  0  0  0  0
    5.0160   -1.0810    1.4430 C   0  0  0  0  0  0  0  0  0  0  0  0
    3.8330   -0.5770    1.6690 C   0  0  0  0  0  0  0  0  0  0  0  0
   -2.5580    0.6370   -0.2440 C   0  0  0  0  0  0  0  0  0  0  0  0
  2  1  1  1
  2  3  1  0
  2 19  1  0
  3  4  1  0
  4  5  1  0
  5  6  1  0
  6  7  1  1
  6 19  1  0
  7  8  1  0
  7 12  1  0
  8  9  2  0
  9 10  1  0
 10 11  2  0
 11 12  1  0
 12 13  1  1
 13 14  1  0
 14 15  2  0
 14 18  1  0
 15 16  1  0
 16 17  1  0
 17 18  2  0
M  CHG  1   2   1
M  END
