
     RDKit          3D

 18 19  0  0  0  0  0  0  0  0999 V2000
    5.2160    1.1680    0.5530 C   0  0  0  0  0  0  0  0  0  0  0  0
    4.6720    0.1640   -0.3710 N   0  0  0  0  0  0  0  0  0  0  0  0
    3.3430   -0.2970   -0.1630 C   0  0  0  0  0  0  0  0  0  0  0  0
    2.6640    0.1480    0.7880 O   0  0  0  0  0  0  0  0  0  0  0  0
    2.8070   -1.3220   -1.1180 C   0  0  0  0  0  0  0  0  0  0  0  0
    1.4870   -1.6670   -0.7700 O   0  0  0  0  0  0  0  0  0  0  0  0
    0.4450   -0.7440   -0.7280 C   0  0  0  0  0  0  0  0  0  0  0  0
    0.7340    0.4370   -1.0200 O   0  0  0  0  0  0  0  0  0  0  0  0
   -0.8920   -1.1900   -0.3560 C   0  0  0  0  0  0  0  0  0  0  0  0
   -1.2900   -2.4310   -0.0290 N   0  0  0  0  0  0  0  0  0  0  0  0
   -2.5780   -2.4550    0.2510 N   0  0  0  0  0  0  0  0  0  0  0  0
   -3.1040   -1.2190    0.1210 C   0  0  0  0  0  0  0  0  0  0  0  0
   -2.0490   -0.4070   -0.2620 C   0  0  0  0  0  0  0  0  0  0  0  0
   -2.2270    0.8710   -0.4740 C   0  0  0  0  0  0  0  0  0  0  0  0
   -3.5320    1.5260   -0.3230 C   0  0  2  0  0  0  0  0  0  0  0  0
   -3.3850    2.4680    0.8110 N   0  0  0  0  0  0  0  0  0  0  0  0
   -4.5190    0.6290    0.0620 O   0  0  0  0  0  0  0  0  0  0  0  0
   -4.3090   -0.7020    0.2770 C   0  0  0  0  0  0  0  0  0  0  0  0
  1  2  1  0
  2  3  1  0
  3  4  2  0
  3  5  1  0
  5  6  1  0
  6  7  1  0
  7  8  2  0
  7  9  1  0
  9 10  2  0
  9 13  1  0
 10 11  1  0
 11 12  1  0
 12 13  1  0
 12 18  2  0
 13 14  2  0
 14 15  1  0
 15 16  1  1
 15 17  1  0
 17 18  1  0
M  END
