
     RDKit          3D

 19 21  0  0  0  0  0  0  0  0999 V2000
    5.2540   -0.2000   -1.6730 O   0  0  0  0  0  0  0  0  0  0  0  0
    4.3380    0.2590   -0.9150 C   0  0  0  0  0  0  0  0  0  0  0  0
    4.3040    1.5570   -0.5490 N   0  0  0  0  0  0  0  0  0  0  0  0
    3.3790    2.0720    0.2520 C   0  0  0  0  0  0  0  0  0  0  0  0
    2.3640    1.2800    0.7500 N   0  0  0  0  0  0  0  0  0  0  0  0
    2.3450   -0.0230    0.3990 C   0  0  0  0  0  0  0  0  0  0  0  0
    1.4870   -1.0680    0.6100 C   0  0  0  0  0  0  0  0  0  0  0  0
    0.2590   -0.8900    1.5020 C   0  0  0  0  0  0  0  0  0  0  0  0
   -0.8600   -0.9100    0.5450 N   0  0  1  0  0  0  0  0  0  0  0  0
   -2.1270   -1.2910    0.9860 C   0  0  0  0  0  0  0  0  0  0  0  0
   -3.0030   -0.6230   -0.1320 C   0  0  1  0  0  0  0  0  0  0  0  0
   -4.3300   -0.7120    0.1410 O   0  0  0  0  0  0  0  0  0  0  0  0
   -2.4180    0.7670   -0.0750 C   0  0  2  0  0  0  0  0  0  0  0  0
   -2.7680    1.5850   -1.3160 C   0  0  0  0  0  0  0  0  0  0  0  0
   -4.1470    1.6890   -1.3610 O   0  0  0  0  0  0  0  0  0  0  0  0
   -0.9710    0.4970    0.0740 C   0  0  0  0  0  0  0  0  0  0  0  0
    1.9400   -2.1520   -0.0210 C   0  0  0  0  0  0  0  0  0  0  0  0
    3.0900   -1.8790   -0.6780 N   0  0  0  0  0  0  0  0  0  0  0  0
    3.3430   -0.5660   -0.4330 C   0  0  0  0  0  0  0  0  0  0  0  0
  1  2  2  0
  2  3  1  0
  2 19  1  0
  3  4  1  0
  4  5  2  0
  5  6  1  0
  6  7  1  0
  6 19  2  0
  7  8  1  0
  7 17  2  0
  9  8  1  1
  9 10  1  0
  9 16  1  0
 10 11  1  0
 11 12  1  1
 11 13  1  0
 13 14  1  6
 13 16  1  0
 14 15  1  0
 17 18  1  0
 18 19  1  0
M  CHG  1   9   1
M  END
