
     RDKit          3D

 19 20  0  0  0  0  0  0  0  0999 V2000
   -4.6030    0.8960    0.9030 C   0  0  0  0  0  0  0  0  0  0  0  0
   -3.4470   -0.0490    0.9390 C   0  0  0  0  0  0  0  0  0  0  0  0
   -2.7000   -0.0020   -0.3790 C   0  0  2  0  0  0  0  0  0  0  0  0
   -3.6620   -0.3940   -1.3940 N   0  0  0  0  0  0  0  0  0  0  0  0
   -3.8510   -1.7400   -1.0700 O   0  0  0  0  0  0  0  0  0  0  0  0
   -2.5540   -2.2300   -0.8100 C   0  0  0  0  0  0  0  0  0  0  0  0
   -2.1800   -3.4410   -0.8400 O   0  0  0  0  0  0  0  0  0  0  0  0
   -1.7560   -1.1000   -0.5100 N   0  0  0  0  0  0  0  0  0  0  0  0
   -0.3790   -0.9220   -0.3500 N   0  0  0  0  0  0  0  0  0  0  0  0
    0.2170    0.3710   -0.3210 C   0  0  0  0  0  0  0  0  0  0  0  0
    1.4970    0.6190   -0.1750 C   0  0  0  0  0  0  0  0  0  0  0  0
    2.5320   -0.3960   -0.0170 C   0  0  0  0  0  0  0  0  0  0  0  0
    3.7970   -0.0630    0.1240 C   0  0  0  0  0  0  0  0  0  0  0  0
    4.1540    1.2990    0.1230 N   0  0  0  0  0  0  0  0  0  0  0  0
    4.7450   -1.0390    0.2700 O   0  0  0  0  0  0  0  0  0  0  0  0
    6.1050   -0.8880   -0.0830 C   0  0  0  0  0  0  0  0  0  0  0  0
   -0.6950    1.5020   -0.4680 C   0  0  0  0  0  0  0  0  0  0  0  0
   -0.2530    2.6840   -0.4530 O   0  0  0  0  0  0  0  0  0  0  0  0
   -2.0790    1.2740   -0.6260 N   0  0  0  0  0  0  0  0  0  0  0  0
  1  2  1  0
  3  2  1  1
  3  4  1  0
  3  8  1  0
  3 19  1  0
  4  5  1  0
  5  6  1  0
  6  7  2  0
  6  8  1  0
  8  9  1  0
  9 10  1  0
 10 11  2  3
 10 17  1  0
 11 12  1  0
 12 13  2  3
 13 14  1  0
 13 15  1  0
 15 16  1  0
 17 18  2  0
 17 19  1  0
M  END
