
     RDKit          3D

 19 20  0  0  0  0  0  0  0  0999 V2000
    3.5840   -2.0940    0.9630 N   0  0  0  0  0  0  0  0  0  0  0  0
    3.3810   -0.9970    0.0270 C   0  0  2  0  0  0  0  0  0  0  0  0
    2.9180    0.2230    0.6910 C   0  0  0  0  0  0  0  0  0  0  0  0
    1.7690    0.6160    0.1010 C   0  0  0  0  0  0  0  0  0  0  0  0
    0.9630    1.8040    0.4590 C   0  0  0  0  0  0  0  0  0  0  0  0
    1.1040    2.1980    1.6890 O   0  0  0  0  0  0  0  0  0  0  0  0
    0.0900    2.5600   -0.2960 N   0  0  0  0  0  0  0  0  0  0  0  0
   -1.1050    2.2450   -0.9280 N   0  0  0  0  0  0  0  0  0  0  0  0
   -2.1850    1.4810   -0.4330 C   0  0  0  0  0  0  0  0  0  0  0  0
   -3.2250    1.3040   -1.1250 O   0  0  0  0  0  0  0  0  0  0  0  0
   -2.2180    0.8290    0.9000 C   0  0  0  0  0  0  0  0  0  0  0  0
   -2.7520   -0.5670    0.7110 C   0  0  0  0  0  0  0  0  0  0  0  0
   -1.6430   -1.5620    0.3740 C   0  0  0  0  0  0  0  0  0  0  0  0
   -1.4880   -1.7170   -1.0430 N   0  0  0  0  0  0  0  0  0  0  0  0
   -0.8530   -0.7680   -1.8930 C   0  0  0  0  0  0  0  0  0  0  0  0
   -1.5150   -0.5010   -2.9700 O   0  0  0  0  0  0  0  0  0  0  0  0
    0.3230   -0.1370   -1.7030 O   0  0  0  0  0  0  0  0  0  0  0  0
    1.4450   -0.3260   -0.9620 C   0  0  0  0  0  0  0  0  0  0  0  0
    2.4210   -1.2290   -0.9450 N   0  0  0  0  0  0  0  0  0  0  0  0
  2  1  1  1
  2  3  1  0
  2 19  1  0
  3  4  2  0
  4  5  1  0
  4 18  1  0
  5  6  2  0
  5  7  1  0
  7  8  1  0
  8  9  1  0
  9 10  2  0
  9 11  1  0
 11 12  1  0
 12 13  1  0
 13 14  1  0
 14 15  1  0
 15 16  2  0
 15 17  1  0
 17 18  1  0
 18 19  2  0
M  END
