
     RDKit          3D

 19 20  0  0  0  0  0  0  0  0999 V2000
   -0.0290   -2.9880   -1.9260 N   0  0  0  0  0  0  0  0  0  0  0  0
    0.0700   -2.2310   -0.7170 C   0  0  0  0  0  0  0  0  0  0  0  0
    1.2600   -2.1680   -0.1290 C   0  0  0  0  0  0  0  0  0  0  0  0
    1.5740   -1.4720    1.0730 N   0  0  0  0  0  0  0  0  0  0  0  0
    1.6200   -0.0890    1.3620 C   0  0  0  0  0  0  0  0  0  0  0  0
    0.9110    0.3750    2.3610 O   0  0  0  0  0  0  0  0  0  0  0  0
    2.3630    0.9190    0.6920 N   0  0  0  0  0  0  0  0  0  0  0  0
    2.5000    1.2110   -0.6530 N   0  0  0  0  0  0  0  0  0  0  0  0
    1.5720    1.8380   -1.5300 C   0  0  0  0  0  0  0  0  0  0  0  0
    2.0380    2.4700   -2.5890 O   0  0  0  0  0  0  0  0  0  0  0  0
    0.1650    1.8670   -1.3960 N   0  0  0  0  0  0  0  0  0  0  0  0
   -0.7470    0.7490   -1.4250 C   0  0  0  0  0  0  0  0  0  0  0  0
   -1.3600    0.6030   -0.0710 C   0  0  0  0  0  0  0  0  0  0  0  0
   -1.5030   -0.6140    0.4200 C   0  0  0  0  0  0  0  0  0  0  0  0
   -2.1170   -0.6940    1.7720 C   0  0  0  0  0  0  0  0  0  0  0  0
   -2.5420    0.5110    2.3210 O   0  0  0  0  0  0  0  0  0  0  0  0
   -2.3640    1.7470    1.7670 C   0  0  0  0  0  0  0  0  0  0  0  0
   -1.7880    1.8400    0.5930 C   0  0  0  0  0  0  0  0  0  0  0  0
   -1.0940   -1.6650   -0.3220 O   0  0  0  0  0  0  0  0  0  0  0  0
  1  2  1  0
  2  3  2  0
  2 19  1  0
  3  4  1  0
  4  5  1  0
  5  6  2  0
  5  7  1  0
  7  8  1  0
  8  9  1  0
  9 10  2  0
  9 11  1  0
 11 12  1  0
 12 13  1  0
 13 14  2  0
 13 18  1  0
 14 15  1  0
 14 19  1  0
 15 16  1  0
 16 17  1  0
 17 18  2  0
M  END
