
     RDKit          3D

  7  6  0  0  0  0  0  0  0  0999 V2000
    2.9650    0.0290   -0.6800 C   0  0  0  0  0  0  0  0  0  0  0  0
    1.5650   -0.5240   -0.4390 C   0  0  0  0  0  0  0  0  0  0  0  0
    0.5790    0.8230    0.2080 S   0  0  0  0  0  0  0  0  0  0  0  0
   -1.1820    0.5550    0.1810 C   0  0  2  0  0  0  0  0  0  0  0  0
   -1.6050   -0.7080   -0.3400 N   0  0  0  0  0  0  0  0  0  0  0  0
   -1.7720    1.6320   -0.5010 O   0  0  0  0  0  0  0  0  0  0  0  0
   -3.0750    1.5150   -0.5690 O   0  0  0  0  0  0  0  0  0  0  0  0
  1  2  1  0
  2  3  1  0
  3  4  1  0
  4  5  1  6
  4  6  1  0
  6  7  1  0
M  CHG  1   5   1
M  END
