
     RDKit          3D

  6  5  0  0  0  0  0  0  0  0999 V2000
   -2.3690   -0.2390   -0.4280 C   0  0  0  0  0  0  0  0  0  0  0  0
   -0.9410   -0.5040   -0.5710 N   0  0  0  0  0  0  0  0  0  0  0  0
   -0.2300   -0.0480    0.6310 C   0  0  0  0  0  0  0  0  0  0  0  0
    1.1520    0.4130    0.3320 C   0  0  0  0  0  0  0  0  0  0  0  0
    2.4560   -0.7070    0.8120 S   0  0  0  0  0  0  0  0  0  0  0  0
    3.9810    0.0550    0.6150 O   0  0  0  0  0  0  0  0  0  0  0  0
  1  2  1  0
  2  3  1  0
  3  4  1  0
  4  5  1  0
  5  6  1  0
M  CHG  1   2   1
M  END
