
     RDKit          3D

 24 27  0  0  0  0  0  0  0  0999 V2000
   -5.2380    0.6200   -0.4270 C   0  0  0  0  0  0  0  0  0  0  0  0
   -4.3680   -0.6010   -0.4780 C   0  0  1  0  0  0  0  0  0  0  0  0
   -4.9720   -1.7620    0.2810 C   0  0  0  0  0  0  0  0  0  0  0  0
   -4.0170   -0.9190   -1.9190 C   0  0  0  0  0  0  0  0  0  0  0  0
   -2.7510   -0.1120   -1.7050 C   0  0  0  0  0  0  0  0  0  0  0  0
   -2.9030   -0.3960   -0.2420 C   0  0  1  0  0  0  0  0  0  0  0  0
   -2.5480    0.6670    0.6570 N   0  0  0  0  0  0  0  0  0  0  0  0
   -1.2290    1.0100    1.0170 C   0  0  0  0  0  0  0  0  0  0  0  0
   -1.0380    2.0580    1.8840 C   0  0  0  0  0  0  0  0  0  0  0  0
    0.2080    2.4480    2.2800 C   0  0  0  0  0  0  0  0  0  0  0  0
    1.2990    1.7710    1.7960 C   0  0  0  0  0  0  0  0  0  0  0  0
    1.1720    0.7100    0.9220 C   0  0  0  0  0  0  0  0  0  0  0  0
    2.3560    0.0300    0.4440 C   0  0  0  0  0  0  0  0  0  0  0  0
    2.3600   -1.3220    0.1240 C   0  0  0  0  0  0  0  0  0  0  0  0
    3.5040   -1.9460   -0.3290 C   0  0  0  0  0  0  0  0  0  0  0  0
    4.6910   -1.2440   -0.4820 C   0  0  0  0  0  0  0  0  0  0  0  0
    5.7900   -1.8210   -0.9120 O   0  0  0  0  0  0  0  0  0  0  0  0
    6.9280   -1.1850   -1.0660 C   0  0  0  0  0  0  0  0  0  0  0  0
    7.9640   -1.7620   -1.4790 O   0  0  0  0  0  0  0  0  0  0  0  0
    7.0290    0.1690   -0.7750 C   0  0  0  0  0  0  0  0  0  0  0  0
    5.8850    0.8060   -0.3180 C   0  0  0  0  0  0  0  0  0  0  0  0
    4.7020    0.1070   -0.1660 C   0  0  0  0  0  0  0  0  0  0  0  0
    3.5430    0.7050    0.2850 C   0  0  0  0  0  0  0  0  0  0  0  0
   -0.1070    0.3580    0.5550 C   0  0  0  0  0  0  0  0  0  0  0  0
  2  1  1  6
  2  3  1  0
  2  4  1  0
  2  6  1  0
  4  5  1  0
  5  6  1  0
  6  7  1  1
  7  8  1  0
  8  9  2  0
  8 24  1  0
  9 10  1  0
 10 11  2  0
 11 12  1  0
 12 13  1  0
 12 24  2  0
 13 14  2  0
 13 23  1  0
 14 15  1  0
 15 16  2  0
 16 17  1  0
 16 22  1  0
 17 18  1  0
 18 19  2  0
 18 20  1  0
 20 21  2  0
 21 22  1  0
 22 23  2  0
M  END
