
     RDKit          3D

 24 27  0  0  0  0  0  0  0  0999 V2000
   -2.8960    0.1440   -2.3500 C   0  0  0  0  0  0  0  0  0  0  0  0
   -2.5410    0.2380   -0.9290 C   0  0  0  0  0  0  0  0  0  0  0  0
   -1.2110    0.5590   -0.6000 C   0  0  0  0  0  0  0  0  0  0  0  0
   -0.2280    0.8280   -1.6540 C   0  0  0  0  0  0  0  0  0  0  0  0
    1.1180    1.0790   -1.2120 N   0  0  0  0  0  0  0  0  0  0  0  0
    1.9760    0.0410   -0.7450 C   0  0  0  0  0  0  0  0  0  0  0  0
    1.4810   -1.2730   -0.8140 C   0  0  0  0  0  0  0  0  0  0  0  0
    2.2940   -2.2970   -0.3900 C   0  0  0  0  0  0  0  0  0  0  0  0
    3.5460   -2.0790    0.0880 C   0  0  0  0  0  0  0  0  0  0  0  0
    4.0180   -0.8030    0.1510 C   0  0  0  0  0  0  0  0  0  0  0  0
    5.2920   -0.6140    0.6410 C   0  0  0  0  0  0  0  0  0  0  0  0
    5.8140    0.6550    0.7260 C   0  0  0  0  0  0  0  0  0  0  0  0
    5.0420    1.7160    0.3140 C   0  0  0  0  0  0  0  0  0  0  0  0
    3.7530    1.5650   -0.1850 C   0  0  0  0  0  0  0  0  0  0  0  0
    3.2500    0.2780   -0.2600 C   0  0  0  0  0  0  0  0  0  0  0  0
   -0.9400    0.6280    0.7440 C   0  0  0  0  0  0  0  0  0  0  0  0
    0.2410    0.9180    1.1220 O   0  0  0  0  0  0  0  0  0  0  0  0
   -1.8540    0.4090    1.6900 O   0  0  0  0  0  0  0  0  0  0  0  0
   -3.0950    0.1090    1.4190 C   0  0  0  0  0  0  0  0  0  0  0  0
   -4.0310   -0.1140    2.4300 C   0  0  0  0  0  0  0  0  0  0  0  0
   -5.3250   -0.4270    2.1290 C   0  0  0  0  0  0  0  0  0  0  0  0
   -5.6910   -0.5180    0.8070 C   0  0  0  0  0  0  0  0  0  0  0  0
   -4.7500   -0.2930   -0.1960 C   0  0  0  0  0  0  0  0  0  0  0  0
   -3.4430    0.0230    0.0910 C   0  0  0  0  0  0  0  0  0  0  0  0
  1  2  1  0
  2  3  2  0
  2 24  1  0
  3  4  1  0
  3 16  1  0
  4  5  1  0
  5  6  1  0
  6  7  2  0
  6 15  1  0
  7  8  1  0
  8  9  2  0
  9 10  1  0
 10 11  2  0
 10 15  1  0
 11 12  1  0
 12 13  2  0
 13 14  1  0
 14 15  2  0
 16 17  2  0
 16 18  1  0
 18 19  1  0
 19 20  2  0
 19 24  1  0
 20 21  1  0
 21 22  2  0
 22 23  1  0
 23 24  2  0
M  END
