
     RDKit          3D

 24 27  0  0  0  0  0  0  0  0999 V2000
    0.2120    0.6810   -1.5460 O   0  0  0  0  0  0  0  0  0  0  0  0
    1.2780    0.3780   -0.9590 C   0  0  0  0  0  0  0  0  0  0  0  0
    2.4540    0.9800   -1.2570 N   0  0  0  0  0  0  0  0  0  0  0  0
    3.6070    0.6550   -0.6240 C   0  0  0  0  0  0  0  0  0  0  0  0
    4.8030    1.2850   -0.9410 C   0  0  0  0  0  0  0  0  0  0  0  0
    5.9760    0.9500   -0.2890 C   0  0  0  0  0  0  0  0  0  0  0  0
    5.9950   -0.0230    0.7020 C   0  0  0  0  0  0  0  0  0  0  0  0
    7.1440   -0.3830    1.3740 O   0  0  0  0  0  0  0  0  0  0  0  0
    4.8000   -0.6290    0.9950 C   0  0  0  0  0  0  0  0  0  0  0  0
    3.6200   -0.3110    0.3570 C   0  0  0  0  0  0  0  0  0  0  0  0
    2.4050   -0.9310    0.6630 C   0  0  0  0  0  0  0  0  0  0  0  0
    1.2570   -0.5820    0.0080 C   0  0  0  0  0  0  0  0  0  0  0  0
   -0.0450   -1.2810    0.3880 C   0  0  0  0  0  0  0  0  0  0  0  0
   -0.7560   -0.2970    1.2210 C   0  0  0  0  0  0  0  0  0  0  0  0
   -1.9890    0.0610    1.1060 C   0  0  0  0  0  0  0  0  0  0  0  0
   -2.5920    1.1000    2.0200 C   0  0  0  0  0  0  0  0  0  0  0  0
   -3.8340    1.6290    1.3830 C   0  0  0  0  0  0  0  0  0  0  0  0
   -3.6940    1.6870   -0.1440 C   0  0  0  0  0  0  0  0  0  0  0  0
   -3.7600    0.2480   -0.5660 C   0  0  0  0  0  0  0  0  0  0  0  0
   -4.6150   -0.2300   -1.4920 C   0  0  0  0  0  0  0  0  0  0  0  0
   -4.5820   -1.6090   -1.7320 C   0  0  0  0  0  0  0  0  0  0  0  0
   -3.7050   -2.4160   -1.0370 C   0  0  0  0  0  0  0  0  0  0  0  0
   -2.8350   -1.9290   -0.0940 C   0  0  0  0  0  0  0  0  0  0  0  0
   -2.8690   -0.5760    0.1370 C   0  0  0  0  0  0  0  0  0  0  0  0
  1  2  2  0
  2  3  1  0
  2 12  1  0
  3  4  1  0
  4  5  2  0
  4 10  1  0
  5  6  1  0
  6  7  2  0
  7  8  1  0
  7  9  1  0
  9 10  2  0
 10 11  1  0
 11 12  2  0
 12 13  1  0
 13 14  1  0
 14 15  2  3
 15 16  1  0
 15 24  1  0
 16 17  1  0
 17 18  1  0
 18 19  1  0
 19 20  2  0
 19 24  1  0
 20 21  1  0
 21 22  2  0
 22 23  1  0
 23 24  2  0
M  END
