
     RDKit          3D

 24 27  0  0  0  0  0  0  0  0999 V2000
    5.4610   -0.7000   -1.8970 C   0  0  0  0  0  0  0  0  0  0  0  0
    4.2710   -0.4930   -1.0010 C   0  0  0  0  0  0  0  0  0  0  0  0
    3.0080   -0.9040   -1.3880 C   0  0  0  0  0  0  0  0  0  0  0  0
    1.9330   -0.7040   -0.5500 C   0  0  0  0  0  0  0  0  0  0  0  0
    0.6530   -1.0010   -0.6880 N   0  0  0  0  0  0  0  0  0  0  0  0
   -0.0300   -0.6000    0.4260 C   0  0  0  0  0  0  0  0  0  0  0  0
   -1.3700   -0.7720    0.5770 O   0  0  0  0  0  0  0  0  0  0  0  0
   -2.3570    0.0550    0.1150 C   0  0  0  0  0  0  0  0  0  0  0  0
   -2.0060    1.1890   -0.5810 C   0  0  0  0  0  0  0  0  0  0  0  0
   -2.9640    2.0640   -1.0730 C   0  0  0  0  0  0  0  0  0  0  0  0
   -4.3020    1.8040   -0.8680 C   0  0  0  0  0  0  0  0  0  0  0  0
   -4.6810    0.6760   -0.1740 C   0  0  0  0  0  0  0  0  0  0  0  0
   -6.0210    0.4150    0.0320 C   0  0  0  0  0  0  0  0  0  0  0  0
   -6.4050   -0.7130    0.7260 C   0  0  0  0  0  0  0  0  0  0  0  0
   -5.4140   -1.5490    1.1940 C   0  0  0  0  0  0  0  0  0  0  0  0
   -4.0660   -1.3110    1.0000 C   0  0  0  0  0  0  0  0  0  0  0  0
   -3.6970   -0.1910    0.3120 C   0  0  0  0  0  0  0  0  0  0  0  0
    0.8720   -0.0260    1.2960 C   0  0  0  0  0  0  0  0  0  0  0  0
    0.4960    0.5170    2.5930 C   0  0  0  0  0  0  0  0  0  0  0  0
    0.5020   -0.2100    3.6430 O   0  0  0  0  0  0  0  0  0  0  0  0
    2.1060   -0.0910    0.6840 C   0  0  0  0  0  0  0  0  0  0  0  0
    3.3490    0.3180    1.0750 C   0  0  0  0  0  0  0  0  0  0  0  0
    4.3990    0.1100    0.2290 C   0  0  0  0  0  0  0  0  0  0  0  0
    5.7530    0.5560    0.6540 C   0  0  0  0  0  0  0  0  0  0  0  0
  1  2  1  0
  2  3  2  0
  2 23  1  0
  3  4  1  0
  4  5  1  0
  4 21  2  0
  5  6  1  0
  6  7  1  0
  6 18  2  0
  7  8  1  0
  8  9  2  0
  8 17  1  0
  9 10  1  0
 10 11  2  0
 11 12  1  0
 12 13  2  0
 12 17  1  0
 13 14  1  0
 14 15  2  0
 15 16  1  0
 16 17  2  0
 18 19  1  0
 18 21  1  0
 19 20  2  0
 21 22  1  0
 22 23  2  0
 23 24  1  0
M  END
