
     RDKit          3D

 24 26  0  0  0  0  0  0  0  0999 V2000
   -5.0100    1.7120   -2.0650 C   0  0  0  0  0  0  0  0  0  0  0  0
   -4.6120    1.6980   -0.6310 C   0  0  0  0  0  0  0  0  0  0  0  0
   -3.6510    0.6070   -0.3060 C   0  0  0  0  0  0  0  0  0  0  0  0
   -2.3210    0.9180   -0.1240 C   0  0  0  0  0  0  0  0  0  0  0  0
   -1.3670   -0.0320    0.1780 C   0  0  0  0  0  0  0  0  0  0  0  0
    0.0370    0.3560    0.3580 C   0  0  0  0  0  0  0  0  0  0  0  0
    0.5370    1.6300    0.2510 C   0  0  0  0  0  0  0  0  0  0  0  0
    1.8940    1.5960    0.4870 C   0  0  0  0  0  0  0  0  0  0  0  0
    2.1740    0.2670    0.7350 C   0  0  0  0  0  0  0  0  0  0  0  0
    3.4880   -0.2540    1.0340 C   0  0  0  0  0  0  0  0  0  0  0  0
    4.5300    0.0170    0.2960 C   0  0  0  0  0  0  0  0  0  0  0  0
    4.4560    0.8540   -0.8820 C   0  0  0  0  0  0  0  0  0  0  0  0
    5.5800    1.1070   -1.5840 C   0  0  0  0  0  0  0  0  0  0  0  0
    6.8420    0.5440   -1.1570 C   0  0  0  0  0  0  0  0  0  0  0  0
    7.8600    0.8000   -1.8290 O   0  0  0  0  0  0  0  0  0  0  0  0
    6.9240   -0.3020    0.0320 C   0  0  0  0  0  0  0  0  0  0  0  0
    5.8350   -0.5500    0.7150 C   0  0  0  0  0  0  0  0  0  0  0  0
    5.8840   -1.3640    1.8690 N   0  0  0  0  0  0  0  0  0  0  0  0
    1.0330   -0.4320    0.6470 O   0  0  0  0  0  0  0  0  0  0  0  0
   -1.7980   -1.3350    0.2950 C   0  0  0  0  0  0  0  0  0  0  0  0
   -3.1450   -1.6580    0.1120 C   0  0  0  0  0  0  0  0  0  0  0  0
   -3.5920   -3.0640    0.2400 C   0  0  0  0  0  0  0  0  0  0  0  0
   -4.0900   -0.6930   -0.1910 C   0  0  0  0  0  0  0  0  0  0  0  0
   -5.5200   -1.0740   -0.3790 C   0  0  0  0  0  0  0  0  0  0  0  0
  1  2  1  0
  2  3  1  0
  3  4  2  0
  3 23  1  0
  4  5  1  0
  5  6  1  0
  5 20  2  0
  6  7  2  0
  6 19  1  0
  7  8  1  0
  8  9  2  0
  9 10  1  0
  9 19  1  0
 10 11  2  3
 11 12  1  0
 11 17  1  0
 12 13  2  0
 13 14  1  0
 14 15  2  0
 14 16  1  0
 16 17  2  0
 17 18  1  0
 20 21  1  0
 21 22  1  0
 21 23  2  0
 23 24  1  0
M  END
