
     RDKit          3D

 24 26  0  0  0  0  0  0  0  0999 V2000
    7.5120    0.9090    0.8910 C   0  0  0  0  0  0  0  0  0  0  0  0
    6.2260    0.6940    0.1820 C   0  0  0  0  0  0  0  0  0  0  0  0
    5.1000    1.3970    0.5360 C   0  0  0  0  0  0  0  0  0  0  0  0
    3.8930    1.2090   -0.1120 C   0  0  0  0  0  0  0  0  0  0  0  0
    3.7810    0.3140   -1.1240 C   0  0  0  0  0  0  0  0  0  0  0  0
    2.5760   -0.0600   -1.8220 C   0  0  0  0  0  0  0  0  0  0  0  0
    1.3650   -0.0670   -1.5260 C   0  0  0  0  0  0  0  0  0  0  0  0
    0.5790    0.2660   -0.3700 C   0  0  0  0  0  0  0  0  0  0  0  0
    0.8920    0.4480    0.9500 C   0  0  0  0  0  0  0  0  0  0  0  0
   -0.2500    0.7660    1.6340 C   0  0  0  0  0  0  0  0  0  0  0  0
   -1.2670    0.7750    0.7140 C   0  0  0  0  0  0  0  0  0  0  0  0
   -2.6730    1.0750    1.0400 C   0  0  0  0  0  0  0  0  0  0  0  0
   -3.6330    0.3790    0.4760 C   0  0  0  0  0  0  0  0  0  0  0  0
   -3.3100   -0.6220   -0.4130 O   0  0  0  0  0  0  0  0  0  0  0  0
   -5.0210    0.6570    0.7810 C   0  0  0  0  0  0  0  0  0  0  0  0
   -6.0430    0.0060    0.2610 C   0  0  0  0  0  0  0  0  0  0  0  0
   -7.5090    0.2390    0.5300 C   0  0  0  0  0  0  0  0  0  0  0  0
   -7.9490   -1.2100    0.7040 C   0  0  0  0  0  0  0  0  0  0  0  0
   -7.2590   -1.8790   -0.4550 C   0  0  0  0  0  0  0  0  0  0  0  0
   -6.0550   -1.0770   -0.6740 N   0  0  0  0  0  0  0  0  0  0  0  0
   -0.7520    0.4810   -0.4300 O   0  0  0  0  0  0  0  0  0  0  0  0
    4.9570   -0.3990   -1.4720 C   0  0  0  0  0  0  0  0  0  0  0  0
    6.1530   -0.2230   -0.8430 C   0  0  0  0  0  0  0  0  0  0  0  0
    7.3600   -1.0160   -1.2630 C   0  0  0  0  0  0  0  0  0  0  0  0
  1  2  1  0
  2  3  2  0
  2 23  1  0
  3  4  1  0
  4  5  2  0
  5  6  1  0
  5 22  1  0
  6  7  2  3
  7  8  1  0
  8  9  2  0
  8 21  1  0
  9 10  1  0
 10 11  2  0
 11 12  1  0
 11 21  1  0
 12 13  2  3
 13 14  1  0
 13 15  1  0
 15 16  2  3
 16 17  1  0
 16 20  1  0
 17 18  1  0
 18 19  1  0
 19 20  1  0
 22 23  2  0
 23 24  1  0
M  END
