
     RDKit          3D

 24 27  0  0  0  0  0  0  0  0999 V2000
   -4.6480   -2.4060   -3.6390 C   0  0  0  0  0  0  0  0  0  0  0  0
   -3.7410   -2.0050   -2.5060 C   0  0  0  0  0  0  0  0  0  0  0  0
   -2.9520   -2.7970   -1.7220 C   0  0  0  0  0  0  0  0  0  0  0  0
   -2.3420   -2.0240   -0.8710 O   0  0  0  0  0  0  0  0  0  0  0  0
   -2.6530   -0.7610   -1.0120 C   0  0  0  0  0  0  0  0  0  0  0  0
   -2.1360    0.3380   -0.2120 C   0  0  0  0  0  0  0  0  0  0  0  0
   -2.5450    1.6510   -0.4600 C   0  0  0  0  0  0  0  0  0  0  0  0
   -2.0420    2.6890    0.3130 C   0  0  0  0  0  0  0  0  0  0  0  0
   -2.4320    4.0180    0.0910 N   0  0  0  0  0  0  0  0  0  0  0  0
   -1.1350    2.3860    1.3220 C   0  0  0  0  0  0  0  0  0  0  0  0
   -0.7380    1.0750    1.5550 C   0  0  0  0  0  0  0  0  0  0  0  0
   -1.2370    0.0460    0.7890 C   0  0  0  0  0  0  0  0  0  0  0  0
   -0.8590   -1.2460    1.0040 O   0  0  0  0  0  0  0  0  0  0  0  0
    0.0290   -1.7460    1.9480 C   0  0  0  0  0  0  0  0  0  0  0  0
    1.3620   -1.1680    1.7250 C   0  0  0  0  0  0  0  0  0  0  0  0
    2.3150   -1.2470    2.7070 C   0  0  0  0  0  0  0  0  0  0  0  0
    3.5850   -0.7060    2.4920 C   0  0  0  0  0  0  0  0  0  0  0  0
    3.8820   -0.0960    1.3020 C   0  0  0  0  0  0  0  0  0  0  0  0
    2.9190   -0.0240    0.3260 C   0  0  0  0  0  0  0  0  0  0  0  0
    1.6550   -0.5600    0.5340 C   0  0  0  0  0  0  0  0  0  0  0  0
    3.4700    0.6780   -0.8680 C   0  0  0  0  0  0  0  0  0  0  0  0
    4.5870    1.4880   -0.2790 C   0  0  0  0  0  0  0  0  0  0  0  0
    5.1290    0.5610    0.7940 C   0  0  0  0  0  0  0  0  0  0  0  0
   -3.5540   -0.7140   -2.0590 C   0  0  0  0  0  0  0  0  0  0  0  0
  1  2  1  0
  2  3  2  0
  2 24  1  0
  3  4  1  0
  4  5  1  0
  5  6  1  0
  5 24  2  0
  6  7  2  0
  6 12  1  0
  7  8  1  0
  8  9  1  0
  8 10  2  0
 10 11  1  0
 11 12  2  0
 12 13  1  0
 13 14  1  0
 14 15  1  0
 15 16  2  0
 15 20  1  0
 16 17  1  0
 17 18  2  0
 18 19  1  0
 18 23  1  0
 19 20  2  0
 19 21  1  0
 21 22  1  0
 22 23  1  0
M  END
