
     RDKit          3D

 27 27  0  0  0  0  0  0  0  0999 V2000
   -5.0680   -3.9410   -0.1100 C   0  0  0  0  0  0  0  0  0  0  0  0
   -4.3290   -2.8300    0.3210 O   0  0  0  0  0  0  0  0  0  0  0  0
   -3.3890   -2.1840   -0.4550 C   0  0  0  0  0  0  0  0  0  0  0  0
   -3.2440   -2.6970   -1.6300 O   0  0  0  0  0  0  0  0  0  0  0  0
   -2.5870   -1.0190   -0.0470 C   0  0  1  0  0  0  0  0  0  0  0  0
   -1.6180   -0.7400   -1.0950 O   0  0  0  0  0  0  0  0  0  0  0  0
   -0.2680   -0.8550   -0.8350 C   0  0  0  0  0  0  0  0  0  0  0  0
    0.0600   -1.2050    0.3240 O   0  0  0  0  0  0  0  0  0  0  0  0
    0.7720   -0.5910   -1.8410 C   0  0  0  0  0  0  0  0  0  0  0  0
    2.0480   -0.7730   -1.3180 O   0  0  0  0  0  0  0  0  0  0  0  0
    2.3200    0.0720   -0.2450 C   0  0  1  0  0  0  0  0  0  0  0  0
    2.5410   -0.6210    0.9070 O   0  0  0  0  0  0  0  0  0  0  0  0
    3.8550   -0.8290    1.2420 C   0  0  0  0  0  0  0  0  0  0  0  0
    4.7910   -0.8420    0.0720 C   0  0  1  0  0  0  0  0  0  0  0  0
    4.4240   -1.8110   -0.8480 O   0  0  0  0  0  0  0  0  0  0  0  0
    4.7750    0.5080   -0.5590 C   0  0  2  0  0  0  0  0  0  0  0  0
    5.6610    1.4930    0.2160 C   0  0  0  0  0  0  0  0  0  0  0  0
    5.6420    2.7430   -0.3740 O   0  0  0  0  0  0  0  0  0  0  0  0
    3.3860    1.0790   -0.5900 C   0  0  2  0  0  0  0  0  0  0  0  0
    3.2770    2.2140    0.2220 O   0  0  0  0  0  0  0  0  0  0  0  0
   -3.3510    0.2290    0.2370 C   0  0  1  0  0  0  0  0  0  0  0  0
   -4.3500    0.1670    1.3260 C   0  0  0  0  0  0  0  0  0  0  0  0
   -5.3660   -0.7380    1.1510 O   0  0  0  0  0  0  0  0  0  0  0  0
   -2.3840    1.4040    0.4610 C   0  0  1  0  0  0  0  0  0  0  0  0
   -1.6240    1.5490   -0.7190 O   0  0  0  0  0  0  0  0  0  0  0  0
   -3.1550    2.6800    0.6370 C   0  0  0  0  0  0  0  0  0  0  0  0
   -4.0300    2.9120   -0.4230 O   0  0  0  0  0  0  0  0  0  0  0  0
  1  2  1  0
  2  3  1  0
  3  4  2  0
  3  5  1  0
  5  6  1  6
  5 21  1  0
  6  7  1  0
  7  8  2  0
  7  9  1  0
  9 10  1  0
 11 10  1  6
 11 12  1  0
 11 19  1  0
 12 13  1  0
 13 14  1  0
 14 15  1  6
 14 16  1  0
 16 17  1  1
 16 19  1  0
 17 18  1  0
 19 20  1  1
 21 22  1  1
 21 24  1  0
 22 23  1  0
 24 25  1  6
 24 26  1  0
 26 27  1  0
M  END
