
     RDKit          3D

 27 27  0  0  0  0  0  0  0  0999 V2000
   -1.4000   -2.7240   -0.9980 C   0  0  0  0  0  0  0  0  0  0  0  0
   -1.6450   -1.2530   -0.6170 C   0  0  2  0  0  0  0  0  0  0  0  0
   -2.3900   -0.6680   -1.8290 C   0  0  0  0  0  0  0  0  0  0  0  0
   -0.4370   -0.6520   -0.6210 O   0  0  0  0  0  0  0  0  0  0  0  0
    0.1640   -0.2630    0.4980 C   0  0  2  0  0  0  0  0  0  0  0  0
    0.0260    1.1420    0.6180 O   0  0  0  0  0  0  0  0  0  0  0  0
    1.6780   -0.4890    0.3710 C   0  0  0  0  0  0  0  0  0  0  0  0
    2.2140    0.3140   -0.7950 C   0  0  2  0  0  0  0  0  0  0  0  0
    1.6250   -0.0450   -2.0010 O   0  0  0  0  0  0  0  0  0  0  0  0
    3.6940    0.0510   -0.9100 C   0  0  2  0  0  0  0  0  0  0  0  0
    3.8730   -1.3020   -1.1670 O   0  0  0  0  0  0  0  0  0  0  0  0
    4.2870    0.4000    0.2990 O   0  0  0  0  0  0  0  0  0  0  0  0
    5.1780    1.4390    0.0680 C   0  0  1  0  0  0  0  0  0  0  0  0
    4.8710    2.5870    0.7950 O   0  0  0  0  0  0  0  0  0  0  0  0
    6.5690    0.9290    0.4140 C   0  0  0  0  0  0  0  0  0  0  0  0
    7.5000    1.9480    0.1950 O   0  0  0  0  0  0  0  0  0  0  0  0
   -0.3410   -0.8440    1.7880 C   0  0  2  0  0  0  0  0  0  0  0  0
   -0.0190   -2.1780    1.8780 O   0  0  0  0  0  0  0  0  0  0  0  0
   -1.8090   -0.5570    1.8040 C   0  0  0  0  0  0  0  0  0  0  0  0
   -2.4470   -1.2390    0.6120 C   0  0  2  0  0  0  0  0  0  0  0  0
   -2.7440   -2.5450    1.0860 O   0  0  0  0  0  0  0  0  0  0  0  0
   -3.8210   -0.6060    0.4870 C   0  0  0  0  0  0  0  0  0  0  0  0
   -3.7790    0.7090    0.0290 O   0  0  0  0  0  0  0  0  0  0  0  0
   -4.9630    1.4090   -0.1320 C   0  0  0  0  0  0  0  0  0  0  0  0
   -6.0370    0.8080    0.1500 O   0  0  0  0  0  0  0  0  0  0  0  0
   -5.0020    2.8190   -0.6180 C   0  0  0  0  0  0  0  0  0  0  0  0
   -6.3200    3.2440   -0.6740 O   0  0  0  0  0  0  0  0  0  0  0  0
  2  1  1  6
  2  3  1  0
  2  4  1  0
  2 20  1  0
  4  5  1  0
  5  6  1  1
  5  7  1  0
  5 17  1  0
  7  8  1  0
  8  9  1  6
  8 10  1  0
 10 11  1  1
 10 12  1  0
 12 13  1  0
 13 14  1  1
 13 15  1  0
 15 16  1  0
 17 18  1  6
 17 19  1  0
 19 20  1  0
 20 21  1  1
 20 22  1  0
 22 23  1  0
 23 24  1  0
 24 25  2  0
 24 26  1  0
 26 27  1  0
M  END
