
     RDKit          3D

 28 29  0  0  0  0  0  0  0  0999 V2000
    1.5660   -2.3510    0.2500 O   0  0  0  0  0  0  0  0  0  0  0  0
    1.9680   -1.1830    0.0700 C   0  0  0  0  0  0  0  0  0  0  0  0
    3.2470   -0.8900    0.4910 O   0  0  0  0  0  0  0  0  0  0  0  0
    4.0910   -1.8690    1.1080 C   0  0  0  0  0  0  0  0  0  0  0  0
    5.4050   -1.1400    1.4160 C   0  0  1  0  0  0  0  0  0  0  0  0
    5.1760   -0.0670    2.2730 O   0  0  0  0  0  0  0  0  0  0  0  0
    6.2940   -1.9970    2.0690 O   0  0  0  0  0  0  0  0  0  0  0  0
    1.1270   -0.1540   -0.5610 C   0  0  2  0  0  0  0  0  0  0  0  0
    1.9330    1.0280   -0.5770 O   0  0  0  0  0  0  0  0  0  0  0  0
    1.8870    1.4800    0.7360 C   0  0  0  0  0  0  0  0  0  0  0  0
    0.8090    0.8240    1.3740 O   0  0  0  0  0  0  0  0  0  0  0  0
    0.0340    0.4060    0.2570 C   0  0  1  0  0  0  0  0  0  0  0  0
   -0.3860    1.7470   -0.3730 C   0  0  1  0  0  0  0  0  0  0  0  0
   -1.2220    1.6170   -1.4300 O   0  0  0  0  0  0  0  0  0  0  0  0
   -0.8960    2.1500   -2.6270 C   0  0  0  0  0  0  0  0  0  0  0  0
   -0.7520    3.6330   -2.7100 C   0  0  0  0  0  0  0  0  0  0  0  0
    0.2140    4.1870   -1.8970 O   0  0  0  0  0  0  0  0  0  0  0  0
   -0.8900    2.5070    0.6720 O   0  0  0  0  0  0  0  0  0  0  0  0
   -1.8390    1.9090    1.4340 C   0  0  0  0  0  0  0  0  0  0  0  0
   -2.3190    0.6050    0.8710 C   0  0  0  0  0  0  0  0  0  0  0  0
   -1.1530   -0.3460    0.5940 C   0  0  2  0  0  0  0  0  0  0  0  0
   -0.9070   -0.9840    1.8470 O   0  0  0  0  0  0  0  0  0  0  0  0
   -1.6690   -1.4080   -0.2930 C   0  0  2  0  0  0  0  0  0  0  0  0
   -1.9680   -0.8850   -1.5750 O   0  0  0  0  0  0  0  0  0  0  0  0
   -2.9770   -1.9290    0.2670 C   0  0  0  0  0  0  0  0  0  0  0  0
   -3.5370   -3.0490   -0.5960 C   0  0  1  0  0  0  0  0  0  0  0  0
   -4.7530   -3.5160   -0.0490 O   0  0  0  0  0  0  0  0  0  0  0  0
   -3.8700   -2.5430   -1.8440 O   0  0  0  0  0  0  0  0  0  0  0  0
  1  2  2  0
  2  3  1  0
  8  2  1  1
  3  4  1  0
  4  5  1  0
  5  6  1  1
  5  7  1  0
  8  9  1  0
  8 12  1  0
  9 10  1  0
 10 11  1  0
 12 11  1  1
 12 13  1  0
 12 21  1  0
 13 14  1  6
 13 18  1  0
 14 15  1  0
 15 16  1  0
 16 17  1  0
 18 19  1  0
 19 20  1  0
 20 21  1  0
 21 22  1  1
 21 23  1  0
 23 24  1  6
 23 25  1  0
 25 26  1  0
 26 27  1  1
 26 28  1  0
M  END
