
     RDKit          3D

 27 28  0  0  0  0  0  0  0  0999 V2000
   -5.1790    1.4290   -1.5590 O   0  0  0  0  0  0  0  0  0  0  0  0
   -4.2340    1.0420   -2.3270 C   0  0  0  0  0  0  0  0  0  0  0  0
   -3.7230    2.0260   -3.1680 O   0  0  0  0  0  0  0  0  0  0  0  0
   -3.7480   -0.3360   -2.3020 C   0  0  0  0  0  0  0  0  0  0  0  0
   -2.7720   -0.6180   -1.1490 C   0  0  1  0  0  0  0  0  0  0  0  0
   -2.4450   -1.9920   -1.3310 O   0  0  0  0  0  0  0  0  0  0  0  0
   -1.5100    0.1130   -1.4300 C   0  0  0  0  0  0  0  0  0  0  0  0
   -0.3690   -0.6980   -1.2060 O   0  0  0  0  0  0  0  0  0  0  0  0
    0.5920    0.1060   -0.6330 C   0  0  0  0  0  0  0  0  0  0  0  0
    1.7990   -0.6400   -0.1520 C   0  0  1  0  0  0  0  0  0  0  0  0
    2.7430    0.4230    0.4270 C   0  0  2  0  0  0  0  0  0  0  0  0
    2.8660    1.3850   -0.5670 O   0  0  0  0  0  0  0  0  0  0  0  0
    4.1130   -0.1580    0.6830 C   0  0  1  0  0  0  0  0  0  0  0  0
    4.6620   -0.7400   -0.4410 O   0  0  0  0  0  0  0  0  0  0  0  0
    5.4900    0.1490   -1.0660 C   0  0  0  0  0  0  0  0  0  0  0  0
    5.5170    1.3270   -0.1510 C   0  0  0  0  0  0  0  0  0  0  0  0
    4.9750    0.8550    1.0230 O   0  0  0  0  0  0  0  0  0  0  0  0
    1.6340   -1.6110    0.7530 O   0  0  0  0  0  0  0  0  0  0  0  0
    1.1030   -1.9140    1.9050 C   0  0  0  0  0  0  0  0  0  0  0  0
    1.6500   -2.8830    2.5460 O   0  0  0  0  0  0  0  0  0  0  0  0
   -0.0630   -1.2870    2.5930 C   0  0  1  0  0  0  0  0  0  0  0  0
    0.3360   -0.0460    3.0750 O   0  0  0  0  0  0  0  0  0  0  0  0
   -1.1640   -1.2000    1.7410 O   0  0  0  0  0  0  0  0  0  0  0  0
   -2.0840   -0.3320    2.2560 C   0  0  0  0  0  0  0  0  0  0  0  0
   -2.8470    0.4430    1.1720 C   0  0  2  0  0  0  0  0  0  0  0  0
   -3.8900    1.0790    1.8970 O   0  0  0  0  0  0  0  0  0  0  0  0
   -3.4030   -0.4740    0.1620 C   0  0  0  0  0  0  0  0  0  0  0  0
  1  2  2  0
  2  3  1  0
  2  4  1  0
  4  5  1  0
  5  6  1  6
  5  7  1  0
  5 27  1  0
  7  8  1  0
  8  9  1  0
 10  9  1  1
 10 11  1  0
 10 18  1  0
 11 12  1  6
 11 13  1  0
 13 14  1  6
 13 17  1  0
 14 15  1  0
 15 16  1  0
 16 17  1  0
 18 19  1  0
 19 20  2  0
 19 21  1  0
 21 22  1  6
 21 23  1  0
 23 24  1  0
 24 25  1  0
 25 26  1  1
 25 27  1  0
M  END
