
     RDKit          3D

 27 27  0  0  0  0  0  0  0  0999 V2000
   -5.5910    0.7720   -3.0010 C   0  0  0  0  0  0  0  0  0  0  0  0
   -4.5110    0.2660   -2.2540 O   0  0  0  0  0  0  0  0  0  0  0  0
   -4.5130    0.4410   -0.8780 C   0  0  0  0  0  0  0  0  0  0  0  0
   -5.4720    1.0400   -0.3530 O   0  0  0  0  0  0  0  0  0  0  0  0
   -3.5070   -0.0140   -0.0530 O   0  0  0  0  0  0  0  0  0  0  0  0
   -3.5540    0.1910    1.3670 C   0  0  0  0  0  0  0  0  0  0  0  0
   -2.3500   -0.3950    2.0260 C   0  0  1  0  0  0  0  0  0  0  0  0
   -2.5100   -0.2110    3.5250 C   0  0  0  0  0  0  0  0  0  0  0  0
   -2.3090   -1.7540    1.7680 O   0  0  0  0  0  0  0  0  0  0  0  0
   -1.1230    0.3460    1.6120 C   0  0  2  0  0  0  0  0  0  0  0  0
   -1.2950    1.6860    1.9250 O   0  0  0  0  0  0  0  0  0  0  0  0
   -0.7820    0.1730    0.1460 C   0  0  0  0  0  0  0  0  0  0  0  0
    0.6710    0.6140    0.1940 C   0  0  2  0  0  0  0  0  0  0  0  0
    0.6530    1.9970   -0.1040 O   0  0  0  0  0  0  0  0  0  0  0  0
    1.5160   -0.0420   -0.8420 C   0  0  1  0  0  0  0  0  0  0  0  0
    1.5620   -1.5330   -0.7440 C   0  0  0  0  0  0  0  0  0  0  0  0
    1.1000    0.3200   -2.2510 C   0  0  0  0  0  0  0  0  0  0  0  0
    1.8920   -0.2950   -3.1920 O   0  0  0  0  0  0  0  0  0  0  0  0
    2.9110    0.4620   -0.6690 C   0  0  0  0  0  0  0  0  0  0  0  0
    3.2240    1.2890    0.2200 O   0  0  0  0  0  0  0  0  0  0  0  0
    3.8930    0.0110   -1.5030 O   0  0  0  0  0  0  0  0  0  0  0  0
    5.2480    0.3720   -1.4850 C   0  0  0  0  0  0  0  0  0  0  0  0
    5.9070    0.0300   -0.1870 C   0  0  0  0  0  0  0  0  0  0  0  0
    7.2550    0.4140   -0.2330 O   0  0  0  0  0  0  0  0  0  0  0  0
    1.1390    0.3610    1.4490 O   0  0  0  0  0  0  0  0  0  0  0  0
    0.1400   -0.1290    2.2460 C   0  0  2  0  0  0  0  0  0  0  0  0
    0.1900   -1.5050    2.4410 O   0  0  0  0  0  0  0  0  0  0  0  0
  1  2  1  0
  2  3  1  0
  3  4  2  0
  3  5  1  0
  5  6  1  0
  6  7  1  0
  7  8  1  1
  7  9  1  0
  7 10  1  0
 10 11  1  6
 10 12  1  0
 10 26  1  0
 12 13  1  0
 13 14  1  6
 13 15  1  0
 13 25  1  0
 15 16  1  6
 15 17  1  0
 15 19  1  0
 17 18  1  0
 19 20  2  0
 19 21  1  0
 21 22  1  0
 22 23  1  0
 23 24  1  0
 25 26  1  0
 26 27  1  6
M  END
