
     RDKit          3D

 28 28  0  0  0  0  0  0  0  0999 V2000
    7.2160   -1.3040   -1.1280 C   0  0  0  0  0  0  0  0  0  0  0  0
    5.8920   -0.7780   -1.2560 O   0  0  0  0  0  0  0  0  0  0  0  0
    5.2880   -0.0380   -0.2550 C   0  0  0  0  0  0  0  0  0  0  0  0
    5.9230    0.1850    0.8130 O   0  0  0  0  0  0  0  0  0  0  0  0
    4.0120    0.4820   -0.3510 O   0  0  0  0  0  0  0  0  0  0  0  0
    3.4090    1.2470    0.7040 C   0  0  1  0  0  0  0  0  0  0  0  0
    3.1160    2.4850    0.1890 O   0  0  0  0  0  0  0  0  0  0  0  0
    2.2310    0.5020    1.2370 C   0  0  0  0  0  0  0  0  0  0  0  0
    1.1620    0.2280    0.2200 C   0  0  2  0  0  0  0  0  0  0  0  0
    0.6090    1.3340   -0.3540 O   0  0  0  0  0  0  0  0  0  0  0  0
   -0.1260    2.1560    0.4500 C   0  0  0  0  0  0  0  0  0  0  0  0
   -1.4120    2.6330   -0.2330 C   0  0  2  0  0  0  0  0  0  0  0  0
   -1.3260    3.9520   -0.6470 O   0  0  0  0  0  0  0  0  0  0  0  0
   -2.6070    2.5020    0.6880 C   0  0  0  0  0  0  0  0  0  0  0  0
   -3.7370    2.1140   -0.0240 O   0  0  0  0  0  0  0  0  0  0  0  0
   -3.9460    0.7420    0.0200 C   0  0  2  0  0  0  0  0  0  0  0  0
   -5.1390    0.4690    0.8340 C   0  0  0  0  0  0  0  0  0  0  0  0
   -5.7660    1.4260    1.3440 O   0  0  0  0  0  0  0  0  0  0  0  0
   -5.6220   -0.8130    1.0750 O   0  0  0  0  0  0  0  0  0  0  0  0
   -2.7960    0.1700    0.5380 O   0  0  0  0  0  0  0  0  0  0  0  0
   -2.6610   -1.1710    0.3050 C   0  0  0  0  0  0  0  0  0  0  0  0
   -1.6740   -1.5400   -0.7510 C   0  0  2  0  0  0  0  0  0  0  0  0
   -1.6360   -0.6460   -1.8180 O   0  0  0  0  0  0  0  0  0  0  0  0
   -2.1420   -2.8740   -1.3480 C   0  0  0  0  0  0  0  0  0  0  0  0
   -2.2180   -3.8570   -0.3570 O   0  0  0  0  0  0  0  0  0  0  0  0
   -0.2800   -1.7490   -0.2640 C   0  0  0  0  0  0  0  0  0  0  0  0
    0.1740   -0.7700    0.7780 C   0  0  1  0  0  0  0  0  0  0  0  0
    0.8690   -1.5040    1.7690 O   0  0  0  0  0  0  0  0  0  0  0  0
  1  2  1  0
  2  3  1  0
  3  4  2  0
  3  5  1  0
  5  6  1  0
  6  7  1  6
  6  8  1  0
  9  8  1  1
  9 10  1  0
  9 27  1  0
 10 11  1  0
 11 12  1  0
 12 13  1  1
 12 14  1  0
 14 15  1  0
 15 16  1  0
 16 17  1  1
 16 20  1  0
 17 18  2  0
 17 19  1  0
 20 21  1  0
 21 22  1  0
 22 23  1  6
 22 24  1  0
 22 26  1  0
 24 25  1  0
 26 27  1  0
 27 28  1  1
M  END
