
     RDKit          3D

 27 28  0  0  0  0  0  0  0  0999 V2000
   -4.4550   -0.9230    1.8080 O   0  0  0  0  0  0  0  0  0  0  0  0
   -4.5810    0.0010    0.9730 C   0  0  0  0  0  0  0  0  0  0  0  0
   -5.7290    0.7530    1.0070 O   0  0  0  0  0  0  0  0  0  0  0  0
   -3.4800    0.2540   -0.0390 C   0  0  2  0  0  0  0  0  0  0  0  0
   -4.0030   -0.2860   -1.3160 C   0  0  1  0  0  0  0  0  0  0  0  0
   -5.2120    0.4460   -1.5550 O   0  0  0  0  0  0  0  0  0  0  0  0
   -3.2320    0.0720   -2.4520 O   0  0  0  0  0  0  0  0  0  0  0  0
   -2.2410   -0.2560    0.5360 C   0  0  2  0  0  0  0  0  0  0  0  0
   -2.4310   -1.6310    0.8180 O   0  0  0  0  0  0  0  0  0  0  0  0
   -1.9590    0.4300    1.8500 C   0  0  0  0  0  0  0  0  0  0  0  0
   -1.3890    1.8240    1.6750 C   0  0  0  0  0  0  0  0  0  0  0  0
   -1.3720    2.1540    0.3440 O   0  0  0  0  0  0  0  0  0  0  0  0
   -0.5890    1.3200   -0.4070 C   0  0  0  0  0  0  0  0  0  0  0  0
   -0.9710   -0.1370   -0.2860 C   0  0  1  0  0  0  0  0  0  0  0  0
    0.1160   -0.7850    0.5960 C   0  0  0  0  0  0  0  0  0  0  0  0
    1.0660   -1.6160   -0.2350 C   0  0  2  0  0  0  0  0  0  0  0  0
    1.9560   -0.8280   -1.1310 C   0  0  0  0  0  0  0  0  0  0  0  0
    2.7700    0.0760   -0.5120 O   0  0  0  0  0  0  0  0  0  0  0  0
    3.6570   -0.4340    0.3980 C   0  0  2  0  0  0  0  0  0  0  0  0
    3.4000    0.1350    1.6430 O   0  0  0  0  0  0  0  0  0  0  0  0
    5.0990   -0.1190    0.0670 C   0  0  2  0  0  0  0  0  0  0  0  0
    5.8880   -0.6920    1.0640 O   0  0  0  0  0  0  0  0  0  0  0  0
    5.3600    1.3720    0.0920 C   0  0  0  0  0  0  0  0  0  0  0  0
    5.0400    1.9360    1.3050 O   0  0  0  0  0  0  0  0  0  0  0  0
    0.2780   -2.5200   -0.9320 O   0  0  0  0  0  0  0  0  0  0  0  0
   -0.6710   -1.9490   -1.7300 C   0  0  0  0  0  0  0  0  0  0  0  0
   -1.0140   -0.6800   -1.5210 O   0  0  0  0  0  0  0  0  0  0  0  0
  1  2  2  0
  2  3  1  0
  4  2  1  1
  4  5  1  0
  4  8  1  0
  5  6  1  6
  5  7  1  0
  8  9  1  1
  8 10  1  0
  8 14  1  0
 10 11  1  0
 11 12  1  0
 12 13  1  0
 14 13  1  6
 14 15  1  0
 14 27  1  0
 15 16  1  0
 16 17  1  6
 16 25  1  0
 17 18  1  0
 18 19  1  0
 19 20  1  1
 19 21  1  0
 21 22  1  1
 21 23  1  0
 23 24  1  0
 25 26  1  0
 26 27  1  0
M  END
