
     RDKit          3D

 26 28  0  0  0  0  0  0  0  0999 V2000
    4.4050    1.8080   -0.0890 C   0  0  0  0  0  0  0  0  0  0  0  0
    3.1830    2.1700    0.7200 C   0  0  0  0  0  0  0  0  0  0  0  0
    2.9300    1.1240    1.7580 C   0  0  0  0  0  0  0  0  0  0  0  0
    2.6960   -0.2170    1.1920 C   0  0  0  0  0  0  0  0  0  0  0  0
    3.6430   -1.1850    1.2030 N   0  0  0  0  0  0  0  0  0  0  0  0
    3.2120   -2.2880    0.6400 N   0  0  0  0  0  0  0  0  0  0  0  0
    3.9430   -3.5500    0.4620 C   0  0  0  0  0  0  0  0  0  0  0  0
    1.9600   -2.0660    0.2430 C   0  0  0  0  0  0  0  0  0  0  0  0
    1.0350   -2.8630   -0.3960 C   0  0  0  0  0  0  0  0  0  0  0  0
    1.2540   -4.0490   -0.7410 O   0  0  0  0  0  0  0  0  0  0  0  0
   -0.1810   -2.3070   -0.6570 N   0  0  0  0  0  0  0  0  0  0  0  0
   -0.5030   -1.0480   -0.3260 C   0  0  0  0  0  0  0  0  0  0  0  0
   -1.8600   -0.5120   -0.6520 C   0  0  0  0  0  0  0  0  0  0  0  0
   -2.8240   -1.1970   -1.2960 C   0  0  0  0  0  0  0  0  0  0  0  0
   -4.0100   -0.6240   -1.5350 C   0  0  0  0  0  0  0  0  0  0  0  0
   -5.4490   -1.2090   -2.3250 S   0  0  2  0  0  0  0  0  0  0  0  0
   -6.7790   -1.1910   -1.2500 N   0  0  0  0  0  0  0  0  0  0  0  0
   -5.2180   -2.6460   -2.7430 O   0  0  0  0  0  0  0  0  0  0  0  0
   -5.7100   -0.4310   -3.5910 O   0  0  0  0  0  0  0  0  0  0  0  0
   -3.8830    0.9690   -0.8640 S   0  0  0  0  0  0  0  0  0  0  0  0
   -2.1750    0.7760   -0.2720 C   0  0  0  0  0  0  0  0  0  0  0  0
   -1.4390    1.7520    0.3970 O   0  0  0  0  0  0  0  0  0  0  0  0
   -1.9880    3.0270    0.6810 C   0  0  0  0  0  0  0  0  0  0  0  0
   -0.9440    3.8120    1.4000 C   0  0  0  0  0  0  0  0  0  0  0  0
    0.4090   -0.2870    0.2960 N   0  0  0  0  0  0  0  0  0  0  0  0
    1.6160   -0.7650    0.5820 C   0  0  0  0  0  0  0  0  0  0  0  0
  1  2  1  0
  2  3  1  0
  3  4  1  0
  4  5  2  0
  4 26  1  0
  5  6  1  0
  6  7  1  0
  6  8  1  0
  8  9  1  0
  8 26  2  0
  9 10  2  0
  9 11  1  0
 11 12  1  0
 12 13  1  0
 12 25  2  0
 13 14  1  0
 13 21  2  0
 14 15  2  0
 15 16  1  0
 15 20  1  0
 16 17  1  1
 16 18  2  0
 16 19  2  0
 20 21  1  0
 21 22  1  0
 22 23  1  0
 23 24  1  0
 25 26  1  0
M  END
