
     RDKit          3D

 27 28  0  0  0  0  0  0  0  0999 V2000
   -0.8100    3.0840   -1.4350 C   0  0  0  0  0  0  0  0  0  0  0  0
   -1.2350    1.9360   -2.0410 O   0  0  0  0  0  0  0  0  0  0  0  0
   -2.1160    1.1210   -1.3960 C   0  0  0  0  0  0  0  0  0  0  0  0
   -1.5840    0.6170   -0.1100 C   0  0  2  0  0  0  0  0  0  0  0  0
   -1.3670    1.7010    0.7350 O   0  0  0  0  0  0  0  0  0  0  0  0
   -0.2730    0.1520   -0.3940 O   0  0  0  0  0  0  0  0  0  0  0  0
    0.3390   -0.0350    0.8170 C   0  0  2  0  0  0  0  0  0  0  0  0
    1.8210    0.0020    0.7450 C   0  0  0  0  0  0  0  0  0  0  0  0
    2.4400   -0.1630    1.8270 O   0  0  0  0  0  0  0  0  0  0  0  0
    2.5320    0.2010   -0.4040 O   0  0  0  0  0  0  0  0  0  0  0  0
    3.9240    0.2270   -0.4080 C   0  0  2  0  0  0  0  0  0  0  0  0
    4.5420    1.2900    0.4390 C   0  0  0  0  0  0  0  0  0  0  0  0
    4.1540    2.5690    0.0430 O   0  0  0  0  0  0  0  0  0  0  0  0
    4.5140    0.1700   -1.7990 C   0  0  0  0  0  0  0  0  0  0  0  0
    5.7430   -0.5100   -1.5540 O   0  0  0  0  0  0  0  0  0  0  0  0
    5.6040   -1.2970   -0.4220 C   0  0  0  0  0  0  0  0  0  0  0  0
    6.4140   -2.1230    0.0810 O   0  0  0  0  0  0  0  0  0  0  0  0
    4.3680   -1.0330    0.1180 O   0  0  0  0  0  0  0  0  0  0  0  0
   -0.1610   -1.3610    1.3470 C   0  0  0  0  0  0  0  0  0  0  0  0
   -1.6220   -1.2490    1.5710 C   0  0  1  0  0  0  0  0  0  0  0  0
   -1.7880   -0.8220    2.9110 O   0  0  0  0  0  0  0  0  0  0  0  0
   -2.4000   -0.4110    0.6010 C   0  0  1  0  0  0  0  0  0  0  0  0
   -3.4440    0.3450    1.4280 C   0  0  0  0  0  0  0  0  0  0  0  0
   -3.1980   -1.3380   -0.2670 C   0  0  1  0  0  0  0  0  0  0  0  0
   -4.1180   -0.6760   -1.0800 O   0  0  0  0  0  0  0  0  0  0  0  0
   -2.4600   -2.4210   -0.9530 C   0  0  0  0  0  0  0  0  0  0  0  0
   -3.3570   -3.4050   -1.4550 O   0  0  0  0  0  0  0  0  0  0  0  0
  1  2  1  0
  2  3  1  0
  3  4  1  0
  4  5  1  1
  4  6  1  0
  4 22  1  0
  6  7  1  0
  7  8  1  6
  7 19  1  0
  8  9  2  0
  8 10  1  0
 10 11  1  0
 11 12  1  1
 11 14  1  0
 11 18  1  0
 12 13  1  0
 14 15  1  0
 15 16  1  0
 16 17  2  0
 16 18  1  0
 19 20  1  0
 20 21  1  1
 20 22  1  0
 22 23  1  1
 22 24  1  0
 24 25  1  6
 24 26  1  0
 26 27  1  0
M  END
