
     RDKit          3D

 27 27  0  0  0  0  0  0  0  0999 V2000
   -1.2930   -3.3030    1.3390 C   0  0  0  0  0  0  0  0  0  0  0  0
   -0.9280   -2.2270    0.3180 C   0  0  2  0  0  0  0  0  0  0  0  0
   -2.1490   -1.4530   -0.1330 C   0  0  0  0  0  0  0  0  0  0  0  0
   -2.3930   -0.2020    0.6850 C   0  0  2  0  0  0  0  0  0  0  0  0
   -3.2190   -0.6080    1.7410 O   0  0  0  0  0  0  0  0  0  0  0  0
   -3.1550    0.7650   -0.1480 C   0  0  1  0  0  0  0  0  0  0  0  0
   -4.1210   -0.0100   -0.8550 O   0  0  0  0  0  0  0  0  0  0  0  0
   -4.0240    1.6620    0.7350 C   0  0  0  0  0  0  0  0  0  0  0  0
   -4.7900    0.8260    1.5460 O   0  0  0  0  0  0  0  0  0  0  0  0
   -2.4890    1.4410   -1.1070 O   0  0  0  0  0  0  0  0  0  0  0  0
   -1.1890    1.7640   -0.9710 C   0  0  1  0  0  0  0  0  0  0  0  0
   -0.8830    2.8630    0.0370 C   0  0  0  0  0  0  0  0  0  0  0  0
    0.5230    3.0440    0.0170 O   0  0  0  0  0  0  0  0  0  0  0  0
   -0.3040    0.7490   -0.7510 O   0  0  0  0  0  0  0  0  0  0  0  0
    0.8730    0.7750   -1.4350 C   0  0  0  0  0  0  0  0  0  0  0  0
    1.1800   -0.4900   -2.2100 C   0  0  2  0  0  0  0  0  0  0  0  0
    0.0460   -0.9550   -2.8930 O   0  0  0  0  0  0  0  0  0  0  0  0
    1.8110   -1.5670   -1.4120 C   0  0  1  0  0  0  0  0  0  0  0  0
    2.3290   -1.0210   -0.2380 O   0  0  0  0  0  0  0  0  0  0  0  0
    3.7070   -1.1260   -0.1700 C   0  0  0  0  0  0  0  0  0  0  0  0
    4.2760   -0.5430    1.0880 C   0  0  0  0  0  0  0  0  0  0  0  0
    4.0070    0.8080    1.2580 O   0  0  0  0  0  0  0  0  0  0  0  0
    4.5330    1.5710    0.2270 C   0  0  0  0  0  0  0  0  0  0  0  0
    4.2810    2.9170    0.3710 O   0  0  0  0  0  0  0  0  0  0  0  0
    1.0280   -2.6610   -1.0970 O   0  0  0  0  0  0  0  0  0  0  0  0
   -0.2960   -2.8250   -0.8910 C   0  0  0  0  0  0  0  0  0  0  0  0
   -1.1100   -3.4540   -1.6270 O   0  0  0  0  0  0  0  0  0  0  0  0
  2  1  1  1
  2  3  1  0
  2 26  1  0
  3  4  1  0
  4  5  1  1
  4  6  1  0
  6  7  1  6
  6  8  1  0
  6 10  1  0
  8  9  1  0
 10 11  1  0
 11 12  1  1
 11 14  1  0
 12 13  1  0
 14 15  1  0
 15 16  1  0
 16 17  1  1
 16 18  1  0
 18 19  1  1
 18 25  1  0
 19 20  1  0
 20 21  1  0
 21 22  1  0
 22 23  1  0
 23 24  1  0
 25 26  1  0
 26 27  2  0
M  END
