
     RDKit          3D

 36 38  0  0  0  0  0  0  0  0999 V2000
    7.7430   -4.9810   -0.8610 C   0  0  0  0  0  0  0  0  0  0  0  0
    6.6980   -4.3090   -0.0660 C   0  0  0  0  0  0  0  0  0  0  0  0
    6.2090   -4.7670    1.1220 C   0  0  0  0  0  0  0  0  0  0  0  0
    5.2720   -3.8560    1.5090 N   0  0  0  0  0  0  0  0  0  0  0  0
    5.2160   -2.9020    0.5830 C   0  0  0  0  0  0  0  0  0  0  0  0
    4.3510   -1.7390    0.6000 C   0  0  0  0  0  0  0  0  0  0  0  0
    3.4560   -1.5000    1.6380 C   0  0  0  0  0  0  0  0  0  0  0  0
    2.6400   -0.3890    1.6410 C   0  0  0  0  0  0  0  0  0  0  0  0
    2.6880    0.5330    0.5970 C   0  0  0  0  0  0  0  0  0  0  0  0
    1.7910    1.7050    0.6530 C   0  0  1  0  0  0  0  0  0  0  0  0
    2.5910    2.8670    0.2860 N   0  0  0  0  0  0  0  0  0  0  0  0
    0.6090    1.5170   -0.2620 C   0  0  2  0  0  0  0  0  0  0  0  0
   -0.2690    2.7480   -0.2470 C   0  0  0  0  0  0  0  0  0  0  0  0
    0.4770    3.8730   -0.6720 O   0  0  0  0  0  0  0  0  0  0  0  0
   -0.0860    5.1210   -0.7490 C   0  0  0  0  0  0  0  0  0  0  0  0
    0.6810    6.1760   -1.1680 C   0  0  0  0  0  0  0  0  0  0  0  0
    0.1410    7.4490   -1.2560 C   0  0  0  0  0  0  0  0  0  0  0  0
   -1.1630    7.6860   -0.9300 C   0  0  0  0  0  0  0  0  0  0  0  0
   -1.9510    6.6420   -0.5080 C   0  0  0  0  0  0  0  0  0  0  0  0
   -1.4060    5.3690   -0.4210 C   0  0  0  0  0  0  0  0  0  0  0  0
   -0.0950    0.4020    0.1480 O   0  0  0  0  0  0  0  0  0  0  0  0
   -0.1720   -0.5890   -0.8140 C   0  0  0  0  0  0  0  0  0  0  0  0
   -0.9630   -1.7430   -0.2360 C   0  0  1  0  0  0  0  0  0  0  0  0
   -0.3860   -2.2790    0.8960 O   0  0  0  0  0  0  0  0  0  0  0  0
   -2.3940   -1.2670    0.0650 C   0  0  0  0  0  0  0  0  0  0  0  0
   -3.0770   -2.3670    0.4790 O   0  0  0  0  0  0  0  0  0  0  0  0
   -4.4180   -2.1580    0.8200 C   0  0  2  0  0  0  0  0  0  0  0  0
   -4.5660   -1.1710    1.9200 C   0  0  0  0  0  0  0  0  0  0  0  0
   -4.8680   -3.5100    1.4050 C   0  0  0  0  0  0  0  0  0  0  0  0
   -5.2050   -1.9090   -0.3910 C   0  0  0  0  0  0  0  0  0  0  0  0
   -6.6630   -1.6860   -0.2740 C   0  0  0  0  0  0  0  0  0  0  0  0
   -7.1380   -0.5720    0.4550 N   0  0  0  0  0  0  0  0  0  0  0  0
    3.5690    0.2820   -0.4060 C   0  0  0  0  0  0  0  0  0  0  0  0
    4.4060   -0.8300   -0.4380 C   0  0  0  0  0  0  0  0  0  0  0  0
    5.2910   -1.0100   -1.5250 N   0  0  0  0  0  0  0  0  0  0  0  0
    6.0790   -3.1950   -0.3510 O   0  0  0  0  0  0  0  0  0  0  0  0
  1  2  1  0
  2  3  2  0
  2 36  1  0
  3  4  1  0
  4  5  2  0
  5  6  1  0
  5 36  1  0
  6  7  2  0
  6 34  1  0
  7  8  1  0
  8  9  2  0
  9 10  1  0
  9 33  1  0
 10 11  1  6
 10 12  1  0
 12 13  1  1
 12 21  1  0
 13 14  1  0
 14 15  1  0
 15 16  2  0
 15 20  1  0
 16 17  1  0
 17 18  2  0
 18 19  1  0
 19 20  2  0
 21 22  1  0
 22 23  1  0
 23 24  1  1
 23 25  1  0
 25 26  1  0
 26 27  1  0
 27 28  1  1
 27 29  1  0
 27 30  1  0
 30 31  1  0
 31 32  1  0
 33 34  2  0
 34 35  1  0
M  CHG  2  11   1  32   1
M  END
