
     RDKit          3D

 36 38  0  0  0  0  0  0  0  0999 V2000
   -5.2260    2.5600    0.6610 C   0  0  0  0  0  0  0  0  0  0  0  0
   -4.3040    1.3840    0.2470 C   0  0  0  0  0  0  0  0  0  0  0  0
   -3.1450    1.3310    1.1480 C   0  0  0  0  0  0  0  0  0  0  0  0
   -2.1350    0.2250    0.9480 C   0  0  1  0  0  0  0  0  0  0  0  0
   -1.0870    0.4750    2.0090 C   0  0  0  0  0  0  0  0  0  0  0  0
   -2.7670   -1.0480    1.4950 C   0  0  0  0  0  0  0  0  0  0  0  0
   -2.4580   -2.1450    0.7170 N   0  0  0  0  0  0  0  0  0  0  0  0
   -3.1540   -1.9680   -0.4850 C   0  0  0  0  0  0  0  0  0  0  0  0
   -2.5270   -0.8340   -1.2420 C   0  0  0  0  0  0  0  0  0  0  0  0
   -1.6910    0.1070   -0.4510 N   0  0  0  0  0  0  0  0  0  0  0  0
   -0.6000    0.8260   -0.9970 C   0  0  0  0  0  0  0  0  0  0  0  0
   -0.0620    0.8550   -2.1860 O   0  0  0  0  0  0  0  0  0  0  0  0
    0.1640    1.7820   -0.0820 C   0  0  0  0  0  0  0  0  0  0  0  0
    1.2570    2.4580   -0.9030 C   0  0  0  0  0  0  0  0  0  0  0  0
    0.8110    3.1720   -2.0840 C   0  0  0  0  0  0  0  0  0  0  0  0
   -0.5920    3.2220   -2.3740 N   0  0  0  0  0  0  0  0  0  0  0  0
    1.5300    3.7760   -2.9030 O   0  0  0  0  0  0  0  0  0  0  0  0
    2.5320    2.3790   -0.4790 C   0  0  0  0  0  0  0  0  0  0  0  0
    3.5000    3.0930   -1.4110 C   0  0  0  0  0  0  0  0  0  0  0  0
    3.0220    1.8320    0.7330 N   0  0  0  0  0  0  0  0  0  0  0  0
    3.1950    0.5320    1.2500 C   0  0  0  0  0  0  0  0  0  0  0  0
    2.6560    0.2800    2.4510 C   0  0  0  0  0  0  0  0  0  0  0  0
    2.7230   -1.0300    3.1500 C   0  0  0  0  0  0  0  0  0  0  0  0
    1.8900    1.6060    3.3400 Cl  0  0  0  0  0  0  0  0  0  0  0  0
    4.0100   -0.5730    0.7140 C   0  0  0  0  0  0  0  0  0  0  0  0
    4.8480   -1.3210    1.7090 N   0  0  0  0  0  0  0  0  0  0  0  0
    4.1460   -1.0340   -0.4630 N   0  0  0  0  0  0  0  0  0  0  0  0
    3.6000   -0.7110   -1.7270 C   0  0  0  0  0  0  0  0  0  0  0  0
    2.4300   -1.1330   -2.2200 C   0  0  0  0  0  0  0  0  0  0  0  0
    1.3930   -2.0020   -1.6580 C   0  0  0  0  0  0  0  0  0  0  0  0
    1.0120   -2.9920   -2.6010 C   0  0  0  0  0  0  0  0  0  0  0  0
    0.0040   -3.8920   -2.4150 C   0  0  0  0  0  0  0  0  0  0  0  0
   -0.6560   -3.7860   -1.2180 C   0  0  0  0  0  0  0  0  0  0  0  0
   -0.3230   -2.8190   -0.2390 C   0  0  0  0  0  0  0  0  0  0  0  0
    0.7000   -1.9370   -0.4590 C   0  0  0  0  0  0  0  0  0  0  0  0
   -1.3260   -2.8850    0.8970 C   0  0  0  0  0  0  0  0  0  0  0  0
  1  2  1  0
  2  3  1  0
  3  4  1  0
  4  5  1  1
  4  6  1  0
  4 10  1  0
  6  7  1  0
  7  8  1  0
  7 36  1  0
  8  9  1  0
  9 10  1  0
 10 11  1  0
 11 12  2  0
 11 13  1  0
 13 14  1  0
 14 15  1  0
 14 18  2  0
 15 16  1  0
 15 17  2  0
 18 19  1  0
 18 20  1  0
 20 21  1  0
 21 22  2  3
 21 25  1  0
 22 23  1  0
 22 24  1  0
 25 26  1  0
 25 27  2  0
 27 28  1  0
 28 29  2  0
 29 30  1  0
 30 31  2  0
 30 35  1  0
 31 32  1  0
 32 33  2  0
 33 34  1  0
 34 35  2  0
 34 36  1  0
M  CHG  1  27   1
M  END
