
     RDKit          3D

 35 38  0  0  0  0  0  0  0  0999 V2000
   -6.7380   -1.1230   -1.7850 N   0  0  0  0  0  0  0  0  0  0  0  0
   -5.4000   -1.5870   -1.3860 C   0  0  0  0  0  0  0  0  0  0  0  0
   -5.0080   -0.7510   -0.2140 C   0  0  0  0  0  0  0  0  0  0  0  0
   -3.6100   -1.1210    0.3160 C   0  0  1  0  0  0  0  0  0  0  0  0
   -3.3950   -0.1750    1.4850 C   0  0  0  0  0  0  0  0  0  0  0  0
   -2.5310    0.9940    1.2180 C   0  0  0  0  0  0  0  0  0  0  0  0
   -1.6920    1.4400    2.3400 C   0  0  0  0  0  0  0  0  0  0  0  0
   -0.9340    2.5250    2.4160 C   0  0  0  0  0  0  0  0  0  0  0  0
   -0.7440    3.5490    1.3950 C   0  0  0  0  0  0  0  0  0  0  0  0
    0.1090    3.5290    0.3590 C   0  0  0  0  0  0  0  0  0  0  0  0
    0.2600    4.5360   -0.6150 C   0  0  0  0  0  0  0  0  0  0  0  0
   -0.4280    5.6930   -0.6960 C   0  0  0  0  0  0  0  0  0  0  0  0
   -0.0660    6.7970   -2.0000 Cl  0  0  0  0  0  0  0  0  0  0  0  0
    1.2150    4.1500   -1.4600 N   0  0  0  0  0  0  0  0  0  0  0  0
    1.6550    2.9620   -1.0540 C   0  0  0  0  0  0  0  0  0  0  0  0
    2.5720    2.3370   -1.6690 O   0  0  0  0  0  0  0  0  0  0  0  0
    0.9890    2.5690    0.0590 N   0  0  0  0  0  0  0  0  0  0  0  0
    1.1990    1.3360    0.8310 C   0  0  0  0  0  0  0  0  0  0  0  0
    2.5270    0.7210    0.4830 C   0  0  0  0  0  0  0  0  0  0  0  0
    3.4780    1.4840    0.6010 O   0  0  0  0  0  0  0  0  0  0  0  0
    2.5820   -0.6860    0.0470 N   0  0  0  0  0  0  0  0  0  0  0  0
    3.9770   -1.0340   -0.2980 C   0  0  1  0  0  0  0  0  0  0  0  0
    4.5550   -0.1850   -1.3630 C   0  0  0  0  0  0  0  0  0  0  0  0
    5.7850   -0.9250   -1.9220 C   0  0  0  0  0  0  0  0  0  0  0  0
    6.7470   -1.0330   -0.7640 C   0  0  0  0  0  0  0  0  0  0  0  0
    6.2000   -0.4300    0.5160 C   0  0  0  0  0  0  0  0  0  0  0  0
    4.8710   -1.0030    0.9140 C   0  0  0  0  0  0  0  0  0  0  0  0
    1.3140   -1.3960    0.0610 C   0  0  0  0  0  0  0  0  0  0  0  0
    0.4100   -1.4190   -0.9870 C   0  0  0  0  0  0  0  0  0  0  0  0
   -0.8630   -2.0530   -0.9680 C   0  0  0  0  0  0  0  0  0  0  0  0
   -1.3300   -2.7270    0.1330 C   0  0  0  0  0  0  0  0  0  0  0  0
   -0.4520   -2.7250    1.2060 C   0  0  0  0  0  0  0  0  0  0  0  0
    0.8110   -2.0850    1.1600 C   0  0  0  0  0  0  0  0  0  0  0  0
   -2.6820   -3.3740    0.1490 C   0  0  0  0  0  0  0  0  0  0  0  0
   -3.7060   -2.4950    0.7390 N   0  0  0  0  0  0  0  0  0  0  0  0
  1  2  1  0
  2  3  1  0
  4  3  1  1
  4  5  1  0
  4 35  1  0
  5  6  1  0
  6  7  1  0
  7  8  2  0
  8  9  1  0
  9 10  2  0
 10 11  1  0
 10 17  1  0
 11 12  2  3
 11 14  1  0
 12 13  1  0
 14 15  1  0
 15 16  2  0
 15 17  1  0
 17 18  1  0
 18 19  1  0
 19 20  2  0
 19 21  1  0
 22 21  1  1
 21 28  1  0
 22 23  1  0
 22 27  1  0
 23 24  1  0
 24 25  1  0
 25 26  1  0
 26 27  1  0
 28 29  2  0
 28 33  1  0
 29 30  1  0
 30 31  2  0
 31 32  1  0
 31 34  1  0
 32 33  2  0
 34 35  1  0
M  CHG  2   1   1  35   1
M  END
