
     RDKit          3D

 36 38  0  0  0  0  0  0  0  0999 V2000
    4.4950    1.4160   -3.4130 C   0  0  0  0  0  0  0  0  0  0  0  0
    4.3830    0.4730   -2.2770 C   0  0  0  0  0  0  0  0  0  0  0  0
    3.2680   -0.1290   -1.9090 C   0  0  0  0  0  0  0  0  0  0  0  0
    3.2580   -1.0450   -0.7640 C   0  0  0  0  0  0  0  0  0  0  0  0
    2.3570   -0.5750    0.2860 N   0  0  1  0  0  0  0  0  0  0  0  0
    1.6080    0.5110   -0.3010 C   0  0  0  0  0  0  0  0  0  0  0  0
    1.1450    1.4430    0.7390 C   0  0  0  0  0  0  0  0  0  0  0  0
    1.5570    1.2060    1.9080 O   0  0  0  0  0  0  0  0  0  0  0  0
    0.3060    2.5660    0.6090 N   0  0  0  0  0  0  0  0  0  0  0  0
   -0.3930    3.1370   -0.4670 C   0  0  0  0  0  0  0  0  0  0  0  0
   -0.0840    4.5040   -0.6970 C   0  0  0  0  0  0  0  0  0  0  0  0
   -0.6830    5.2340   -1.6980 C   0  0  0  0  0  0  0  0  0  0  0  0
   -0.3420    6.6480   -1.9210 C   0  0  0  0  0  0  0  0  0  0  0  0
   -0.0750    7.7130   -2.1060 N   0  0  0  0  0  0  0  0  0  0  0  0
   -1.6070    4.6610   -2.5150 C   0  0  0  0  0  0  0  0  0  0  0  0
   -1.9280    3.3410   -2.3140 C   0  0  0  0  0  0  0  0  0  0  0  0
   -1.3270    2.5970   -1.3030 C   0  0  0  0  0  0  0  0  0  0  0  0
   -1.8340    1.1770   -1.1740 C   0  0  0  0  0  0  0  0  0  0  0  0
   -2.0990    0.8520    0.2050 N   0  0  0  0  0  0  0  0  0  0  0  0
   -2.9610   -0.1450    0.7230 C   0  0  0  0  0  0  0  0  0  0  0  0
   -4.0740    0.3450    1.3180 O   0  0  0  0  0  0  0  0  0  0  0  0
   -2.9050   -1.5820    0.7510 C   0  0  0  0  0  0  0  0  0  0  0  0
   -4.0530   -1.9880    0.0760 C   0  0  0  0  0  0  0  0  0  0  0  0
   -4.4730   -3.3540   -0.1810 C   0  0  0  0  0  0  0  0  0  0  0  0
   -3.7460   -4.4640   -0.3030 C   0  0  0  0  0  0  0  0  0  0  0  0
   -2.2840   -4.5100   -0.1920 C   0  0  0  0  0  0  0  0  0  0  0  0
   -1.7390   -3.7470    0.9440 C   0  0  0  0  0  0  0  0  0  0  0  0
   -1.9530   -2.4790    1.4130 C   0  0  0  0  0  0  0  0  0  0  0  0
   -1.1350   -2.2900    2.5970 C   0  0  0  0  0  0  0  0  0  0  0  0
   -1.5260   -3.1190    3.5780 N   0  0  0  0  0  0  0  0  0  0  0  0
    0.0030   -1.4260    2.9520 C   0  0  0  0  0  0  0  0  0  0  0  0
   -0.1400   -0.5580    3.8790 N   0  0  0  0  0  0  0  0  0  0  0  0
    1.3740   -1.5020    2.3630 C   0  0  0  0  0  0  0  0  0  0  0  0
    2.4630   -1.2910    3.1200 C   0  0  0  0  0  0  0  0  0  0  0  0
    4.0620   -1.3670    2.4960 Cl  0  0  0  0  0  0  0  0  0  0  0  0
    1.6620   -1.6370    0.9170 C   0  0  0  0  0  0  0  0  0  0  0  0
  1  2  1  0
  2  3  2  3
  3  4  1  0
  5  4  1  6
  5  6  1  0
  5 36  1  0
  6  7  1  0
  7  8  2  0
  7  9  1  0
  9 10  1  0
 10 11  2  0
 10 17  1  0
 11 12  1  0
 12 13  1  0
 12 15  2  0
 13 14  3  0
 15 16  1  0
 16 17  2  0
 17 18  1  0
 18 19  1  0
 19 20  1  0
 20 21  2  0
 20 22  1  0
 22 23  2  0
 22 28  1  0
 23 24  1  0
 24 25  2  0
 25 26  1  0
 26 27  1  0
 27 28  2  0
 28 29  1  0
 29 30  2  0
 29 31  1  0
 31 32  2  0
 31 33  1  0
 33 34  2  3
 33 36  1  0
 34 35  1  0
M  CHG  2   5   1  32   1
M  END
