
     RDKit          3D

 36 39  0  0  0  0  0  0  0  0999 V2000
    4.0490   -0.9590    3.3570 C   0  0  0  0  0  0  0  0  0  0  0  0
    3.2990   -0.9920    2.0700 C   0  0  0  0  0  0  0  0  0  0  0  0
    2.8470    0.1370    1.4460 C   0  0  0  0  0  0  0  0  0  0  0  0
    2.1420    0.1760    0.2460 C   0  0  0  0  0  0  0  0  0  0  0  0
    1.8950   -1.0420   -0.3380 C   0  0  0  0  0  0  0  0  0  0  0  0
    2.3460   -2.1830    0.2820 C   0  0  0  0  0  0  0  0  0  0  0  0
    3.0420   -2.1970    1.4700 C   0  0  0  0  0  0  0  0  0  0  0  0
    3.4840   -3.4250    2.0660 N   0  0  0  0  0  0  0  0  0  0  0  0
    1.1880   -1.3100   -1.6080 C   0  0  1  0  0  0  0  0  0  0  0  0
    2.1300   -2.1340   -2.4880 C   0  0  0  0  0  0  0  0  0  0  0  0
    1.5040   -2.4400   -3.7840 N   0  0  0  0  0  0  0  0  0  0  0  0
   -0.1380   -1.6450   -1.6410 N   0  0  0  0  0  0  0  0  0  0  0  0
   -0.9230   -2.2010   -0.6230 C   0  0  1  0  0  0  0  0  0  0  0  0
   -0.6550   -3.6840   -0.3520 C   0  0  0  0  0  0  0  0  0  0  0  0
   -1.1520   -1.5180    0.6550 C   0  0  0  0  0  0  0  0  0  0  0  0
   -2.5010   -0.8390    0.7420 C   0  0  0  0  0  0  0  0  0  0  0  0
   -2.7480    0.4270    0.2730 C   0  0  0  0  0  0  0  0  0  0  0  0
   -4.0310    0.6820    0.5160 N   0  0  0  0  0  0  0  0  0  0  0  0
   -4.6240   -0.3210    1.1030 N   0  0  0  0  0  0  0  0  0  0  0  0
   -6.0270   -0.4220    1.5310 C   0  0  0  0  0  0  0  0  0  0  0  0
   -3.7160   -1.2880    1.2650 C   0  0  0  0  0  0  0  0  0  0  0  0
   -3.9210   -2.6180    1.8810 C   0  0  0  0  0  0  0  0  0  0  0  0
   -1.6940    1.2810   -0.3850 C   0  0  0  0  0  0  0  0  0  0  0  0
   -1.7310    2.6680    0.0380 N   0  0  0  0  0  0  0  0  0  0  0  0
   -3.1780    3.0680    0.0920 C   0  0  0  0  0  0  0  0  0  0  0  0
   -0.6990    3.5420    0.3850 C   0  0  0  0  0  0  0  0  0  0  0  0
   -0.8830    3.9850    1.6170 O   0  0  0  0  0  0  0  0  0  0  0  0
    0.4930    4.0860   -0.2270 C   0  0  0  0  0  0  0  0  0  0  0  0
    0.7330    5.4750   -0.0010 C   0  0  0  0  0  0  0  0  0  0  0  0
    1.7830    6.1740   -0.4790 C   0  0  0  0  0  0  0  0  0  0  0  0
    2.7120    5.5320   -1.2450 C   0  0  0  0  0  0  0  0  0  0  0  0
    4.0840    6.4190   -1.8790 Cl  0  0  0  0  0  0  0  0  0  0  0  0
    2.5520    4.1950   -1.5070 C   0  0  0  0  0  0  0  0  0  0  0  0
    1.4500    3.5020   -0.9940 C   0  0  0  0  0  0  0  0  0  0  0  0
    1.5000    2.0340   -1.3910 C   0  0  0  0  0  0  0  0  0  0  0  0
    1.7760    1.3840   -0.2120 O   0  0  0  0  0  0  0  0  0  0  0  0
  1  2  1  0
  2  3  2  0
  2  7  1  0
  3  4  1  0
  4  5  2  0
  4 36  1  0
  5  6  1  0
  5  9  1  0
  6  7  2  0
  7  8  1  0
  9 10  1  1
  9 12  1  0
 10 11  1  0
 12 13  1  0
 13 14  1  1
 13 15  1  0
 15 16  1  0
 16 17  1  0
 16 21  2  0
 17 18  2  0
 17 23  1  0
 18 19  1  0
 19 20  1  0
 19 21  1  0
 21 22  1  0
 23 24  1  0
 24 25  1  0
 24 26  1  0
 26 27  2  0
 26 28  1  0
 28 29  2  0
 28 34  1  0
 29 30  1  0
 30 31  2  0
 31 32  1  0
 31 33  1  0
 33 34  2  0
 34 35  1  0
 35 36  1  0
M  CHG  2  11   1  12   1
M  END
