
     RDKit          3D

 36 38  0  0  0  0  0  0  0  0999 V2000
    9.1910    3.2210   -1.7170 C   0  0  0  0  0  0  0  0  0  0  0  0
    9.3670    2.7610   -0.2860 C   0  0  0  0  0  0  0  0  0  0  0  0
    8.9660    1.2900   -0.1160 C   0  0  0  0  0  0  0  0  0  0  0  0
    7.6140    1.2080   -0.4890 O   0  0  0  0  0  0  0  0  0  0  0  0
    6.8940    0.0110   -0.4590 C   0  0  0  0  0  0  0  0  0  0  0  0
    7.5240   -1.0090   -0.0740 O   0  0  0  0  0  0  0  0  0  0  0  0
    5.4720   -0.0480   -0.8570 C   0  0  0  0  0  0  0  0  0  0  0  0
    4.5540   -0.2890    0.3210 C   0  0  2  0  0  0  0  0  0  0  0  0
    4.8250   -1.5660    1.0420 C   0  0  0  0  0  0  0  0  0  0  0  0
    4.6930   -2.7820    0.2380 C   0  0  0  0  0  0  0  0  0  0  0  0
    4.9360   -4.0340    0.8650 N   0  0  0  0  0  0  0  0  0  0  0  0
    4.3770   -2.8200   -0.9820 O   0  0  0  0  0  0  0  0  0  0  0  0
    3.1980   -0.1530   -0.1540 N   0  0  0  0  0  0  0  0  0  0  0  0
    2.2650    0.1590    0.9020 C   0  0  0  0  0  0  0  0  0  0  0  0
    0.8960   -0.2280    0.4140 C   0  0  1  0  0  0  0  0  0  0  0  0
   -0.1650   -0.1350    1.4860 C   0  0  0  0  0  0  0  0  0  0  0  0
   -1.3580   -0.6500    0.8750 O   0  0  0  0  0  0  0  0  0  0  0  0
   -1.6290   -0.4260   -0.4710 C   0  0  0  0  0  0  0  0  0  0  0  0
   -2.8760   -0.7800   -1.0160 C   0  0  0  0  0  0  0  0  0  0  0  0
   -3.7820   -1.4440   -0.0970 C   0  0  0  0  0  0  0  0  0  0  0  0
   -4.8750   -0.9460    0.4000 C   0  0  0  0  0  0  0  0  0  0  0  0
   -5.7300   -1.7430    1.3360 C   0  0  0  0  0  0  0  0  0  0  0  0
   -5.7080   -3.2440    1.4800 C   0  0  0  0  0  0  0  0  0  0  0  0
   -6.5240   -0.9990    2.0350 C   0  0  0  0  0  0  0  0  0  0  0  0
   -7.4890   -1.3970    3.0350 N   0  0  0  0  0  0  0  0  0  0  0  0
   -6.3240    0.4080    1.6610 C   0  0  0  0  0  0  0  0  0  0  0  0
   -5.5800    0.3660    0.3280 C   0  0  1  0  0  0  0  0  0  0  0  0
   -4.5890    1.4680    0.2670 C   0  0  0  0  0  0  0  0  0  0  0  0
   -5.1140    2.8680    0.2390 C   0  0  0  0  0  0  0  0  0  0  0  0
   -6.5090    0.3470   -0.8270 C   0  0  0  0  0  0  0  0  0  0  0  0
   -7.3180    1.4770   -1.0850 N   0  0  0  0  0  0  0  0  0  0  0  0
   -3.1390   -0.5550   -2.3560 C   0  0  0  0  0  0  0  0  0  0  0  0
   -2.2020    0.0150   -3.1850 C   0  0  0  0  0  0  0  0  0  0  0  0
   -0.9810    0.3610   -2.6480 C   0  0  0  0  0  0  0  0  0  0  0  0
   -0.7040    0.1420   -1.3160 C   0  0  0  0  0  0  0  0  0  0  0  0
    0.5420    0.4910   -0.7540 O   0  0  0  0  0  0  0  0  0  0  0  0
  1  2  1  0
  2  3  1  0
  3  4  1  0
  4  5  1  0
  5  6  2  0
  5  7  1  0
  8  7  1  6
  8  9  1  0
  8 13  1  0
  9 10  1  0
 10 11  1  0
 10 12  2  0
 13 14  1  0
 15 14  1  1
 15 16  1  0
 15 36  1  0
 16 17  1  0
 17 18  1  0
 18 19  2  0
 18 35  1  0
 19 20  1  0
 19 32  1  0
 20 21  2  3
 21 22  1  0
 21 27  1  0
 22 23  1  0
 22 24  2  0
 24 25  1  0
 24 26  1  0
 26 27  1  0
 27 28  1  6
 27 30  1  0
 28 29  1  0
 30 31  1  0
 32 33  2  0
 33 34  1  0
 34 35  2  0
 35 36  1  0
M  CHG  2  13   1  31   1
M  END
