
     RDKit          3D

 36 38  0  0  0  0  0  0  0  0999 V2000
   -3.7820    0.8920    2.7440 C   0  0  0  0  0  0  0  0  0  0  0  0
   -4.3250   -0.0500    1.8520 N   0  0  0  0  0  0  0  0  0  0  0  0
   -3.6790   -1.1630    1.3720 C   0  0  0  0  0  0  0  0  0  0  0  0
   -2.2360   -1.4520    1.4270 C   0  0  2  0  0  0  0  0  0  0  0  0
   -1.6330   -1.5280    2.8030 C   0  0  0  0  0  0  0  0  0  0  0  0
   -1.3690   -0.7430    0.4090 C   0  0  2  0  0  0  0  0  0  0  0  0
   -0.0250   -1.1670    0.6040 N   0  0  0  0  0  0  0  0  0  0  0  0
    0.3460   -2.2910   -0.2880 C   0  0  2  0  0  0  0  0  0  0  0  0
    0.9060   -3.4340    0.4700 C   0  0  0  0  0  0  0  0  0  0  0  0
    1.2610   -4.6280   -0.3000 C   0  0  0  0  0  0  0  0  0  0  0  0
    0.9810   -4.7190   -1.5120 O   0  0  0  0  0  0  0  0  0  0  0  0
    1.9310   -5.7150    0.3080 O   0  0  0  0  0  0  0  0  0  0  0  0
    2.2320   -6.8160   -0.5000 C   0  0  0  0  0  0  0  0  0  0  0  0
    1.3750   -1.8050   -1.2660 C   0  0  0  0  0  0  0  0  0  0  0  0
    2.2010   -2.5830   -1.8080 O   0  0  0  0  0  0  0  0  0  0  0  0
    1.4480   -0.4230   -1.6210 N   0  0  0  0  0  0  0  0  0  0  0  0
    2.4450    0.0840   -2.5640 C   0  0  0  0  0  0  0  0  0  0  0  0
    3.7480    0.2220   -1.8870 C   0  0  0  0  0  0  0  0  0  0  0  0
    4.7270   -0.7330   -1.9920 C   0  0  0  0  0  0  0  0  0  0  0  0
    5.9590   -0.5900   -1.3410 C   0  0  0  0  0  0  0  0  0  0  0  0
    6.2020    0.5410   -0.5700 C   0  0  0  0  0  0  0  0  0  0  0  0
    7.4320    0.6650    0.0690 O   0  0  0  0  0  0  0  0  0  0  0  0
    5.2360    1.5110   -0.4510 C   0  0  0  0  0  0  0  0  0  0  0  0
    5.5170    2.6200    0.3240 O   0  0  0  0  0  0  0  0  0  0  0  0
    4.6290    3.6800    0.5320 C   0  0  0  0  0  0  0  0  0  0  0  0
    4.0230    1.3420   -1.1080 C   0  0  0  0  0  0  0  0  0  0  0  0
   -1.5800    0.6920    0.3060 C   0  0  0  0  0  0  0  0  0  0  0  0
   -0.8990    1.5620    1.1260 C   0  0  0  0  0  0  0  0  0  0  0  0
   -1.0980    2.9210    1.0360 C   0  0  0  0  0  0  0  0  0  0  0  0
   -2.0020    3.4330    0.1010 C   0  0  0  0  0  0  0  0  0  0  0  0
   -2.1590    4.8390    0.0580 N   0  0  0  0  0  0  0  0  0  0  0  0
   -2.6900    2.5700   -0.7270 C   0  0  0  0  0  0  0  0  0  0  0  0
   -3.6430    3.1430   -1.7030 C   0  0  1  0  0  0  0  0  0  0  0  0
   -4.4250    2.3470   -2.6470 C   0  0  0  0  0  0  0  0  0  0  0  0
   -5.1320    2.9230   -1.4800 C   0  0  0  0  0  0  0  0  0  0  0  0
   -2.4660    1.2130   -0.6080 C   0  0  0  0  0  0  0  0  0  0  0  0
  1  2  1  0
  2  3  1  0
  3  4  1  0
  4  5  1  1
  4  6  1  0
  6  7  1  1
  6 27  1  0
  7  8  1  0
  8  9  1  1
  8 14  1  0
  9 10  1  0
 10 11  2  0
 10 12  1  0
 12 13  1  0
 14 15  2  0
 14 16  1  0
 16 17  1  0
 17 18  1  0
 18 19  2  0
 18 26  1  0
 19 20  1  0
 20 21  2  0
 21 22  1  0
 21 23  1  0
 23 24  1  0
 23 26  2  0
 24 25  1  0
 27 28  2  0
 27 36  1  0
 28 29  1  0
 29 30  2  0
 30 31  1  0
 30 32  1  0
 33 32  1  1
 32 36  2  0
 33 34  1  0
 33 35  1  0
 34 35  1  0
M  CHG  2   2   1   7   1
M  END
