
     RDKit          3D

 39 43  0  0  0  0  0  0  0  0999 V2000
   -0.2460    2.5840   -0.0000 C   0  0  0  0  0  0  0  0  0  0  0  0
   -1.1510    1.4120    0.1540 C   0  0  0  0  0  0  0  0  0  0  0  0
   -0.5900    0.1170    0.2690 C   0  0  0  0  0  0  0  0  0  0  0  0
    0.6860   -0.0660    0.2420 O   0  0  0  0  0  0  0  0  0  0  0  0
    1.9620   -0.2720    0.2180 C   0  0  0  0  0  0  0  0  0  0  0  0
    2.4800   -1.1980   -0.9090 C   0  0  0  0  0  0  0  0  0  0  0  0
    3.9450   -1.2730   -0.7520 C   0  0  0  0  0  0  0  0  0  0  0  0
    4.5090   -0.6300    0.1600 O   0  0  0  0  0  0  0  0  0  0  0  0
    4.7780   -2.0560   -1.6010 N   0  0  0  0  0  0  0  0  0  0  0  0
    6.1870   -2.1310   -1.4740 C   0  0  0  0  0  0  0  0  0  0  0  0
    6.8750   -2.9340   -2.3560 C   0  0  0  0  0  0  0  0  0  0  0  0
    8.2480   -3.0610   -2.3130 C   0  0  0  0  0  0  0  0  0  0  0  0
    8.9490   -2.3520   -1.3460 C   0  0  0  0  0  0  0  0  0  0  0  0
    8.2460   -1.5600   -0.4800 C   0  0  0  0  0  0  0  0  0  0  0  0
    8.8920   -0.8080    0.5210 N   0  0  0  0  0  0  0  0  0  0  0  0
   10.3180   -0.7310    0.7210 C   0  0  0  0  0  0  0  0  0  0  0  0
   10.6960    0.7240    0.5220 C   0  0  0  0  0  0  0  0  0  0  0  0
   10.0410    1.4380    1.5240 O   0  0  0  0  0  0  0  0  0  0  0  0
    8.6650    1.3940    1.4180 C   0  0  0  0  0  0  0  0  0  0  0  0
    8.1020   -0.0090    1.4780 C   0  0  0  0  0  0  0  0  0  0  0  0
    6.9010   -1.4670   -0.5590 N   0  0  0  0  0  0  0  0  0  0  0  0
   -1.4740   -0.9650    0.4130 C   0  0  0  0  0  0  0  0  0  0  0  0
   -2.8240   -0.8130    0.4450 C   0  0  0  0  0  0  0  0  0  0  0  0
   -3.3520    0.4660    0.3300 C   0  0  0  0  0  0  0  0  0  0  0  0
   -2.5130    1.5460    0.1880 C   0  0  0  0  0  0  0  0  0  0  0  0
   -3.3170    2.8130    0.0830 C   0  0  2  0  0  0  0  0  0  0  0  0
   -3.4530    3.4950    1.4030 C   0  0  0  0  0  0  0  0  0  0  0  0
   -4.6650    2.2590   -0.3980 C   0  0  0  0  0  0  0  0  0  0  0  0
   -4.7220    0.9630    0.3300 C   0  0  1  0  0  0  0  0  0  0  0  0
   -5.6790    0.0380   -0.2460 N   0  0  0  0  0  0  0  0  0  0  0  0
   -6.8140   -0.4730    0.4240 C   0  0  0  0  0  0  0  0  0  0  0  0
   -7.0040   -0.0960    1.6120 O   0  0  0  0  0  0  0  0  0  0  0  0
   -7.7810   -1.4090   -0.1710 C   0  0  2  0  0  0  0  0  0  0  0  0
   -8.4090   -0.8220   -1.3800 C   0  0  0  0  0  0  0  0  0  0  0  0
   -9.4370    0.1630   -1.0340 C   0  0  0  0  0  0  0  0  0  0  0  0
  -10.2010   -0.2470    0.1730 C   0  0  1  0  0  0  0  0  0  0  0  0
  -11.9040   -0.7060   -0.1310 S   0  0  0  0  0  0  0  0  0  0  0  0
  -12.6370   -1.1550    1.4250 N   0  0  0  0  0  0  0  0  0  0  0  0
   -9.2340   -1.5960    0.9080 S   0  0  0  0  0  0  0  0  0  0  0  0
  1  2  1  0
  2  3  2  0
  2 25  1  0
  3  4  1  0
  3 22  1  0
  4  5  1  0
  5  6  1  0
  6  7  1  0
  7  8  2  0
  7  9  1  0
  9 10  1  0
 10 11  2  0
 10 21  1  0
 11 12  1  0
 12 13  2  0
 13 14  1  0
 14 15  1  0
 14 21  2  0
 15 16  1  0
 15 20  1  0
 16 17  1  0
 17 18  1  0
 18 19  1  0
 19 20  1  0
 22 23  2  0
 23 24  1  0
 24 25  2  0
 24 29  1  0
 25 26  1  0
 26 27  1  1
 26 28  1  0
 28 29  1  0
 29 30  1  6
 30 31  1  0
 31 32  2  0
 33 31  1  1
 33 34  1  0
 33 39  1  0
 34 35  1  0
 35 36  1  0
 36 37  1  6
 36 39  1  0
 37 38  1  0
M  END
