
     RDKit          3D

 39 43  0  0  0  0  0  0  0  0999 V2000
    3.9540    1.9260    1.2090 C   0  0  0  0  0  0  0  0  0  0  0  0
    2.7880    1.3440    0.4160 C   0  0  2  0  0  0  0  0  0  0  0  0
    2.0700    0.2770    1.1730 C   0  0  0  0  0  0  0  0  0  0  0  0
    1.9380   -1.0360    0.4680 C   0  0  2  0  0  0  0  0  0  0  0  0
    1.0020   -0.9360   -0.6910 C   0  0  0  0  0  0  0  0  0  0  0  0
   -0.3450   -0.5290   -0.2560 N   0  0  0  0  0  0  0  0  0  0  0  0
   -1.4130   -0.3660   -1.2130 C   0  0  0  0  0  0  0  0  0  0  0  0
   -1.0320   -0.6110   -2.3870 O   0  0  0  0  0  0  0  0  0  0  0  0
   -2.7580    0.0300   -0.8570 C   0  0  0  0  0  0  0  0  0  0  0  0
   -3.0960    0.2950    0.4800 C   0  0  0  0  0  0  0  0  0  0  0  0
   -4.3520    0.6720    0.8250 C   0  0  0  0  0  0  0  0  0  0  0  0
   -4.7300    0.9880    2.4550 S   0  0  0  0  0  0  0  0  0  0  0  0
   -3.9560    2.4360    2.3950 C   0  0  0  0  0  0  0  0  0  0  0  0
   -6.1890    1.5850    2.8770 C   0  0  0  0  0  0  0  0  0  0  0  0
   -3.5750    0.5530    3.6100 O   0  0  0  0  0  0  0  0  0  0  0  0
   -5.2980    0.7980   -0.1170 C   0  0  0  0  0  0  0  0  0  0  0  0
   -6.4780    1.1490    0.1780 O   0  0  0  0  0  0  0  0  0  0  0  0
   -5.0070    0.5530   -1.4040 N   0  0  0  0  0  0  0  0  0  0  0  0
   -3.7430    0.1680   -1.7950 C   0  0  0  0  0  0  0  0  0  0  0  0
   -3.5110   -0.0890   -3.1690 N   0  0  0  0  0  0  0  0  0  0  0  0
   -4.6510    0.1160   -4.0890 C   0  0  1  0  0  0  0  0  0  0  0  0
   -4.3940   -0.2780   -5.5600 C   0  0  0  0  0  0  0  0  0  0  0  0
   -5.3140   -1.0920   -4.6850 C   0  0  0  0  0  0  0  0  0  0  0  0
    1.4250   -2.0100    1.3800 N   0  0  0  0  0  0  0  0  0  0  0  0
    1.3760   -3.3510    0.9120 C   0  0  0  0  0  0  0  0  0  0  0  0
    2.3750   -4.2240    1.6670 C   0  0  0  0  0  0  0  0  0  0  0  0
    1.8690   -4.3460    3.0850 C   0  0  0  0  0  0  0  0  0  0  0  0
    1.3100   -3.0390    3.5480 C   0  0  0  0  0  0  0  0  0  0  0  0
    1.8210   -1.8580    2.7430 C   0  0  0  0  0  0  0  0  0  0  0  0
    3.3000   -1.4500   -0.0980 C   0  0  0  0  0  0  0  0  0  0  0  0
    3.6300   -0.4480   -1.1380 C   0  0  0  0  0  0  0  0  0  0  0  0
    4.1660   -0.7360   -2.2320 O   0  0  0  0  0  0  0  0  0  0  0  0
    3.3130    0.9070   -0.8590 N   0  0  0  0  0  0  0  0  0  0  0  0
    3.5290    1.8840   -1.9130 C   0  0  0  0  0  0  0  0  0  0  0  0
    4.8990    2.4470   -1.8370 C   0  0  0  0  0  0  0  0  0  0  0  0
    5.3400    3.5580   -1.2230 C   0  0  0  0  0  0  0  0  0  0  0  0
    6.6300    3.8950   -1.2730 C   0  0  0  0  0  0  0  0  0  0  0  0
    7.5000    3.0970   -1.9560 C   0  0  0  0  0  0  0  0  0  0  0  0
    6.3580    1.7860   -2.5540 S   0  0  0  0  0  0  0  0  0  0  0  0
  2  1  1  1
  2  3  1  0
  2 33  1  0
  3  4  1  0
  4  5  1  6
  4 24  1  0
  4 30  1  0
  5  6  1  0
  6  7  1  0
  7  8  2  0
  7  9  1  0
  9 10  1  0
  9 19  2  0
 10 11  2  0
 11 12  1  0
 11 16  1  0
 12 13  1  0
 12 14  1  0
 12 15  2  0
 16 17  2  0
 16 18  1  0
 18 19  1  0
 19 20  1  0
 21 20  1  1
 21 22  1  0
 21 23  1  0
 22 23  1  0
 24 25  1  0
 24 29  1  0
 25 26  1  0
 26 27  1  0
 27 28  1  0
 28 29  1  0
 30 31  1  0
 31 32  2  0
 31 33  1  0
 33 34  1  0
 34 35  1  0
 35 36  2  0
 35 39  1  0
 36 37  1  0
 37 38  2  0
 38 39  1  0
M  END
