
     RDKit          3D

 39 43  0  0  0  0  0  0  0  0999 V2000
   -5.9900   -2.5100    2.4790 C   0  0  0  0  0  0  0  0  0  0  0  0
   -5.2920   -1.5580    1.6540 N   0  0  0  0  0  0  0  0  0  0  0  0
   -5.1490   -2.0590    0.3080 C   0  0  0  0  0  0  0  0  0  0  0  0
   -5.3380   -0.9330   -0.6520 C   0  0  0  0  0  0  0  0  0  0  0  0
   -4.6060    0.3340   -0.2160 C   0  0  1  0  0  0  0  0  0  0  0  0
   -3.1530    0.0180    0.0620 C   0  0  0  0  0  0  0  0  0  0  0  0
   -2.4880   -0.5180   -1.1410 C   0  0  0  0  0  0  0  0  0  0  0  0
   -1.1330   -0.8670   -1.0660 N   0  0  0  0  0  0  0  0  0  0  0  0
   -0.0910    0.0770   -0.7310 C   0  0  0  0  0  0  0  0  0  0  0  0
   -0.5340    1.2290   -0.5170 O   0  0  0  0  0  0  0  0  0  0  0  0
    1.3190   -0.3430   -0.6660 C   0  0  2  0  0  0  0  0  0  0  0  0
    1.5960   -1.6430   -0.0090 C   0  0  0  0  0  0  0  0  0  0  0  0
    3.0790   -1.8510   -0.0640 C   0  0  0  0  0  0  0  0  0  0  0  0
    4.0970   -1.6950    0.4510 N   0  0  0  0  0  0  0  0  0  0  0  0
    5.2580   -2.0680    0.0120 N   0  0  0  0  0  0  0  0  0  0  0  0
    5.4450   -2.6330   -0.9990 C   0  0  0  0  0  0  0  0  0  0  0  0
    6.7600   -3.3150   -1.9720 S   0  0  2  0  0  0  0  0  0  0  0  0
    6.2130   -4.4770   -2.7790 O   0  0  0  0  0  0  0  0  0  0  0  0
    7.8670   -3.7950   -1.0880 O   0  0  0  0  0  0  0  0  0  0  0  0
    7.3220   -2.0160   -3.0270 C   0  0  0  0  0  0  0  0  0  0  0  0
    8.4680   -2.5150   -3.9150 C   0  0  0  0  0  0  0  0  0  0  0  0
    8.0320   -3.5820   -4.7050 O   0  0  0  0  0  0  0  0  0  0  0  0
    3.6870   -2.7660   -1.6340 S   0  0  0  0  0  0  0  0  0  0  0  0
    2.1230    0.7700   -0.2340 N   0  0  0  0  0  0  0  0  0  0  0  0
    1.9770    1.4520    1.0000 C   0  0  0  0  0  0  0  0  0  0  0  0
    1.0390    1.0890    1.9380 C   0  0  0  0  0  0  0  0  0  0  0  0
    0.8960    1.7470    3.1380 C   0  0  0  0  0  0  0  0  0  0  0  0
    1.7080    2.8010    3.4230 C   0  0  0  0  0  0  0  0  0  0  0  0
    2.6630    3.1880    2.4940 C   0  0  0  0  0  0  0  0  0  0  0  0
    3.4830    4.2660    2.8010 C   0  0  0  0  0  0  0  0  0  0  0  0
    4.4360    4.6670    1.8950 C   0  0  0  0  0  0  0  0  0  0  0  0
    4.5910    4.0250    0.6970 C   0  0  0  0  0  0  0  0  0  0  0  0
    3.7730    2.9520    0.3960 C   0  0  0  0  0  0  0  0  0  0  0  0
    2.8010    2.5300    1.3000 C   0  0  0  0  0  0  0  0  0  0  0  0
   -4.8330    1.3720   -1.2450 C   0  0  0  0  0  0  0  0  0  0  0  0
   -5.4460    2.5860   -0.5330 C   0  0  0  0  0  0  0  0  0  0  0  0
   -6.0760    1.9900    0.6980 C   0  0  0  0  0  0  0  0  0  0  0  0
   -5.1880    0.8390    1.0900 C   0  0  1  0  0  0  0  0  0  0  0  0
   -5.9550   -0.2920    1.7170 C   0  0  0  0  0  0  0  0  0  0  0  0
  1  2  1  0
  2  3  1  0
  2 39  1  0
  3  4  1  0
  4  5  1  0
  5  6  1  1
  5 35  1  0
  5 38  1  0
  6  7  1  0
  7  8  1  0
  8  9  1  0
  9 10  2  0
  9 11  1  0
 11 12  1  1
 11 24  1  0
 12 13  1  0
 13 14  2  0
 13 23  1  0
 14 15  1  0
 15 16  2  0
 16 17  1  0
 16 23  1  0
 17 18  2  0
 17 19  2  0
 17 20  1  6
 20 21  1  0
 21 22  1  0
 24 25  1  0
 25 26  2  0
 25 34  1  0
 26 27  1  0
 27 28  2  0
 28 29  1  0
 29 30  2  0
 29 34  1  0
 30 31  1  0
 31 32  2  0
 32 33  1  0
 33 34  2  0
 35 36  1  0
 36 37  1  0
 38 37  1  6
 38 39  1  0
M  END
