
     RDKit          3D

 39 43  0  0  0  0  0  0  0  0999 V2000
   -7.5090   -0.6160   -2.1760 C   0  0  0  0  0  0  0  0  0  0  0  0
   -7.6870   -0.5510   -0.6860 C   0  0  1  0  0  0  0  0  0  0  0  0
   -8.3800   -1.7900   -0.2020 C   0  0  0  0  0  0  0  0  0  0  0  0
   -7.7080   -3.0250   -0.3640 N   0  0  0  0  0  0  0  0  0  0  0  0
   -9.5330   -1.7400    0.3370 O   0  0  0  0  0  0  0  0  0  0  0  0
   -6.3830   -0.3570    0.0080 C   0  0  0  0  0  0  0  0  0  0  0  0
   -5.3290   -1.2260   -0.2250 C   0  0  0  0  0  0  0  0  0  0  0  0
   -4.1280   -1.0210    0.4370 C   0  0  0  0  0  0  0  0  0  0  0  0
   -3.9590    0.0200    1.3160 C   0  0  0  0  0  0  0  0  0  0  0  0
   -2.6860    0.2700    2.0340 C   0  0  0  0  0  0  0  0  0  0  0  0
   -1.8450    1.1890    1.2340 C   0  0  0  0  0  0  0  0  0  0  0  0
   -2.0260    2.5540    1.3420 C   0  0  0  0  0  0  0  0  0  0  0  0
   -1.2350    3.3870    0.6010 C   0  0  0  0  0  0  0  0  0  0  0  0
   -0.2450    2.9310   -0.2680 C   0  0  0  0  0  0  0  0  0  0  0  0
    0.6790    4.1400   -1.1590 S   0  0  0  0  0  0  0  0  0  0  0  0
    2.0510    4.7180   -0.1750 C   0  0  0  0  0  0  0  0  0  0  0  0
    3.0950    3.6240   -0.0800 C   0  0  0  0  0  0  0  0  0  0  0  0
    3.9620    3.7250    0.8100 O   0  0  0  0  0  0  0  0  0  0  0  0
    3.0340    2.5630   -0.9950 N   0  0  0  0  0  0  0  0  0  0  0  0
    3.8960    1.4510   -1.0390 C   0  0  0  0  0  0  0  0  0  0  0  0
    3.8620    0.4840    0.0360 C   0  0  2  0  0  0  0  0  0  0  0  0
    4.1730    0.7540    1.4230 C   0  0  0  0  0  0  0  0  0  0  0  0
    4.0070   -0.3110    2.2770 C   0  0  0  0  0  0  0  0  0  0  0  0
    3.5310   -1.6170    1.6750 C   0  0  0  0  0  0  0  0  0  0  0  0
    4.4420   -1.8540    0.5500 N   0  0  0  0  0  0  0  0  0  0  0  0
    5.2350   -2.9140    0.0550 C   0  0  0  0  0  0  0  0  0  0  0  0
    5.2740   -4.0690    0.5770 O   0  0  0  0  0  0  0  0  0  0  0  0
    5.9340   -2.3840   -1.1080 C   0  0  1  0  0  0  0  0  0  0  0  0
    5.4860   -1.0500   -1.2720 N   0  0  0  0  0  0  0  0  0  0  0  0
    4.6690   -0.7650   -0.3350 C   0  0  0  0  0  0  0  0  0  0  0  0
    7.3760   -2.5110   -1.0160 N   0  0  0  0  0  0  0  0  0  0  0  0
    8.0100   -2.4430   -2.2580 C   0  0  0  0  0  0  0  0  0  0  0  0
    9.0510   -1.7430   -2.5050 O   0  0  0  0  0  0  0  0  0  0  0  0
    7.3580   -3.2720   -3.3040 C   0  0  0  0  0  0  0  0  0  0  0  0
    5.6540   -3.3870   -2.6210 S   0  0  0  0  0  0  0  0  0  0  0  0
   -0.0770    1.5850   -0.3670 C   0  0  0  0  0  0  0  0  0  0  0  0
   -0.8810    0.7240    0.3880 C   0  0  0  0  0  0  0  0  0  0  0  0
   -5.0290    0.8690    1.5260 C   0  0  0  0  0  0  0  0  0  0  0  0
   -6.2320    0.7000    0.8920 C   0  0  0  0  0  0  0  0  0  0  0  0
  2  1  1  6
  2  3  1  0
  2  6  1  0
  3  4  1  0
  3  5  2  0
  6  7  2  0
  6 39  1  0
  7  8  1  0
  8  9  2  0
  9 10  1  0
  9 38  1  0
 10 11  1  0
 11 12  2  0
 11 37  1  0
 12 13  1  0
 13 14  2  0
 14 15  1  0
 14 36  1  0
 15 16  1  0
 16 17  1  0
 17 18  2  0
 17 19  1  0
 19 20  1  0
 21 20  1  6
 21 22  1  0
 21 30  1  0
 22 23  2  0
 23 24  1  0
 24 25  1  0
 25 26  1  0
 25 30  1  0
 26 27  2  0
 26 28  1  0
 28 29  1  0
 28 31  1  1
 28 35  1  0
 29 30  2  0
 31 32  1  0
 32 33  2  0
 32 34  1  0
 34 35  1  0
 36 37  2  0
 38 39  2  0
M  END
