
     RDKit          3D

 39 42  0  0  0  0  0  0  0  0999 V2000
    0.6710   -0.7670    0.9030 O   0  0  0  0  0  0  0  0  0  0  0  0
    0.9800    0.4280    0.8540 C   0  0  0  0  0  0  0  0  0  0  0  0
   -0.0730    1.4830    0.6910 C   0  0  0  0  0  0  0  0  0  0  0  0
   -1.4590    0.8590    0.6770 C   0  0  0  0  0  0  0  0  0  0  0  0
   -2.4780    1.9500    0.5500 C   0  0  1  0  0  0  0  0  0  0  0  0
   -2.4430    2.8710    1.5910 O   0  0  0  0  0  0  0  0  0  0  0  0
   -2.0570    2.7010   -0.5920 O   0  0  0  0  0  0  0  0  0  0  0  0
   -3.8760    1.5740    0.2950 C   0  0  2  0  0  0  0  0  0  0  0  0
   -4.7530    1.2870    1.4800 C   0  0  0  0  0  0  0  0  0  0  0  0
   -4.3450    0.2170    2.3690 C   0  0  0  0  0  0  0  0  0  0  0  0
   -4.6530   -1.0940    2.0880 C   0  0  0  0  0  0  0  0  0  0  0  0
   -4.3130   -2.1330    2.9020 C   0  0  0  0  0  0  0  0  0  0  0  0
   -3.6230   -1.8950    4.0790 C   0  0  0  0  0  0  0  0  0  0  0  0
   -3.3040   -0.5910    4.3820 C   0  0  0  0  0  0  0  0  0  0  0  0
   -3.6510    0.4550    3.5540 C   0  0  0  0  0  0  0  0  0  0  0  0
   -4.0520    0.5740   -0.7560 N   0  0  0  0  0  0  0  0  0  0  0  0
   -4.7520    0.8630   -1.9650 C   0  0  0  0  0  0  0  0  0  0  0  0
   -5.1960    2.0350   -2.0620 O   0  0  0  0  0  0  0  0  0  0  0  0
   -4.9530   -0.1120   -3.0310 C   0  0  0  0  0  0  0  0  0  0  0  0
   -4.5060   -1.3880   -2.9880 C   0  0  0  0  0  0  0  0  0  0  0  0
   -4.7640   -2.2320   -4.0590 C   0  0  0  0  0  0  0  0  0  0  0  0
   -5.4620   -1.8330   -5.1810 C   0  0  0  0  0  0  0  0  0  0  0  0
   -5.9130   -0.5420   -5.2230 C   0  0  0  0  0  0  0  0  0  0  0  0
   -5.6510    0.2960   -4.1480 C   0  0  0  0  0  0  0  0  0  0  0  0
    2.3510    0.7800    0.9570 N   0  0  0  0  0  0  0  0  0  0  0  0
    3.4270   -0.1900    1.1320 C   0  0  1  0  0  0  0  0  0  0  0  0
    4.4070    0.0750    0.0400 C   0  0  0  0  0  0  0  0  0  0  0  0
    5.5870   -0.7870   -0.0030 C   0  0  0  0  0  0  0  0  0  0  0  0
    5.8800   -2.0030    0.5350 C   0  0  0  0  0  0  0  0  0  0  0  0
    7.1260   -2.3720    0.1840 N   0  0  0  0  0  0  0  0  0  0  0  0
    7.6660   -1.4080   -0.5880 C   0  0  0  0  0  0  0  0  0  0  0  0
    8.9040   -1.2740   -1.2220 C   0  0  0  0  0  0  0  0  0  0  0  0
    9.1860   -0.1570   -1.9700 C   0  0  0  0  0  0  0  0  0  0  0  0
    8.2690    0.8480   -2.1140 C   0  0  0  0  0  0  0  0  0  0  0  0
    7.0470    0.7110   -1.4850 C   0  0  0  0  0  0  0  0  0  0  0  0
    6.7340   -0.4160   -0.7170 C   0  0  0  0  0  0  0  0  0  0  0  0
    4.1150    0.1210    2.4460 C   0  0  0  0  0  0  0  0  0  0  0  0
    3.7120    1.0990    3.1710 O   0  0  0  0  0  0  0  0  0  0  0  0
    5.1760   -0.5940    2.9380 O   0  0  0  0  0  0  0  0  0  0  0  0
  1  2  2  0
  2  3  1  0
  2 25  1  0
  3  4  1  0
  4  5  1  0
  5  6  1  1
  5  7  1  0
  5  8  1  0
  8  9  1  1
  8 16  1  0
  9 10  1  0
 10 11  2  0
 10 15  1  0
 11 12  1  0
 12 13  2  0
 13 14  1  0
 14 15  2  0
 16 17  1  0
 17 18  2  0
 17 19  1  0
 19 20  2  0
 19 24  1  0
 20 21  1  0
 21 22  2  0
 22 23  1  0
 23 24  2  0
 25 26  1  0
 26 27  1  6
 26 37  1  0
 27 28  1  0
 28 29  2  0
 28 36  1  0
 29 30  1  0
 30 31  1  0
 31 32  2  0
 31 36  1  0
 32 33  1  0
 33 34  2  0
 34 35  1  0
 35 36  2  0
 37 38  2  0
 37 39  1  0
M  END
