
     RDKit          3D

 10 10  0  0  0  0  0  0  0  0999 V2000
   -3.3420    1.4090    0.2530 C   0  0  0  0  0  0  0  0  0  0  0  0
   -2.1340    0.5120    0.1860 C   0  0  0  0  0  0  0  0  0  0  0  0
   -2.1030   -0.8080   -0.2050 C   0  0  0  0  0  0  0  0  0  0  0  0
   -0.7950   -1.2130   -0.1080 C   0  0  0  0  0  0  0  0  0  0  0  0
   -0.0660   -0.1400    0.3380 C   0  0  0  0  0  0  0  0  0  0  0  0
    1.4130   -0.1190    0.5930 C   0  0  1  0  0  0  0  0  0  0  0  0
    1.7930   -1.2450    1.2820 O   0  0  0  0  0  0  0  0  0  0  0  0
    2.1590   -0.0490   -0.7370 C   0  0  0  0  0  0  0  0  0  0  0  0
    3.5760   -0.0020   -0.4080 N   0  0  0  0  0  0  0  0  0  0  0  0
   -0.9100    0.8400    0.4900 O   0  0  0  0  0  0  0  0  0  0  0  0
  1  2  1  0
  2  3  2  0
  2 10  1  0
  3  4  1  0
  4  5  2  0
  5  6  1  0
  5 10  1  0
  6  7  1  6
  6  8  1  0
  8  9  1  0
M  END
