
     RDKit          3D

  9  9  0  0  0  0  0  0  0  0999 V2000
    4.0920   -0.0180   -0.3450 N   0  0  0  0  0  0  0  0  0  0  0  0
    2.8350    0.6690   -0.4720 C   0  0  0  0  0  0  0  0  0  0  0  0
    1.6520   -0.1850   -0.0850 C   0  0  0  0  0  0  0  0  0  0  0  0
    0.4910    0.6110   -0.2560 O   0  0  0  0  0  0  0  0  0  0  0  0
   -0.7900    0.1650    0.0020 C   0  0  0  0  0  0  0  0  0  0  0  0
   -1.5460   -0.4230   -0.9120 C   0  0  0  0  0  0  0  0  0  0  0  0
   -2.8600   -0.7830   -0.3230 C   0  0  0  0  0  0  0  0  0  0  0  0
   -2.9870    0.2910    0.7590 C   0  0  0  0  0  0  0  0  0  0  0  0
   -1.5500    0.2480    1.2990 C   0  0  0  0  0  0  0  0  0  0  0  0
  1  2  1  0
  2  3  1  0
  3  4  1  0
  4  5  1  0
  5  6  2  0
  5  9  1  0
  6  7  1  0
  7  8  1  0
  8  9  1  0
M  END
