
     RDKit          3D

 10 10  0  0  0  0  0  0  0  0999 V2000
    2.7350    0.9910   -0.2990 C   0  0  0  0  0  0  0  0  0  0  0  0
    2.1090   -0.2730   -0.0230 N   0  0  0  0  0  0  0  0  0  0  0  0
    0.7020   -0.4360    0.0610 C   0  0  0  0  0  0  0  0  0  0  0  0
    0.1310   -1.6580    0.3260 C   0  0  0  0  0  0  0  0  0  0  0  0
   -1.2590   -1.7860    0.4030 C   0  0  0  0  0  0  0  0  0  0  0  0
   -2.0570   -0.6780    0.2110 C   0  0  0  0  0  0  0  0  0  0  0  0
   -3.4170   -0.7970    0.2850 O   0  0  0  0  0  0  0  0  0  0  0  0
   -1.4840    0.5410   -0.0530 C   0  0  0  0  0  0  0  0  0  0  0  0
   -2.2970    1.6420   -0.2430 O   0  0  0  0  0  0  0  0  0  0  0  0
   -0.1310    0.6430   -0.1240 C   0  0  0  0  0  0  0  0  0  0  0  0
  1  2  1  0
  2  3  1  0
  3  4  2  0
  3 10  1  0
  4  5  1  0
  5  6  2  0
  6  7  1  0
  6  8  1  0
  8  9  1  0
  8 10  2  0
M  END
