
     RDKit          3D

 10 10  0  0  0  0  0  0  0  0999 V2000
   -3.1010   -0.7050    0.4950 C   0  0  0  0  0  0  0  0  0  0  0  0
   -2.2260    0.3770    0.3820 O   0  0  0  0  0  0  0  0  0  0  0  0
   -0.8510    0.2210    0.2310 C   0  0  0  0  0  0  0  0  0  0  0  0
   -0.3170   -1.0430    0.1900 C   0  0  0  0  0  0  0  0  0  0  0  0
    1.0590   -1.2450    0.0400 C   0  0  0  0  0  0  0  0  0  0  0  0
    1.8370   -0.1110   -0.0630 C   0  0  0  0  0  0  0  0  0  0  0  0
    3.2290   -0.2710   -0.2150 N   0  0  0  0  0  0  0  0  0  0  0  0
    1.3180    1.1650   -0.0240 C   0  0  0  0  0  0  0  0  0  0  0  0
   -0.0490    1.3360    0.1260 C   0  0  0  0  0  0  0  0  0  0  0  0
   -0.6280    2.5830    0.1720 O   0  0  0  0  0  0  0  0  0  0  0  0
  1  2  1  0
  2  3  1  0
  3  4  2  0
  3  9  1  0
  4  5  1  0
  5  6  2  0
  6  7  1  0
  6  8  1  0
  8  9  2  0
  9 10  1  0
M  END
