
     RDKit          3D

 13 13  0  0  0  0  0  0  0  0999 V2000
   -1.5500   -0.9900    1.3390 C   0  0  0  0  0  0  0  0  0  0  0  0
   -1.1710   -0.0790    0.2440 N   0  0  0  0  0  0  0  0  0  0  0  0
    0.1120    0.1610    0.1140 N   0  0  0  0  0  0  0  0  0  0  0  0
    0.6680    0.9550   -0.8100 C   0  0  0  0  0  0  0  0  0  0  0  0
    1.9600    1.1160   -0.8390 N   0  0  0  0  0  0  0  0  0  0  0  0
    2.7680    0.4610    0.0910 N   0  0  0  0  0  0  0  0  0  0  0  0
    3.0910   -0.9270   -0.0040 C   0  0  0  0  0  0  0  0  0  0  0  0
    2.6400   -1.6060   -0.9570 O   0  0  0  0  0  0  0  0  0  0  0  0
   -0.4290    1.6890   -1.8770 S   0  0  0  0  0  0  0  0  0  0  0  0
   -2.0500    1.2640   -1.5590 C   0  0  0  0  0  0  0  0  0  0  0  0
   -3.3380    1.8000   -2.4040 S   0  0  0  0  0  0  0  0  0  0  0  0
   -2.1740    0.3980   -0.4880 C   0  0  0  0  0  0  0  0  0  0  0  0
   -3.3820    0.0550   -0.2180 O   0  0  0  0  0  0  0  0  0  0  0  0
  1  2  1  0
  2  3  1  0
  2 12  1  0
  3  4  1  0
  4  5  2  3
  4  9  1  0
  5  6  1  0
  6  7  1  0
  7  8  2  0
  9 10  1  0
 10 11  2  0
 10 12  1  0
 12 13  2  0
M  END
