
     RDKit          3D

 10 10  0  0  0  0  0  0  0  0999 V2000
    2.1920    1.3130   -1.1770 N   0  0  0  0  0  0  0  0  0  0  0  0
    2.3740    0.6740    0.0810 C   0  0  0  0  0  0  0  0  0  0  0  0
    3.5240    0.7560    0.5690 O   0  0  0  0  0  0  0  0  0  0  0  0
    1.3230   -0.0380    0.7910 C   0  0  0  0  0  0  0  0  0  0  0  0
    1.6530   -0.6110    2.0160 O   0  0  0  0  0  0  0  0  0  0  0  0
    0.1040   -0.1760    0.3640 C   0  0  0  0  0  0  0  0  0  0  0  0
   -0.9700   -0.8860    1.0580 C   0  0  0  0  0  0  0  0  0  0  0  0
   -2.2510   -0.6090    0.3160 C   0  0  0  0  0  0  0  0  0  0  0  0
   -1.8310   -0.1810   -1.0810 C   0  0  0  0  0  0  0  0  0  0  0  0
   -0.4490    0.3440   -0.8900 C   0  0  0  0  0  0  0  0  0  0  0  0
  1  2  1  0
  2  3  2  0
  2  4  1  0
  4  5  1  0
  4  6  2  3
  6  7  1  0
  6 10  1  0
  7  8  1  0
  8  9  1  0
  9 10  1  0
M  END
