
     RDKit          3D

 10 10  0  0  0  0  0  0  0  0999 V2000
    1.4970   -0.5770   -2.4910 C   0  0  0  0  0  0  0  0  0  0  0  0
    0.5000    0.2860   -1.9240 N   0  0  0  0  0  0  0  0  0  0  0  0
    0.0820    0.1140   -0.5870 C   0  0  0  0  0  0  0  0  0  0  0  0
    0.6150   -0.8860    0.2230 C   0  0  0  0  0  0  0  0  0  0  0  0
    0.2120   -1.0590    1.5300 C   0  0  0  0  0  0  0  0  0  0  0  0
   -0.7440   -0.2450    2.0990 C   0  0  0  0  0  0  0  0  0  0  0  0
   -1.1640   -0.4090    3.4260 O   0  0  0  0  0  0  0  0  0  0  0  0
   -1.2790    0.7490    1.3080 C   0  0  0  0  0  0  0  0  0  0  0  0
   -0.8740    0.9200    0.0020 C   0  0  0  0  0  0  0  0  0  0  0  0
   -1.4190    1.9330   -0.8040 O   0  0  0  0  0  0  0  0  0  0  0  0
  1  2  1  0
  2  3  1  0
  3  4  2  0
  3  9  1  0
  4  5  1  0
  5  6  2  0
  6  7  1  0
  6  8  1  0
  8  9  2  0
  9 10  1  0
M  END
