
     RDKit          3D

 10 10  0  0  0  0  0  0  0  0999 V2000
   -2.9820   -0.3890   -0.1360 C   0  0  0  0  0  0  0  0  0  0  0  0
   -1.8940    0.5100   -0.1700 O   0  0  0  0  0  0  0  0  0  0  0  0
   -0.5760    0.1040   -0.0460 C   0  0  0  0  0  0  0  0  0  0  0  0
   -0.2970   -1.2360    0.1180 C   0  0  0  0  0  0  0  0  0  0  0  0
    1.0180   -1.6330    0.2410 C   0  0  0  0  0  0  0  0  0  0  0  0
    2.0260   -0.6960    0.1980 C   0  0  0  0  0  0  0  0  0  0  0  0
    3.3310   -1.1200    0.3240 O   0  0  0  0  0  0  0  0  0  0  0  0
    1.7170    0.6340    0.0330 C   0  0  0  0  0  0  0  0  0  0  0  0
    0.4050    1.0650   -0.0940 C   0  0  0  0  0  0  0  0  0  0  0  0
    0.1660    2.4400   -0.2600 N   0  0  0  0  0  0  0  0  0  0  0  0
  1  2  1  0
  2  3  1  0
  3  4  2  0
  3  9  1  0
  4  5  1  0
  5  6  2  0
  6  7  1  0
  6  8  1  0
  8  9  2  0
  9 10  1  0
M  END
