
     RDKit          3D

 13 13  0  0  0  0  0  0  0  0999 V2000
    3.2890   -1.2920    1.0510 C   0  0  0  0  0  0  0  0  0  0  0  0
    2.3220   -0.3310    0.5620 N   0  0  0  0  0  0  0  0  0  0  0  0
    2.5880    0.9420    0.2210 C   0  0  0  0  0  0  0  0  0  0  0  0
    1.4310    1.5630   -0.2000 C   0  0  0  0  0  0  0  0  0  0  0  0
    1.1670    3.2160   -0.7630 S   0  0  0  0  0  0  0  0  0  0  0  0
    0.4470    0.6030   -0.0970 C   0  0  0  0  0  0  0  0  0  0  0  0
   -0.9420    0.7190   -0.4070 N   0  0  0  0  0  0  0  0  0  0  0  0
   -1.8230   -0.3570   -0.2490 C   0  0  0  0  0  0  0  0  0  0  0  0
   -1.3430   -1.4480    0.1840 O   0  0  0  0  0  0  0  0  0  0  0  0
   -3.2130   -0.2890   -0.5440 N   0  0  0  0  0  0  0  0  0  0  0  0
   -4.2400   -1.6890   -0.3140 S   0  0  0  0  0  0  0  0  0  0  0  0
   -4.2850   -2.5430   -1.5810 O   0  0  0  0  0  0  0  0  0  0  0  0
    1.0290   -0.5190    0.3650 N   0  0  0  0  0  0  0  0  0  0  0  0
  1  2  1  0
  2  3  1  0
  2 13  1  0
  3  4  2  0
  4  5  1  0
  4  6  1  0
  6  7  1  0
  6 13  2  0
  7  8  1  0
  8  9  2  0
  8 10  1  0
 10 11  1  0
 11 12  2  0
M  END
