
     RDKit          3D

 23 24  0  0  0  0  0  0  0  0999 V2000
   -4.7960    2.0960    0.5810 C   0  0  0  0  0  0  0  0  0  0  0  0
   -4.9430    1.1320   -0.5650 C   0  0  0  0  0  0  0  0  0  0  0  0
   -4.0740    0.0800   -0.3740 O   0  0  0  0  0  0  0  0  0  0  0  0
   -2.8020    0.5820   -0.3310 C   0  0  0  0  0  0  0  0  0  0  0  0
   -1.8260   -0.6180   -0.1140 C   0  0  0  0  0  0  0  0  0  0  0  0
   -2.3760   -1.7800   -0.0240 C   0  0  0  0  0  0  0  0  0  0  0  0
   -1.8020   -3.0920    0.1740 C   0  0  1  0  0  0  0  0  0  0  0  0
   -1.0210   -3.5810   -0.8420 F   0  0  0  0  0  0  0  0  0  0  0  0
   -1.2280   -3.2490    1.4200 F   0  0  0  0  0  0  0  0  0  0  0  0
   -2.8930   -4.0200    0.1990 F   0  0  0  0  0  0  0  0  0  0  0  0
   -0.4670   -0.2260   -0.0520 C   0  0  0  0  0  0  0  0  0  0  0  0
   -0.2480    1.0580   -0.1830 O   0  0  0  0  0  0  0  0  0  0  0  0
    0.6910   -0.9760    0.1250 N   0  0  0  0  0  0  0  0  0  0  0  0
    2.0360   -0.5320    0.1880 C   0  0  0  0  0  0  0  0  0  0  0  0
    3.0870   -1.4400    0.0330 C   0  0  0  0  0  0  0  0  0  0  0  0
    4.3970   -1.0780    0.1040 C   0  0  0  0  0  0  0  0  0  0  0  0
    4.7700    0.2760    0.3450 C   0  0  0  0  0  0  0  0  0  0  0  0
    5.9830    0.7210    0.4300 N   0  0  0  0  0  0  0  0  0  0  0  0
    6.2270    2.0420    0.6650 C   0  0  0  0  0  0  0  0  0  0  0  0
    7.2380    2.7070    0.7870 O   0  0  0  0  0  0  0  0  0  0  0  0
    4.4950    2.6690    0.7670 S   0  0  0  0  0  0  0  0  0  0  0  0
    3.7030    1.1090    0.4870 C   0  0  0  0  0  0  0  0  0  0  0  0
    2.3780    0.7590    0.4190 C   0  0  0  0  0  0  0  0  0  0  0  0
  1  2  1  0
  2  3  1  0
  3  4  1  0
  4  5  1  0
  5  6  2  3
  5 11  1  0
  6  7  1  0
  7  8  1  6
  7  9  1  0
  7 10  1  0
 11 12  2  0
 11 13  1  0
 13 14  1  0
 14 15  2  0
 14 23  1  0
 15 16  1  0
 16 17  2  0
 17 18  1  0
 17 22  1  0
 18 19  1  0
 19 20  2  0
 19 21  1  0
 21 22  1  0
 22 23  2  0
M  END
