
     RDKit          3D

 23 24  0  0  0  0  0  0  0  0999 V2000
    2.1900   -1.4570   -0.9800 O   0  0  0  0  0  0  0  0  0  0  0  0
    2.2100   -0.3530   -0.4110 C   0  0  0  0  0  0  0  0  0  0  0  0
    3.5280    0.1900   -0.1620 N   0  0  0  0  0  0  0  0  0  0  0  0
    4.7100   -0.5430   -0.5690 C   0  0  0  0  0  0  0  0  0  0  0  0
    5.9880    0.1360   -0.2410 C   0  0  0  0  0  0  0  0  0  0  0  0
    6.1750    0.3600    1.2330 C   0  0  1  0  0  0  0  0  0  0  0  0
    7.4100    0.9990    1.4050 F   0  0  0  0  0  0  0  0  0  0  0  0
    5.2340    1.1900    1.7960 F   0  0  0  0  0  0  0  0  0  0  0  0
    6.2250   -0.8630    1.8660 F   0  0  0  0  0  0  0  0  0  0  0  0
    1.0400    0.3130   -0.0390 N   0  0  0  0  0  0  0  0  0  0  0  0
   -0.2890   -0.1520   -0.2520 C   0  0  0  0  0  0  0  0  0  0  0  0
   -0.6430   -1.2780   -0.9430 C   0  0  0  0  0  0  0  0  0  0  0  0
   -1.9500   -1.7070   -1.1260 C   0  0  0  0  0  0  0  0  0  0  0  0
   -2.9660   -0.9820   -0.5980 C   0  0  0  0  0  0  0  0  0  0  0  0
   -4.2970   -1.3340   -0.7310 C   0  0  0  0  0  0  0  0  0  0  0  0
   -5.2520   -0.5390   -0.1620 C   0  0  0  0  0  0  0  0  0  0  0  0
   -4.9780    0.6030    0.5430 C   0  0  0  0  0  0  0  0  0  0  0  0
   -6.2550    1.5870    1.2540 S   0  0  2  0  0  0  0  0  0  0  0  0
   -7.1000    0.7930    2.1920 O   0  0  0  0  0  0  0  0  0  0  0  0
   -7.1520    2.0990    0.1620 O   0  0  0  0  0  0  0  0  0  0  0  0
   -3.6620    0.9610    0.6810 C   0  0  0  0  0  0  0  0  0  0  0  0
   -2.6550    0.1620    0.1060 C   0  0  0  0  0  0  0  0  0  0  0  0
   -1.3560    0.5740    0.2800 C   0  0  0  0  0  0  0  0  0  0  0  0
  1  2  2  0
  2  3  1  0
  2 10  1  0
  3  4  1  0
  4  5  1  0
  5  6  1  0
  6  7  1  6
  6  8  1  0
  6  9  1  0
 10 11  1  0
 11 12  2  0
 11 23  1  0
 12 13  1  0
 13 14  2  0
 14 15  1  0
 14 22  1  0
 15 16  2  0
 16 17  1  0
 18 17  1  6
 17 21  2  0
 18 19  2  0
 18 20  2  0
 21 22  1  0
 22 23  2  0
M  END
