
     RDKit          3D

 23 24  0  0  0  0  0  0  0  0999 V2000
   -4.1680    0.4270   -1.7350 C   0  0  0  0  0  0  0  0  0  0  0  0
   -3.3160    0.0960   -0.4960 C   0  0  0  0  0  0  0  0  0  0  0  0
   -1.9820    0.0070   -0.6000 C   0  0  0  0  0  0  0  0  0  0  0  0
   -1.2060   -0.0290    0.6010 C   0  0  0  0  0  0  0  0  0  0  0  0
    0.2420    0.2190    0.2020 C   0  0  0  0  0  0  0  0  0  0  0  0
    0.6370   -1.0040   -0.5030 N   0  0  0  0  0  0  0  0  0  0  0  0
    2.0680   -0.9710   -1.3110 S   0  0  2  0  0  0  0  0  0  0  0  0
    2.0110   -0.2830   -2.6680 O   0  0  0  0  0  0  0  0  0  0  0  0
    2.3750   -2.4680   -1.7910 O   0  0  0  0  0  0  0  0  0  0  0  0
    3.4840   -0.4880   -0.4560 C   0  0  0  0  0  0  0  0  0  0  0  0
    3.9720    0.8110   -0.8240 C   0  0  0  0  0  0  0  0  0  0  0  0
    3.3030    1.4500   -1.8020 F   0  0  0  0  0  0  0  0  0  0  0  0
    5.0530    1.3620   -0.2270 C   0  0  0  0  0  0  0  0  0  0  0  0
    5.7460    0.6930    0.7520 C   0  0  0  0  0  0  0  0  0  0  0  0
    5.2820   -0.5490    1.1040 C   0  0  0  0  0  0  0  0  0  0  0  0
    5.9430   -1.2330    2.0930 F   0  0  0  0  0  0  0  0  0  0  0  0
    4.1530   -1.1480    0.5100 C   0  0  0  0  0  0  0  0  0  0  0  0
    3.7960   -2.3800    0.8900 F   0  0  0  0  0  0  0  0  0  0  0  0
   -1.8330    0.0190    1.7510 C   0  0  0  0  0  0  0  0  0  0  0  0
   -1.1800   -0.0110    2.9080 O   0  0  0  0  0  0  0  0  0  0  0  0
   -3.1960    0.1020    1.8120 N   0  0  0  0  0  0  0  0  0  0  0  0
   -3.9400    0.1400    0.7170 C   0  0  0  0  0  0  0  0  0  0  0  0
   -5.4400    0.1100    0.7370 C   0  0  0  0  0  0  0  0  0  0  0  0
  1  2  1  0
  2  3  1  0
  2 22  2  0
  3  4  2  0
  4  5  1  0
  4 19  1  0
  5  6  1  0
  7  6  1  1
  7  8  2  0
  7  9  2  0
  7 10  1  0
 10 11  2  0
 10 17  1  0
 11 12  1  0
 11 13  1  0
 13 14  2  0
 14 15  1  0
 15 16  1  0
 15 17  2  0
 17 18  1  0
 19 20  2  0
 19 21  1  0
 21 22  1  0
 22 23  1  0
M  END
