
     RDKit          3D

 22 23  0  0  0  0  0  0  0  0999 V2000
   -3.1360   -2.3100   -2.3040 C   0  0  0  0  0  0  0  0  0  0  0  0
   -3.4600   -1.1780   -1.5590 O   0  0  0  0  0  0  0  0  0  0  0  0
   -2.2980   -0.6580   -0.9650 C   0  0  0  0  0  0  0  0  0  0  0  0
   -2.6670    0.5390   -0.1830 C   0  0  0  0  0  0  0  0  0  0  0  0
   -3.9290    0.9130   -0.1600 C   0  0  0  0  0  0  0  0  0  0  0  0
   -4.3500    2.1020    0.6080 C   0  0  1  0  0  0  0  0  0  0  0  0
   -4.1300    1.9480    1.9630 F   0  0  0  0  0  0  0  0  0  0  0  0
   -3.7720    3.2350    0.0820 F   0  0  0  0  0  0  0  0  0  0  0  0
   -5.7380    2.2400    0.4170 F   0  0  0  0  0  0  0  0  0  0  0  0
   -1.6680    1.2770    0.5370 C   0  0  0  0  0  0  0  0  0  0  0  0
   -0.3760    1.0210    0.6070 C   0  0  0  0  0  0  0  0  0  0  0  0
    0.3830   -0.3520   -0.2210 S   0  0  0  0  0  0  0  0  0  0  0  0
    2.1090   -0.2780    0.1680 C   0  0  0  0  0  0  0  0  0  0  0  0
    2.9190   -1.2310   -0.3510 C   0  0  0  0  0  0  0  0  0  0  0  0
    4.2800   -1.3040   -0.1370 C   0  0  0  0  0  0  0  0  0  0  0  0
    5.0570   -2.3380   -0.7210 N   0  0  0  0  0  0  0  0  0  0  0  0
    4.8380   -0.3260    0.6660 C   0  0  0  0  0  0  0  0  0  0  0  0
    4.0510    0.6540    1.2090 C   0  0  0  0  0  0  0  0  0  0  0  0
    2.6580    0.6900    0.9630 C   0  0  0  0  0  0  0  0  0  0  0  0
    1.8910    1.7200    1.5450 N   0  0  0  0  0  0  0  0  0  0  0  0
    0.5090    1.8880    1.3950 C   0  0  0  0  0  0  0  0  0  0  0  0
   -0.0820    2.8710    1.9780 O   0  0  0  0  0  0  0  0  0  0  0  0
  1  2  1  0
  2  3  1  0
  3  4  1  0
  4  5  2  3
  4 10  1  0
  5  6  1  0
  6  7  1  1
  6  8  1  0
  6  9  1  0
 10 11  2  3
 11 12  1  0
 11 21  1  0
 12 13  1  0
 13 14  2  0
 13 19  1  0
 14 15  1  0
 15 16  1  0
 15 17  2  0
 17 18  1  0
 18 19  2  0
 19 20  1  0
 20 21  1  0
 21 22  2  0
M  END
