
     RDKit          3D

 22 23  0  0  0  0  0  0  0  0999 V2000
   -4.0090    1.5890    2.0700 C   0  0  0  0  0  0  0  0  0  0  0  0
   -2.9970    0.8330    1.3110 C   0  0  0  0  0  0  0  0  0  0  0  0
   -1.2350    1.0540    1.3610 S   0  0  0  0  0  0  0  0  0  0  0  0
   -0.8190   -0.2180    0.1970 C   0  0  0  0  0  0  0  0  0  0  0  0
    0.4760   -0.5800   -0.2270 N   0  0  0  0  0  0  0  0  0  0  0  0
    1.5890    0.1140    0.3020 C   0  0  0  0  0  0  0  0  0  0  0  0
    1.4370    1.0450    1.1420 O   0  0  0  0  0  0  0  0  0  0  0  0
    2.9660   -0.2290   -0.1120 C   0  0  0  0  0  0  0  0  0  0  0  0
    3.1540   -1.1470   -0.9430 O   0  0  0  0  0  0  0  0  0  0  0  0
    4.0830    0.4500    0.4030 N   0  0  0  0  0  0  0  0  0  0  0  0
    5.4400    0.1430    0.0240 C   0  0  0  0  0  0  0  0  0  0  0  0
    6.3830    1.0380    0.7440 C   0  0  0  0  0  0  0  0  0  0  0  0
    7.2080    1.8610    0.1100 C   0  0  0  0  0  0  0  0  0  0  0  0
    8.0540    2.6620    0.7790 F   0  0  0  0  0  0  0  0  0  0  0  0
    7.2430    1.9360   -1.2570 F   0  0  0  0  0  0  0  0  0  0  0  0
   -2.0700   -0.7350   -0.1570 C   0  0  0  0  0  0  0  0  0  0  0  0
   -3.1460   -0.1950    0.4120 C   0  0  0  0  0  0  0  0  0  0  0  0
   -4.4960   -0.7900    0.0130 C   0  0  0  0  0  0  0  0  0  0  0  0
   -4.4950   -0.8270   -1.4990 C   0  0  0  0  0  0  0  0  0  0  0  0
   -3.4690   -1.8220   -2.0120 C   0  0  0  0  0  0  0  0  0  0  0  0
   -2.2770   -1.8580   -1.1400 C   0  0  0  0  0  0  0  0  0  0  0  0
   -1.4700   -2.7960   -1.2250 O   0  0  0  0  0  0  0  0  0  0  0  0
  1  2  1  0
  2  3  1  0
  2 17  2  0
  3  4  1  0
  4  5  1  0
  4 16  2  0
  5  6  1  0
  6  7  2  0
  6  8  1  0
  8  9  2  0
  8 10  1  0
 10 11  1  0
 11 12  1  0
 12 13  2  3
 13 14  1  0
 13 15  1  0
 16 17  1  0
 16 21  1  0
 17 18  1  0
 18 19  1  0
 19 20  1  0
 20 21  1  0
 21 22  2  0
M  END
