
     RDKit          3D

 23 24  0  0  0  0  0  0  0  0999 V2000
    4.1930    0.6620   -1.1690 N   0  0  0  0  0  0  0  0  0  0  0  0
    2.8030    0.7900   -0.9450 C   0  0  0  0  0  0  0  0  0  0  0  0
    1.9790    0.0880   -1.5640 O   0  0  0  0  0  0  0  0  0  0  0  0
    2.2550    1.7870    0.0580 C   0  0  0  0  0  0  0  0  0  0  0  0
    2.1480    0.9670    1.6300 S   0  0  0  0  0  0  0  0  0  0  0  0
    1.0120   -0.3790    1.7610 C   0  0  0  0  0  0  0  0  0  0  0  0
    1.3630   -1.3220    2.6400 C   0  0  0  0  0  0  0  0  0  0  0  0
    2.6230   -1.2460    3.4490 C   0  0  2  0  0  0  0  0  0  0  0  0
    2.3500   -1.7510    4.7170 F   0  0  0  0  0  0  0  0  0  0  0  0
    2.9210    0.0780    3.6010 F   0  0  0  0  0  0  0  0  0  0  0  0
   -0.1230   -0.5830    0.9150 C   0  0  0  0  0  0  0  0  0  0  0  0
   -0.7680    0.5190    0.3350 C   0  0  0  0  0  0  0  0  0  0  0  0
   -1.8100    0.3540   -0.5460 C   0  0  0  0  0  0  0  0  0  0  0  0
   -2.4670    1.4140   -1.1370 C   0  0  0  0  0  0  0  0  0  0  0  0
   -3.5120    1.2270   -2.0190 C   0  0  0  0  0  0  0  0  0  0  0  0
   -4.1840    2.3000   -2.6220 O   0  0  0  0  0  0  0  0  0  0  0  0
   -3.9320   -0.0490   -2.3360 C   0  0  0  0  0  0  0  0  0  0  0  0
   -4.9620   -0.2660   -3.2040 F   0  0  0  0  0  0  0  0  0  0  0  0
   -3.2920   -1.1250   -1.7590 C   0  0  0  0  0  0  0  0  0  0  0  0
   -2.2440   -0.9180   -0.8760 C   0  0  0  0  0  0  0  0  0  0  0  0
   -1.6360   -1.9620   -0.3270 N   0  0  0  0  0  0  0  0  0  0  0  0
   -0.6050   -1.7960    0.5420 C   0  0  0  0  0  0  0  0  0  0  0  0
   -0.0800   -2.8470    1.0150 O   0  0  0  0  0  0  0  0  0  0  0  0
  1  2  1  0
  2  3  2  0
  2  4  1  0
  4  5  1  0
  5  6  1  0
  6  7  2  3
  6 11  1  0
  7  8  1  0
  8  9  1  1
  8 10  1  0
 11 12  2  0
 11 22  1  0
 12 13  1  0
 13 14  2  0
 13 20  1  0
 14 15  1  0
 15 16  1  0
 15 17  2  0
 17 18  1  0
 17 19  1  0
 19 20  2  0
 20 21  1  0
 21 22  1  0
 22 23  2  0
M  END
