
     RDKit          3D

 13 14  0  0  0  0  0  0  0  0999 V2000
   -2.6130    1.1100    0.4570 C   0  0  0  0  0  0  0  0  0  0  0  0
   -2.2050   -0.2850    0.8920 C   0  0  1  0  0  0  0  0  0  0  0  0
   -2.6520   -1.2390   -0.1810 C   0  0  0  0  0  0  0  0  0  0  0  0
   -2.0950   -0.7740   -1.4200 O   0  0  0  0  0  0  0  0  0  0  0  0
   -0.7110   -0.5680   -1.4130 C   0  0  0  0  0  0  0  0  0  0  0  0
   -0.0850   -0.6170   -2.4910 O   0  0  0  0  0  0  0  0  0  0  0  0
   -0.0100   -0.3020   -0.1780 C   0  0  0  0  0  0  0  0  0  0  0  0
    1.2850   -0.1070   -0.1780 C   0  0  0  0  0  0  0  0  0  0  0  0
    2.1790    0.1790    0.9870 C   0  0  0  0  0  0  0  0  0  0  0  0
    3.3850    0.7450    0.3150 C   0  0  0  0  0  0  0  0  0  0  0  0
    3.4730    0.1430   -0.9320 O   0  0  0  0  0  0  0  0  0  0  0  0
    2.1940   -0.1210   -1.3520 C   0  0  0  0  0  0  0  0  0  0  0  0
   -0.7480   -0.2520    1.0320 N   0  0  0  0  0  0  0  0  0  0  0  0
  2  1  1  6
  2  3  1  0
  2 13  1  0
  3  4  1  0
  4  5  1  0
  5  6  2  0
  5  7  1  0
  7  8  2  3
  7 13  1  0
  8  9  1  0
  8 12  1  0
  9 10  1  0
 10 11  1  0
 11 12  1  0
M  END
