
     RDKit          3D

 13 14  0  0  0  0  0  0  0  0999 V2000
   -2.2430   -1.2250   -2.4670 O   0  0  0  0  0  0  0  0  0  0  0  0
   -1.9560   -0.2410   -1.7080 C   0  0  0  0  0  0  0  0  0  0  0  0
   -0.5410    0.1130   -1.4180 C   0  0  0  0  0  0  0  0  0  0  0  0
   -0.3800    0.1680    0.0750 C   0  0  2  0  0  0  0  0  0  0  0  0
    0.1230    1.4210    0.4720 O   0  0  0  0  0  0  0  0  0  0  0  0
    0.6340   -0.8580    0.5060 C   0  0  0  0  0  0  0  0  0  0  0  0
    1.9480   -0.6080   -0.1160 C   0  0  0  0  0  0  0  0  0  0  0  0
    3.1720   -0.3510    0.3550 C   0  0  0  0  0  0  0  0  0  0  0  0
    3.6910   -0.2780   -1.0040 C   0  0  0  0  0  0  0  0  0  0  0  0
    2.4850   -0.5300   -1.4110 N   0  0  0  0  0  0  0  0  0  0  0  0
   -1.6900   -0.0270    0.8010 C   0  0  0  0  0  0  0  0  0  0  0  0
   -2.6530    1.0100    0.2060 C   0  0  0  0  0  0  0  0  0  0  0  0
   -2.9230    0.5540   -1.1090 O   0  0  0  0  0  0  0  0  0  0  0  0
  1  2  2  0
  2  3  1  0
  2 13  1  0
  3  4  1  0
  4  5  1  6
  4  6  1  0
  4 11  1  0
  6  7  1  0
  7  8  2  0
  7 10  1  0
  8  9  1  0
  9 10  2  0
 11 12  1  0
 12 13  1  0
M  END
