
     RDKit          3D

 13 14  0  0  0  0  0  0  0  0999 V2000
    4.4350    0.5120    0.1340 C   0  0  0  0  0  0  0  0  0  0  0  0
    3.0550    0.6690   -0.1260 O   0  0  0  0  0  0  0  0  0  0  0  0
    2.1850   -0.4020   -0.2560 C   0  0  0  0  0  0  0  0  0  0  0  0
    2.6400   -1.5540   -0.1400 O   0  0  0  0  0  0  0  0  0  0  0  0
    0.7620   -0.0920   -0.5280 C   0  0  2  0  0  0  0  0  0  0  0  0
    0.0940    0.6270    0.6220 C   0  0  0  0  0  0  0  0  0  0  0  0
   -1.3410    0.3500    0.3580 C   0  0  0  0  0  0  0  0  0  0  0  0
   -2.4840    0.9320    0.6750 C   0  0  0  0  0  0  0  0  0  0  0  0
   -3.8190    0.4340    0.2710 C   0  0  0  0  0  0  0  0  0  0  0  0
   -3.7920   -0.7340   -0.4940 O   0  0  0  0  0  0  0  0  0  0  0  0
   -2.5920   -1.3300   -0.8170 C   0  0  0  0  0  0  0  0  0  0  0  0
   -1.3970   -0.8660   -0.4440 C   0  0  0  0  0  0  0  0  0  0  0  0
   -0.0450   -1.2870   -0.6430 N   0  0  0  0  0  0  0  0  0  0  0  0
  1  2  1  0
  2  3  1  0
  3  4  2  0
  5  3  1  1
  5  6  1  0
  5 13  1  0
  6  7  1  0
  7  8  2  0
  7 12  1  0
  8  9  1  0
  9 10  1  0
 10 11  1  0
 11 12  2  0
 12 13  1  0
M  END
