
     RDKit          3D

 28 31  0  0  0  0  0  0  0  0999 V2000
    7.8190    2.3080   -0.6250 N   0  0  0  0  0  0  0  0  0  0  0  0
    6.5840    1.6320   -0.5920 C   0  0  0  0  0  0  0  0  0  0  0  0
    5.9650    1.4100    0.5920 N   0  0  0  0  0  0  0  0  0  0  0  0
    4.7860    0.7720    0.6960 C   0  0  0  0  0  0  0  0  0  0  0  0
    4.1560    0.5500    1.9380 N   0  0  0  0  0  0  0  0  0  0  0  0
    4.1850    0.3250   -0.4640 C   0  0  0  0  0  0  0  0  0  0  0  0
    2.9440   -0.3480   -0.3620 C   0  0  0  0  0  0  0  0  0  0  0  0
    2.4350   -0.5110    0.8490 O   0  0  0  0  0  0  0  0  0  0  0  0
    1.4080   -0.9900    1.5390 C   0  0  0  0  0  0  0  0  0  0  0  0
    0.0310   -0.4350    1.4190 C   0  0  1  0  0  0  0  0  0  0  0  0
   -0.6280   -0.4610    0.0990 C   0  0  0  0  0  0  0  0  0  0  0  0
   -1.9940    0.2350    0.2750 C   0  0  0  0  0  0  0  0  0  0  0  0
   -2.8500   -0.5020    1.1360 N   0  0  0  0  0  0  0  0  0  0  0  0
   -3.8770   -1.1520    0.3680 C   0  0  0  0  0  0  0  0  0  0  0  0
   -4.8230   -0.2370   -0.2880 C   0  0  0  0  0  0  0  0  0  0  0  0
   -4.7760    1.1080   -0.1330 C   0  0  0  0  0  0  0  0  0  0  0  0
   -5.6900    1.9350   -0.7440 C   0  0  0  0  0  0  0  0  0  0  0  0
   -6.6740    1.4160   -1.5250 C   0  0  0  0  0  0  0  0  0  0  0  0
   -6.7740    0.0600   -1.7190 C   0  0  0  0  0  0  0  0  0  0  0  0
   -5.8520   -0.7390   -1.1000 C   0  0  0  0  0  0  0  0  0  0  0  0
   -5.9010   -2.0850   -1.2550 F   0  0  0  0  0  0  0  0  0  0  0  0
   -2.2270   -1.4450    1.9860 C   0  0  0  0  0  0  0  0  0  0  0  0
   -0.8450   -1.1600    2.4160 C   0  0  0  0  0  0  0  0  0  0  0  0
    2.3850   -0.7750   -1.5460 C   0  0  0  0  0  0  0  0  0  0  0  0
    3.0050   -0.5540   -2.7370 C   0  0  0  0  0  0  0  0  0  0  0  0
    4.2070    0.0970   -2.8540 C   0  0  0  0  0  0  0  0  0  0  0  0
    4.7830    0.5310   -1.6800 C   0  0  0  0  0  0  0  0  0  0  0  0
    5.9740    1.1840   -1.7020 N   0  0  0  0  0  0  0  0  0  0  0  0
  1  2  1  0
  2  3  2  0
  2 28  1  0
  3  4  1  0
  4  5  1  0
  4  6  2  0
  6  7  1  0
  6 27  1  0
  7  8  1  0
  7 24  2  0
  8  9  1  0
 10  9  1  6
 10 11  1  0
 10 23  1  0
 11 12  1  0
 12 13  1  0
 13 14  1  0
 13 22  1  0
 14 15  1  0
 15 16  2  0
 15 20  1  0
 16 17  1  0
 17 18  2  0
 18 19  1  0
 19 20  2  0
 20 21  1  0
 22 23  1  0
 24 25  1  0
 25 26  2  0
 26 27  1  0
 27 28  2  0
M  END
