
     RDKit          3D

 13 14  0  0  0  0  0  0  0  0999 V2000
   -2.9000    1.4820   -0.0730 C   0  0  0  0  0  0  0  0  0  0  0  0
   -1.7650    0.8250   -0.6220 O   0  0  0  0  0  0  0  0  0  0  0  0
   -1.7440   -0.5460   -0.6870 C   0  0  0  0  0  0  0  0  0  0  0  0
   -2.7410   -1.1760   -0.2530 O   0  0  0  0  0  0  0  0  0  0  0  0
   -0.5850   -1.3200   -1.2530 C   0  0  2  0  0  0  0  0  0  0  0  0
   -0.1140   -2.2450   -0.1330 C   0  0  0  0  0  0  0  0  0  0  0  0
    0.5770   -1.5090    0.8890 N   0  0  0  0  0  0  0  0  0  0  0  0
    1.2980   -0.3000    0.5830 C   0  0  0  0  0  0  0  0  0  0  0  0
    2.0720    0.4890    1.3100 C   0  0  0  0  0  0  0  0  0  0  0  0
    2.5390    1.5850    0.4590 C   0  0  0  0  0  0  0  0  0  0  0  0
    1.9390    1.3380   -0.8590 C   0  0  0  0  0  0  0  0  0  0  0  0
    1.2190    0.2340   -0.7660 C   0  0  0  0  0  0  0  0  0  0  0  0
    0.4350   -0.4760   -1.6880 O   0  0  0  0  0  0  0  0  0  0  0  0
  1  2  1  0
  2  3  1  0
  3  4  2  0
  5  3  1  1
  5  6  1  0
  5 13  1  0
  6  7  1  0
  7  8  1  0
  8  9  2  0
  8 12  1  0
  9 10  1  0
 10 11  1  0
 11 12  2  0
 12 13  1  0
M  END
