
     RDKit          3D

 33 34  0  0  0  0  0  0  0  0999 V2000
    5.4620    1.5470   -3.0210 C   0  0  0  0  0  0  0  0  0  0  0  0
    6.1130    1.8900   -1.8250 O   0  0  0  0  0  0  0  0  0  0  0  0
    6.1400    0.8110   -0.9470 C   0  0  1  0  0  0  0  0  0  0  0  0
    7.4860    0.4880   -0.7550 O   0  0  0  0  0  0  0  0  0  0  0  0
    7.7390   -0.7100   -1.1800 O   0  0  0  0  0  0  0  0  0  0  0  0
    5.5160    1.1520    0.2890 O   0  0  0  0  0  0  0  0  0  0  0  0
    4.4100    0.3900    0.7190 C   0  0  0  0  0  0  0  0  0  0  0  0
    3.9920   -0.5610    0.0280 O   0  0  0  0  0  0  0  0  0  0  0  0
    3.7660    0.6770    1.9100 O   0  0  0  0  0  0  0  0  0  0  0  0
    2.6540   -0.0410    2.4030 C   0  0  0  0  0  0  0  0  0  0  0  0
    1.4800    0.0110    1.4750 C   0  0  0  0  0  0  0  0  0  0  0  0
    0.3610   -0.7230    1.9940 N   0  0  0  0  0  0  0  0  0  0  0  0
   -0.7770   -0.5970    1.0770 C   0  0  0  0  0  0  0  0  0  0  0  0
   -1.2160   -1.9670    0.6190 C   0  0  0  0  0  0  0  0  0  0  0  0
   -0.5500   -3.0110    1.0770 N   0  0  0  0  0  0  0  0  0  0  0  0
   -0.7050   -4.2990    0.8520 C   0  0  0  0  0  0  0  0  0  0  0  0
    0.1790   -5.2050    1.4980 O   0  0  0  0  0  0  0  0  0  0  0  0
   -1.6790   -4.8060    0.0240 C   0  0  0  0  0  0  0  0  0  0  0  0
   -1.7860   -6.0480   -0.1590 O   0  0  0  0  0  0  0  0  0  0  0  0
   -2.6830   -3.6390   -0.6990 S   0  0  0  0  0  0  0  0  0  0  0  0
   -2.2800   -2.0410   -0.2470 C   0  0  0  0  0  0  0  0  0  0  0  0
   -2.9720   -0.8490   -0.7110 C   0  0  0  0  0  0  0  0  0  0  0  0
   -2.6760    0.3010   -0.3770 O   0  0  0  0  0  0  0  0  0  0  0  0
   -4.0560   -0.9680   -1.6010 O   0  0  0  0  0  0  0  0  0  0  0  0
   -4.8800    0.4290   -2.1550 S   0  0  0  0  0  0  0  0  0  0  0  0
   -6.0320    1.0880   -0.9230 C   0  0  2  0  0  0  0  0  0  0  0  0
   -6.6530    2.2220   -1.4670 O   0  0  0  0  0  0  0  0  0  0  0  0
   -7.3780    3.1430   -0.7280 C   0  0  0  0  0  0  0  0  0  0  0  0
   -8.4700    3.5940   -1.1710 O   0  0  0  0  0  0  0  0  0  0  0  0
   -6.9360    3.6170    0.5440 N   0  0  0  0  0  0  0  0  0  0  0  0
   -5.7240    3.1450    1.0820 C   0  0  0  0  0  0  0  0  0  0  0  0
   -4.9450    4.0000    2.2130 S   0  0  0  0  0  0  0  0  0  0  0  0
   -5.0560    1.6060    0.5140 S   0  0  0  0  0  0  0  0  0  0  0  0
  1  2  1  0
  3  2  1  6
  3  4  1  0
  3  6  1  0
  4  5  1  0
  6  7  1  0
  7  8  2  0
  7  9  1  0
  9 10  1  0
 10 11  1  0
 11 12  1  0
 12 13  1  0
 13 14  1  0
 14 15  1  0
 14 21  2  0
 15 16  2  0
 16 17  1  0
 16 18  1  0
 18 19  2  0
 18 20  1  0
 20 21  1  0
 21 22  1  0
 22 23  2  0
 22 24  1  0
 24 25  1  0
 26 25  1  6
 26 27  1  0
 26 33  1  0
 27 28  1  0
 28 29  2  0
 28 30  1  0
 30 31  1  0
 31 32  2  0
 31 33  1  0
M  CHG  2  12   1  17  -1
M  END
