
     RDKit          3D

 33 35  0  0  0  0  0  0  0  0999 V2000
    9.0340   -0.0690   -0.4950 C   0  0  0  0  0  0  0  0  0  0  0  0
    8.1890   -1.2250   -0.0560 C   0  0  0  0  0  0  0  0  0  0  0  0
    6.8640   -0.7480    0.1500 O   0  0  0  0  0  0  0  0  0  0  0  0
    6.5390    0.2310    1.0530 C   0  0  0  0  0  0  0  0  0  0  0  0
    7.4320    0.7560    1.7510 O   0  0  0  0  0  0  0  0  0  0  0  0
    5.1450    0.6760    1.2120 C   0  0  0  0  0  0  0  0  0  0  0  0
    4.3350   -0.0620    0.3200 O   0  0  0  0  0  0  0  0  0  0  0  0
    2.9730    0.1060    0.2120 C   0  0  0  0  0  0  0  0  0  0  0  0
    2.4310    0.9680    0.9560 O   0  0  0  0  0  0  0  0  0  0  0  0
    2.2450   -0.6610   -0.6910 O   0  0  0  0  0  0  0  0  0  0  0  0
    0.8910   -0.5090   -0.8130 C   0  0  0  0  0  0  0  0  0  0  0  0
    0.2990    0.3810   -0.0530 N   0  0  0  0  0  0  0  0  0  0  0  0
   -1.1540    0.4620   -0.2640 C   0  0  1  0  0  0  0  0  0  0  0  0
   -1.9270    1.6480    0.8270 S   0  0  0  0  0  0  0  0  0  0  0  0
   -2.2240    3.0790   -0.2450 C   0  0  2  0  0  0  0  0  0  0  0  0
   -3.3100    3.8890    0.2130 N   0  0  0  0  0  0  0  0  0  0  0  0
   -4.6210    3.3950    0.3940 C   0  0  0  0  0  0  0  0  0  0  0  0
   -5.4780    4.0290    1.0540 O   0  0  0  0  0  0  0  0  0  0  0  0
   -5.0270    2.0980   -0.2000 C   0  0  0  0  0  0  0  0  0  0  0  0
   -4.2080    1.9660   -1.8130 S   0  0  0  0  0  0  0  0  0  0  0  0
   -2.5020    2.5460   -1.6120 C   0  0  2  0  0  0  0  0  0  0  0  0
   -1.3990    1.1610   -1.9080 S   0  0  0  0  0  0  0  0  0  0  0  0
   -1.6610   -0.8730   -0.1420 N   0  0  1  0  0  0  0  0  0  0  0  0
   -0.7770   -1.6640    0.5520 O   0  0  0  0  0  0  0  0  0  0  0  0
   -2.8310   -0.9660    0.4900 O   0  0  0  0  0  0  0  0  0  0  0  0
   -3.6880   -1.9040   -0.0780 C   0  0  0  0  0  0  0  0  0  0  0  0
   -4.9660   -1.9220    0.7110 C   0  0  0  0  0  0  0  0  0  0  0  0
   -5.9260   -2.9340    0.1210 C   0  0  0  0  0  0  0  0  0  0  0  0
   -5.3870   -4.2080    0.1410 O   0  0  0  0  0  0  0  0  0  0  0  0
   -1.6910   -1.4050   -1.3990 O   0  0  0  0  0  0  0  0  0  0  0  0
   -0.0940   -1.4330   -1.9250 S   0  0  1  0  0  0  0  0  0  0  0  0
    0.0170   -0.9130   -3.3270 O   0  0  0  0  0  0  0  0  0  0  0  0
    0.3760   -2.8600   -1.9360 O   0  0  0  0  0  0  0  0  0  0  0  0
  1  2  1  0
  2  3  1  0
  3  4  1  0
  4  5  2  0
  4  6  1  0
  6  7  1  0
  7  8  1  0
  8  9  2  0
  8 10  1  0
 10 11  1  0
 11 12  2  0
 11 31  1  0
 12 13  1  0
 13 14  1  1
 13 22  1  0
 13 23  1  0
 14 15  1  0
 15 16  1  1
 15 21  1  0
 16 17  1  0
 17 18  2  0
 17 19  1  0
 19 20  1  0
 21 20  1  1
 21 22  1  0
 23 24  1  1
 23 25  1  0
 23 30  1  0
 25 26  1  0
 26 27  1  0
 27 28  1  0
 28 29  1  0
 31 30  1  1
 31 32  2  0
 31 33  2  0
M  CHG  2  23   1  24  -1
M  END
