
     RDKit          3D

 33 34  0  0  0  0  0  0  0  0999 V2000
    0.1910   -2.8530   -2.2700 C   0  0  0  0  0  0  0  0  0  0  0  0
    0.4090   -2.1270   -0.9660 C   0  0  1  0  0  0  0  0  0  0  0  0
    1.6640   -1.4900   -0.9120 O   0  0  0  0  0  0  0  0  0  0  0  0
    2.6090   -1.8090    0.0310 C   0  0  0  0  0  0  0  0  0  0  0  0
    2.3320   -2.7010    0.8680 O   0  0  0  0  0  0  0  0  0  0  0  0
    3.9550   -1.1120    0.0700 C   0  0  0  0  0  0  0  0  0  0  0  0
    4.8950   -1.7570    1.3960 S   0  0  1  0  0  0  0  0  0  0  0  0
    4.1030   -1.4780    2.6690 O   0  0  0  0  0  0  0  0  0  0  0  0
    5.0120   -3.2470    1.1870 O   0  0  0  0  0  0  0  0  0  0  0  0
    6.5080   -1.0970    1.5690 C   0  0  0  0  0  0  0  0  0  0  0  0
    6.5790    0.3720    1.7710 C   0  0  0  0  0  0  0  0  0  0  0  0
    6.0950    1.1550    0.6720 N   0  0  0  0  0  0  0  0  0  0  0  0
    6.0910    2.5840    0.7860 C   0  0  0  0  0  0  0  0  0  0  0  0
    6.5110    3.1060    1.8400 O   0  0  0  0  0  0  0  0  0  0  0  0
    5.6270    3.3350   -0.2700 O   0  0  0  0  0  0  0  0  0  0  0  0
    5.6190    4.6880   -0.1750 O   0  0  0  0  0  0  0  0  0  0  0  0
   -0.7070   -1.1330   -0.8380 C   0  0  0  0  0  0  0  0  0  0  0  0
   -1.6280   -1.0710    0.0320 N   0  0  0  0  0  0  0  0  0  0  0  0
   -1.6510   -2.0590    1.0500 O   0  0  0  0  0  0  0  0  0  0  0  0
   -2.5920   -0.0440   -0.0230 C   0  0  0  0  0  0  0  0  0  0  0  0
   -2.5560    0.7430   -1.2960 C   0  0  2  0  0  0  0  0  0  0  0  0
   -3.8970    0.2640   -2.3880 S   0  0  0  0  0  0  0  0  0  0  0  0
   -5.5050    0.7420   -1.8090 C   0  0  0  0  0  0  0  0  0  0  0  0
   -6.4920    0.3350   -2.4870 O   0  0  0  0  0  0  0  0  0  0  0  0
   -5.7430    1.5260   -0.6710 N   0  0  0  0  0  0  0  0  0  0  0  0
   -4.7140    2.0470    0.1390 N   0  0  0  0  0  0  0  0  0  0  0  0
   -5.2150    2.3970    1.2540 C   0  0  0  0  0  0  0  0  0  0  0  0
   -6.5650    2.1500    1.2840 O   0  0  0  0  0  0  0  0  0  0  0  0
   -6.9630    1.9630   -0.0870 C   0  0  2  0  0  0  0  0  0  0  0  0
   -8.0960    1.0360   -0.1560 C   0  0  0  0  0  0  0  0  0  0  0  0
   -8.5520    0.4550    0.8830 O   0  0  0  0  0  0  0  0  0  0  0  0
   -8.7230    0.7530   -1.3460 O   0  0  0  0  0  0  0  0  0  0  0  0
   -0.9560    0.2200   -1.9720 S   0  0  0  0  0  0  0  0  0  0  0  0
  2  1  1  6
  2  3  1  0
  2 17  1  0
  3  4  1  0
  4  5  2  0
  4  6  1  0
  7  6  1  6
  7  8  2  0
  7  9  2  0
  7 10  1  0
 10 11  1  0
 11 12  1  0
 12 13  1  0
 13 14  2  0
 13 15  1  0
 15 16  1  0
 17 18  2  0
 17 33  1  0
 18 19  1  0
 18 20  1  0
 20 21  1  0
 21 22  1  6
 21 33  1  0
 22 23  1  0
 23 24  2  0
 23 25  1  0
 25 26  1  0
 25 29  1  0
 26 27  2  0
 27 28  1  0
 28 29  1  0
 29 30  1  1
 30 31  2  0
 30 32  1  0
M  CHG  3  16  -1  18   1  19  -1
M  END
