
     RDKit          3D

 33 34  0  0  0  0  0  0  0  0999 V2000
    4.6940    4.0290    2.1940 C   0  0  0  0  0  0  0  0  0  0  0  0
    4.9200    2.4980    1.2500 S   0  0  0  0  0  0  0  0  0  0  0  0
    3.7130    2.4490   -0.0730 C   0  0  2  0  0  0  0  0  0  0  0  0
    1.9920    2.3100    0.6020 S   0  0  0  0  0  0  0  0  0  0  0  0
    1.4400    1.2340   -0.7150 C   0  0  0  0  0  0  0  0  0  0  0  0
    0.0740    0.9610   -1.0670 C   0  0  0  0  0  0  0  0  0  0  0  0
   -0.2370    0.1770   -2.0280 O   0  0  0  0  0  0  0  0  0  0  0  0
   -0.9910    1.5250   -0.3940 O   0  0  0  0  0  0  0  0  0  0  0  0
   -2.3250    1.2560   -0.7410 C   0  0  0  0  0  0  0  0  0  0  0  0
   -2.6730   -0.1780   -0.6320 C   0  0  0  0  0  0  0  0  0  0  0  0
   -1.8000   -0.9880   -0.2610 O   0  0  0  0  0  0  0  0  0  0  0  0
   -3.9720   -0.6390   -0.9390 N   0  0  0  0  0  0  0  0  0  0  0  0
   -4.3940   -2.0020   -0.8610 C   0  0  0  0  0  0  0  0  0  0  0  0
   -6.1360   -2.1230   -1.3260 S   0  0  0  0  0  0  0  0  0  0  0  0
   -7.2350   -1.3270   -0.1570 C   0  0  2  0  0  0  0  0  0  0  0  0
   -7.1050    0.1620   -0.0880 C   0  0  0  0  0  0  0  0  0  0  0  0
   -6.9900   -2.0540    1.5230 S   0  0  0  0  0  0  0  0  0  0  0  0
   -8.3630   -3.1890    1.4360 C   0  0  0  0  0  0  0  0  0  0  0  0
   -8.7180   -3.9910    2.3140 O   0  0  0  0  0  0  0  0  0  0  0  0
   -8.9250   -2.9770    0.2010 O   0  0  0  0  0  0  0  0  0  0  0  0
   -8.6590   -1.7700   -0.3630 C   0  0  0  0  0  0  0  0  0  0  0  0
   -9.4540   -1.0090   -1.0160 O   0  0  0  0  0  0  0  0  0  0  0  0
    2.4880    0.7820   -1.2520 N   0  0  0  0  0  0  0  0  0  0  0  0
    3.7000    1.1670   -0.7650 N   0  0  0  0  0  0  0  0  0  0  0  0
    4.9030    0.3770   -0.9110 C   0  0  0  0  0  0  0  0  0  0  0  0
    4.9080   -0.7320   -1.5040 O   0  0  0  0  0  0  0  0  0  0  0  0
    6.0900    0.8380   -0.3900 O   0  0  0  0  0  0  0  0  0  0  0  0
    7.2820    0.0900   -0.5160 C   0  0  0  0  0  0  0  0  0  0  0  0
    7.1830   -1.2380    0.1170 C   0  0  0  0  0  0  0  0  0  0  0  0
    6.1340   -1.6000    0.6860 O   0  0  0  0  0  0  0  0  0  0  0  0
    8.2930   -2.1090    0.0780 N   0  0  0  0  0  0  0  0  0  0  0  0
    9.4530   -1.7420   -0.5360 O   0  0  0  0  0  0  0  0  0  0  0  0
    8.2260   -3.3350    0.6550 O   0  0  0  0  0  0  0  0  0  0  0  0
  1  2  1  0
  3  2  1  1
  3  4  1  0
  3 24  1  0
  4  5  1  0
  5  6  1  0
  5 23  2  0
  6  7  2  0
  6  8  1  0
  8  9  1  0
  9 10  1  0
 10 11  2  0
 10 12  1  0
 12 13  1  0
 13 14  1  0
 14 15  1  0
 15 16  1  1
 15 17  1  0
 15 21  1  0
 17 18  1  0
 18 19  2  0
 18 20  1  0
 20 21  1  0
 21 22  2  0
 23 24  1  0
 24 25  1  0
 25 26  2  0
 25 27  1  0
 27 28  1  0
 28 29  1  0
 29 30  2  0
 29 31  1  0
 31 32  1  0
 31 33  1  0
M  CHG  1  32  -1
M  END
