
     RDKit          3D

 33 34  0  0  0  0  0  0  0  0999 V2000
   -0.8130    1.6740    0.9250 C   0  0  0  0  0  0  0  0  0  0  0  0
   -0.9870    0.3240    0.2440 C   0  0  1  0  0  0  0  0  0  0  0  0
   -2.4350    0.0210    0.0480 C   0  0  0  0  0  0  0  0  0  0  0  0
   -3.1060   -0.7550   -0.4600 N   0  0  0  0  0  0  0  0  0  0  0  0
   -4.4450   -0.8010   -0.5140 C   0  0  0  0  0  0  0  0  0  0  0  0
   -5.0660    0.2190    0.1320 C   0  0  0  0  0  0  0  0  0  0  0  0
   -6.7620    0.6400    0.3810 S   0  0  2  0  0  0  0  0  0  0  0  0
   -6.8400    2.1430    0.1040 O   0  0  0  0  0  0  0  0  0  0  0  0
   -7.1290    0.3910    1.8280 O   0  0  0  0  0  0  0  0  0  0  0  0
   -7.7070   -0.1840   -0.6530 O   0  0  0  0  0  0  0  0  0  0  0  0
   -9.0030   -0.3290   -0.2520 C   0  0  0  0  0  0  0  0  0  0  0  0
   -9.2920   -1.1340    0.8730 N   0  0  0  0  0  0  0  0  0  0  0  0
   -8.4690   -1.7230    1.5620 O   0  0  0  0  0  0  0  0  0  0  0  0
  -10.6310   -1.2740    1.2950 O   0  0  0  0  0  0  0  0  0  0  0  0
   -3.7160    1.1950    0.7840 S   0  0  0  0  0  0  0  0  0  0  0  0
   -0.2200    0.4060   -1.0490 C   0  0  0  0  0  0  0  0  0  0  0  0
    1.3930    1.1690   -0.5920 S   0  0  0  0  0  0  0  0  0  0  0  0
    2.4530   -0.0950    0.0900 C   0  0  2  0  0  0  0  0  0  0  0  0
    3.5250   -0.4600   -0.8890 C   0  0  0  0  0  0  0  0  0  0  0  0
    3.9610   -1.6480   -0.9400 O   0  0  0  0  0  0  0  0  0  0  0  0
    4.0320    0.5510   -1.7370 N   0  0  0  0  0  0  0  0  0  0  0  0
    5.1560    0.2710   -2.6910 C   0  0  0  0  0  0  0  0  0  0  0  0
    6.1770   -0.2960   -1.7160 C   0  0  0  0  0  0  0  0  0  0  0  0
    6.5570   -1.4650   -1.8520 O   0  0  0  0  0  0  0  0  0  0  0  0
    6.6210    0.5110   -0.6660 O   0  0  0  0  0  0  0  0  0  0  0  0
    7.5030   -0.0930    0.2990 C   0  0  0  0  0  0  0  0  0  0  0  0
    7.3980    0.7310    1.5160 C   0  0  0  0  0  0  0  0  0  0  0  0
    7.0380    1.9420    1.4440 O   0  0  0  0  0  0  0  0  0  0  0  0
    7.6640    0.2400    2.8080 O   0  0  0  0  0  0  0  0  0  0  0  0
    1.8480   -1.2450    0.6420 N   0  0  0  0  0  0  0  0  0  0  0  0
    0.5390   -1.5550    1.1010 C   0  0  0  0  0  0  0  0  0  0  0  0
    0.2630   -2.7100    1.5040 O   0  0  0  0  0  0  0  0  0  0  0  0
   -0.4910   -0.6350    1.1380 O   0  0  0  0  0  0  0  0  0  0  0  0
  2  1  1  1
  2  3  1  0
  2 16  1  0
  2 33  1  0
  3  4  2  0
  3 15  1  0
  4  5  1  0
  5  6  2  0
  6  7  1  0
  6 15  1  0
  7  8  2  0
  7  9  2  0
  7 10  1  6
 10 11  1  0
 11 12  1  0
 12 13  2  0
 12 14  1  0
 16 17  1  0
 17 18  1  0
 18 19  1  6
 18 30  1  0
 19 20  2  0
 19 21  1  0
 21 22  1  0
 22 23  1  0
 23 24  2  0
 23 25  1  0
 25 26  1  0
 26 27  1  0
 27 28  2  0
 27 29  1  0
 30 31  1  0
 31 32  2  0
 31 33  1  0
M  CHG  2  12   1  14  -1
M  END
