
     RDKit          3D

 20 21  0  0  0  0  0  0  0  0999 V2000
   -0.2410    4.4350   -1.4210 C   0  0  0  0  0  0  0  0  0  0  0  0
    0.0620    3.0930   -1.0940 O   0  0  0  0  0  0  0  0  0  0  0  0
   -0.9160    2.1380   -0.8880 C   0  0  0  0  0  0  0  0  0  0  0  0
   -2.0980    2.5240   -1.0060 O   0  0  0  0  0  0  0  0  0  0  0  0
   -0.6180    0.7340   -0.5500 C   0  0  0  0  0  0  0  0  0  0  0  0
   -1.6180   -0.1220   -0.4040 C   0  0  0  0  0  0  0  0  0  0  0  0
   -3.0820    0.2040   -0.5490 C   0  0  0  0  0  0  0  0  0  0  0  0
   -1.0520   -1.4590   -0.1100 C   0  0  0  0  0  0  0  0  0  0  0  0
   -1.8080   -2.6600    0.1490 C   0  0  0  0  0  0  0  0  0  0  0  0
   -1.3670   -4.0140    0.4950 C   0  0  0  0  0  0  0  0  0  0  0  0
   -3.0900   -2.5300    0.0720 O   0  0  0  0  0  0  0  0  0  0  0  0
    0.2860   -1.3380   -0.1050 C   0  0  0  0  0  0  0  0  0  0  0  0
    1.3710   -2.3150    0.1300 C   0  0  0  0  0  0  0  0  0  0  0  0
    1.2340   -3.6250   -0.1730 O   0  0  0  0  0  0  0  0  0  0  0  0
    2.4720   -1.7770    0.6550 C   0  0  0  0  0  0  0  0  0  0  0  0
    2.5920   -0.3630    0.9070 C   0  0  0  0  0  0  0  0  0  0  0  0
    1.6560    0.5470    0.5950 C   0  0  0  0  0  0  0  0  0  0  0  0
    1.9620    1.9290    0.9800 C   0  0  0  0  0  0  0  0  0  0  0  0
    3.2290    1.9940    1.6430 O   0  0  0  0  0  0  0  0  0  0  0  0
    0.6280    0.0650   -0.3350 C   0  0  2  0  0  0  0  0  0  0  0  0
  1  2  1  0
  2  3  1  0
  3  4  2  0
  3  5  1  0
  5  6  2  0
 20  5  1  1
  6  7  1  0
  6  8  1  0
  8  9  1  0
  8 12  2  0
  9 10  1  0
  9 11  2  0
 12 13  1  0
 12 20  1  0
 13 14  1  0
 13 15  2  0
 15 16  1  0
 16 17  2  0
 17 18  1  0
 17 20  1  0
 18 19  1  0
M  END
