
     RDKit          3D

 20 22  0  0  0  0  0  0  0  0999 V2000
   -3.4170   -1.5120    0.8850 C   0  0  0  0  0  0  0  0  0  0  0  0
   -2.5410   -1.3860   -0.2050 O   0  0  0  0  0  0  0  0  0  0  0  0
   -1.2700   -0.8360   -0.1270 C   0  0  0  0  0  0  0  0  0  0  0  0
   -1.1830    0.5520   -0.3440 C   0  0  0  0  0  0  0  0  0  0  0  0
    0.0960    1.1190   -0.2680 C   0  0  0  0  0  0  0  0  0  0  0  0
    1.2050    0.3240    0.0100 C   0  0  0  0  0  0  0  0  0  0  0  0
    2.4430    0.9160    0.0770 C   0  0  0  0  0  0  0  0  0  0  0  0
    3.5290    0.0890    0.3570 C   0  0  0  0  0  0  0  0  0  0  0  0
    4.7840    0.6810    0.4260 O   0  0  0  0  0  0  0  0  0  0  0  0
    3.3840   -1.2740    0.5620 C   0  0  0  0  0  0  0  0  0  0  0  0
    2.1370   -1.8510    0.4920 C   0  0  0  0  0  0  0  0  0  0  0  0
    1.9450   -3.2230    0.6930 O   0  0  0  0  0  0  0  0  0  0  0  0
    1.0570   -1.0460    0.2160 C   0  0  0  0  0  0  0  0  0  0  0  0
   -0.1900   -1.6240    0.1460 C   0  0  0  0  0  0  0  0  0  0  0  0
   -0.4000   -2.9820    0.3420 O   0  0  0  0  0  0  0  0  0  0  0  0
    0.1920    2.5510   -0.4910 C   0  0  0  0  0  0  0  0  0  0  0  0
    1.2920    3.1310   -0.4410 O   0  0  0  0  0  0  0  0  0  0  0  0
   -1.0170    3.3230   -0.7780 C   0  0  0  0  0  0  0  0  0  0  0  0
   -2.1730    2.7420   -0.8360 C   0  0  0  0  0  0  0  0  0  0  0  0
   -2.3910    1.3110   -0.6290 C   0  0  0  0  0  0  0  0  0  0  0  0
  1  2  1  0
  2  3  1  0
  3  4  2  0
  3 14  1  0
  4  5  1  0
  4 20  1  0
  5  6  2  0
  5 16  1  0
  6  7  1  0
  6 13  1  0
  7  8  2  0
  8  9  1  0
  8 10  1  0
 10 11  2  0
 11 12  1  0
 11 13  1  0
 13 14  2  0
 14 15  1  0
 16 17  2  0
 16 18  1  0
 18 19  2  0
 19 20  1  0
M  END
