
     RDKit          3D

 20 22  0  0  0  0  0  0  0  0999 V2000
   -3.4250    3.2220   -0.2480 C   0  0  0  0  0  0  0  0  0  0  0  0
   -3.5500    1.7500   -0.2540 C   0  0  0  0  0  0  0  0  0  0  0  0
   -2.5060    0.9220   -0.1970 C   0  0  0  0  0  0  0  0  0  0  0  0
   -1.2470    1.2100   -0.1280 O   0  0  0  0  0  0  0  0  0  0  0  0
   -0.4560    0.1510   -0.0850 C   0  0  0  0  0  0  0  0  0  0  0  0
    0.9880    0.3050   -0.0060 C   0  0  0  0  0  0  0  0  0  0  0  0
    1.8660   -0.7350    0.0650 C   0  0  0  0  0  0  0  0  0  0  0  0
    1.4640   -2.0250    0.0760 O   0  0  0  0  0  0  0  0  0  0  0  0
    3.2430   -0.4820    0.1330 C   0  0  0  0  0  0  0  0  0  0  0  0
    4.0930   -1.5610    0.2040 O   0  0  0  0  0  0  0  0  0  0  0  0
    3.7020    0.7980    0.1270 C   0  0  0  0  0  0  0  0  0  0  0  0
    5.1720    1.0410    0.1990 C   0  0  0  0  0  0  0  0  0  0  0  0
    2.8500    1.7690    0.0580 O   0  0  0  0  0  0  0  0  0  0  0  0
    1.5620    1.5670   -0.0060 C   0  0  0  0  0  0  0  0  0  0  0  0
    0.8350    2.6180   -0.0700 O   0  0  0  0  0  0  0  0  0  0  0  0
   -1.2690   -0.9620   -0.1290 C   0  0  0  0  0  0  0  0  0  0  0  0
   -2.5520   -0.4720   -0.1990 C   0  0  0  0  0  0  0  0  0  0  0  0
   -3.4520   -1.4530   -0.2460 C   0  0  0  0  0  0  0  0  0  0  0  0
   -2.7830   -2.7590   -0.2090 C   0  0  0  0  0  0  0  0  0  0  0  0
   -1.3170   -2.4160   -0.1390 C   0  0  0  0  0  0  0  0  0  0  0  0
  1  2  1  0
  2  3  2  3
  3  4  1  0
  3 17  1  0
  4  5  1  0
  5  6  1  0
  5 16  2  0
  6  7  2  0
  6 14  1  0
  7  8  1  0
  7  9  1  0
  9 10  1  0
  9 11  2  0
 11 12  1  0
 11 13  1  0
 13 14  1  0
 14 15  2  0
 16 17  1  0
 16 20  1  0
 17 18  2  0
 18 19  1  0
 19 20  1  0
M  END
