
     RDKit          3D

 20 21  0  0  0  0  0  0  0  0999 V2000
   -4.3780    1.0840   -2.0120 C   0  0  0  0  0  0  0  0  0  0  0  0
   -3.4300    0.2700   -1.2190 C   0  0  0  0  0  0  0  0  0  0  0  0
   -2.1550    0.6060   -1.2400 C   0  0  0  0  0  0  0  0  0  0  0  0
   -1.7600    1.7200   -2.0160 O   0  0  0  0  0  0  0  0  0  0  0  0
   -1.1660   -0.1430   -0.4830 C   0  0  0  0  0  0  0  0  0  0  0  0
   -0.0130    0.4760   -0.1760 C   0  0  0  0  0  0  0  0  0  0  0  0
    1.0020   -0.1810    0.5580 C   0  0  0  0  0  0  0  0  0  0  0  0
    2.1590    0.4290    0.8740 C   0  0  0  0  0  0  0  0  0  0  0  0
    2.4380    1.7670    0.4910 C   0  0  0  0  0  0  0  0  0  0  0  0
    3.4840    2.5060    0.7040 C   0  0  0  0  0  0  0  0  0  0  0  0
    3.4720    3.8570    0.1790 O   0  0  0  0  0  0  0  0  0  0  0  0
    4.6550    2.1050    1.4140 C   0  0  0  0  0  0  0  0  0  0  0  0
    4.8750    1.0260    1.9340 O   0  0  0  0  0  0  0  0  0  0  0  0
    3.0130   -0.4050    1.6020 O   0  0  0  0  0  0  0  0  0  0  0  0
    3.2170   -1.7530    1.2330 C   0  0  0  0  0  0  0  0  0  0  0  0
    1.8950   -2.4330    0.9260 C   0  0  0  0  0  0  0  0  0  0  0  0
    0.8310   -1.4940    0.9820 O   0  0  0  0  0  0  0  0  0  0  0  0
   -1.4270   -1.5290   -0.0800 C   0  0  0  0  0  0  0  0  0  0  0  0
   -2.7820   -1.9850   -0.5140 C   0  0  0  0  0  0  0  0  0  0  0  0
   -3.8500   -0.9250   -0.4160 C   0  0  0  0  0  0  0  0  0  0  0  0
  1  2  1  0
  2  3  2  0
  2 20  1  0
  3  4  1  0
  3  5  1  0
  5  6  2  3
  5 18  1  0
  6  7  1  0
  7  8  2  0
  7 17  1  0
  8  9  1  0
  8 14  1  0
  9 10  2  3
 10 11  1  0
 10 12  1  0
 12 13  2  0
 14 15  1  0
 15 16  1  0
 16 17  1  0
 18 19  1  0
 19 20  1  0
M  END
