
     RDKit          3D

 20 22  0  0  0  0  0  0  0  0999 V2000
   -0.5270   -0.9270   -2.2760 O   0  0  0  0  0  0  0  0  0  0  0  0
    0.3100   -0.5260   -1.4170 C   0  0  0  0  0  0  0  0  0  0  0  0
    1.6000   -0.5200   -1.6380 O   0  0  0  0  0  0  0  0  0  0  0  0
    2.4460   -0.0990   -0.7280 C   0  0  0  0  0  0  0  0  0  0  0  0
    3.7960   -0.1050   -0.9930 C   0  0  0  0  0  0  0  0  0  0  0  0
    4.2310   -0.5630   -2.2240 O   0  0  0  0  0  0  0  0  0  0  0  0
    4.6710    0.3440   -0.0210 C   0  0  0  0  0  0  0  0  0  0  0  0
    4.2030    0.7900    1.1930 C   0  0  0  0  0  0  0  0  0  0  0  0
    2.8450    0.7890    1.4470 C   0  0  0  0  0  0  0  0  0  0  0  0
    1.9490    0.3450    0.4890 C   0  0  0  0  0  0  0  0  0  0  0  0
    0.5860    0.3520    0.7590 C   0  0  0  0  0  0  0  0  0  0  0  0
   -0.2720   -0.0960   -0.2200 C   0  0  0  0  0  0  0  0  0  0  0  0
   -1.7140   -0.1140   -0.0110 C   0  0  0  0  0  0  0  0  0  0  0  0
   -2.5070    0.9690   -0.2860 C   0  0  0  0  0  0  0  0  0  0  0  0
   -3.8800    0.9280   -0.0440 C   0  0  0  0  0  0  0  0  0  0  0  0
   -4.6860    2.0340   -0.3290 O   0  0  0  0  0  0  0  0  0  0  0  0
   -4.4490   -0.2100    0.4790 C   0  0  0  0  0  0  0  0  0  0  0  0
   -3.6400   -1.2970    0.7520 C   0  0  0  0  0  0  0  0  0  0  0  0
   -2.2790   -1.2590    0.5120 C   0  0  0  0  0  0  0  0  0  0  0  0
   -1.5250   -2.3820    0.8030 O   0  0  0  0  0  0  0  0  0  0  0  0
  1  2  2  0
  2  3  1  0
  2 12  1  0
  3  4  1  0
  4  5  2  0
  4 10  1  0
  5  6  1  0
  5  7  1  0
  7  8  2  0
  8  9  1  0
  9 10  2  0
 10 11  1  0
 11 12  2  0
 12 13  1  0
 13 14  2  0
 13 19  1  0
 14 15  1  0
 15 16  1  0
 15 17  2  0
 17 18  1  0
 18 19  2  0
 19 20  1  0
M  END
