
     RDKit          3D

 20 22  0  0  0  0  0  0  0  0999 V2000
    3.7030    2.3120    0.4050 C   0  0  0  0  0  0  0  0  0  0  0  0
    2.8970    1.0870    0.2180 C   0  0  0  0  0  0  0  0  0  0  0  0
    1.5160    1.1040    0.1450 C   0  0  0  0  0  0  0  0  0  0  0  0
    0.8740   -0.1020   -0.0310 C   0  0  0  0  0  0  0  0  0  0  0  0
    1.5910   -1.2780   -0.1310 C   0  0  0  0  0  0  0  0  0  0  0  0
    2.8960   -1.2470   -0.0560 O   0  0  0  0  0  0  0  0  0  0  0  0
    3.5360   -0.1230    0.1100 C   0  0  0  0  0  0  0  0  0  0  0  0
    4.8080   -0.1070    0.1810 O   0  0  0  0  0  0  0  0  0  0  0  0
    1.0200   -2.5150   -0.3060 C   0  0  0  0  0  0  0  0  0  0  0  0
    1.7260   -3.7020   -0.4080 O   0  0  0  0  0  0  0  0  0  0  0  0
   -0.3670   -2.5770   -0.3890 C   0  0  0  0  0  0  0  0  0  0  0  0
   -0.9620   -3.8130   -0.5660 O   0  0  0  0  0  0  0  0  0  0  0  0
   -1.1100   -1.4140   -0.2920 C   0  0  0  0  0  0  0  0  0  0  0  0
   -2.4800   -1.4900   -0.3750 C   0  0  0  0  0  0  0  0  0  0  0  0
   -3.2350   -0.3280   -0.2790 C   0  0  0  0  0  0  0  0  0  0  0  0
   -2.6250    0.8870   -0.1040 C   0  0  0  0  0  0  0  0  0  0  0  0
   -3.4050    2.1440    0.0010 C   0  0  0  0  0  0  0  0  0  0  0  0
   -3.7240    2.3910    1.3420 O   0  0  0  0  0  0  0  0  0  0  0  0
   -1.2470    0.9640   -0.0210 C   0  0  0  0  0  0  0  0  0  0  0  0
   -0.5130   -0.1660   -0.1140 C   0  0  0  0  0  0  0  0  0  0  0  0
  1  2  1  0
  2  3  2  0
  2  7  1  0
  3  4  1  0
  4  5  2  0
  4 20  1  0
  5  6  1  0
  5  9  1  0
  6  7  1  0
  7  8  2  0
  9 10  1  0
  9 11  2  0
 11 12  1  0
 11 13  1  0
 13 14  2  0
 13 20  1  0
 14 15  1  0
 15 16  2  0
 16 17  1  0
 16 19  1  0
 17 18  1  0
 19 20  2  0
M  END
