
     RDKit          3D

 11 11  0  0  0  0  0  0  0  0999 V2000
    3.6400   -0.5240    1.1010 O   0  0  0  0  0  0  0  0  0  0  0  0
    3.5660   -0.3090   -0.2850 C   0  0  0  0  0  0  0  0  0  0  0  0
    2.1170   -0.0910   -0.6620 C   0  0  0  0  0  0  0  0  0  0  0  0
    1.5390    1.1000    0.0500 C   0  0  0  0  0  0  0  0  0  0  0  0
    0.2080    1.3380   -0.2680 O   0  0  0  0  0  0  0  0  0  0  0  0
   -0.6180    0.2970    0.0560 C   0  0  1  0  0  0  0  0  0  0  0  0
   -1.6810    0.7090    1.0880 C   0  0  0  0  0  0  0  0  0  0  0  0
   -2.4650   -0.5780    1.3310 C   0  0  0  0  0  0  0  0  0  0  0  0
   -3.2910   -0.8150    0.2500 O   0  0  0  0  0  0  0  0  0  0  0  0
   -2.8700   -0.2360   -0.9250 C   0  0  0  0  0  0  0  0  0  0  0  0
   -1.3840   -0.2520   -1.1210 C   0  0  0  0  0  0  0  0  0  0  0  0
  1  2  1  0
  2  3  1  0
  3  4  1  0
  4  5  1  0
  6  5  1  6
  6  7  1  0
  6 11  1  0
  7  8  1  0
  8  9  1  0
  9 10  1  0
 10 11  1  0
M  END
