
     RDKit          3D

 12 11  0  0  0  0  0  0  0  0999 V2000
    4.6670   -0.1030    0.5090 C   0  0  0  0  0  0  0  0  0  0  0  0
    4.2200   -0.5470   -0.8620 C   0  0  0  0  0  0  0  0  0  0  0  0
    2.9000   -0.0820   -1.1070 O   0  0  0  0  0  0  0  0  0  0  0  0
    1.8120   -0.4120   -0.3450 C   0  0  0  0  0  0  0  0  0  0  0  0
    1.9830   -1.1750    0.6390 O   0  0  0  0  0  0  0  0  0  0  0  0
    0.4620    0.0960   -0.6390 C   0  0  0  0  0  0  0  0  0  0  0  0
   -0.5190   -0.3460    0.2440 O   0  0  0  0  0  0  0  0  0  0  0  0
   -1.8240    0.0680    0.0630 C   0  0  0  0  0  0  0  0  0  0  0  0
   -2.2310    0.8330   -1.1370 C   0  0  0  0  0  0  0  0  0  0  0  0
   -2.7140   -0.2310    0.9880 C   0  0  0  0  0  0  0  0  0  0  0  0
   -4.1200    0.2020    0.8180 C   0  0  0  0  0  0  0  0  0  0  0  0
   -4.9320   -0.9330    0.8010 O   0  0  0  0  0  0  0  0  0  0  0  0
  1  2  1  0
  2  3  1  0
  3  4  1  0
  4  5  2  0
  4  6  1  0
  6  7  1  0
  7  8  1  0
  8  9  1  0
  8 10  2  3
 10 11  1  0
 11 12  1  0
M  END
