
     RDKit          3D

 11 11  0  0  0  0  0  0  0  0999 V2000
   -0.1500    1.9970    0.3980 C   0  0  0  0  0  0  0  0  0  0  0  0
   -0.1740    0.4730    0.1140 C   0  0  1  0  0  0  0  0  0  0  0  0
    1.1140    0.1270   -0.0850 O   0  0  0  0  0  0  0  0  0  0  0  0
    1.7050   -1.0740   -0.3670 C   0  0  0  0  0  0  0  0  0  0  0  0
    0.8940   -2.0050   -0.4520 O   0  0  0  0  0  0  0  0  0  0  0  0
    3.1600   -1.1690   -0.5390 C   0  0  0  0  0  0  0  0  0  0  0  0
    3.7880    0.0610   -0.3800 O   0  0  0  0  0  0  0  0  0  0  0  0
   -0.9900   -0.1210    1.1740 C   0  0  0  0  0  0  0  0  0  0  0  0
   -2.4230   -0.1920    0.5990 C   0  0  0  0  0  0  0  0  0  0  0  0
   -2.0800   -0.6350   -0.8010 C   0  0  0  0  0  0  0  0  0  0  0  0
   -0.9410    0.2640   -1.1650 C   0  0  0  0  0  0  0  0  0  0  0  0
  2  1  1  1
  2  3  1  0
  2  8  1  0
  2 11  1  0
  3  4  1  0
  4  5  2  0
  4  6  1  0
  6  7  1  0
  8  9  1  0
  9 10  1  0
 10 11  1  0
M  END
