
     RDKit          3D

 11 11  0  0  0  0  0  0  0  0999 V2000
    3.7280    1.5400   -1.0920 O   0  0  0  0  0  0  0  0  0  0  0  0
    3.5320    0.2780   -0.5660 C   0  0  0  0  0  0  0  0  0  0  0  0
    2.0660   -0.0990   -0.7450 C   0  0  0  0  0  0  0  0  0  0  0  0
    1.1820    0.8850   -0.0320 C   0  0  0  0  0  0  0  0  0  0  0  0
   -0.1730    0.6130   -0.1480 O   0  0  0  0  0  0  0  0  0  0  0  0
   -0.5660   -0.5960    0.3610 C   0  0  1  0  0  0  0  0  0  0  0  0
   -1.5590   -0.4650    1.5020 C   0  0  0  0  0  0  0  0  0  0  0  0
   -2.8260    0.2250    1.0650 C   0  0  0  0  0  0  0  0  0  0  0  0
   -3.0410   -0.1020   -0.4040 C   0  0  0  0  0  0  0  0  0  0  0  0
   -2.6070   -1.4050   -0.6280 O   0  0  0  0  0  0  0  0  0  0  0  0
   -1.2130   -1.4920   -0.6740 C   0  0  0  0  0  0  0  0  0  0  0  0
  1  2  1  0
  2  3  1  0
  3  4  1  0
  4  5  1  0
  6  5  1  6
  6  7  1  0
  6 11  1  0
  7  8  1  0
  8  9  1  0
  9 10  1  0
 10 11  1  0
M  END
