
     RDKit          3D

 14 15  0  0  0  0  0  0  0  0999 V2000
   -3.6250   -0.5820    0.3420 O   0  0  0  0  0  0  0  0  0  0  0  0
   -2.6950    0.2500    0.3060 C   0  0  0  0  0  0  0  0  0  0  0  0
   -3.0200    1.5880    0.4290 O   0  0  0  0  0  0  0  0  0  0  0  0
   -1.2900   -0.2020    0.1360 C   0  0  0  0  0  0  0  0  0  0  0  0
   -0.2840    0.7140    0.0980 C   0  0  0  0  0  0  0  0  0  0  0  0
    1.0700    0.3360   -0.0610 C   0  0  0  0  0  0  0  0  0  0  0  0
    2.1000    1.1300   -0.1090 N   0  0  0  0  0  0  0  0  0  0  0  0
    3.3170    0.6110   -0.2650 C   0  0  0  0  0  0  0  0  0  0  0  0
    4.7680    1.3100   -0.3610 S   0  0  0  0  0  0  0  0  0  0  0  0
    3.0270   -1.1810   -0.3580 S   0  0  0  0  0  0  0  0  0  0  0  0
    1.2310   -1.0100   -0.1680 C   0  0  0  0  0  0  0  0  0  0  0  0
    0.2000   -1.9570   -0.1300 C   0  0  0  0  0  0  0  0  0  0  0  0
    0.4870   -3.1850   -0.2420 O   0  0  0  0  0  0  0  0  0  0  0  0
   -1.0750   -1.5170    0.0260 N   0  0  0  0  0  0  0  0  0  0  0  0
  1  2  2  0
  2  3  1  0
  2  4  1  0
  4  5  2  0
  4 14  1  0
  5  6  1  0
  6  7  1  0
  6 11  2  0
  7  8  1  0
  8  9  2  0
  8 10  1  0
 10 11  1  0
 11 12  1  0
 12 13  2  0
 12 14  1  0
M  END
