
     RDKit          3D

 12 12  0  0  0  0  0  0  0  0999 V2000
    3.9200    0.2080    0.3590 C   0  0  0  0  0  0  0  0  0  0  0  0
    3.4000    0.6730   -0.8720 O   0  0  0  0  0  0  0  0  0  0  0  0
    2.0310    0.7650   -0.7360 C   0  0  0  0  0  0  0  0  0  0  0  0
    1.4310   -0.4730   -0.4250 O   0  0  0  0  0  0  0  0  0  0  0  0
    0.0550   -0.5120   -0.2630 C   0  0  0  0  0  0  0  0  0  0  0  0
   -0.5690   -1.7120    0.0430 C   0  0  0  0  0  0  0  0  0  0  0  0
   -1.9320   -1.7650    0.2070 C   0  0  0  0  0  0  0  0  0  0  0  0
   -2.7150   -0.6130    0.0690 C   0  0  0  0  0  0  0  0  0  0  0  0
   -4.0730   -0.6560    0.2310 O   0  0  0  0  0  0  0  0  0  0  0  0
   -2.1010    0.5820   -0.2340 C   0  0  0  0  0  0  0  0  0  0  0  0
   -2.8340    1.7590   -0.3820 O   0  0  0  0  0  0  0  0  0  0  0  0
   -0.7100    0.6190   -0.3980 C   0  0  0  0  0  0  0  0  0  0  0  0
  1  2  1  0
  2  3  1  0
  3  4  1  0
  4  5  1  0
  5  6  2  0
  5 12  1  0
  6  7  1  0
  7  8  2  0
  8  9  1  0
  8 10  1  0
 10 11  1  0
 10 12  2  0
M  END
