
     RDKit          3D

 10 10  0  0  0  0  0  0  0  0999 V2000
    3.4480    0.1370   -0.3650 N   0  0  0  0  0  0  0  0  0  0  0  0
    2.0440   -0.0640   -0.6780 C   0  0  0  0  0  0  0  0  0  0  0  0
    1.2480    0.2720    0.5500 C   0  0  0  0  0  0  0  0  0  0  0  0
   -0.1930    0.1200    0.4000 C   0  0  0  0  0  0  0  0  0  0  0  0
   -0.9990    1.1520   -0.0310 C   0  0  0  0  0  0  0  0  0  0  0  0
   -2.3630    0.9910   -0.1690 C   0  0  0  0  0  0  0  0  0  0  0  0
   -2.9550   -0.2070    0.1230 C   0  0  0  0  0  0  0  0  0  0  0  0
   -4.3340   -0.2980   -0.0380 O   0  0  0  0  0  0  0  0  0  0  0  0
   -2.1740   -1.2440    0.5520 C   0  0  0  0  0  0  0  0  0  0  0  0
   -0.8060   -1.0860    0.6910 C   0  0  0  0  0  0  0  0  0  0  0  0
  1  2  1  0
  2  3  1  0
  3  4  1  0
  4  5  2  0
  4 10  1  0
  5  6  1  0
  6  7  2  0
  7  8  1  0
  7  9  1  0
  9 10  2  0
M  CHG  1   1   1
M  END
