
     RDKit          3D

 12 12  0  0  0  0  0  0  0  0999 V2000
   -0.5750   -2.0270    0.9550 C   0  0  0  0  0  0  0  0  0  0  0  0
   -0.2490   -1.3710   -0.2970 C   0  0  0  0  0  0  0  0  0  0  0  0
   -0.1120    0.0670   -0.4040 C   0  0  0  0  0  0  0  0  0  0  0  0
   -1.0690    1.0890   -0.5040 C   0  0  0  0  0  0  0  0  0  0  0  0
   -2.4520    0.9250   -0.0990 C   0  0  0  0  0  0  0  0  0  0  0  0
   -3.4400    1.0400   -0.6620 O   0  0  0  0  0  0  0  0  0  0  0  0
   -2.5420    0.5690    1.3130 O   0  0  0  0  0  0  0  0  0  0  0  0
   -0.4630    2.3060   -0.7550 C   0  0  0  0  0  0  0  0  0  0  0  0
    0.8460    1.9990   -0.8180 O   0  0  0  0  0  0  0  0  0  0  0  0
    1.0830    0.7350   -0.6180 C   0  0  0  0  0  0  0  0  0  0  0  0
    2.4700    0.1600   -0.6000 C   0  0  0  0  0  0  0  0  0  0  0  0
    3.1440    0.8300    0.4910 O   0  0  0  0  0  0  0  0  0  0  0  0
  1  2  1  0
  2  3  1  0
  3  4  1  0
  3 10  2  0
  4  5  1  0
  4  8  2  0
  5  6  2  0
  5  7  1  0
  8  9  1  0
  9 10  1  0
 10 11  1  0
 11 12  1  0
M  END
