
     RDKit          3D

 12 12  0  0  0  0  0  0  0  0999 V2000
   -1.2300   -2.4590   -0.7790 O   0  0  0  0  0  0  0  0  0  0  0  0
   -1.2620   -1.3010   -0.2860 C   0  0  0  0  0  0  0  0  0  0  0  0
   -2.4360   -0.5210   -0.2790 O   0  0  0  0  0  0  0  0  0  0  0  0
   -2.3390    0.8090   -0.1850 O   0  0  0  0  0  0  0  0  0  0  0  0
   -1.4400    1.2270    0.7590 C   0  0  0  0  0  0  0  0  0  0  0  0
   -0.1990    0.5310    0.8070 N   0  0  0  0  0  0  0  0  0  0  0  0
   -0.1010   -0.6570    0.3190 C   0  0  0  0  0  0  0  0  0  0  0  0
    1.1040   -1.3330    0.3660 O   0  0  0  0  0  0  0  0  0  0  0  0
    2.2800   -0.6120    0.5720 N   0  0  0  0  0  0  0  0  0  0  0  0
    3.5690   -1.5840   -0.1160 Cl  0  0  0  0  0  0  0  0  0  0  0  0
    2.2370    0.5360   -0.1260 O   0  0  0  0  0  0  0  0  0  0  0  0
    2.8890    1.8310    0.7250 Cl  0  0  0  0  0  0  0  0  0  0  0  0
  1  2  2  0
  2  3  1  0
  2  7  1  0
  3  4  1  0
  4  5  1  0
  5  6  1  0
  6  7  2  0
  7  8  1  0
  8  9  1  0
  9 10  1  0
  9 11  1  0
 11 12  1  0
M  END
