
     RDKit          3D

 11 10  0  0  0  0  0  0  0  0999 V2000
    2.1760    1.1850   -0.2990 O   0  0  0  0  0  0  0  0  0  0  0  0
    1.2530    0.3390   -0.4040 C   0  0  0  0  0  0  0  0  0  0  0  0
    1.6400   -0.9950   -0.4550 O   0  0  0  0  0  0  0  0  0  0  0  0
    2.9530   -1.3230   -0.3930 O   0  0  0  0  0  0  0  0  0  0  0  0
   -0.1330    0.7970   -0.4630 C   0  0  1  0  0  0  0  0  0  0  0  0
   -0.8270    0.2350   -2.0240 Cl  0  0  0  0  0  0  0  0  0  0  0  0
   -0.9610    0.2540    0.6360 C   0  0  0  0  0  0  0  0  0  0  0  0
   -2.0070   -0.4770    0.4590 N   0  0  0  0  0  0  0  0  0  0  0  0
   -2.4880   -0.8460   -0.7690 O   0  0  0  0  0  0  0  0  0  0  0  0
   -0.5990    0.5420    1.9400 O   0  0  0  0  0  0  0  0  0  0  0  0
   -1.0210   -0.5170    3.2450 Cl  0  0  0  0  0  0  0  0  0  0  0  0
  1  2  2  0
  2  3  1  0
  2  5  1  0
  3  4  1  0
  5  6  1  6
  5  7  1  0
  7  8  2  3
  7 10  1  0
  8  9  1  0
 10 11  1  0
M  END
