
     RDKit          3D

 14 14  0  0  0  0  0  0  0  0999 V2000
   -1.1840    1.2280    0.6800 C   0  0  0  0  0  0  0  0  0  0  0  0
   -0.9370    0.2940   -0.5090 C   0  0  2  0  0  0  0  0  0  0  0  0
   -1.7540    0.7240   -1.5540 O   0  0  0  0  0  0  0  0  0  0  0  0
   -3.0240    0.6920   -1.2470 O   0  0  0  0  0  0  0  0  0  0  0  0
   -1.3300   -1.0860   -0.1220 C   0  0  0  0  0  0  0  0  0  0  0  0
   -0.8340   -2.0860   -0.9150 O   0  0  0  0  0  0  0  0  0  0  0  0
    0.4250   -2.4600   -0.5620 O   0  0  0  0  0  0  0  0  0  0  0  0
    1.4990   -1.5810   -0.6370 N   0  0  0  0  0  0  0  0  0  0  0  0
    1.5120   -0.3210   -0.7790 N   0  0  0  0  0  0  0  0  0  0  0  0
    2.7000    0.3630   -0.8300 O   0  0  0  0  0  0  0  0  0  0  0  0
    3.6380    0.3300    0.1620 N   0  0  0  0  0  0  0  0  0  0  0  0
    4.7050   -1.0140   -0.1600 Cl  0  0  0  0  0  0  0  0  0  0  0  0
    4.5760    1.7910    0.0390 Cl  0  0  0  0  0  0  0  0  0  0  0  0
    0.3870    0.4560   -0.8920 O   0  0  0  0  0  0  0  0  0  0  0  0
  2  1  1  1
  2  3  1  0
  2  5  1  0
  2 14  1  0
  3  4  1  0
  5  6  1  0
  6  7  1  0
  7  8  1  0
  8  9  2  0
  9 10  1  0
  9 14  1  0
 10 11  1  0
 11 12  1  0
 11 13  1  0
M  CHG  1   9   1
M  END
