
     RDKit          3D

 12 11  0  0  0  0  0  0  0  0999 V2000
   -2.7940   -0.8340   -0.6870 O   0  0  0  0  0  0  0  0  0  0  0  0
   -2.3370    0.0940    0.0240 C   0  0  0  0  0  0  0  0  0  0  0  0
   -3.1880    1.1900    0.2270 O   0  0  0  0  0  0  0  0  0  0  0  0
   -1.0560    0.0980    0.6130 N   0  0  0  0  0  0  0  0  0  0  0  0
   -0.0190   -0.4450    0.0710 C   0  0  0  0  0  0  0  0  0  0  0  0
   -0.2270   -1.0590   -1.1720 O   0  0  0  0  0  0  0  0  0  0  0  0
    1.3170   -0.4260    0.7120 C   0  0  1  0  0  0  0  0  0  0  0  0
    1.1660    0.4340    2.2520 Cl  0  0  0  0  0  0  0  0  0  0  0  0
    1.7270   -2.1290    1.0910 Cl  0  0  0  0  0  0  0  0  0  0  0  0
    2.2310    0.1470   -0.1460 O   0  0  0  0  0  0  0  0  0  0  0  0
    3.4330    0.2120    0.3210 O   0  0  0  0  0  0  0  0  0  0  0  0
    4.4950    0.5230   -0.9800 Cl  0  0  0  0  0  0  0  0  0  0  0  0
  1  2  2  0
  2  3  1  0
  2  4  1  0
  4  5  2  3
  5  6  1  0
  5  7  1  0
  7  8  1  1
  7  9  1  0
  7 10  1  0
 10 11  1  0
 11 12  1  0
M  END
