
     RDKit          3D

 12 11  0  0  0  0  0  0  0  0999 V2000
    0.2750   -1.6940   -0.2030 N   0  0  0  0  0  0  0  0  0  0  0  0
   -0.1340   -0.3010   -0.0240 C   0  0  2  0  0  0  0  0  0  0  0  0
    0.7260    0.2490    0.9300 O   0  0  0  0  0  0  0  0  0  0  0  0
    1.3190    1.2880    0.3600 O   0  0  0  0  0  0  0  0  0  0  0  0
    2.5840    1.2570    0.7260 O   0  0  0  0  0  0  0  0  0  0  0  0
    3.3240    0.5170   -0.0560 O   0  0  0  0  0  0  0  0  0  0  0  0
   -1.5610   -0.3230    0.4560 C   0  0  1  0  0  0  0  0  0  0  0  0
   -2.5340   -1.1370   -0.7930 Cl  0  0  0  0  0  0  0  0  0  0  0  0
   -1.6010   -1.2570    1.9710 Cl  0  0  0  0  0  0  0  0  0  0  0  0
   -2.0170    1.0640    0.6630 C   0  0  0  0  0  0  0  0  0  0  0  0
   -2.3840    1.4150    1.7670 O   0  0  0  0  0  0  0  0  0  0  0  0
   -2.0310    2.1890   -0.6610 Cl  0  0  0  0  0  0  0  0  0  0  0  0
  2  1  1  1
  2  3  1  0
  2  7  1  0
  3  4  1  0
  4  5  1  0
  5  6  1  0
  7  8  1  6
  7  9  1  0
  7 10  1  0
 10 11  2  0
 10 12  1  0
M  END
