
     RDKit          3D

 13 13  0  0  0  0  0  0  0  0999 V2000
   -0.6430   -2.2260   -0.6320 O   0  0  0  0  0  0  0  0  0  0  0  0
   -1.1010   -1.1560   -0.1110 C   0  0  0  0  0  0  0  0  0  0  0  0
   -2.4880   -0.9490    0.0070 O   0  0  0  0  0  0  0  0  0  0  0  0
   -2.7140    0.3270    0.3810 O   0  0  0  0  0  0  0  0  0  0  0  0
   -1.5280    1.0060    0.5260 C   0  0  0  0  0  0  0  0  0  0  0  0
   -1.4390    2.2440    0.6940 O   0  0  0  0  0  0  0  0  0  0  0  0
   -0.4150    0.0110    0.4450 C   0  0  1  0  0  0  0  0  0  0  0  0
   -0.0500   -0.3810    2.1530 Cl  0  0  0  0  0  0  0  0  0  0  0  0
    0.6370    0.5960   -0.2400 N   0  0  0  0  0  0  0  0  0  0  0  0
    1.8570   -0.0420   -0.4830 C   0  0  2  0  0  0  0  0  0  0  0  0
    1.8310   -1.4650   -1.5340 Cl  0  0  0  0  0  0  0  0  0  0  0  0
    2.7360   -0.5080    0.9900 Cl  0  0  0  0  0  0  0  0  0  0  0  0
    2.9240    1.1580   -1.3110 Cl  0  0  0  0  0  0  0  0  0  0  0  0
  1  2  2  0
  2  3  1  0
  2  7  1  0
  3  4  1  0
  4  5  1  0
  5  6  2  0
  5  7  1  0
  7  8  1  1
  7  9  1  0
  9 10  1  0
 10 11  1  6
 10 12  1  0
 10 13  1  0
M  END
