
     RDKit          3D

 13 14  0  0  0  0  0  0  0  0999 V2000
   -3.9820    0.7650   -0.0720 N   0  0  0  0  0  0  0  0  0  0  0  0
   -2.8340   -0.0790    0.0530 C   0  0  0  0  0  0  0  0  0  0  0  0
   -1.5460    0.7090    0.3130 C   0  0  0  0  0  0  0  0  0  0  0  0
   -0.4460   -0.2880    0.3970 C   0  0  0  0  0  0  0  0  0  0  0  0
   -0.4940   -1.6170    0.7290 C   0  0  0  0  0  0  0  0  0  0  0  0
    0.7240   -2.1830    0.6710 N   0  0  0  0  0  0  0  0  0  0  0  0
    1.5660   -1.2030    0.2970 C   0  0  0  0  0  0  0  0  0  0  0  0
    2.9310   -1.2210    0.0850 C   0  0  0  0  0  0  0  0  0  0  0  0
    3.5650   -0.0540   -0.2980 C   0  0  0  0  0  0  0  0  0  0  0  0
    2.8780    1.1210   -0.4740 C   0  0  0  0  0  0  0  0  0  0  0  0
    3.5440    2.2860   -0.8620 O   0  0  0  0  0  0  0  0  0  0  0  0
    1.5350    1.1560   -0.2700 C   0  0  0  0  0  0  0  0  0  0  0  0
    0.8890   -0.0200    0.1170 C   0  0  0  0  0  0  0  0  0  0  0  0
  1  2  1  0
  2  3  1  0
  3  4  1  0
  4  5  2  0
  4 13  1  0
  5  6  1  0
  6  7  1  0
  7  8  2  0
  7 13  1  0
  8  9  1  0
  9 10  2  0
 10 11  1  0
 10 12  1  0
 12 13  2  0
M  CHG  1   1   1
M  END
