
     RDKit          3D

  8  8  0  0  0  0  0  0  0  0999 V2000
    0.1330    1.5470    0.7010 C   0  0  0  0  0  0  0  0  0  0  0  0
    0.0930    0.2000    0.0930 C   0  0  0  0  0  0  0  0  0  0  0  0
   -1.0450   -0.4070   -0.2870 C   0  0  0  0  0  0  0  0  0  0  0  0
   -2.3610    0.1010   -0.1850 N   0  0  0  0  0  0  0  0  0  0  0  0
   -0.6240   -1.7060   -0.8290 C   0  0  0  0  0  0  0  0  0  0  0  0
    0.6500   -1.8400   -0.7670 N   0  0  0  0  0  0  0  0  0  0  0  0
    1.2170   -0.6800   -0.1940 C   0  0  0  0  0  0  0  0  0  0  0  0
    2.4610   -0.4080    0.0470 N   0  0  0  0  0  0  0  0  0  0  0  0
  1  2  1  0
  2  3  2  0
  2  7  1  0
  3  4  1  0
  3  5  1  0
  5  6  2  0
  6  7  1  0
  7  8  2  0
M  CHG  1   8   1
M  END
