
     RDKit          3D

  8  8  0  0  0  0  0  0  0  0999 V2000
    2.3520   -1.0290   -0.2760 C   0  0  0  0  0  0  0  0  0  0  0  0
    1.0400   -0.3100   -0.0990 C   0  0  0  0  0  0  0  0  0  0  0  0
    1.0540    0.9860    0.1270 C   0  0  0  0  0  0  0  0  0  0  0  0
   -0.1590    1.8100    0.3190 C   0  0  0  0  0  0  0  0  0  0  0  0
   -1.3840    1.0500    0.2340 N   0  0  0  0  0  0  0  0  0  0  0  0
   -1.2930   -0.3460   -0.0130 C   0  0  0  0  0  0  0  0  0  0  0  0
   -2.5550   -1.0390   -0.0830 N   0  0  0  0  0  0  0  0  0  0  0  0
   -0.1930   -0.9950   -0.1690 N   0  0  0  0  0  0  0  0  0  0  0  0
  1  2  1  0
  2  3  2  0
  2  8  1  0
  3  4  1  0
  4  5  1  0
  5  6  1  0
  6  7  1  0
  6  8  2  0
M  CHG  1   8   1
M  END
