
     RDKit          3D

  8  7  0  0  0  0  0  0  0  0999 V2000
   -1.3790   -0.2340    1.9130 C   0  0  0  0  0  0  0  0  0  0  0  0
   -0.6020   -0.7950    1.0470 N   0  0  0  0  0  0  0  0  0  0  0  0
   -0.5440   -0.3930   -0.3020 C   0  0  0  0  0  0  0  0  0  0  0  0
   -1.7760   -0.3940   -1.1520 C   0  0  0  0  0  0  0  0  0  0  0  0
    0.5740    0.0000   -0.8860 C   0  0  0  0  0  0  0  0  0  0  0  0
    0.6710    0.4070   -2.2230 N   0  0  0  0  0  0  0  0  0  0  0  0
    1.7530    0.0080   -0.0940 N   0  0  0  0  0  0  0  0  0  0  0  0
    1.7180    0.7210    1.1590 C   0  0  0  0  0  0  0  0  0  0  0  0
  1  2  2  0
  2  3  1  0
  3  4  1  0
  3  5  2  3
  5  6  1  0
  5  7  1  0
  7  8  1  0
M  CHG  1   2   1
M  END
