
     RDKit          3D

  8  8  0  0  0  0  0  0  0  0999 V2000
   -0.6570    1.7290    0.5870 C   0  0  0  0  0  0  0  0  0  0  0  0
   -0.7380    0.3630    0.1370 N   0  0  0  0  0  0  0  0  0  0  0  0
   -1.8090   -0.6010    0.3010 C   0  0  0  0  0  0  0  0  0  0  0  0
   -1.6850   -1.3830   -1.0090 C   0  0  0  0  0  0  0  0  0  0  0  0
   -0.2750   -1.3300   -1.2360 N   0  0  0  0  0  0  0  0  0  0  0  0
    0.2750   -0.3520   -0.5980 C   0  0  0  0  0  0  0  0  0  0  0  0
    1.7070   -0.0090   -0.6110 C   0  0  0  0  0  0  0  0  0  0  0  0
    2.3110   -0.0540    0.6960 N   0  0  0  0  0  0  0  0  0  0  0  0
  1  2  1  0
  2  3  1  0
  2  6  1  0
  3  4  1  0
  4  5  1  0
  5  6  2  0
  6  7  1  0
  7  8  1  0
M  CHG  1   8   1
M  END
