
     RDKit          3D

 21 21  0  0  0  0  0  0  0  0999 V2000
    4.8810   -1.0620    0.5130 N   0  0  0  0  0  0  0  0  0  0  0  0
    3.6440   -0.3690    0.4890 C   0  0  0  0  0  0  0  0  0  0  0  0
    3.1260   -0.0720    1.6130 O   0  0  0  0  0  0  0  0  0  0  0  0
    3.0310   -0.0320   -0.7430 N   0  0  0  0  0  0  0  0  0  0  0  0
    1.7660    0.6700   -0.6900 C   0  0  0  0  0  0  0  0  0  0  0  0
    1.7830    1.9100   -1.0760 C   0  0  0  0  0  0  0  0  0  0  0  0
    0.7200    2.9020   -1.1560 C   0  0  0  0  0  0  0  0  0  0  0  0
   -0.8470    2.2700   -0.6070 S   0  0  0  0  0  0  0  0  0  0  0  0
   -0.5680    0.5420   -0.1360 C   0  0  0  0  0  0  0  0  0  0  0  0
   -1.7740   -0.0910    0.4240 C   0  0  0  0  0  0  0  0  0  0  0  0
   -1.7780   -1.2650    0.9010 O   0  0  0  0  0  0  0  0  0  0  0  0
   -3.0060    0.5360    0.4780 O   0  0  0  0  0  0  0  0  0  0  0  0
   -4.2110    0.0710    0.9630 C   0  0  0  0  0  0  0  0  0  0  0  0
   -4.8100   -1.1190    0.3020 C   0  0  1  0  0  0  0  0  0  0  0  0
   -5.0600   -0.9110   -1.0420 F   0  0  0  0  0  0  0  0  0  0  0  0
   -4.0680   -2.2390    0.5670 F   0  0  0  0  0  0  0  0  0  0  0  0
    0.5850   -0.0550   -0.2110 C   0  0  0  0  0  0  0  0  0  0  0  0
    0.6770   -1.5230    0.1210 C   0  0  2  0  0  0  0  0  0  0  0  0
    0.6810   -1.8070    1.4330 F   0  0  0  0  0  0  0  0  0  0  0  0
    1.9030   -2.0170   -0.3870 F   0  0  0  0  0  0  0  0  0  0  0  0
   -0.2560   -2.2600   -0.6300 F   0  0  0  0  0  0  0  0  0  0  0  0
  1  2  1  0
  2  3  2  0
  2  4  1  0
  4  5  1  0
  5  6  2  0
  5 17  1  0
  6  7  1  0
  7  8  1  0
  8  9  1  0
  9 10  1  0
  9 17  2  0
 10 11  2  0
 10 12  1  0
 12 13  1  0
 13 14  1  0
 14 15  1  6
 14 16  1  0
 17 18  1  0
 18 19  1  1
 18 20  1  0
 18 21  1  0
M  END
