
     RDKit          3D

  8  8  0  0  0  0  0  0  0  0999 V2000
    2.7940   -0.5180   -0.0960 N   0  0  0  0  0  0  0  0  0  0  0  0
    1.4510   -0.0710   -0.0470 C   0  0  0  0  0  0  0  0  0  0  0  0
    0.4260   -0.9080   -0.0450 C   0  0  0  0  0  0  0  0  0  0  0  0
   -0.9140   -0.4770    0.0040 N   0  0  0  0  0  0  0  0  0  0  0  0
   -1.9950   -1.3780    0.0050 N   0  0  0  0  0  0  0  0  0  0  0  0
   -1.2370    0.9220    0.0560 C   0  0  0  0  0  0  0  0  0  0  0  0
   -0.0490    1.7790    0.0500 C   0  0  0  0  0  0  0  0  0  0  0  0
    1.2020    1.3460    0.0040 C   0  0  0  0  0  0  0  0  0  0  0  0
  1  2  1  0
  2  3  2  0
  2  8  1  0
  3  4  1  0
  4  5  1  0
  4  6  1  0
  6  7  1  0
  7  8  2  0
M  CHG  1   5   1
M  END
