
     RDKit          3D

  8  8  0  0  0  0  0  0  0  0999 V2000
   -2.8720    0.1260    0.1070 N   0  0  0  0  0  0  0  0  0  0  0  0
   -1.5080    0.2130    0.5810 C   0  0  0  0  0  0  0  0  0  0  0  0
   -0.5660   -0.0060   -0.5780 C   0  0  0  0  0  0  0  0  0  0  0  0
    0.8590    0.0690   -0.1610 C   0  0  0  0  0  0  0  0  0  0  0  0
    1.6610    1.1610   -0.1230 N   0  0  0  0  0  0  0  0  0  0  0  0
    2.8840    0.8380    0.3080 C   0  0  0  0  0  0  0  0  0  0  0  0
    2.8710   -0.5170    0.5590 C   0  0  0  0  0  0  0  0  0  0  0  0
    1.6290   -0.9470    0.2640 N   0  0  0  0  0  0  0  0  0  0  0  0
  1  2  1  0
  2  3  1  0
  3  4  1  0
  4  5  2  0
  4  8  1  0
  5  6  1  0
  6  7  2  0
  7  8  1  0
M  CHG  1   1   1
M  END
