
     RDKit          3D

  8  8  0  0  0  0  0  0  0  0999 V2000
   -1.8190    0.1220    1.0060 N   0  0  0  0  0  0  0  0  0  0  0  0
   -1.6290   -0.4230   -0.3110 C   0  0  0  0  0  0  0  0  0  0  0  0
   -0.5440    0.2900   -1.0880 C   0  0  0  0  0  0  0  0  0  0  0  0
    0.7670    0.2030   -0.3990 C   0  0  0  0  0  0  0  0  0  0  0  0
    1.2510    1.0960    0.5210 C   0  0  0  0  0  0  0  0  0  0  0  0
    2.4500    0.6550    0.8900 N   0  0  0  0  0  0  0  0  0  0  0  0
    2.7410   -0.4820    0.2390 C   0  0  0  0  0  0  0  0  0  0  0  0
    1.6930   -0.7430   -0.5500 N   0  0  0  0  0  0  0  0  0  0  0  0
  1  2  1  0
  2  3  1  0
  3  4  1  0
  4  5  2  0
  4  8  1  0
  5  6  1  0
  6  7  2  0
  7  8  1  0
M  CHG  1   1   1
M  END
