
     RDKit          3D

  8  8  0  0  0  0  0  0  0  0999 V2000
   -1.3290    1.6750   -0.3910 C   0  0  0  0  0  0  0  0  0  0  0  0
   -0.3510    0.5900   -0.1440 C   0  0  0  0  0  0  0  0  0  0  0  0
    0.9600    0.6900   -0.2210 C   0  0  0  0  0  0  0  0  0  0  0  0
    1.5570   -0.6120    0.0980 C   0  0  0  0  0  0  0  0  0  0  0  0
    2.8050   -0.9040    0.1260 N   0  0  0  0  0  0  0  0  0  0  0  0
    0.4460   -1.4630    0.3640 N   0  0  0  0  0  0  0  0  0  0  0  0
   -0.6420   -0.7710    0.2240 C   0  0  0  0  0  0  0  0  0  0  0  0
   -1.9300   -1.3770    0.4330 N   0  0  0  0  0  0  0  0  0  0  0  0
  1  2  1  0
  2  3  2  0
  2  7  1  0
  3  4  1  0
  4  5  2  0
  4  6  1  0
  6  7  2  0
  7  8  1  0
M  CHG  1   5   1
M  END
