
     RDKit          3D

 11 11  0  0  0  0  0  0  0  0999 V2000
    3.0830   -0.9040    0.0710 C   0  0  0  0  0  0  0  0  0  0  0  0
    2.3800    0.3490   -0.4270 C   0  0  0  0  0  0  0  0  0  0  0  0
    0.9640    0.4440    0.1440 C   0  0  1  0  0  0  0  0  0  0  0  0
    1.1140    0.4840    1.5300 O   0  0  0  0  0  0  0  0  0  0  0  0
    0.3270    1.6670   -0.4100 C   0  0  0  0  0  0  0  0  0  0  0  0
   -0.9940    1.4290   -1.0700 C   0  0  0  0  0  0  0  0  0  0  0  0
   -2.0550    1.1770   -0.0650 C   0  0  0  0  0  0  0  0  0  0  0  0
   -1.9010    0.0810    0.8770 C   0  0  0  0  0  0  0  0  0  0  0  0
   -1.0000   -1.0510    0.6020 C   0  0  1  0  0  0  0  0  0  0  0  0
   -1.7470   -2.1300   -0.0730 N   0  0  0  0  0  0  0  0  0  0  0  0
    0.2240   -0.8200   -0.1870 C   0  0  0  0  0  0  0  0  0  0  0  0
  1  2  1  0
  2  3  1  0
  3  4  1  1
  3  5  1  0
  3 11  1  0
  5  6  1  0
  6  7  1  0
  7  8  1  0
  8  9  1  0
  9 10  1  6
  9 11  1  0
M  CHG  1  10   1
M  END
