
     RDKit          3D

 11 11  0  0  0  0  0  0  0  0999 V2000
   -2.1760    0.5010    1.4270 C   0  0  0  0  0  0  0  0  0  0  0  0
   -1.3100    0.5080    0.1580 C   0  0  2  0  0  0  0  0  0  0  0  0
   -1.3320    1.8850   -0.3900 C   0  0  0  0  0  0  0  0  0  0  0  0
   -2.0580   -0.3950   -0.8240 C   0  0  0  0  0  0  0  0  0  0  0  0
   -1.4060   -1.7330   -0.7230 C   0  0  0  0  0  0  0  0  0  0  0  0
   -0.0090   -1.4640   -0.2870 C   0  0  0  0  0  0  0  0  0  0  0  0
   -0.0280   -0.1130    0.4440 C   0  0  2  0  0  0  0  0  0  0  0  0
    0.1080   -0.4100    1.8050 O   0  0  0  0  0  0  0  0  0  0  0  0
    1.2130    0.6050    0.0240 C   0  0  0  0  0  0  0  0  0  0  0  0
    2.3990   -0.2680    0.4460 C   0  0  0  0  0  0  0  0  0  0  0  0
    3.6600    0.3580    0.0740 N   0  0  0  0  0  0  0  0  0  0  0  0
  2  1  1  1
  2  3  1  0
  2  4  1  0
  2  7  1  0
  4  5  1  0
  5  6  1  0
  6  7  1  0
  7  8  1  1
  7  9  1  0
  9 10  1  0
 10 11  1  0
M  CHG  1  11   1
M  END
