
     RDKit          3D

 11 11  0  0  0  0  0  0  0  0999 V2000
    2.3140   -1.1930    1.2450 C   0  0  0  0  0  0  0  0  0  0  0  0
    1.9150   -1.0260   -0.2270 C   0  0  0  0  0  0  0  0  0  0  0  0
    1.5860    0.3760   -0.5580 C   0  0  2  0  0  0  0  0  0  0  0  0
    2.7280    1.2700   -0.3200 N   0  0  0  0  0  0  0  0  0  0  0  0
    0.3570    0.9490    0.0550 C   0  0  0  0  0  0  0  0  0  0  0  0
   -0.8900    0.2410   -0.3300 C   0  0  1  0  0  0  0  0  0  0  0  0
   -1.0610    0.2470   -1.7360 O   0  0  0  0  0  0  0  0  0  0  0  0
   -1.1850   -1.0680    0.2950 C   0  0  0  0  0  0  0  0  0  0  0  0
   -2.6070   -1.0150    0.8770 C   0  0  0  0  0  0  0  0  0  0  0  0
   -3.2030    0.0670   -0.0340 C   0  0  0  0  0  0  0  0  0  0  0  0
   -2.1140    1.1060    0.1500 C   0  0  0  0  0  0  0  0  0  0  0  0
  1  2  1  0
  2  3  1  0
  3  4  1  1
  3  5  1  0
  5  6  1  0
  6  7  1  6
  6  8  1  0
  6 11  1  0
  8  9  1  0
  9 10  1  0
 10 11  1  0
M  CHG  1   4   1
M  END
