
     RDKit          3D

 11 11  0  0  0  0  0  0  0  0999 V2000
    2.9110    0.6650   -1.3730 C   0  0  0  0  0  0  0  0  0  0  0  0
    2.7000    0.3260    0.0880 C   0  0  2  0  0  0  0  0  0  0  0  0
    3.8290   -0.5200    0.6230 C   0  0  0  0  0  0  0  0  0  0  0  0
    1.3760   -0.4370    0.2210 C   0  0  0  0  0  0  0  0  0  0  0  0
    0.3730    0.4400   -0.2650 O   0  0  0  0  0  0  0  0  0  0  0  0
   -0.9700    0.0960   -0.3030 C   0  0  0  0  0  0  0  0  0  0  0  0
   -1.8000    0.0220    0.7200 C   0  0  0  0  0  0  0  0  0  0  0  0
   -3.1430   -0.3780    0.2590 C   0  0  1  0  0  0  0  0  0  0  0  0
   -4.1210    0.6990    0.4780 N   0  0  0  0  0  0  0  0  0  0  0  0
   -2.9780   -0.5270   -1.1950 C   0  0  0  0  0  0  0  0  0  0  0  0
   -1.7240   -0.2480   -1.4810 C   0  0  0  0  0  0  0  0  0  0  0  0
  2  1  1  6
  2  3  1  0
  2  4  1  0
  4  5  1  0
  5  6  1  0
  6  7  2  0
  6 11  1  0
  7  8  1  0
  8  9  1  6
  8 10  1  0
 10 11  2  0
M  CHG  1   9   1
M  END
