
     RDKit          3D

 11 11  0  0  0  0  0  0  0  0999 V2000
    3.0710    0.7590   -0.5850 C   0  0  0  0  0  0  0  0  0  0  0  0
    2.5490   -0.6160   -0.3300 C   0  0  0  0  0  0  0  0  0  0  0  0
    1.2890   -0.7560    0.4150 C   0  0  0  0  0  0  0  0  0  0  0  0
    0.0340   -0.1900   -0.1560 C   0  0  2  0  0  0  0  0  0  0  0  0
   -0.1420   -0.8180   -1.4180 O   0  0  0  0  0  0  0  0  0  0  0  0
    0.0880    1.2620   -0.3500 C   0  0  0  0  0  0  0  0  0  0  0  0
   -1.2130    1.9730    0.0190 C   0  0  0  0  0  0  0  0  0  0  0  0
   -2.4030    1.1590   -0.3460 C   0  0  0  0  0  0  0  0  0  0  0  0
   -2.4230   -0.1470    0.4020 C   0  0  0  0  0  0  0  0  0  0  0  0
   -1.0780   -0.6480    0.7790 C   0  0  1  0  0  0  0  0  0  0  0  0
   -1.1230   -2.0930    0.7930 N   0  0  0  0  0  0  0  0  0  0  0  0
  1  2  1  0
  2  3  1  0
  3  4  1  0
  4  5  1  6
  4  6  1  0
  4 10  1  0
  6  7  1  0
  7  8  1  0
  8  9  1  0
  9 10  1  0
 10 11  1  6
M  CHG  1  11   1
M  END
