
     RDKit          3D

 11 11  0  0  0  0  0  0  0  0999 V2000
   -3.2370    0.5280    0.4660 C   0  0  0  0  0  0  0  0  0  0  0  0
   -1.9150   -0.1770    0.2260 C   0  0  1  0  0  0  0  0  0  0  0  0
   -1.9460   -0.6120   -1.1800 N   0  0  0  0  0  0  0  0  0  0  0  0
   -0.8200    0.8060    0.3960 C   0  0  0  0  0  0  0  0  0  0  0  0
    0.5340    0.3250    0.2080 C   0  0  0  0  0  0  0  0  0  0  0  0
    1.3480   -0.1960    1.1820 C   0  0  0  0  0  0  0  0  0  0  0  0
    2.6110   -0.6330    0.9490 C   0  0  0  0  0  0  0  0  0  0  0  0
    3.1380   -0.5620   -0.3350 C   0  0  0  0  0  0  0  0  0  0  0  0
    4.4320   -1.0060   -0.5890 O   0  0  0  0  0  0  0  0  0  0  0  0
    2.3610   -0.0490   -1.3360 C   0  0  0  0  0  0  0  0  0  0  0  0
    1.0740    0.3900   -1.0750 C   0  0  0  0  0  0  0  0  0  0  0  0
  2  1  1  6
  2  3  1  0
  2  4  1  0
  4  5  1  0
  5  6  2  0
  5 11  1  0
  6  7  1  0
  7  8  2  0
  8  9  1  0
  8 10  1  0
 10 11  2  0
M  CHG  1   3   1
M  END
