
     RDKit          3D

 11 11  0  0  0  0  0  0  0  0999 V2000
   -1.4650   -2.6640   -0.2670 N   0  0  0  0  0  0  0  0  0  0  0  0
   -1.1100   -1.2960   -0.2710 C   0  0  0  0  0  0  0  0  0  0  0  0
   -2.1360   -0.4930   -0.4230 C   0  0  0  0  0  0  0  0  0  0  0  0
   -2.3790    0.9480   -0.5030 C   0  0  0  0  0  0  0  0  0  0  0  0
   -1.5500    1.9680   -0.3560 C   0  0  0  0  0  0  0  0  0  0  0  0
   -0.1310    2.1470   -0.0710 C   0  0  0  0  0  0  0  0  0  0  0  0
    0.9360    1.3840    0.0880 C   0  0  0  0  0  0  0  0  0  0  0  0
    1.1270   -0.0550    0.0380 C   0  0  0  0  0  0  0  0  0  0  0  0
    2.5640   -0.3960    0.1810 C   0  0  0  0  0  0  0  0  0  0  0  0
    3.2440    0.2080   -0.8700 O   0  0  0  0  0  0  0  0  0  0  0  0
    0.3250   -1.1190   -0.1030 C   0  0  0  0  0  0  0  0  0  0  0  0
  1  2  1  0
  2  3  2  0
  2 11  1  0
  3  4  1  0
  4  5  2  0
  5  6  1  0
  6  7  2  0
  7  8  1  0
  8  9  1  0
  8 11  2  0
  9 10  1  0
M  END
