
     RDKit          3D

 11 11  0  0  0  0  0  0  0  0999 V2000
   -2.7660    1.6310   -1.0220 C   0  0  0  0  0  0  0  0  0  0  0  0
   -1.8530    0.7460   -0.5860 C   0  0  0  0  0  0  0  0  0  0  0  0
   -0.4870    1.1630   -0.3460 C   0  0  0  0  0  0  0  0  0  0  0  0
    0.4610    0.3440    0.0820 C   0  0  0  0  0  0  0  0  0  0  0  0
    1.7920    0.8280    0.2970 C   0  0  0  0  0  0  0  0  0  0  0  0
    2.8610    0.2010    0.7100 C   0  0  0  0  0  0  0  0  0  0  0  0
    4.0770    0.9200    0.8420 O   0  0  0  0  0  0  0  0  0  0  0  0
    0.0590   -1.0250    0.3060 C   0  0  0  0  0  0  0  0  0  0  0  0
    0.9820   -2.0300    0.7720 N   0  0  0  0  0  0  0  0  0  0  0  0
   -1.1620   -1.4730    0.1090 C   0  0  0  0  0  0  0  0  0  0  0  0
   -2.2610   -0.6460   -0.3580 C   0  0  0  0  0  0  0  0  0  0  0  0
  1  2  2  0
  2  3  1  0
  2 11  1  0
  3  4  2  0
  4  5  1  0
  4  8  1  0
  5  6  2  3
  6  7  1  0
  8  9  1  0
  8 10  2  0
 10 11  1  0
M  END
