
     RDKit          3D

 12 12  0  0  0  0  0  0  0  0999 V2000
   -3.3920    1.2130    0.5110 C   0  0  0  0  0  0  0  0  0  0  0  0
   -2.8110    0.6220   -0.7440 C   0  0  0  0  0  0  0  0  0  0  0  0
   -1.6050   -0.2090   -0.5130 C   0  0  0  0  0  0  0  0  0  0  0  0
   -0.3340    0.2640   -0.8000 C   0  0  0  0  0  0  0  0  0  0  0  0
    0.8040   -0.4840   -0.5960 C   0  0  0  0  0  0  0  0  0  0  0  0
    2.1520    0.0610   -0.9160 C   0  0  0  0  0  0  0  0  0  0  0  0
    2.6970    0.7500    0.3170 C   0  0  0  0  0  0  0  0  0  0  0  0
    4.0140    1.2720   -0.0420 N   0  0  0  0  0  0  0  0  0  0  0  0
    0.6120   -1.7510   -0.0860 C   0  0  0  0  0  0  0  0  0  0  0  0
   -0.6030   -2.2810    0.2180 C   0  0  0  0  0  0  0  0  0  0  0  0
   -1.7310   -1.4830   -0.0050 C   0  0  0  0  0  0  0  0  0  0  0  0
   -3.0000   -1.9710    0.2860 O   0  0  0  0  0  0  0  0  0  0  0  0
  1  2  1  0
  2  3  1  0
  3  4  2  0
  3 11  1  0
  4  5  1  0
  5  6  1  0
  5  9  2  0
  6  7  1  0
  7  8  1  0
  9 10  1  0
 10 11  2  0
 11 12  1  0
M  CHG  1   8   1
M  END
