
     RDKit          3D

 12 12  0  0  0  0  0  0  0  0999 V2000
    5.0290    0.4760   -0.7750 C   0  0  0  0  0  0  0  0  0  0  0  0
    3.9510   -0.3630   -0.1190 C   0  0  0  0  0  0  0  0  0  0  0  0
    2.6090    0.2110   -0.5050 C   0  0  0  0  0  0  0  0  0  0  0  0
    1.6220   -0.5680    0.1040 O   0  0  0  0  0  0  0  0  0  0  0  0
    0.3410   -0.1000   -0.2050 C   0  0  1  0  0  0  0  0  0  0  0  0
   -0.4460   -1.1590   -0.9150 C   0  0  0  0  0  0  0  0  0  0  0  0
   -1.8700   -1.2590   -0.4910 C   0  0  0  0  0  0  0  0  0  0  0  0
   -2.4870    0.0320   -0.0610 C   0  0  2  0  0  0  0  0  0  0  0  0
   -3.8520   -0.3050    0.5520 C   0  0  0  0  0  0  0  0  0  0  0  0
   -2.7860    0.9010   -1.2080 N   0  0  0  0  0  0  0  0  0  0  0  0
   -1.7020    0.7810    0.9610 C   0  0  0  0  0  0  0  0  0  0  0  0
   -0.2880    0.3300    1.1030 C   0  0  0  0  0  0  0  0  0  0  0  0
  1  2  1  0
  2  3  1  0
  3  4  1  0
  5  4  1  1
  5  6  1  0
  5 12  1  0
  6  7  1  0
  7  8  1  0
  8  9  1  1
  8 10  1  0
  8 11  1  0
 11 12  1  0
M  CHG  1  10   1
M  END
