
     RDKit          3D

 12 12  0  0  0  0  0  0  0  0999 V2000
    4.4010    0.3310   -0.0450 C   0  0  0  0  0  0  0  0  0  0  0  0
    3.1410   -0.4070    0.3610 C   0  0  0  0  0  0  0  0  0  0  0  0
    1.9820    0.3890   -0.1180 C   0  0  0  0  0  0  0  0  0  0  0  0
    0.6430   -0.1810    0.1900 C   0  0  2  0  0  0  0  0  0  0  0  0
    0.4270   -1.5490   -0.4110 C   0  0  0  0  0  0  0  0  0  0  0  0
   -0.9300   -2.0700   -0.1010 C   0  0  0  0  0  0  0  0  0  0  0  0
   -1.9370   -0.9630    0.2090 C   0  0  0  0  0  0  0  0  0  0  0  0
   -1.6560    0.1480   -0.7530 C   0  0  1  0  0  0  0  0  0  0  0  0
   -1.4650   -0.3970   -2.0300 O   0  0  0  0  0  0  0  0  0  0  0  0
   -2.7410    1.1660   -0.8480 C   0  0  0  0  0  0  0  0  0  0  0  0
   -3.0510    1.8150    0.3890 N   0  0  0  0  0  0  0  0  0  0  0  0
   -0.3790    0.8230   -0.3250 C   0  0  0  0  0  0  0  0  0  0  0  0
  1  2  1  0
  2  3  1  0
  4  3  1  6
  4  5  1  0
  4 12  1  0
  5  6  1  0
  6  7  1  0
  7  8  1  0
  8  9  1  6
  8 10  1  0
  8 12  1  0
 10 11  1  0
M  CHG  1  11   1
M  END
