
     RDKit          3D

 12 12  0  0  0  0  0  0  0  0999 V2000
    1.3010    2.8950   -0.9400 C   0  0  0  0  0  0  0  0  0  0  0  0
    2.1350    1.8820   -1.0600 C   0  0  0  0  0  0  0  0  0  0  0  0
    2.0270    0.6540   -0.2610 C   0  0  0  0  0  0  0  0  0  0  0  0
    2.8860   -0.3370   -0.4080 C   0  0  0  0  0  0  0  0  0  0  0  0
    2.8700   -1.5470    0.3040 N   0  0  0  0  0  0  0  0  0  0  0  0
    0.9760    0.6120    0.6430 O   0  0  0  0  0  0  0  0  0  0  0  0
   -0.3120    0.2220    0.3190 C   0  0  1  0  0  0  0  0  0  0  0  0
   -0.4580   -1.1920   -0.2010 C   0  0  0  0  0  0  0  0  0  0  0  0
   -1.8920   -1.6510   -0.1670 C   0  0  0  0  0  0  0  0  0  0  0  0
   -2.8800   -0.5340   -0.1810 C   0  0  0  0  0  0  0  0  0  0  0  0
   -2.6610    0.5730    0.7730 C   0  0  0  0  0  0  0  0  0  0  0  0
   -1.3100    0.4390    1.4350 C   0  0  0  0  0  0  0  0  0  0  0  0
  1  2  2  0
  2  3  1  0
  3  4  2  3
  3  6  1  0
  4  5  1  0
  7  6  1  1
  7  8  1  0
  7 12  1  0
  8  9  1  0
  9 10  1  0
 10 11  1  0
 11 12  1  0
M  CHG  1   5   1
M  END
