
     RDKit          3D

 12 12  0  0  0  0  0  0  0  0999 V2000
   -0.9870   -2.4540   -0.8150 C   0  0  0  0  0  0  0  0  0  0  0  0
   -1.6130   -1.3050   -0.1440 C   0  0  0  0  0  0  0  0  0  0  0  0
   -2.9910   -1.5460    0.4170 C   0  0  0  0  0  0  0  0  0  0  0  0
   -1.1140   -0.1060    0.0340 C   0  0  0  0  0  0  0  0  0  0  0  0
   -1.8370    0.9140    0.7010 O   0  0  0  0  0  0  0  0  0  0  0  0
   -1.6270    2.2780    0.3130 C   0  0  0  0  0  0  0  0  0  0  0  0
   -0.1760    2.5860    0.0830 C   0  0  0  0  0  0  0  0  0  0  0  0
    0.3580    1.6420   -0.9880 C   0  0  0  0  0  0  0  0  0  0  0  0
    0.2190    0.2800   -0.4330 C   0  0  0  0  0  0  0  0  0  0  0  0
    1.2230   -0.5450   -0.3270 C   0  0  0  0  0  0  0  0  0  0  0  0
    2.5990   -0.3060   -0.7480 C   0  0  0  0  0  0  0  0  0  0  0  0
    3.5370   -0.3900    0.3690 N   0  0  0  0  0  0  0  0  0  0  0  0
  1  2  1  0
  2  3  1  0
  2  4  2  3
  4  5  1  0
  4  9  1  0
  5  6  1  0
  6  7  1  0
  7  8  1  0
  8  9  1  0
  9 10  2  3
 10 11  1  0
 11 12  1  0
M  CHG  1  12   1
M  END
