
     RDKit          3D

 11 11  0  0  0  0  0  0  0  0999 V2000
   -4.0060    0.3380    0.2710 N   0  0  0  0  0  0  0  0  0  0  0  0
   -2.6740    0.8790    0.3760 C   0  0  0  0  0  0  0  0  0  0  0  0
   -1.7270   -0.1020    1.0040 C   0  0  2  0  0  0  0  0  0  0  0  0
   -0.3710    0.5100    1.0860 C   0  0  0  0  0  0  0  0  0  0  0  0
    0.3320    0.2120   -0.0050 C   0  0  0  0  0  0  0  0  0  0  0  0
    1.7300    0.6460   -0.2820 C   0  0  0  0  0  0  0  0  0  0  0  0
    2.6490   -0.5570   -0.4550 C   0  0  0  0  0  0  0  0  0  0  0  0
    4.0410   -0.0290   -0.7320 C   0  0  0  0  0  0  0  0  0  0  0  0
    4.4380    0.7470    0.3450 O   0  0  0  0  0  0  0  0  0  0  0  0
   -0.4880   -0.6240   -0.9140 C   0  0  0  0  0  0  0  0  0  0  0  0
   -1.4610   -1.2670    0.0540 C   0  0  0  0  0  0  0  0  0  0  0  0
  1  2  1  0
  3  2  1  6
  3  4  1  0
  3 11  1  0
  4  5  2  0
  5  6  1  0
  5 10  1  0
  6  7  1  0
  7  8  1  0
  8  9  1  0
 10 11  1  0
M  CHG  1   1   1
M  END
