
     RDKit          3D

 26 27  0  0  0  0  0  0  0  0999 V2000
    6.1020   -1.5760   -2.3820 C   0  0  0  0  0  0  0  0  0  0  0  0
    5.9180   -1.0690   -1.0680 O   0  0  0  0  0  0  0  0  0  0  0  0
    4.9130   -0.1630   -0.7630 C   0  0  0  0  0  0  0  0  0  0  0  0
    4.1730    0.1880   -1.7030 O   0  0  0  0  0  0  0  0  0  0  0  0
    4.7270    0.3570    0.5900 C   0  0  0  0  0  0  0  0  0  0  0  0
    3.5610    1.2640    0.7920 C   0  0  0  0  0  0  0  0  0  0  0  0
    2.2740    0.5600    0.5100 C   0  0  0  0  0  0  0  0  0  0  0  0
    1.1000    1.4790    0.7150 C   0  0  0  0  0  0  0  0  0  0  0  0
    1.3410    2.7240    0.8890 O   0  0  0  0  0  0  0  0  0  0  0  0
   -0.2450    1.0360    0.7250 N   0  0  0  0  0  0  0  0  0  0  0  0
   -1.2600    2.0030    1.0130 C   0  0  0  0  0  0  0  0  0  0  0  0
   -1.8380    2.7720   -0.1290 C   0  0  1  0  0  0  0  0  0  0  0  0
   -2.3660    1.9410   -1.2090 C   0  0  0  0  0  0  0  0  0  0  0  0
   -3.7850    1.4690   -1.0270 C   0  0  0  0  0  0  0  0  0  0  0  0
   -4.6460    2.6470   -0.5410 C   0  0  0  0  0  0  0  0  0  0  0  0
   -3.9750    3.1020    0.7370 C   0  0  0  0  0  0  0  0  0  0  0  0
   -2.7690    3.6450    0.4340 O   0  0  0  0  0  0  0  0  0  0  0  0
   -0.5140   -0.3240    0.5200 C   0  0  0  0  0  0  0  0  0  0  0  0
   -0.2040   -1.0270   -0.6040 C   0  0  0  0  0  0  0  0  0  0  0  0
   -0.4880   -2.3920   -0.7330 C   0  0  0  0  0  0  0  0  0  0  0  0
   -0.1550   -3.1660   -1.9500 C   0  0  0  0  0  0  0  0  0  0  0  0
   -1.1120   -3.0220    0.3480 C   0  0  0  0  0  0  0  0  0  0  0  0
   -1.4060   -4.3800    0.2440 O   0  0  0  0  0  0  0  0  0  0  0  0
   -1.4390   -2.3360    1.5000 C   0  0  0  0  0  0  0  0  0  0  0  0
   -2.1030   -3.0400    2.6290 C   0  0  0  0  0  0  0  0  0  0  0  0
   -1.1320   -1.0060    1.5580 C   0  0  0  0  0  0  0  0  0  0  0  0
  1  2  1  0
  2  3  1  0
  3  4  2  0
  3  5  1  0
  5  6  1  0
  6  7  1  0
  7  8  1  0
  8  9  2  0
  8 10  1  0
 10 11  1  0
 10 18  1  0
 12 11  1  1
 12 13  1  0
 12 17  1  0
 13 14  1  0
 14 15  1  0
 15 16  1  0
 16 17  1  0
 18 19  2  0
 18 26  1  0
 19 20  1  0
 20 21  1  0
 20 22  2  0
 22 23  1  0
 22 24  1  0
 24 25  1  0
 24 26  2  0
M  END
