
     RDKit          3D

 27 28  0  0  0  0  0  0  0  0999 V2000
    7.2870    0.3200    0.2190 C   0  0  0  0  0  0  0  0  0  0  0  0
    6.4390   -0.8010    0.7640 C   0  0  0  0  0  0  0  0  0  0  0  0
    5.0850   -0.5230    0.4600 O   0  0  0  0  0  0  0  0  0  0  0  0
    4.0740   -1.3940    0.8440 C   0  0  0  0  0  0  0  0  0  0  0  0
    4.4400   -2.4220    1.4660 O   0  0  0  0  0  0  0  0  0  0  0  0
    2.6700   -1.1500    0.5540 C   0  0  0  0  0  0  0  0  0  0  0  0
    2.1470   -0.1180   -0.0850 C   0  0  0  0  0  0  0  0  0  0  0  0
    2.8710    0.9480   -0.6060 O   0  0  0  0  0  0  0  0  0  0  0  0
    2.8980    2.2110   -0.0150 C   0  0  0  0  0  0  0  0  0  0  0  0
    3.4480    2.1110    1.3900 C   0  0  0  0  0  0  0  0  0  0  0  0
    0.6840   -0.2680   -0.1610 C   0  0  0  0  0  0  0  0  0  0  0  0
   -0.1370    0.5920   -0.7360 C   0  0  0  0  0  0  0  0  0  0  0  0
   -1.5620    0.4680   -0.8230 C   0  0  0  0  0  0  0  0  0  0  0  0
   -2.2160    1.3870   -1.4130 O   0  0  0  0  0  0  0  0  0  0  0  0
   -2.3430   -0.5880   -0.3130 N   0  0  0  0  0  0  0  0  0  0  0  0
   -3.7460   -0.6640   -0.4210 C   0  0  0  0  0  0  0  0  0  0  0  0
   -4.3060   -1.2220   -1.5430 C   0  0  0  0  0  0  0  0  0  0  0  0
   -3.4020   -1.7070   -2.6110 C   0  0  0  0  0  0  0  0  0  0  0  0
   -5.6920   -1.3280   -1.6730 C   0  0  0  0  0  0  0  0  0  0  0  0
   -6.5220   -0.8720   -0.6730 C   0  0  0  0  0  0  0  0  0  0  0  0
   -5.9460   -0.3160    0.4440 C   0  0  0  0  0  0  0  0  0  0  0  0
   -4.5530   -0.2080    0.5780 C   0  0  0  0  0  0  0  0  0  0  0  0
   -4.0000    0.4010    1.8080 C   0  0  0  0  0  0  0  0  0  0  0  0
   -3.5830    1.8160    1.5010 C   0  0  0  0  0  0  0  0  0  0  0  0
    0.4340   -1.4630    0.4850 O   0  0  0  0  0  0  0  0  0  0  0  0
    1.5950   -2.0500    0.9430 C   0  0  0  0  0  0  0  0  0  0  0  0
    1.6600   -3.1490    1.5700 O   0  0  0  0  0  0  0  0  0  0  0  0
  1  2  1  0
  2  3  1  0
  3  4  1  0
  4  5  2  0
  4  6  1  0
  6  7  2  0
  6 26  1  0
  7  8  1  0
  7 11  1  0
  8  9  1  0
  9 10  1  0
 11 12  2  3
 11 25  1  0
 12 13  1  0
 13 14  2  0
 13 15  1  0
 15 16  1  0
 16 17  2  0
 16 22  1  0
 17 18  1  0
 17 19  1  0
 19 20  2  0
 20 21  1  0
 21 22  2  0
 22 23  1  0
 23 24  1  0
 25 26  1  0
 26 27  2  0
M  END
