
     RDKit          3D

 27 28  0  0  0  0  0  0  0  0999 V2000
   -4.5070    4.2050   -0.7670 C   0  0  0  0  0  0  0  0  0  0  0  0
   -3.2290    3.5690   -0.6360 N   0  0  0  0  0  0  0  0  0  0  0  0
   -3.1070    2.1510   -0.2640 C   0  0  0  0  0  0  0  0  0  0  0  0
   -4.2250    1.6260   -0.0920 O   0  0  0  0  0  0  0  0  0  0  0  0
   -1.8170    1.5790   -0.1510 C   0  0  0  0  0  0  0  0  0  0  0  0
   -1.4680    0.2940    0.1790 C   0  0  0  0  0  0  0  0  0  0  0  0
   -2.4380   -0.6680    0.4630 C   0  0  0  0  0  0  0  0  0  0  0  0
   -2.5120   -1.9030    0.7910 C   0  0  0  0  0  0  0  0  0  0  0  0
   -1.3950   -2.8290    1.0010 C   0  0  0  0  0  0  0  0  0  0  0  0
   -3.8670   -2.5250    0.9980 C   0  0  0  0  0  0  0  0  0  0  0  0
   -4.1890   -3.7970    1.3480 C   0  0  0  0  0  0  0  0  0  0  0  0
   -5.5830   -3.8860    1.4120 C   0  0  0  0  0  0  0  0  0  0  0  0
   -6.0590   -2.7050    1.1090 O   0  0  0  0  0  0  0  0  0  0  0  0
   -5.0460   -1.8570    0.8520 C   0  0  0  0  0  0  0  0  0  0  0  0
   -0.0120    0.0650    0.1980 C   0  0  0  0  0  0  0  0  0  0  0  0
    0.5270   -0.9820    0.4610 O   0  0  0  0  0  0  0  0  0  0  0  0
    0.8450    1.1630   -0.1170 O   0  0  0  0  0  0  0  0  0  0  0  0
    2.2100    0.9250   -0.0930 C   0  0  0  0  0  0  0  0  0  0  0  0
    2.9730    1.0970    1.0480 C   0  0  0  0  0  0  0  0  0  0  0  0
    4.3270    0.8630    1.0810 C   0  0  0  0  0  0  0  0  0  0  0  0
    4.9780    0.4360   -0.0670 C   0  0  0  0  0  0  0  0  0  0  0  0
    6.3520    0.1990   -0.0310 O   0  0  0  0  0  0  0  0  0  0  0  0
    7.0710    0.3920    1.1570 C   0  0  0  0  0  0  0  0  0  0  0  0
    4.2530    0.2520   -1.2270 C   0  0  0  0  0  0  0  0  0  0  0  0
    4.9540   -0.1760   -2.3470 O   0  0  0  0  0  0  0  0  0  0  0  0
    4.2230   -0.3680   -3.5390 C   0  0  0  0  0  0  0  0  0  0  0  0
    2.8950    0.4950   -1.2310 C   0  0  0  0  0  0  0  0  0  0  0  0
  1  2  1  0
  2  3  1  0
  3  4  2  0
  3  5  1  0
  5  6  2  3
  6  7  1  0
  6 15  1  0
  7  8  2  3
  8  9  1  0
  8 10  1  0
 10 11  1  0
 10 14  2  0
 11 12  2  0
 12 13  1  0
 13 14  1  0
 15 16  2  0
 15 17  1  0
 17 18  1  0
 18 19  2  0
 18 27  1  0
 19 20  1  0
 20 21  2  0
 21 22  1  0
 21 24  1  0
 22 23  1  0
 24 25  1  0
 24 27  2  0
 25 26  1  0
M  END
