
     RDKit          3D

 27 28  0  0  0  0  0  0  0  0999 V2000
   -4.6140   -1.6490   -2.5080 C   0  0  0  0  0  0  0  0  0  0  0  0
   -4.9490   -0.4090   -1.7290 C   0  0  0  0  0  0  0  0  0  0  0  0
   -4.2270   -0.4240   -0.4050 C   0  0  0  0  0  0  0  0  0  0  0  0
   -4.7850   -0.7420    0.7610 N   0  0  0  0  0  0  0  0  0  0  0  0
   -3.9020   -0.6840    1.7720 C   0  0  0  0  0  0  0  0  0  0  0  0
   -4.1290   -0.9510    3.1810 C   0  0  0  0  0  0  0  0  0  0  0  0
   -3.2290   -0.8860    4.0420 O   0  0  0  0  0  0  0  0  0  0  0  0
   -5.4490   -1.2990    3.5470 O   0  0  0  0  0  0  0  0  0  0  0  0
   -2.6950   -0.2980    1.1830 C   0  0  0  0  0  0  0  0  0  0  0  0
   -2.8900   -0.1340   -0.1760 C   0  0  0  0  0  0  0  0  0  0  0  0
   -1.9480    0.2780   -1.1920 C   0  0  0  0  0  0  0  0  0  0  0  0
   -2.4010    0.4500   -2.3780 O   0  0  0  0  0  0  0  0  0  0  0  0
   -0.5310    0.5190   -0.9870 C   0  0  0  0  0  0  0  0  0  0  0  0
    0.2310   -0.2560   -0.1500 C   0  0  0  0  0  0  0  0  0  0  0  0
    1.5860   -0.0160    0.0240 C   0  0  0  0  0  0  0  0  0  0  0  0
    2.3940   -0.8400    0.9260 C   0  0  0  0  0  0  0  0  0  0  0  0
    1.8880   -1.7870    1.5510 O   0  0  0  0  0  0  0  0  0  0  0  0
    3.7210   -0.5940    1.1070 O   0  0  0  0  0  0  0  0  0  0  0  0
    4.6290   -1.2580    1.9090 C   0  0  1  0  0  0  0  0  0  0  0  0
    5.6970   -1.8810    1.0360 C   0  0  0  0  0  0  0  0  0  0  0  0
    5.2940   -0.3740    2.9380 C   0  0  0  0  0  0  0  0  0  0  0  0
    2.1380    1.0370   -0.6820 C   0  0  0  0  0  0  0  0  0  0  0  0
    3.5780    1.3420   -0.5440 C   0  0  0  0  0  0  0  0  0  0  0  0
    1.3720    1.8260   -1.5320 C   0  0  0  0  0  0  0  0  0  0  0  0
    0.0580    1.5810   -1.6910 C   0  0  0  0  0  0  0  0  0  0  0  0
   -0.7820    2.3320   -2.5290 O   0  0  0  0  0  0  0  0  0  0  0  0
   -0.2020    3.4050   -3.2440 C   0  0  0  0  0  0  0  0  0  0  0  0
  1  2  1  0
  2  3  1  0
  3  4  1  0
  3 10  2  0
  4  5  1  0
  5  6  1  0
  5  9  2  0
  6  7  2  0
  6  8  1  0
  9 10  1  0
 10 11  1  0
 11 12  2  0
 11 13  1  0
 13 14  2  0
 13 25  1  0
 14 15  1  0
 15 16  1  0
 15 22  2  0
 16 17  2  0
 16 18  1  0
 18 19  1  0
 19 20  1  6
 19 21  1  0
 22 23  1  0
 22 24  1  0
 24 25  2  0
 25 26  1  0
 26 27  1  0
M  END
