
     RDKit          3D

 27 28  0  0  0  0  0  0  0  0999 V2000
    7.9200    0.8430   -0.4030 C   0  0  0  0  0  0  0  0  0  0  0  0
    7.0600    0.1360    0.6280 C   0  0  0  0  0  0  0  0  0  0  0  0
    5.6630    0.0070    0.0270 C   0  0  0  0  0  0  0  0  0  0  0  0
    4.8830   -0.6290    0.9510 O   0  0  0  0  0  0  0  0  0  0  0  0
    3.5970   -0.8500    0.5310 C   0  0  0  0  0  0  0  0  0  0  0  0
    2.8470    0.4110    0.2100 C   0  0  0  0  0  0  0  0  0  0  0  0
    1.5430    0.0810   -0.2030 O   0  0  0  0  0  0  0  0  0  0  0  0
    0.6630   -0.5420    0.6340 C   0  0  0  0  0  0  0  0  0  0  0  0
    0.9330   -0.8590    1.8090 O   0  0  0  0  0  0  0  0  0  0  0  0
   -0.6700   -0.8610    0.1380 C   0  0  0  0  0  0  0  0  0  0  0  0
   -0.8850   -2.0620   -0.4620 C   0  0  0  0  0  0  0  0  0  0  0  0
    0.2300   -3.0530   -0.6160 C   0  0  0  0  0  0  0  0  0  0  0  0
   -2.1560   -2.3970   -0.9480 C   0  0  0  0  0  0  0  0  0  0  0  0
   -2.3010   -3.6890   -1.5710 C   0  0  0  0  0  0  0  0  0  0  0  0
   -3.3740   -4.0900   -2.0350 O   0  0  0  0  0  0  0  0  0  0  0  0
   -3.1550   -1.4670   -0.7910 C   0  0  0  0  0  0  0  0  0  0  0  0
   -4.4270   -1.7040   -1.2330 O   0  0  0  0  0  0  0  0  0  0  0  0
   -2.9190   -0.2360   -0.1720 C   0  0  0  0  0  0  0  0  0  0  0  0
   -1.6730    0.0690    0.2940 C   0  0  0  0  0  0  0  0  0  0  0  0
   -1.3370    1.3690    0.9710 C   0  0  0  0  0  0  0  0  0  0  0  0
   -2.5880    2.1190    1.3760 C   0  0  0  0  0  0  0  0  0  0  0  0
   -3.5510    2.0380    0.3210 N   0  0  0  0  0  0  0  0  0  0  0  0
   -4.0010    3.2030   -0.3430 C   0  0  0  0  0  0  0  0  0  0  0  0
   -4.9990    3.0590   -1.4290 C   0  0  0  0  0  0  0  0  0  0  0  0
   -3.5510    4.3160   -0.0020 O   0  0  0  0  0  0  0  0  0  0  0  0
   -4.0400    0.7200   -0.0340 C   0  0  2  0  0  0  0  0  0  0  0  0
   -4.9560    0.2020    1.0550 C   0  0  0  0  0  0  0  0  0  0  0  0
  1  2  1  0
  2  3  1  0
  3  4  1  0
  4  5  1  0
  5  6  1  0
  6  7  1  0
  7  8  1  0
  8  9  2  0
  8 10  1  0
 10 11  2  0
 10 19  1  0
 11 12  1  0
 11 13  1  0
 13 14  1  0
 13 16  2  0
 14 15  2  0
 16 17  1  0
 16 18  1  0
 18 19  2  0
 18 26  1  0
 19 20  1  0
 20 21  1  0
 21 22  1  0
 22 23  1  0
 22 26  1  0
 23 24  1  0
 23 25  2  0
 26 27  1  1
M  END
