
     RDKit          3D

 38 42  0  0  0  0  0  0  0  0999 V2000
   -6.7070    0.9670    0.8890 C   0  0  0  0  0  0  0  0  0  0  0  0
   -7.3170   -0.1390    0.6600 C   0  0  0  0  0  0  0  0  0  0  0  0
   -6.8470   -1.5050    0.4870 C   0  0  0  0  0  0  0  0  0  0  0  0
   -7.8080   -2.4280    0.2940 C   0  0  0  0  0  0  0  0  0  0  0  0
   -7.5230   -3.8460    0.0930 C   0  0  0  0  0  0  0  0  0  0  0  0
   -8.4400   -4.7830    1.3420 Cl  0  0  0  0  0  0  0  0  0  0  0  0
   -5.4720   -2.0000    0.5720 C   0  0  0  0  0  0  0  0  0  0  0  0
   -4.5210   -1.7280   -0.5680 C   0  0  0  0  0  0  0  0  0  0  0  0
   -4.2370   -0.3660   -0.8100 N   0  0  0  0  0  0  0  0  0  0  0  0
   -4.9430    0.4670   -1.6150 C   0  0  0  0  0  0  0  0  0  0  0  0
   -5.9520   -0.0450   -2.2030 O   0  0  0  0  0  0  0  0  0  0  0  0
   -4.6170    1.7570   -1.8010 N   0  0  0  0  0  0  0  0  0  0  0  0
   -3.5360    2.2870   -1.1810 C   0  0  0  0  0  0  0  0  0  0  0  0
   -3.1540    3.5280   -1.4680 N   0  0  0  0  0  0  0  0  0  0  0  0
   -2.0290    4.0320   -0.9750 C   0  0  0  0  0  0  0  0  0  0  0  0
   -1.2490    3.2520   -0.1670 C   0  0  0  0  0  0  0  0  0  0  0  0
   -1.5890    1.9600    0.1620 C   0  0  0  0  0  0  0  0  0  0  0  0
   -0.6860    1.1030    0.9560 C   0  0  0  0  0  0  0  0  0  0  0  0
    0.6360    1.1490    0.2320 N   0  0  2  0  0  0  0  0  0  0  0  0
    0.8730   -0.1210   -0.3530 C   0  0  0  0  0  0  0  0  0  0  0  0
    2.2260   -0.4050   -0.8530 C   0  0  0  0  0  0  0  0  0  0  0  0
    2.9130    0.7640   -1.5120 C   0  0  0  0  0  0  0  0  0  0  0  0
    3.7720    1.4310   -0.5140 C   0  0  2  0  0  0  0  0  0  0  0  0
    5.0150    0.5970   -0.3070 C   0  0  0  0  0  0  0  0  0  0  0  0
    6.2120    1.0720    0.0640 N   0  0  0  0  0  0  0  0  0  0  0  0
    7.0330    0.0210    0.1570 C   0  0  0  0  0  0  0  0  0  0  0  0
    6.2900   -1.1230   -0.1780 C   0  0  0  0  0  0  0  0  0  0  0  0
    5.1070   -0.6970   -0.4430 O   0  0  0  0  0  0  0  0  0  0  0  0
    6.7250   -2.5570   -0.2270 C   0  0  0  0  0  0  0  0  0  0  0  0
    8.0880   -2.5120   -0.5010 O   0  0  0  0  0  0  0  0  0  0  0  0
    8.8610   -2.2960    0.6200 C   0  0  0  0  0  0  0  0  0  0  0  0
    8.6170   -1.1710    1.3400 O   0  0  0  0  0  0  0  0  0  0  0  0
    8.4460    0.0050    0.5870 C   0  0  0  0  0  0  0  0  0  0  0  0
    3.0260    1.4270    0.8310 C   0  0  0  0  0  0  0  0  0  0  0  0
    1.6580    2.0010    0.6090 C   0  0  0  0  0  0  0  0  0  0  0  0
   -2.7580    1.4770   -0.3440 C   0  0  0  0  0  0  0  0  0  0  0  0
   -3.1470    0.1920   -0.1950 C   0  0  0  0  0  0  0  0  0  0  0  0
   -2.4950   -0.5740    0.5560 O   0  0  0  0  0  0  0  0  0  0  0  0
  1  2  2  0
  2  3  1  0
  3  4  2  3
  3  7  1  0
  4  5  1  0
  5  6  1  0
  7  8  1  0
  8  9  1  0
  9 10  1  0
  9 37  1  0
 10 11  2  0
 10 12  1  0
 12 13  1  0
 13 14  2  0
 13 36  1  0
 14 15  1  0
 15 16  2  0
 16 17  1  0
 17 18  1  0
 17 36  2  0
 19 18  1  1
 19 20  1  0
 19 35  1  0
 20 21  1  0
 21 22  1  0
 22 23  1  0
 23 24  1  1
 23 34  1  0
 24 25  2  0
 24 28  1  0
 25 26  1  0
 26 27  2  0
 26 33  1  0
 27 28  1  0
 27 29  1  0
 29 30  1  0
 30 31  1  0
 31 32  1  0
 32 33  1  0
 34 35  1  0
 36 37  1  0
 37 38  2  0
M  CHG  2  19   1  25   1
M  END
