
     RDKit          3D

 38 42  0  0  0  0  0  0  0  0999 V2000
    8.2120   -2.7510    0.7360 C   0  0  0  0  0  0  0  0  0  0  0  0
    6.9650   -3.2650    0.3680 O   0  0  0  0  0  0  0  0  0  0  0  0
    6.0200   -2.2050    0.4750 C   0  0  2  0  0  0  0  0  0  0  0  0
    5.0090   -2.6370    1.5590 C   0  0  0  0  0  0  0  0  0  0  0  0
    5.2900   -2.1150   -0.8050 C   0  0  0  0  0  0  0  0  0  0  0  0
    4.4210   -0.9620   -0.8420 O   0  0  0  0  0  0  0  0  0  0  0  0
    3.7020   -0.7170   -1.9800 C   0  0  0  0  0  0  0  0  0  0  0  0
    3.9230   -1.6490   -2.9080 O   0  0  0  0  0  0  0  0  0  0  0  0
    2.8070    0.3190   -2.3470 C   0  0  0  0  0  0  0  0  0  0  0  0
    1.6920    0.7160   -1.5370 N   0  0  0  0  0  0  0  0  0  0  0  0
    0.5890    0.0050   -1.5140 C   0  0  0  0  0  0  0  0  0  0  0  0
    0.5540   -1.1260   -2.1010 O   0  0  0  0  0  0  0  0  0  0  0  0
   -0.6180    0.3930   -0.8670 C   0  0  0  0  0  0  0  0  0  0  0  0
   -1.7860   -0.3970   -1.1620 C   0  0  0  0  0  0  0  0  0  0  0  0
   -2.4600   -1.2850   -0.3150 N   0  0  2  0  0  0  0  0  0  0  0  0
   -2.9860   -2.3910   -1.2190 C   0  0  0  0  0  0  0  0  0  0  0  0
   -4.4100   -2.0610   -1.4880 C   0  0  0  0  0  0  0  0  0  0  0  0
   -5.1880   -2.5710   -0.3810 N   0  0  0  0  0  0  0  0  0  0  0  0
   -6.4530   -1.8940   -0.1930 C   0  0  0  0  0  0  0  0  0  0  0  0
   -6.7500   -2.2790    1.1790 N   0  0  0  0  0  0  0  0  0  0  0  0
   -5.4720   -1.9350    1.8150 C   0  0  0  0  0  0  0  0  0  0  0  0
   -4.3990   -2.2480    0.8170 C   0  0  1  0  0  0  0  0  0  0  0  0
   -3.6760   -3.4590    1.3190 C   0  0  0  0  0  0  0  0  0  0  0  0
   -3.5130   -1.0400    0.5620 C   0  0  0  0  0  0  0  0  0  0  0  0
   -0.5520    1.6090   -0.2580 C   0  0  0  0  0  0  0  0  0  0  0  0
   -1.7160    2.1370    0.2850 C   0  0  0  0  0  0  0  0  0  0  0  0
   -1.7210    3.3950    0.7900 C   0  0  0  0  0  0  0  0  0  0  0  0
   -0.5720    4.1540    0.7690 C   0  0  0  0  0  0  0  0  0  0  0  0
   -0.6330    5.4870    1.2180 C   0  0  0  0  0  0  0  0  0  0  0  0
    0.4900    6.2730    1.1110 C   0  0  0  0  0  0  0  0  0  0  0  0
    0.3550    7.9560    1.6600 Cl  0  0  0  0  0  0  0  0  0  0  0  0
    1.6480    5.7540    0.5760 C   0  0  0  0  0  0  0  0  0  0  0  0
    2.8340    6.6480    0.4280 C   0  0  0  0  0  0  0  0  0  0  0  0
    1.7270    4.4300    0.1280 C   0  0  0  0  0  0  0  0  0  0  0  0
    0.6080    3.6520    0.2340 C   0  0  0  0  0  0  0  0  0  0  0  0
    0.6010    2.3730   -0.2730 N   0  0  0  0  0  0  0  0  0  0  0  0
    1.6900    1.9070   -0.9050 C   0  0  0  0  0  0  0  0  0  0  0  0
    2.7620    2.5250   -0.9520 O   0  0  0  0  0  0  0  0  0  0  0  0
  1  2  1  0
  2  3  1  0
  3  4  1  1
  3  5  1  0
  5  6  1  0
  6  7  1  0
  7  8  2  0
  7  9  1  0
  9 10  1  0
 10 11  1  0
 10 37  1  0
 11 12  2  0
 11 13  1  0
 13 14  1  0
 13 25  2  0
 15 14  1  6
 15 16  1  0
 15 24  1  0
 16 17  1  0
 17 18  1  0
 18 19  1  0
 18 22  1  0
 19 20  1  0
 20 21  1  0
 21 22  1  0
 22 23  1  1
 22 24  1  0
 25 26  1  0
 25 36  1  0
 26 27  2  0
 27 28  1  0
 28 29  2  0
 28 35  1  0
 29 30  1  0
 30 31  1  0
 30 32  2  0
 32 33  1  0
 32 34  1  0
 34 35  2  0
 35 36  1  0
 36 37  1  0
 37 38  2  0
M  CHG  2  15   1  20   1
M  END
