
     RDKit          3D

 38 42  0  0  0  0  0  0  0  0999 V2000
    6.9620    0.3010    2.9190 C   0  0  0  0  0  0  0  0  0  0  0  0
    7.4130    0.9970    1.8270 O   0  0  0  0  0  0  0  0  0  0  0  0
    7.6880    0.1770    0.7350 C   0  0  0  0  0  0  0  0  0  0  0  0
    8.1700    0.9810   -0.4160 C   0  0  0  0  0  0  0  0  0  0  0  0
    9.5300    1.2100   -0.5770 C   0  0  0  0  0  0  0  0  0  0  0  0
    9.9640    1.9600   -1.6510 C   0  0  0  0  0  0  0  0  0  0  0  0
    9.0550    2.4760   -2.5520 C   0  0  0  0  0  0  0  0  0  0  0  0
    9.5780    3.4360   -3.9310 Cl  0  0  0  0  0  0  0  0  0  0  0  0
    7.7230    2.2120   -2.3350 C   0  0  0  0  0  0  0  0  0  0  0  0
    7.2830    1.4830   -1.2920 N   0  0  0  0  0  0  0  0  0  0  0  0
    5.9070    1.2090   -1.0650 C   0  0  0  0  0  0  0  0  0  0  0  0
    5.3230    0.0670   -1.5620 C   0  0  0  0  0  0  0  0  0  0  0  0
    3.9620   -0.1410   -1.3010 C   0  0  0  0  0  0  0  0  0  0  0  0
    3.2190    0.7530   -0.5760 C   0  0  0  0  0  0  0  0  0  0  0  0
    1.7900    0.5930   -0.2700 C   0  0  0  0  0  0  0  0  0  0  0  0
    1.2320    1.4820    0.4020 O   0  0  0  0  0  0  0  0  0  0  0  0
    1.0280   -0.5040   -0.6930 N   0  0  0  0  0  0  0  0  0  0  0  0
   -0.3340   -0.7880   -0.4820 C   0  0  0  0  0  0  0  0  0  0  0  0
   -0.8650   -2.0040   -0.8470 C   0  0  0  0  0  0  0  0  0  0  0  0
   -2.1880   -2.2870   -0.6580 C   0  0  0  0  0  0  0  0  0  0  0  0
   -3.0720   -1.4010   -0.1010 C   0  0  0  0  0  0  0  0  0  0  0  0
   -4.4090   -1.6410    0.1090 O   0  0  0  0  0  0  0  0  0  0  0  0
   -5.0560   -2.8260   -0.2160 C   0  0  1  0  0  0  0  0  0  0  0  0
   -5.8260   -3.3790    0.9960 C   0  0  0  0  0  0  0  0  0  0  0  0
   -7.1600   -3.8340    0.4570 C   0  0  0  0  0  0  0  0  0  0  0  0
   -6.9670   -3.8470   -0.9770 N   0  0  0  0  0  0  0  0  0  0  0  0
   -6.2220   -2.5960   -1.1670 C   0  0  0  0  0  0  0  0  0  0  0  0
   -2.5420   -0.1670    0.2710 C   0  0  0  0  0  0  0  0  0  0  0  0
   -3.4010    0.8140    0.8590 C   0  0  0  0  0  0  0  0  0  0  0  0
   -2.9830    1.9450    1.2160 O   0  0  0  0  0  0  0  0  0  0  0  0
   -4.7480    0.6640    1.1050 O   0  0  0  0  0  0  0  0  0  0  0  0
   -5.5950    1.5870    1.6670 C   0  0  0  0  0  0  0  0  0  0  0  0
   -5.7850    2.8910    1.0140 C   0  0  2  0  0  0  0  0  0  0  0  0
   -6.7640    3.8240    1.7570 C   0  0  0  0  0  0  0  0  0  0  0  0
   -7.2040    3.1990    0.4880 C   0  0  0  0  0  0  0  0  0  0  0  0
   -1.2060    0.1130    0.0770 C   0  0  0  0  0  0  0  0  0  0  0  0
    3.8630    1.8450   -0.1250 N   0  0  0  0  0  0  0  0  0  0  0  0
    5.1460    2.0780   -0.3490 N   0  0  0  0  0  0  0  0  0  0  0  0
  1  2  1  0
  2  3  1  0
  3  4  1  0
  4  5  2  0
  4 10  1  0
  5  6  1  0
  6  7  2  0
  7  8  1  0
  7  9  1  0
  9 10  2  0
 10 11  1  0
 11 12  2  0
 11 38  1  0
 12 13  1  0
 13 14  2  0
 14 15  1  0
 14 37  1  0
 15 16  2  0
 15 17  1  0
 17 18  1  0
 18 19  2  0
 18 36  1  0
 19 20  1  0
 20 21  2  0
 21 22  1  0
 21 28  1  0
 23 22  1  1
 23 24  1  0
 23 27  1  0
 24 25  1  0
 25 26  1  0
 26 27  1  0
 28 29  1  0
 28 36  2  0
 29 30  2  0
 29 31  1  0
 31 32  1  0
 33 32  1  1
 33 34  1  0
 33 35  1  0
 34 35  1  0
 37 38  2  0
M  CHG  2  10   1  26   1
M  END
