
     RDKit          3D

 37 42  0  0  0  0  0  0  0  0999 V2000
    6.0680   -0.8880    2.0040 C   0  0  0  0  0  0  0  0  0  0  0  0
    7.1350    0.0940    1.9410 N   0  0  0  0  0  0  0  0  0  0  0  0
    6.7700    1.3190    1.3000 C   0  0  0  0  0  0  0  0  0  0  0  0
    7.0990    1.3060   -0.1470 C   0  0  0  0  0  0  0  0  0  0  0  0
    6.3820    0.2320   -0.8390 C   0  0  0  0  0  0  0  0  0  0  0  0
    6.9340   -1.0150   -1.0000 C   0  0  0  0  0  0  0  0  0  0  0  0
    6.2140   -2.0010   -1.6620 C   0  0  0  0  0  0  0  0  0  0  0  0
    4.9490   -1.7300   -2.1560 C   0  0  0  0  0  0  0  0  0  0  0  0
    4.3700   -0.4910   -2.0100 C   0  0  0  0  0  0  0  0  0  0  0  0
    3.1240   -0.2030   -2.4900 O   0  0  0  0  0  0  0  0  0  0  0  0
    1.9450   -0.3670   -1.7760 C   0  0  0  0  0  0  0  0  0  0  0  0
    1.9430   -0.8540   -0.4700 C   0  0  0  0  0  0  0  0  0  0  0  0
    0.7530   -1.0030    0.2060 C   0  0  0  0  0  0  0  0  0  0  0  0
   -0.4530   -0.6810   -0.3760 C   0  0  0  0  0  0  0  0  0  0  0  0
   -0.4260   -0.1900   -1.6950 C   0  0  0  0  0  0  0  0  0  0  0  0
    0.7560   -0.0340   -2.3890 C   0  0  0  0  0  0  0  0  0  0  0  0
    0.7880    0.4500   -3.6930 O   0  0  0  0  0  0  0  0  0  0  0  0
    0.9060    1.8570   -3.8540 C   0  0  0  0  0  0  0  0  0  0  0  0
   -0.1570    2.5310   -3.2620 O   0  0  0  0  0  0  0  0  0  0  0  0
   -1.6280    0.1540   -2.3330 O   0  0  0  0  0  0  0  0  0  0  0  0
   -2.8630    0.0170   -1.6780 C   0  0  0  0  0  0  0  0  0  0  0  0
   -4.1100    0.2240   -1.9110 N   0  0  0  0  0  0  0  0  0  0  0  0
   -4.9320   -0.0980   -0.8050 N   0  0  0  0  0  0  0  0  0  0  0  0
   -6.3520    0.2490   -1.0230 C   0  0  0  0  0  0  0  0  0  0  0  0
   -6.6900    1.1090    0.2010 C   0  0  0  0  0  0  0  0  0  0  0  0
   -7.1640    0.3900    1.3160 N   0  0  1  0  0  0  0  0  0  0  0  0
   -7.6330   -0.9550    0.9230 C   0  0  0  0  0  0  0  0  0  0  0  0
   -6.3660    0.2440    2.4620 C   0  0  0  0  0  0  0  0  0  0  0  0
   -4.9300    0.6740    2.4000 C   0  0  0  0  0  0  0  0  0  0  0  0
   -4.1300   -0.1260    1.5390 N   0  0  0  0  0  0  0  0  0  0  0  0
   -2.9800   -0.5060    2.3320 C   0  0  0  0  0  0  0  0  0  0  0  0
   -2.9020   -0.2280    3.5460 O   0  0  0  0  0  0  0  0  0  0  0  0
   -1.8100   -1.2600    1.7350 C   0  0  0  0  0  0  0  0  0  0  0  0
   -1.7110   -0.8410    0.3160 C   0  0  0  0  0  0  0  0  0  0  0  0
   -2.7760   -0.5020   -0.3530 C   0  0  0  0  0  0  0  0  0  0  0  0
   -4.1350   -0.6340    0.2110 C   0  0  2  0  0  0  0  0  0  0  0  0
    5.1060    0.4680   -1.3510 C   0  0  0  0  0  0  0  0  0  0  0  0
  1  2  1  0
  2  3  1  0
  3  4  1  0
  4  5  1  0
  5  6  2  0
  5 37  1  0
  6  7  1  0
  7  8  2  0
  8  9  1  0
  9 10  1  0
  9 37  2  0
 10 11  1  0
 11 12  2  0
 11 16  1  0
 12 13  1  0
 13 14  2  0
 14 15  1  0
 14 34  1  0
 15 16  2  0
 15 20  1  0
 16 17  1  0
 17 18  1  0
 18 19  1  0
 20 21  1  0
 21 22  2  0
 21 35  1  0
 22 23  1  0
 23 24  1  0
 36 23  1  6
 24 25  1  0
 25 26  1  0
 26 27  1  6
 26 28  1  0
 28 29  1  0
 29 30  1  0
 30 31  1  0
 30 36  1  0
 31 32  2  0
 31 33  1  0
 33 34  1  0
 34 35  2  0
 35 36  1  0
M  CHG  2   2   1  26   1
M  END
