
     RDKit          3D

 38 42  0  0  0  0  0  0  0  0999 V2000
    8.1230    0.4450    2.3000 C   0  0  0  0  0  0  0  0  0  0  0  0
    6.9840    0.3600    1.5020 O   0  0  0  0  0  0  0  0  0  0  0  0
    6.9300    0.6330    0.1420 C   0  0  0  0  0  0  0  0  0  0  0  0
    8.1020    1.0170   -0.4490 C   0  0  0  0  0  0  0  0  0  0  0  0
    8.1240    1.3040   -1.7950 C   0  0  0  0  0  0  0  0  0  0  0  0
    6.9580    1.1950   -2.5100 C   0  0  0  0  0  0  0  0  0  0  0  0
    5.7650    0.7970   -1.8770 C   0  0  0  0  0  0  0  0  0  0  0  0
    5.7170    0.5070   -0.5460 C   0  0  0  0  0  0  0  0  0  0  0  0
    4.6020    0.1020    0.2150 N   0  0  0  0  0  0  0  0  0  0  0  0
    3.2880   -0.0930   -0.2860 C   0  0  0  0  0  0  0  0  0  0  0  0
    3.0340    0.0930   -1.4870 O   0  0  0  0  0  0  0  0  0  0  0  0
    2.2310   -0.5270    0.6870 C   0  0  0  0  0  0  0  0  0  0  0  0
    0.9900   -0.6820    0.0490 O   0  0  0  0  0  0  0  0  0  0  0  0
   -0.1290   -1.0850    0.8060 C   0  0  0  0  0  0  0  0  0  0  0  0
    0.0770   -1.2800    2.0280 O   0  0  0  0  0  0  0  0  0  0  0  0
   -1.4390   -1.2860    0.2720 C   0  0  0  0  0  0  0  0  0  0  0  0
   -1.6730   -2.5620   -0.2630 C   0  0  0  0  0  0  0  0  0  0  0  0
   -0.5720   -3.5380   -0.2530 C   0  0  0  0  0  0  0  0  0  0  0  0
   -0.3450   -4.2040    1.3880 Cl  0  0  0  0  0  0  0  0  0  0  0  0
   -2.8560   -2.8920   -0.7680 N   0  0  0  0  0  0  0  0  0  0  0  0
   -3.8600   -1.9900   -0.7730 C   0  0  0  0  0  0  0  0  0  0  0  0
   -5.1350   -2.2960   -1.3020 N   0  0  0  0  0  0  0  0  0  0  0  0
   -6.2780   -1.4330   -1.3500 C   0  0  0  0  0  0  0  0  0  0  0  0
   -6.7330   -1.6450   -2.8060 C   0  0  0  0  0  0  0  0  0  0  0  0
   -6.4500   -3.1040   -3.0220 C   0  0  0  0  0  0  0  0  0  0  0  0
   -5.5280   -3.5500   -1.8930 C   0  0  0  0  0  0  0  0  0  0  0  0
   -3.6440   -0.7610   -0.2610 N   0  0  0  0  0  0  0  0  0  0  0  0
   -2.4340   -0.3830    0.2720 C   0  0  0  0  0  0  0  0  0  0  0  0
   -2.3370    0.9220    0.8930 C   0  0  0  0  0  0  0  0  0  0  0  0
   -3.5340    1.5930    1.2060 C   0  0  0  0  0  0  0  0  0  0  0  0
   -3.5610    2.8670    1.7630 C   0  0  0  0  0  0  0  0  0  0  0  0
   -2.3930    3.5270    2.0330 C   0  0  0  0  0  0  0  0  0  0  0  0
   -1.2060    2.9010    1.7410 C   0  0  0  0  0  0  0  0  0  0  0  0
   -1.2110    1.6190    1.1800 C   0  0  0  0  0  0  0  0  0  0  0  0
   -0.1360    3.8160    2.1250 C   0  0  0  0  0  0  0  0  0  0  0  0
    1.0680    3.4820    2.2310 O   0  0  0  0  0  0  0  0  0  0  0  0
   -0.7520    5.1620    2.3510 C   0  0  0  0  0  0  0  0  0  0  0  0
   -2.1460    4.8190    2.5940 N   0  0  0  0  0  0  0  0  0  0  0  0
  1  2  1  0
  2  3  1  0
  3  4  2  0
  3  8  1  0
  4  5  1  0
  5  6  2  0
  6  7  1  0
  7  8  2  0
  8  9  1  0
  9 10  1  0
 10 11  2  0
 10 12  1  0
 12 13  1  0
 13 14  1  0
 14 15  2  0
 14 16  1  0
 16 17  2  0
 16 28  1  0
 17 18  1  0
 17 20  1  0
 18 19  1  0
 20 21  2  0
 21 22  1  0
 21 27  1  0
 22 23  1  0
 22 26  1  0
 23 24  1  0
 24 25  1  0
 25 26  1  0
 27 28  2  0
 28 29  1  0
 29 30  2  0
 29 34  1  0
 30 31  1  0
 31 32  2  0
 32 33  1  0
 32 38  1  0
 33 34  2  0
 33 35  1  0
 35 36  2  0
 35 37  1  0
 37 38  1  0
M  CHG  2  20   1  27   1
M  END
