
     RDKit          3D

 23 25  0  0  0  0  0  0  0  0999 V2000
   -5.8750   -1.1200    0.3880 C   0  0  0  0  0  0  0  0  0  0  0  0
   -5.2240   -0.4830    1.5910 C   0  0  0  0  0  0  0  0  0  0  0  0
   -3.8000   -0.3480    1.2980 N   0  0  0  0  0  0  0  0  0  0  0  0
   -3.3880    0.5350    0.2710 C   0  0  0  0  0  0  0  0  0  0  0  0
   -4.3490    1.3400   -0.3420 C   0  0  0  0  0  0  0  0  0  0  0  0
   -4.0330    2.2480   -1.3400 C   0  0  0  0  0  0  0  0  0  0  0  0
   -2.7290    2.3740   -1.7550 C   0  0  0  0  0  0  0  0  0  0  0  0
   -1.7940    1.5860   -1.1520 C   0  0  0  0  0  0  0  0  0  0  0  0
   -2.0830    0.6600   -0.1420 C   0  0  0  0  0  0  0  0  0  0  0  0
   -1.0150   -0.1400    0.4330 C   0  0  0  0  0  0  0  0  0  0  0  0
    0.3010   -0.0540    0.0680 N   0  0  0  0  0  0  0  0  0  0  0  0
    1.0060   -0.9250    0.7910 C   0  0  0  0  0  0  0  0  0  0  0  0
    2.4450   -1.2350    0.7970 C   0  0  0  0  0  0  0  0  0  0  0  0
    2.9080   -2.1070    1.5700 O   0  0  0  0  0  0  0  0  0  0  0  0
    3.3240   -0.5590   -0.0630 N   0  0  0  0  0  0  0  0  0  0  0  0
    4.7080   -0.6970   -0.2180 C   0  0  0  0  0  0  0  0  0  0  0  0
    5.3960   -1.5440    0.4840 C   0  0  0  0  0  0  0  0  0  0  0  0
    7.1570   -1.5910    0.1590 S   0  0  0  0  0  0  0  0  0  0  0  0
    7.5410    0.1070   -0.3590 C   0  0  0  0  0  0  0  0  0  0  0  0
    6.4960    0.7770   -0.8780 O   0  0  0  0  0  0  0  0  0  0  0  0
    5.3640    0.1770   -1.2290 C   0  0  0  0  0  0  0  0  0  0  0  0
    0.1120   -1.5300    1.5840 N   0  0  0  0  0  0  0  0  0  0  0  0
   -1.0770   -1.0460    1.3510 O   0  0  0  0  0  0  0  0  0  0  0  0
  1  2  1  0
  2  3  1  0
  3  4  1  0
  4  5  2  0
  4  9  1  0
  5  6  1  0
  6  7  2  0
  7  8  1  0
  8  9  2  0
  9 10  1  0
 10 11  2  0
 10 23  1  0
 11 12  1  0
 12 13  1  0
 12 22  2  0
 13 14  2  0
 13 15  1  0
 15 16  1  0
 16 17  2  0
 16 21  1  0
 17 18  1  0
 18 19  1  0
 19 20  1  0
 20 21  1  0
 22 23  1  0
M  END
