
     RDKit          3D

 23 25  0  0  0  0  0  0  0  0999 V2000
   -6.5470   -0.8050    1.7590 C   0  0  0  0  0  0  0  0  0  0  0  0
   -5.4410   -0.5260    0.7540 C   0  0  0  0  0  0  0  0  0  0  0  0
   -4.2320   -0.0730    1.2070 C   0  0  0  0  0  0  0  0  0  0  0  0
   -3.1570    0.2090    0.3470 C   0  0  0  0  0  0  0  0  0  0  0  0
   -1.9400    0.6490    0.6250 N   0  0  0  0  0  0  0  0  0  0  0  0
   -1.0610    0.8800   -0.0700 C   0  0  0  0  0  0  0  0  0  0  0  0
    0.3250    1.3430   -0.1340 N   0  0  0  0  0  0  0  0  0  0  0  0
    1.4020    0.5940   -0.2670 N   0  0  0  0  0  0  0  0  0  0  0  0
    2.4830    1.3940   -0.2830 C   0  0  0  0  0  0  0  0  0  0  0  0
    3.9070    0.9920   -0.4140 C   0  0  0  0  0  0  0  0  0  0  0  0
    3.9580   -0.5140   -0.5320 C   0  0  0  0  0  0  0  0  0  0  0  0
    5.2370   -1.0150   -0.6610 O   0  0  0  0  0  0  0  0  0  0  0  0
    6.0720   -0.7200    0.3990 C   0  0  0  0  0  0  0  0  0  0  0  0
    7.4210   -1.3440    0.0930 C   0  0  0  0  0  0  0  0  0  0  0  0
    8.3440   -1.1080    1.0990 O   0  0  0  0  0  0  0  0  0  0  0  0
    2.0820    2.6770   -0.1570 N   0  0  0  0  0  0  0  0  0  0  0  0
    0.7470    2.6170   -0.0670 C   0  0  0  0  0  0  0  0  0  0  0  0
   -0.0040    3.6170    0.0620 O   0  0  0  0  0  0  0  0  0  0  0  0
   -1.8580    0.4490   -1.7510 S   0  0  0  0  0  0  0  0  0  0  0  0
   -3.4110   -0.0030   -0.9690 C   0  0  0  0  0  0  0  0  0  0  0  0
   -4.6170   -0.4590   -1.4660 C   0  0  0  0  0  0  0  0  0  0  0  0
   -5.6710   -0.7330   -0.5870 C   0  0  0  0  0  0  0  0  0  0  0  0
   -6.9670   -1.2220   -1.1070 C   0  0  0  0  0  0  0  0  0  0  0  0
  1  2  1  0
  2  3  2  0
  2 22  1  0
  3  4  1  0
  4  5  1  0
  4 20  2  0
  5  6  2  0
  6  7  1  0
  6 19  1  0
  7  8  1  0
  7 17  1  0
  8  9  2  0
  9 10  1  0
  9 16  1  0
 10 11  1  0
 11 12  1  0
 12 13  1  0
 13 14  1  0
 14 15  1  0
 16 17  1  0
 17 18  2  0
 19 20  1  0
 20 21  1  0
 21 22  2  0
 22 23  1  0
M  END
