
     RDKit          3D

 23 25  0  0  0  0  0  0  0  0999 V2000
    6.6300   -1.6880   -0.6960 C   0  0  0  0  0  0  0  0  0  0  0  0
    5.3750   -0.9700   -0.3520 C   0  0  0  0  0  0  0  0  0  0  0  0
    5.0970    0.3650   -0.3910 C   0  0  0  0  0  0  0  0  0  0  0  0
    3.8850    0.8010   -0.0320 C   0  0  0  0  0  0  0  0  0  0  0  0
    3.4790    2.1950   -0.0230 N   0  0  0  0  0  0  0  0  0  0  0  0
    4.2820    3.2570   -0.4400 C   0  0  0  0  0  0  0  0  0  0  0  0
    5.4290    3.0930   -0.8620 O   0  0  0  0  0  0  0  0  0  0  0  0
    2.9730   -0.1680    0.3650 C   0  0  0  0  0  0  0  0  0  0  0  0
    1.5680   -0.0510    0.8190 C   0  0  0  0  0  0  0  0  0  0  0  0
    0.9500    1.0260    0.9170 O   0  0  0  0  0  0  0  0  0  0  0  0
    0.8590   -1.2460    1.1730 N   0  0  0  0  0  0  0  0  0  0  0  0
   -0.4470   -1.2170    1.6050 N   0  0  0  0  0  0  0  0  0  0  0  0
   -1.5240   -0.8250    0.7630 C   0  0  0  0  0  0  0  0  0  0  0  0
   -1.3550   -0.4380   -0.5520 C   0  0  0  0  0  0  0  0  0  0  0  0
   -2.4550   -0.0660   -1.3180 C   0  0  0  0  0  0  0  0  0  0  0  0
   -3.7410   -0.0680   -0.8050 C   0  0  0  0  0  0  0  0  0  0  0  0
   -3.8660   -0.4620    0.5110 C   0  0  0  0  0  0  0  0  0  0  0  0
   -2.7870   -0.8150    1.2270 N   0  0  0  0  0  0  0  0  0  0  0  0
   -5.2250   -0.4900    1.1220 C   0  0  0  0  0  0  0  0  0  0  0  0
   -6.3290   -0.3260    0.1290 C   0  0  0  0  0  0  0  0  0  0  0  0
   -5.9820    0.7640   -0.8610 C   0  0  0  0  0  0  0  0  0  0  0  0
   -4.8450    0.3100   -1.5820 O   0  0  0  0  0  0  0  0  0  0  0  0
    3.8690   -1.6710    0.2160 S   0  0  0  0  0  0  0  0  0  0  0  0
  1  2  1  0
  2  3  2  0
  2 23  1  0
  3  4  1  0
  4  5  1  0
  4  8  2  0
  5  6  1  0
  6  7  2  0
  8  9  1  0
  8 23  1  0
  9 10  2  0
  9 11  1  0
 11 12  1  0
 12 13  1  0
 13 14  2  0
 13 18  1  0
 14 15  1  0
 15 16  2  0
 16 17  1  0
 16 22  1  0
 17 18  2  0
 17 19  1  0
 19 20  1  0
 20 21  1  0
 21 22  1  0
M  END
