
     RDKit          3D

 23 25  0  0  0  0  0  0  0  0999 V2000
    1.9570   -1.8970   -0.9440 O   0  0  0  0  0  0  0  0  0  0  0  0
    2.1320   -0.7080   -0.5900 C   0  0  0  0  0  0  0  0  0  0  0  0
    3.4440   -0.2700   -0.3310 N   0  0  0  0  0  0  0  0  0  0  0  0
    4.6030   -1.1300   -0.4530 C   0  0  0  0  0  0  0  0  0  0  0  0
    5.8520   -0.4430   -0.1300 C   0  0  0  0  0  0  0  0  0  0  0  0
    6.0330    0.8580    0.2550 C   0  0  0  0  0  0  0  0  0  0  0  0
    7.4080    1.0280    0.4460 C   0  0  0  0  0  0  0  0  0  0  0  0
    7.9620   -0.2020    0.1580 C   0  0  0  0  0  0  0  0  0  0  0  0
    7.0240   -1.0440   -0.1770 O   0  0  0  0  0  0  0  0  0  0  0  0
    0.9690    0.2180   -0.4500 C   0  0  0  0  0  0  0  0  0  0  0  0
    1.1700    1.5930   -0.0410 C   0  0  0  0  0  0  0  0  0  0  0  0
   -0.4270    2.2320   -0.0270 S   0  0  0  0  0  0  0  0  0  0  0  0
   -1.2430    0.6200   -0.5670 C   0  0  0  0  0  0  0  0  0  0  0  0
   -2.7090    0.6120   -0.7210 C   0  0  0  0  0  0  0  0  0  0  0  0
   -3.4180    1.6290   -0.5070 O   0  0  0  0  0  0  0  0  0  0  0  0
   -3.3520   -0.5800   -1.1240 N   0  0  0  0  0  0  0  0  0  0  0  0
   -4.7750   -0.7060   -1.3010 C   0  0  0  0  0  0  0  0  0  0  0  0
   -5.5560   -0.4770   -0.0830 C   0  0  0  0  0  0  0  0  0  0  0  0
   -5.1150   -0.2040    1.1220 C   0  0  0  0  0  0  0  0  0  0  0  0
   -6.3110   -0.0570    2.0250 C   0  0  0  0  0  0  0  0  0  0  0  0
   -7.4430   -0.2950    1.1000 C   0  0  0  0  0  0  0  0  0  0  0  0
   -6.9820   -0.5260   -0.0630 N   0  0  0  0  0  0  0  0  0  0  0  0
   -0.2820   -0.0570   -0.6570 N   0  0  0  0  0  0  0  0  0  0  0  0
  1  2  2  0
  2  3  1  0
  2 10  1  0
  3  4  1  0
  4  5  1  0
  5  6  2  0
  5  9  1  0
  6  7  1  0
  7  8  2  0
  8  9  1  0
 10 11  2  0
 10 23  1  0
 11 12  1  0
 12 13  1  0
 13 14  1  0
 13 23  2  0
 14 15  2  0
 14 16  1  0
 16 17  1  0
 17 18  1  0
 18 19  2  0
 18 22  1  0
 19 20  1  0
 20 21  1  0
 21 22  2  0
M  END
