
     RDKit          3D

 23 25  0  0  0  0  0  0  0  0999 V2000
    4.7090    0.6330    2.1290 C   0  0  0  0  0  0  0  0  0  0  0  0
    4.0600    0.5030    0.8320 N   0  0  0  0  0  0  0  0  0  0  0  0
    4.0870    1.3540   -0.2020 C   0  0  0  0  0  0  0  0  0  0  0  0
    3.3340    0.8250   -1.2220 C   0  0  0  0  0  0  0  0  0  0  0  0
    2.8290   -0.4040   -0.7790 C   0  0  0  0  0  0  0  0  0  0  0  0
    1.8000   -1.4780   -1.7290 S   0  0  2  0  0  0  0  0  0  0  0  0
    2.1170   -2.8830   -1.3310 O   0  0  0  0  0  0  0  0  0  0  0  0
    2.2190   -1.3490   -3.1800 O   0  0  0  0  0  0  0  0  0  0  0  0
    0.1590   -1.0430   -1.5040 N   0  0  0  0  0  0  0  0  0  0  0  0
   -0.5280   -1.0690   -0.2840 C   0  0  0  0  0  0  0  0  0  0  0  0
    0.0350   -1.8200    0.7390 C   0  0  0  0  0  0  0  0  0  0  0  0
   -0.6190   -1.8740    1.9440 C   0  0  0  0  0  0  0  0  0  0  0  0
   -1.8190   -1.1870    2.1260 C   0  0  0  0  0  0  0  0  0  0  0  0
   -2.3930   -0.4390    1.1290 C   0  0  0  0  0  0  0  0  0  0  0  0
   -1.7170   -0.3910   -0.0960 C   0  0  0  0  0  0  0  0  0  0  0  0
   -2.3200    0.3910   -1.1110 N   0  0  0  0  0  0  0  0  0  0  0  0
   -3.5460    1.0830   -0.9290 C   0  0  0  0  0  0  0  0  0  0  0  0
   -4.7370    0.6780   -1.3560 C   0  0  0  0  0  0  0  0  0  0  0  0
   -5.7510    1.6540   -0.9780 C   0  0  0  0  0  0  0  0  0  0  0  0
   -6.9920    1.6510   -1.1880 O   0  0  0  0  0  0  0  0  0  0  0  0
   -5.0170    2.6800   -0.2800 N   0  0  0  0  0  0  0  0  0  0  0  0
   -3.7670    2.3570   -0.2510 C   0  0  0  0  0  0  0  0  0  0  0  0
    3.3080   -0.5570    0.5000 C   0  0  0  0  0  0  0  0  0  0  0  0
  1  2  1  0
  2  3  1  0
  2 23  1  0
  3  4  2  0
  4  5  1  0
  5  6  1  0
  5 23  2  0
  6  7  2  0
  6  8  2  0
  6  9  1  6
  9 10  1  0
 10 11  2  0
 10 15  1  0
 11 12  1  0
 12 13  2  0
 13 14  1  0
 14 15  2  0
 15 16  1  0
 16 17  1  0
 17 18  2  0
 17 22  1  0
 18 19  1  0
 19 20  2  0
 19 21  1  0
 21 22  2  0
M  END
