
     RDKit          3D

 23 25  0  0  0  0  0  0  0  0999 V2000
   -5.4800    2.5860    0.8130 O   0  0  0  0  0  0  0  0  0  0  0  0
   -4.4660    2.2330    1.4720 N   0  0  0  0  0  0  0  0  0  0  0  0
   -4.2600    0.8840    1.7170 N   0  0  0  0  0  0  0  0  0  0  0  0
   -4.1650    0.0140    0.6030 C   0  0  0  0  0  0  0  0  0  0  0  0
   -5.2760   -0.6010    0.0690 C   0  0  0  0  0  0  0  0  0  0  0  0
   -5.2000   -1.4420   -1.0050 C   0  0  0  0  0  0  0  0  0  0  0  0
   -3.9590   -1.6590   -1.5440 C   0  0  0  0  0  0  0  0  0  0  0  0
   -2.8420   -1.0360   -1.0010 C   0  0  0  0  0  0  0  0  0  0  0  0
   -2.8780   -0.1880    0.0720 C   0  0  0  0  0  0  0  0  0  0  0  0
   -1.7860    0.4630    0.6550 N   0  0  0  0  0  0  0  0  0  0  0  0
   -0.4450    0.3860    0.2710 C   0  0  0  0  0  0  0  0  0  0  0  0
   -0.1140   -0.3190   -0.6880 O   0  0  0  0  0  0  0  0  0  0  0  0
    0.6480    1.1380    0.9800 C   0  0  0  0  0  0  0  0  0  0  0  0
    1.9320    0.8660    0.3620 N   0  0  0  0  0  0  0  0  0  0  0  0
    2.3830    1.6370   -0.6440 C   0  0  0  0  0  0  0  0  0  0  0  0
    3.5600    1.4240   -1.2450 N   0  0  0  0  0  0  0  0  0  0  0  0
    4.3480    0.4140   -0.8560 C   0  0  0  0  0  0  0  0  0  0  0  0
    3.9360   -0.4060    0.1680 C   0  0  0  0  0  0  0  0  0  0  0  0
    2.7210   -0.1560    0.7610 C   0  0  0  0  0  0  0  0  0  0  0  0
    2.2670   -0.8660    1.7150 O   0  0  0  0  0  0  0  0  0  0  0  0
    4.9430   -1.4320    0.4250 C   0  0  0  0  0  0  0  0  0  0  0  0
    5.9460   -1.2460   -0.4220 C   0  0  0  0  0  0  0  0  0  0  0  0
    5.6900   -0.0960   -1.2970 C   0  0  0  0  0  0  0  0  0  0  0  0
  1  2  2  0
  2  3  1  0
  3  4  1  0
  4  5  2  0
  4  9  1  0
  5  6  1  0
  6  7  2  0
  7  8  1  0
  8  9  2  0
  9 10  1  0
 10 11  1  0
 11 12  2  0
 11 13  1  0
 13 14  1  0
 14 15  1  0
 14 19  1  0
 15 16  2  0
 16 17  1  0
 17 18  2  0
 17 23  1  0
 18 19  1  0
 18 21  1  0
 19 20  2  0
 21 22  2  0
 22 23  1  0
M  END
