
     RDKit          3D

 23 25  0  0  0  0  0  0  0  0999 V2000
   -8.1480    1.8400    0.5010 O   0  0  0  0  0  0  0  0  0  0  0  0
   -7.9320    0.8550    1.1610 C   0  0  0  0  0  0  0  0  0  0  0  0
   -6.6070    0.2240    1.2000 C   0  0  0  0  0  0  0  0  0  0  0  0
   -5.6280    0.8950    0.3880 N   0  0  0  0  0  0  0  0  0  0  0  0
   -4.3100    0.3680    0.3540 C   0  0  0  0  0  0  0  0  0  0  0  0
   -3.9560   -0.6510    0.9930 O   0  0  0  0  0  0  0  0  0  0  0  0
   -3.3720    1.0060   -0.4210 O   0  0  0  0  0  0  0  0  0  0  0  0
   -2.0480    0.5960   -0.5440 C   0  0  0  0  0  0  0  0  0  0  0  0
   -1.6390   -0.2930   -1.5170 C   0  0  0  0  0  0  0  0  0  0  0  0
   -0.3070   -0.6890   -1.6210 C   0  0  0  0  0  0  0  0  0  0  0  0
    0.6300   -0.1930   -0.7430 C   0  0  0  0  0  0  0  0  0  0  0  0
    2.0200   -0.5970   -0.8390 C   0  0  0  0  0  0  0  0  0  0  0  0
    3.1090   -0.3770   -0.2560 N   0  0  0  0  0  0  0  0  0  0  0  0
    4.2610   -0.8730   -0.5340 C   0  0  0  0  0  0  0  0  0  0  0  0
    5.5040   -0.5420    0.2300 C   0  0  0  0  0  0  0  0  0  0  0  0
    5.5880    0.3120    1.3020 C   0  0  0  0  0  0  0  0  0  0  0  0
    6.8940    0.3260    1.6950 N   0  0  0  0  0  0  0  0  0  0  0  0
    7.5950   -0.4790    0.9080 C   0  0  0  0  0  0  0  0  0  0  0  0
    6.7340   -0.9960    0.0260 N   0  0  0  0  0  0  0  0  0  0  0  0
    4.3270   -1.7670   -1.6110 C   0  0  0  0  0  0  0  0  0  0  0  0
    2.5850   -1.7830   -2.1310 S   0  0  0  0  0  0  0  0  0  0  0  0
    0.2440    0.6870    0.2260 C   0  0  0  0  0  0  0  0  0  0  0  0
   -1.0910    1.0780    0.3230 C   0  0  0  0  0  0  0  0  0  0  0  0
  1  2  2  0
  2  3  1  0
  3  4  1  0
  4  5  1  0
  5  6  2  0
  5  7  1  0
  7  8  1  0
  8  9  2  0
  8 23  1  0
  9 10  1  0
 10 11  2  0
 11 12  1  0
 11 22  1  0
 12 13  2  0
 12 21  1  0
 13 14  1  0
 14 15  1  0
 14 20  2  0
 15 16  2  0
 15 19  1  0
 16 17  1  0
 17 18  1  0
 18 19  2  0
 20 21  1  0
 22 23  2  0
M  END
