
     RDKit          3D

 10  9  0  0  0  0  0  0  0  0999 V2000
    1.3630   -1.6230    1.4870 O   0  0  0  0  0  0  0  0  0  0  0  0
    1.4850   -0.8340    0.5750 C   0  0  0  0  0  0  0  0  0  0  0  0
    2.8470   -0.5580    0.0620 C   0  0  0  0  0  0  0  0  0  0  0  0
    2.8040    0.3670   -0.9780 O   0  0  0  0  0  0  0  0  0  0  0  0
    0.3520   -0.1560   -0.0230 C   0  0  0  0  0  0  0  0  0  0  0  0
   -0.8140   -0.5650    0.6130 O   0  0  0  0  0  0  0  0  0  0  0  0
   -2.1490    0.0210    0.1340 P   0  0  0  0  0  0  0  0  0  0  0  0
   -1.8230   -0.6080   -1.3650 O   0  0  0  0  0  0  0  0  0  0  0  0
   -1.5560    1.5210    0.5620 O   0  0  0  0  0  0  0  0  0  0  0  0
   -3.4310    0.6890   -0.3820 O   0  0  0  0  0  0  0  0  0  0  0  0
  1  2  2  0
  2  3  1  0
  2  5  1  0
  3  4  1  0
  5  6  1  0
  6  7  1  0
  7  8  1  0
  7  9  1  0
  7 10  1  0
M  END
