
     RDKit          3D

 21 22  0  0  0  0  0  0  0  0999 V2000
   -0.3120    0.7170    1.5640 O   0  0  0  0  0  0  0  0  0  0  0  0
   -0.8290    0.4260    0.4260 C   0  0  0  0  0  0  0  0  0  0  0  0
   -0.0550   -0.4440   -0.3590 O   0  0  0  0  0  0  0  0  0  0  0  0
    1.1730   -0.9600    0.1120 C   0  0  2  0  0  0  0  0  0  0  0  0
    2.1810    0.0430    0.4420 C   0  0  0  0  0  0  0  0  0  0  0  0
    3.2470   -0.4060    1.0200 O   0  0  0  0  0  0  0  0  0  0  0  0
    2.1350    1.4290    0.2050 N   0  0  0  0  0  0  0  0  0  0  0  0
    3.1740    2.2030    0.5910 O   0  0  0  0  0  0  0  0  0  0  0  0
    3.8160    2.6480   -0.4740 O   0  0  0  0  0  0  0  0  0  0  0  0
    5.1260    2.6470   -0.2920 O   0  0  0  0  0  0  0  0  0  0  0  0
    5.6220    1.4900   -0.6740 O   0  0  0  0  0  0  0  0  0  0  0  0
    1.6920   -2.0050   -0.8860 C   0  0  0  0  0  0  0  0  0  0  0  0
    2.4900   -2.8900    0.0360 C   0  0  0  0  0  0  0  0  0  0  0  0
    1.8410   -2.8960    1.2250 O   0  0  0  0  0  0  0  0  0  0  0  0
    0.9530   -1.8540    1.3180 C   0  0  0  0  0  0  0  0  0  0  0  0
   -2.0560    0.9330    0.0120 N   0  0  0  0  0  0  0  0  0  0  0  0
   -2.9260    1.8360    0.7020 C   0  0  0  0  0  0  0  0  0  0  0  0
   -4.2120    0.9790    0.7290 C   0  0  0  0  0  0  0  0  0  0  0  0
   -4.1220    0.2160   -0.5700 C   0  0  2  0  0  0  0  0  0  0  0  0
   -4.0540   -1.1660   -0.3580 O   0  0  0  0  0  0  0  0  0  0  0  0
   -2.7750    0.6270   -1.2030 C   0  0  0  0  0  0  0  0  0  0  0  0
  1  2  2  0
  2  3  1  0
  2 16  1  0
  4  3  1  6
  4  5  1  0
  4 12  1  0
  4 15  1  0
  5  6  2  0
  5  7  1  0
  7  8  1  0
  8  9  1  0
  9 10  1  0
 10 11  1  0
 12 13  1  0
 13 14  1  0
 14 15  1  0
 16 17  1  0
 16 21  1  0
 17 18  1  0
 18 19  1  0
 19 20  1  1
 19 21  1  0
M  END
