
     RDKit          3D

 21 20  0  0  0  0  0  0  0  0999 V2000
   -2.1000   -0.2800   -2.1180 C   0  0  0  0  0  0  0  0  0  0  0  0
   -0.8180   -0.1580   -2.2090 C   0  0  0  0  0  0  0  0  0  0  0  0
    0.0550    0.2140   -1.1800 N   0  0  0  0  0  0  0  0  0  0  0  0
    1.4760    0.3190   -1.3970 C   0  0  0  0  0  0  0  0  0  0  0  0
    2.2620    0.6540   -0.4480 O   0  0  0  0  0  0  0  0  0  0  0  0
    2.0330    0.0460   -2.6980 C   0  0  0  0  0  0  0  0  0  0  0  0
    3.3510    0.1460   -2.8880 C   0  0  0  0  0  0  0  0  0  0  0  0
    3.9500   -0.1190   -4.1770 C   0  0  0  0  0  0  0  0  0  0  0  0
    3.2140   -0.4510   -5.1350 O   0  0  0  0  0  0  0  0  0  0  0  0
    5.3000   -0.0120   -4.3530 O   0  0  0  0  0  0  0  0  0  0  0  0
   -0.4090    0.4960    0.1160 C   0  0  0  0  0  0  0  0  0  0  0  0
   -1.6250    0.4120    0.3990 O   0  0  0  0  0  0  0  0  0  0  0  0
    0.5020    0.9080    1.2240 C   0  0  0  0  0  0  0  0  0  0  0  0
   -0.2780    1.1170    2.4570 N   0  0  0  0  0  0  0  0  0  0  0  0
   -1.0010    0.0170    2.9740 C   0  0  0  0  0  0  0  0  0  0  0  0
   -1.0080   -1.1210    2.4370 O   0  0  0  0  0  0  0  0  0  0  0  0
   -1.7500    0.1680    4.1320 O   0  0  0  0  0  0  0  0  0  0  0  0
   -2.4400   -0.8950    4.6190 O   0  0  0  0  0  0  0  0  0  0  0  0
   -3.8180   -0.9150    4.7690 C   0  0  0  0  0  0  0  0  0  0  0  0
   -4.4520    0.1190    4.4300 O   0  0  0  0  0  0  0  0  0  0  0  0
   -4.5020   -2.0160    5.2710 O   0  0  0  0  0  0  0  0  0  0  0  0
  1  2  2  0
  2  3  1  0
  3  4  1  0
  3 11  1  0
  4  5  2  0
  4  6  1  0
  6  7  2  3
  7  8  1  0
  8  9  2  0
  8 10  1  0
 11 12  2  0
 11 13  1  0
 13 14  1  0
 14 15  1  0
 15 16  2  0
 15 17  1  0
 17 18  1  0
 18 19  1  0
 19 20  2  0
 19 21  1  0
M  END
