
     RDKit          3D

 21 22  0  0  0  0  0  0  0  0999 V2000
    3.2130   -1.7680    1.8670 O   0  0  0  0  0  0  0  0  0  0  0  0
    2.9080   -0.8650    1.0730 C   0  0  0  0  0  0  0  0  0  0  0  0
    3.9420   -0.2940    0.1800 C   0  0  0  0  0  0  0  0  0  0  0  0
    5.1440   -0.9270    0.4290 O   0  0  0  0  0  0  0  0  0  0  0  0
    6.1200   -0.4870   -0.3150 O   0  0  0  0  0  0  0  0  0  0  0  0
    6.3080    0.8080   -0.0730 O   0  0  0  0  0  0  0  0  0  0  0  0
    6.5880    1.4180   -1.2150 O   0  0  0  0  0  0  0  0  0  0  0  0
    1.5840   -0.3800    1.0140 N   0  0  0  0  0  0  0  0  0  0  0  0
    0.5690   -0.9530    1.9000 C   0  0  0  0  0  0  0  0  0  0  0  0
   -0.6940   -1.0430    1.1050 C   0  0  0  0  0  0  0  0  0  0  0  0
   -1.4190   -2.0690    1.0860 O   0  0  0  0  0  0  0  0  0  0  0  0
   -1.1090    0.0710    0.3300 N   0  0  0  0  0  0  0  0  0  0  0  0
   -2.3810    0.1240   -0.3030 C   0  0  2  0  0  0  0  0  0  0  0  0
   -3.5350    0.0790    0.6890 C   0  0  0  0  0  0  0  0  0  0  0  0
   -4.7710    0.5210   -0.0980 C   0  0  0  0  0  0  0  0  0  0  0  0
   -4.6950   -0.2380   -1.4270 C   0  0  0  0  0  0  0  0  0  0  0  0
   -3.8290   -1.3260   -1.2160 O   0  0  0  0  0  0  0  0  0  0  0  0
   -2.5830   -0.9400   -1.1840 O   0  0  0  0  0  0  0  0  0  0  0  0
   -0.1800    1.1750    0.2000 C   0  0  0  0  0  0  0  0  0  0  0  0
    1.2060    0.6460    0.1220 C   0  0  0  0  0  0  0  0  0  0  0  0
    1.9800    1.1270   -0.7270 O   0  0  0  0  0  0  0  0  0  0  0  0
  1  2  2  0
  2  3  1  0
  2  8  1  0
  3  4  1  0
  4  5  1  0
  5  6  1  0
  6  7  1  0
  8  9  1  0
  8 20  1  0
  9 10  1  0
 10 11  2  0
 10 12  1  0
 13 12  1  1
 12 19  1  0
 13 14  1  0
 13 18  1  0
 14 15  1  0
 15 16  1  0
 16 17  1  0
 17 18  1  0
 19 20  1  0
 20 21  2  0
M  END
