
     RDKit          3D

 21 22  0  0  0  0  0  0  0  0999 V2000
    0.8530   -1.4600    0.6400 C   0  0  0  0  0  0  0  0  0  0  0  0
    0.3270   -0.4630   -0.3680 C   0  0  1  0  0  0  0  0  0  0  0  0
    1.0850    0.7970   -0.2040 C   0  0  0  0  0  0  0  0  0  0  0  0
    0.5030    1.8850    0.0280 O   0  0  0  0  0  0  0  0  0  0  0  0
    2.4950    0.7900   -0.3070 N   0  0  0  0  0  0  0  0  0  0  0  0
    3.2770   -0.3140   -0.5560 O   0  0  0  0  0  0  0  0  0  0  0  0
    4.4110   -0.1150    0.0380 O   0  0  0  0  0  0  0  0  0  0  0  0
    4.7570    1.2400   -0.1290 C   0  0  0  0  0  0  0  0  0  0  0  0
    3.4170    1.8600   -0.1870 C   0  0  0  0  0  0  0  0  0  0  0  0
    3.1290    3.0690   -0.1430 O   0  0  0  0  0  0  0  0  0  0  0  0
    0.5660   -1.0000   -1.7340 C   0  0  0  0  0  0  0  0  0  0  0  0
    1.4940   -0.5440   -2.4820 O   0  0  0  0  0  0  0  0  0  0  0  0
   -0.2710   -2.0250   -2.1600 O   0  0  0  0  0  0  0  0  0  0  0  0
   -1.6650   -1.9700   -1.8930 C   0  0  0  0  0  0  0  0  0  0  0  0
   -1.9920   -0.6190   -1.3000 C   0  0  0  0  0  0  0  0  0  0  0  0
   -1.1030   -0.2490   -0.2230 N   0  0  0  0  0  0  0  0  0  0  0  0
   -1.6590    0.3160    0.9510 C   0  0  0  0  0  0  0  0  0  0  0  0
   -0.8860    0.6350    1.8830 O   0  0  0  0  0  0  0  0  0  0  0  0
   -3.1120    0.5390    1.1100 C   0  0  0  0  0  0  0  0  0  0  0  0
   -3.4410    1.0960    2.3220 O   0  0  0  0  0  0  0  0  0  0  0  0
   -4.7320    1.2770    2.4210 O   0  0  0  0  0  0  0  0  0  0  0  0
  2  1  1  1
  2  3  1  0
  2 11  1  0
  2 16  1  0
  3  4  2  0
  3  5  1  0
  5  6  1  0
  5  9  1  0
  6  7  1  0
  7  8  1  0
  8  9  1  0
  9 10  2  0
 11 12  2  0
 11 13  1  0
 13 14  1  0
 14 15  1  0
 15 16  1  0
 16 17  1  0
 17 18  2  0
 17 19  1  0
 19 20  1  0
 20 21  1  0
M  END
