
     RDKit          3D

 24 24  0  0  0  0  0  0  0  0999 V2000
   -1.1960    3.9730    0.9510 C   0  0  0  0  0  0  0  0  0  0  0  0
    0.1670    3.3320    0.9040 C   0  0  0  0  0  0  0  0  0  0  0  0
    0.1010    1.8910    0.8210 N   0  0  0  0  0  0  0  0  0  0  0  0
   -0.4010    1.2270   -0.3630 C   0  0  0  0  0  0  0  0  0  0  0  0
   -1.2800    1.8460   -1.1170 N   0  0  0  0  0  0  0  0  0  0  0  0
   -1.6250    1.0600   -2.1740 O   0  0  0  0  0  0  0  0  0  0  0  0
   -0.7360   -0.0320   -2.2930 C   0  0  0  0  0  0  0  0  0  0  0  0
   -0.0710   -0.0720   -0.9070 C   0  0  2  0  0  0  0  0  0  0  0  0
   -0.5760   -1.2860   -0.2250 C   0  0  0  0  0  0  0  0  0  0  0  0
   -1.9490   -1.4520   -0.1060 O   0  0  0  0  0  0  0  0  0  0  0  0
   -2.8630   -0.7230    0.5760 C   0  0  0  0  0  0  0  0  0  0  0  0
   -2.4880    0.2620    1.2290 O   0  0  0  0  0  0  0  0  0  0  0  0
   -4.3250   -1.0250    0.6000 C   0  0  2  0  0  0  0  0  0  0  0  0
   -4.5490   -2.4270    1.1570 C   0  0  0  0  0  0  0  0  0  0  0  0
   -5.0780   -0.9460   -1.0970 P   0  0  0  0  0  0  0  0  0  0  0  0
   -5.9810   -2.1140   -1.6260 O   0  0  0  0  0  0  0  0  0  0  0  0
    1.3990   -0.1550   -1.1790 C   0  0  0  0  0  0  0  0  0  0  0  0
    2.1190    0.8470   -0.9360 O   0  0  0  0  0  0  0  0  0  0  0  0
    2.0160   -1.2760   -1.6850 O   0  0  0  0  0  0  0  0  0  0  0  0
    3.3920   -1.3330   -1.9300 C   0  0  0  0  0  0  0  0  0  0  0  0
    4.1990   -1.1050   -0.7060 C   0  0  0  0  0  0  0  0  0  0  0  0
    3.6030   -0.8890    0.3890 O   0  0  0  0  0  0  0  0  0  0  0  0
    5.5760   -1.1140   -0.6890 O   0  0  0  0  0  0  0  0  0  0  0  0
    6.3470   -0.8980    0.4770 C   0  0  0  0  0  0  0  0  0  0  0  0
  1  2  1  0
  2  3  1  0
  3  4  1  0
  4  5  2  0
  4  8  1  0
  5  6  1  0
  6  7  1  0
  7  8  1  0
  8  9  1  1
  8 17  1  0
  9 10  1  0
 10 11  1  0
 11 12  2  0
 11 13  1  0
 13 14  1  6
 13 15  1  0
 15 16  2  0
 17 18  2  0
 17 19  1  0
 19 20  1  0
 20 21  1  0
 21 22  2  0
 21 23  1  0
 23 24  1  0
M  END
