
     RDKit          3D

 24 24  0  0  0  0  0  0  0  0999 V2000
   -6.8330    0.0710    1.1950 C   0  0  0  0  0  0  0  0  0  0  0  0
   -5.3210    0.1350    1.2000 C   0  0  0  0  0  0  0  0  0  0  0  0
   -4.7870   -1.0590    0.4740 C   0  0  0  0  0  0  0  0  0  0  0  0
   -3.2930   -1.0160    0.4680 C   0  0  0  0  0  0  0  0  0  0  0  0
   -2.7980    0.1740   -0.1860 N   0  0  0  0  0  0  0  0  0  0  0  0
   -3.0610    0.1800   -1.6050 C   0  0  0  0  0  0  0  0  0  0  0  0
   -2.3120   -0.9400   -2.2640 C   0  0  0  0  0  0  0  0  0  0  0  0
   -2.6480   -1.4070   -3.3840 O   0  0  0  0  0  0  0  0  0  0  0  0
   -1.2140   -1.4220   -1.5390 O   0  0  0  0  0  0  0  0  0  0  0  0
   -0.4920   -0.5650   -0.6680 C   0  0  2  0  0  0  0  0  0  0  0  0
    0.2420   -1.4000    0.1690 O   0  0  0  0  0  0  0  0  0  0  0  0
    1.9170   -1.1890   -0.2310 P   0  0  0  0  0  0  0  0  0  0  0  0
    2.1790   -1.8200   -1.8110 O   0  0  0  0  0  0  0  0  0  0  0  0
    2.3310    0.5910   -0.0840 C   0  0  0  0  0  0  0  0  0  0  0  0
    3.6330    0.9150   -0.6140 N   0  0  0  0  0  0  0  0  0  0  0  0
    3.8320    1.2940   -1.9960 C   0  0  0  0  0  0  0  0  0  0  0  0
    4.7460    0.8570    0.2430 C   0  0  0  0  0  0  0  0  0  0  0  0
    5.8860    1.1280   -0.1890 O   0  0  0  0  0  0  0  0  0  0  0  0
    4.5960    0.4780    1.6660 C   0  0  0  0  0  0  0  0  0  0  0  0
    5.8220    0.4620    2.3590 O   0  0  0  0  0  0  0  0  0  0  0  0
    6.8210   -0.3920    1.9370 C   0  0  0  0  0  0  0  0  0  0  0  0
    6.6140   -1.1320    0.9450 O   0  0  0  0  0  0  0  0  0  0  0  0
    8.0720   -0.4910    2.5490 O   0  0  0  0  0  0  0  0  0  0  0  0
   -1.3900    0.3770    0.0800 C   0  0  0  0  0  0  0  0  0  0  0  0
  1  2  1  0
  2  3  1  0
  3  4  1  0
  4  5  1  0
  5  6  1  0
  5 24  1  0
  6  7  1  0
  7  8  2  0
  7  9  1  0
  9 10  1  0
 10 11  1  1
 10 24  1  0
 11 12  1  0
 12 13  1  0
 12 14  1  0
 14 15  1  0
 15 16  1  0
 15 17  1  0
 17 18  2  0
 17 19  1  0
 19 20  1  0
 20 21  1  0
 21 22  2  0
 21 23  1  0
M  END
