
     RDKit          3D

 20 20  0  0  0  0  0  0  0  0999 V2000
   -0.2420    1.0040   -3.2110 O   0  0  0  0  0  0  0  0  0  0  0  0
   -0.4450   -0.0700   -2.3460 C   0  0  1  0  0  0  0  0  0  0  0  0
    0.8240   -0.8970   -2.1870 C   0  0  2  0  0  0  0  0  0  0  0  0
    0.4430   -2.2440   -2.4270 O   0  0  0  0  0  0  0  0  0  0  0  0
    1.1600   -0.7790   -0.7920 C   0  0  1  0  0  0  0  0  0  0  0  0
    1.6600   -1.9700   -0.2450 O   0  0  0  0  0  0  0  0  0  0  0  0
    2.0230    0.3870   -0.3100 C   0  0  0  0  0  0  0  0  0  0  0  0
    3.2500   -0.1280    0.0870 O   0  0  0  0  0  0  0  0  0  0  0  0
    3.6810    0.3060    1.5020 P   0  0  0  0  0  0  0  0  0  0  0  0
    2.2990   -0.6400    1.9920 O   0  0  0  0  0  0  0  0  0  0  0  0
    3.5820    1.8440    1.4240 O   0  0  0  0  0  0  0  0  0  0  0  0
    5.0830   -0.5610    1.3330 O   0  0  0  0  0  0  0  0  0  0  0  0
   -0.1090   -0.5140   -0.1350 O   0  0  0  0  0  0  0  0  0  0  0  0
   -0.6630    0.4370   -0.9930 C   0  0  2  0  0  0  0  0  0  0  0  0
   -2.0680    0.7500   -0.5610 C   0  0  0  0  0  0  0  0  0  0  0  0
   -2.5410   -0.3990    0.0480 O   0  0  0  0  0  0  0  0  0  0  0  0
   -3.7250   -0.2020    1.1400 P   0  0  0  0  0  0  0  0  0  0  0  0
   -3.1630    1.1320    1.6760 O   0  0  0  0  0  0  0  0  0  0  0  0
   -5.1340    0.6240    0.7530 O   0  0  0  0  0  0  0  0  0  0  0  0
   -3.6430   -0.9900    2.5880 O   0  0  0  0  0  0  0  0  0  0  0  0
  2  1  1  6
  2  3  1  0
  2 14  1  0
  3  4  1  1
  3  5  1  0
  5  6  1  1
  5  7  1  0
  5 13  1  0
  7  8  1  0
  8  9  1  0
  9 10  1  0
  9 11  1  0
  9 12  1  0
 13 14  1  0
 14 15  1  1
 15 16  1  0
 16 17  1  0
 17 18  1  0
 17 19  1  0
 17 20  1  0
M  END
