
     RDKit          3D

 24 24  0  0  0  0  0  0  0  0999 V2000
   -6.2280   -1.7140   -0.0450 C   0  0  0  0  0  0  0  0  0  0  0  0
   -5.4670   -0.7330    0.7740 C   0  0  1  0  0  0  0  0  0  0  0  0
   -5.5680   -1.0960    2.1180 O   0  0  0  0  0  0  0  0  0  0  0  0
   -4.0680   -0.6580    0.4740 N   0  0  0  0  0  0  0  0  0  0  0  0
   -3.4090    0.5890    0.1280 C   0  0  0  0  0  0  0  0  0  0  0  0
   -4.1860    1.5630    0.1220 O   0  0  0  0  0  0  0  0  0  0  0  0
   -1.9550    0.6000   -0.1720 C   0  0  2  0  0  0  0  0  0  0  0  0
   -1.6790    1.2190   -1.4980 C   0  0  0  0  0  0  0  0  0  0  0  0
   -2.0880    2.6140   -1.5490 C   0  0  0  0  0  0  0  0  0  0  0  0
   -2.4630    3.2260   -0.5190 O   0  0  0  0  0  0  0  0  0  0  0  0
   -2.0930    3.3660   -2.7320 O   0  0  0  0  0  0  0  0  0  0  0  0
   -1.4920   -0.6880   -0.0600 O   0  0  0  0  0  0  0  0  0  0  0  0
   -0.6230   -0.9520    0.9600 C   0  0  0  0  0  0  0  0  0  0  0  0
    0.5550    0.0400    0.9690 C   0  0  1  0  0  0  0  0  0  0  0  0
    1.4980   -0.4230    0.0020 N   0  0  0  0  0  0  0  0  0  0  0  0
    2.5960    0.4610   -0.2260 C   0  0  0  0  0  0  0  0  0  0  0  0
    3.5200   -0.1340   -1.2600 C   0  0  0  0  0  0  0  0  0  0  0  0
    4.0960   -1.4580   -0.8460 C   0  0  0  0  0  0  0  0  0  0  0  0
    4.9020   -1.3520    0.4330 C   0  0  0  0  0  0  0  0  0  0  0  0
    6.3180   -0.1840    0.2620 P   0  0  0  0  0  0  0  0  0  0  0  0
    7.4350   -0.5270    1.5660 O   0  0  0  0  0  0  0  0  0  0  0  0
    5.7890    1.4590    0.5020 O   0  0  0  0  0  0  0  0  0  0  0  0
    0.0330    1.4340    0.7090 C   0  0  0  0  0  0  0  0  0  0  0  0
   -1.3590    1.3830    0.8200 O   0  0  0  0  0  0  0  0  0  0  0  0
  2  1  1  6
  2  3  1  0
  2  4  1  0
  4  5  1  0
  5  6  2  0
  5  7  1  0
  7  8  1  6
  7 12  1  0
  7 24  1  0
  8  9  1  0
  9 10  2  0
  9 11  1  0
 12 13  1  0
 13 14  1  0
 14 15  1  6
 14 23  1  0
 15 16  1  0
 16 17  1  0
 17 18  1  0
 18 19  1  0
 19 20  1  0
 20 21  1  0
 20 22  1  0
 23 24  1  0
M  END
