
     RDKit          3D

 27 26  0  0  0  0  0  0  0  0999 V2000
    5.9030   -2.1330   -2.0780 C   0  0  0  0  0  0  0  0  0  0  0  0
    5.3330   -1.3910   -1.1540 C   0  0  0  0  0  0  0  0  0  0  0  0
    5.8930   -1.4200    0.1860 C   0  0  0  0  0  0  0  0  0  0  0  0
    5.4760   -0.7680    1.2330 C   0  0  0  0  0  0  0  0  0  0  0  0
    6.3220   -0.9400    2.8370 P   0  0  0  0  0  0  0  0  0  0  0  0
    4.1670   -0.5900   -1.5470 C   0  0  0  0  0  0  0  0  0  0  0  0
    2.9300   -0.8300   -0.8240 C   0  0  0  0  0  0  0  0  0  0  0  0
    2.2490    0.1720   -0.2980 C   0  0  0  0  0  0  0  0  0  0  0  0
    0.9590   -0.0870    0.4580 C   0  0  1  0  0  0  0  0  0  0  0  0
    1.0530    0.3890    1.7650 O   0  0  0  0  0  0  0  0  0  0  0  0
   -0.1470    0.6730   -0.1990 C   0  0  0  0  0  0  0  0  0  0  0  0
   -1.0150   -0.0030   -0.8460 N   0  0  0  0  0  0  0  0  0  0  0  0
   -2.1310    0.5380   -1.5320 C   0  0  0  0  0  0  0  0  0  0  0  0
   -2.0900    0.8380   -2.9840 C   0  0  0  0  0  0  0  0  0  0  0  0
   -1.8840   -0.2630   -3.7810 O   0  0  0  0  0  0  0  0  0  0  0  0
   -0.7090   -0.9350   -3.5550 C   0  0  0  0  0  0  0  0  0  0  0  0
   -3.2080    0.7760   -0.8740 N   0  0  0  0  0  0  0  0  0  0  0  0
   -3.2420    0.4880    0.5160 C   0  0  0  0  0  0  0  0  0  0  0  0
   -4.2960    0.8560    1.2080 C   0  0  0  0  0  0  0  0  0  0  0  0
   -5.3420    1.5050    0.6000 O   0  0  0  0  0  0  0  0  0  0  0  0
   -4.3520    0.5660    2.6520 C   0  0  0  0  0  0  0  0  0  0  0  0
   -5.5620   -0.3150    2.9010 C   0  0  0  0  0  0  0  0  0  0  0  0
   -6.6830    0.3990    2.4820 O   0  0  0  0  0  0  0  0  0  0  0  0
   -7.8010   -0.3930    2.7040 C   0  0  0  0  0  0  0  0  0  0  0  0
    2.7140    1.9360   -0.4260 P   0  0  0  0  0  0  0  0  0  0  0  0
    4.3580    2.2570   -0.0560 O   0  0  0  0  0  0  0  0  0  0  0  0
    2.4490    2.4430   -2.0850 O   0  0  0  0  0  0  0  0  0  0  0  0
  1  2  2  0
  2  3  1  0
  2  6  1  0
  3  4  2  3
  4  5  1  0
  6  7  1  0
  7  8  2  3
  8  9  1  0
  8 25  1  0
  9 10  1  1
  9 11  1  0
 11 12  2  3
 12 13  1  0
 13 14  1  0
 13 17  2  3
 14 15  1  0
 15 16  1  0
 17 18  1  0
 18 19  2  3
 19 20  1  0
 19 21  1  0
 21 22  1  0
 22 23  1  0
 23 24  1  0
 25 26  1  0
 25 27  1  0
M  END
