
     RDKit          3D

 24 24  0  0  0  0  0  0  0  0999 V2000
   -2.6030    1.0470   -2.6890 C   0  0  0  0  0  0  0  0  0  0  0  0
   -2.5060    0.7820   -1.1890 C   0  0  1  0  0  0  0  0  0  0  0  0
   -3.8690    0.2800   -0.7550 C   0  0  0  0  0  0  0  0  0  0  0  0
   -3.8460   -0.0730    0.5790 O   0  0  0  0  0  0  0  0  0  0  0  0
   -5.3340   -0.6660    1.1810 P   0  0  0  0  0  0  0  0  0  0  0  0
   -6.4050   -1.1440   -0.0890 O   0  0  0  0  0  0  0  0  0  0  0  0
   -6.0700    0.5240    2.1820 O   0  0  0  0  0  0  0  0  0  0  0  0
   -1.4890   -0.2430   -1.0060 N   0  0  0  0  0  0  0  0  0  0  0  0
   -0.8960   -0.2130    0.3040 C   0  0  0  0  0  0  0  0  0  0  0  0
    0.0470   -1.4280    0.5000 C   0  0  2  0  0  0  0  0  0  0  0  0
   -0.8780   -2.5120    0.2830 O   0  0  0  0  0  0  0  0  0  0  0  0
    0.4380   -1.5350    1.9230 C   0  0  0  0  0  0  0  0  0  0  0  0
   -0.7550   -1.4620    2.7190 O   0  0  0  0  0  0  0  0  0  0  0  0
    1.0510   -1.5760   -0.5580 C   0  0  0  0  0  0  0  0  0  0  0  0
    2.1790   -0.7140   -0.5970 N   0  0  0  0  0  0  0  0  0  0  0  0
    3.2520   -0.6600    0.3100 C   0  0  0  0  0  0  0  0  0  0  0  0
    3.2620   -1.4820    1.2730 O   0  0  0  0  0  0  0  0  0  0  0  0
    4.3820    0.2650    0.2610 C   0  0  0  0  0  0  0  0  0  0  0  0
    5.6620   -0.1800    0.6110 C   0  0  0  0  0  0  0  0  0  0  0  0
    6.7230    0.6970    0.5950 C   0  0  0  0  0  0  0  0  0  0  0  0
    6.6060    1.9560    0.2650 O   0  0  0  0  0  0  0  0  0  0  0  0
    5.4230    2.4120   -0.0690 C   0  0  0  0  0  0  0  0  0  0  0  0
    5.3420    3.6320   -0.3840 O   0  0  0  0  0  0  0  0  0  0  0  0
    4.2850    1.5940   -0.0840 C   0  0  0  0  0  0  0  0  0  0  0  0
  2  1  1  6
  2  3  1  0
  2  8  1  0
  3  4  1  0
  4  5  1  0
  5  6  1  0
  5  7  1  0
  8  9  1  0
  9 10  1  0
 10 11  1  6
 10 12  1  0
 10 14  1  0
 12 13  1  0
 14 15  1  0
 15 16  1  0
 16 17  2  0
 16 18  1  0
 18 19  1  0
 18 24  2  0
 19 20  2  0
 20 21  1  0
 21 22  1  0
 22 23  2  0
 22 24  1  0
M  END
