
     RDKit          3D

 24 24  0  0  0  0  0  0  0  0999 V2000
    1.5290   -3.5020   -1.2100 N   0  0  0  0  0  0  0  0  0  0  0  0
    0.7740   -2.6040   -1.9540 C   0  0  0  0  0  0  0  0  0  0  0  0
    0.7700   -2.7820   -3.2240 O   0  0  0  0  0  0  0  0  0  0  0  0
   -0.0360   -1.4520   -1.4450 C   0  0  2  0  0  0  0  0  0  0  0  0
   -0.6120   -0.7840   -2.5310 O   0  0  0  0  0  0  0  0  0  0  0  0
   -1.9530   -0.5770   -2.4530 C   0  0  0  0  0  0  0  0  0  0  0  0
   -2.3310    0.2650   -1.2670 C   0  0  0  0  0  0  0  0  0  0  0  0
   -3.8510    0.4340   -1.2800 C   0  0  0  0  0  0  0  0  0  0  0  0
   -4.2630    1.2750   -0.1020 C   0  0  0  0  0  0  0  0  0  0  0  0
   -3.7390    0.4310    1.4460 P   0  0  0  0  0  0  0  0  0  0  0  0
   -3.6980    1.5090    2.7770 O   0  0  0  0  0  0  0  0  0  0  0  0
   -4.7880   -0.8950    1.7980 O   0  0  0  0  0  0  0  0  0  0  0  0
    0.9460   -0.5070   -0.8550 C   0  0  0  0  0  0  0  0  0  0  0  0
    1.2860    0.4770   -1.5670 O   0  0  0  0  0  0  0  0  0  0  0  0
    1.5200   -0.6240    0.4320 N   0  0  0  0  0  0  0  0  0  0  0  0
    1.1820   -1.5690    1.4280 C   0  0  0  0  0  0  0  0  0  0  0  0
    0.3350   -2.5200    1.3800 O   0  0  0  0  0  0  0  0  0  0  0  0
    1.9750   -1.2670    2.5470 O   0  0  0  0  0  0  0  0  0  0  0  0
    2.4170    0.0890    2.4580 C   0  0  0  0  0  0  0  0  0  0  0  0
    2.5140    0.2440    0.9580 C   0  0  0  0  0  0  0  0  0  0  0  0
    3.3560    1.0200    0.3190 C   0  0  0  0  0  0  0  0  0  0  0  0
    4.2980    1.8340    1.0770 C   0  0  0  0  0  0  0  0  0  0  0  0
    5.1500    2.6200    0.4450 C   0  0  0  0  0  0  0  0  0  0  0  0
    6.0450    3.3910    1.1940 O   0  0  0  0  0  0  0  0  0  0  0  0
  1  2  1  0
  2  3  2  0
  2  4  1  0
  4  5  1  6
  4 13  1  0
  5  6  1  0
  6  7  1  0
  7  8  1  0
  8  9  1  0
  9 10  1  0
 10 11  1  0
 10 12  1  0
 13 14  2  0
 13 15  1  0
 15 16  1  0
 15 20  1  0
 16 17  2  0
 16 18  1  0
 18 19  1  0
 19 20  1  0
 20 21  2  3
 21 22  1  0
 22 23  2  3
 23 24  1  0
M  END
