
     RDKit          3D

 24 24  0  0  0  0  0  0  0  0999 V2000
    6.4760    2.5670   -0.0160 C   0  0  0  0  0  0  0  0  0  0  0  0
    5.0220    2.2260   -0.1090 C   0  0  0  0  0  0  0  0  0  0  0  0
    4.7410    0.8280    0.3130 C   0  0  0  0  0  0  0  0  0  0  0  0
    5.7000    0.1140    0.6860 O   0  0  0  0  0  0  0  0  0  0  0  0
    3.4790    0.2810    0.3150 O   0  0  0  0  0  0  0  0  0  0  0  0
    3.1190   -1.3590    0.8070 P   0  0  0  0  0  0  0  0  0  0  0  0
    1.9400   -2.1890   -0.3470 C   0  0  0  0  0  0  0  0  0  0  0  0
    1.1630   -1.2270   -1.1110 N   0  0  0  0  0  0  0  0  0  0  0  0
    1.7450   -0.7990   -2.3940 C   0  0  0  0  0  0  0  0  0  0  0  0
   -0.0800   -0.7220   -0.6630 C   0  0  0  0  0  0  0  0  0  0  0  0
   -0.6960    0.1010   -1.3670 O   0  0  0  0  0  0  0  0  0  0  0  0
   -0.6280   -1.1610    0.6070 C   0  0  0  0  0  0  0  0  0  0  0  0
   -1.8830   -0.5930    0.9670 N   0  0  0  0  0  0  0  0  0  0  0  0
   -3.0770   -0.7160    0.2160 C   0  0  0  0  0  0  0  0  0  0  0  0
   -3.0170   -1.3740   -0.8420 O   0  0  0  0  0  0  0  0  0  0  0  0
   -4.3630   -0.1040    0.6350 C   0  0  1  0  0  0  0  0  0  0  0  0
   -4.2490    1.4020    0.7500 C   0  0  0  0  0  0  0  0  0  0  0  0
   -5.4260    1.9440    1.5310 C   0  0  0  0  0  0  0  0  0  0  0  0
   -6.5720    1.2110    1.2220 O   0  0  0  0  0  0  0  0  0  0  0  0
   -6.6890    0.3200    0.1680 C   0  0  0  0  0  0  0  0  0  0  0  0
   -7.8280    0.1680   -0.3430 O   0  0  0  0  0  0  0  0  0  0  0  0
   -5.4820   -0.4110   -0.3120 C   0  0  0  0  0  0  0  0  0  0  0  0
    4.6040   -2.2560    0.8370 O   0  0  0  0  0  0  0  0  0  0  0  0
    4.6140   -3.1560    1.7870 O   0  0  0  0  0  0  0  0  0  0  0  0
  1  2  1  0
  2  3  1  0
  3  4  2  0
  3  5  1  0
  5  6  1  0
  6  7  1  0
  6 23  1  0
  7  8  1  0
  8  9  1  0
  8 10  1  0
 10 11  2  0
 10 12  1  0
 12 13  1  0
 13 14  1  0
 14 15  2  0
 16 14  1  6
 16 17  1  0
 16 22  1  0
 17 18  1  0
 18 19  1  0
 19 20  1  0
 20 21  2  0
 20 22  1  0
 23 24  1  0
M  END
