
     RDKit          3D

 20 20  0  0  0  0  0  0  0  0999 V2000
   -3.2310    3.5040    0.1890 O   0  0  0  0  0  0  0  0  0  0  0  0
   -3.7150    2.7710    1.0980 C   0  0  0  0  0  0  0  0  0  0  0  0
   -4.6000    3.3390    1.9840 O   0  0  0  0  0  0  0  0  0  0  0  0
   -3.3220    1.4630    1.1380 O   0  0  0  0  0  0  0  0  0  0  0  0
   -2.3960    0.8650    0.2130 C   0  0  2  0  0  0  0  0  0  0  0  0
   -3.0850   -0.1570   -0.5610 C   0  0  0  0  0  0  0  0  0  0  0  0
   -2.3670   -1.4320   -0.8550 C   0  0  1  0  0  0  0  0  0  0  0  0
   -1.8650   -1.3990   -2.1800 O   0  0  0  0  0  0  0  0  0  0  0  0
   -1.2300   -1.7100    0.0170 C   0  0  0  0  0  0  0  0  0  0  0  0
   -0.9500   -2.8940    0.3190 O   0  0  0  0  0  0  0  0  0  0  0  0
   -0.4510   -0.6520    0.5180 N   0  0  0  0  0  0  0  0  0  0  0  0
    0.9670   -0.6590    0.6230 C   0  0  0  0  0  0  0  0  0  0  0  0
    1.5610    0.3160    1.1290 O   0  0  0  0  0  0  0  0  0  0  0  0
    1.7190   -1.7510    0.1630 N   0  0  0  0  0  0  0  0  0  0  0  0
    3.1160   -1.9610    0.1540 C   0  0  0  0  0  0  0  0  0  0  0  0
    3.8630   -1.0370   -0.7320 C   0  0  0  0  0  0  0  0  0  0  0  0
    3.7920    0.7330   -0.3620 P   0  0  0  0  0  0  0  0  0  0  0  0
    4.6670    1.1930    1.0540 O   0  0  0  0  0  0  0  0  0  0  0  0
    4.2110    1.6850   -1.7290 O   0  0  0  0  0  0  0  0  0  0  0  0
   -1.1820    0.5200    0.9770 C   0  0  0  0  0  0  0  0  0  0  0  0
  1  2  2  0
  2  3  1  0
  2  4  1  0
  5  4  1  1
  5  6  1  0
  5 20  1  0
  6  7  1  0
  7  8  1  6
  7  9  1  0
  9 10  2  0
  9 11  1  0
 11 12  1  0
 11 20  1  0
 12 13  2  0
 12 14  1  0
 14 15  1  0
 15 16  1  0
 16 17  1  0
 17 18  1  0
 17 19  1  0
M  END
