
     RDKit          3D

 16 16  0  0  0  0  0  0  0  0999 V2000
   -1.8030    0.6680   -2.1150 O   0  0  0  0  0  0  0  0  0  0  0  0
   -0.9990    0.9550   -1.0010 C   0  0  1  0  0  0  0  0  0  0  0  0
   -1.8320    1.5690    0.1040 C   0  0  2  0  0  0  0  0  0  0  0  0
   -0.9340    2.0610    1.0590 O   0  0  0  0  0  0  0  0  0  0  0  0
   -2.7100    0.5440    0.7490 C   0  0  1  0  0  0  0  0  0  0  0  0
   -3.9040    0.4680    0.0360 O   0  0  0  0  0  0  0  0  0  0  0  0
   -2.0140   -0.7880    0.8160 C   0  0  2  0  0  0  0  0  0  0  0  0
   -2.2640   -1.4230    2.0490 O   0  0  0  0  0  0  0  0  0  0  0  0
   -0.6450   -0.5850    0.7470 O   0  0  0  0  0  0  0  0  0  0  0  0
   -0.2330   -0.2480   -0.5440 C   0  0  2  0  0  0  0  0  0  0  0  0
    1.2460    0.0560   -0.4650 C   0  0  0  0  0  0  0  0  0  0  0  0
    1.9710   -1.0040   -0.0220 O   0  0  0  0  0  0  0  0  0  0  0  0
    3.5610   -0.9380    0.1480 P   0  0  0  0  0  0  0  0  0  0  0  0
    4.5440   -0.9270   -1.2590 O   0  0  0  0  0  0  0  0  0  0  0  0
    3.7600   -2.4700    0.0540 O   0  0  0  0  0  0  0  0  0  0  0  0
    3.7100    0.5840    0.1390 O   0  0  0  0  0  0  0  0  0  0  0  0
  2  1  1  6
  2  3  1  0
  2 10  1  0
  3  4  1  1
  3  5  1  0
  5  6  1  6
  5  7  1  0
  7  8  1  1
  7  9  1  0
  9 10  1  0
 10 11  1  1
 11 12  1  0
 12 13  1  0
 13 14  1  0
 13 15  1  0
 13 16  1  0
M  END
