
     RDKit          3D

 21 22  0  0  0  0  0  0  0  0999 V2000
    4.0300    2.7150    2.1160 N   0  0  0  0  0  0  0  0  0  0  0  0
    3.5330    1.9560    1.0370 C   0  0  0  0  0  0  0  0  0  0  0  0
    3.9500    2.2320   -0.1170 O   0  0  0  0  0  0  0  0  0  0  0  0
    2.6130    0.9280    1.1910 O   0  0  0  0  0  0  0  0  0  0  0  0
    2.1770    0.2270    0.0500 C   0  0  2  0  0  0  0  0  0  0  0  0
    0.6500    0.3370   -0.1060 C   0  0  0  0  0  0  0  0  0  0  0  0
    0.3910   -0.8000   -1.0590 C   0  0  2  0  0  0  0  0  0  0  0  0
   -1.0220   -1.2200   -1.2080 C   0  0  1  0  0  0  0  0  0  0  0  0
   -1.7940   -0.2850   -1.8380 O   0  0  0  0  0  0  0  0  0  0  0  0
   -3.0070    0.0020   -1.2860 C   0  0  0  0  0  0  0  0  0  0  0  0
   -2.9260    0.5560    0.0880 C   0  0  0  0  0  0  0  0  0  0  0  0
   -2.2210    1.7310    0.1000 O   0  0  0  0  0  0  0  0  0  0  0  0
   -2.1020    2.2850    1.2720 O   0  0  0  0  0  0  0  0  0  0  0  0
   -3.2080    2.9630    1.5790 O   0  0  0  0  0  0  0  0  0  0  0  0
   -0.9680   -2.5180   -2.0640 C   0  0  0  0  0  0  0  0  0  0  0  0
   -0.4400   -3.5060   -1.1930 O   0  0  0  0  0  0  0  0  0  0  0  0
    0.7720   -3.1840   -0.5690 C   0  0  0  0  0  0  0  0  0  0  0  0
    1.4500   -4.1680   -0.1380 O   0  0  0  0  0  0  0  0  0  0  0  0
    1.2020   -1.8480   -0.4330 N   0  0  0  0  0  0  0  0  0  0  0  0
    2.3070   -1.2460    0.2150 C   0  0  0  0  0  0  0  0  0  0  0  0
    3.2310   -1.8140    0.8170 O   0  0  0  0  0  0  0  0  0  0  0  0
  1  2  1  0
  2  3  2  0
  2  4  1  0
  5  4  1  1
  5  6  1  0
  5 20  1  0
  7  6  1  1
  7  8  1  0
  7 19  1  0
  8  9  1  6
  8 15  1  0
  9 10  1  0
 10 11  1  0
 11 12  1  0
 12 13  1  0
 13 14  1  0
 15 16  1  0
 16 17  1  0
 17 18  2  0
 17 19  1  0
 19 20  1  0
 20 21  2  0
M  END
