
     RDKit          3D

 21 21  0  0  0  0  0  0  0  0999 V2000
    4.0910   -1.6680    0.6870 O   0  0  0  0  0  0  0  0  0  0  0  0
    4.8350   -0.6770    0.6700 C   0  0  0  0  0  0  0  0  0  0  0  0
    6.2470   -0.8990    1.1170 C   0  0  0  0  0  0  0  0  0  0  0  0
    6.9970    0.2770    0.9110 O   0  0  0  0  0  0  0  0  0  0  0  0
    8.2210    0.0640    1.2660 O   0  0  0  0  0  0  0  0  0  0  0  0
    4.3610    0.5260    0.2600 O   0  0  0  0  0  0  0  0  0  0  0  0
    3.0300    0.6420   -0.1810 C   0  0  0  0  0  0  0  0  0  0  0  0
    2.2350   -0.2780   -0.2290 O   0  0  0  0  0  0  0  0  0  0  0  0
    2.6130    1.9320   -0.5820 O   0  0  0  0  0  0  0  0  0  0  0  0
    1.3020    2.0350   -1.0520 C   0  0  0  0  0  0  0  0  0  0  0  0
    0.2000    1.6300   -0.1700 C   0  0  0  0  0  0  0  0  0  0  0  0
    0.0400    2.2160    0.9460 O   0  0  0  0  0  0  0  0  0  0  0  0
   -0.6920    0.6440   -0.4780 O   0  0  0  0  0  0  0  0  0  0  0  0
   -1.8030    0.2710    0.2440 C   0  0  0  0  0  0  0  0  0  0  0  0
   -2.0850    0.9360    1.2530 O   0  0  0  0  0  0  0  0  0  0  0  0
   -2.6430   -0.8770   -0.1640 C   0  0  1  0  0  0  0  0  0  0  0  0
   -3.6780   -1.1150    0.9750 C   0  0  0  0  0  0  0  0  0  0  0  0
   -5.0130   -1.2690    0.4940 N   0  0  0  0  0  0  0  0  0  0  0  0
   -5.5070   -0.2270   -0.3560 C   0  0  0  0  0  0  0  0  0  0  0  0
   -4.4940    0.1590   -1.4180 C   0  0  0  0  0  0  0  0  0  0  0  0
   -3.3720   -0.6770   -1.3460 N   0  0  0  0  0  0  0  0  0  0  0  0
  1  2  2  0
  2  3  1  0
  2  6  1  0
  3  4  1  0
  4  5  1  0
  6  7  1  0
  7  8  2  0
  7  9  1  0
  9 10  1  0
 10 11  1  0
 11 12  2  0
 11 13  1  0
 13 14  1  0
 14 15  2  0
 16 14  1  1
 16 17  1  0
 16 21  1  0
 17 18  1  0
 18 19  1  0
 19 20  1  0
 20 21  1  0
M  END
