
     RDKit          3D

 14 13  0  0  0  0  0  0  0  0999 V2000
    3.7610    1.6860   -0.4200 O   0  0  0  0  0  0  0  0  0  0  0  0
    4.2990    0.6290   -0.0930 C   0  0  0  0  0  0  0  0  0  0  0  0
    5.3630    0.0650   -0.6190 O   0  0  0  0  0  0  0  0  0  0  0  0
    3.6570   -0.1290    1.0790 C   0  0  0  0  0  0  0  0  0  0  0  0
    1.9850   -0.5680    0.5580 P   0  0  0  0  0  0  0  0  0  0  0  0
    1.6780   -1.8350   -0.4630 O   0  0  0  0  0  0  0  0  0  0  0  0
    0.7900    0.5750    0.8460 O   0  0  0  0  0  0  0  0  0  0  0  0
   -0.2820    0.3410   -0.0110 C   0  0  0  0  0  0  0  0  0  0  0  0
   -1.3450    0.1560    1.1730 C   0  0  0  0  0  0  0  0  0  0  0  0
   -2.5310   -0.1930    0.5230 O   0  0  0  0  0  0  0  0  0  0  0  0
   -3.5240    0.7000    0.1230 C   0  0  0  0  0  0  0  0  0  0  0  0
   -3.3660    1.9090    0.3810 O   0  0  0  0  0  0  0  0  0  0  0  0
   -4.7210    0.1740   -0.5950 C   0  0  0  0  0  0  0  0  0  0  0  0
   -4.2900   -1.1210   -1.1380 O   0  0  0  0  0  0  0  0  0  0  0  0
  1  2  2  0
  2  3  1  0
  2  4  1  0
  4  5  1  0
  5  6  1  0
  5  7  1  0
  7  8  1  0
  8  9  1  0
  9 10  1  0
 10 11  1  0
 11 12  2  0
 11 13  1  0
 13 14  1  0
M  END
