
     RDKit          3D

 21 22  0  0  0  0  0  0  0  0999 V2000
    0.4230   -1.7420    0.5170 O   0  0  0  0  0  0  0  0  0  0  0  0
   -0.4490   -0.8690    0.2740 C   0  0  0  0  0  0  0  0  0  0  0  0
   -0.2190    0.4850    0.6480 N   0  0  0  0  0  0  0  0  0  0  0  0
    0.9790    0.9320    1.3040 C   0  0  0  0  0  0  0  0  0  0  0  0
    2.2300    0.6690    0.4790 C   0  0  0  0  0  0  0  0  0  0  0  0
    3.3030    1.1480    1.2320 O   0  0  0  0  0  0  0  0  0  0  0  0
    4.8180    0.9440    0.4700 P   0  0  0  0  0  0  0  0  0  0  0  0
    5.3070    2.2940   -0.4750 O   0  0  0  0  0  0  0  0  0  0  0  0
    4.9540   -0.6590   -0.4460 C   0  0  0  0  0  0  0  0  0  0  0  0
    5.9470   -0.6150   -1.4200 O   0  0  0  0  0  0  0  0  0  0  0  0
   -1.6890   -1.3300   -0.4050 C   0  0  1  0  0  0  0  0  0  0  0  0
   -2.3850   -2.2810    0.5470 C   0  0  0  0  0  0  0  0  0  0  0  0
   -2.8640   -1.6780    1.6790 O   0  0  0  0  0  0  0  0  0  0  0  0
   -3.0460   -0.4040    1.6080 O   0  0  0  0  0  0  0  0  0  0  0  0
   -3.6320   -0.0500    0.3940 C   0  0  1  0  0  0  0  0  0  0  0  0
   -4.7700   -0.8040    0.1140 O   0  0  0  0  0  0  0  0  0  0  0  0
   -3.9140    1.4160    0.3210 C   0  0  0  0  0  0  0  0  0  0  0  0
   -3.6180    1.7280   -1.0300 O   0  0  0  0  0  0  0  0  0  0  0  0
   -2.8110    0.7660   -1.5880 C   0  0  0  0  0  0  0  0  0  0  0  0
   -2.3030    0.7210   -2.7520 O   0  0  0  0  0  0  0  0  0  0  0  0
   -2.6130   -0.2270   -0.6250 N   0  0  0  0  0  0  0  0  0  0  0  0
  1  2  2  0
  2  3  1  0
 11  2  1  1
  3  4  1  0
  4  5  1  0
  5  6  1  0
  6  7  1  0
  7  8  1  0
  7  9  1  0
  9 10  1  0
 11 12  1  0
 11 21  1  0
 12 13  1  0
 13 14  1  0
 14 15  1  0
 15 16  1  6
 15 17  1  0
 15 21  1  0
 17 18  1  0
 18 19  1  0
 19 20  2  0
 19 21  1  0
M  END
