
     RDKit          3D

 10  9  0  0  0  0  0  0  0  0999 V2000
   -1.0130   -0.1480    1.5440 C   0  0  0  0  0  0  0  0  0  0  0  0
   -1.1420   -0.1190    0.0650 C   0  0  0  0  0  0  0  0  0  0  0  0
   -2.0820   -0.8280   -0.5280 C   0  0  0  0  0  0  0  0  0  0  0  0
   -2.9310   -1.5910    0.2690 O   0  0  0  0  0  0  0  0  0  0  0  0
   -0.2750    0.6600   -0.7470 N   0  0  0  0  0  0  0  0  0  0  0  0
    0.9760    0.7830   -0.5400 C   0  0  0  0  0  0  0  0  0  0  0  0
    1.7950    1.5960   -1.4150 C   0  0  0  0  0  0  0  0  0  0  0  0
    3.0720    1.7470   -1.2390 N   0  0  0  0  0  0  0  0  0  0  0  0
    3.9750    0.9760    0.0960 P   0  0  0  0  0  0  0  0  0  0  0  0
    3.6310   -0.5010    0.4340 O   0  0  0  0  0  0  0  0  0  0  0  0
  1  2  1  0
  2  3  2  3
  2  5  1  0
  3  4  1  0
  5  6  2  3
  6  7  1  0
  7  8  2  3
  8  9  1  0
  9 10  2  0
M  END
