
     RDKit          3D

 22 23  0  0  0  0  0  0  0  0999 V2000
   -4.0890    1.3400   -0.4370 C   0  0  0  0  0  0  0  0  0  0  0  0
   -3.1560    0.5920   -1.2500 N   0  0  0  0  0  0  0  0  0  0  0  0
   -2.3230    1.5270   -2.0230 C   0  0  0  0  0  0  0  0  0  0  0  0
   -1.2810    0.6340   -2.3740 O   0  0  0  0  0  0  0  0  0  0  0  0
   -0.9550    0.1710   -1.1760 N   0  0  0  0  0  0  0  0  0  0  0  0
    0.2580   -0.0980   -0.5130 C   0  0  0  0  0  0  0  0  0  0  0  0
    1.3840   -0.4750   -1.0330 C   0  0  0  0  0  0  0  0  0  0  0  0
    1.6390   -0.7120   -2.4500 C   0  0  0  0  0  0  0  0  0  0  0  0
    0.5940   -0.5500   -3.3720 N   0  0  0  0  0  0  0  0  0  0  0  0
    2.5710   -0.6930   -0.1050 C   0  0  1  0  0  0  0  0  0  0  0  0
    3.6190    0.1470   -0.4380 O   0  0  0  0  0  0  0  0  0  0  0  0
    2.2050   -0.4620    1.2210 O   0  0  0  0  0  0  0  0  0  0  0  0
    3.1460   -0.6090    2.2110 C   0  0  0  0  0  0  0  0  0  0  0  0
    4.0030   -1.6780    2.2220 O   0  0  0  0  0  0  0  0  0  0  0  0
    3.2460    0.5250    3.4100 P   0  0  0  0  0  0  0  0  0  0  0  0
    0.1520    0.0900    0.9020 O   0  0  0  0  0  0  0  0  0  0  0  0
   -1.1110   -0.1930    1.4600 C   0  0  1  0  0  0  0  0  0  0  0  0
   -1.1440    0.1250    2.8450 O   0  0  0  0  0  0  0  0  0  0  0  0
   -1.4080   -0.9060    3.7340 C   0  0  0  0  0  0  0  0  0  0  0  0
   -1.6080   -2.0790    3.2890 O   0  0  0  0  0  0  0  0  0  0  0  0
   -2.0810    0.5110    0.7580 O   0  0  0  0  0  0  0  0  0  0  0  0
   -2.1770   -0.0470   -0.4830 N   0  0  0  0  0  0  0  0  0  0  0  0
  1  2  1  0
  2  3  1  0
  2 22  1  0
  3  4  1  0
  4  5  1  0
  5  6  1  0
  5 22  1  0
  6  7  2  3
  6 16  1  0
  7  8  1  0
  7 10  1  0
  8  9  1  0
 10 11  1  6
 10 12  1  0
 12 13  1  0
 13 14  1  0
 13 15  2  0
 16 17  1  0
 17 18  1  1
 17 21  1  0
 18 19  1  0
 19 20  2  0
 21 22  1  0
M  END
