
     RDKit          3D

 24 26  0  0  0  0  0  0  0  0999 V2000
   -0.3100   -2.5620   -2.6490 O   0  0  0  0  0  0  0  0  0  0  0  0
   -0.1820   -1.7930   -1.6590 C   0  0  0  0  0  0  0  0  0  0  0  0
   -1.1350   -1.8580   -0.5180 C   0  0  0  0  0  0  0  0  0  0  0  0
   -1.2960   -0.5020   -0.0310 N   0  0  0  0  0  0  0  0  0  0  0  0
   -2.5130   -0.0740    0.3820 O   0  0  0  0  0  0  0  0  0  0  0  0
   -3.6690   -1.3350    0.3950 P   0  0  0  0  0  0  0  0  0  0  0  0
   -3.0870   -2.7810    1.1390 O   0  0  0  0  0  0  0  0  0  0  0  0
   -4.3260   -1.6400   -1.1850 O   0  0  0  0  0  0  0  0  0  0  0  0
   -0.1860    0.3800    0.0160 C   0  0  0  0  0  0  0  0  0  0  0  0
   -0.3880    1.9520    0.4930 P   0  0  0  0  0  0  0  0  0  0  0  0
   -2.0870    2.5260    0.9610 C   0  0  0  0  0  0  0  0  0  0  0  0
   -2.1040    3.9180    1.1430 O   0  0  0  0  0  0  0  0  0  0  0  0
   -3.3020    4.3320    1.4740 O   0  0  0  0  0  0  0  0  0  0  0  0
    1.1800   -0.1400   -0.3760 C   0  0  2  0  0  0  0  0  0  0  0  0
    1.5660   -1.1090    0.5700 N   0  0  0  0  0  0  0  0  0  0  0  0
    3.0300   -0.4400    1.4080 P   0  0  0  0  0  0  0  0  0  0  0  0
    4.4330   -1.3560    0.9620 O   0  0  0  0  0  0  0  0  0  0  0  0
    2.9620    1.1770    0.4560 C   0  0  1  0  0  0  0  0  0  0  0  0
    4.0720    1.3600   -0.4860 C   0  0  0  0  0  0  0  0  0  0  0  0
    5.1550    1.8940   -0.5500 O   0  0  0  0  0  0  0  0  0  0  0  0
    3.2420    0.5370   -1.4310 C   0  0  0  0  0  0  0  0  0  0  0  0
    2.1060    0.8670   -0.5950 N   0  0  0  0  0  0  0  0  0  0  0  0
    0.9230   -0.8440   -1.6690 C   0  0  0  0  0  0  0  0  0  0  0  0
    1.5980   -0.6520   -2.7100 O   0  0  0  0  0  0  0  0  0  0  0  0
  1  2  2  0
  2  3  1  0
  2 23  1  0
  3  4  1  0
  4  5  1  0
  4  9  1  0
  5  6  1  0
  6  7  1  0
  6  8  1  0
  9 10  2  3
  9 14  1  0
 10 11  1  0
 11 12  1  0
 12 13  1  0
 14 15  1  1
 14 22  1  0
 14 23  1  0
 15 16  1  0
 16 17  1  0
 18 16  1  1
 18 19  1  0
 18 22  1  0
 19 20  2  0
 19 21  1  0
 21 22  1  0
 23 24  2  0
M  END
