
     RDKit          3D

 23 26  0  0  0  0  0  0  0  0999 V2000
   -0.7700    3.4050   -0.9330 C   0  0  0  0  0  0  0  0  0  0  0  0
   -0.1560    2.1970   -0.4090 N   0  0  0  0  0  0  0  0  0  0  0  0
   -0.8430    1.0720   -0.9970 C   0  0  0  0  0  0  0  0  0  0  0  0
   -0.5630   -0.2440   -0.4160 C   0  0  1  0  0  0  0  0  0  0  0  0
   -0.6540   -0.4880    1.0470 C   0  0  0  0  0  0  0  0  0  0  0  0
   -1.4170   -1.6690    0.8720 O   0  0  0  0  0  0  0  0  0  0  0  0
   -1.6170   -1.2740   -0.4700 C   0  0  1  0  0  0  0  0  0  0  0  0
   -3.0440   -1.0370   -0.6830 C   0  0  2  0  0  0  0  0  0  0  0  0
   -3.6520   -2.3300   -0.4860 O   0  0  0  0  0  0  0  0  0  0  0  0
   -3.4490   -0.6930   -1.9450 O   0  0  0  0  0  0  0  0  0  0  0  0
   -3.7670   -0.2570    0.4150 C   0  0  0  0  0  0  0  0  0  0  0  0
   -3.5110   -0.8630    1.6290 O   0  0  0  0  0  0  0  0  0  0  0  0
    0.6410   -0.8080   -0.8570 O   0  0  0  0  0  0  0  0  0  0  0  0
    2.0350    0.0390   -0.8640 P   0  0  0  0  0  0  0  0  0  0  0  0
    2.8820    0.3560    0.7650 C   0  0  1  0  0  0  0  0  0  0  0  0
    3.8730   -0.6240    1.0730 N   0  0  0  0  0  0  0  0  0  0  0  0
    3.3300   -1.9690    1.1510 C   0  0  0  0  0  0  0  0  0  0  0  0
    3.1650   -2.4080   -0.1590 O   0  0  0  0  0  0  0  0  0  0  0  0
    4.3870   -2.5310   -0.6870 O   0  0  0  0  0  0  0  0  0  0  0  0
    4.9740   -0.8990   -0.3570 P   0  0  0  0  0  0  0  0  0  0  0  0
    3.4910    1.6560    0.4510 N   0  0  0  0  0  0  0  0  0  0  0  0
    2.4880    2.5790    0.4870 O   0  0  0  0  0  0  0  0  0  0  0  0
    1.5710    2.2430   -0.9940 P   0  0  0  0  0  0  0  0  0  0  0  0
  1  2  1  0
  2  3  1  0
  2 23  1  0
  4  3  1  1
  4  5  1  0
  4  7  1  0
  4 13  1  0
  5  6  1  0
  7  6  1  1
  7  8  1  0
  8  9  1  1
  8 10  1  0
  8 11  1  0
 11 12  1  0
 13 14  1  0
 14 15  1  0
 14 23  1  0
 15 16  1  6
 15 21  1  0
 16 17  1  0
 16 20  1  0
 17 18  1  0
 18 19  1  0
 19 20  1  0
 21 22  1  0
 22 23  1  0
M  END
