
     RDKit          3D

 24 25  0  0  0  0  0  0  0  0999 V2000
   -4.2340    1.3740   -0.6590 C   0  0  0  0  0  0  0  0  0  0  0  0
   -3.3000    1.3000    0.5210 C   0  0  0  0  0  0  0  0  0  0  0  0
   -2.6500    0.0550    0.6820 N   0  0  0  0  0  0  0  0  0  0  0  0
   -1.6950   -0.2830   -0.3150 C   0  0  1  0  0  0  0  0  0  0  0  0
   -0.7200    0.6990   -0.3580 O   0  0  0  0  0  0  0  0  0  0  0  0
    0.4900    0.1040   -0.0340 C   0  0  2  0  0  0  0  0  0  0  0  0
    1.8600    0.7990   -1.1000 P   0  0  0  0  0  0  0  0  0  0  0  0
    1.3070    2.3620   -1.6980 N   0  0  0  0  0  0  0  0  0  0  0  0
    2.1290    3.4730   -1.4080 C   0  0  0  0  0  0  0  0  0  0  0  0
    3.1390    3.3190   -0.3410 C   0  0  0  0  0  0  0  0  0  0  0  0
    2.9390    2.2560    0.5180 O   0  0  0  0  0  0  0  0  0  0  0  0
    3.2130    1.0830   -0.0500 O   0  0  0  0  0  0  0  0  0  0  0  0
    0.2500   -1.2840   -0.3120 N   0  0  0  0  0  0  0  0  0  0  0  0
    1.1630   -2.2540   -0.7610 C   0  0  0  0  0  0  0  0  0  0  0  0
    2.0760   -2.7300    0.0590 C   0  0  0  0  0  0  0  0  0  0  0  0
    2.1080   -2.2550    1.3590 O   0  0  0  0  0  0  0  0  0  0  0  0
    2.8090   -2.9800    2.3540 C   0  0  0  0  0  0  0  0  0  0  0  0
    1.1280   -2.8900   -2.4800 P   0  0  0  0  0  0  0  0  0  0  0  0
    0.3220   -1.7890   -3.5340 O   0  0  0  0  0  0  0  0  0  0  0  0
    0.2690   -4.4000   -2.5100 O   0  0  0  0  0  0  0  0  0  0  0  0
   -1.0520   -1.4920   -0.0560 O   0  0  0  0  0  0  0  0  0  0  0  0
   -2.3240   -0.4840    2.3190 P   0  0  0  0  0  0  0  0  0  0  0  0
   -3.4660   -1.6560    2.8950 O   0  0  0  0  0  0  0  0  0  0  0  0
   -2.2600    0.8950    3.3780 O   0  0  0  0  0  0  0  0  0  0  0  0
  1  2  1  0
  2  3  1  0
  4  3  1  1
  3 22  1  0
  4  5  1  0
  4 21  1  0
  5  6  1  0
  6  7  1  6
  6 13  1  0
  7  8  1  0
  7 12  1  0
  8  9  1  0
  9 10  1  0
 10 11  1  0
 11 12  1  0
 13 14  1  0
 13 21  1  0
 14 15  2  3
 14 18  1  0
 15 16  1  0
 16 17  1  0
 18 19  1  0
 18 20  1  0
 22 23  1  0
 22 24  1  0
M  END
