
     RDKit          3D

 16 16  0  0  0  0  0  0  0  0999 V2000
   -4.3670    0.0250    0.4640 O   0  0  0  0  0  0  0  0  0  0  0  0
   -3.2650    0.8820    0.4540 C   0  0  0  0  0  0  0  0  0  0  0  0
   -2.1890    0.3900   -0.5050 C   0  0  1  0  0  0  0  0  0  0  0  0
   -2.6900    0.5670   -1.7980 O   0  0  0  0  0  0  0  0  0  0  0  0
   -1.0540    1.1170   -0.3760 O   0  0  0  0  0  0  0  0  0  0  0  0
    0.0140    0.3000   -0.1750 C   0  0  2  0  0  0  0  0  0  0  0  0
    1.0890    0.4100   -1.2400 C   0  0  0  0  0  0  0  0  0  0  0  0
    2.1100   -0.4100   -0.8320 O   0  0  0  0  0  0  0  0  0  0  0  0
    3.4910    0.4220   -0.3890 P   0  0  0  0  0  0  0  0  0  0  0  0
    4.9570   -0.1800   -0.6280 O   0  0  0  0  0  0  0  0  0  0  0  0
    3.2630   -0.1550    1.0160 O   0  0  0  0  0  0  0  0  0  0  0  0
    3.2880    1.9850    0.1340 O   0  0  0  0  0  0  0  0  0  0  0  0
   -0.4160   -1.0950    0.0350 C   0  0  1  0  0  0  0  0  0  0  0  0
   -0.1270   -1.5430    1.3340 O   0  0  0  0  0  0  0  0  0  0  0  0
   -1.9010   -1.0590   -0.2040 C   0  0  2  0  0  0  0  0  0  0  0  0
   -2.2750   -1.9130   -1.2470 O   0  0  0  0  0  0  0  0  0  0  0  0
  1  2  1  0
  2  3  1  0
  3  4  1  6
  3  5  1  0
  3 15  1  0
  5  6  1  0
  6  7  1  6
  6 13  1  0
  7  8  1  0
  8  9  1  0
  9 10  1  0
  9 11  1  0
  9 12  1  0
 13 14  1  1
 13 15  1  0
 15 16  1  6
M  END
