
     RDKit          3D

 10 10  0  0  0  0  0  0  0  0999 V2000
   -0.0040   -1.4840    1.4860 C   0  0  0  0  0  0  0  0  0  0  0  0
    0.3940   -0.5300    0.6840 C   0  0  0  0  0  0  0  0  0  0  0  0
    1.7240   -0.1260    0.7680 O   0  0  0  0  0  0  0  0  0  0  0  0
    2.8020   -1.0150    0.5430 C   0  0  0  0  0  0  0  0  0  0  0  0
   -0.5480    0.0780   -0.2640 C   0  0  1  0  0  0  0  0  0  0  0  0
   -0.1830   -0.0880   -1.6420 N   0  0  0  0  0  0  0  0  0  0  0  0
   -1.9250   -0.2510    0.1010 O   0  0  0  0  0  0  0  0  0  0  0  0
   -1.5290    1.0650    0.0720 C   0  0  2  0  0  0  0  0  0  0  0  0
   -2.1250    1.8210   -1.0270 N   0  0  0  0  0  0  0  0  0  0  0  0
   -1.3940    1.7860    1.2450 O   0  0  0  0  0  0  0  0  0  0  0  0
  1  2  2  0
  2  3  1  0
  2  5  1  0
  3  4  1  0
  5  6  1  6
  5  7  1  0
  5  8  1  0
  7  8  1  0
  8  9  1  6
  8 10  1  0
M  END
