
     RDKit          3D

 24 25  0  0  0  0  0  0  0  0999 V2000
   -2.6990    0.1600   -1.7500 N   0  0  0  0  0  0  0  0  0  0  0  0
   -2.7610    0.2610   -0.3250 C   0  0  2  0  0  0  0  0  0  0  0  0
   -4.0760    0.5990    0.1770 N   0  0  0  0  0  0  0  0  0  0  0  0
   -5.0240   -0.3190   -0.1650 O   0  0  0  0  0  0  0  0  0  0  0  0
   -6.2830   -0.1880    0.4000 C   0  0  0  0  0  0  0  0  0  0  0  0
   -6.5630    0.7410    1.2040 O   0  0  0  0  0  0  0  0  0  0  0  0
   -7.3280   -1.0800    0.1140 O   0  0  0  0  0  0  0  0  0  0  0  0
   -1.8340    1.2630    0.1670 N   0  0  0  0  0  0  0  0  0  0  0  0
   -0.6120    1.1390   -0.6060 C   0  0  0  0  0  0  0  0  0  0  0  0
   -0.0780   -0.2600   -0.4910 C   0  0  1  0  0  0  0  0  0  0  0  0
    1.3140   -0.2270    0.0290 C   0  0  0  0  0  0  0  0  0  0  0  0
    2.3180   -0.5980   -0.7430 C   0  0  0  0  0  0  0  0  0  0  0  0
    3.7150   -0.5890   -0.2920 C   0  0  0  0  0  0  0  0  0  0  0  0
    4.2210   -0.1220    1.2140 P   0  0  0  0  0  0  0  0  0  0  0  0
    5.8790   -0.1250    1.7070 O   0  0  0  0  0  0  0  0  0  0  0  0
    6.7940   -0.1770    0.2330 P   0  0  0  0  0  0  0  0  0  0  0  0
    5.9580   -1.4950   -0.8150 C   0  0  0  0  0  0  0  0  0  0  0  0
    4.6970   -0.9960   -1.1720 O   0  0  0  0  0  0  0  0  0  0  0  0
    1.6150    0.3300    1.7320 P   0  0  0  0  0  0  0  0  0  0  0  0
    2.0420    1.9980    1.8030 O   0  0  0  0  0  0  0  0  0  0  0  0
    0.2750    0.0540    2.7780 O   0  0  0  0  0  0  0  0  0  0  0  0
   -0.9450   -1.1560    0.3010 C   0  0  0  0  0  0  0  0  0  0  0  0
   -0.4520   -2.0440    1.0170 O   0  0  0  0  0  0  0  0  0  0  0  0
   -2.3130   -0.9860    0.2300 O   0  0  0  0  0  0  0  0  0  0  0  0
  2  1  1  6
  2  3  1  0
  2  8  1  0
  2 24  1  0
  3  4  1  0
  4  5  1  0
  5  6  2  0
  5  7  1  0
  8  9  1  0
  9 10  1  0
 10 11  1  1
 10 22  1  0
 11 12  2  3
 11 19  1  0
 12 13  1  0
 13 14  2  0
 13 18  1  0
 14 15  1  0
 15 16  1  0
 16 17  1  0
 17 18  1  0
 19 20  1  0
 19 21  1  0
 22 23  2  0
 22 24  1  0
M  END
