
     RDKit          3D

 24 26  0  0  0  0  0  0  0  0999 V2000
   -0.3730   -0.3300    2.1140 N   0  0  0  0  0  0  0  0  0  0  0  0
   -1.2400   -0.5360    1.0180 C   0  0  0  0  0  0  0  0  0  0  0  0
   -2.4100    0.1010    1.0590 C   0  0  0  0  0  0  0  0  0  0  0  0
   -3.0350    1.0130    2.0310 C   0  0  0  0  0  0  0  0  0  0  0  0
   -4.4650    0.6410    1.9070 C   0  0  0  0  0  0  0  0  0  0  0  0
   -5.3590    0.7960    2.7700 O   0  0  0  0  0  0  0  0  0  0  0  0
   -4.6390    0.0850    0.6530 O   0  0  0  0  0  0  0  0  0  0  0  0
   -3.3970   -0.0450   -0.0150 C   0  0  2  0  0  0  0  0  0  0  0  0
   -3.2680   -1.5970   -0.9810 P   0  0  0  0  0  0  0  0  0  0  0  0
   -3.2880   -1.3450   -2.6770 O   0  0  0  0  0  0  0  0  0  0  0  0
   -1.7760   -2.3220   -0.5280 O   0  0  0  0  0  0  0  0  0  0  0  0
   -0.8890   -1.3870   -0.0370 N   0  0  0  0  0  0  0  0  0  0  0  0
    0.3560   -1.3750   -0.6380 C   0  0  0  0  0  0  0  0  0  0  0  0
    0.5990   -2.2930   -1.5370 O   0  0  0  0  0  0  0  0  0  0  0  0
    1.5210   -0.4970   -0.4690 C   0  0  2  0  0  0  0  0  0  0  0  0
    2.6290   -1.3030    0.2150 C   0  0  0  0  0  0  0  0  0  0  0  0
    2.9640   -2.3520   -0.6340 O   0  0  0  0  0  0  0  0  0  0  0  0
    1.1880    0.5410    0.3690 O   0  0  0  0  0  0  0  0  0  0  0  0
    2.6030    1.5780    0.1980 P   0  0  0  0  0  0  0  0  0  0  0  0
    2.0820    3.2300    0.1990 O   0  0  0  0  0  0  0  0  0  0  0  0
    2.9980    1.0480   -1.5040 N   0  0  0  0  0  0  0  0  0  0  0  0
    4.2400    1.6710   -2.5990 P   0  0  0  0  0  0  0  0  0  0  0  0
    2.0600    0.0130   -1.7270 C   0  0  0  0  0  0  0  0  0  0  0  0
    1.7350   -0.4110   -2.8570 O   0  0  0  0  0  0  0  0  0  0  0  0
  1  2  1  0
  2  3  2  0
  2 12  1  0
  3  4  1  0
  3  8  1  0
  4  5  1  0
  5  6  2  0
  5  7  1  0
  8  7  1  1
  8  9  1  0
  9 10  1  0
  9 11  1  0
 11 12  1  0
 12 13  1  0
 13 14  2  0
 13 15  1  0
 15 16  1  1
 15 18  1  0
 15 23  1  0
 16 17  1  0
 18 19  1  0
 19 20  1  0
 19 21  1  0
 21 22  1  0
 21 23  1  0
 23 24  2  0
M  END
