
     RDKit          3D

 24 27  0  0  0  0  0  0  0  0999 V2000
   -0.2660   -2.6500    1.6050 O   0  0  0  0  0  0  0  0  0  0  0  0
   -0.1560   -1.8850    0.4580 C   0  0  2  0  0  0  0  0  0  0  0  0
    0.8210   -0.8840    0.5960 O   0  0  0  0  0  0  0  0  0  0  0  0
    0.9040   -0.2290   -0.6330 C   0  0  2  0  0  0  0  0  0  0  0  0
    1.2180   -1.4460   -1.9520 P   0  0  0  0  0  0  0  0  0  0  0  0
    2.9840   -2.0510   -1.8410 C   0  0  0  0  0  0  0  0  0  0  0  0
    3.4230   -2.1490   -0.5430 O   0  0  0  0  0  0  0  0  0  0  0  0
    4.0160   -0.6070    0.0600 P   0  0  0  0  0  0  0  0  0  0  0  0
    3.9930   -0.7220    1.7930 O   0  0  0  0  0  0  0  0  0  0  0  0
    2.4380    0.8560   -0.5080 P   0  0  0  0  0  0  0  0  0  0  0  0
    2.0600    1.9990    0.9060 C   0  0  1  0  0  0  0  0  0  0  0  0
    2.7770    3.1690    0.8430 O   0  0  0  0  0  0  0  0  0  0  0  0
    0.5470    2.2540    0.8450 C   0  0  0  0  0  0  0  0  0  0  0  0
    0.0110    1.9990   -0.5390 C   0  0  0  0  0  0  0  0  0  0  0  0
   -0.2110    0.6420   -0.8610 N   0  0  0  0  0  0  0  0  0  0  0  0
   -1.4220    0.1140   -0.4850 N   0  0  0  0  0  0  0  0  0  0  0  0
   -1.4360   -1.1400    0.1820 C   0  0  0  0  0  0  0  0  0  0  0  0
   -2.5570   -1.7020    0.5850 C   0  0  0  0  0  0  0  0  0  0  0  0
   -3.7640   -0.9680    0.3080 N   0  0  0  0  0  0  0  0  0  0  0  0
   -4.8500   -1.1520    1.1180 O   0  0  0  0  0  0  0  0  0  0  0  0
   -3.7510   -0.1400   -0.7380 O   0  0  0  0  0  0  0  0  0  0  0  0
   -2.6890    0.7610   -0.7310 C   0  0  2  0  0  0  0  0  0  0  0  0
   -2.7090    1.4190   -1.9640 O   0  0  0  0  0  0  0  0  0  0  0  0
   -2.8450    1.7220    0.2900 O   0  0  0  0  0  0  0  0  0  0  0  0
  2  1  1  1
  2  3  1  0
  2 17  1  0
  4  3  1  1
  4  5  1  0
  4 10  1  0
  4 15  1  0
  5  6  1  0
  6  7  1  0
  7  8  1  0
  8  9  1  0
  8 10  1  0
 10 11  1  0
 11 12  1  6
 11 13  1  0
 13 14  1  0
 14 15  1  0
 15 16  1  0
 16 17  1  0
 16 22  1  0
 17 18  2  0
 18 19  1  0
 19 20  1  0
 19 21  1  0
 21 22  1  0
 22 23  1  6
 22 24  1  0
M  END
