
     RDKit          3D

 39 42  0  0  0  0  0  0  0  0999 V2000
    8.3790    0.2930    2.4970 N   0  0  0  0  0  0  0  0  0  0  0  0
    7.1910    0.6260    3.1860 C   0  0  0  0  0  0  0  0  0  0  0  0
    6.8540    1.8570    3.4750 C   0  0  0  0  0  0  0  0  0  0  0  0
    7.6450    2.9550    3.1230 O   0  0  0  0  0  0  0  0  0  0  0  0
    6.2930   -0.5010    3.5960 C   0  0  0  0  0  0  0  0  0  0  0  0
    5.9050   -1.1860    2.3840 N   0  0  0  0  0  0  0  0  0  0  0  0
    5.2120   -0.5520    1.3250 C   0  0  0  0  0  0  0  0  0  0  0  0
    4.9040    0.6460    1.3990 O   0  0  0  0  0  0  0  0  0  0  0  0
    4.8580   -1.3370    0.1260 C   0  0  0  0  0  0  0  0  0  0  0  0
    4.2200   -0.6010   -0.8800 O   0  0  0  0  0  0  0  0  0  0  0  0
    3.0430    0.0860   -0.7900 C   0  0  0  0  0  0  0  0  0  0  0  0
    2.4400    0.0800    0.3080 O   0  0  0  0  0  0  0  0  0  0  0  0
    2.4990    0.7920   -1.8740 N   0  0  0  0  0  0  0  0  0  0  0  0
    3.0230    0.9340   -3.2430 C   0  0  0  0  0  0  0  0  0  0  0  0
    2.6040    2.3400   -3.6540 C   0  0  0  0  0  0  0  0  0  0  0  0
    1.6930    2.8400   -2.5750 C   0  0  0  0  0  0  0  0  0  0  0  0
    1.2730    1.5620   -1.8830 C   0  0  1  0  0  0  0  0  0  0  0  0
    0.2390    0.8020   -2.5890 C   0  0  0  0  0  0  0  0  0  0  0  0
    0.3370   -0.4390   -2.6950 O   0  0  0  0  0  0  0  0  0  0  0  0
   -0.8830    1.4530   -3.1650 N   0  0  0  0  0  0  0  0  0  0  0  0
   -1.9350    0.7230   -3.8710 C   0  0  0  0  0  0  0  0  0  0  0  0
   -2.6040   -0.1380   -2.9230 C   0  0  0  0  0  0  0  0  0  0  0  0
   -2.2760   -0.1630   -1.6970 O   0  0  0  0  0  0  0  0  0  0  0  0
   -3.6750   -1.0320   -3.2620 N   0  0  0  0  0  0  0  0  0  0  0  0
   -4.1910   -1.6540   -2.1450 C   0  0  0  0  0  0  0  0  0  0  0  0
   -4.6040   -2.5400   -1.6450 N   0  0  0  0  0  0  0  0  0  0  0  0
   -5.0970   -2.8370   -0.3510 C   0  0  0  0  0  0  0  0  0  0  0  0
   -5.2010   -1.9590    0.6600 C   0  0  0  0  0  0  0  0  0  0  0  0
   -5.7220   -2.5920    1.8510 C   0  0  0  0  0  0  0  0  0  0  0  0
   -6.2650   -2.0880    2.8640 O   0  0  0  0  0  0  0  0  0  0  0  0
   -5.4840   -4.0690    1.6520 C   0  0  0  0  0  0  0  0  0  0  0  0
   -5.5090   -4.1650    0.1500 C   0  0  0  0  0  0  0  0  0  0  0  0
   -4.9460   -0.5240    0.3810 C   0  0  2  0  0  0  0  0  0  0  0  0
   -5.6390    0.4520    1.2150 C   0  0  0  0  0  0  0  0  0  0  0  0
   -6.5830    1.3310    0.8420 C   0  0  0  0  0  0  0  0  0  0  0  0
   -7.0220    2.1380    1.9970 C   0  0  0  0  0  0  0  0  0  0  0  0
   -6.1850    1.5890    3.0980 C   0  0  0  0  0  0  0  0  0  0  0  0
   -5.4110    0.6340    2.6200 C   0  0  0  0  0  0  0  0  0  0  0  0
   -5.6210   -0.3290   -1.3650 S   0  0  0  0  0  0  0  0  0  0  0  0
  1  2  1  0
  2  3  2  3
  2  5  1  0
  3  4  1  0
  5  6  1  0
  6  7  1  0
  7  8  2  0
  7  9  1  0
  9 10  1  0
 10 11  1  0
 11 12  2  0
 11 13  1  0
 13 14  1  0
 13 17  1  0
 14 15  1  0
 15 16  1  0
 16 17  1  0
 17 18  1  6
 18 19  2  0
 18 20  1  0
 20 21  1  0
 21 22  1  0
 22 23  2  0
 22 24  1  0
 24 25  1  0
 25 26  2  0
 25 39  1  0
 26 27  1  0
 27 28  2  0
 27 32  1  0
 28 29  1  0
 28 33  1  0
 29 30  2  0
 29 31  1  0
 31 32  1  0
 33 34  1  1
 33 39  1  0
 34 35  2  0
 34 38  1  0
 35 36  1  0
 36 37  1  0
 37 38  2  0
M  CHG  1   1   1
M  END
