
     RDKit          3D

 39 42  0  0  0  0  0  0  0  0999 V2000
   -1.0140    3.3590    1.1250 C   0  0  0  0  0  0  0  0  0  0  0  0
   -1.9840    2.7280   -0.2210 S   0  0  0  0  0  0  0  0  0  0  0  0
   -2.1790    0.9940   -0.2940 C   0  0  0  0  0  0  0  0  0  0  0  0
   -1.9890    0.4010   -1.6280 N   0  0  0  0  0  0  0  0  0  0  0  0
   -2.5970    0.1980    0.6630 C   0  0  0  0  0  0  0  0  0  0  0  0
   -2.9870    0.6640    1.9640 C   0  0  0  0  0  0  0  0  0  0  0  0
   -3.0900    1.9930    2.4210 N   0  0  0  0  0  0  0  0  0  0  0  0
   -3.2980   -0.2260    2.8610 O   0  0  0  0  0  0  0  0  0  0  0  0
   -2.7470   -1.2690    0.3430 C   0  0  2  0  0  0  0  0  0  0  0  0
   -1.5700   -1.8220   -0.3880 C   0  0  0  0  0  0  0  0  0  0  0  0
   -0.3060   -1.3070    0.0980 C   0  0  0  0  0  0  0  0  0  0  0  0
   -0.3530   -0.4670    1.1080 O   0  0  0  0  0  0  0  0  0  0  0  0
    1.0020   -1.5350   -0.3120 N   0  0  0  0  0  0  0  0  0  0  0  0
    2.0930   -0.8940    0.3520 N   0  0  0  0  0  0  0  0  0  0  0  0
    2.2690   -0.6750    1.7330 C   0  0  0  0  0  0  0  0  0  0  0  0
    1.6230   -1.1240    2.7040 O   0  0  0  0  0  0  0  0  0  0  0  0
    3.4380    0.2540    1.9390 C   0  0  0  0  0  0  0  0  0  0  0  0
    4.2790    0.0090    0.6980 C   0  0  2  0  0  0  0  0  0  0  0  0
    5.0740    1.1450    0.3980 N   0  0  1  0  0  0  0  0  0  0  0  0
    6.1060    0.7490   -0.5510 C   0  0  0  0  0  0  0  0  0  0  0  0
    7.1750   -0.0460    0.0750 C   0  0  0  0  0  0  0  0  0  0  0  0
    7.1690   -0.3190    1.2790 O   0  0  0  0  0  0  0  0  0  0  0  0
    8.2110   -0.4920   -0.7270 O   0  0  0  0  0  0  0  0  0  0  0  0
    9.2240   -1.2230   -0.2330 F   0  0  0  0  0  0  0  0  0  0  0  0
    4.3730    2.2630   -0.1900 C   0  0  1  0  0  0  0  0  0  0  0  0
    3.9760    3.4320    0.6220 C   0  0  0  0  0  0  0  0  0  0  0  0
    5.1970    3.5270   -0.2810 C   0  0  0  0  0  0  0  0  0  0  0  0
    3.2360   -0.3430   -0.2860 C   0  0  0  0  0  0  0  0  0  0  0  0
    3.3140   -0.1890   -1.5460 O   0  0  0  0  0  0  0  0  0  0  0  0
   -1.7990   -2.6630   -1.3540 C   0  0  0  0  0  0  0  0  0  0  0  0
   -0.6440   -3.2420   -2.1030 C   0  0  0  0  0  0  0  0  0  0  0  0
   -3.1010   -3.0430   -1.8060 N   0  0  0  0  0  0  0  0  0  0  0  0
   -4.2510   -2.4990   -1.2080 C   0  0  0  0  0  0  0  0  0  0  0  0
   -5.5100   -2.8060   -1.6680 C   0  0  0  0  0  0  0  0  0  0  0  0
   -6.6360   -2.2240   -1.1250 C   0  0  0  0  0  0  0  0  0  0  0  0
   -6.4350   -1.3180   -0.0980 C   0  0  0  0  0  0  0  0  0  0  0  0
   -7.6240   -0.6680    0.5090 C   0  0  0  0  0  0  0  0  0  0  0  0
   -5.1630   -0.9970    0.3800 C   0  0  0  0  0  0  0  0  0  0  0  0
   -4.0510   -1.5790   -0.1610 C   0  0  0  0  0  0  0  0  0  0  0  0
  1  2  1  0
  2  3  1  0
  3  4  1  0
  3  5  2  3
  5  6  1  0
  9  5  1  6
  6  7  1  0
  6  8  2  0
  9 10  1  0
  9 39  1  0
 10 11  1  0
 10 30  2  0
 11 12  2  0
 11 13  1  0
 13 14  1  0
 14 15  1  0
 14 28  1  0
 15 16  2  0
 15 17  1  0
 18 17  1  1
 18 19  1  0
 18 28  1  0
 19 20  1  6
 19 25  1  0
 20 21  1  0
 21 22  2  0
 21 23  1  0
 23 24  1  0
 25 26  1  1
 25 27  1  0
 26 27  1  0
 28 29  2  0
 30 31  1  0
 30 32  1  0
 32 33  1  0
 33 34  2  0
 33 39  1  0
 34 35  1  0
 35 36  2  0
 36 37  1  0
 36 38  1  0
 38 39  2  0
M  CHG  1  19   1
M  END
