
     RDKit          3D

 39 41  0  0  0  0  0  0  0  0999 V2000
   10.0110   -1.7070   -0.0140 C   0  0  0  0  0  0  0  0  0  0  0  0
    9.9440   -0.5530    0.1680 C   0  0  0  0  0  0  0  0  0  0  0  0
    9.8290    0.9710    0.4060 C   0  0  0  0  0  0  0  0  0  0  0  0
    8.5420    1.3630    0.0210 N   0  0  0  0  0  0  0  0  0  0  0  0
    7.4210    0.4600    0.8260 C   0  0  0  0  0  0  0  0  0  0  0  0
    8.1290   -0.2630    1.5070 O   0  0  0  0  0  0  0  0  0  0  0  0
    6.3050    0.9070    0.3650 N   0  0  0  0  0  0  0  0  0  0  0  0
    5.1790    0.4690    1.8750 C   0  0  0  0  0  0  0  0  0  0  0  0
    5.8780    0.8470    2.4030 O   0  0  0  0  0  0  0  0  0  0  0  0
    4.0870   -0.1380    0.9260 C   0  0  0  0  0  0  0  0  0  0  0  0
    3.9520   -0.2640   -0.2700 C   0  0  0  0  0  0  0  0  0  0  0  0
    2.7710   -0.8870   -0.9990 C   0  0  2  0  0  0  0  0  0  0  0  0
    1.6520    0.0820   -1.2410 C   0  0  0  0  0  0  0  0  0  0  0  0
    0.5450   -0.4660   -1.9670 N   0  0  0  0  0  0  0  0  0  0  0  0
   -0.5100   -1.0820   -1.2900 C   0  0  1  0  0  0  0  0  0  0  0  0
   -1.7890   -0.2710   -1.2610 C   0  0  0  0  0  0  0  0  0  0  0  0
   -2.5570    0.1080   -0.3660 N   0  0  0  0  0  0  0  0  0  0  0  0
   -3.6680    0.7460   -0.5390 C   0  0  0  0  0  0  0  0  0  0  0  0
   -4.6070    1.1240    0.5900 C   0  0  0  0  0  0  0  0  0  0  0  0
   -4.3000    0.9370    1.7580 O   0  0  0  0  0  0  0  0  0  0  0  0
   -5.8610    1.6910    0.2670 N   0  0  0  0  0  0  0  0  0  0  0  0
   -6.8600    2.0700    1.2290 C   0  0  0  0  0  0  0  0  0  0  0  0
   -8.1830    2.0610    0.8200 C   0  0  0  0  0  0  0  0  0  0  0  0
   -9.2370    2.4760    1.6480 C   0  0  0  0  0  0  0  0  0  0  0  0
   -8.8780    2.9080    2.9410 C   0  0  0  0  0  0  0  0  0  0  0  0
   -9.9440    3.3340    3.7900 O   0  0  0  0  0  0  0  0  0  0  0  0
   -7.6240    2.9200    3.3330 C   0  0  0  0  0  0  0  0  0  0  0  0
   -7.2890    3.3530    4.5980 F   0  0  0  0  0  0  0  0  0  0  0  0
   -6.5510    2.4980    2.4940 C   0  0  0  0  0  0  0  0  0  0  0  0
   -4.0470    1.0380   -1.8280 C   0  0  0  0  0  0  0  0  0  0  0  0
   -2.6180    0.2830   -2.7360 S   0  0  0  0  0  0  0  0  0  0  0  0
   -0.8670   -2.4650   -1.8160 C   0  0  2  0  0  0  0  0  0  0  0  0
   -1.2130   -2.4630   -3.2940 C   0  0  0  0  0  0  0  0  0  0  0  0
   -2.2560   -2.7810   -1.1680 C   0  0  0  0  0  0  0  0  0  0  0  0
    2.4130   -2.0560   -0.2000 C   0  0  0  0  0  0  0  0  0  0  0  0
    2.1100   -3.1750   -0.7590 O   0  0  0  0  0  0  0  0  0  0  0  0
    2.4020   -1.9630    1.2090 N   0  0  0  0  0  0  0  0  0  0  0  0
    3.2290   -1.0320    1.8590 C   0  0  0  0  0  0  0  0  0  0  0  0
    3.3220   -0.8780    3.0690 O   0  0  0  0  0  0  0  0  0  0  0  0
  1  2  3  0
  2  3  1  0
  3  4  1  0
  4  5  1  0
  5  6  2  0
  5  7  1  0
  7  8  1  0
  8  9  2  0
  8 10  1  0
 10 11  2  0
 10 38  1  0
 11 12  1  0
 12 13  1  1
 12 35  1  0
 13 14  1  0
 15 14  1  6
 15 16  1  0
 15 32  1  0
 16 17  2  0
 16 31  1  0
 17 18  1  0
 18 19  1  0
 18 30  2  0
 19 20  2  0
 19 21  1  0
 21 22  1  0
 22 23  2  0
 22 29  1  0
 23 24  1  0
 24 25  2  0
 25 26  1  0
 25 27  1  0
 27 28  1  0
 27 29  2  0
 30 31  1  0
 32 33  1  6
 32 34  1  0
 35 36  2  0
 35 37  1  0
 37 38  1  0
 38 39  2  0
M  CHG  1  14   1
M  END
