
     RDKit          3D

 39 42  0  0  0  0  0  0  0  0999 V2000
    9.6470   -0.0510    0.5590 C   0  0  0  0  0  0  0  0  0  0  0  0
    9.3480    0.7450   -0.6380 C   0  0  0  0  0  0  0  0  0  0  0  0
   10.3870    1.2180   -1.3570 N   0  0  0  0  0  0  0  0  0  0  0  0
   10.3240    1.9040   -2.4880 C   0  0  0  0  0  0  0  0  0  0  0  0
   11.3520    2.2930   -3.0700 O   0  0  0  0  0  0  0  0  0  0  0  0
    9.1020    2.1580   -2.9760 N   0  0  0  0  0  0  0  0  0  0  0  0
    8.0570    1.7080   -2.2930 C   0  0  0  0  0  0  0  0  0  0  0  0
    6.2830    1.8830   -2.7540 S   0  0  0  0  0  0  0  0  0  0  0  0
    5.6860    0.9350   -1.2460 C   0  0  0  0  0  0  0  0  0  0  0  0
    4.2820    0.7400   -1.0890 C   0  0  0  0  0  0  0  0  0  0  0  0
    3.4800    1.3290   -1.9370 O   0  0  0  0  0  0  0  0  0  0  0  0
    3.5970   -0.0260   -0.1240 N   0  0  0  0  0  0  0  0  0  0  0  0
    2.1250   -0.1140   -0.1000 C   0  0  0  0  0  0  0  0  0  0  0  0
    1.5560   -0.7090   -1.3470 C   0  0  0  0  0  0  0  0  0  0  0  0
    0.0770   -0.7470   -1.2050 C   0  0  0  0  0  0  0  0  0  0  0  0
   -0.7320    0.2860   -1.6160 C   0  0  0  0  0  0  0  0  0  0  0  0
   -2.0860    0.1890   -1.4540 C   0  0  0  0  0  0  0  0  0  0  0  0
   -2.6930   -0.9370   -0.8770 C   0  0  0  0  0  0  0  0  0  0  0  0
   -3.9870   -1.0090   -0.7310 O   0  0  0  0  0  0  0  0  0  0  0  0
   -5.2630   -1.0110   -0.6200 C   0  0  0  0  0  0  0  0  0  0  0  0
   -5.7570    0.1410    0.2340 C   0  0  0  0  0  0  0  0  0  0  0  0
   -4.8850    0.9170    0.6810 O   0  0  0  0  0  0  0  0  0  0  0  0
   -7.1470    0.2900    0.4860 N   0  0  0  0  0  0  0  0  0  0  0  0
   -7.5720    1.4060    1.3050 C   0  0  1  0  0  0  0  0  0  0  0  0
   -8.6750    2.1970    0.6760 C   0  0  0  0  0  0  0  0  0  0  0  0
   -9.3580    2.7840    1.8260 N   0  0  0  0  0  0  0  0  0  0  0  0
   -8.9510    2.1460    3.0130 C   0  0  0  0  0  0  0  0  0  0  0  0
   -9.1450    2.5310    4.2240 N   0  0  0  0  0  0  0  0  0  0  0  0
   -8.2390    0.9150    2.5980 C   0  0  0  0  0  0  0  0  0  0  0  0
   -1.8350   -1.9680   -0.4700 C   0  0  0  0  0  0  0  0  0  0  0  0
   -2.4610   -3.0700    0.0950 O   0  0  0  0  0  0  0  0  0  0  0  0
   -1.8140   -4.2190    0.5610 C   0  0  0  0  0  0  0  0  0  0  0  0
   -1.0630   -4.9680   -0.4580 C   0  0  0  0  0  0  0  0  0  0  0  0
   -0.4530   -5.9520   -0.1320 O   0  0  0  0  0  0  0  0  0  0  0  0
   -1.0580   -4.5560   -1.7490 F   0  0  0  0  0  0  0  0  0  0  0  0
   -0.4860   -1.8740   -0.6310 C   0  0  0  0  0  0  0  0  0  0  0  0
    6.8540    0.6160   -0.5930 C   0  0  0  0  0  0  0  0  0  0  0  0
    6.6920   -0.0550    0.7750 C   0  0  0  0  0  0  0  0  0  0  0  0
    8.0350    1.0040   -1.1320 C   0  0  0  0  0  0  0  0  0  0  0  0
  1  2  1  0
  2  3  1  0
  2 39  2  0
  3  4  1  0
  4  5  2  0
  4  6  1  0
  6  7  2  0
  7  8  1  0
  7 39  1  0
  8  9  1  0
  9 10  1  0
  9 37  2  0
 10 11  2  0
 10 12  1  0
 12 13  1  0
 13 14  1  0
 14 15  1  0
 15 16  2  0
 15 36  1  0
 16 17  1  0
 17 18  2  0
 18 19  1  0
 18 30  1  0
 19 20  1  0
 20 21  1  0
 21 22  2  0
 21 23  1  0
 24 23  1  6
 24 25  1  0
 24 29  1  0
 25 26  1  0
 26 27  1  0
 27 28  2  0
 27 29  1  0
 30 31  1  0
 30 36  2  0
 31 32  1  0
 32 33  1  0
 33 34  2  0
 33 35  1  0
 37 38  1  0
 37 39  1  0
M  CHG  1  28   1
M  END
