
     RDKit          3D

 39 43  0  0  0  0  0  0  0  0999 V2000
   -6.7130    3.8660    0.4590 N   0  0  0  0  0  0  0  0  0  0  0  0
   -6.3350    2.4680    0.3210 C   0  0  2  0  0  0  0  0  0  0  0  0
   -6.9120    1.9360   -0.9900 C   0  0  0  0  0  0  0  0  0  0  0  0
   -6.6410    0.4660   -1.2220 C   0  0  0  0  0  0  0  0  0  0  0  0
   -5.9890   -0.1750   -0.0460 N   0  0  0  0  0  0  0  0  0  0  0  0
   -4.6230   -0.3780   -0.2190 C   0  0  0  0  0  0  0  0  0  0  0  0
   -4.3410   -1.8050   -0.4160 C   0  0  0  0  0  0  0  0  0  0  0  0
   -5.2600   -2.8390   -0.2560 C   0  0  0  0  0  0  0  0  0  0  0  0
   -4.6280   -4.0470   -0.4910 C   0  0  0  0  0  0  0  0  0  0  0  0
   -3.3400   -3.7700   -0.7890 N   0  0  0  0  0  0  0  0  0  0  0  0
   -2.3270   -4.5930   -1.1300 N   0  0  0  0  0  0  0  0  0  0  0  0
   -1.0600   -4.0870   -1.4710 C   0  0  0  0  0  0  0  0  0  0  0  0
   -1.0050   -2.7920   -1.4120 N   0  0  0  0  0  0  0  0  0  0  0  0
   -1.9660   -1.9320   -1.0650 C   0  0  0  0  0  0  0  0  0  0  0  0
   -1.7150   -0.5410   -1.0570 O   0  0  0  0  0  0  0  0  0  0  0  0
   -0.5310   -0.4100   -0.2430 C   0  0  0  0  0  0  0  0  0  0  0  0
    0.5810    0.1010   -0.9250 C   0  0  0  0  0  0  0  0  0  0  0  0
    1.7520    0.2150   -0.2800 C   0  0  0  0  0  0  0  0  0  0  0  0
    1.8270   -0.1860    1.0600 C   0  0  0  0  0  0  0  0  0  0  0  0
    3.1290   -0.3490    1.5780 N   0  0  0  0  0  0  0  0  0  0  0  0
    4.3170    0.3020    0.9330 C   0  0  0  0  0  0  0  0  0  0  0  0
    4.1550    1.1520    0.1700 O   0  0  0  0  0  0  0  0  0  0  0  0
    5.4460   -0.3240    1.4540 N   0  0  0  0  0  0  0  0  0  0  0  0
    6.3890   -0.2320   -0.0010 C   0  0  0  0  0  0  0  0  0  0  0  0
    5.8160    0.2020   -0.9180 O   0  0  0  0  0  0  0  0  0  0  0  0
    7.7210   -0.7020    0.0660 C   0  0  0  0  0  0  0  0  0  0  0  0
    8.6100    0.4300   -0.1210 C   0  0  0  0  0  0  0  0  0  0  0  0
    8.5760    1.2780   -1.2120 C   0  0  0  0  0  0  0  0  0  0  0  0
    9.2930    2.3970   -1.4660 C   0  0  0  0  0  0  0  0  0  0  0  0
   10.2560    2.7320   -0.4360 C   0  0  0  0  0  0  0  0  0  0  0  0
   11.0530    3.8050   -0.5460 F   0  0  0  0  0  0  0  0  0  0  0  0
   10.3210    1.9040    0.6540 C   0  0  0  0  0  0  0  0  0  0  0  0
    9.5420    0.7830    0.8580 C   0  0  0  0  0  0  0  0  0  0  0  0
    0.7690   -0.6390    1.7240 C   0  0  0  0  0  0  0  0  0  0  0  0
   -0.4580   -0.7680    1.0560 C   0  0  0  0  0  0  0  0  0  0  0  0
   -1.5340   -1.2520    1.6890 F   0  0  0  0  0  0  0  0  0  0  0  0
   -3.1740   -2.4190   -0.7420 C   0  0  0  0  0  0  0  0  0  0  0  0
   -6.6910    0.1230    1.1290 C   0  0  0  0  0  0  0  0  0  0  0  0
   -6.8490    1.6100    1.4300 C   0  0  0  0  0  0  0  0  0  0  0  0
  2  1  1  1
  2  3  1  0
  2 39  1  0
  3  4  1  0
  4  5  1  0
  5  6  1  0
  5 38  1  0
  6  7  1  0
  7  8  1  0
  7 37  2  0
  8  9  2  0
  9 10  1  0
 10 11  1  0
 10 37  1  0
 11 12  2  0
 12 13  1  0
 13 14  2  0
 14 15  1  0
 14 37  1  0
 15 16  1  0
 16 17  2  0
 16 35  1  0
 17 18  1  0
 18 19  2  0
 19 20  1  0
 19 34  1  0
 20 21  1  0
 21 22  2  0
 21 23  1  0
 23 24  1  0
 24 25  2  0
 24 26  1  0
 26 27  1  0
 27 28  2  0
 27 33  1  0
 28 29  1  0
 29 30  2  0
 30 31  1  0
 30 32  1  0
 32 33  2  0
 34 35  2  0
 35 36  1  0
 38 39  1  0
M  END
