
     RDKit          3D

 22 22  0  0  0  0  0  0  0  0999 V2000
   -1.5840   -2.1940   -1.6760 O   0  0  0  0  0  0  0  0  0  0  0  0
   -1.5060   -1.9930   -0.3170 C   0  0  2  0  0  0  0  0  0  0  0  0
   -1.4900   -0.5010    0.0390 C   0  0  1  0  0  0  0  0  0  0  0  0
   -2.9140   -0.0570    0.1260 C   0  0  0  0  0  0  0  0  0  0  0  0
   -2.9640    1.2080    0.6360 O   0  0  0  0  0  0  0  0  0  0  0  0
   -4.5350    1.7100    0.7350 P   0  0  0  0  0  0  0  0  0  0  0  0
   -4.8720    3.3530    0.6260 O   0  0  0  0  0  0  0  0  0  0  0  0
   -5.7030    0.6690    1.1560 O   0  0  0  0  0  0  0  0  0  0  0  0
   -4.6970    1.5960   -0.7800 O   0  0  0  0  0  0  0  0  0  0  0  0
   -0.8410   -0.5210    1.2530 O   0  0  0  0  0  0  0  0  0  0  0  0
    0.3560   -1.2060    0.9320 C   0  0  2  0  0  0  0  0  0  0  0  0
    1.0170   -0.4530    0.0160 O   0  0  0  0  0  0  0  0  0  0  0  0
    2.5570    0.0210    0.5030 P   0  0  0  0  0  0  0  0  0  0  0  0
    3.3210   -0.8010    1.7140 O   0  0  0  0  0  0  0  0  0  0  0  0
    3.1410   -0.7940   -0.6410 O   0  0  0  0  0  0  0  0  0  0  0  0
    3.1650    1.4270   -0.0310 O   0  0  0  0  0  0  0  0  0  0  0  0
    4.7760    1.3500   -0.4640 P   0  0  0  0  0  0  0  0  0  0  0  0
    5.7420    0.2480    0.2200 O   0  0  0  0  0  0  0  0  0  0  0  0
    5.1110    2.4630    0.5150 O   0  0  0  0  0  0  0  0  0  0  0  0
    5.3140    2.2510   -1.7530 O   0  0  0  0  0  0  0  0  0  0  0  0
   -0.1860   -2.4370    0.2720 C   0  0  2  0  0  0  0  0  0  0  0  0
    0.6430   -3.0000   -0.6650 O   0  0  0  0  0  0  0  0  0  0  0  0
  2  1  1  6
  2  3  1  0
  2 21  1  0
  3  4  1  1
  3 10  1  0
  4  5  1  0
  5  6  1  0
  6  7  1  0
  6  8  1  0
  6  9  1  0
 10 11  1  0
 11 12  1  6
 11 21  1  0
 12 13  1  0
 13 14  1  0
 13 15  1  0
 13 16  1  0
 16 17  1  0
 17 18  1  0
 17 19  1  0
 17 20  1  0
 21 22  1  6
M  END
