
     RDKit          3D

 21 21  0  0  0  0  0  0  0  0999 V2000
   -2.8340   -2.2460   -1.8460 O   0  0  0  0  0  0  0  0  0  0  0  0
   -2.7960   -1.2830   -1.0440 C   0  0  0  0  0  0  0  0  0  0  0  0
   -1.5730   -1.1270   -0.2210 C   0  0  0  0  0  0  0  0  0  0  0  0
   -0.6080   -2.2540   -0.2610 C   0  0  0  0  0  0  0  0  0  0  0  0
    0.7300   -1.6700   -0.0410 N   0  0  0  0  0  0  0  0  0  0  0  0
    0.7960   -0.8060    1.0910 C   0  0  0  0  0  0  0  0  0  0  0  0
    1.2610    0.6090    0.7990 C   0  0  2  0  0  0  0  0  0  0  0  0
    1.3860    0.8570   -0.5550 O   0  0  0  0  0  0  0  0  0  0  0  0
    2.6500    0.7100    1.3940 C   0  0  0  0  0  0  0  0  0  0  0  0
    3.6080   -0.1460    0.9600 O   0  0  0  0  0  0  0  0  0  0  0  0
    4.1420   -0.2330   -0.2850 C   0  0  0  0  0  0  0  0  0  0  0  0
    3.7630    0.5400   -1.1940 O   0  0  0  0  0  0  0  0  0  0  0  0
    5.1360   -1.1840   -0.6160 O   0  0  0  0  0  0  0  0  0  0  0  0
    5.5950   -1.1850   -1.8720 O   0  0  0  0  0  0  0  0  0  0  0  0
    0.3390    1.6280    1.4400 C   0  0  0  0  0  0  0  0  0  0  0  0
    0.7500    2.0000    2.5960 O   0  0  0  0  0  0  0  0  0  0  0  0
   -0.8040    2.0970    0.8450 O   0  0  0  0  0  0  0  0  0  0  0  0
   -2.0480    1.6980    0.8820 O   0  0  0  0  0  0  0  0  0  0  0  0
   -2.7510    1.7690   -0.3170 C   0  0  0  0  0  0  0  0  0  0  0  0
   -3.9500    0.9100   -0.3930 C   0  0  0  0  0  0  0  0  0  0  0  0
   -3.8750   -0.3840   -0.9290 N   0  0  0  0  0  0  0  0  0  0  0  0
  1  2  2  0
  2  3  1  0
  2 21  1  0
  3  4  1  0
  4  5  1  0
  5  6  1  0
  6  7  1  0
  7  8  1  6
  7  9  1  0
  7 15  1  0
  9 10  1  0
 10 11  1  0
 11 12  2  0
 11 13  1  0
 13 14  1  0
 15 16  2  0
 15 17  1  0
 17 18  1  0
 18 19  1  0
 19 20  1  0
 20 21  1  0
M  END
