
     RDKit          3D

 14 13  0  0  0  0  0  0  0  0999 V2000
    4.3470   -0.5070    0.4300 C   0  0  0  0  0  0  0  0  0  0  0  0
    3.0240   -0.8430    0.0510 O   0  0  0  0  0  0  0  0  0  0  0  0
    2.0470    0.0800   -0.2060 C   0  0  0  0  0  0  0  0  0  0  0  0
    2.2740    1.3020   -0.1180 O   0  0  0  0  0  0  0  0  0  0  0  0
    0.7000   -0.3790   -0.5940 C   0  0  0  0  0  0  0  0  0  0  0  0
   -0.4790    0.9970   -0.8990 P   0  0  0  0  0  0  0  0  0  0  0  0
   -0.2610    2.3320    0.3350 C   0  0  0  0  0  0  0  0  0  0  0  0
    0.5180    3.2500    0.1350 O   0  0  0  0  0  0  0  0  0  0  0  0
   -2.5280    0.1550   -0.7400 P   0  0  0  0  0  0  0  0  0  0  0  0
   -3.5430    1.3760   -0.0600 O   0  0  0  0  0  0  0  0  0  0  0  0
   -4.4970    1.7030   -0.9290 O   0  0  0  0  0  0  0  0  0  0  0  0
   -2.5170   -1.2310    0.3710 O   0  0  0  0  0  0  0  0  0  0  0  0
   -2.6160   -2.5350   -0.0900 C   0  0  0  0  0  0  0  0  0  0  0  0
   -2.7150   -2.6750   -1.3470 O   0  0  0  0  0  0  0  0  0  0  0  0
  1  2  1  0
  2  3  1  0
  3  4  2  0
  3  5  1  0
  5  6  1  0
  6  7  1  0
  6  9  1  0
  7  8  2  0
  9 10  1  0
  9 12  1  0
 10 11  1  0
 12 13  1  0
 13 14  2  0
M  END
