
     RDKit          3D

 14 13  0  0  0  0  0  0  0  0999 V2000
   -0.0570   -2.7350   -0.8510 C   0  0  0  0  0  0  0  0  0  0  0  0
    0.1030   -0.9400   -1.3030 P   0  0  0  0  0  0  0  0  0  0  0  0
    1.7990   -0.3710   -0.8970 C   0  0  0  0  0  0  0  0  0  0  0  0
    1.9270    0.1290    0.5170 C   0  0  0  0  0  0  0  0  0  0  0  0
    3.2160    0.5650    0.8360 O   0  0  0  0  0  0  0  0  0  0  0  0
    3.8510    1.6010    0.1690 C   0  0  0  0  0  0  0  0  0  0  0  0
    3.2870    2.2100   -0.7730 O   0  0  0  0  0  0  0  0  0  0  0  0
    5.1310    2.0090    0.5100 O   0  0  0  0  0  0  0  0  0  0  0  0
   -1.4380    0.1710   -0.1930 P   0  0  0  0  0  0  0  0  0  0  0  0
   -1.1920   -0.0820    1.5260 O   0  0  0  0  0  0  0  0  0  0  0  0
   -2.9900   -0.4850   -0.6180 O   0  0  0  0  0  0  0  0  0  0  0  0
   -4.0100    0.1600    0.1020 C   0  0  0  0  0  0  0  0  0  0  0  0
   -3.9310    1.5150   -0.2490 O   0  0  0  0  0  0  0  0  0  0  0  0
   -4.8390    2.2320    0.3610 O   0  0  0  0  0  0  0  0  0  0  0  0
  1  2  1  0
  2  3  1  0
  2  9  1  0
  3  4  1  0
  4  5  1  0
  5  6  1  0
  6  7  2  0
  6  8  1  0
  9 10  1  0
  9 11  1  0
 11 12  1  0
 12 13  1  0
 13 14  1  0
M  END
