
     RDKit          3D

 21 22  0  0  0  0  0  0  0  0999 V2000
   -3.3760   -1.7450    1.9150 O   0  0  0  0  0  0  0  0  0  0  0  0
   -2.2280   -1.7430    1.3840 C   0  0  0  0  0  0  0  0  0  0  0  0
   -1.4690   -3.0200    1.1050 C   0  0  0  0  0  0  0  0  0  0  0  0
   -0.1320   -2.5000    0.5450 C   0  0  0  0  0  0  0  0  0  0  0  0
   -0.4830   -1.8780   -0.6330 O   0  0  0  0  0  0  0  0  0  0  0  0
   -0.8870   -0.5780   -0.2820 C   0  0  2  0  0  0  0  0  0  0  0  0
   -1.5830   -0.5680    0.9880 N   0  0  0  0  0  0  0  0  0  0  0  0
   -1.8560   -0.0150   -1.3040 C   0  0  0  0  0  0  0  0  0  0  0  0
   -2.7610   -0.6460   -1.8790 O   0  0  0  0  0  0  0  0  0  0  0  0
   -1.4970    1.3520   -1.4400 N   0  0  0  0  0  0  0  0  0  0  0  0
   -2.3820    2.4500   -1.7300 C   0  0  0  0  0  0  0  0  0  0  0  0
   -2.9680    2.9260   -0.5990 O   0  0  0  0  0  0  0  0  0  0  0  0
   -2.2460    3.4170    0.3390 O   0  0  0  0  0  0  0  0  0  0  0  0
   -0.0980    1.4320   -1.2510 C   0  0  0  0  0  0  0  0  0  0  0  0
    0.7620    2.2180   -1.7790 O   0  0  0  0  0  0  0  0  0  0  0  0
    0.2670    0.3240   -0.2830 C   0  0  2  0  0  0  0  0  0  0  0  0
    1.4610   -0.2320   -0.8360 O   0  0  0  0  0  0  0  0  0  0  0  0
    2.4650    0.2030   -0.0740 C   0  0  0  0  0  0  0  0  0  0  0  0
    3.8910   -0.0880   -0.4760 C   0  0  0  0  0  0  0  0  0  0  0  0
    4.6710    0.5530    0.4800 O   0  0  0  0  0  0  0  0  0  0  0  0
    4.6930   -0.0890    1.6720 O   0  0  0  0  0  0  0  0  0  0  0  0
  1  2  2  0
  2  3  1  0
  2  7  1  0
  3  4  1  0
  4  5  1  0
  5  6  1  0
  6  7  1  1
  6  8  1  0
  6 16  1  0
  8  9  2  0
  8 10  1  0
 10 11  1  0
 10 14  1  0
 11 12  1  0
 12 13  1  0
 14 15  2  0
 14 16  1  0
 16 17  1  6
 17 18  1  0
 18 19  1  0
 19 20  1  0
 20 21  1  0
M  END
