
     RDKit          3D

 21 22  0  0  0  0  0  0  0  0999 V2000
   -4.7930    1.1130   -1.9560 O   0  0  0  0  0  0  0  0  0  0  0  0
   -4.4540    1.2220   -0.7390 C   0  0  0  0  0  0  0  0  0  0  0  0
   -5.2770    1.9020    0.1520 O   0  0  0  0  0  0  0  0  0  0  0  0
   -3.2720    0.6550   -0.3540 O   0  0  0  0  0  0  0  0  0  0  0  0
   -2.4420   -0.0350   -1.2740 C   0  0  1  0  0  0  0  0  0  0  0  0
   -1.1000    0.5890   -1.4320 C   0  0  0  0  0  0  0  0  0  0  0  0
   -0.1940    0.0930   -0.4090 N   0  0  0  0  0  0  0  0  0  0  0  0
    0.9380    0.8830    0.0080 C   0  0  0  0  0  0  0  0  0  0  0  0
    1.1380    2.0110   -0.5580 O   0  0  0  0  0  0  0  0  0  0  0  0
    1.8300    0.5210    0.9780 O   0  0  0  0  0  0  0  0  0  0  0  0
    2.9330    1.2480    1.4100 C   0  0  0  0  0  0  0  0  0  0  0  0
    3.8980    1.4680    0.2730 C   0  0  0  0  0  0  0  0  0  0  0  0
    4.9830    2.2050    0.7830 O   0  0  0  0  0  0  0  0  0  0  0  0
    5.8730    2.4300   -0.1850 O   0  0  0  0  0  0  0  0  0  0  0  0
   -0.3880   -1.1680    0.1840 C   0  0  0  0  0  0  0  0  0  0  0  0
    0.5940   -1.9630    0.5350 C   0  0  0  0  0  0  0  0  0  0  0  0
    0.3080   -3.2820    1.1560 C   0  0  0  0  0  0  0  0  0  0  0  0
   -0.9310   -3.1930    1.7500 O   0  0  0  0  0  0  0  0  0  0  0  0
   -1.8720   -2.8920    0.8920 O   0  0  0  0  0  0  0  0  0  0  0  0
   -1.7760   -1.6070    0.4070 C   0  0  2  0  0  0  0  0  0  0  0  0
   -2.4330   -1.4220   -0.8780 N   0  0  0  0  0  0  0  0  0  0  0  0
  1  2  2  0
  2  3  1  0
  2  4  1  0
  5  4  1  1
  5  6  1  0
  5 21  1  0
  6  7  1  0
  7  8  1  0
  7 15  1  0
  8  9  2  0
  8 10  1  0
 10 11  1  0
 11 12  1  0
 12 13  1  0
 13 14  1  0
 15 16  2  0
 15 20  1  0
 16 17  1  0
 17 18  1  0
 18 19  1  0
 19 20  1  0
 20 21  1  6
M  END
