
     RDKit          3D

 21 21  0  0  0  0  0  0  0  0999 V2000
   -0.4650    1.2760    3.3340 C   0  0  0  0  0  0  0  0  0  0  0  0
   -0.3720    1.9500    2.0290 C   0  0  0  0  0  0  0  0  0  0  0  0
   -0.1290    1.2900    0.8860 O   0  0  0  0  0  0  0  0  0  0  0  0
   -0.8890    0.3120    0.4110 C   0  0  1  0  0  0  0  0  0  0  0  0
   -0.6560   -1.0230    1.1030 C   0  0  0  0  0  0  0  0  0  0  0  0
    0.6260   -1.5540    0.7980 N   0  0  0  0  0  0  0  0  0  0  0  0
    1.8750   -1.0220    1.0360 C   0  0  0  0  0  0  0  0  0  0  0  0
    2.0350    0.0730    1.5910 O   0  0  0  0  0  0  0  0  0  0  0  0
    3.0670   -1.7040    0.6560 O   0  0  0  0  0  0  0  0  0  0  0  0
    4.2500   -1.1030    0.9310 O   0  0  0  0  0  0  0  0  0  0  0  0
    4.9140   -0.3370   -0.0350 C   0  0  0  0  0  0  0  0  0  0  0  0
    4.3900   -0.2190   -1.1610 O   0  0  0  0  0  0  0  0  0  0  0  0
    6.1210    0.2550    0.3010 O   0  0  0  0  0  0  0  0  0  0  0  0
   -2.2640    0.5640   -0.0000 C   0  0  0  0  0  0  0  0  0  0  0  0
   -2.1140    1.0990   -1.2990 O   0  0  0  0  0  0  0  0  0  0  0  0
   -1.2260    0.1570   -1.8160 C   0  0  2  0  0  0  0  0  0  0  0  0
   -0.6300    0.6360   -3.1290 C   0  0  0  0  0  0  0  0  0  0  0  0
   -2.0130   -1.0600   -2.0340 N   0  0  0  0  0  0  0  0  0  0  0  0
   -3.1130   -0.9620   -2.9310 C   0  0  0  0  0  0  0  0  0  0  0  0
   -3.3670    0.1520   -3.4970 O   0  0  0  0  0  0  0  0  0  0  0  0
   -0.2510    0.0010   -0.8790 O   0  0  0  0  0  0  0  0  0  0  0  0
  1  2  1  0
  2  3  1  0
  3  4  1  0
  4  5  1  1
  4 14  1  0
  4 21  1  0
  5  6  1  0
  6  7  1  0
  7  8  2  0
  7  9  1  0
  9 10  1  0
 10 11  1  0
 11 12  2  0
 11 13  1  0
 14 15  1  0
 15 16  1  0
 16 17  1  6
 16 18  1  0
 16 21  1  0
 18 19  1  0
 19 20  2  0
M  END
