
     RDKit          3D

 21 22  0  0  0  0  0  0  0  0999 V2000
    4.3020   -1.7420    0.1920 O   0  0  0  0  0  0  0  0  0  0  0  0
    3.6100   -0.7300   -0.0190 C   0  0  0  0  0  0  0  0  0  0  0  0
    4.1630    0.5740   -0.0750 N   0  0  0  0  0  0  0  0  0  0  0  0
    5.4770    0.8080    0.1070 O   0  0  0  0  0  0  0  0  0  0  0  0
    5.5700    1.8360    0.9440 O   0  0  0  0  0  0  0  0  0  0  0  0
    2.1580   -0.9280   -0.2200 C   0  0  0  0  0  0  0  0  0  0  0  0
    1.6770   -2.1390   -0.1980 C   0  0  0  0  0  0  0  0  0  0  0  0
    2.4300   -3.2750   -0.0030 O   0  0  0  0  0  0  0  0  0  0  0  0
    1.3270    0.2930   -0.3690 C   0  0  0  0  0  0  0  0  0  0  0  0
   -0.0550   -0.0740   -0.4340 N   0  0  0  0  0  0  0  0  0  0  0  0
   -0.9650   -0.1400    0.7220 C   0  0  0  0  0  0  0  0  0  0  0  0
   -2.2660    0.2140    0.1170 C   0  0  1  0  0  0  0  0  0  0  0  0
   -3.4360   -0.2880    0.9240 C   0  0  0  0  0  0  0  0  0  0  0  0
   -4.6300    0.3250    0.6080 O   0  0  0  0  0  0  0  0  0  0  0  0
   -4.6430    1.0310   -0.5820 C   0  0  0  0  0  0  0  0  0  0  0  0
   -3.6440    2.0570   -0.6100 O   0  0  0  0  0  0  0  0  0  0  0  0
   -2.4490    1.7000   -0.0040 C   0  0  0  0  0  0  0  0  0  0  0  0
   -1.6210    2.5300    0.3970 O   0  0  0  0  0  0  0  0  0  0  0  0
   -2.2170   -0.3110   -1.1720 O   0  0  0  0  0  0  0  0  0  0  0  0
   -0.8880   -0.4300   -1.5300 C   0  0  0  0  0  0  0  0  0  0  0  0
   -0.4190   -0.8000   -2.6640 O   0  0  0  0  0  0  0  0  0  0  0  0
  1  2  2  0
  2  3  1  0
  2  6  1  0
  3  4  1  0
  4  5  1  0
  6  7  2  3
  6  9  1  0
  7  8  1  0
  9 10  1  0
 10 11  1  0
 10 20  1  0
 12 11  1  1
 12 13  1  0
 12 17  1  0
 12 19  1  0
 13 14  1  0
 14 15  1  0
 15 16  1  0
 16 17  1  0
 17 18  2  0
 19 20  1  0
 20 21  2  0
M  END
