
     RDKit          3D

 21 22  0  0  0  0  0  0  0  0999 V2000
    2.7520    0.6330    0.6540 O   0  0  0  0  0  0  0  0  0  0  0  0
    2.5710   -0.1690   -0.2860 C   0  0  0  0  0  0  0  0  0  0  0  0
    3.6990   -0.3860   -1.2490 C   0  0  0  0  0  0  0  0  0  0  0  0
    4.8180    0.3880   -0.9090 O   0  0  0  0  0  0  0  0  0  0  0  0
    5.4280    0.2210    0.3130 C   0  0  0  0  0  0  0  0  0  0  0  0
    5.0250   -0.6060    1.1560 O   0  0  0  0  0  0  0  0  0  0  0  0
    6.5480    1.0160    0.6200 O   0  0  0  0  0  0  0  0  0  0  0  0
    1.3340   -0.8230   -0.3980 N   0  0  0  0  0  0  0  0  0  0  0  0
    0.2900   -0.5900    0.5370 C   0  0  0  0  0  0  0  0  0  0  0  0
    0.4980    0.2180    1.4680 O   0  0  0  0  0  0  0  0  0  0  0  0
   -1.0390   -1.2500    0.4710 C   0  0  2  0  0  0  0  0  0  0  0  0
   -1.6160   -1.2800   -0.9000 C   0  0  0  0  0  0  0  0  0  0  0  0
   -3.0720   -0.8350   -0.8690 C   0  0  0  0  0  0  0  0  0  0  0  0
   -3.2540    0.2890    0.0110 N   0  0  0  0  0  0  0  0  0  0  0  0
   -3.9870    1.4460   -0.3210 C   0  0  0  0  0  0  0  0  0  0  0  0
   -4.7840    1.4040   -1.2820 O   0  0  0  0  0  0  0  0  0  0  0  0
   -3.7680    2.5830    0.4630 O   0  0  0  0  0  0  0  0  0  0  0  0
   -3.1580    2.4810    1.6680 O   0  0  0  0  0  0  0  0  0  0  0  0
   -2.0540    1.5990    1.5750 C   0  0  0  0  0  0  0  0  0  0  0  0
   -2.6460    0.2330    1.3190 C   0  0  2  0  0  0  0  0  0  0  0  0
   -1.8340   -0.8270    1.4850 O   0  0  0  0  0  0  0  0  0  0  0  0
  1  2  2  0
  2  3  1  0
  2  8  1  0
  3  4  1  0
  4  5  1  0
  5  6  2  0
  5  7  1  0
  8  9  1  0
  9 10  2  0
 11  9  1  6
 11 12  1  0
 11 21  1  0
 12 13  1  0
 13 14  1  0
 14 15  1  0
 14 20  1  0
 15 16  2  0
 15 17  1  0
 17 18  1  0
 18 19  1  0
 20 19  1  6
 20 21  1  0
M  END
