
     RDKit          3D

 22 24  0  0  0  0  0  0  0  0999 V2000
   -5.8650   -0.2180   -0.9120 C   0  0  0  0  0  0  0  0  0  0  0  0
   -4.4390   -0.1300   -0.5170 C   0  0  0  0  0  0  0  0  0  0  0  0
   -3.3120   -1.3740   -0.7800 S   0  0  0  0  0  0  0  0  0  0  0  0
   -1.7430   -1.0310   -0.2380 C   0  0  0  0  0  0  0  0  0  0  0  0
   -0.4430   -2.1900   -0.4200 S   0  0  2  0  0  0  0  0  0  0  0  0
   -0.2670   -2.4780   -1.8840 O   0  0  0  0  0  0  0  0  0  0  0  0
   -0.8890   -3.4620    0.2710 O   0  0  0  0  0  0  0  0  0  0  0  0
    1.0320   -1.6040    0.2040 N   0  0  0  0  0  0  0  0  0  0  0  0
    1.9860   -1.1660   -0.5560 C   0  0  0  0  0  0  0  0  0  0  0  0
    1.7740   -1.1850   -1.9510 N   0  0  0  0  0  0  0  0  0  0  0  0
    3.2410   -0.6690   -0.0030 C   0  0  0  0  0  0  0  0  0  0  0  0
    3.5740   -0.5970    1.3380 C   0  0  0  0  0  0  0  0  0  0  0  0
    4.8280   -0.0760    1.4170 N   0  0  0  0  0  0  0  0  0  0  0  0
    5.2940    0.1800    0.2110 N   0  0  0  0  0  0  0  0  0  0  0  0
    6.6010    0.7410   -0.0480 C   0  0  0  0  0  0  0  0  0  0  0  0
    4.3380   -0.1760   -0.6670 C   0  0  0  0  0  0  0  0  0  0  0  0
   -1.5430    0.1900    0.3460 C   0  0  0  0  0  0  0  0  0  0  0  0
   -2.5480    1.1420    0.5120 C   0  0  0  0  0  0  0  0  0  0  0  0
   -2.4570    2.3740    1.0740 N   0  0  0  0  0  0  0  0  0  0  0  0
   -3.6400    2.9910    1.0480 C   0  0  0  0  0  0  0  0  0  0  0  0
   -4.5540    2.1560    0.4540 C   0  0  0  0  0  0  0  0  0  0  0  0
   -3.9130    0.9830    0.1020 C   0  0  0  0  0  0  0  0  0  0  0  0
  1  2  1  0
  2  3  1  0
  2 22  2  0
  3  4  1  0
  4  5  1  0
  4 17  2  0
  5  6  2  0
  5  7  2  0
  5  8  1  1
  8  9  2  3
  9 10  1  0
  9 11  1  0
 11 12  1  0
 11 16  2  0
 12 13  2  0
 13 14  1  0
 14 15  1  0
 14 16  1  0
 17 18  1  0
 18 19  2  0
 18 22  1  0
 19 20  1  0
 20 21  2  0
 21 22  1  0
M  END
