
     RDKit          3D

 28 30  0  0  0  0  0  0  0  0999 V2000
    1.4940    4.1510    0.4140 C   0  0  0  0  0  0  0  0  0  0  0  0
    0.7580    3.1220    0.0320 C   0  0  0  0  0  0  0  0  0  0  0  0
    0.1090    2.2780    1.0710 C   0  0  0  0  0  0  0  0  0  0  0  0
    0.5490    0.9210    0.9830 O   0  0  0  0  0  0  0  0  0  0  0  0
    0.2310    0.3360   -0.2820 C   0  0  0  0  0  0  0  0  0  0  0  0
    1.2450    0.1220   -1.0830 C   0  0  0  0  0  0  0  0  0  0  0  0
    1.0490   -0.4750   -2.4150 C   0  0  0  0  0  0  0  0  0  0  0  0
    1.4880    0.3780   -3.4340 O   0  0  0  0  0  0  0  0  0  0  0  0
    2.5890    0.4510   -0.6530 C   0  0  0  0  0  0  0  0  0  0  0  0
    3.5500    0.9880   -1.4950 C   0  0  0  0  0  0  0  0  0  0  0  0
    4.6750    1.1560   -0.7310 C   0  0  0  0  0  0  0  0  0  0  0  0
    4.3610    0.7200    0.5370 C   0  0  0  0  0  0  0  0  0  0  0  0
    5.2110    0.6780    1.7570 C   0  0  0  0  0  0  0  0  0  0  0  0
    6.5890    1.2020    1.5100 C   0  0  0  0  0  0  0  0  0  0  0  0
    3.1150    0.3070    0.5530 O   0  0  0  0  0  0  0  0  0  0  0  0
   -1.1570    0.0360   -0.5740 C   0  0  0  0  0  0  0  0  0  0  0  0
   -1.7650    0.5570   -1.6830 C   0  0  0  0  0  0  0  0  0  0  0  0
   -3.0960    0.2460   -1.9850 C   0  0  0  0  0  0  0  0  0  0  0  0
   -3.8000   -0.5920   -1.1580 C   0  0  0  0  0  0  0  0  0  0  0  0
   -3.1920   -1.1130   -0.0500 C   0  0  0  0  0  0  0  0  0  0  0  0
   -3.8810   -1.9770    0.8050 C   0  0  0  0  0  0  0  0  0  0  0  0
   -5.2700   -2.2870    0.4700 C   0  0  0  0  0  0  0  0  0  0  0  0
   -5.2700   -3.2770   -0.6760 C   0  0  0  0  0  0  0  0  0  0  0  0
   -3.2940   -2.5200    1.9160 C   0  0  0  0  0  0  0  0  0  0  0  0
   -3.9330   -3.3650    2.7710 O   0  0  0  0  0  0  0  0  0  0  0  0
   -1.9720   -2.2070    2.2080 C   0  0  0  0  0  0  0  0  0  0  0  0
   -1.2770   -1.3580    1.3770 C   0  0  0  0  0  0  0  0  0  0  0  0
   -1.8600   -0.8020    0.2530 C   0  0  0  0  0  0  0  0  0  0  0  0
  1  2  2  0
  2  3  1  0
  3  4  1  0
  4  5  1  0
  5  6  2  3
  5 16  1  0
  6  7  1  0
  6  9  1  0
  7  8  1  0
  9 10  2  0
  9 15  1  0
 10 11  1  0
 11 12  2  0
 12 13  1  0
 12 15  1  0
 13 14  1  0
 16 17  2  0
 16 28  1  0
 17 18  1  0
 18 19  2  0
 19 20  1  0
 20 21  2  0
 20 28  1  0
 21 22  1  0
 21 24  1  0
 22 23  1  0
 24 25  1  0
 24 26  2  0
 26 27  1  0
 27 28  2  0
M  END
