
     RDKit          3D

 12 12  0  0  0  0  0  0  0  0999 V2000
    0.1920    2.5100    1.3320 O   0  0  0  0  0  0  0  0  0  0  0  0
    0.6690    1.5080    0.6770 C   0  0  0  0  0  0  0  0  0  0  0  0
    1.9980    1.6040    0.4450 O   0  0  0  0  0  0  0  0  0  0  0  0
   -0.1850    0.4330    0.2670 C   0  0  0  0  0  0  0  0  0  0  0  0
   -1.5500    0.5820    0.6410 C   0  0  0  0  0  0  0  0  0  0  0  0
   -2.4070   -0.4150    0.2740 C   0  0  0  0  0  0  0  0  0  0  0  0
   -2.0320   -1.5360   -0.4250 C   0  0  0  0  0  0  0  0  0  0  0  0
   -0.7570   -1.6430   -0.7560 N   0  0  0  0  0  0  0  0  0  0  0  0
    0.1740   -0.6770   -0.4230 C   0  0  0  0  0  0  0  0  0  0  0  0
    1.5390   -0.9160   -0.8470 C   0  0  0  0  0  0  0  0  0  0  0  0
    1.7820   -2.0140   -1.5040 O   0  0  0  0  0  0  0  0  0  0  0  0
    2.6380   -0.1410   -0.6550 O   0  0  0  0  0  0  0  0  0  0  0  0
  1  2  2  0
  2  3  1  0
  2  4  1  0
  4  5  2  0
  4  9  1  0
  5  6  1  0
  6  7  2  0
  7  8  1  0
  8  9  2  0
  9 10  1  0
 10 11  2  0
 10 12  1  0
M  END
