
     RDKit          3D

 22 24  0  0  0  0  0  0  0  0999 V2000
    6.9920    1.9050    0.3660 C   0  0  0  0  0  0  0  0  0  0  0  0
    5.6210    1.3440    0.2760 C   0  0  0  0  0  0  0  0  0  0  0  0
    4.4680    2.0790    0.2640 N   0  0  0  0  0  0  0  0  0  0  0  0
    3.5090    1.1540    0.1730 C   0  0  0  0  0  0  0  0  0  0  0  0
    1.6940    0.9110    0.0780 S   0  0  0  0  0  0  0  0  0  0  0  0
    1.7470   -0.8790   -0.0140 C   0  0  0  0  0  0  0  0  0  0  0  0
    0.7800   -1.7100   -0.1080 C   0  0  0  0  0  0  0  0  0  0  0  0
   -0.6420   -1.4310   -0.1680 C   0  0  0  0  0  0  0  0  0  0  0  0
   -1.1940   -0.2760   -0.1270 C   0  0  0  0  0  0  0  0  0  0  0  0
   -2.5400    0.2190   -0.1470 C   0  0  0  0  0  0  0  0  0  0  0  0
   -2.7740    1.5280   -0.2510 N   0  0  0  0  0  0  0  0  0  0  0  0
   -4.1290    1.9370   -0.2890 C   0  0  0  0  0  0  0  0  0  0  0  0
   -4.5430    3.6990   -0.3990 S   0  0  0  0  0  0  0  0  0  0  0  0
   -5.1610    1.1200   -0.2510 C   0  0  0  0  0  0  0  0  0  0  0  0
   -4.9610   -0.3460   -0.1740 C   0  0  0  0  0  0  0  0  0  0  0  0
   -3.6340   -0.5750    0.2810 N   0  0  0  0  0  0  0  0  0  0  0  0
   -1.4140   -2.6810   -0.5690 C   0  0  0  0  0  0  0  0  0  0  0  0
   -2.6920   -2.5260   -0.9090 O   0  0  0  0  0  0  0  0  0  0  0  0
    3.1110   -1.0950    0.0370 C   0  0  0  0  0  0  0  0  0  0  0  0
    3.5070   -2.3390   -0.0100 O   0  0  0  0  0  0  0  0  0  0  0  0
    3.9150   -0.0750    0.1270 N   0  0  0  0  0  0  0  0  0  0  0  0
    5.2870    0.0520    0.1940 N   0  0  0  0  0  0  0  0  0  0  0  0
  1  2  1  0
  2  3  1  0
  2 22  2  0
  3  4  2  0
  4  5  1  0
  4 21  1  0
  5  6  1  0
  6  7  2  3
  6 19  1  0
  7  8  1  0
  8  9  2  3
  8 17  1  0
  9 10  1  0
 10 11  2  0
 10 16  1  0
 11 12  1  0
 12 13  1  0
 12 14  2  0
 14 15  1  0
 15 16  1  0
 17 18  1  0
 19 20  2  0
 19 21  1  0
 21 22  1  0
M  END
