
     RDKit          3D

 22 24  0  0  0  0  0  0  0  0999 V2000
    5.2950   -1.6290    0.1750 C   0  0  0  0  0  0  0  0  0  0  0  0
    3.8090   -1.4190   -0.2030 C   0  0  0  0  0  0  0  0  0  0  0  0
    3.4300   -1.6250   -1.5890 C   0  0  0  0  0  0  0  0  0  0  0  0
    1.6640   -1.2610   -1.4840 S   0  0  0  0  0  0  0  0  0  0  0  0
    1.6580   -0.8910    0.3380 C   0  0  0  0  0  0  0  0  0  0  0  0
    0.4390   -0.5190    1.0440 C   0  0  0  0  0  0  0  0  0  0  0  0
    0.0890    0.8920    1.0650 C   0  0  0  0  0  0  0  0  0  0  0  0
    0.2800    1.6820    2.1600 N   0  0  0  0  0  0  0  0  0  0  0  0
   -0.0460    2.9950    2.1770 C   0  0  0  0  0  0  0  0  0  0  0  0
    0.1340    3.7210    3.1880 O   0  0  0  0  0  0  0  0  0  0  0  0
   -0.5850    3.5760    1.0840 N   0  0  0  0  0  0  0  0  0  0  0  0
   -0.8010    2.8560   -0.0250 C   0  0  0  0  0  0  0  0  0  0  0  0
   -1.3090    3.3710   -1.0790 O   0  0  0  0  0  0  0  0  0  0  0  0
   -0.4600    1.5060   -0.0280 C   0  0  0  0  0  0  0  0  0  0  0  0
   -0.7560    0.5790   -1.5150 S   0  0  0  0  0  0  0  0  0  0  0  0
   -2.3890   -0.1710   -1.5420 C   0  0  0  0  0  0  0  0  0  0  0  0
   -3.4700    0.4480   -2.0150 N   0  0  0  0  0  0  0  0  0  0  0  0
   -4.6620   -0.1710   -2.0170 C   0  0  0  0  0  0  0  0  0  0  0  0
   -4.8150   -1.4630   -1.5320 C   0  0  0  0  0  0  0  0  0  0  0  0
   -3.6770   -2.0890   -1.0440 C   0  0  0  0  0  0  0  0  0  0  0  0
   -2.5250   -1.4170   -1.0720 N   0  0  0  0  0  0  0  0  0  0  0  0
    2.8770   -1.0780    0.5860 N   0  0  0  0  0  0  0  0  0  0  0  0
  1  2  1  0
  2  3  2  0
  2 22  1  0
  3  4  1  0
  4  5  1  0
  5  6  1  0
  5 22  2  0
  6  7  1  0
  7  8  1  0
  7 14  2  0
  8  9  1  0
  9 10  2  0
  9 11  1  0
 11 12  1  0
 12 13  2  0
 12 14  1  0
 14 15  1  0
 15 16  1  0
 16 17  2  0
 16 21  1  0
 17 18  1  0
 18 19  2  0
 19 20  1  0
 20 21  2  0
M  END
