
     RDKit          3D

 22 24  0  0  0  0  0  0  0  0999 V2000
   -3.1190    2.1210    0.7770 C   0  0  0  0  0  0  0  0  0  0  0  0
   -3.8190    0.9150    0.2850 C   0  0  0  0  0  0  0  0  0  0  0  0
   -5.1730    0.8360    0.2030 N   0  0  0  0  0  0  0  0  0  0  0  0
   -5.4610   -0.3700   -0.2740 C   0  0  0  0  0  0  0  0  0  0  0  0
   -6.6220   -0.8540   -0.5050 O   0  0  0  0  0  0  0  0  0  0  0  0
   -4.3340   -1.0660   -0.5000 N   0  0  0  0  0  0  0  0  0  0  0  0
   -3.3060   -0.2800   -0.1580 C   0  0  0  0  0  0  0  0  0  0  0  0
   -1.8670   -0.6160   -0.2340 C   0  0  0  0  0  0  0  0  0  0  0  0
   -1.4890   -1.8580   -0.7000 C   0  0  0  0  0  0  0  0  0  0  0  0
   -0.1680   -2.1830   -0.7760 C   0  0  0  0  0  0  0  0  0  0  0  0
    0.8070   -1.2660   -0.3860 C   0  0  0  0  0  0  0  0  0  0  0  0
    2.1020   -1.5800   -0.4590 N   0  0  0  0  0  0  0  0  0  0  0  0
    3.1070   -0.7200   -0.0890 C   0  0  0  0  0  0  0  0  0  0  0  0
    4.7490   -1.3050   -0.2540 S   0  0  0  0  0  0  0  0  0  0  0  0
    6.0640   -0.2610    0.1990 C   0  0  0  0  0  0  0  0  0  0  0  0
    7.2910   -0.7580    0.0530 N   0  0  0  0  0  0  0  0  0  0  0  0
    6.0010    1.3620    0.8240 S   0  0  0  0  0  0  0  0  0  0  0  0
    5.6360    2.4040   -0.1770 O   0  0  0  0  0  0  0  0  0  0  0  0
    2.7010    0.5010    0.3680 C   0  0  0  0  0  0  0  0  0  0  0  0
    1.3550    0.8640    0.4580 C   0  0  0  0  0  0  0  0  0  0  0  0
    0.3840   -0.0370    0.0740 C   0  0  0  0  0  0  0  0  0  0  0  0
   -0.9260    0.2480    0.1350 N   0  0  0  0  0  0  0  0  0  0  0  0
  1  2  1  0
  2  3  1  0
  2  7  2  0
  3  4  1  0
  4  5  2  0
  4  6  1  0
  6  7  1  0
  7  8  1  0
  8  9  2  0
  8 22  1  0
  9 10  1  0
 10 11  2  0
 11 12  1  0
 11 21  1  0
 12 13  2  0
 13 14  1  0
 13 19  1  0
 14 15  1  0
 15 16  2  0
 15 17  1  0
 17 18  2  0
 19 20  2  0
 20 21  1  0
 21 22  2  0
M  END
