
     RDKit          3D

 28 30  0  0  0  0  0  0  0  0999 V2000
    4.6440    2.4710   -1.2450 C   0  0  0  0  0  0  0  0  0  0  0  0
    5.6680    1.8340   -0.7140 C   0  0  0  0  0  0  0  0  0  0  0  0
    5.5680    1.3530    0.6700 C   0  0  0  0  0  0  0  0  0  0  0  0
    6.6130    0.7110    1.1900 C   0  0  0  0  0  0  0  0  0  0  0  0
    4.3100    1.6060    1.4190 C   0  0  0  0  0  0  0  0  0  0  0  0
    3.1740    1.0670    0.8650 O   0  0  0  0  0  0  0  0  0  0  0  0
    2.8140   -0.2240    0.6080 C   0  0  0  0  0  0  0  0  0  0  0  0
    3.6010   -1.3110    0.9000 C   0  0  0  0  0  0  0  0  0  0  0  0
    3.1160   -2.5660    0.5850 C   0  0  0  0  0  0  0  0  0  0  0  0
    1.8880   -2.7470   -0.0020 C   0  0  0  0  0  0  0  0  0  0  0  0
    1.3630   -4.0950   -0.3420 C   0  0  0  0  0  0  0  0  0  0  0  0
    1.0550   -1.6590   -0.3140 C   0  0  0  0  0  0  0  0  0  0  0  0
   -0.1990   -1.9230   -0.9850 C   0  0  0  0  0  0  0  0  0  0  0  0
   -0.1710   -2.7750   -1.9420 O   0  0  0  0  0  0  0  0  0  0  0  0
   -1.4670   -1.2810   -0.6280 C   0  0  0  0  0  0  0  0  0  0  0  0
   -1.5150   -0.4630    0.3890 C   0  0  0  0  0  0  0  0  0  0  0  0
   -2.7380    0.2120    0.7820 C   0  0  0  0  0  0  0  0  0  0  0  0
   -3.1910    0.1620    2.1050 C   0  0  0  0  0  0  0  0  0  0  0  0
   -4.3190    0.8500    2.4490 C   0  0  0  0  0  0  0  0  0  0  0  0
   -5.0420    1.5990    1.5490 C   0  0  0  0  0  0  0  0  0  0  0  0
   -4.5840    1.6390    0.2490 C   0  0  0  0  0  0  0  0  0  0  0  0
   -3.4310    0.9490   -0.1480 C   0  0  0  0  0  0  0  0  0  0  0  0
   -5.4970    2.4930   -0.5450 C   0  0  0  0  0  0  0  0  0  0  0  0
   -6.7300    2.5600    0.3250 C   0  0  0  0  0  0  0  0  0  0  0  0
   -6.1930    2.3760    1.6220 O   0  0  0  0  0  0  0  0  0  0  0  0
   -2.6750   -1.6600   -1.4330 C   0  0  0  0  0  0  0  0  0  0  0  0
   -2.5680   -1.3090   -2.7610 O   0  0  0  0  0  0  0  0  0  0  0  0
    1.5540   -0.4320    0.0040 C   0  0  0  0  0  0  0  0  0  0  0  0
  1  2  2  0
  2  3  1  0
  3  4  2  0
  3  5  1  0
  5  6  1  0
  6  7  1  0
  7  8  2  0
  7 28  1  0
  8  9  1  0
  9 10  2  0
 10 11  1  0
 10 12  1  0
 12 13  1  0
 12 28  2  0
 13 14  2  0
 13 15  1  0
 15 16  2  3
 15 26  1  0
 16 17  1  0
 17 18  2  0
 17 22  1  0
 18 19  1  0
 19 20  2  0
 20 21  1  0
 20 25  1  0
 21 22  2  0
 21 23  1  0
 23 24  1  0
 24 25  1  0
 26 27  1  0
M  END
