
     RDKit          3D

 23 24  0  0  0  0  0  0  0  0999 V2000
    5.3590   -0.6830    1.2310 C   0  0  0  0  0  0  0  0  0  0  0  0
    4.8360   -0.7460   -0.1920 C   0  0  1  0  0  0  0  0  0  0  0  0
    5.3800   -1.9860   -0.8680 C   0  0  0  0  0  0  0  0  0  0  0  0
    3.3290   -0.8550   -0.1070 C   0  0  0  0  0  0  0  0  0  0  0  0
    2.7520    0.3440    0.6080 C   0  0  0  0  0  0  0  0  0  0  0  0
    1.2820    0.1620    0.6490 C   0  0  0  0  0  0  0  0  0  0  0  0
    0.3820    0.9740    0.1130 C   0  0  0  0  0  0  0  0  0  0  0  0
    0.7590    2.1770   -0.6000 C   0  0  0  0  0  0  0  0  0  0  0  0
   -0.0580    2.3720   -1.8820 C   0  0  0  0  0  0  0  0  0  0  0  0
   -1.4750    2.3720   -1.4290 C   0  0  0  0  0  0  0  0  0  0  0  0
   -2.3490    2.9250   -2.1090 O   0  0  0  0  0  0  0  0  0  0  0  0
   -1.8610    1.7170   -0.1700 C   0  0  0  0  0  0  0  0  0  0  0  0
   -2.8960    2.2150    0.4630 C   0  0  0  0  0  0  0  0  0  0  0  0
   -3.5850    3.3000   -0.0360 O   0  0  0  0  0  0  0  0  0  0  0  0
   -3.3780    1.6230    1.7680 C   0  0  0  0  0  0  0  0  0  0  0  0
   -2.1460    1.2120    2.5040 C   0  0  0  0  0  0  0  0  0  0  0  0
   -1.2190    0.3010    1.7820 C   0  0  0  0  0  0  0  0  0  0  0  0
   -1.0670    0.5460    0.3080 C   0  0  2  0  0  0  0  0  0  0  0  0
   -1.1710   -0.6410   -0.5540 C   0  0  0  0  0  0  0  0  0  0  0  0
   -2.3810   -1.4260   -0.7120 C   0  0  2  0  0  0  0  0  0  0  0  0
   -2.9790   -2.0950    0.4780 C   0  0  0  0  0  0  0  0  0  0  0  0
   -1.9960   -2.5960   -1.6550 C   0  0  0  0  0  0  0  0  0  0  0  0
   -3.5000   -0.7300   -1.4670 C   0  0  0  0  0  0  0  0  0  0  0  0
  2  1  1  1
  2  3  1  0
  2  4  1  0
  4  5  1  0
  5  6  1  0
  6  7  2  3
  7  8  1  0
  7 18  1  0
  8  9  1  0
  9 10  1  0
 10 11  2  0
 10 12  1  0
 12 13  2  0
 12 18  1  0
 13 14  1  0
 13 15  1  0
 15 16  1  0
 16 17  1  0
 17 18  1  0
 18 19  1  6
 19 20  1  0
 20 21  1  1
 20 22  1  0
 20 23  1  0
M  END
