
     RDKit          3D

 13 14  0  0  0  0  0  0  0  0999 V2000
   -1.5920    2.2800    1.2550 N   0  0  0  0  0  0  0  0  0  0  0  0
   -1.6720    1.0940    0.7950 C   0  0  0  0  0  0  0  0  0  0  0  0
   -3.2070    0.3730    0.7290 S   0  0  0  0  0  0  0  0  0  0  0  0
   -3.1800   -1.1920    0.1020 N   0  0  0  0  0  0  0  0  0  0  0  0
   -1.9490   -1.5960   -0.2360 C   0  0  0  0  0  0  0  0  0  0  0  0
   -1.9330   -2.7930   -0.7150 O   0  0  0  0  0  0  0  0  0  0  0  0
   -0.7980   -0.8500   -0.1050 C   0  0  0  0  0  0  0  0  0  0  0  0
    0.8780   -1.4630   -0.5900 S   0  0  0  0  0  0  0  0  0  0  0  0
    1.6730   -0.0050   -0.1240 C   0  0  0  0  0  0  0  0  0  0  0  0
    3.1640    0.1820   -0.2640 C   0  0  0  0  0  0  0  0  0  0  0  0
    3.8000   -0.2430    0.9060 O   0  0  0  0  0  0  0  0  0  0  0  0
    0.7150    0.8170    0.3410 C   0  0  0  0  0  0  0  0  0  0  0  0
   -0.5610    0.3540    0.3400 C   0  0  0  0  0  0  0  0  0  0  0  0
  1  2  2  0
  2  3  1  0
  2 13  1  0
  3  4  1  0
  4  5  1  0
  5  6  2  0
  5  7  1  0
  7  8  1  0
  7 13  2  0
  8  9  1  0
  9 10  1  0
  9 12  2  0
 10 11  1  0
 12 13  1  0
M  END
