
     RDKit          3D

 13 14  0  0  0  0  0  0  0  0999 V2000
    3.5510    0.2970   -0.0600 C   0  0  0  0  0  0  0  0  0  0  0  0
    2.4010    1.1910    1.0480 S   0  0  0  0  0  0  0  0  0  0  0  0
    0.8150    1.2220    0.1820 C   0  0  0  0  0  0  0  0  0  0  0  0
    0.2940    2.4650   -0.9270 S   0  0  0  0  0  0  0  0  0  0  0  0
   -1.3230    1.7210   -1.2910 C   0  0  0  0  0  0  0  0  0  0  0  0
   -1.3060    0.5870   -0.5230 C   0  0  0  0  0  0  0  0  0  0  0  0
   -2.3720   -0.2990   -0.4990 N   0  0  0  0  0  0  0  0  0  0  0  0
   -2.3660   -1.4080    0.2460 C   0  0  0  0  0  0  0  0  0  0  0  0
   -3.3690   -2.2050    0.2450 O   0  0  0  0  0  0  0  0  0  0  0  0
   -1.2870   -1.6670    0.9940 N   0  0  0  0  0  0  0  0  0  0  0  0
   -0.2380   -0.8350    0.9960 C   0  0  0  0  0  0  0  0  0  0  0  0
    0.7620   -1.1170    1.7180 O   0  0  0  0  0  0  0  0  0  0  0  0
   -0.2110    0.3480    0.2200 C   0  0  0  0  0  0  0  0  0  0  0  0
  1  2  1  0
  2  3  1  0
  3  4  1  0
  3 13  2  0
  4  5  1  0
  5  6  2  0
  6  7  1  0
  6 13  1  0
  7  8  1  0
  8  9  2  0
  8 10  1  0
 10 11  1  0
 11 12  2  0
 11 13  1  0
M  END
