
     RDKit          3D

 14 15  0  0  0  0  0  0  0  0999 V2000
   -1.8270   -3.4830    0.0480 O   0  0  0  0  0  0  0  0  0  0  0  0
   -1.5560   -2.2360    0.0060 C   0  0  0  0  0  0  0  0  0  0  0  0
   -2.3420   -1.2120    0.3640 N   0  0  0  0  0  0  0  0  0  0  0  0
   -1.6640   -0.0730    0.1600 C   0  0  0  0  0  0  0  0  0  0  0  0
   -2.0130    1.2410    0.3620 C   0  0  0  0  0  0  0  0  0  0  0  0
   -1.0900    2.2130    0.0540 C   0  0  0  0  0  0  0  0  0  0  0  0
    0.1540    1.8780   -0.4470 C   0  0  0  0  0  0  0  0  0  0  0  0
    0.5240    0.5610   -0.6580 C   0  0  0  0  0  0  0  0  0  0  0  0
    2.0510    0.1340   -1.2580 S   0  0  0  0  0  0  0  0  0  0  0  0
    3.3730   -0.1410    0.3250 S   0  0  2  0  0  0  0  0  0  0  0  0
    3.8130    1.0860    1.0320 O   0  0  0  0  0  0  0  0  0  0  0  0
    4.5040   -0.5300   -0.5630 O   0  0  0  0  0  0  0  0  0  0  0  0
   -0.4290   -0.3970   -0.3370 C   0  0  0  0  0  0  0  0  0  0  0  0
   -0.4000   -1.7240   -0.4160 N   0  0  0  0  0  0  0  0  0  0  0  0
  1  2  2  0
  2  3  1  0
  2 14  1  0
  3  4  1  0
  4  5  2  0
  4 13  1  0
  5  6  1  0
  6  7  2  0
  7  8  1  0
  8  9  1  0
  8 13  2  0
 10  9  1  6
 10 11  2  0
 10 12  2  0
 13 14  1  0
M  END
