
     RDKit          3D

 13 14  0  0  0  0  0  0  0  0999 V2000
   -1.4410    1.5750   -0.4570 C   0  0  0  0  0  0  0  0  0  0  0  0
   -1.4980    0.1400   -0.0130 C   0  0  0  0  0  0  0  0  0  0  0  0
   -2.6670   -0.5350    0.2210 N   0  0  0  0  0  0  0  0  0  0  0  0
   -2.3530   -1.7790    0.5980 C   0  0  0  0  0  0  0  0  0  0  0  0
   -3.1630   -2.7090    0.9030 O   0  0  0  0  0  0  0  0  0  0  0  0
   -1.0520   -1.9030    0.6080 O   0  0  0  0  0  0  0  0  0  0  0  0
   -0.5030   -0.7510    0.2400 C   0  0  0  0  0  0  0  0  0  0  0  0
    0.9030   -0.5050    0.1340 C   0  0  0  0  0  0  0  0  0  0  0  0
    1.6520    0.5960   -0.2240 C   0  0  0  0  0  0  0  0  0  0  0  0
    2.9830    0.5110   -0.2260 C   0  0  0  0  0  0  0  0  0  0  0  0
    3.7970    1.4810   -0.5440 O   0  0  0  0  0  0  0  0  0  0  0  0
    3.5570   -0.6690    0.1270 N   0  0  0  0  0  0  0  0  0  0  0  0
    2.1450   -1.7030    0.4780 S   0  0  0  0  0  0  0  0  0  0  0  0
  1  2  1  0
  2  3  1  0
  2  7  2  0
  3  4  1  0
  4  5  2  0
  4  6  1  0
  6  7  1  0
  7  8  1  0
  8  9  2  0
  8 13  1  0
  9 10  1  0
 10 11  2  0
 10 12  1  0
 12 13  1  0
M  END
