
     RDKit          3D

 14 14  0  0  0  0  0  0  0  0999 V2000
   -2.9580    1.2230   -1.3220 N   0  0  0  0  0  0  0  0  0  0  0  0
   -1.5480    0.8850   -1.1260 C   0  0  0  0  0  0  0  0  0  0  0  0
   -0.7660    1.0990   -2.0600 O   0  0  0  0  0  0  0  0  0  0  0  0
   -1.2150    0.3270    0.1590 C   0  0  0  0  0  0  0  0  0  0  0  0
   -2.2640    0.1840    1.0340 C   0  0  0  0  0  0  0  0  0  0  0  0
   -1.8970   -0.4970    2.6230 S   0  0  0  0  0  0  0  0  0  0  0  0
    0.0910   -0.0740    0.5680 C   0  0  0  0  0  0  0  0  0  0  0  0
    1.2210   -0.0530   -0.0320 C   0  0  0  0  0  0  0  0  0  0  0  0
    1.6600    0.4930   -1.6620 S   0  0  0  0  0  0  0  0  0  0  0  0
    3.1650   -0.5100   -1.7470 C   0  0  0  0  0  0  0  0  0  0  0  0
    3.6860   -0.8390   -2.8270 O   0  0  0  0  0  0  0  0  0  0  0  0
    3.4840   -0.7470   -0.4110 N   0  0  0  0  0  0  0  0  0  0  0  0
    2.4930   -0.5200    0.5320 C   0  0  0  0  0  0  0  0  0  0  0  0
    2.6260   -0.6850    1.7700 O   0  0  0  0  0  0  0  0  0  0  0  0
  1  2  1  0
  2  3  2  0
  2  4  1  0
  4  5  2  3
  4  7  1  0
  5  6  1  0
  7  8  2  3
  8  9  1  0
  8 13  1  0
  9 10  1  0
 10 11  2  0
 10 12  1  0
 12 13  1  0
 13 14  2  0
M  END
