
     RDKit          3D

 14 14  0  0  0  0  0  0  0  0999 V2000
    1.6720   -1.8760   -1.2190 C   0  0  0  0  0  0  0  0  0  0  0  0
    1.4510   -0.7180   -0.3260 C   0  0  0  0  0  0  0  0  0  0  0  0
    0.2220   -0.2860   -0.1460 C   0  0  0  0  0  0  0  0  0  0  0  0
   -0.0040    0.8760    0.7490 C   0  0  0  0  0  0  0  0  0  0  0  0
   -1.2830    1.5620    0.4240 C   0  0  0  0  0  0  0  0  0  0  0  0
   -2.4930    0.9470    1.0930 C   0  0  0  0  0  0  0  0  0  0  0  0
   -2.8990   -0.2780    0.4240 N   0  0  0  0  0  0  0  0  0  0  0  0
   -2.2120   -1.0650   -0.5610 C   0  0  0  0  0  0  0  0  0  0  0  0
   -2.8820   -1.8880   -1.2340 O   0  0  0  0  0  0  0  0  0  0  0  0
   -0.8240   -0.9940   -0.8440 N   0  0  0  0  0  0  0  0  0  0  0  0
    2.7900    0.0170    0.4430 S   0  0  1  0  0  0  0  0  0  0  0  0
    2.4520    0.3520    1.8500 O   0  0  0  0  0  0  0  0  0  0  0  0
    4.0130   -0.8460    0.5210 O   0  0  0  0  0  0  0  0  0  0  0  0
    3.3950    1.4850   -0.8450 S   0  0  0  0  0  0  0  0  0  0  0  0
  1  2  1  0
  2  3  2  3
  2 11  1  0
  3  4  1  0
  3 10  1  0
  4  5  1  0
  5  6  1  0
  6  7  1  0
  7  8  1  0
  8  9  2  0
  8 10  1  0
 11 12  2  0
 11 13  2  0
 11 14  1  6
M  END
