
     RDKit          3D

 12 12  0  0  0  0  0  0  0  0999 V2000
   -1.3530    2.4890   -0.8170 O   0  0  0  0  0  0  0  0  0  0  0  0
   -1.3950    1.3180   -0.2900 C   0  0  0  0  0  0  0  0  0  0  0  0
   -2.6530    0.9340    0.0890 O   0  0  0  0  0  0  0  0  0  0  0  0
   -0.1350    0.6290   -0.1910 C   0  0  0  0  0  0  0  0  0  0  0  0
    1.0100    1.2950   -0.6770 C   0  0  0  0  0  0  0  0  0  0  0  0
    2.2590    0.7440   -0.6390 C   0  0  0  0  0  0  0  0  0  0  0  0
    2.4450   -0.5220   -0.1060 C   0  0  0  0  0  0  0  0  0  0  0  0
    1.3500   -1.1850    0.3700 C   0  0  0  0  0  0  0  0  0  0  0  0
    0.0700   -0.6240    0.3320 C   0  0  0  0  0  0  0  0  0  0  0  0
   -1.0090   -1.4030    0.8570 C   0  0  0  0  0  0  0  0  0  0  0  0
   -0.7260   -2.5770    1.3320 O   0  0  0  0  0  0  0  0  0  0  0  0
   -2.3160   -1.0710    0.9260 O   0  0  0  0  0  0  0  0  0  0  0  0
  1  2  2  0
  2  3  1  0
  2  4  1  0
  4  5  2  0
  4  9  1  0
  5  6  1  0
  6  7  2  0
  7  8  1  0
  8  9  2  0
  9 10  1  0
 10 11  2  0
 10 12  1  0
M  END
