
     RDKit          3D

 13 13  0  0  0  0  0  0  0  0999 V2000
    3.4180   -0.3630    0.3250 C   0  0  0  0  0  0  0  0  0  0  0  0
    1.9290    0.6760    0.2000 S   0  0  0  0  0  0  0  0  0  0  0  0
    0.5090   -0.3390   -0.1510 C   0  0  0  0  0  0  0  0  0  0  0  0
    0.6960   -1.6640   -0.2730 C   0  0  0  0  0  0  0  0  0  0  0  0
   -0.2550   -2.6520   -0.5440 O   0  0  0  0  0  0  0  0  0  0  0  0
   -1.6410   -2.5990   -0.3770 C   0  0  0  0  0  0  0  0  0  0  0  0
   -2.3670   -1.5110   -0.2830 C   0  0  0  0  0  0  0  0  0  0  0  0
   -1.9450   -0.0940   -0.3250 C   0  0  0  0  0  0  0  0  0  0  0  0
   -0.7360    0.4060   -0.2700 C   0  0  0  0  0  0  0  0  0  0  0  0
   -0.5520    2.1150   -0.3420 S   0  0  1  0  0  0  0  0  0  0  0  0
   -0.5770    2.8980    1.1710 N   0  0  0  0  0  0  0  0  0  0  0  0
    0.7110    2.5220   -1.0570 O   0  0  0  0  0  0  0  0  0  0  0  0
   -1.6950    2.6730   -1.1660 O   0  0  0  0  0  0  0  0  0  0  0  0
  1  2  1  0
  2  3  1  0
  3  4  2  0
  3  9  1  0
  4  5  1  0
  5  6  1  0
  6  7  2  0
  7  8  1  0
  8  9  2  0
  9 10  1  0
 10 11  1  1
 10 12  2  0
 10 13  2  0
M  END
