
     RDKit          3D

 19 18  0  0  0  0  0  0  0  0999 V2000
    5.7580    0.8990    1.6890 N   0  0  0  0  0  0  0  0  0  0  0  0
    5.4540   -0.3310    1.0430 C   0  0  0  0  0  0  0  0  0  0  0  0
    6.2280   -1.2990    0.9660 O   0  0  0  0  0  0  0  0  0  0  0  0
    4.0960   -0.4470    0.4150 C   0  0  0  0  0  0  0  0  0  0  0  0
    3.9290   -1.6760   -0.1720 O   0  0  0  0  0  0  0  0  0  0  0  0
    2.7160   -1.8590   -0.8050 C   0  0  0  0  0  0  0  0  0  0  0  0
    1.5120   -1.7570    0.0640 C   0  0  0  0  0  0  0  0  0  0  0  0
    0.2950   -1.9550   -0.5630 O   0  0  0  0  0  0  0  0  0  0  0  0
    0.0110   -1.0640   -1.5490 C   0  0  0  0  0  0  0  0  0  0  0  0
   -0.1300    0.3600   -1.1950 C   0  0  1  0  0  0  0  0  0  0  0  0
   -0.3120    1.0510   -2.4400 O   0  0  0  0  0  0  0  0  0  0  0  0
   -1.3450    0.7270   -0.3290 C   0  0  1  0  0  0  0  0  0  0  0  0
   -1.2230    2.1590   -0.2180 O   0  0  0  0  0  0  0  0  0  0  0  0
   -2.5420    0.4290   -1.1230 C   0  0  0  0  0  0  0  0  0  0  0  0
   -3.8890    0.6960   -0.5620 C   0  0  0  0  0  0  0  0  0  0  0  0
   -4.9430    0.3840   -1.5670 N   0  0  0  0  0  0  0  0  0  0  0  0
   -1.1510    0.2040    1.0200 C   0  0  0  0  0  0  0  0  0  0  0  0
   -2.1700    0.4570    2.0720 C   0  0  0  0  0  0  0  0  0  0  0  0
   -2.4190    1.8190    2.2950 O   0  0  0  0  0  0  0  0  0  0  0  0
  1  2  1  0
  2  3  2  0
  2  4  1  0
  4  5  1  0
  5  6  1  0
  6  7  1  0
  7  8  1  0
  8  9  1  0
  9 10  1  0
 10 11  1  6
 10 12  1  0
 12 13  1  1
 12 14  1  0
 12 17  1  0
 14 15  1  0
 15 16  1  0
 17 18  1  0
 18 19  1  0
M  CHG  1  16   1
M  END
