
     RDKit          3D

 18 17  0  0  0  0  0  0  0  0999 V2000
    4.1570    1.0530   -1.3400 C   0  0  0  0  0  0  0  0  0  0  0  0
    3.1010    0.5270   -0.6260 O   0  0  0  0  0  0  0  0  0  0  0  0
    2.8890   -0.7830   -1.0040 C   0  0  0  0  0  0  0  0  0  0  0  0
    1.6980   -1.3480   -0.1860 C   0  0  0  0  0  0  0  0  0  0  0  0
    0.5250   -0.5380   -0.4740 N   0  0  0  0  0  0  0  0  0  0  0  0
   -0.4770   -0.5140    0.5680 C   0  0  2  0  0  0  0  0  0  0  0  0
    0.0610    0.1000    1.8270 C   0  0  0  0  0  0  0  0  0  0  0  0
   -0.8770    0.1780    2.8200 O   0  0  0  0  0  0  0  0  0  0  0  0
   -0.8130   -1.9960    0.8350 C   0  0  0  0  0  0  0  0  0  0  0  0
    0.2840   -2.7110    1.2920 O   0  0  0  0  0  0  0  0  0  0  0  0
   -1.7130    0.1600    0.1790 C   0  0  0  0  0  0  0  0  0  0  0  0
   -2.9850    0.0560    0.9570 C   0  0  0  0  0  0  0  0  0  0  0  0
   -3.3940   -0.5510    1.9800 C   0  0  0  0  0  0  0  0  0  0  0  0
   -4.7870   -0.3500    2.4080 O   0  0  0  0  0  0  0  0  0  0  0  0
   -1.8370    0.9760   -0.8480 C   0  0  0  0  0  0  0  0  0  0  0  0
   -1.1000    1.5630   -1.9140 C   0  0  1  0  0  0  0  0  0  0  0  0
   -0.1940    2.6120   -1.4230 N   0  0  0  0  0  0  0  0  0  0  0  0
   -0.5330    0.8150   -2.9000 O   0  0  0  0  0  0  0  0  0  0  0  0
  1  2  1  0
  2  3  1  0
  3  4  1  0
  4  5  1  0
  5  6  1  0
  6  7  1  1
  6  9  1  0
  6 11  1  0
  7  8  1  0
  9 10  1  0
 11 12  1  0
 11 15  2  3
 12 13  2  3
 13 14  1  0
 15 16  1  0
 16 17  1  1
 16 18  1  0
M  CHG  1   5   1
M  END
