
     RDKit          3D

 19 18  0  0  0  0  0  0  0  0999 V2000
    7.0330   -0.5290   -1.4520 N   0  0  0  0  0  0  0  0  0  0  0  0
    5.8120   -1.0520   -0.8820 C   0  0  0  0  0  0  0  0  0  0  0  0
    5.0920   -1.7740   -1.6040 O   0  0  0  0  0  0  0  0  0  0  0  0
    5.4410   -0.7360    0.5040 C   0  0  0  0  0  0  0  0  0  0  0  0
    4.2480   -1.2270    0.9300 O   0  0  0  0  0  0  0  0  0  0  0  0
    3.1490   -0.7430    0.2540 C   0  0  0  0  0  0  0  0  0  0  0  0
    1.8970   -1.3530    0.8150 C   0  0  0  0  0  0  0  0  0  0  0  0
    0.7440   -0.9510    0.2170 O   0  0  0  0  0  0  0  0  0  0  0  0
    0.5740    0.4170    0.3310 C   0  0  0  0  0  0  0  0  0  0  0  0
   -0.7360    0.8550   -0.3120 C   0  0  0  0  0  0  0  0  0  0  0  0
   -1.9120    0.1790    0.3480 C   0  0  1  0  0  0  0  0  0  0  0  0
   -1.8980    0.5680    1.7970 C   0  0  0  0  0  0  0  0  0  0  0  0
   -2.9290    0.0180    2.5390 O   0  0  0  0  0  0  0  0  0  0  0  0
   -3.2110    0.4290   -0.3430 C   0  0  2  0  0  0  0  0  0  0  0  0
   -4.3330   -0.2260    0.3130 N   0  0  0  0  0  0  0  0  0  0  0  0
   -3.2120   -0.1190   -1.7550 C   0  0  0  0  0  0  0  0  0  0  0  0
   -3.0390   -1.5230   -1.7310 O   0  0  0  0  0  0  0  0  0  0  0  0
   -3.5770    1.8950   -0.4380 C   0  0  0  0  0  0  0  0  0  0  0  0
   -4.7640    1.9530   -1.2030 O   0  0  0  0  0  0  0  0  0  0  0  0
  1  2  1  0
  2  3  2  0
  2  4  1  0
  4  5  1  0
  5  6  1  0
  6  7  1  0
  7  8  1  0
  8  9  1  0
  9 10  1  0
 11 10  1  6
 11 12  1  0
 11 14  1  0
 12 13  1  0
 14 15  1  1
 14 16  1  0
 14 18  1  0
 16 17  1  0
 18 19  1  0
M  CHG  1  15   1
M  END
