
     RDKit          3D

 19 18  0  0  0  0  0  0  0  0999 V2000
   -1.0830   -2.2260    0.2150 C   0  0  0  0  0  0  0  0  0  0  0  0
   -0.9480   -0.7290    0.3670 C   0  0  2  0  0  0  0  0  0  0  0  0
    0.3990   -0.3170    0.0240 N   0  0  0  0  0  0  0  0  0  0  0  0
    1.4120   -1.2800    0.3320 C   0  0  0  0  0  0  0  0  0  0  0  0
    2.7560   -0.5360    0.1780 C   0  0  0  0  0  0  0  0  0  0  0  0
    2.8160    0.5250    1.0370 O   0  0  0  0  0  0  0  0  0  0  0  0
    3.9540    1.2710    1.0360 C   0  0  0  0  0  0  0  0  0  0  0  0
    4.3290    1.9400   -0.2390 C   0  0  0  0  0  0  0  0  0  0  0  0
    4.5520    1.1240   -1.3140 O   0  0  0  0  0  0  0  0  0  0  0  0
   -1.1180   -0.4400    1.8150 C   0  0  0  0  0  0  0  0  0  0  0  0
   -2.3230   -0.7810    2.4840 N   0  0  0  0  0  0  0  0  0  0  0  0
   -0.2250    0.1110    2.5220 O   0  0  0  0  0  0  0  0  0  0  0  0
   -1.9820    0.0160   -0.4440 C   0  0  2  0  0  0  0  0  0  0  0  0
   -1.8350    1.5170   -0.2840 C   0  0  0  0  0  0  0  0  0  0  0  0
   -0.6160    2.0040   -0.6850 O   0  0  0  0  0  0  0  0  0  0  0  0
   -3.4020   -0.3100   -0.0800 C   0  0  0  0  0  0  0  0  0  0  0  0
   -3.7290   -1.6550   -0.2420 O   0  0  0  0  0  0  0  0  0  0  0  0
   -1.8450   -0.2650   -1.9290 C   0  0  0  0  0  0  0  0  0  0  0  0
   -2.8720    0.4960   -2.5410 O   0  0  0  0  0  0  0  0  0  0  0  0
  2  1  1  1
  2  3  1  0
  2 10  1  0
  2 13  1  0
  3  4  1  0
  4  5  1  0
  5  6  1  0
  6  7  1  0
  7  8  1  0
  8  9  1  0
 10 11  1  0
 10 12  2  0
 13 14  1  6
 13 16  1  0
 13 18  1  0
 14 15  1  0
 16 17  1  0
 18 19  1  0
M  CHG  1   3   1
M  END
