
     RDKit          3D

 18 17  0  0  0  0  0  0  0  0999 V2000
   -4.7140   -1.0350    1.4080 N   0  0  0  0  0  0  0  0  0  0  0  0
   -3.7010   -0.3030    0.6290 C   0  0  2  0  0  0  0  0  0  0  0  0
   -4.4320    0.8600    0.0020 C   0  0  0  0  0  0  0  0  0  0  0  0
   -3.6390    1.6690   -0.7720 O   0  0  0  0  0  0  0  0  0  0  0  0
   -3.1650   -1.2650   -0.3770 C   0  0  0  0  0  0  0  0  0  0  0  0
   -2.1110   -0.7120   -1.2770 C   0  0  0  0  0  0  0  0  0  0  0  0
   -0.9880   -0.2600   -0.6030 O   0  0  0  0  0  0  0  0  0  0  0  0
   -0.0680    0.2320   -1.5060 C   0  0  0  0  0  0  0  0  0  0  0  0
    1.1550    0.7310   -0.8460 C   0  0  0  0  0  0  0  0  0  0  0  0
    2.0110   -0.1910   -0.0820 C   0  0  2  0  0  0  0  0  0  0  0  0
    2.5430   -1.2290   -0.8790 O   0  0  0  0  0  0  0  0  0  0  0  0
    1.3520   -0.9030    1.0850 C   0  0  0  0  0  0  0  0  0  0  0  0
    0.3700   -1.7980    0.7430 O   0  0  0  0  0  0  0  0  0  0  0  0
    3.1590    0.5740    0.5240 C   0  0  1  0  0  0  0  0  0  0  0  0
    4.1090   -0.2920    1.3380 C   0  0  0  0  0  0  0  0  0  0  0  0
    5.1030    0.6320    1.7810 O   0  0  0  0  0  0  0  0  0  0  0  0
    3.9880    1.4020   -0.3690 C   0  0  0  0  0  0  0  0  0  0  0  0
    3.4120    2.4320   -1.0460 O   0  0  0  0  0  0  0  0  0  0  0  0
  2  1  1  1
  2  3  1  0
  2  5  1  0
  3  4  1  0
  5  6  1  0
  6  7  1  0
  7  8  1  0
  8  9  1  0
  9 10  1  0
 10 11  1  6
 10 12  1  0
 10 14  1  0
 12 13  1  0
 14 15  1  6
 14 17  1  0
 15 16  1  0
 17 18  1  0
M  CHG  1   1   1
M  END
