
     RDKit          3D

 19 18  0  0  0  0  0  0  0  0999 V2000
   -5.8530    0.9610    1.5550 N   0  0  0  0  0  0  0  0  0  0  0  0
   -5.7330    0.7130    0.1240 C   0  0  0  0  0  0  0  0  0  0  0  0
   -4.3470    0.0810   -0.1400 C   0  0  0  0  0  0  0  0  0  0  0  0
   -4.1740   -0.1930   -1.5930 C   0  0  0  0  0  0  0  0  0  0  0  0
   -2.9280   -0.8450   -2.0330 C   0  0  0  0  0  0  0  0  0  0  0  0
   -1.6240   -0.2040   -1.7860 C   0  0  1  0  0  0  0  0  0  0  0  0
   -1.4310    1.0510   -2.3070 O   0  0  0  0  0  0  0  0  0  0  0  0
   -1.1320   -0.4100   -0.3880 C   0  0  0  0  0  0  0  0  0  0  0  0
    0.2940   -0.2020   -0.4480 O   0  0  0  0  0  0  0  0  0  0  0  0
    1.1050   -0.3040    0.6460 C   0  0  0  0  0  0  0  0  0  0  0  0
    0.6350   -0.5870    1.7590 O   0  0  0  0  0  0  0  0  0  0  0  0
    2.5180   -0.0670    0.4340 N   0  0  0  0  0  0  0  0  0  0  0  0
    3.4230   -0.1600    1.5470 C   0  0  0  0  0  0  0  0  0  0  0  0
    4.8230    0.1490    1.0850 C   0  0  1  0  0  0  0  0  0  0  0  0
    5.6350   -0.0230    2.2340 O   0  0  0  0  0  0  0  0  0  0  0  0
    5.3080   -0.7670    0.0200 C   0  0  0  0  0  0  0  0  0  0  0  0
    6.6340   -0.4510   -0.2740 O   0  0  0  0  0  0  0  0  0  0  0  0
    4.9020    1.6150    0.7320 C   0  0  0  0  0  0  0  0  0  0  0  0
    4.1880    1.9750   -0.3690 O   0  0  0  0  0  0  0  0  0  0  0  0
  1  2  1  0
  2  3  1  0
  3  4  1  0
  4  5  1  0
  5  6  1  0
  6  7  1  1
  6  8  1  0
  8  9  1  0
  9 10  1  0
 10 11  2  0
 10 12  1  0
 12 13  1  0
 13 14  1  0
 14 15  1  1
 14 16  1  0
 14 18  1  0
 16 17  1  0
 18 19  1  0
M  CHG  1   1   1
M  END
