
     RDKit          3D

 18 17  0  0  0  0  0  0  0  0999 V2000
   -0.8670    1.1130    1.6560 C   0  0  0  0  0  0  0  0  0  0  0  0
   -1.5470    0.2700    0.6200 C   0  0  1  0  0  0  0  0  0  0  0  0
   -2.2360   -0.8550    1.3120 C   0  0  0  0  0  0  0  0  0  0  0  0
   -2.8200    1.0820    0.2440 C   0  0  0  0  0  0  0  0  0  0  0  0
   -2.6620    2.2930   -0.2680 O   0  0  0  0  0  0  0  0  0  0  0  0
   -0.7750    0.0730   -0.5910 C   0  0  2  0  0  0  0  0  0  0  0  0
   -0.6150    1.4570   -1.0250 O   0  0  0  0  0  0  0  0  0  0  0  0
   -1.5850   -0.4100   -1.7750 C   0  0  0  0  0  0  0  0  0  0  0  0
   -2.0220   -1.7280   -1.8250 N   0  0  0  0  0  0  0  0  0  0  0  0
    0.5990   -0.4180   -0.6970 C   0  0  2  0  0  0  0  0  0  0  0  0
    0.9990   -1.7450   -0.1880 C   0  0  0  0  0  0  0  0  0  0  0  0
    0.9120   -2.0880    1.1660 N   0  0  0  0  0  0  0  0  0  0  0  0
    1.6880    0.6080   -0.4610 C   0  0  0  0  0  0  0  0  0  0  0  0
    1.5730    1.9040   -0.9110 O   0  0  0  0  0  0  0  0  0  0  0  0
    2.7990    0.3140    0.1810 C   0  0  0  0  0  0  0  0  0  0  0  0
    3.8840    1.3370    0.4150 C   0  0  1  0  0  0  0  0  0  0  0  0
    4.4740    1.1820    1.6450 O   0  0  0  0  0  0  0  0  0  0  0  0
    4.8570    1.0520   -0.5590 O   0  0  0  0  0  0  0  0  0  0  0  0
  2  1  1  1
  2  3  1  0
  2  4  1  0
  2  6  1  0
  4  5  1  0
  6  7  1  6
  6  8  1  0
  6 10  1  0
  8  9  1  0
 10 11  1  1
 10 13  1  0
 11 12  1  0
 13 14  1  0
 13 15  2  3
 15 16  1  0
 16 17  1  1
 16 18  1  0
M  CHG  2   9   1  12   1
M  END
