
     RDKit          3D

 21 22  0  0  0  0  0  0  0  0999 V2000
    2.5680   -2.6150   -0.7330 O   0  0  0  0  0  0  0  0  0  0  0  0
    1.6580   -1.7550   -0.6330 C   0  0  0  0  0  0  0  0  0  0  0  0
    0.4720   -1.8460   -1.3620 O   0  0  0  0  0  0  0  0  0  0  0  0
   -0.6840   -1.2610   -0.7490 C   0  0  1  0  0  0  0  0  0  0  0  0
   -1.9150   -1.4660   -1.5840 C   0  0  0  0  0  0  0  0  0  0  0  0
   -2.5650   -2.5710   -0.8620 N   0  0  0  0  0  0  0  0  0  0  0  0
   -2.3860   -2.1600    0.4210 O   0  0  0  0  0  0  0  0  0  0  0  0
   -0.9810   -2.0290    0.4910 C   0  0  0  0  0  0  0  0  0  0  0  0
   -0.3670    0.1920   -0.5080 C   0  0  1  0  0  0  0  0  0  0  0  0
   -1.4830    0.9360   -0.0920 O   0  0  0  0  0  0  0  0  0  0  0  0
   -2.0460    1.9680   -0.8370 C   0  0  0  0  0  0  0  0  0  0  0  0
   -1.4820    2.2040   -1.9400 O   0  0  0  0  0  0  0  0  0  0  0  0
   -3.5020    2.9160   -0.2600 P   0  0  0  0  0  0  0  0  0  0  0  0
   -4.6730    3.1050   -1.5220 O   0  0  0  0  0  0  0  0  0  0  0  0
   -3.0150    4.5080    0.2370 O   0  0  0  0  0  0  0  0  0  0  0  0
    0.8020    0.3170    0.3580 C   0  0  0  0  0  0  0  0  0  0  0  0
    0.8930    1.2490    1.1750 O   0  0  0  0  0  0  0  0  0  0  0  0
    1.8390   -0.6360    0.2640 N   0  0  0  0  0  0  0  0  0  0  0  0
    3.0580   -0.5250    1.0260 C   0  0  0  0  0  0  0  0  0  0  0  0
    4.1230    0.2590    0.2850 C   0  0  0  0  0  0  0  0  0  0  0  0
    5.2800    0.3420    1.0570 O   0  0  0  0  0  0  0  0  0  0  0  0
  1  2  2  0
  2  3  1  0
  2 18  1  0
  3  4  1  0
  4  5  1  6
  4  8  1  0
  4  9  1  0
  5  6  1  0
  6  7  1  0
  7  8  1  0
  9 10  1  1
  9 16  1  0
 10 11  1  0
 11 12  2  0
 11 13  1  0
 13 14  1  0
 13 15  1  0
 16 17  2  0
 16 18  1  0
 18 19  1  0
 19 20  1  0
 20 21  1  0
M  END
