
     RDKit          3D

 21 22  0  0  0  0  0  0  0  0999 V2000
    5.2640    1.3780    2.3130 O   0  0  0  0  0  0  0  0  0  0  0  0
    4.4100    1.0480    1.4350 C   0  0  0  0  0  0  0  0  0  0  0  0
    4.8200    0.8140    0.0250 C   0  0  0  0  0  0  0  0  0  0  0  0
    3.8640    1.2010   -0.8860 O   0  0  0  0  0  0  0  0  0  0  0  0
    2.6300    0.6010   -0.6510 C   0  0  0  0  0  0  0  0  0  0  0  0
    2.0670    0.9800    0.6990 C   0  0  1  0  0  0  0  0  0  0  0  0
    0.8900    0.0990    0.9610 C   0  0  0  0  0  0  0  0  0  0  0  0
    0.8530   -0.6000    2.0160 O   0  0  0  0  0  0  0  0  0  0  0  0
   -0.1770    0.0000    0.1080 O   0  0  0  0  0  0  0  0  0  0  0  0
   -1.3060   -0.7840    0.2650 C   0  0  1  0  0  0  0  0  0  0  0  0
   -2.2340   -0.5950   -0.9050 C   0  0  0  0  0  0  0  0  0  0  0  0
   -2.6600    0.7050   -1.0580 O   0  0  0  0  0  0  0  0  0  0  0  0
   -3.7150    0.7640   -2.4380 P   0  0  0  0  0  0  0  0  0  0  0  0
   -5.2450    0.0520   -2.0680 O   0  0  0  0  0  0  0  0  0  0  0  0
   -3.8610    2.4160   -2.9260 O   0  0  0  0  0  0  0  0  0  0  0  0
   -1.0040   -2.2720    0.3740 C   0  0  0  0  0  0  0  0  0  0  0  0
   -2.1500   -2.7540    0.9810 O   0  0  0  0  0  0  0  0  0  0  0  0
   -2.4920   -1.8540    1.9320 N   0  0  0  0  0  0  0  0  0  0  0  0
   -2.0420   -0.5520    1.5300 C   0  0  0  0  0  0  0  0  0  0  0  0
   -2.2600    0.5130    2.1600 O   0  0  0  0  0  0  0  0  0  0  0  0
    3.0410    0.8890    1.7590 N   0  0  0  0  0  0  0  0  0  0  0  0
  1  2  2  0
  2  3  1  0
  2 21  1  0
  3  4  1  0
  4  5  1  0
  5  6  1  0
  6  7  1  1
  6 21  1  0
  7  8  2  0
  7  9  1  0
  9 10  1  0
 10 11  1  6
 10 16  1  0
 10 19  1  0
 11 12  1  0
 12 13  1  0
 13 14  1  0
 13 15  1  0
 16 17  1  0
 17 18  1  0
 18 19  1  0
 19 20  2  0
M  END
