
     RDKit          3D

 22 22  0  0  0  0  0  0  0  0999 V2000
    1.2480   -3.6210   -2.8470 O   0  0  0  0  0  0  0  0  0  0  0  0
    1.6590   -3.1520   -1.4330 P   0  0  0  0  0  0  0  0  0  0  0  0
    0.8700   -1.6850   -0.6270 C   0  0  2  0  0  0  0  0  0  0  0  0
   -0.5180   -1.7420   -0.9400 O   0  0  0  0  0  0  0  0  0  0  0  0
   -1.1370   -2.0450    0.2150 N   0  0  0  0  0  0  0  0  0  0  0  0
   -2.2140   -1.3140    0.7140 C   0  0  0  0  0  0  0  0  0  0  0  0
   -2.3300   -1.1130    1.9630 O   0  0  0  0  0  0  0  0  0  0  0  0
   -3.2670   -0.7560   -0.1470 C   0  0  0  0  0  0  0  0  0  0  0  0
   -3.8540    0.4320    0.3800 N   0  0  0  0  0  0  0  0  0  0  0  0
   -3.2460    1.4040    1.2180 C   0  0  0  0  0  0  0  0  0  0  0  0
   -3.8830    1.8660    2.2320 O   0  0  0  0  0  0  0  0  0  0  0  0
   -1.9670    1.9130    1.0200 O   0  0  0  0  0  0  0  0  0  0  0  0
   -1.5260    2.3180   -0.2890 C   0  0  0  0  0  0  0  0  0  0  0  0
   -0.0300    2.1350   -0.4330 C   0  0  0  0  0  0  0  0  0  0  0  0
    0.4500    1.4630    0.6930 O   0  0  0  0  0  0  0  0  0  0  0  0
    1.6990    0.8770    0.8120 C   0  0  0  0  0  0  0  0  0  0  0  0
    2.3570    0.9760    1.8630 O   0  0  0  0  0  0  0  0  0  0  0  0
    2.2470    0.1200   -0.3070 C   0  0  1  0  0  0  0  0  0  0  0  0
    3.3240   -0.9010    0.1170 C   0  0  0  0  0  0  0  0  0  0  0  0
    4.2700   -0.1190    0.8200 O   0  0  0  0  0  0  0  0  0  0  0  0
    4.7690    0.6640   -0.1360 O   0  0  0  0  0  0  0  0  0  0  0  0
    1.3040   -0.4730   -1.0990 O   0  0  0  0  0  0  0  0  0  0  0  0
  1  2  2  0
  3  2  1  6
  3  4  1  0
  3 22  1  0
  4  5  1  0
  5  6  1  0
  6  7  2  0
  6  8  1  0
  8  9  1  0
  9 10  1  0
 10 11  2  0
 10 12  1  0
 12 13  1  0
 13 14  1  0
 14 15  1  0
 15 16  1  0
 16 17  2  0
 16 18  1  0
 18 19  1  1
 18 22  1  0
 19 20  1  0
 20 21  1  0
M  END
