
     RDKit          3D

 21 22  0  0  0  0  0  0  0  0999 V2000
    4.5050    2.9890    1.1320 O   0  0  0  0  0  0  0  0  0  0  0  0
    4.0930    1.9650    0.5470 C   0  0  0  0  0  0  0  0  0  0  0  0
    4.8420    0.7210    0.2470 C   0  0  0  0  0  0  0  0  0  0  0  0
    4.0310    0.0060   -0.7120 N   0  0  0  0  0  0  0  0  0  0  0  0
    2.8050    0.7200   -0.8780 C   0  0  1  0  0  0  0  0  0  0  0  0
    1.5990   -0.1160   -0.5430 C   0  0  0  0  0  0  0  0  0  0  0  0
    1.8360   -1.2950   -0.1750 O   0  0  0  0  0  0  0  0  0  0  0  0
    0.3090    0.4420   -0.6560 N   0  0  0  0  0  0  0  0  0  0  0  0
   -0.8490   -0.3710   -0.3310 C   0  0  1  0  0  0  0  0  0  0  0  0
   -2.1260    0.4300   -0.5190 C   0  0  0  0  0  0  0  0  0  0  0  0
   -2.1350    1.5590    0.3080 O   0  0  0  0  0  0  0  0  0  0  0  0
   -3.6350    2.3930    0.0080 P   0  0  0  0  0  0  0  0  0  0  0  0
   -4.3070    3.0210    1.4890 O   0  0  0  0  0  0  0  0  0  0  0  0
   -4.7810    1.3570   -0.7660 O   0  0  0  0  0  0  0  0  0  0  0  0
   -0.9170   -1.4660   -1.1890 O   0  0  0  0  0  0  0  0  0  0  0  0
   -1.6660   -2.4550   -0.5680 C   0  0  0  0  0  0  0  0  0  0  0  0
   -0.7420   -3.1380    0.4390 C   0  0  0  0  0  0  0  0  0  0  0  0
   -0.4080   -2.1470    1.4000 O   0  0  0  0  0  0  0  0  0  0  0  0
   -0.7160   -0.8120    1.0730 C   0  0  0  0  0  0  0  0  0  0  0  0
   -0.8770    0.0060    2.0020 O   0  0  0  0  0  0  0  0  0  0  0  0
    2.8290    1.7860    0.0530 O   0  0  0  0  0  0  0  0  0  0  0  0
  1  2  2  0
  2  3  1  0
  2 21  1  0
  3  4  1  0
  4  5  1  0
  5  6  1  1
  5 21  1  0
  6  7  2  0
  6  8  1  0
  8  9  1  0
  9 10  1  1
  9 15  1  0
  9 19  1  0
 10 11  1  0
 11 12  1  0
 12 13  1  0
 12 14  1  0
 15 16  1  0
 16 17  1  0
 17 18  1  0
 18 19  1  0
 19 20  2  0
M  END
