
     RDKit          3D

 22 23  0  0  0  0  0  0  0  0999 V2000
   -6.0810    0.0420    2.5720 O   0  0  0  0  0  0  0  0  0  0  0  0
   -5.5390    0.3060    1.4650 C   0  0  0  0  0  0  0  0  0  0  0  0
   -5.4220   -0.5810    0.3500 N   0  0  0  0  0  0  0  0  0  0  0  0
   -4.3080   -0.0310   -0.4280 C   0  0  2  0  0  0  0  0  0  0  0  0
   -3.1480   -0.2640    0.2670 O   0  0  0  0  0  0  0  0  0  0  0  0
   -2.1590   -0.8960   -0.4640 C   0  0  2  0  0  0  0  0  0  0  0  0
   -1.6350   -2.0320    0.2010 O   0  0  0  0  0  0  0  0  0  0  0  0
   -0.3280   -2.1790   -0.3020 C   0  0  0  0  0  0  0  0  0  0  0  0
    0.4690   -3.1390   -0.0720 O   0  0  0  0  0  0  0  0  0  0  0  0
   -0.1190   -0.9790   -1.1370 C   0  0  2  0  0  0  0  0  0  0  0  0
    1.2740   -0.4810   -1.0950 C   0  0  0  0  0  0  0  0  0  0  0  0
    2.2400   -1.1240   -1.5520 O   0  0  0  0  0  0  0  0  0  0  0  0
    1.4870    0.7980   -0.4990 N   0  0  0  0  0  0  0  0  0  0  0  0
    2.7960    1.3970   -0.3950 C   0  0  0  0  0  0  0  0  0  0  0  0
    3.7620    0.5550    0.4100 C   0  0  0  0  0  0  0  0  0  0  0  0
    4.9810    1.2720    0.4170 O   0  0  0  0  0  0  0  0  0  0  0  0
    6.2000    0.4290    1.3090 P   0  0  0  0  0  0  0  0  0  0  0  0
    7.2270   -0.4980    0.2740 O   0  0  0  0  0  0  0  0  0  0  0  0
    5.4000   -0.6160    2.4410 O   0  0  0  0  0  0  0  0  0  0  0  0
   -1.0160   -0.0790   -0.5650 O   0  0  0  0  0  0  0  0  0  0  0  0
   -4.6110    1.4680   -0.2960 C   0  0  0  0  0  0  0  0  0  0  0  0
   -4.9390    1.5260    1.1000 O   0  0  0  0  0  0  0  0  0  0  0  0
  1  2  2  0
  2  3  1  0
  2 22  1  0
  3  4  1  0
  4  5  1  1
  4 21  1  0
  6  5  1  1
  6  7  1  0
  6 20  1  0
  7  8  1  0
  8  9  2  0
  8 10  1  0
 10 11  1  1
 10 20  1  0
 11 12  2  0
 11 13  1  0
 13 14  1  0
 14 15  1  0
 15 16  1  0
 16 17  1  0
 17 18  1  0
 17 19  1  0
 21 22  1  0
M  END
