
     RDKit          3D

 21 22  0  0  0  0  0  0  0  0999 V2000
    0.9900    0.8370    0.3950 O   0  0  0  0  0  0  0  0  0  0  0  0
    0.7510   -0.3400    0.1500 C   0  0  0  0  0  0  0  0  0  0  0  0
    1.7370   -1.2790   -0.2120 N   0  0  0  0  0  0  0  0  0  0  0  0
    3.0700   -1.1870   -0.4080 C   0  0  0  0  0  0  0  0  0  0  0  0
    3.9240    0.0020   -0.6400 C   0  0  0  0  0  0  0  0  0  0  0  0
    3.7460    0.7330    0.6300 O   0  0  0  0  0  0  0  0  0  0  0  0
    5.4670    1.0370    0.9790 P   0  0  0  0  0  0  0  0  0  0  0  0
    6.1720    2.3060    0.1390 O   0  0  0  0  0  0  0  0  0  0  0  0
    6.2800   -0.5190    0.4880 O   0  0  0  0  0  0  0  0  0  0  0  0
   -0.6180   -0.7520    0.2020 N   0  0  0  0  0  0  0  0  0  0  0  0
   -1.7890   -0.0430    0.2750 C   0  0  0  0  0  0  0  0  0  0  0  0
   -1.9790    1.2580    0.6190 C   0  0  0  0  0  0  0  0  0  0  0  0
   -3.2830    1.8540    0.6450 C   0  0  2  0  0  0  0  0  0  0  0  0
   -4.1380    1.4530    1.7030 O   0  0  0  0  0  0  0  0  0  0  0  0
   -5.1810    2.3100    1.8000 O   0  0  0  0  0  0  0  0  0  0  0  0
   -4.0930    1.4020   -0.4920 O   0  0  0  0  0  0  0  0  0  0  0  0
   -3.9410    0.1050   -0.8370 C   0  0  0  0  0  0  0  0  0  0  0  0
   -2.9340   -0.6050   -0.5400 C   0  0  0  0  0  0  0  0  0  0  0  0
   -3.0470   -1.9320   -1.0350 O   0  0  0  0  0  0  0  0  0  0  0  0
   -4.4670   -2.1190   -1.1820 C   0  0  0  0  0  0  0  0  0  0  0  0
   -4.8460   -0.7690   -1.5590 O   0  0  0  0  0  0  0  0  0  0  0  0
  1  2  2  0
  2  3  1  0
  2 10  1  0
  3  4  1  0
  4  5  1  0
  5  6  1  0
  6  7  1  0
  7  8  1  0
  7  9  1  0
 10 11  1  0
 11 12  2  0
 11 18  1  0
 12 13  1  0
 13 14  1  1
 13 16  1  0
 14 15  1  0
 16 17  1  0
 17 18  2  0
 17 21  1  0
 18 19  1  0
 19 20  1  0
 20 21  1  0
M  END
