
     RDKit          3D

 21 22  0  0  0  0  0  0  0  0999 V2000
   -3.6850   -2.8370    1.4560 O   0  0  0  0  0  0  0  0  0  0  0  0
   -3.5010   -1.5730    1.4420 C   0  0  0  0  0  0  0  0  0  0  0  0
   -2.5540   -0.9940    0.5590 N   0  0  0  0  0  0  0  0  0  0  0  0
   -2.6670    0.4080    0.2080 C   0  0  2  0  0  0  0  0  0  0  0  0
   -3.0760    0.4770   -1.2460 C   0  0  0  0  0  0  0  0  0  0  0  0
   -4.3010   -0.1700   -1.4070 O   0  0  0  0  0  0  0  0  0  0  0  0
   -1.3390    1.0540    0.4390 C   0  0  0  0  0  0  0  0  0  0  0  0
   -0.2850    0.4590   -0.3570 N   0  0  0  0  0  0  0  0  0  0  0  0
    1.0560    0.9180   -0.2960 C   0  0  0  0  0  0  0  0  0  0  0  0
    1.3380    1.8880    0.4880 O   0  0  0  0  0  0  0  0  0  0  0  0
    2.0790    0.2760   -1.1260 C   0  0  2  0  0  0  0  0  0  0  0  0
    2.2930   -1.1620   -0.6370 C   0  0  0  0  0  0  0  0  0  0  0  0
    3.5650   -1.4130   -1.1680 O   0  0  0  0  0  0  0  0  0  0  0  0
    4.2320   -0.2300   -0.8530 C   0  0  2  0  0  0  0  0  0  0  0  0
    4.7470   -0.3400    0.9250 P   0  0  0  0  0  0  0  0  0  0  0  0
    5.8770   -1.6310    1.1730 O   0  0  0  0  0  0  0  0  0  0  0  0
    5.3630    1.1660    1.5190 O   0  0  0  0  0  0  0  0  0  0  0  0
    3.3350    0.8040   -0.9830 O   0  0  0  0  0  0  0  0  0  0  0  0
   -3.6650    1.1150    1.1030 C   0  0  0  0  0  0  0  0  0  0  0  0
   -3.7210    0.5410    2.3720 O   0  0  0  0  0  0  0  0  0  0  0  0
   -4.2090   -0.7210    2.2780 O   0  0  0  0  0  0  0  0  0  0  0  0
  1  2  2  0
  2  3  1  0
  2 21  1  0
  3  4  1  0
  4  5  1  6
  4  7  1  0
  4 19  1  0
  5  6  1  0
  7  8  1  0
  8  9  1  0
  9 10  2  0
 11  9  1  1
 11 12  1  0
 11 18  1  0
 12 13  1  0
 13 14  1  0
 14 15  1  1
 14 18  1  0
 15 16  1  0
 15 17  1  0
 19 20  1  0
 20 21  1  0
M  END
