
     RDKit          3D

 21 22  0  0  0  0  0  0  0  0999 V2000
   -6.4420   -0.0320   -0.1340 C   0  0  0  0  0  0  0  0  0  0  0  0
   -5.0330    0.0820   -0.2310 O   0  0  0  0  0  0  0  0  0  0  0  0
   -4.2680   -0.6130   -1.1450 C   0  0  0  0  0  0  0  0  0  0  0  0
   -4.8650   -1.3940   -1.9360 O   0  0  0  0  0  0  0  0  0  0  0  0
   -2.7780   -0.4430   -1.1920 C   0  0  1  0  0  0  0  0  0  0  0  0
   -2.4130    0.4670   -0.2160 O   0  0  0  0  0  0  0  0  0  0  0  0
   -2.2380   -0.3830    0.9010 C   0  0  0  0  0  0  0  0  0  0  0  0
   -1.3750   -1.4580    0.2240 C   0  0  2  0  0  0  0  0  0  0  0  0
   -0.0940   -0.8300   -0.1100 C   0  0  0  0  0  0  0  0  0  0  0  0
    0.6920   -1.1900   -1.1410 N   0  0  0  0  0  0  0  0  0  0  0  0
    1.7510   -0.4400   -1.1630 O   0  0  0  0  0  0  0  0  0  0  0  0
    1.7100    0.4100   -0.1890 C   0  0  0  0  0  0  0  0  0  0  0  0
    2.7120    1.4610    0.1670 C   0  0  1  0  0  0  0  0  0  0  0  0
    2.0780    2.6700    0.4510 O   0  0  0  0  0  0  0  0  0  0  0  0
    3.4220    0.9860    1.2670 O   0  0  0  0  0  0  0  0  0  0  0  0
    4.7510    0.8070    0.9390 C   0  0  0  0  0  0  0  0  0  0  0  0
    4.8440   -0.4290   -0.4470 P   0  0  0  0  0  0  0  0  0  0  0  0
    6.2030   -1.4940   -0.2300 O   0  0  0  0  0  0  0  0  0  0  0  0
    4.8670    0.3220   -1.9910 O   0  0  0  0  0  0  0  0  0  0  0  0
    0.5480    0.1850    0.4960 N   0  0  0  0  0  0  0  0  0  0  0  0
   -2.1060   -1.6180   -0.9660 O   0  0  0  0  0  0  0  0  0  0  0  0
  1  2  1  0
  2  3  1  0
  3  4  2  0
  5  3  1  1
  5  6  1  0
  5 21  1  0
  6  7  1  0
  7  8  1  0
  8  9  1  6
  8 21  1  0
  9 10  2  0
  9 20  1  0
 10 11  1  0
 11 12  1  0
 12 13  1  0
 12 20  2  0
 13 14  1  1
 13 15  1  0
 15 16  1  0
 16 17  1  0
 17 18  1  0
 17 19  1  0
M  END
