
     RDKit          3D

 11 10  0  0  0  0  0  0  0  0999 V2000
    1.7570    0.4530    1.7700 O   0  0  0  0  0  0  0  0  0  0  0  0
    2.2800    0.2090    0.6290 C   0  0  0  0  0  0  0  0  0  0  0  0
    3.4800    0.8530    0.3650 O   0  0  0  0  0  0  0  0  0  0  0  0
    1.6250   -0.7100   -0.3330 C   0  0  2  0  0  0  0  0  0  0  0  0
    2.4440   -0.7590   -1.4690 O   0  0  0  0  0  0  0  0  0  0  0  0
    0.2610   -0.2290   -0.7480 C   0  0  0  0  0  0  0  0  0  0  0  0
   -0.5380   -0.1870    0.3960 O   0  0  0  0  0  0  0  0  0  0  0  0
   -2.0000    0.2730    0.2800 P   0  0  0  0  0  0  0  0  0  0  0  0
   -3.4300    0.7980    0.1310 O   0  0  0  0  0  0  0  0  0  0  0  0
   -2.1570    0.1500    1.9130 O   0  0  0  0  0  0  0  0  0  0  0  0
   -2.3010   -1.0670   -0.6310 O   0  0  0  0  0  0  0  0  0  0  0  0
  1  2  2  0
  2  3  1  0
  2  4  1  0
  4  5  1  6
  4  6  1  0
  6  7  1  0
  7  8  1  0
  8  9  1  0
  8 10  1  0
  8 11  1  0
M  END
