
     RDKit          3D

 22 22  0  0  0  0  0  0  0  0999 V2000
   -1.5460    3.5020   -0.9810 C   0  0  0  0  0  0  0  0  0  0  0  0
   -1.2190    2.3340   -0.2790 O   0  0  0  0  0  0  0  0  0  0  0  0
   -1.5150    1.1040   -0.7960 C   0  0  0  0  0  0  0  0  0  0  0  0
   -2.0940    1.0500   -1.9310 O   0  0  0  0  0  0  0  0  0  0  0  0
   -1.1950   -0.1770   -0.1040 C   0  0  2  0  0  0  0  0  0  0  0  0
   -1.6140   -1.2570   -0.8680 O   0  0  0  0  0  0  0  0  0  0  0  0
   -3.2940   -1.2330   -1.1550 P   0  0  0  0  0  0  0  0  0  0  0  0
   -4.0760   -2.7320   -0.8390 O   0  0  0  0  0  0  0  0  0  0  0  0
   -4.1140    0.1230   -0.5170 O   0  0  0  0  0  0  0  0  0  0  0  0
   -1.7910   -0.2200    1.2980 C   0  0  0  0  0  0  0  0  0  0  0  0
   -1.4900    1.0370    1.9040 N   0  0  0  0  0  0  0  0  0  0  0  0
   -0.0790    1.1750    2.0670 C   0  0  0  0  0  0  0  0  0  0  0  0
    0.7240    0.4440    1.1190 N   0  0  0  0  0  0  0  0  0  0  0  0
    0.2750   -0.1980    0.1020 C   0  0  0  0  0  0  0  0  0  0  0  0
    1.1310   -0.8850   -0.7730 O   0  0  0  0  0  0  0  0  0  0  0  0
    2.4960   -0.8810   -0.5460 C   0  0  0  0  0  0  0  0  0  0  0  0
    2.9040   -0.2440    0.4580 O   0  0  0  0  0  0  0  0  0  0  0  0
    3.4510   -1.5980   -1.4480 C   0  0  0  0  0  0  0  0  0  0  0  0
    4.7680   -1.4190   -0.9690 O   0  0  0  0  0  0  0  0  0  0  0  0
    5.1250   -1.8510    0.2890 C   0  0  0  0  0  0  0  0  0  0  0  0
    4.2800   -2.4130    1.0330 O   0  0  0  0  0  0  0  0  0  0  0  0
    6.4140   -1.7000    0.8140 O   0  0  0  0  0  0  0  0  0  0  0  0
  1  2  1  0
  2  3  1  0
  3  4  2  0
  3  5  1  0
  5  6  1  6
  5 10  1  0
  5 14  1  0
  6  7  1  0
  7  8  1  0
  7  9  1  0
 10 11  1  0
 11 12  1  0
 12 13  1  0
 13 14  2  0
 14 15  1  0
 15 16  1  0
 16 17  2  0
 16 18  1  0
 18 19  1  0
 19 20  1  0
 20 21  2  0
 20 22  1  0
M  END
