
     RDKit          3D

  9  9  0  0  0  0  0  0  0  0999 V2000
    2.5990   -0.2670    0.2440 C   0  0  0  0  0  0  0  0  0  0  0  0
    1.5580    0.6340   -0.2840 C   0  0  0  0  0  0  0  0  0  0  0  0
    0.2830    0.3260   -0.1650 C   0  0  0  0  0  0  0  0  0  0  0  0
   -0.1470   -0.9200    0.4960 C   0  0  0  0  0  0  0  0  0  0  0  0
   -1.4320   -1.1730    0.5860 C   0  0  0  0  0  0  0  0  0  0  0  0
   -2.4510   -0.3170    0.0830 N   0  0  0  0  0  0  0  0  0  0  0  0
   -2.0530    0.8800   -0.5520 C   0  0  0  0  0  0  0  0  0  0  0  0
   -2.9680    1.7680   -1.0690 F   0  0  0  0  0  0  0  0  0  0  0  0
   -0.7750    1.1920   -0.6740 C   0  0  0  0  0  0  0  0  0  0  0  0
  1  2  1  0
  2  3  2  3
  3  4  1  0
  3  9  1  0
  4  5  2  0
  5  6  1  0
  6  7  1  0
  7  8  1  0
  7  9  2  0
M  END
