
     RDKit          3D

  9  9  0  0  0  0  0  0  0  0999 V2000
   -0.2130    2.0900    0.1460 N   0  0  0  0  0  0  0  0  0  0  0  0
   -0.7220    0.7630    0.1790 C   0  0  0  0  0  0  0  0  0  0  0  0
   -1.8890    0.4550    0.7270 C   0  0  0  0  0  0  0  0  0  0  0  0
   -2.1010   -1.0110    0.5830 C   0  0  0  0  0  0  0  0  0  0  0  0
   -0.8840   -1.4630   -0.1230 C   0  0  0  0  0  0  0  0  0  0  0  0
   -0.0740   -0.4220   -0.3600 C   0  0  0  0  0  0  0  0  0  0  0  0
    1.2290   -0.5060   -1.0490 C   0  0  0  0  0  0  0  0  0  0  0  0
    2.3650   -0.0430   -0.1860 C   0  0  0  0  0  0  0  0  0  0  0  0
    2.2720    1.2500    0.2350 F   0  0  0  0  0  0  0  0  0  0  0  0
  1  2  1  0
  2  3  2  0
  2  6  1  0
  3  4  1  0
  4  5  1  0
  5  6  2  0
  6  7  1  0
  7  8  1  0
  8  9  1  0
M  END
