
     RDKit          3D

  9  9  0  0  0  0  0  0  0  0999 V2000
    2.8280    1.6160   -0.3350 F   0  0  0  0  0  0  0  0  0  0  0  0
    2.4330    0.3060   -0.1250 C   0  0  0  0  0  0  0  0  0  0  0  0
    0.9410    0.2120    0.0230 C   0  0  0  0  0  0  0  0  0  0  0  0
    0.3160    1.3990   -0.0780 C   0  0  0  0  0  0  0  0  0  0  0  0
   -1.1280    1.5930    0.0270 C   0  0  0  0  0  0  0  0  0  0  0  0
   -2.1170    0.7270    0.1620 C   0  0  0  0  0  0  0  0  0  0  0  0
   -1.9620   -0.6860    0.2370 N   0  0  0  0  0  0  0  0  0  0  0  0
   -0.8830   -1.4600   -0.3240 C   0  0  0  0  0  0  0  0  0  0  0  0
    0.4600   -1.1420    0.2460 C   0  0  0  0  0  0  0  0  0  0  0  0
  1  2  1  0
  2  3  1  0
  3  4  2  0
  3  9  1  0
  4  5  1  0
  5  6  2  0
  6  7  1  0
  7  8  1  0
  8  9  1  0
M  END
