
     RDKit          3D

  9  9  0  0  0  0  0  0  0  0999 V2000
   -2.2260    0.8550    0.5790 N   0  0  0  0  0  0  0  0  0  0  0  0
   -2.0620   -0.5470    0.3290 C   0  0  0  0  0  0  0  0  0  0  0  0
   -1.0420   -0.8360   -0.7500 C   0  0  0  0  0  0  0  0  0  0  0  0
    0.2980   -0.3090   -0.3880 C   0  0  0  0  0  0  0  0  0  0  0  0
    0.9670    0.5830   -1.0850 C   0  0  0  0  0  0  0  0  0  0  0  0
    2.2370    0.8270   -0.3860 C   0  0  0  0  0  0  0  0  0  0  0  0
    2.1990   -0.0460    0.8000 C   0  0  0  0  0  0  0  0  0  0  0  0
    1.0580   -0.7040    0.7840 C   0  0  0  0  0  0  0  0  0  0  0  0
    0.6950   -1.6110    1.7520 F   0  0  0  0  0  0  0  0  0  0  0  0
  1  2  1  0
  2  3  1  0
  3  4  1  0
  4  5  2  0
  4  8  1  0
  5  6  1  0
  6  7  1  0
  7  8  2  0
  8  9  1  0
M  END
