
     RDKit          3D

  9  9  0  0  0  0  0  0  0  0999 V2000
    2.0360    1.3320   -0.4150 N   0  0  0  0  0  0  0  0  0  0  0  0
    1.3360    0.1480   -0.1220 C   0  0  0  0  0  0  0  0  0  0  0  0
    2.0700   -1.1020    0.0670 C   0  0  0  0  0  0  0  0  0  0  0  0
    1.2420   -2.1620    0.3480 F   0  0  0  0  0  0  0  0  0  0  0  0
    0.0240    0.1620   -0.0170 C   0  0  0  0  0  0  0  0  0  0  0  0
   -0.8660    1.3140   -0.1730 C   0  0  0  0  0  0  0  0  0  0  0  0
   -2.1260    1.0360   -0.0530 C   0  0  0  0  0  0  0  0  0  0  0  0
   -2.2570   -0.4130    0.2110 C   0  0  0  0  0  0  0  0  0  0  0  0
   -0.8810   -0.9820    0.2840 C   0  0  0  0  0  0  0  0  0  0  0  0
  1  2  1  0
  2  3  1  0
  2  5  2  3
  3  4  1  0
  5  6  1  0
  5  9  1  0
  6  7  2  0
  7  8  1  0
  8  9  1  0
M  END
