
     RDKit          3D

  9  9  0  0  0  0  0  0  0  0999 V2000
    3.0050    0.4460    0.0150 N   0  0  0  0  0  0  0  0  0  0  0  0
    1.5660    0.2860   -0.0100 C   0  0  0  0  0  0  0  0  0  0  0  0
    0.8130    1.2290   -0.5300 C   0  0  0  0  0  0  0  0  0  0  0  0
   -0.6310    1.1610   -0.6010 C   0  0  0  0  0  0  0  0  0  0  0  0
   -1.2430    0.1010   -0.1220 C   0  0  0  0  0  0  0  0  0  0  0  0
   -2.7440    0.0170   -0.1890 C   0  0  0  0  0  0  0  0  0  0  0  0
   -3.1470   -1.0820   -0.9250 F   0  0  0  0  0  0  0  0  0  0  0  0
   -0.5130   -1.0290    0.4870 C   0  0  0  0  0  0  0  0  0  0  0  0
    0.9500   -0.9300    0.5460 C   0  0  0  0  0  0  0  0  0  0  0  0
  1  2  1  0
  2  3  2  0
  2  9  1  0
  3  4  1  0
  4  5  2  0
  5  6  1  0
  5  8  1  0
  6  7  1  0
  8  9  1  0
M  END
