
     RDKit          3D

  9  9  0  0  0  0  0  0  0  0999 V2000
    2.6850    0.0880   -0.1810 N   0  0  0  0  0  0  0  0  0  0  0  0
    1.2750    0.1360   -0.0810 C   0  0  0  0  0  0  0  0  0  0  0  0
    0.7200    1.3410   -0.1180 C   0  0  0  0  0  0  0  0  0  0  0  0
   -0.7090    1.7090   -0.0380 C   0  0  0  0  0  0  0  0  0  0  0  0
   -1.7870    0.9450   -0.1250 C   0  0  0  0  0  0  0  0  0  0  0  0
   -3.0080    1.5320   -0.0170 F   0  0  0  0  0  0  0  0  0  0  0  0
   -1.7430   -0.5280   -0.3340 C   0  0  0  0  0  0  0  0  0  0  0  0
   -0.7530   -1.1140    0.6120 C   0  0  0  0  0  0  0  0  0  0  0  0
    0.6470   -1.2010    0.0500 C   0  0  0  0  0  0  0  0  0  0  0  0
  1  2  1  0
  2  3  2  0
  2  9  1  0
  3  4  1  0
  4  5  2  0
  5  6  1  0
  5  7  1  0
  7  8  1  0
  8  9  1  0
M  END
