
     RDKit          3D

 13 12  0  0  0  0  0  0  0  0999 V2000
    2.0520    2.4180   -1.0470 C   0  0  0  0  0  0  0  0  0  0  0  0
    1.5180    2.2270    0.2380 O   0  0  0  0  0  0  0  0  0  0  0  0
    1.4000    0.5180    0.5230 P   0  0  0  0  0  0  0  0  0  0  0  0
   -0.2220   -0.0260   -0.2270 C   0  0  0  0  0  0  0  0  0  0  0  0
   -1.2470    0.3730    0.6450 N   0  0  0  0  0  0  0  0  0  0  0  0
   -1.1850   -0.2020    1.9250 C   0  0  0  0  0  0  0  0  0  0  0  0
   -2.4490    0.8940    0.1580 C   0  0  0  0  0  0  0  0  0  0  0  0
   -3.3000   -0.0770   -0.5700 C   0  0  0  0  0  0  0  0  0  0  0  0
   -4.4160    0.2340   -1.0390 O   0  0  0  0  0  0  0  0  0  0  0  0
   -2.8600   -1.3710   -0.7440 O   0  0  0  0  0  0  0  0  0  0  0  0
    2.7210   -0.3320   -0.2190 O   0  0  0  0  0  0  0  0  0  0  0  0
    2.6070   -1.6670    0.1430 C   0  0  0  0  0  0  0  0  0  0  0  0
    3.6540   -2.3940   -0.4360 O   0  0  0  0  0  0  0  0  0  0  0  0
  1  2  1  0
  2  3  1  0
  3  4  1  0
  3 11  1  0
  4  5  1  0
  5  6  1  0
  5  7  1  0
  7  8  1  0
  8  9  2  0
  8 10  1  0
 11 12  1  0
 12 13  1  0
M  END
