
     RDKit          3D

 13 12  0  0  0  0  0  0  0  0999 V2000
    3.5340    0.1330    2.2020 C   0  0  0  0  0  0  0  0  0  0  0  0
    2.9080   -0.5590    1.1300 O   0  0  0  0  0  0  0  0  0  0  0  0
    2.6080    0.0600   -0.0780 C   0  0  0  0  0  0  0  0  0  0  0  0
    2.9300    1.2860   -0.1670 O   0  0  0  0  0  0  0  0  0  0  0  0
    1.9660   -0.5980   -1.2170 C   0  0  0  0  0  0  0  0  0  0  0  0
    0.5400   -0.9310   -1.0480 C   0  0  2  0  0  0  0  0  0  0  0  0
    0.0220   -1.5580   -2.2060 O   0  0  0  0  0  0  0  0  0  0  0  0
   -0.3550    0.1270   -0.7040 N   0  0  0  0  0  0  0  0  0  0  0  0
   -1.7020   -0.3640   -1.0190 C   0  0  0  0  0  0  0  0  0  0  0  0
   -2.7930    0.5950   -0.7080 C   0  0  0  0  0  0  0  0  0  0  0  0
   -2.9720    1.0910    1.0360 P   0  0  0  0  0  0  0  0  0  0  0  0
   -4.4890    0.5880    1.7060 O   0  0  0  0  0  0  0  0  0  0  0  0
   -1.6370    0.6840    2.0490 O   0  0  0  0  0  0  0  0  0  0  0  0
  1  2  1  0
  2  3  1  0
  3  4  2  0
  3  5  1  0
  5  6  1  0
  6  7  1  6
  6  8  1  0
  8  9  1  0
  9 10  1  0
 10 11  1  0
 11 12  1  0
 11 13  1  0
M  END
