
     RDKit          3D

 13 12  0  0  0  0  0  0  0  0999 V2000
    3.3560   -1.6890   -0.2500 C   0  0  0  0  0  0  0  0  0  0  0  0
    2.1620   -1.2530    0.5760 C   0  0  0  0  0  0  0  0  0  0  0  0
    1.1090   -1.0550   -0.2890 O   0  0  0  0  0  0  0  0  0  0  0  0
   -0.0130   -0.6640    0.3240 O   0  0  0  0  0  0  0  0  0  0  0  0
   -0.5530    0.5760    0.0400 C   0  0  0  0  0  0  0  0  0  0  0  0
    0.1560    1.7800    0.4760 C   0  0  0  0  0  0  0  0  0  0  0  0
   -0.3310    2.9450    0.2200 N   0  0  0  0  0  0  0  0  0  0  0  0
    0.3240    4.0730    0.6230 O   0  0  0  0  0  0  0  0  0  0  0  0
   -0.3170    5.1880    0.9220 O   0  0  0  0  0  0  0  0  0  0  0  0
   -1.6770    0.6830   -0.6070 C   0  0  0  0  0  0  0  0  0  0  0  0
   -2.4740   -0.4470   -1.0910 C   0  0  0  0  0  0  0  0  0  0  0  0
   -1.6750   -2.0330   -0.6650 P   0  0  0  0  0  0  0  0  0  0  0  0
   -2.1820   -2.6920    0.8300 O   0  0  0  0  0  0  0  0  0  0  0  0
  1  2  1  0
  2  3  1  0
  3  4  1  0
  4  5  1  0
  5  6  1  0
  5 10  2  3
  6  7  2  3
  7  8  1  0
  8  9  1  0
 10 11  1  0
 11 12  1  0
 12 13  1  0
M  END
