
     RDKit          3D

 13 12  0  0  0  0  0  0  0  0999 V2000
    4.8040    1.2600    0.2110 C   0  0  0  0  0  0  0  0  0  0  0  0
    3.3130    1.0860    0.0130 C   0  0  0  0  0  0  0  0  0  0  0  0
    3.0790    0.0440   -0.8980 O   0  0  0  0  0  0  0  0  0  0  0  0
    1.7650   -0.0680   -1.0360 O   0  0  0  0  0  0  0  0  0  0  0  0
    1.3910   -1.2070   -0.4000 O   0  0  0  0  0  0  0  0  0  0  0  0
    0.1360   -1.1770    0.2040 C   0  0  0  0  0  0  0  0  0  0  0  0
   -0.1790   -1.9370    1.4360 C   0  0  0  0  0  0  0  0  0  0  0  0
   -0.7900   -0.4660   -0.3220 N   0  0  0  0  0  0  0  0  0  0  0  0
   -2.1130   -0.3780    0.2350 C   0  0  2  0  0  0  0  0  0  0  0  0
   -3.0720   -1.2850   -0.5370 C   0  0  0  0  0  0  0  0  0  0  0  0
   -2.6650    1.3930    0.1180 P   0  0  0  0  0  0  0  0  0  0  0  0
   -3.9220    1.4940   -1.0780 O   0  0  0  0  0  0  0  0  0  0  0  0
   -3.2250    1.9950    1.6420 O   0  0  0  0  0  0  0  0  0  0  0  0
  1  2  1  0
  2  3  1  0
  3  4  1  0
  4  5  1  0
  5  6  1  0
  6  7  1  0
  6  8  2  3
  8  9  1  0
  9 10  1  6
  9 11  1  0
 11 12  1  0
 11 13  1  0
M  END
