
     RDKit          3D

 13 12  0  0  0  0  0  0  0  0999 V2000
    4.2110    0.5030    0.1630 C   0  0  0  0  0  0  0  0  0  0  0  0
    3.0990   -0.3060   -0.1270 O   0  0  0  0  0  0  0  0  0  0  0  0
    1.7930    0.2300   -0.2180 C   0  0  0  0  0  0  0  0  0  0  0  0
    1.7230    1.4430   -0.0230 O   0  0  0  0  0  0  0  0  0  0  0  0
    0.6450   -0.6110   -0.5170 C   0  0  0  0  0  0  0  0  0  0  0  0
   -0.6500   -0.1630   -0.5270 N   0  0  0  0  0  0  0  0  0  0  0  0
   -1.5550   -1.1770   -1.0170 C   0  0  0  0  0  0  0  0  0  0  0  0
   -1.7790   -2.3630   -0.1700 C   0  0  0  0  0  0  0  0  0  0  0  0
   -0.7060   -3.1460    0.1360 O   0  0  0  0  0  0  0  0  0  0  0  0
   -1.2760    0.6320    0.4280 C   0  0  0  0  0  0  0  0  0  0  0  0
   -0.7680    2.4010    0.5770 P   0  0  0  0  0  0  0  0  0  0  0  0
   -1.3960    3.2140   -0.8430 O   0  0  0  0  0  0  0  0  0  0  0  0
   -1.5910    3.1030    1.9350 O   0  0  0  0  0  0  0  0  0  0  0  0
  1  2  1  0
  2  3  1  0
  3  4  2  0
  3  5  1  0
  5  6  1  0
  6  7  1  0
  6 10  1  0
  7  8  1  0
  8  9  1  0
 10 11  1  0
 11 12  1  0
 11 13  1  0
M  END
