
     RDKit          3D

 13 13  0  0  0  0  0  0  0  0999 V2000
    5.2850   -1.2330    0.2540 O   0  0  0  0  0  0  0  0  0  0  0  0
    4.2230   -0.0430   -0.3950 P   0  0  0  0  0  0  0  0  0  0  0  0
    4.3730    1.4210    0.5500 O   0  0  0  0  0  0  0  0  0  0  0  0
    2.4560   -0.6180   -0.2620 C   0  0  0  0  0  0  0  0  0  0  0  0
    1.6460    0.2740   -1.1820 C   0  0  0  0  0  0  0  0  0  0  0  0
    0.2520   -0.0300   -1.2040 N   0  0  0  0  0  0  0  0  0  0  0  0
   -0.4340    0.2630    0.0270 C   0  0  0  0  0  0  0  0  0  0  0  0
   -1.8700   -0.1030   -0.1650 C   0  0  2  0  0  0  0  0  0  0  0  0
   -2.7650    0.2680    1.0000 C   0  0  0  0  0  0  0  0  0  0  0  0
   -4.1830    0.2760    0.4020 C   0  0  0  0  0  0  0  0  0  0  0  0
   -4.0650   -0.5080   -0.7700 O   0  0  0  0  0  0  0  0  0  0  0  0
   -3.3990   -1.6290   -0.4980 O   0  0  0  0  0  0  0  0  0  0  0  0
   -2.0890   -1.4290   -0.4690 O   0  0  0  0  0  0  0  0  0  0  0  0
  1  2  1  0
  2  3  1  0
  2  4  1  0
  4  5  1  0
  5  6  1  0
  6  7  1  0
  8  7  1  1
  8  9  1  0
  8 13  1  0
  9 10  1  0
 10 11  1  0
 11 12  1  0
 12 13  1  0
M  END
