
     RDKit          3D

 13 12  0  0  0  0  0  0  0  0999 V2000
   -3.1940   -1.5920    0.2910 O   0  0  0  0  0  0  0  0  0  0  0  0
   -1.9980   -1.0960    0.6800 N   0  0  0  0  0  0  0  0  0  0  0  0
   -1.4370   -0.2220   -0.3240 C   0  0  2  0  0  0  0  0  0  0  0  0
   -0.2160    0.2460    0.1450 O   0  0  0  0  0  0  0  0  0  0  0  0
    0.7930   -0.1670   -0.6140 O   0  0  0  0  0  0  0  0  0  0  0  0
    1.8390    0.6240   -0.3750 O   0  0  0  0  0  0  0  0  0  0  0  0
    2.9850   -0.3470    0.5000 P   0  0  0  0  0  0  0  0  0  0  0  0
    3.6950   -1.5150   -0.5430 O   0  0  0  0  0  0  0  0  0  0  0  0
    4.1390    0.5970    1.3450 O   0  0  0  0  0  0  0  0  0  0  0  0
    5.3720    0.3000    1.0720 O   0  0  0  0  0  0  0  0  0  0  0  0
   -2.5050    1.2270   -0.7000 P   0  0  0  0  0  0  0  0  0  0  0  0
   -4.1890    0.8780   -0.5030 O   0  0  0  0  0  0  0  0  0  0  0  0
   -2.0080    2.5440    0.3170 O   0  0  0  0  0  0  0  0  0  0  0  0
  1  2  1  0
  3  2  1  1
  3  4  1  0
  3 11  1  0
  4  5  1  0
  5  6  1  0
  6  7  1  0
  7  8  1  0
  7  9  1  0
  9 10  1  0
 11 12  1  0
 11 13  1  0
M  END
