
     RDKit          3D

 13 12  0  0  0  0  0  0  0  0999 V2000
   -0.6610    2.6570   -0.6360 O   0  0  0  0  0  0  0  0  0  0  0  0
   -0.9820    1.9150    0.3930 O   0  0  0  0  0  0  0  0  0  0  0  0
   -1.8120    0.9160    0.1030 N   0  0  0  0  0  0  0  0  0  0  0  0
   -1.0830   -0.2860   -0.2830 C   0  0  1  0  0  0  0  0  0  0  0  0
   -0.2480   -0.7270    0.7280 O   0  0  0  0  0  0  0  0  0  0  0  0
    0.9840   -0.7350    0.2750 O   0  0  0  0  0  0  0  0  0  0  0  0
    1.7390    0.1600    0.8370 O   0  0  0  0  0  0  0  0  0  0  0  0
    3.2640    0.1610    0.0100 P   0  0  0  0  0  0  0  0  0  0  0  0
    4.0270    1.7230    0.1560 O   0  0  0  0  0  0  0  0  0  0  0  0
    4.3110   -1.0050    0.7580 O   0  0  0  0  0  0  0  0  0  0  0  0
   -2.3000   -1.6210   -0.7570 P   0  0  0  0  0  0  0  0  0  0  0  0
   -3.8260   -0.8740   -1.0890 O   0  0  0  0  0  0  0  0  0  0  0  0
   -2.4210   -2.7300    0.5700 O   0  0  0  0  0  0  0  0  0  0  0  0
  1  2  1  0
  2  3  1  0
  4  3  1  1
  4  5  1  0
  4 11  1  0
  5  6  1  0
  6  7  1  0
  7  8  1  0
  8  9  1  0
  8 10  1  0
 11 12  1  0
 11 13  1  0
M  END
