
     RDKit          3D

 13 12  0  0  0  0  0  0  0  0999 V2000
   -2.8310   -0.5040   -1.2650 O   0  0  0  0  0  0  0  0  0  0  0  0
   -2.7750   -1.3230   -0.2480 O   0  0  0  0  0  0  0  0  0  0  0  0
   -1.5360   -1.4430    0.1840 O   0  0  0  0  0  0  0  0  0  0  0  0
   -1.0060   -0.1890    0.4150 C   0  0  1  0  0  0  0  0  0  0  0  0
   -0.6830   -0.0180    1.7660 O   0  0  0  0  0  0  0  0  0  0  0  0
   -1.3240    0.9650    2.3170 O   0  0  0  0  0  0  0  0  0  0  0  0
    0.1720    0.0920   -0.3560 N   0  0  0  0  0  0  0  0  0  0  0  0
    1.5310   -0.9460   -0.1290 P   0  0  0  0  0  0  0  0  0  0  0  0
    1.8850   -1.4380    1.4530 O   0  0  0  0  0  0  0  0  0  0  0  0
    1.9040   -2.0490   -1.3540 O   0  0  0  0  0  0  0  0  0  0  0  0
    0.5610    1.8320   -0.3050 P   0  0  0  0  0  0  0  0  0  0  0  0
    1.7110    2.1760    0.9430 O   0  0  0  0  0  0  0  0  0  0  0  0
    1.1200    2.3900   -1.8520 O   0  0  0  0  0  0  0  0  0  0  0  0
  1  2  1  0
  2  3  1  0
  4  3  1  1
  4  5  1  0
  4  7  1  0
  5  6  1  0
  7  8  1  0
  7 11  1  0
  8  9  1  0
  8 10  1  0
 11 12  1  0
 11 13  1  0
M  END
