
     RDKit          3D

 13 12  0  0  0  0  0  0  0  0999 V2000
   -0.4470    1.6510    1.4980 O   0  0  0  0  0  0  0  0  0  0  0  0
   -0.8430    0.4150    1.4580 O   0  0  0  0  0  0  0  0  0  0  0  0
   -1.0600   -0.0320    0.1800 C   0  0  1  0  0  0  0  0  0  0  0  0
   -0.2730   -1.0820   -0.2050 O   0  0  0  0  0  0  0  0  0  0  0  0
    0.5210   -0.8290   -1.2540 N   0  0  0  0  0  0  0  0  0  0  0  0
    1.4460    0.1010   -1.0490 O   0  0  0  0  0  0  0  0  0  0  0  0
    2.5080   -0.4480    0.2140 P   0  0  0  0  0  0  0  0  0  0  0  0
    2.6240    0.6920    1.5000 O   0  0  0  0  0  0  0  0  0  0  0  0
    4.0380   -0.8640   -0.4560 O   0  0  0  0  0  0  0  0  0  0  0  0
    4.6130    0.1610   -1.0030 O   0  0  0  0  0  0  0  0  0  0  0  0
   -2.8660   -0.4870    0.0240 P   0  0  0  0  0  0  0  0  0  0  0  0
   -3.8900    0.8260    0.4290 O   0  0  0  0  0  0  0  0  0  0  0  0
   -3.2210   -1.2110   -1.4850 O   0  0  0  0  0  0  0  0  0  0  0  0
  1  2  1  0
  3  2  1  1
  3  4  1  0
  3 11  1  0
  4  5  1  0
  5  6  1  0
  6  7  1  0
  7  8  1  0
  7  9  1  0
  9 10  1  0
 11 12  1  0
 11 13  1  0
M  END
