
     RDKit          3D

 13 12  0  0  0  0  0  0  0  0999 V2000
   -4.0830   -0.2210   -0.5880 N   0  0  0  0  0  0  0  0  0  0  0  0
   -3.2310    0.3310    0.4450 C   0  0  1  0  0  0  0  0  0  0  0  0
   -3.2670   -0.4920    1.5820 O   0  0  0  0  0  0  0  0  0  0  0  0
   -1.9470    0.4190   -0.0450 O   0  0  0  0  0  0  0  0  0  0  0  0
   -1.4800    1.6590   -0.0500 O   0  0  0  0  0  0  0  0  0  0  0  0
   -0.3380    1.6280   -0.7020 O   0  0  0  0  0  0  0  0  0  0  0  0
    0.9850    1.2140    0.3320 P   0  0  0  0  0  0  0  0  0  0  0  0
    2.4320    1.8430   -0.3900 O   0  0  0  0  0  0  0  0  0  0  0  0
    1.0870   -0.5030    0.5590 O   0  0  0  0  0  0  0  0  0  0  0  0
    1.9480   -1.0520   -0.2960 O   0  0  0  0  0  0  0  0  0  0  0  0
    3.4510   -1.2040    0.5140 P   0  0  0  0  0  0  0  0  0  0  0  0
    4.2970   -2.6530    0.1180 O   0  0  0  0  0  0  0  0  0  0  0  0
    4.4550    0.2010    0.3390 O   0  0  0  0  0  0  0  0  0  0  0  0
  2  1  1  6
  2  3  1  0
  2  4  1  0
  4  5  1  0
  5  6  1  0
  6  7  1  0
  7  8  1  0
  7  9  1  0
  9 10  1  0
 10 11  1  0
 11 12  1  0
 11 13  1  0
M  END
