
     RDKit          3D

 13 12  0  0  0  0  0  0  0  0999 V2000
    1.5440   -2.6010   -1.3540 N   0  0  0  0  0  0  0  0  0  0  0  0
    1.0360   -1.3590   -1.5270 O   0  0  0  0  0  0  0  0  0  0  0  0
    0.6180   -0.9520   -0.3490 O   0  0  0  0  0  0  0  0  0  0  0  0
    0.8540    0.4110   -0.1430 C   0  0  1  0  0  0  0  0  0  0  0  0
   -0.3360    1.0530    0.1180 O   0  0  0  0  0  0  0  0  0  0  0  0
   -0.6070    2.0210   -0.7360 O   0  0  0  0  0  0  0  0  0  0  0  0
   -1.8810    2.0200   -0.9990 O   0  0  0  0  0  0  0  0  0  0  0  0
   -2.7920    1.1410    0.1770 P   0  0  0  0  0  0  0  0  0  0  0  0
   -2.4220   -0.5470    0.1110 O   0  0  0  0  0  0  0  0  0  0  0  0
   -4.4720    1.3550   -0.1680 O   0  0  0  0  0  0  0  0  0  0  0  0
    1.9820    0.6890    1.3020 P   0  0  0  0  0  0  0  0  0  0  0  0
    1.8900   -0.7050    2.3340 O   0  0  0  0  0  0  0  0  0  0  0  0
    3.6160    0.9530    0.7930 O   0  0  0  0  0  0  0  0  0  0  0  0
  1  2  1  0
  2  3  1  0
  4  3  1  1
  4  5  1  0
  4 11  1  0
  5  6  1  0
  6  7  1  0
  7  8  1  0
  8  9  1  0
  8 10  1  0
 11 12  1  0
 11 13  1  0
M  END
