
     RDKit          3D

 24 26  0  0  0  0  0  0  0  0999 V2000
   -6.1970   -1.8400   -0.4120 C   0  0  0  0  0  0  0  0  0  0  0  0
   -5.9420   -0.6440    0.0620 C   0  0  0  0  0  0  0  0  0  0  0  0
   -6.8330    0.3910    0.5420 C   0  0  0  0  0  0  0  0  0  0  0  0
   -6.1370    1.4410    0.9340 C   0  0  0  0  0  0  0  0  0  0  0  0
   -6.6280    2.6150    1.4480 F   0  0  0  0  0  0  0  0  0  0  0  0
   -4.7280    1.1200    0.7150 C   0  0  0  0  0  0  0  0  0  0  0  0
   -4.5780   -0.0900    0.2060 C   0  0  0  0  0  0  0  0  0  0  0  0
   -3.3480   -0.8360   -0.1750 C   0  0  0  0  0  0  0  0  0  0  0  0
   -2.2060   -0.0880    0.0920 N   0  0  0  0  0  0  0  0  0  0  0  0
   -1.7660    0.1560    1.3960 C   0  0  0  0  0  0  0  0  0  0  0  0
   -0.3590   -0.3440    1.5780 C   0  0  0  0  0  0  0  0  0  0  0  0
    0.5140    0.0160    0.5420 N   0  0  0  0  0  0  0  0  0  0  0  0
    1.8820   -0.2720    0.7240 C   0  0  0  0  0  0  0  0  0  0  0  0
    2.6820    0.2020   -0.4410 C   0  0  0  0  0  0  0  0  0  0  0  0
    4.1300   -0.0420   -0.3560 C   0  0  0  0  0  0  0  0  0  0  0  0
    5.0750    0.9470   -0.0500 C   0  0  0  0  0  0  0  0  0  0  0  0
    6.3010    0.3400   -0.0730 C   0  0  0  0  0  0  0  0  0  0  0  0
    7.6410    0.9570    0.1860 C   0  0  0  0  0  0  0  0  0  0  0  0
    6.1020   -0.9110   -0.3720 O   0  0  0  0  0  0  0  0  0  0  0  0
    4.8410   -1.1890   -0.5490 C   0  0  0  0  0  0  0  0  0  0  0  0
    4.2660   -2.5140   -0.8990 C   0  0  0  0  0  0  0  0  0  0  0  0
    0.0630    0.2770   -0.7580 C   0  0  0  0  0  0  0  0  0  0  0  0
   -1.4160    0.4190   -0.9660 C   0  0  2  0  0  0  0  0  0  0  0  0
   -1.7250    1.8940   -1.1250 C   0  0  0  0  0  0  0  0  0  0  0  0
  1  2  2  0
  2  3  1  0
  2  7  1  0
  3  4  2  0
  4  5  1  0
  4  6  1  0
  6  7  2  0
  7  8  1  0
  8  9  1  0
  9 10  1  0
  9 23  1  0
 10 11  1  0
 11 12  1  0
 12 13  1  0
 12 22  1  0
 13 14  1  0
 14 15  1  0
 15 16  1  0
 15 20  2  0
 16 17  2  0
 17 18  1  0
 17 19  1  0
 19 20  1  0
 20 21  1  0
 22 23  1  0
 23 24  1  1
M  END
