
     RDKit          3D

 24 26  0  0  0  0  0  0  0  0999 V2000
   -4.3220    2.7580    1.7260 C   0  0  0  0  0  0  0  0  0  0  0  0
   -3.1750    2.2020    0.9510 C   0  0  0  0  0  0  0  0  0  0  0  0
   -2.2040    3.0510    0.5370 C   0  0  0  0  0  0  0  0  0  0  0  0
   -1.1260    2.5560   -0.1860 C   0  0  0  0  0  0  0  0  0  0  0  0
   -0.0640    3.5110   -0.6330 C   0  0  0  0  0  0  0  0  0  0  0  0
   -1.0020    1.2280   -0.5020 C   0  0  0  0  0  0  0  0  0  0  0  0
    0.1040    0.6710   -1.2520 C   0  0  0  0  0  0  0  0  0  0  0  0
    0.0520    0.5930   -2.5220 O   0  0  0  0  0  0  0  0  0  0  0  0
    1.2940    0.1850   -0.6410 N   0  0  0  0  0  0  0  0  0  0  0  0
    1.3710    0.2660    0.8050 C   0  0  0  0  0  0  0  0  0  0  0  0
    2.7430   -0.0440    1.3200 C   0  0  0  0  0  0  0  0  0  0  0  0
    3.2380   -1.3460    0.7760 C   0  0  2  0  0  0  0  0  0  0  0  0
    4.7050   -1.4820    1.1910 C   0  0  0  0  0  0  0  0  0  0  0  0
    3.0940   -1.4910   -0.7040 C   0  0  0  0  0  0  0  0  0  0  0  0
    2.3870   -0.3640   -1.3750 C   0  0  0  0  0  0  0  0  0  0  0  0
   -2.0230    0.3640   -0.0620 C   0  0  0  0  0  0  0  0  0  0  0  0
   -1.9600   -1.0490   -0.3580 C   0  0  0  0  0  0  0  0  0  0  0  0
   -2.9280   -1.9170    0.0500 C   0  0  0  0  0  0  0  0  0  0  0  0
   -2.8600   -3.2860   -0.2410 C   0  0  0  0  0  0  0  0  0  0  0  0
   -1.7880   -3.7490   -0.9550 C   0  0  0  0  0  0  0  0  0  0  0  0
   -1.6580   -5.0590   -1.2710 F   0  0  0  0  0  0  0  0  0  0  0  0
   -0.8110   -2.8350   -1.3590 C   0  0  0  0  0  0  0  0  0  0  0  0
   -0.9170   -1.5210   -1.0560 N   0  0  0  0  0  0  0  0  0  0  0  0
   -3.0830    0.8580    0.6500 C   0  0  0  0  0  0  0  0  0  0  0  0
  1  2  1  0
  2  3  2  0
  2 24  1  0
  3  4  1  0
  4  5  1  0
  4  6  2  0
  6  7  1  0
  6 16  1  0
  7  8  2  0
  7  9  1  0
  9 10  1  0
  9 15  1  0
 10 11  1  0
 11 12  1  0
 12 13  1  6
 12 14  1  0
 14 15  1  0
 16 17  1  0
 16 24  2  0
 17 18  2  0
 17 23  1  0
 18 19  1  0
 19 20  2  0
 20 21  1  0
 20 22  1  0
 22 23  2  0
M  END
