
     RDKit          3D

 23 25  0  0  0  0  0  0  0  0999 V2000
    3.4120   -2.3230   -2.9760 N   0  0  0  0  0  0  0  0  0  0  0  0
    3.1560   -1.4610   -2.2050 C   0  0  0  0  0  0  0  0  0  0  0  0
    2.8420   -0.4100   -1.2960 C   0  0  0  0  0  0  0  0  0  0  0  0
    1.5300   -0.0400   -1.0000 C   0  0  0  0  0  0  0  0  0  0  0  0
    1.2170    0.9190   -0.0790 C   0  0  0  0  0  0  0  0  0  0  0  0
   -0.1000    1.2950    0.2360 N   0  0  0  0  0  0  0  0  0  0  0  0
   -1.2860    0.7280   -0.3340 C   0  0  0  0  0  0  0  0  0  0  0  0
   -1.5410   -0.6620    0.1340 C   0  0  0  0  0  0  0  0  0  0  0  0
   -2.8280   -1.2040   -0.4670 C   0  0  2  0  0  0  0  0  0  0  0  0
   -2.7610   -1.2100   -1.9780 C   0  0  0  0  0  0  0  0  0  0  0  0
   -1.7160   -1.9970   -2.4260 O   0  0  0  0  0  0  0  0  0  0  0  0
   -4.0230   -0.4230   -0.0010 C   0  0  0  0  0  0  0  0  0  0  0  0
   -5.0970   -1.4790    0.1240 C   0  0  0  0  0  0  0  0  0  0  0  0
   -4.3570   -2.6390    0.7570 C   0  0  0  0  0  0  0  0  0  0  0  0
   -3.0270   -2.6250    0.0570 C   0  0  0  0  0  0  0  0  0  0  0  0
    2.2470    1.5730    0.6050 C   0  0  0  0  0  0  0  0  0  0  0  0
    3.5460    1.2300    0.3290 C   0  0  0  0  0  0  0  0  0  0  0  0
    3.8350    0.2630   -0.5980 C   0  0  0  0  0  0  0  0  0  0  0  0
    4.3740    2.0840    1.1990 C   0  0  0  0  0  0  0  0  0  0  0  0
    5.6890    2.0560    1.2290 C   0  0  0  0  0  0  0  0  0  0  0  0
    6.3890    2.9120    2.0950 N   0  0  0  0  0  0  0  0  0  0  0  0
    3.4920    2.9280    1.9820 C   0  0  0  0  0  0  0  0  0  0  0  0
    2.2440    2.6320    1.6380 C   0  0  0  0  0  0  0  0  0  0  0  0
  1  2  3  0
  2  3  1  0
  3  4  2  0
  3 18  1  0
  4  5  1  0
  5  6  1  0
  5 16  2  0
  6  7  1  0
  7  8  1  0
  9  8  1  1
  9 10  1  0
  9 12  1  0
  9 15  1  0
 10 11  1  0
 12 13  1  0
 13 14  1  0
 14 15  1  0
 16 17  1  0
 16 23  1  0
 17 18  2  0
 17 19  1  0
 19 20  2  3
 19 22  1  0
 20 21  1  0
 22 23  2  0
M  END
