
     RDKit          3D

 24 26  0  0  0  0  0  0  0  0999 V2000
    3.5080    2.3360    1.5500 C   0  0  0  0  0  0  0  0  0  0  0  0
    3.6620    1.9510    0.1310 C   0  0  0  0  0  0  0  0  0  0  0  0
    3.2570    0.7850   -0.3220 C   0  0  0  0  0  0  0  0  0  0  0  0
    3.5130    0.6180   -1.7720 C   0  0  0  0  0  0  0  0  0  0  0  0
    3.7110   -0.5290   -2.4070 C   0  0  0  0  0  0  0  0  0  0  0  0
    3.7280   -1.9090   -1.8620 C   0  0  0  0  0  0  0  0  0  0  0  0
    4.2030   -1.7750   -0.4090 C   0  0  0  0  0  0  0  0  0  0  0  0
    3.0620   -1.5420    0.5340 C   0  0  0  0  0  0  0  0  0  0  0  0
    2.6520   -0.0990    0.6610 C   0  0  2  0  0  0  0  0  0  0  0  0
    1.1470   -0.0520    0.6670 C   0  0  0  0  0  0  0  0  0  0  0  0
    0.4610   -0.2790   -0.5050 C   0  0  0  0  0  0  0  0  0  0  0  0
   -0.9370   -0.2490   -0.5260 C   0  0  0  0  0  0  0  0  0  0  0  0
   -1.6650    0.0080    0.6200 C   0  0  0  0  0  0  0  0  0  0  0  0
   -3.1470    0.0430    0.5150 C   0  0  0  0  0  0  0  0  0  0  0  0
   -3.6620   -0.2260   -0.6460 N   0  0  0  0  0  0  0  0  0  0  0  0
   -5.0040   -0.2420   -0.9350 N   0  0  0  0  0  0  0  0  0  0  0  0
   -5.5450   -0.5600   -2.2500 C   0  0  0  0  0  0  0  0  0  0  0  0
   -5.9280    0.0690    0.1420 C   0  0  0  0  0  0  0  0  0  0  0  0
   -7.0890   -0.3650    0.1700 O   0  0  0  0  0  0  0  0  0  0  0  0
   -5.3370    0.9450    1.1770 C   0  0  0  0  0  0  0  0  0  0  0  0
   -4.0300    0.3550    1.6410 C   0  0  0  0  0  0  0  0  0  0  0  0
   -0.9790    0.2300    1.7680 C   0  0  0  0  0  0  0  0  0  0  0  0
   -1.6050    0.4670    2.9250 F   0  0  0  0  0  0  0  0  0  0  0  0
    0.4240    0.2060    1.8180 C   0  0  0  0  0  0  0  0  0  0  0  0
  1  2  1  0
  2  3  2  3
  3  4  1  0
  3  9  1  0
  4  5  2  0
  5  6  1  0
  6  7  1  0
  7  8  1  0
  8  9  1  0
  9 10  1  6
 10 11  2  0
 10 24  1  0
 11 12  1  0
 12 13  2  0
 13 14  1  0
 13 22  1  0
 14 15  2  0
 14 21  1  0
 15 16  1  0
 16 17  1  0
 16 18  1  0
 18 19  2  0
 18 20  1  0
 20 21  1  0
 22 23  1  0
 22 24  2  0
M  END
