
     RDKit          3D

 23 25  0  0  0  0  0  0  0  0999 V2000
    1.2320    4.6200   -1.8080 C   0  0  0  0  0  0  0  0  0  0  0  0
    1.9690    3.4150   -1.3180 C   0  0  0  0  0  0  0  0  0  0  0  0
    1.1000    2.3840   -0.8910 O   0  0  0  0  0  0  0  0  0  0  0  0
    1.6180    1.1970   -0.4080 C   0  0  0  0  0  0  0  0  0  0  0  0
    2.9750    1.0190   -0.3430 C   0  0  0  0  0  0  0  0  0  0  0  0
    3.4750   -0.1480    0.1320 C   0  0  0  0  0  0  0  0  0  0  0  0
    2.6060   -1.1320    0.5390 C   0  0  0  0  0  0  0  0  0  0  0  0
    1.2160   -0.9470    0.4710 C   0  0  0  0  0  0  0  0  0  0  0  0
    0.6880    0.2230   -0.0040 C   0  0  0  0  0  0  0  0  0  0  0  0
   -0.6980    0.4470   -0.1570 N   0  0  0  0  0  0  0  0  0  0  0  0
   -1.7750   -0.1980    0.4500 C   0  0  0  0  0  0  0  0  0  0  0  0
   -1.7440   -0.8650    1.6670 C   0  0  0  0  0  0  0  0  0  0  0  0
   -2.8740   -1.4110    2.2490 C   0  0  0  0  0  0  0  0  0  0  0  0
   -4.0730   -1.2890    1.6030 C   0  0  0  0  0  0  0  0  0  0  0  0
   -4.1730   -0.6260    0.3740 C   0  0  0  0  0  0  0  0  0  0  0  0
   -5.4660   -0.5390   -0.1960 N   0  0  0  0  0  0  0  0  0  0  0  0
   -6.6300   -1.1480    0.4280 C   0  0  0  0  0  0  0  0  0  0  0  0
   -3.0380   -0.1020   -0.1720 C   0  0  0  0  0  0  0  0  0  0  0  0
   -3.1190    0.5770   -1.4900 C   0  0  0  0  0  0  0  0  0  0  0  0
    3.1940   -2.3920    1.0520 C   0  0  0  0  0  0  0  0  0  0  0  0
    4.3000   -2.7950    0.1360 C   0  0  0  0  0  0  0  0  0  0  0  0
    5.2590   -1.7880   -0.1600 N   0  0  0  0  0  0  0  0  0  0  0  0
    4.9300   -0.4620    0.2530 C   0  0  0  0  0  0  0  0  0  0  0  0
  1  2  1  0
  2  3  1  0
  3  4  1  0
  4  5  2  0
  4  9  1  0
  5  6  1  0
  6  7  2  0
  6 23  1  0
  7  8  1  0
  7 20  1  0
  8  9  2  0
  9 10  1  0
 10 11  1  0
 11 12  2  0
 11 18  1  0
 12 13  1  0
 13 14  2  0
 14 15  1  0
 15 16  1  0
 15 18  2  0
 16 17  1  0
 18 19  1  0
 20 21  1  0
 21 22  1  0
 22 23  1  0
M  END
