
     RDKit          3D

 20 22  0  0  0  0  0  0  0  0999 V2000
   -3.8860    2.4730    0.2150 C   0  0  0  0  0  0  0  0  0  0  0  0
   -3.7870    1.1790    1.5020 S   0  0  0  0  0  0  0  0  0  0  0  0
   -3.5800   -0.4590    0.7540 C   0  0  0  0  0  0  0  0  0  0  0  0
   -2.2540   -0.5530    0.0630 C   0  0  1  0  0  0  0  0  0  0  0  0
   -1.1730   -0.3480    0.9520 O   0  0  0  0  0  0  0  0  0  0  0  0
   -0.1220   -0.6100    0.0520 C   0  0  1  0  0  0  0  0  0  0  0  0
    1.1730   -0.3830    0.5730 N   0  0  0  0  0  0  0  0  0  0  0  0
    1.7570   -0.8160    1.6800 C   0  0  0  0  0  0  0  0  0  0  0  0
    3.0250   -0.3400    1.7750 N   0  0  0  0  0  0  0  0  0  0  0  0
    3.2670    0.4190    0.7040 C   0  0  0  0  0  0  0  0  0  0  0  0
    4.3270    1.1640    0.2180 C   0  0  0  0  0  0  0  0  0  0  0  0
    5.5190    1.2150    0.9520 N   0  0  0  0  0  0  0  0  0  0  0  0
    4.2150    1.8330   -0.9520 N   0  0  0  0  0  0  0  0  0  0  0  0
    3.0940    1.8000   -1.6680 C   0  0  0  0  0  0  0  0  0  0  0  0
    2.0670    1.0810   -1.2010 N   0  0  0  0  0  0  0  0  0  0  0  0
    2.1120    0.3920   -0.0460 C   0  0  0  0  0  0  0  0  0  0  0  0
   -0.4390   -2.0240   -0.3410 C   0  0  2  0  0  0  0  0  0  0  0  0
    0.0810   -2.3200   -1.5930 O   0  0  0  0  0  0  0  0  0  0  0  0
   -1.9690   -1.9420   -0.4630 C   0  0  2  0  0  0  0  0  0  0  0  0
   -2.3300   -1.9830   -1.8020 O   0  0  0  0  0  0  0  0  0  0  0  0
  1  2  1  0
  2  3  1  0
  4  3  1  1
  4  5  1  0
  4 19  1  0
  5  6  1  0
  6  7  1  1
  6 17  1  0
  7  8  1  0
  7 16  1  0
  8  9  2  0
  9 10  1  0
 10 11  2  0
 10 16  1  0
 11 12  1  0
 11 13  1  0
 13 14  2  0
 14 15  1  0
 15 16  2  0
 17 18  1  6
 17 19  1  0
 19 20  1  6
M  END
