
     RDKit          3D

 24 26  0  0  0  0  0  0  0  0999 V2000
    7.6140    0.6850   -1.0410 C   0  0  0  0  0  0  0  0  0  0  0  0
    6.4940   -0.0720   -0.4140 C   0  0  0  0  0  0  0  0  0  0  0  0
    6.7130   -1.3100    0.1380 C   0  0  0  0  0  0  0  0  0  0  0  0
    5.6980   -2.0450    0.7300 C   0  0  0  0  0  0  0  0  0  0  0  0
    5.8990   -3.2630    1.2770 F   0  0  0  0  0  0  0  0  0  0  0  0
    4.4100   -1.5000    0.7610 C   0  0  0  0  0  0  0  0  0  0  0  0
    4.1640   -0.2650    0.2160 C   0  0  0  0  0  0  0  0  0  0  0  0
    2.8610    0.2760    0.2520 N   0  0  0  0  0  0  0  0  0  0  0  0
    1.8040   -0.4590    0.2370 C   0  0  0  0  0  0  0  0  0  0  0  0
    0.4900    0.1540    0.2760 C   0  0  0  0  0  0  0  0  0  0  0  0
    0.4030    1.5260    0.3290 C   0  0  0  0  0  0  0  0  0  0  0  0
   -0.8370    2.0910    0.3650 C   0  0  0  0  0  0  0  0  0  0  0  0
   -1.9660    1.2950    0.3490 C   0  0  0  0  0  0  0  0  0  0  0  0
   -1.9010   -0.0500    0.2970 N   0  0  0  0  0  0  0  0  0  0  0  0
   -0.6770   -0.6070    0.2610 C   0  0  0  0  0  0  0  0  0  0  0  0
   -0.5470   -1.8550    0.2130 O   0  0  0  0  0  0  0  0  0  0  0  0
   -2.8400   -1.1360    0.2670 C   0  0  0  0  0  0  0  0  0  0  0  0
   -3.7570   -1.1290   -0.9060 C   0  0  1  0  0  0  0  0  0  0  0  0
   -4.9480   -2.0330   -0.5750 C   0  0  0  0  0  0  0  0  0  0  0  0
   -4.2320    0.2490   -1.3010 C   0  0  0  0  0  0  0  0  0  0  0  0
   -5.1010    0.9010   -0.2850 C   0  0  0  0  0  0  0  0  0  0  0  0
   -4.3890    1.6150    0.8030 C   0  0  0  0  0  0  0  0  0  0  0  0
   -3.0920    2.2460    0.3980 C   0  0  0  0  0  0  0  0  0  0  0  0
    5.2130    0.4350   -0.3670 C   0  0  0  0  0  0  0  0  0  0  0  0
  1  2  1  0
  2  3  2  0
  2 24  1  0
  3  4  1  0
  4  5  1  0
  4  6  2  0
  6  7  1  0
  7  8  1  0
  7 24  2  0
  8  9  2  3
  9 10  1  0
 10 11  2  0
 10 15  1  0
 11 12  1  0
 12 13  2  0
 13 14  1  0
 13 23  1  0
 14 15  1  0
 14 17  1  0
 15 16  2  0
 17 18  1  0
 18 19  1  1
 18 20  1  0
 20 21  1  0
 21 22  1  0
 22 23  1  0
M  END
