
     RDKit          3D

 25 28  0  0  0  0  0  0  0  0999 V2000
   -3.0630    3.2530    0.9060 C   0  0  0  0  0  0  0  0  0  0  0  0
   -2.9280    1.8560    0.4810 C   0  0  0  0  0  0  0  0  0  0  0  0
   -1.6780    1.2560    0.3840 C   0  0  0  0  0  0  0  0  0  0  0  0
   -1.5030   -0.0550   -0.0110 C   0  0  0  0  0  0  0  0  0  0  0  0
   -0.2030   -0.6730   -0.1100 C   0  0  0  0  0  0  0  0  0  0  0  0
    0.9400    0.0200    0.1890 C   0  0  0  0  0  0  0  0  0  0  0  0
    2.2010   -0.5900    0.0900 C   0  0  0  0  0  0  0  0  0  0  0  0
    3.3720    0.0720    0.3810 C   0  0  0  0  0  0  0  0  0  0  0  0
    4.6010   -0.5560    0.2740 C   0  0  0  0  0  0  0  0  0  0  0  0
    5.8190    0.1440    0.5800 N   0  0  0  0  0  0  0  0  0  0  0  0
    6.3010    1.1880   -0.1120 C   0  0  0  0  0  0  0  0  0  0  0  0
    7.4980    1.6100    0.4710 C   0  0  0  0  0  0  0  0  0  0  0  0
    7.6740    0.7630    1.5200 N   0  0  0  0  0  0  0  0  0  0  0  0
    6.6700   -0.0920    1.5630 N   0  0  0  0  0  0  0  0  0  0  0  0
    4.6200   -1.8710   -0.1340 C   0  0  0  0  0  0  0  0  0  0  0  0
    3.4420   -2.5200   -0.4210 C   0  0  0  0  0  0  0  0  0  0  0  0
    2.2120   -1.9040   -0.3180 C   0  0  0  0  0  0  0  0  0  0  0  0
    1.0680   -2.6110   -0.6210 C   0  0  0  0  0  0  0  0  0  0  0  0
   -0.1030   -1.9490   -0.5000 N   0  0  0  0  0  0  0  0  0  0  0  0
   -2.6710   -0.7640   -0.3170 C   0  0  0  0  0  0  0  0  0  0  0  0
   -2.6140   -2.1820   -0.7540 C   0  0  0  0  0  0  0  0  0  0  0  0
   -3.9230   -0.1880   -0.2280 C   0  0  0  0  0  0  0  0  0  0  0  0
   -5.1480   -0.9570   -0.5560 C   0  0  0  0  0  0  0  0  0  0  0  0
   -4.0440    1.1240    0.1720 C   0  0  0  0  0  0  0  0  0  0  0  0
   -5.3690    1.7270    0.2640 C   0  0  0  0  0  0  0  0  0  0  0  0
  1  2  1  0
  2  3  2  0
  2 24  1  0
  3  4  1  0
  4  5  1  0
  4 20  2  0
  5  6  2  0
  5 19  1  0
  6  7  1  0
  7  8  2  0
  7 17  1  0
  8  9  1  0
  9 10  1  0
  9 15  2  0
 10 11  1  0
 10 14  1  0
 11 12  2  0
 12 13  1  0
 13 14  2  0
 15 16  1  0
 16 17  2  0
 17 18  1  0
 18 19  2  0
 20 21  1  0
 20 22  1  0
 22 23  1  0
 22 24  2  0
 24 25  1  0
M  END
