
     RDKit          3D

 25 28  0  0  0  0  0  0  0  0999 V2000
   -5.1490   -2.5110    0.9870 C   0  0  0  0  0  0  0  0  0  0  0  0
   -3.9900   -1.9310    0.1520 C   0  0  0  0  0  0  0  0  0  0  0  0
   -3.9680   -0.4550    0.3250 C   0  0  0  0  0  0  0  0  0  0  0  0
   -5.0450    0.1610    0.9240 N   0  0  0  0  0  0  0  0  0  0  0  0
   -5.1080    1.4660    1.1400 C   0  0  0  0  0  0  0  0  0  0  0  0
   -4.0190    2.2400    0.7370 C   0  0  0  0  0  0  0  0  0  0  0  0
   -4.0710    3.6990    0.9790 C   0  0  0  0  0  0  0  0  0  0  0  0
   -2.9390    1.6530    0.1420 C   0  0  0  0  0  0  0  0  0  0  0  0
   -2.8830    0.2660   -0.0840 C   0  0  0  0  0  0  0  0  0  0  0  0
   -1.7170   -0.3030   -0.7440 C   0  0  0  0  0  0  0  0  0  0  0  0
   -1.8490   -1.0400   -1.8980 C   0  0  0  0  0  0  0  0  0  0  0  0
   -0.7550   -1.5760   -2.5700 C   0  0  0  0  0  0  0  0  0  0  0  0
    0.4930   -1.3510   -2.0520 C   0  0  0  0  0  0  0  0  0  0  0  0
    0.6910   -0.6130   -0.8880 C   0  0  0  0  0  0  0  0  0  0  0  0
    2.0190   -0.4360   -0.3490 C   0  0  0  0  0  0  0  0  0  0  0  0
    3.0920   -1.1270   -0.8400 N   0  0  0  0  0  0  0  0  0  0  0  0
    4.2140   -0.7890   -0.1810 C   0  0  0  0  0  0  0  0  0  0  0  0
    3.8480    0.1200    0.7260 N   0  0  0  0  0  0  0  0  0  0  0  0
    2.5390    0.3220    0.6200 N   0  0  0  0  0  0  0  0  0  0  0  0
    4.9130    0.6580    1.5820 C   0  0  0  0  0  0  0  0  0  0  0  0
    6.0950    0.9570    0.7000 C   0  0  0  0  0  0  0  0  0  0  0  0
    6.6400   -0.2540   -0.0160 C   0  0  0  0  0  0  0  0  0  0  0  0
    5.6070   -1.2760   -0.3460 C   0  0  0  0  0  0  0  0  0  0  0  0
   -0.4140   -0.0940   -0.2420 C   0  0  0  0  0  0  0  0  0  0  0  0
   -0.2310    0.6640    0.9950 C   0  0  0  0  0  0  0  0  0  0  0  0
  1  2  1  0
  2  3  1  0
  3  4  2  0
  3  9  1  0
  4  5  1  0
  5  6  2  0
  6  7  1  0
  6  8  1  0
  8  9  2  0
  9 10  1  0
 10 11  2  0
 10 24  1  0
 11 12  1  0
 12 13  2  0
 13 14  1  0
 14 15  1  0
 14 24  2  0
 15 16  1  0
 15 19  2  0
 16 17  2  0
 17 18  1  0
 17 23  1  0
 18 19  1  0
 18 20  1  0
 20 21  1  0
 21 22  1  0
 22 23  1  0
 24 25  1  0
M  END
