
     RDKit          3D

 25 28  0  0  0  0  0  0  0  0999 V2000
   -4.5660    2.9130   -1.0960 C   0  0  0  0  0  0  0  0  0  0  0  0
   -3.4570    2.1010   -0.5030 C   0  0  0  0  0  0  0  0  0  0  0  0
   -2.4810    2.6930    0.2410 C   0  0  0  0  0  0  0  0  0  0  0  0
   -1.4620    1.9110    0.7790 C   0  0  0  0  0  0  0  0  0  0  0  0
   -1.4000    0.5470    0.5870 C   0  0  0  0  0  0  0  0  0  0  0  0
   -2.4070   -0.0140   -0.1700 C   0  0  0  0  0  0  0  0  0  0  0  0
   -3.4370    0.7450   -0.7200 C   0  0  0  0  0  0  0  0  0  0  0  0
   -2.2030   -1.3550   -0.2350 C   0  0  0  0  0  0  0  0  0  0  0  0
   -1.0500   -1.5960    0.4990 C   0  0  0  0  0  0  0  0  0  0  0  0
   -0.4760   -2.9390    0.6960 C   0  0  1  0  0  0  0  0  0  0  0  0
   -1.5440   -3.9610    1.0330 C   0  0  0  0  0  0  0  0  0  0  0  0
    0.1660   -3.4230   -0.6110 C   0  0  0  0  0  0  0  0  0  0  0  0
   -0.5660   -0.4310    0.9940 N   0  0  0  0  0  0  0  0  0  0  0  0
    0.6060   -0.3290    1.8260 C   0  0  0  0  0  0  0  0  0  0  0  0
    1.8910   -0.3360    1.1230 C   0  0  0  0  0  0  0  0  0  0  0  0
    2.7360   -1.4250    1.0740 C   0  0  0  0  0  0  0  0  0  0  0  0
    3.8000   -1.0720    0.3550 N   0  0  0  0  0  0  0  0  0  0  0  0
    3.7160    0.1580   -0.0670 N   0  0  0  0  0  0  0  0  0  0  0  0
    4.5650    0.8850   -0.8050 C   0  0  0  0  0  0  0  0  0  0  0  0
    4.2970    2.1940   -1.1500 C   0  0  0  0  0  0  0  0  0  0  0  0
    5.2100    2.9800   -1.9460 C   0  0  0  0  0  0  0  0  0  0  0  0
    5.9440    3.6000   -2.6020 N   0  0  0  0  0  0  0  0  0  0  0  0
    3.1010    2.7060   -0.6870 C   0  0  0  0  0  0  0  0  0  0  0  0
    2.2490    1.9420    0.0670 C   0  0  0  0  0  0  0  0  0  0  0  0
    2.5300    0.6380    0.4020 C   0  0  0  0  0  0  0  0  0  0  0  0
  1  2  1  0
  2  3  2  0
  2  7  1  0
  3  4  1  0
  4  5  2  0
  5  6  1  0
  5 13  1  0
  6  7  2  0
  6  8  1  0
  8  9  2  0
  9 10  1  0
  9 13  1  0
 10 11  1  6
 10 12  1  0
 13 14  1  0
 14 15  1  0
 15 16  1  0
 15 25  2  0
 16 17  2  0
 17 18  1  0
 18 19  1  0
 18 25  1  0
 19 20  2  0
 20 21  1  0
 20 23  1  0
 21 22  3  0
 23 24  2  0
 24 25  1  0
M  END
