
     RDKit          3D

 25 28  0  0  0  0  0  0  0  0999 V2000
    0.6220    1.6240    0.9460 C   0  0  0  0  0  0  0  0  0  0  0  0
    1.2290    0.5000    0.1890 C   0  0  0  0  0  0  0  0  0  0  0  0
    0.5600   -0.4150   -0.4090 N   0  0  0  0  0  0  0  0  0  0  0  0
   -0.8750   -0.4230   -0.3920 C   0  0  0  0  0  0  0  0  0  0  0  0
   -1.5590   -0.2950   -1.5830 C   0  0  0  0  0  0  0  0  0  0  0  0
   -2.9450   -0.3100   -1.5050 C   0  0  0  0  0  0  0  0  0  0  0  0
   -3.5930   -0.4460   -0.2970 C   0  0  0  0  0  0  0  0  0  0  0  0
   -5.0460   -0.4650   -0.2560 C   0  0  0  0  0  0  0  0  0  0  0  0
   -5.7910   -1.3930    0.4340 C   0  0  0  0  0  0  0  0  0  0  0  0
   -7.1610   -1.3080    0.4030 C   0  0  0  0  0  0  0  0  0  0  0  0
   -7.7650   -0.3280   -0.2930 N   0  0  0  0  0  0  0  0  0  0  0  0
   -7.0860    0.5980   -0.9790 C   0  0  0  0  0  0  0  0  0  0  0  0
   -5.7180    0.5380   -0.9670 C   0  0  0  0  0  0  0  0  0  0  0  0
   -2.8890   -0.5710    0.8710 C   0  0  0  0  0  0  0  0  0  0  0  0
   -3.5390   -0.7150    2.2160 C   0  0  0  0  0  0  0  0  0  0  0  0
   -1.5350   -0.5540    0.7640 N   0  0  0  0  0  0  0  0  0  0  0  0
    2.6470    0.4400    0.1260 N   0  0  0  0  0  0  0  0  0  0  0  0
    3.3500    1.5010   -0.5720 C   0  0  0  0  0  0  0  0  0  0  0  0
    4.6170    1.8310    0.2270 C   0  0  0  0  0  0  0  0  0  0  0  0
    5.4480    0.5780    0.1640 C   0  0  0  0  0  0  0  0  0  0  0  0
    6.7210    0.3550   -0.0960 C   0  0  0  0  0  0  0  0  0  0  0  0
    6.9440   -1.0960   -0.0050 C   0  0  0  0  0  0  0  0  0  0  0  0
    5.6200   -1.6540    0.3420 C   0  0  0  0  0  0  0  0  0  0  0  0
    4.7630   -0.6650    0.4360 C   0  0  0  0  0  0  0  0  0  0  0  0
    3.2970   -0.6730    0.7620 C   0  0  0  0  0  0  0  0  0  0  0  0
  1  2  1  0
  2  3  2  3
  2 17  1  0
  3  4  1  0
  4  5  2  0
  4 16  1  0
  5  6  1  0
  6  7  2  0
  7  8  1  0
  7 14  1  0
  8  9  2  0
  8 13  1  0
  9 10  1  0
 10 11  2  0
 11 12  1  0
 12 13  2  0
 14 15  1  0
 14 16  2  0
 17 18  1  0
 17 25  1  0
 18 19  1  0
 19 20  1  0
 20 21  2  0
 20 24  1  0
 21 22  1  0
 22 23  1  0
 23 24  2  0
 24 25  1  0
M  END
