
     RDKit          3D

 25 28  0  0  0  0  0  0  0  0999 V2000
   -3.4750   -0.6620    3.0070 C   0  0  0  0  0  0  0  0  0  0  0  0
   -3.7880   -0.8390    1.5110 C   0  0  0  0  0  0  0  0  0  0  0  0
   -4.7380   -1.9160    1.2610 C   0  0  0  0  0  0  0  0  0  0  0  0
   -3.1120   -0.1300    0.6590 C   0  0  0  0  0  0  0  0  0  0  0  0
   -3.2410   -0.1180   -0.7020 C   0  0  0  0  0  0  0  0  0  0  0  0
   -2.3400    0.4930   -1.5730 C   0  0  0  0  0  0  0  0  0  0  0  0
   -1.2400    1.1480   -1.0420 C   0  0  0  0  0  0  0  0  0  0  0  0
   -1.1110    1.1470    0.3150 C   0  0  0  0  0  0  0  0  0  0  0  0
   -0.0860    1.7490    1.0580 C   0  0  0  0  0  0  0  0  0  0  0  0
    1.0730    2.4960    0.5510 C   0  0  0  0  0  0  0  0  0  0  0  0
    2.1360    1.6690    0.0350 N   0  0  0  0  0  0  0  0  0  0  0  0
    2.3620    1.2040   -1.2000 C   0  0  0  0  0  0  0  0  0  0  0  0
    3.5190    0.4380   -1.2290 C   0  0  0  0  0  0  0  0  0  0  0  0
    4.0020    0.4510    0.0640 C   0  0  0  0  0  0  0  0  0  0  0  0
    5.2290   -0.2260    0.5570 C   0  0  2  0  0  0  0  0  0  0  0  0
    6.4700    0.3120   -0.1250 C   0  0  0  0  0  0  0  0  0  0  0  0
    5.2050   -1.7180    0.3040 C   0  0  0  0  0  0  0  0  0  0  0  0
    3.1400    1.2070    0.8060 C   0  0  0  0  0  0  0  0  0  0  0  0
   -0.4280    1.4580    2.3650 C   0  0  0  0  0  0  0  0  0  0  0  0
   -1.5640    0.7420    2.3680 N   0  0  0  0  0  0  0  0  0  0  0  0
   -1.9930    0.5430    1.1260 N   0  0  0  0  0  0  0  0  0  0  0  0
   -2.4240    0.4200   -3.0530 C   0  0  0  0  0  0  0  0  0  0  0  0
   -3.6760   -0.1420   -3.5460 C   0  0  0  0  0  0  0  0  0  0  0  0
   -4.5720   -0.6060   -2.7060 C   0  0  0  0  0  0  0  0  0  0  0  0
   -4.3510   -0.5850   -1.2620 C   0  0  0  0  0  0  0  0  0  0  0  0
  1  2  1  0
  2  3  1  0
  2  4  2  3
  4  5  1  0
  4 21  1  0
  5  6  1  0
  5 25  2  0
  6  7  2  0
  6 22  1  0
  7  8  1  0
  8  9  2  0
  8 21  1  0
  9 10  1  0
  9 19  1  0
 10 11  1  0
 11 12  1  0
 11 18  1  0
 12 13  2  0
 13 14  1  0
 14 15  1  0
 14 18  2  0
 15 16  1  6
 15 17  1  0
 19 20  2  0
 20 21  1  0
 22 23  1  0
 23 24  2  0
 24 25  1  0
M  END
