
     RDKit          3D

 25 28  0  0  0  0  0  0  0  0999 V2000
    5.7100    2.9250    0.4640 C   0  0  0  0  0  0  0  0  0  0  0  0
    4.6740    2.5300   -0.2530 C   0  0  0  0  0  0  0  0  0  0  0  0
    3.6160    1.6580    0.3670 C   0  0  0  0  0  0  0  0  0  0  0  0
    3.5940    0.3820   -0.4430 C   0  0  0  0  0  0  0  0  0  0  0  0
    2.6000   -0.5540    0.0640 N   0  0  0  0  0  0  0  0  0  0  0  0
    2.6980   -1.7300   -0.8170 C   0  0  0  0  0  0  0  0  0  0  0  0
    1.9150   -2.8580   -0.2220 C   0  0  0  0  0  0  0  0  0  0  0  0
    0.4970   -2.3680   -0.0740 C   0  0  0  0  0  0  0  0  0  0  0  0
    0.2190   -1.0210    0.0130 C   0  0  0  0  0  0  0  0  0  0  0  0
   -1.1230   -0.8780    0.1380 N   0  0  0  0  0  0  0  0  0  0  0  0
   -1.8620    0.3170    0.2580 C   0  0  0  0  0  0  0  0  0  0  0  0
   -2.1770    0.7600    1.4130 N   0  0  0  0  0  0  0  0  0  0  0  0
   -2.9230    1.9640    1.6040 C   0  0  0  0  0  0  0  0  0  0  0  0
   -3.2320    2.3940    2.8030 C   0  0  0  0  0  0  0  0  0  0  0  0
   -3.3440    2.7210    0.4210 C   0  0  0  0  0  0  0  0  0  0  0  0
   -2.9310    2.1250   -0.8600 C   0  0  0  0  0  0  0  0  0  0  0  0
   -3.2980    2.7980   -2.1230 C   0  0  0  0  0  0  0  0  0  0  0  0
   -2.2550    1.0270   -0.8950 N   0  0  0  0  0  0  0  0  0  0  0  0
   -1.6940   -2.1060    0.1310 C   0  0  0  0  0  0  0  0  0  0  0  0
   -3.0300   -2.4910    0.2310 C   0  0  0  0  0  0  0  0  0  0  0  0
   -3.3870   -3.8200    0.2010 C   0  0  0  0  0  0  0  0  0  0  0  0
   -2.3790   -4.7520    0.0690 C   0  0  0  0  0  0  0  0  0  0  0  0
   -1.0530   -4.3630   -0.0300 C   0  0  0  0  0  0  0  0  0  0  0  0
   -0.7020   -3.0340    0.0010 C   0  0  0  0  0  0  0  0  0  0  0  0
    1.2880    0.0320   -0.0330 C   0  0  0  0  0  0  0  0  0  0  0  0
  1  2  2  0
  2  3  1  0
  3  4  1  0
  4  5  1  0
  5  6  1  0
  5 25  1  0
  6  7  1  0
  7  8  1  0
  8  9  2  0
  8 24  1  0
  9 10  1  0
  9 25  1  0
 10 11  1  0
 10 19  1  0
 11 12  2  0
 11 18  1  0
 12 13  1  0
 13 14  2  0
 13 15  1  0
 15 16  1  0
 16 17  1  0
 16 18  2  0
 19 20  2  0
 19 24  1  0
 20 21  1  0
 21 22  2  0
 22 23  1  0
 23 24  2  0
M  END
