
     RDKit          3D

 16 17  0  0  0  0  0  0  0  0999 V2000
    3.9930   -1.3380   -0.1860 C   0  0  0  0  0  0  0  0  0  0  0  0
    3.0610   -0.6590    1.2300 S   0  0  0  0  0  0  0  0  0  0  0  0
    1.3100   -1.0360    1.0600 C   0  0  0  0  0  0  0  0  0  0  0  0
    0.6970   -2.1330    1.5230 N   0  0  0  0  0  0  0  0  0  0  0  0
   -0.5820   -2.0610    1.2110 N   0  0  0  0  0  0  0  0  0  0  0  0
   -0.8050   -0.9130    0.5420 C   0  0  0  0  0  0  0  0  0  0  0  0
   -2.1000   -0.4740    0.0280 C   0  0  2  0  0  0  0  0  0  0  0  0
   -3.0740   -0.3260    1.1860 C   0  0  0  0  0  0  0  0  0  0  0  0
   -2.6370   -1.4800   -0.9840 C   0  0  0  0  0  0  0  0  0  0  0  0
    0.3780   -0.2820    0.4530 N   0  0  0  0  0  0  0  0  0  0  0  0
    0.6480    0.9780   -0.1710 C   0  0  0  0  0  0  0  0  0  0  0  0
    0.5170    2.1440    0.4140 C   0  0  0  0  0  0  0  0  0  0  0  0
   -0.0080    2.4610    2.0720 Cl  0  0  0  0  0  0  0  0  0  0  0  0
    0.8880    3.1920   -0.5520 C   0  0  0  0  0  0  0  0  0  0  0  0
    1.2400    2.4720   -1.7420 N   0  0  0  0  0  0  0  0  0  0  0  0
    1.1030    1.2170   -1.5250 C   0  0  0  0  0  0  0  0  0  0  0  0
  1  2  1  0
  2  3  1  0
  3  4  2  0
  3 10  1  0
  4  5  1  0
  5  6  2  0
  6  7  1  0
  6 10  1  0
  7  8  1  1
  7  9  1  0
 10 11  1  0
 11 12  2  0
 11 16  1  0
 12 13  1  0
 12 14  1  0
 14 15  1  0
 15 16  2  0
M  END
