
     RDKit          3D

 16 17  0  0  0  0  0  0  0  0999 V2000
    4.1860    3.0350    2.1150 N   0  0  0  0  0  0  0  0  0  0  0  0
    3.2640    2.4040    1.8530 C   0  0  0  0  0  0  0  0  0  0  0  0
    2.1270    1.6180    1.5540 N   0  0  0  0  0  0  0  0  0  0  0  0
    2.1230    0.6980    0.6740 C   0  0  0  0  0  0  0  0  0  0  0  0
    3.5260    0.2330   -0.3300 S   0  0  0  0  0  0  0  0  0  0  0  0
    2.6710   -1.1360   -1.2250 C   0  0  0  0  0  0  0  0  0  0  0  0
    1.2360   -0.6270   -1.0770 C   0  0  0  0  0  0  0  0  0  0  0  0
    1.0700   -0.1600    0.2720 N   0  0  0  0  0  0  0  0  0  0  0  0
   -0.0700   -0.5380    1.1270 C   0  0  0  0  0  0  0  0  0  0  0  0
   -1.3550   -0.1240    0.5430 C   0  0  0  0  0  0  0  0  0  0  0  0
   -2.0160   -1.0150   -0.2790 C   0  0  0  0  0  0  0  0  0  0  0  0
   -3.2390   -0.6840   -0.8660 C   0  0  0  0  0  0  0  0  0  0  0  0
   -3.7750    0.5610   -0.6040 C   0  0  0  0  0  0  0  0  0  0  0  0
   -5.3150    1.0620   -1.3020 Cl  0  0  0  0  0  0  0  0  0  0  0  0
   -3.1290    1.4340    0.2010 N   0  0  0  0  0  0  0  0  0  0  0  0
   -1.9550    1.0980    0.7550 C   0  0  0  0  0  0  0  0  0  0  0  0
  1  2  3  0
  2  3  1  0
  3  4  2  3
  4  5  1  0
  4  8  1  0
  5  6  1  0
  6  7  1  0
  7  8  1  0
  8  9  1  0
  9 10  1  0
 10 11  2  0
 10 16  1  0
 11 12  1  0
 12 13  2  0
 13 14  1  0
 13 15  1  0
 15 16  2  0
M  END
