
     RDKit          3D

 16 17  0  0  0  0  0  0  0  0999 V2000
    3.8150    0.4470    1.7970 C   0  0  0  0  0  0  0  0  0  0  0  0
    4.0840   -0.1090    0.6460 C   0  0  0  0  0  0  0  0  0  0  0  0
    5.7880   -0.4400    0.2930 Cl  0  0  0  0  0  0  0  0  0  0  0  0
    3.1150   -0.4770   -0.3620 C   0  0  0  0  0  0  0  0  0  0  0  0
    3.4990   -1.0420   -1.5080 C   0  0  0  0  0  0  0  0  0  0  0  0
    1.6750   -0.2670   -0.2140 C   0  0  0  0  0  0  0  0  0  0  0  0
    1.0020    0.2700    0.8080 N   0  0  0  0  0  0  0  0  0  0  0  0
   -0.3330    0.2870    0.5610 C   0  0  0  0  0  0  0  0  0  0  0  0
   -0.4780   -0.2580   -0.6570 N   0  0  0  0  0  0  0  0  0  0  0  0
    0.7080   -0.5870   -1.1170 N   0  0  0  0  0  0  0  0  0  0  0  0
   -1.8010   -0.3700   -1.2030 C   0  0  0  0  0  0  0  0  0  0  0  0
   -2.0680   -1.0230   -2.6630 S   0  0  0  0  0  0  0  0  0  0  0  0
   -2.9000    0.1020   -0.4350 N   0  0  0  0  0  0  0  0  0  0  0  0
   -4.2210   -0.4610   -0.6280 C   0  0  0  0  0  0  0  0  0  0  0  0
   -2.6400    1.1510    0.5310 C   0  0  0  0  0  0  0  0  0  0  0  0
   -1.4630    0.7650    1.3770 C   0  0  0  0  0  0  0  0  0  0  0  0
  1  2  2  0
  2  3  1  0
  2  4  1  0
  4  5  2  0
  4  6  1  0
  6  7  1  0
  6 10  2  0
  7  8  2  0
  8  9  1  0
  8 16  1  0
  9 10  1  0
  9 11  1  0
 11 12  2  0
 11 13  1  0
 13 14  1  0
 13 15  1  0
 15 16  1  0
M  END
