
     RDKit          3D

 16 17  0  0  0  0  0  0  0  0999 V2000
   -2.1440   -2.4050    0.6790 C   0  0  0  0  0  0  0  0  0  0  0  0
   -2.0610   -1.0540    0.2550 N   0  0  0  0  0  0  0  0  0  0  0  0
   -2.5650    0.1340    0.9150 C   0  0  0  0  0  0  0  0  0  0  0  0
   -2.8070    1.0040   -0.2780 C   0  0  0  0  0  0  0  0  0  0  0  0
   -3.6890    1.9590   -0.4010 C   0  0  0  0  0  0  0  0  0  0  0  0
   -4.7400    2.3080    0.9540 Cl  0  0  0  0  0  0  0  0  0  0  0  0
   -1.8700    0.5700   -1.2540 N   0  0  0  0  0  0  0  0  0  0  0  0
   -1.4400   -0.6060   -0.9540 C   0  0  0  0  0  0  0  0  0  0  0  0
   -0.4650   -1.3620   -1.7390 C   0  0  0  0  0  0  0  0  0  0  0  0
    1.0310   -1.7950   -0.8400 S   0  0  0  0  0  0  0  0  0  0  0  0
    1.9810   -0.3460   -0.4220 C   0  0  0  0  0  0  0  0  0  0  0  0
    1.6820    0.9620   -0.7140 C   0  0  0  0  0  0  0  0  0  0  0  0
    2.6680    1.7380   -0.2130 N   0  0  0  0  0  0  0  0  0  0  0  0
    3.5460    0.9490    0.3670 N   0  0  0  0  0  0  0  0  0  0  0  0
    4.7680    1.3790    1.0350 C   0  0  0  0  0  0  0  0  0  0  0  0
    3.1730   -0.3460    0.2690 C   0  0  0  0  0  0  0  0  0  0  0  0
  1  2  1  0
  2  3  1  0
  2  8  1  0
  3  4  1  0
  4  5  2  3
  4  7  1  0
  5  6  1  0
  7  8  2  0
  8  9  1  0
  9 10  1  0
 10 11  1  0
 11 12  1  0
 11 16  2  0
 12 13  2  0
 13 14  1  0
 14 15  1  0
 14 16  1  0
M  END
