
     RDKit          3D

 15 16  0  0  0  0  0  0  0  0999 V2000
    3.9050    1.0570   -1.5090 C   0  0  0  0  0  0  0  0  0  0  0  0
    3.3870    0.3490   -0.1390 S   0  0  2  0  0  0  0  0  0  0  0  0
    4.6360   -0.4720    0.7310 C   0  0  0  0  0  0  0  0  0  0  0  0
    2.0610   -0.7120   -0.3250 C   0  0  0  0  0  0  0  0  0  0  0  0
    2.1680   -2.0280   -0.5790 N   0  0  0  0  0  0  0  0  0  0  0  0
    0.9640   -2.5250   -0.6590 N   0  0  0  0  0  0  0  0  0  0  0  0
    0.0550   -1.5330   -0.4560 C   0  0  0  0  0  0  0  0  0  0  0  0
    0.7320   -0.3950   -0.2470 N   0  0  0  0  0  0  0  0  0  0  0  0
    0.2370    0.8840    0.0060 C   0  0  0  0  0  0  0  0  0  0  0  0
   -0.9950    1.2740    0.0970 C   0  0  0  0  0  0  0  0  0  0  0  0
   -2.1800    0.5190   -0.0320 N   0  0  0  0  0  0  0  0  0  0  0  0
   -2.8790   -0.1410    1.0450 C   0  0  0  0  0  0  0  0  0  0  0  0
   -4.3180   -0.1340    0.5190 C   0  0  0  0  0  0  0  0  0  0  0  0
   -4.0930   -0.5480   -0.9210 C   0  0  0  0  0  0  0  0  0  0  0  0
   -2.8810    0.3050   -1.2820 C   0  0  0  0  0  0  0  0  0  0  0  0
  2  1  1  6
  2  3  1  0
  2  4  1  0
  4  5  2  0
  4  8  1  0
  5  6  1  0
  6  7  2  0
  7  8  1  0
  8  9  1  0
  9 10  2  3
 10 11  1  0
 11 12  1  0
 11 15  1  0
 12 13  1  0
 13 14  1  0
 14 15  1  0
M  END
