
     RDKit          3D

 16 17  0  0  0  0  0  0  0  0999 V2000
   -5.1470    0.8300   -0.7410 C   0  0  0  0  0  0  0  0  0  0  0  0
   -4.0040    1.1320    0.2040 C   0  0  0  0  0  0  0  0  0  0  0  0
   -2.8640    0.2750   -0.0190 N   0  0  0  0  0  0  0  0  0  0  0  0
   -1.6870    0.9060   -0.5390 C   0  0  0  0  0  0  0  0  0  0  0  0
   -0.5480    0.6800    0.0080 C   0  0  0  0  0  0  0  0  0  0  0  0
    0.7740    1.2030   -0.3420 C   0  0  0  0  0  0  0  0  0  0  0  0
    1.7660    0.1770   -0.1730 N   0  0  0  0  0  0  0  0  0  0  0  0
    2.9430   -0.0160   -1.0490 C   0  0  0  0  0  0  0  0  0  0  0  0
    4.2040    0.0350   -0.2280 C   0  0  0  0  0  0  0  0  0  0  0  0
    4.5530   -1.2310    0.4510 C   0  0  0  0  0  0  0  0  0  0  0  0
    3.6070   -1.8130    1.3270 N   0  0  0  0  0  0  0  0  0  0  0  0
    2.2780   -1.4900    1.5750 N   0  0  0  0  0  0  0  0  0  0  0  0
    1.5240   -0.6660    0.9490 C   0  0  0  0  0  0  0  0  0  0  0  0
   -0.2100   -0.3690    1.4000 S   0  0  0  0  0  0  0  0  0  0  0  0
   -2.8940   -1.1240    0.2600 C   0  0  0  0  0  0  0  0  0  0  0  0
   -4.1640   -1.9530   -0.7060 Cl  0  0  0  0  0  0  0  0  0  0  0  0
  1  2  1  0
  2  3  1  0
  3  4  1  0
  3 15  1  0
  4  5  2  3
  5  6  1  0
  5 14  1  0
  6  7  1  0
  7  8  1  0
  7 13  1  0
  8  9  1  0
  9 10  1  0
 10 11  1  0
 11 12  1  0
 12 13  2  0
 13 14  1  0
 15 16  1  0
M  END
