
     RDKit          3D

 16 17  0  0  0  0  0  0  0  0999 V2000
   -2.9980    1.7460   -0.6550 C   0  0  0  0  0  0  0  0  0  0  0  0
   -2.3210    1.1990    0.5650 C   0  0  0  0  0  0  0  0  0  0  0  0
   -1.6030   -0.0340    0.3240 N   0  0  0  0  0  0  0  0  0  0  0  0
   -2.3800   -1.1810    0.0280 C   0  0  0  0  0  0  0  0  0  0  0  0
   -2.0850   -2.4820    0.1220 C   0  0  0  0  0  0  0  0  0  0  0  0
   -3.3250   -3.6300   -0.3410 Cl  0  0  0  0  0  0  0  0  0  0  0  0
   -0.8080   -3.0450    0.5840 C   0  0  0  0  0  0  0  0  0  0  0  0
    0.3270   -2.4560    0.7800 N   0  0  0  0  0  0  0  0  0  0  0  0
    0.6770   -1.0890    0.6060 C   0  0  0  0  0  0  0  0  0  0  0  0
    2.0000   -0.8580    0.6540 N   0  0  0  0  0  0  0  0  0  0  0  0
    2.5010    0.3980    0.5090 C   0  0  0  0  0  0  0  0  0  0  0  0
    4.2730    0.6740    0.5750 S   0  0  0  0  0  0  0  0  0  0  0  0
    5.0230    0.5490   -1.0510 C   0  0  0  0  0  0  0  0  0  0  0  0
    1.6070    1.4330    0.3120 C   0  0  0  0  0  0  0  0  0  0  0  0
    0.2740    1.2420    0.2580 N   0  0  0  0  0  0  0  0  0  0  0  0
   -0.1790   -0.0010    0.4040 C   0  0  0  0  0  0  0  0  0  0  0  0
  1  2  1  0
  2  3  1  0
  3  4  1  0
  3 16  1  0
  4  5  2  0
  5  6  1  0
  5  7  1  0
  7  8  2  0
  8  9  1  0
  9 10  2  0
  9 16  1  0
 10 11  1  0
 11 12  1  0
 11 14  2  0
 12 13  1  0
 14 15  1  0
 15 16  2  0
M  END
