
     RDKit          3D

 31 35  0  0  0  0  0  0  0  0999 V2000
   -5.5650   -1.1900    0.0330 C   0  0  0  0  0  0  0  0  0  0  0  0
   -4.0880   -1.1210   -0.0200 C   0  0  0  0  0  0  0  0  0  0  0  0
   -3.3640   -2.2810    0.2640 C   0  0  0  0  0  0  0  0  0  0  0  0
   -1.9870   -2.2920    0.2280 C   0  0  0  0  0  0  0  0  0  0  0  0
   -1.2800   -3.4410    0.5110 C   0  0  0  0  0  0  0  0  0  0  0  0
   -2.0130   -4.6920    0.8590 C   0  0  0  0  0  0  0  0  0  0  0  0
    0.0770   -3.4120    0.4650 C   0  0  0  0  0  0  0  0  0  0  0  0
    0.7860   -2.2700    0.1460 C   0  0  0  0  0  0  0  0  0  0  0  0
    2.2070   -2.2900    0.1110 N   0  0  0  0  0  0  0  0  0  0  0  0
    2.9670   -1.1130   -0.2240 C   0  0  0  0  0  0  0  0  0  0  0  0
    2.7510    0.0470    0.7040 C   0  0  0  0  0  0  0  0  0  0  0  0
    3.6090    1.1790    0.2310 C   0  0  0  0  0  0  0  0  0  0  0  0
    3.0620    2.2010   -0.5280 C   0  0  0  0  0  0  0  0  0  0  0  0
    3.8210    3.2100   -0.9780 N   0  0  0  0  0  0  0  0  0  0  0  0
    5.1480    3.2830   -0.7170 C   0  0  0  0  0  0  0  0  0  0  0  0
    5.8040    4.2580   -1.1700 O   0  0  0  0  0  0  0  0  0  0  0  0
    5.7510    2.2970    0.0330 C   0  0  0  0  0  0  0  0  0  0  0  0
    4.9660    1.2560    0.4980 C   0  0  0  0  0  0  0  0  0  0  0  0
    5.8710    0.3970    1.2730 C   0  0  0  0  0  0  0  0  0  0  0  0
    7.2200    0.7020    0.6350 C   0  0  0  0  0  0  0  0  0  0  0  0
    7.0830    2.1110    0.4550 O   0  0  0  0  0  0  0  0  0  0  0  0
    0.0740   -1.1610   -0.1260 N   0  0  0  0  0  0  0  0  0  0  0  0
   -1.2800   -1.1510   -0.0910 C   0  0  0  0  0  0  0  0  0  0  0  0
   -2.0190   -0.0160   -0.3680 C   0  0  0  0  0  0  0  0  0  0  0  0
   -3.4020    0.0150   -0.3370 C   0  0  0  0  0  0  0  0  0  0  0  0
   -4.0990    1.2550   -0.6350 C   0  0  0  0  0  0  0  0  0  0  0  0
   -5.1140    1.7330    0.1580 C   0  0  0  0  0  0  0  0  0  0  0  0
   -5.7710    2.9290   -0.1540 C   0  0  0  0  0  0  0  0  0  0  0  0
   -5.4030    3.6250   -1.2500 N   0  0  0  0  0  0  0  0  0  0  0  0
   -4.4180    3.1870   -2.0420 C   0  0  0  0  0  0  0  0  0  0  0  0
   -3.7520    1.9950   -1.7440 C   0  0  0  0  0  0  0  0  0  0  0  0
  1  2  1  0
  2  3  2  0
  2 25  1  0
  3  4  1  0
  4  5  2  0
  4 23  1  0
  5  6  1  0
  5  7  1  0
  7  8  2  0
  8  9  1  0
  8 22  1  0
  9 10  1  0
 10 11  1  0
 11 12  1  0
 12 13  2  0
 12 18  1  0
 13 14  1  0
 14 15  1  0
 15 16  2  0
 15 17  1  0
 17 18  2  0
 17 21  1  0
 18 19  1  0
 19 20  1  0
 20 21  1  0
 22 23  2  0
 23 24  1  0
 24 25  2  0
 25 26  1  0
 26 27  2  0
 26 31  1  0
 27 28  1  0
 28 29  2  0
 29 30  1  0
 30 31  2  0
M  CHG  1  29   1
M  END
