
     RDKit          3D

 31 34  0  0  0  0  0  0  0  0999 V2000
   -5.3910    2.4040    2.2390 C   0  0  0  0  0  0  0  0  0  0  0  0
   -5.0560    1.0550    2.8370 C   0  0  0  0  0  0  0  0  0  0  0  0
   -5.4600    0.0080    1.8720 C   0  0  0  0  0  0  0  0  0  0  0  0
   -6.6300   -0.6710    2.1350 C   0  0  0  0  0  0  0  0  0  0  0  0
   -7.0480   -1.6520    1.2620 C   0  0  0  0  0  0  0  0  0  0  0  0
   -8.3030   -2.4290    1.4780 C   0  0  0  0  0  0  0  0  0  0  0  0
   -6.3130   -1.9540    0.1440 C   0  0  0  0  0  0  0  0  0  0  0  0
   -5.1230   -1.2820   -0.1450 C   0  0  0  0  0  0  0  0  0  0  0  0
   -4.7170   -0.3080    0.7280 C   0  0  0  0  0  0  0  0  0  0  0  0
   -3.4770    0.4220    0.5080 C   0  0  0  0  0  0  0  0  0  0  0  0
   -2.7220    0.1590   -0.6390 N   0  0  0  0  0  0  0  0  0  0  0  0
   -3.2180    0.4500   -1.9140 C   0  0  0  0  0  0  0  0  0  0  0  0
   -2.7740   -0.4710   -3.0220 C   0  0  0  0  0  0  0  0  0  0  0  0
   -1.2840   -0.7110   -2.9710 C   0  0  0  0  0  0  0  0  0  0  0  0
   -0.7720   -0.9840   -1.5980 C   0  0  0  0  0  0  0  0  0  0  0  0
   -1.3480   -0.1340   -0.5150 C   0  0  1  0  0  0  0  0  0  0  0  0
   -0.6080    1.2010   -0.3890 C   0  0  0  0  0  0  0  0  0  0  0  0
    0.7720    0.8960   -0.2660 O   0  0  0  0  0  0  0  0  0  0  0  0
    1.7440    1.8760   -0.1320 C   0  0  0  0  0  0  0  0  0  0  0  0
    1.3890    3.0640   -0.1190 O   0  0  0  0  0  0  0  0  0  0  0  0
    3.1640    1.5540   -0.0070 C   0  0  0  0  0  0  0  0  0  0  0  0
    3.7660    0.2990    0.0010 C   0  0  0  0  0  0  0  0  0  0  0  0
    5.1310    0.4450    0.1400 C   0  0  0  0  0  0  0  0  0  0  0  0
    6.1980   -0.5890    0.2030 C   0  0  2  0  0  0  0  0  0  0  0  0
    7.0110   -0.5200    1.4610 C   0  0  0  0  0  0  0  0  0  0  0  0
    8.2580    0.3010    1.1590 C   0  0  0  0  0  0  0  0  0  0  0  0
    9.1720   -0.4360    0.3130 N   0  0  0  0  0  0  0  0  0  0  0  0
    8.3950   -1.2450   -0.5990 C   0  0  0  0  0  0  0  0  0  0  0  0
    7.1510   -0.4510   -0.9650 C   0  0  0  0  0  0  0  0  0  0  0  0
    5.3380    1.7720    0.2130 N   0  0  0  0  0  0  0  0  0  0  0  0
    4.1860    2.4180    0.1270 N   0  0  0  0  0  0  0  0  0  0  0  0
  1  2  1  0
  2  3  1  0
  3  4  2  0
  3  9  1  0
  4  5  1  0
  5  6  1  0
  5  7  2  0
  7  8  1  0
  8  9  2  0
  9 10  1  0
 10 11  1  0
 11 12  1  0
 11 16  1  0
 12 13  1  0
 13 14  1  0
 14 15  1  0
 15 16  1  0
 16 17  1  6
 17 18  1  0
 18 19  1  0
 19 20  2  0
 19 21  1  0
 21 22  2  0
 21 31  1  0
 22 23  1  0
 24 23  1  1
 23 30  2  0
 24 25  1  0
 24 29  1  0
 25 26  1  0
 26 27  1  0
 27 28  1  0
 28 29  1  0
 30 31  1  0
M  CHG  1  27   1
M  END
