
     RDKit          3D

 31 34  0  0  0  0  0  0  0  0999 V2000
    8.2840   -0.1950   -1.9480 C   0  0  0  0  0  0  0  0  0  0  0  0
    7.8770   -1.0240   -0.7430 C   0  0  0  0  0  0  0  0  0  0  0  0
    7.6700   -0.1690    0.4860 C   0  0  1  0  0  0  0  0  0  0  0  0
    6.6090    0.8660    0.3220 C   0  0  0  0  0  0  0  0  0  0  0  0
    5.4210    0.2550    0.9960 C   0  0  0  0  0  0  0  0  0  0  0  0
    4.1050    0.7100    0.9390 C   0  0  0  0  0  0  0  0  0  0  0  0
    3.1450    0.0150    1.6280 C   0  0  0  0  0  0  0  0  0  0  0  0
    1.7470    0.4890    1.5750 C   0  0  0  0  0  0  0  0  0  0  0  0
    1.0170   -0.1540    0.5030 N   0  0  0  0  0  0  0  0  0  0  0  0
   -0.0710   -0.8890    1.0720 C   0  0  0  0  0  0  0  0  0  0  0  0
   -1.3800   -0.2630    0.6630 C   0  0  0  0  0  0  0  0  0  0  0  0
   -1.4180    1.1140    0.5720 C   0  0  0  0  0  0  0  0  0  0  0  0
   -2.6200    1.6690    0.1960 C   0  0  0  0  0  0  0  0  0  0  0  0
   -2.7330    3.1420    0.0770 C   0  0  0  0  0  0  0  0  0  0  0  0
   -3.7080    0.8270   -0.0670 C   0  0  0  0  0  0  0  0  0  0  0  0
   -4.7890    1.3630   -0.4030 O   0  0  0  0  0  0  0  0  0  0  0  0
   -3.6480   -0.5040    0.0280 N   0  0  0  0  0  0  0  0  0  0  0  0
   -4.7130   -1.3980   -0.2560 C   0  0  0  0  0  0  0  0  0  0  0  0
   -4.5750   -2.6530   -0.0640 O   0  0  0  0  0  0  0  0  0  0  0  0
   -5.9940   -0.9790   -0.7660 C   0  0  0  0  0  0  0  0  0  0  0  0
   -6.1740   -0.3170   -1.9630 C   0  0  0  0  0  0  0  0  0  0  0  0
   -7.4250    0.0870   -2.4150 C   0  0  0  0  0  0  0  0  0  0  0  0
   -8.5640   -0.1580   -1.6810 C   0  0  0  0  0  0  0  0  0  0  0  0
   -9.9140    0.2710   -2.1570 C   0  0  0  0  0  0  0  0  0  0  0  0
   -8.4090   -0.8190   -0.4820 C   0  0  0  0  0  0  0  0  0  0  0  0
   -7.1700   -1.2180   -0.0370 C   0  0  0  0  0  0  0  0  0  0  0  0
   -2.4530   -1.0080    0.4000 N   0  0  0  0  0  0  0  0  0  0  0  0
    3.5220   -1.1070    2.3500 C   0  0  0  0  0  0  0  0  0  0  0  0
    4.8150   -1.5640    2.4120 C   0  0  0  0  0  0  0  0  0  0  0  0
    5.7950   -0.8510    1.7070 C   0  0  0  0  0  0  0  0  0  0  0  0
    7.1870   -1.0180    1.5450 N   0  0  0  0  0  0  0  0  0  0  0  0
  1  2  1  0
  3  2  1  6
  3  4  1  0
  3 31  1  0
  4  5  1  0
  5  6  2  0
  5 30  1  0
  6  7  1  0
  7  8  1  0
  7 28  2  0
  8  9  1  0
  9 10  1  0
 10 11  1  0
 11 12  1  0
 11 27  2  0
 12 13  2  0
 13 14  1  0
 13 15  1  0
 15 16  2  0
 15 17  1  0
 17 18  1  0
 17 27  1  0
 18 19  2  0
 18 20  1  0
 20 21  2  0
 20 26  1  0
 21 22  1  0
 22 23  2  0
 23 24  1  0
 23 25  1  0
 25 26  2  0
 28 29  1  0
 29 30  2  0
 30 31  1  0
M  CHG  1   9   1
M  END
