
     RDKit          3D

 31 35  0  0  0  0  0  0  0  0999 V2000
   -2.7800    2.3840   -0.5490 C   0  0  0  0  0  0  0  0  0  0  0  0
   -3.0710    1.0310    0.0140 C   0  0  2  0  0  0  0  0  0  0  0  0
   -3.9710    1.0450    1.1240 N   0  0  0  0  0  0  0  0  0  0  0  0
   -5.3080    1.4330    0.8180 C   0  0  0  0  0  0  0  0  0  0  0  0
   -5.7400    0.8400   -0.4950 C   0  0  2  0  0  0  0  0  0  0  0  0
   -7.2010    1.2090   -0.7780 C   0  0  0  0  0  0  0  0  0  0  0  0
   -7.5820    0.0820   -1.7160 C   0  0  0  0  0  0  0  0  0  0  0  0
   -6.6730   -1.0210   -1.3070 C   0  0  0  0  0  0  0  0  0  0  0  0
   -5.7000   -0.5350   -0.4830 O   0  0  0  0  0  0  0  0  0  0  0  0
   -1.7630    0.4770    0.5190 C   0  0  0  0  0  0  0  0  0  0  0  0
   -0.9770   -0.4430   -0.0640 N   0  0  0  0  0  0  0  0  0  0  0  0
    0.1120   -0.6850    0.6870 C   0  0  0  0  0  0  0  0  0  0  0  0
    1.2100   -1.5190    0.5540 C   0  0  0  0  0  0  0  0  0  0  0  0
    2.1990   -1.5540    1.5150 C   0  0  0  0  0  0  0  0  0  0  0  0
    3.3340   -2.4660    1.3030 C   0  0  0  0  0  0  0  0  0  0  0  0
    4.4030   -1.7460    0.5560 C   0  0  0  0  0  0  0  0  0  0  0  0
    4.2550   -0.4300    0.1680 C   0  0  0  0  0  0  0  0  0  0  0  0
    5.2350    0.2610   -0.5280 C   0  0  0  0  0  0  0  0  0  0  0  0
    5.0770    1.5790   -0.9110 C   0  0  0  0  0  0  0  0  0  0  0  0
    6.0640    2.2490   -1.6030 C   0  0  0  0  0  0  0  0  0  0  0  0
    7.2260    1.5580   -1.9050 C   0  0  0  0  0  0  0  0  0  0  0  0
    7.3720    0.2420   -1.5160 C   0  0  0  0  0  0  0  0  0  0  0  0
    6.3930   -0.4310   -0.8270 C   0  0  0  0  0  0  0  0  0  0  0  0
    6.5500   -1.7580   -0.4400 C   0  0  0  0  0  0  0  0  0  0  0  0
    5.5660   -2.4170    0.2470 C   0  0  0  0  0  0  0  0  0  0  0  0
    5.7440   -3.8070    0.6450 C   0  0  0  0  0  0  0  0  0  0  0  0
    6.8030   -4.4190    0.3650 O   0  0  0  0  0  0  0  0  0  0  0  0
    2.0550   -0.7300    2.6100 C   0  0  0  0  0  0  0  0  0  0  0  0
    0.9720    0.0860    2.7310 N   0  0  0  0  0  0  0  0  0  0  0  0
    0.0040    0.1240    1.7960 C   0  0  0  0  0  0  0  0  0  0  0  0
   -1.1340    0.8100    1.6640 N   0  0  0  0  0  0  0  0  0  0  0  0
  2  1  1  1
  2  3  1  0
  2 10  1  0
  3  4  1  0
  5  4  1  1
  5  6  1  0
  5  9  1  0
  6  7  1  0
  7  8  1  0
  8  9  1  0
 10 11  2  0
 10 31  1  0
 11 12  1  0
 12 13  2  0
 12 30  1  0
 13 14  1  0
 14 15  1  0
 14 28  2  0
 15 16  1  0
 16 17  2  0
 16 25  1  0
 17 18  1  0
 18 19  2  0
 18 23  1  0
 19 20  1  0
 20 21  2  0
 21 22  1  0
 22 23  2  0
 23 24  1  0
 24 25  2  0
 25 26  1  0
 26 27  2  0
 28 29  1  0
 29 30  2  0
 30 31  1  0
M  CHG  1   3   1
M  END
