
     RDKit          3D

 31 35  0  0  0  0  0  0  0  0999 V2000
    4.6720   -4.1820    0.4300 O   0  0  0  0  0  0  0  0  0  0  0  0
    4.3370   -2.9800    0.7190 C   0  0  0  0  0  0  0  0  0  0  0  0
    5.2840   -1.9060    0.3810 C   0  0  0  0  0  0  0  0  0  0  0  0
    4.7620   -0.5450    0.2200 C   0  0  1  0  0  0  0  0  0  0  0  0
    5.7390    0.2590   -0.5550 C   0  0  0  0  0  0  0  0  0  0  0  0
    6.1250    0.0900   -1.8610 C   0  0  0  0  0  0  0  0  0  0  0  0
    7.0540    1.0500   -2.2010 C   0  0  0  0  0  0  0  0  0  0  0  0
    7.2230    1.8070   -1.0710 C   0  0  0  0  0  0  0  0  0  0  0  0
    6.4220    1.3130   -0.0910 N   0  0  0  0  0  0  0  0  0  0  0  0
    3.4210   -0.3260   -0.3750 C   0  0  0  0  0  0  0  0  0  0  0  0
    2.2800   -0.6380    0.4960 C   0  0  0  0  0  0  0  0  0  0  0  0
    1.2800    0.3050    0.5370 C   0  0  0  0  0  0  0  0  0  0  0  0
    0.1580    0.1030    1.3400 C   0  0  0  0  0  0  0  0  0  0  0  0
   -0.9170    1.1220    1.3830 C   0  0  0  0  0  0  0  0  0  0  0  0
   -1.9680    0.7500    0.4230 N   0  0  0  0  0  0  0  0  0  0  0  0
   -3.0950    1.6110    0.3340 C   0  0  0  0  0  0  0  0  0  0  0  0
   -3.0500    2.8340    1.0290 C   0  0  0  0  0  0  0  0  0  0  0  0
   -4.0560    3.7120    0.9290 N   0  0  0  0  0  0  0  0  0  0  0  0
   -5.1100    3.4070    0.1540 C   0  0  0  0  0  0  0  0  0  0  0  0
   -5.2060    2.2310   -0.5430 C   0  0  0  0  0  0  0  0  0  0  0  0
   -4.1560    1.2950   -0.4480 C   0  0  0  0  0  0  0  0  0  0  0  0
   -4.3020    0.0670   -1.1140 N   0  0  0  0  0  0  0  0  0  0  0  0
   -5.0000    0.0740   -2.4230 C   0  0  0  0  0  0  0  0  0  0  0  0
   -6.2280   -0.7940   -2.2140 C   0  0  0  0  0  0  0  0  0  0  0  0
   -5.7190   -2.1000   -2.0290 O   0  0  0  0  0  0  0  0  0  0  0  0
   -5.0980   -2.1930   -0.8100 C   0  0  0  0  0  0  0  0  0  0  0  0
   -3.9070   -1.2370   -0.6610 C   0  0  0  0  0  0  0  0  0  0  0  0
    0.0160   -1.0350    2.1100 C   0  0  0  0  0  0  0  0  0  0  0  0
    1.0150   -1.9720    2.0650 C   0  0  0  0  0  0  0  0  0  0  0  0
    2.1240   -1.7710    1.2710 C   0  0  0  0  0  0  0  0  0  0  0  0
    3.0700   -2.8430    1.3400 N   0  0  0  0  0  0  0  0  0  0  0  0
  1  2  2  0
  2  3  1  0
  2 31  1  0
  3  4  1  0
  4  5  1  6
  4 10  1  0
  5  6  2  0
  5  9  1  0
  6  7  1  0
  7  8  2  0
  8  9  1  0
 10 11  1  0
 11 12  2  0
 11 30  1  0
 12 13  1  0
 13 14  1  0
 13 28  2  0
 14 15  1  0
 15 16  1  0
 16 17  2  0
 16 21  1  0
 17 18  1  0
 18 19  2  0
 19 20  1  0
 20 21  2  0
 21 22  1  0
 22 23  1  0
 22 27  1  0
 23 24  1  0
 24 25  1  0
 25 26  1  0
 26 27  1  0
 28 29  1  0
 29 30  2  0
 30 31  1  0
M  CHG  1  18   1
M  END
