
     RDKit          3D

 31 34  0  0  0  0  0  0  0  0999 V2000
   -1.6500   -2.4310   -2.6320 C   0  0  0  0  0  0  0  0  0  0  0  0
   -2.4770   -2.4040   -1.6430 C   0  0  0  0  0  0  0  0  0  0  0  0
   -3.2030   -3.7360   -1.4160 C   0  0  0  0  0  0  0  0  0  0  0  0
   -2.7920   -1.3830   -0.7030 C   0  0  0  0  0  0  0  0  0  0  0  0
   -3.7650   -1.6740    0.1950 C   0  0  0  0  0  0  0  0  0  0  0  0
   -4.3380   -0.8990    1.2690 C   0  0  0  0  0  0  0  0  0  0  0  0
   -4.1530    0.3740    1.4960 C   0  0  0  0  0  0  0  0  0  0  0  0
   -3.4090    1.3950    0.8640 C   0  0  2  0  0  0  0  0  0  0  0  0
   -4.2480    2.4650    0.1800 C   0  0  0  0  0  0  0  0  0  0  0  0
   -3.3800    3.6280   -0.0330 N   0  0  0  0  0  0  0  0  0  0  0  0
   -2.2810    3.3470   -0.8630 C   0  0  0  0  0  0  0  0  0  0  0  0
   -1.4050    2.1780   -0.3120 C   0  0  0  0  0  0  0  0  0  0  0  0
   -2.3330    1.0600   -0.0960 C   0  0  0  0  0  0  0  0  0  0  0  0
   -2.0630   -0.0810   -0.6760 C   0  0  0  0  0  0  0  0  0  0  0  0
   -0.6260   -0.2370   -1.0730 C   0  0  0  0  0  0  0  0  0  0  0  0
    0.2860    0.6030   -0.3280 N   0  0  0  0  0  0  0  0  0  0  0  0
    0.5480    0.2670    1.0240 C   0  0  0  0  0  0  0  0  0  0  0  0
    1.5070   -0.8570    1.2940 C   0  0  2  0  0  0  0  0  0  0  0  0
    1.1950   -2.1850    0.6980 C   0  0  0  0  0  0  0  0  0  0  0  0
    1.7190   -0.9270    2.7160 N   0  0  0  0  0  0  0  0  0  0  0  0
    3.0770   -0.6530    2.9690 C   0  0  0  0  0  0  0  0  0  0  0  0
    3.6310   -0.6700    4.1140 O   0  0  0  0  0  0  0  0  0  0  0  0
    3.7110   -0.3520    1.7000 C   0  0  0  0  0  0  0  0  0  0  0  0
    4.9820   -0.0400    1.5100 C   0  0  0  0  0  0  0  0  0  0  0  0
    5.4620    0.2350    0.1780 C   0  0  0  0  0  0  0  0  0  0  0  0
    4.6910    0.9520   -0.7350 C   0  0  0  0  0  0  0  0  0  0  0  0
    5.1470    1.2220   -2.0020 C   0  0  0  0  0  0  0  0  0  0  0  0
    6.3620    0.7850   -2.3660 N   0  0  0  0  0  0  0  0  0  0  0  0
    7.1630    0.0930   -1.5560 C   0  0  0  0  0  0  0  0  0  0  0  0
    6.7070   -0.1840   -0.2670 C   0  0  0  0  0  0  0  0  0  0  0  0
    2.7590   -0.4460    0.7210 O   0  0  0  0  0  0  0  0  0  0  0  0
  1  2  2  0
  2  3  1  0
  2  4  1  0
  4  5  2  0
  4 14  1  0
  5  6  1  0
  6  7  2  0
  7  8  1  0
  8  9  1  6
  8 13  1  0
  9 10  1  0
 10 11  1  0
 11 12  1  0
 12 13  1  0
 13 14  2  0
 14 15  1  0
 15 16  1  0
 16 17  1  0
 17 18  1  0
 18 19  1  6
 18 20  1  0
 18 31  1  0
 20 21  1  0
 21 22  2  0
 21 23  1  0
 23 24  2  3
 23 31  1  0
 24 25  1  0
 25 26  2  0
 25 30  1  0
 26 27  1  0
 27 28  2  0
 28 29  1  0
 29 30  2  0
M  CHG  1  10   1
M  END
