
     RDKit          3D

 31 35  0  0  0  0  0  0  0  0999 V2000
   -0.3240   -6.6370   -1.0430 C   0  0  0  0  0  0  0  0  0  0  0  0
   -0.9450   -5.9250   -0.0160 O   0  0  0  0  0  0  0  0  0  0  0  0
   -0.6530   -4.6060    0.2820 C   0  0  0  0  0  0  0  0  0  0  0  0
   -1.3180   -3.9770    1.3190 C   0  0  0  0  0  0  0  0  0  0  0  0
   -1.0450   -2.6710    1.6310 C   0  0  0  0  0  0  0  0  0  0  0  0
   -0.0880   -1.9250    0.9160 C   0  0  0  0  0  0  0  0  0  0  0  0
    0.1000   -0.5560    1.3850 C   0  0  1  0  0  0  0  0  0  0  0  0
    1.2990    0.1900    0.9830 C   0  0  0  0  0  0  0  0  0  0  0  0
    1.5210    0.4520   -0.3850 N   0  0  0  0  0  0  0  0  0  0  0  0
    2.5980    1.0380   -1.0160 N   0  0  0  0  0  0  0  0  0  0  0  0
    2.7060    1.2190   -2.3690 C   0  0  0  0  0  0  0  0  0  0  0  0
    3.8500    1.8120   -2.6770 N   0  0  0  0  0  0  0  0  0  0  0  0
    4.5300    2.0410   -1.5620 C   0  0  0  0  0  0  0  0  0  0  0  0
    5.7490    2.6200   -1.3150 C   0  0  0  0  0  0  0  0  0  0  0  0
    6.1920    2.7170   -0.0140 C   0  0  0  0  0  0  0  0  0  0  0  0
    5.4580    2.2570    1.0370 C   0  0  0  0  0  0  0  0  0  0  0  0
    4.2240    1.6720    0.7750 C   0  0  0  0  0  0  0  0  0  0  0  0
    3.7610    1.5640   -0.5210 C   0  0  0  0  0  0  0  0  0  0  0  0
   -1.2210    0.1830    1.1450 C   0  0  1  0  0  0  0  0  0  0  0  0
   -1.1150    1.6170    1.5850 C   0  0  0  0  0  0  0  0  0  0  0  0
   -2.4250    2.1810    1.7880 O   0  0  0  0  0  0  0  0  0  0  0  0
   -3.3190    2.3780    0.7220 C   0  0  0  0  0  0  0  0  0  0  0  0
   -4.3810    3.1800    1.0560 C   0  0  0  0  0  0  0  0  0  0  0  0
   -5.3290    3.4500    0.0920 C   0  0  0  0  0  0  0  0  0  0  0  0
   -5.2310    2.9360   -1.1820 C   0  0  0  0  0  0  0  0  0  0  0  0
   -4.1290    2.1200   -1.4840 C   0  0  0  0  0  0  0  0  0  0  0  0
   -3.1840    1.8400   -0.5530 C   0  0  0  0  0  0  0  0  0  0  0  0
   -2.1080    0.9740   -1.0000 C   0  0  0  0  0  0  0  0  0  0  0  0
   -1.8120   -0.1030   -0.0930 N   0  0  0  0  0  0  0  0  0  0  0  0
    0.5630   -2.5460   -0.1000 C   0  0  0  0  0  0  0  0  0  0  0  0
    0.2710   -3.8650   -0.3970 C   0  0  0  0  0  0  0  0  0  0  0  0
  1  2  1  0
  2  3  1  0
  3  4  2  0
  3 31  1  0
  4  5  1  0
  5  6  2  0
  6  7  1  0
  6 30  1  0
  7  8  1  6
  7 19  1  0
  8  9  1  0
  9 10  1  0
 10 11  1  0
 10 18  1  0
 11 12  2  0
 12 13  1  0
 13 14  2  0
 13 18  1  0
 14 15  1  0
 15 16  2  0
 16 17  1  0
 17 18  2  0
 19 20  1  6
 19 29  1  0
 20 21  1  0
 21 22  1  0
 22 23  2  0
 22 27  1  0
 23 24  1  0
 24 25  2  0
 25 26  1  0
 26 27  2  0
 27 28  1  0
 28 29  1  0
 30 31  2  0
M  CHG  1  29   1
M  END
