
     RDKit          3D

 31 33  0  0  0  0  0  0  0  0999 V2000
    5.5770    1.0250   -2.7750 C   0  0  0  0  0  0  0  0  0  0  0  0
    4.4220    0.5600   -1.9460 C   0  0  0  0  0  0  0  0  0  0  0  0
    4.6440    0.1290   -0.6560 C   0  0  0  0  0  0  0  0  0  0  0  0
    3.6410   -0.3160    0.1790 C   0  0  0  0  0  0  0  0  0  0  0  0
    3.8990   -0.7290    1.4410 N   0  0  0  0  0  0  0  0  0  0  0  0
    2.9580   -1.1580    2.2650 C   0  0  0  0  0  0  0  0  0  0  0  0
    3.1220   -1.5910    3.5480 C   0  0  0  0  0  0  0  0  0  0  0  0
    4.2880   -1.5910    4.0170 O   0  0  0  0  0  0  0  0  0  0  0  0
    2.0430   -2.0030    4.2680 N   0  0  0  0  0  0  0  0  0  0  0  0
    0.7960   -2.0020    3.7620 C   0  0  0  0  0  0  0  0  0  0  0  0
   -0.1260   -2.4040    4.5180 O   0  0  0  0  0  0  0  0  0  0  0  0
    0.5390   -1.5840    2.4870 N   0  0  0  0  0  0  0  0  0  0  0  0
    1.5780   -1.1690    1.7400 C   0  0  0  0  0  0  0  0  0  0  0  0
    1.3220   -0.7590    0.4860 N   0  0  0  0  0  0  0  0  0  0  0  0
   -0.0360   -0.7770   -0.0070 C   0  0  0  0  0  0  0  0  0  0  0  0
   -0.7650    0.4960    0.2230 C   0  0  2  0  0  0  0  0  0  0  0  0
   -0.9180    0.8840    1.5290 O   0  0  0  0  0  0  0  0  0  0  0  0
   -2.1080    0.4700   -0.4660 C   0  0  2  0  0  0  0  0  0  0  0  0
   -2.6530    1.7820   -0.4540 O   0  0  0  0  0  0  0  0  0  0  0  0
   -3.1230   -0.3790    0.2560 C   0  0  2  0  0  0  0  0  0  0  0  0
   -2.8100   -1.7160    0.3320 O   0  0  0  0  0  0  0  0  0  0  0  0
   -4.4710   -0.1840   -0.4210 C   0  0  0  0  0  0  0  0  0  0  0  0
   -4.7250    1.1780   -0.4620 O   0  0  0  0  0  0  0  0  0  0  0  0
   -6.1970    1.5230   -1.1920 P   0  0  1  0  0  0  0  0  0  0  0  0
   -6.3200    3.0220   -1.3600 O   0  0  0  0  0  0  0  0  0  0  0  0
   -6.3350    0.8230   -2.7150 O   0  0  0  0  0  0  0  0  0  0  0  0
   -7.4700    1.0250   -0.1890 O   0  0  0  0  0  0  0  0  0  0  0  0
    2.3200   -0.3330   -0.3030 C   0  0  0  0  0  0  0  0  0  0  0  0
    2.1000    0.0950   -1.5830 C   0  0  0  0  0  0  0  0  0  0  0  0
    3.1290    0.5450   -2.4220 C   0  0  0  0  0  0  0  0  0  0  0  0
    2.8570    1.0040   -3.8100 C   0  0  0  0  0  0  0  0  0  0  0  0
  1  2  1  0
  2  3  2  0
  2 30  1  0
  3  4  1  0
  4  5  1  0
  4 28  2  0
  5  6  2  0
  6  7  1  0
  6 13  1  0
  7  8  2  0
  7  9  1  0
  9 10  1  0
 10 11  2  0
 10 12  1  0
 12 13  2  0
 13 14  1  0
 14 15  1  0
 14 28  1  0
 15 16  1  0
 16 17  1  1
 16 18  1  0
 18 19  1  1
 18 20  1  0
 20 21  1  6
 20 22  1  0
 22 23  1  0
 23 24  1  0
 24 25  2  0
 24 26  1  6
 24 27  1  0
 28 29  1  0
 29 30  2  0
 30 31  1  0
M  END
