
     RDKit          3D

 31 33  0  0  0  0  0  0  0  0999 V2000
    3.9420   -0.7250    0.6390 O   0  0  0  0  0  0  0  0  0  0  0  0
    2.7090   -1.1460    0.6520 C   0  0  0  0  0  0  0  0  0  0  0  0
    2.3880   -1.8740    1.8070 N   0  0  0  0  0  0  0  0  0  0  0  0
    3.3540   -2.1290    2.8710 C   0  0  0  0  0  0  0  0  0  0  0  0
    4.4750   -2.9490    2.3470 C   0  0  0  0  0  0  0  0  0  0  0  0
    3.9020   -4.1570    1.8800 O   0  0  0  0  0  0  0  0  0  0  0  0
    1.8670   -0.8210   -0.4810 C   0  0  0  0  0  0  0  0  0  0  0  0
    0.6150   -1.1640   -0.5830 C   0  0  0  0  0  0  0  0  0  0  0  0
   -0.0930   -1.8770    0.3640 N   0  0  0  0  0  0  0  0  0  0  0  0
   -1.0910   -1.7040    1.0930 C   0  0  0  0  0  0  0  0  0  0  0  0
   -1.4480   -2.7530    1.9170 N   0  0  0  0  0  0  0  0  0  0  0  0
   -2.4740   -2.7310    2.7380 C   0  0  0  0  0  0  0  0  0  0  0  0
   -3.2410   -1.6400    2.8060 N   0  0  0  0  0  0  0  0  0  0  0  0
   -2.9440   -0.5930    2.0340 C   0  0  0  0  0  0  0  0  0  0  0  0
   -1.8560   -0.5720    1.1400 C   0  0  0  0  0  0  0  0  0  0  0  0
   -1.5690    0.6540    0.4270 C   0  0  0  0  0  0  0  0  0  0  0  0
   -0.4330    1.1900    0.4860 O   0  0  0  0  0  0  0  0  0  0  0  0
   -2.5770    1.3220   -0.3870 C   0  0  0  0  0  0  0  0  0  0  0  0
   -3.7600    0.7940   -0.5380 C   0  0  0  0  0  0  0  0  0  0  0  0
   -4.8240    1.4150   -1.3410 C   0  0  0  0  0  0  0  0  0  0  0  0
   -4.4640    2.6290   -1.9180 O   0  0  0  0  0  0  0  0  0  0  0  0
   -3.2190    3.1860   -1.7590 C   0  0  0  0  0  0  0  0  0  0  0  0
   -2.2830    2.6020   -1.0390 C   0  0  0  0  0  0  0  0  0  0  0  0
   -0.0580   -0.7690   -1.7710 O   0  0  0  0  0  0  0  0  0  0  0  0
    0.2900    0.2710   -2.6020 C   0  0  0  0  0  0  0  0  0  0  0  0
    1.6740    0.8210   -2.3350 C   0  0  1  0  0  0  0  0  0  0  0  0
    1.6500    2.0270   -1.6370 O   0  0  0  0  0  0  0  0  0  0  0  0
    2.4390    3.3060   -2.4640 P   0  0  0  0  0  0  0  0  0  0  0  0
    1.5360    3.8500   -3.8170 O   0  0  0  0  0  0  0  0  0  0  0  0
    2.9230    4.5660   -1.4040 O   0  0  0  0  0  0  0  0  0  0  0  0
    2.4330   -0.0850   -1.5540 O   0  0  0  0  0  0  0  0  0  0  0  0
  1  2  2  0
  2  3  1  0
  2  7  1  0
  3  4  1  0
  4  5  1  0
  5  6  1  0
  7  8  2  0
  7 31  1  0
  8  9  1  0
  8 24  1  0
  9 10  2  3
 10 11  1  0
 10 15  1  0
 11 12  2  0
 12 13  1  0
 13 14  1  0
 14 15  2  0
 15 16  1  0
 16 17  2  0
 16 18  1  0
 18 19  2  0
 18 23  1  0
 19 20  1  0
 20 21  1  0
 21 22  1  0
 22 23  2  0
 24 25  1  0
 25 26  1  0
 26 27  1  1
 26 31  1  0
 27 28  1  0
 28 29  1  0
 28 30  1  0
M  END
