
     RDKit          3D

 31 33  0  0  0  0  0  0  0  0999 V2000
   -4.6990   -3.2540   -1.5120 C   0  0  0  0  0  0  0  0  0  0  0  0
   -4.6620   -2.3510   -0.3050 C   0  0  1  0  0  0  0  0  0  0  0  0
   -3.2970   -2.1390    0.2100 C   0  0  0  0  0  0  0  0  0  0  0  0
   -2.4680   -3.0160    0.5990 O   0  0  0  0  0  0  0  0  0  0  0  0
   -3.0350   -0.7450    0.2070 N   0  0  0  0  0  0  0  0  0  0  0  0
   -2.0230    0.2910    0.5230 C   0  0  0  0  0  0  0  0  0  0  0  0
   -0.8600   -0.1040    1.2790 C   0  0  0  0  0  0  0  0  0  0  0  0
   -0.5240   -1.3630    1.1960 O   0  0  0  0  0  0  0  0  0  0  0  0
   -0.0170    0.6190    2.1110 N   0  0  0  0  0  0  0  0  0  0  0  0
    1.1860    0.0950    2.7830 C   0  0  0  0  0  0  0  0  0  0  0  0
    2.2340   -0.3050    1.8130 C   0  0  0  0  0  0  0  0  0  0  0  0
    1.8900   -1.2720    0.9410 O   0  0  0  0  0  0  0  0  0  0  0  0
    3.0000   -1.8210   -0.1930 P   0  0  0  0  0  0  0  0  0  0  0  0
    3.2400   -3.5150   -0.2600 O   0  0  0  0  0  0  0  0  0  0  0  0
    4.4830   -0.8170   -0.5100 C   0  0  1  0  0  0  0  0  0  0  0  0
    4.1050    0.3770   -1.3840 C   0  0  0  0  0  0  0  0  0  0  0  0
    5.1900    1.4110   -1.1780 C   0  0  0  0  0  0  0  0  0  0  0  0
    6.5200    0.6950   -0.9390 C   0  0  0  0  0  0  0  0  0  0  0  0
    6.5330   -0.0240    0.2470 O   0  0  0  0  0  0  0  0  0  0  0  0
    5.2110   -0.3070    0.6860 C   0  0  0  0  0  0  0  0  0  0  0  0
   -2.5590    1.4660    0.2210 C   0  0  0  0  0  0  0  0  0  0  0  0
   -1.8640    2.7370    0.3640 C   0  0  0  0  0  0  0  0  0  0  0  0
   -2.4110    4.0310    0.1730 N   0  0  0  0  0  0  0  0  0  0  0  0
   -0.6320    2.7880    0.6750 O   0  0  0  0  0  0  0  0  0  0  0  0
   -3.8950    1.3260   -0.2930 N   0  0  0  0  0  0  0  0  0  0  0  0
   -4.8040    2.3130   -0.7410 C   0  0  0  0  0  0  0  0  0  0  0  0
   -4.6660    3.5320   -0.8090 O   0  0  0  0  0  0  0  0  0  0  0  0
   -6.0780    1.8610   -1.1860 O   0  0  0  0  0  0  0  0  0  0  0  0
   -4.1690   -0.1000   -0.2880 C   0  0  0  0  0  0  0  0  0  0  0  0
   -5.1240   -0.9780   -0.5960 C   0  0  0  0  0  0  0  0  0  0  0  0
   -6.3920   -0.6500   -1.1230 O   0  0  0  0  0  0  0  0  0  0  0  0
  2  1  1  6
  2  3  1  0
  2 30  1  0
  3  4  2  0
  3  5  1  0
  5  6  1  0
  5 29  1  0
  6  7  1  0
  6 21  2  0
  7  8  2  0
  7  9  1  0
  9 10  1  0
 10 11  1  0
 11 12  1  0
 12 13  1  0
 13 14  1  0
 15 13  1  1
 15 16  1  0
 15 20  1  0
 16 17  1  0
 17 18  1  0
 18 19  1  0
 19 20  1  0
 21 22  1  0
 21 25  1  0
 22 23  1  0
 22 24  2  0
 25 26  1  0
 25 29  1  0
 26 27  2  0
 26 28  1  0
 29 30  2  0
 30 31  1  0
M  END
