
     RDKit          3D

 31 33  0  0  0  0  0  0  0  0999 V2000
   -1.7610    2.0240   -0.0070 C   0  0  0  0  0  0  0  0  0  0  0  0
   -3.0270    1.4230    0.3290 C   0  0  0  0  0  0  0  0  0  0  0  0
   -3.3810    0.2330    0.7130 C   0  0  0  0  0  0  0  0  0  0  0  0
   -2.4870   -0.8620    0.9070 C   0  0  0  0  0  0  0  0  0  0  0  0
   -2.9870   -1.9880    1.2960 O   0  0  0  0  0  0  0  0  0  0  0  0
   -1.0690   -0.9170    0.7350 N   0  0  0  0  0  0  0  0  0  0  0  0
   -0.3490   -2.1220    0.9850 C   0  0  0  0  0  0  0  0  0  0  0  0
    0.9230   -2.2470    0.8590 C   0  0  0  0  0  0  0  0  0  0  0  0
    1.7000   -3.4110    1.0820 O   0  0  0  0  0  0  0  0  0  0  0  0
    2.9760   -3.2690    0.4440 C   0  0  0  0  0  0  0  0  0  0  0  0
    2.8430   -2.0570   -0.4130 C   0  0  2  0  0  0  0  0  0  0  0  0
    4.0570   -1.3480   -0.7980 C   0  0  0  0  0  0  0  0  0  0  0  0
    5.0270   -1.9790   -1.3130 O   0  0  0  0  0  0  0  0  0  0  0  0
    4.2340    0.0550   -0.6290 N   0  0  0  0  0  0  0  0  0  0  0  0
    5.4010    0.7480   -1.1920 C   0  0  1  0  0  0  0  0  0  0  0  0
    4.8820    1.7930   -2.1200 C   0  0  0  0  0  0  0  0  0  0  0  0
    5.2330    2.9420   -1.7050 N   0  0  0  0  0  0  0  0  0  0  0  0
    5.9880    2.8810   -0.5250 N   0  0  0  0  0  0  0  0  0  0  0  0
    6.1120    1.5140   -0.1750 C   0  0  0  0  0  0  0  0  0  0  0  0
    6.7170    1.0700    0.8160 O   0  0  0  0  0  0  0  0  0  0  0  0
    3.2430    0.7630    0.1030 C   0  0  0  0  0  0  0  0  0  0  0  0
    3.3550    2.0000    0.2880 O   0  0  0  0  0  0  0  0  0  0  0  0
    2.0880    0.0290    0.6400 C   0  0  0  0  0  0  0  0  0  0  0  0
    1.9220   -1.2420    0.4610 C   0  0  0  0  0  0  0  0  0  0  0  0
   -4.8430    0.0890    0.9440 C   0  0  0  0  0  0  0  0  0  0  0  0
   -5.5450   -0.9050    1.3180 C   0  0  0  0  0  0  0  0  0  0  0  0
   -5.2500   -2.2010    1.6480 O   0  0  0  0  0  0  0  0  0  0  0  0
   -5.5830    1.2980    0.6970 O   0  0  0  0  0  0  0  0  0  0  0  0
   -6.4680    1.4570   -0.8190 P   0  0  0  0  0  0  0  0  0  0  0  0
   -7.6640    2.6980   -0.6280 O   0  0  0  0  0  0  0  0  0  0  0  0
   -7.3250   -0.0310   -1.1810 O   0  0  0  0  0  0  0  0  0  0  0  0
  1  2  1  0
  2  3  2  3
  3  4  1  0
  3 25  1  0
  4  5  2  0
  4  6  1  0
  6  7  1  0
  7  8  2  3
  8  9  1  0
  8 24  1  0
  9 10  1  0
 11 10  1  1
 11 12  1  0
 11 24  1  0
 12 13  2  0
 12 14  1  0
 15 14  1  1
 14 21  1  0
 15 16  1  0
 15 19  1  0
 16 17  2  0
 17 18  1  0
 18 19  1  0
 19 20  2  0
 21 22  2  0
 21 23  1  0
 23 24  2  0
 25 26  2  3
 25 28  1  0
 26 27  1  0
 28 29  1  0
 29 30  1  0
 29 31  1  0
M  END
