
     RDKit          3D

 31 32  0  0  0  0  0  0  0  0999 V2000
    7.5490    3.3500    0.4840 C   0  0  0  0  0  0  0  0  0  0  0  0
    7.0050    2.2930   -0.3500 C   0  0  0  0  0  0  0  0  0  0  0  0
    5.8660    1.6570   -0.1320 C   0  0  0  0  0  0  0  0  0  0  0  0
    5.5380    0.6260   -1.1300 C   0  0  0  0  0  0  0  0  0  0  0  0
    4.5060   -0.1530   -1.1120 C   0  0  0  0  0  0  0  0  0  0  0  0
    4.3430   -1.0760   -2.1450 O   0  0  0  0  0  0  0  0  0  0  0  0
    5.7560   -1.9930   -2.6440 P   0  0  0  0  0  0  0  0  0  0  0  0
    6.9030   -2.1670   -1.3560 O   0  0  0  0  0  0  0  0  0  0  0  0
    5.2260   -3.5850   -3.0960 O   0  0  0  0  0  0  0  0  0  0  0  0
    5.1920    1.9920    1.0330 C   0  0  0  0  0  0  0  0  0  0  0  0
    5.7500    2.8700    1.8780 O   0  0  0  0  0  0  0  0  0  0  0  0
    4.0560    1.6740    1.6210 N   0  0  0  0  0  0  0  0  0  0  0  0
    2.8200    1.3170    1.7730 C   0  0  0  0  0  0  0  0  0  0  0  0
    2.7240    1.4890    3.1770 O   0  0  0  0  0  0  0  0  0  0  0  0
    1.5760    0.9090    1.5650 N   0  0  0  0  0  0  0  0  0  0  0  0
    0.8690    0.8240    0.3740 C   0  0  0  0  0  0  0  0  0  0  0  0
    1.5140    0.9710   -0.6690 O   0  0  0  0  0  0  0  0  0  0  0  0
   -0.5550    0.5860    0.4690 C   0  0  0  0  0  0  0  0  0  0  0  0
   -1.1230    0.3390    1.5600 O   0  0  0  0  0  0  0  0  0  0  0  0
   -1.3070    0.6380   -0.6530 O   0  0  0  0  0  0  0  0  0  0  0  0
   -2.7020    0.4290   -0.6330 C   0  0  0  0  0  0  0  0  0  0  0  0
   -3.0330   -0.9680   -0.1700 C   0  0  0  0  0  0  0  0  0  0  0  0
   -4.4820   -1.0700   -0.1950 N   0  0  0  0  0  0  0  0  0  0  0  0
   -5.1940   -1.5170   -1.3640 C   0  0  0  0  0  0  0  0  0  0  0  0
   -6.5730   -0.9100   -1.4650 C   0  0  1  0  0  0  0  0  0  0  0  0
   -7.5630   -1.9120   -0.9100 C   0  0  0  0  0  0  0  0  0  0  0  0
   -7.3860   -1.7360    0.5830 C   0  0  0  0  0  0  0  0  0  0  0  0
   -6.6800   -0.4070    0.7380 C   0  0  2  0  0  0  0  0  0  0  0  0
   -6.7470    0.2170   -0.5920 N   0  0  0  0  0  0  0  0  0  0  0  0
   -5.2340   -0.7210    0.9620 C   0  0  0  0  0  0  0  0  0  0  0  0
   -4.7120   -0.6800    2.1010 O   0  0  0  0  0  0  0  0  0  0  0  0
  1  2  1  0
  2  3  2  3
  3  4  1  0
  3 10  1  0
  4  5  2  3
  5  6  1  0
  6  7  1  0
  7  8  1  0
  7  9  1  0
 10 11  2  0
 10 12  1  0
 12 13  1  0
 13 14  2  0
 13 15  1  0
 15 16  1  0
 16 17  2  0
 16 18  1  0
 18 19  2  0
 18 20  1  0
 20 21  1  0
 21 22  1  0
 22 23  1  0
 23 24  1  0
 23 30  1  0
 25 24  1  1
 25 26  1  0
 25 29  1  0
 26 27  1  0
 28 27  1  6
 28 29  1  0
 28 30  1  0
 30 31  2  0
M  END
