
     RDKit          3D

 30 32  0  0  0  0  0  0  0  0999 V2000
   -1.1530    3.8610    3.0410 C   0  0  0  0  0  0  0  0  0  0  0  0
   -1.0050    3.2670    1.7590 O   0  0  0  0  0  0  0  0  0  0  0  0
   -0.5440    1.9700    1.6020 C   0  0  0  0  0  0  0  0  0  0  0  0
   -0.2640    1.3490    2.6750 O   0  0  0  0  0  0  0  0  0  0  0  0
   -0.4010    1.3830    0.2500 C   0  0  2  0  0  0  0  0  0  0  0  0
    0.1750    0.0190    0.4530 C   0  0  0  0  0  0  0  0  0  0  0  0
   -0.1760   -0.8850    1.3510 N   0  0  0  0  0  0  0  0  0  0  0  0
    0.5950   -1.9740    1.1870 C   0  0  0  0  0  0  0  0  0  0  0  0
    0.5240   -3.1940    1.9790 C   0  0  0  0  0  0  0  0  0  0  0  0
    1.3550   -4.2750    1.7410 C   0  0  0  0  0  0  0  0  0  0  0  0
    1.2750   -5.4180    2.4910 C   0  0  0  0  0  0  0  0  0  0  0  0
    0.3520   -5.4980    3.5020 C   0  0  0  0  0  0  0  0  0  0  0  0
    0.2300   -6.6450    4.2970 O   0  0  0  0  0  0  0  0  0  0  0  0
   -0.4710   -4.4280    3.7370 C   0  0  0  0  0  0  0  0  0  0  0  0
   -0.3570   -3.3330    2.9800 N   0  0  0  0  0  0  0  0  0  0  0  0
    1.4150   -1.6840    0.1610 N   0  0  0  0  0  0  0  0  0  0  0  0
    1.1430   -0.4810   -0.2620 O   0  0  0  0  0  0  0  0  0  0  0  0
    0.5490    2.2570   -0.5390 C   0  0  0  0  0  0  0  0  0  0  0  0
    0.0190    2.5100   -1.8190 N   0  0  0  0  0  0  0  0  0  0  0  0
    0.5150    1.7640   -2.9190 C   0  0  0  0  0  0  0  0  0  0  0  0
    1.9230    2.0430   -3.3310 C   0  0  1  0  0  0  0  0  0  0  0  0
    2.8840    1.8150   -2.3830 O   0  0  0  0  0  0  0  0  0  0  0  0
    2.3140    0.9200   -4.7850 P   0  0  0  0  0  0  0  0  0  0  0  0
    2.6960   -0.6380   -4.1020 O   0  0  0  0  0  0  0  0  0  0  0  0
    3.7090    1.5310   -5.6430 O   0  0  0  0  0  0  0  0  0  0  0  0
   -1.4000    2.3440   -1.6920 C   0  0  0  0  0  0  0  0  0  0  0  0
   -1.6460    1.3470   -0.5610 C   0  0  1  0  0  0  0  0  0  0  0  0
   -1.9650   -0.0230   -1.1290 C   0  0  0  0  0  0  0  0  0  0  0  0
   -2.8800    1.8360    0.1580 C   0  0  0  0  0  0  0  0  0  0  0  0
   -3.1700    1.0960    1.3010 O   0  0  0  0  0  0  0  0  0  0  0  0
  1  2  1  0
  2  3  1  0
  3  4  2  0
  5  3  1  1
  5  6  1  0
  5 18  1  0
  5 27  1  0
  6  7  2  0
  6 17  1  0
  7  8  1  0
  8  9  1  0
  8 16  2  0
  9 10  2  0
  9 15  1  0
 10 11  1  0
 11 12  2  0
 12 13  1  0
 12 14  1  0
 14 15  2  0
 16 17  1  0
 18 19  1  0
 19 20  1  0
 19 26  1  0
 20 21  1  0
 21 22  1  1
 21 23  1  0
 23 24  1  0
 23 25  1  0
 26 27  1  0
 27 28  1  6
 27 29  1  0
 29 30  1  0
M  END
