
     RDKit          3D

 42 45  0  0  0  0  0  0  0  0999 V2000
   -0.4430    3.0030    2.4380 C   0  0  0  0  0  0  0  0  0  0  0  0
   -0.7990    2.6910    1.0170 C   0  0  2  0  0  0  0  0  0  0  0  0
   -1.7990    3.5430    0.3420 C   0  0  0  0  0  0  0  0  0  0  0  0
   -0.6920    1.2890    0.6120 C   0  0  0  0  0  0  0  0  0  0  0  0
   -1.5850    0.6020   -0.1720 C   0  0  0  0  0  0  0  0  0  0  0  0
   -2.9860    0.8430   -0.5380 C   0  0  0  0  0  0  0  0  0  0  0  0
   -3.3270    0.4370   -1.6980 O   0  0  0  0  0  0  0  0  0  0  0  0
   -3.9120    1.4640    0.3090 N   0  0  0  0  0  0  0  0  0  0  0  0
   -5.2680    1.6840   -0.0230 C   0  0  0  0  0  0  0  0  0  0  0  0
   -5.9170    0.9980   -0.9970 C   0  0  0  0  0  0  0  0  0  0  0  0
   -7.2800    1.1680   -1.2970 C   0  0  0  0  0  0  0  0  0  0  0  0
   -7.9530    2.0840   -0.5410 C   0  0  0  0  0  0  0  0  0  0  0  0
   -7.3070    2.7960    0.4630 C   0  0  0  0  0  0  0  0  0  0  0  0
   -5.9810    2.6180    0.7400 C   0  0  0  0  0  0  0  0  0  0  0  0
   -5.3040    3.3250    1.7450 O   0  0  0  0  0  0  0  0  0  0  0  0
   -1.0330   -0.6330   -0.5010 C   0  0  0  0  0  0  0  0  0  0  0  0
   -1.6490   -1.7140   -1.2930 C   0  0  0  0  0  0  0  0  0  0  0  0
   -2.4530   -2.6600   -0.6910 C   0  0  0  0  0  0  0  0  0  0  0  0
   -3.0500   -3.6880   -1.3850 C   0  0  0  0  0  0  0  0  0  0  0  0
   -2.8460   -3.7960   -2.7480 C   0  0  0  0  0  0  0  0  0  0  0  0
   -2.0550   -2.8720   -3.3680 C   0  0  0  0  0  0  0  0  0  0  0  0
   -1.4530   -1.8300   -2.6430 C   0  0  0  0  0  0  0  0  0  0  0  0
    0.2030   -0.6860    0.0960 C   0  0  0  0  0  0  0  0  0  0  0  0
    1.0580   -1.8790   -0.0360 C   0  0  0  0  0  0  0  0  0  0  0  0
    1.7460   -2.2200   -1.1670 C   0  0  0  0  0  0  0  0  0  0  0  0
    2.5090   -3.3800   -1.2150 C   0  0  0  0  0  0  0  0  0  0  0  0
    2.5630   -4.1810   -0.1020 C   0  0  0  0  0  0  0  0  0  0  0  0
    3.3030   -5.3290   -0.1200 F   0  0  0  0  0  0  0  0  0  0  0  0
    1.8840   -3.8590    1.0530 C   0  0  0  0  0  0  0  0  0  0  0  0
    1.1380   -2.7180    1.0830 C   0  0  0  0  0  0  0  0  0  0  0  0
    0.3990    0.4660    0.7580 N   0  0  0  0  0  0  0  0  0  0  0  0
    1.5870    0.7550    1.4860 C   0  0  0  0  0  0  0  0  0  0  0  0
    2.7240    1.4190    0.7780 C   0  0  0  0  0  0  0  0  0  0  0  0
    3.4010    0.6520   -0.3000 C   0  0  1  0  0  0  0  0  0  0  0  0
    4.4280    1.5520   -0.8220 O   0  0  0  0  0  0  0  0  0  0  0  0
    4.2730   -0.5070    0.1440 C   0  0  0  0  0  0  0  0  0  0  0  0
    5.4040   -0.0390    1.0160 C   0  0  1  0  0  0  0  0  0  0  0  0
    5.0730    0.5330    2.2010 O   0  0  0  0  0  0  0  0  0  0  0  0
    6.5060   -1.0480    1.1800 C   0  0  0  0  0  0  0  0  0  0  0  0
    7.1210   -1.3330   -0.1560 C   0  0  0  0  0  0  0  0  0  0  0  0
    7.9470   -2.2870   -0.1920 O   0  0  0  0  0  0  0  0  0  0  0  0
    6.8130   -0.6140   -1.2670 O   0  0  0  0  0  0  0  0  0  0  0  0
  2  1  1  1
  2  3  1  0
  2  4  1  0
  4  5  2  0
  4 31  1  0
  5  6  1  0
  5 16  1  0
  6  7  2  0
  6  8  1  0
  8  9  1  0
  9 10  2  0
  9 14  1  0
 10 11  1  0
 11 12  2  0
 12 13  1  0
 13 14  2  0
 14 15  1  0
 16 17  1  0
 16 23  2  0
 17 18  2  0
 17 22  1  0
 18 19  1  0
 19 20  2  0
 20 21  1  0
 21 22  2  0
 23 24  1  0
 23 31  1  0
 24 25  2  0
 24 30  1  0
 25 26  1  0
 26 27  2  0
 27 28  1  0
 27 29  1  0
 29 30  2  0
 31 32  1  0
 32 33  1  0
 33 34  1  0
 34 35  1  1
 34 36  1  0
 36 37  1  0
 37 38  1  1
 37 39  1  0
 39 40  1  0
 40 41  2  0
 40 42  1  0
M  END
