
     RDKit          3D

 42 45  0  0  0  0  0  0  0  0999 V2000
   -0.7190   -0.5350   -3.6780 C   0  0  0  0  0  0  0  0  0  0  0  0
    0.1170    0.6650   -3.2360 C   0  0  0  0  0  0  0  0  0  0  0  0
   -0.2050    0.8970   -1.8800 O   0  0  0  0  0  0  0  0  0  0  0  0
   -1.4560    1.1960   -1.4290 C   0  0  0  0  0  0  0  0  0  0  0  0
   -2.3720    1.2680   -2.2830 O   0  0  0  0  0  0  0  0  0  0  0  0
   -1.7660    1.4350    0.0200 C   0  0  0  0  0  0  0  0  0  0  0  0
   -3.0030    1.7310    0.4810 C   0  0  0  0  0  0  0  0  0  0  0  0
   -3.2000    1.9280    1.7830 C   0  0  0  0  0  0  0  0  0  0  0  0
   -4.3660    2.2470    2.6100 C   0  0  0  0  0  0  0  0  0  0  0  0
   -5.5430    1.9350    1.8270 N   0  0  0  0  0  0  0  0  0  0  0  0
   -5.7810    0.6300    1.3530 C   0  0  0  0  0  0  0  0  0  0  0  0
   -4.9070   -0.2380    1.6540 O   0  0  0  0  0  0  0  0  0  0  0  0
   -6.9010    0.2260    0.5850 N   0  0  0  0  0  0  0  0  0  0  0  0
   -7.0390   -1.1500    0.1520 C   0  0  0  0  0  0  0  0  0  0  0  0
   -8.4950   -1.4390   -0.1060 C   0  0  1  0  0  0  0  0  0  0  0  0
   -8.6850   -2.9410    0.1300 C   0  0  0  0  0  0  0  0  0  0  0  0
   -9.3040   -0.7920    0.7980 O   0  0  0  0  0  0  0  0  0  0  0  0
   -9.2820    0.5810    0.7380 C   0  0  2  0  0  0  0  0  0  0  0  0
  -10.4850    1.0910    0.0120 C   0  0  0  0  0  0  0  0  0  0  0  0
  -10.6160    0.6110   -1.3980 C   0  0  0  0  0  0  0  0  0  0  0  0
   -7.9700    1.1130    0.1800 C   0  0  0  0  0  0  0  0  0  0  0  0
   -1.5910    1.6990    2.4650 S   0  0  0  0  0  0  0  0  0  0  0  0
   -0.7620    1.3520    0.9440 C   0  0  0  0  0  0  0  0  0  0  0  0
    0.6330    1.0690    0.8480 N   0  0  0  0  0  0  0  0  0  0  0  0
    1.4580    1.0320    2.0090 C   0  0  0  0  0  0  0  0  0  0  0  0
    0.8860    1.2630    3.1130 O   0  0  0  0  0  0  0  0  0  0  0  0
    2.8950    0.7500    2.0090 C   0  0  1  0  0  0  0  0  0  0  0  0
    3.2360   -0.4930    2.8160 C   0  0  0  0  0  0  0  0  0  0  0  0
    4.3450   -1.1350    2.0530 C   0  0  0  0  0  0  0  0  0  0  0  0
    4.4560   -0.3820    0.7870 C   0  0  0  0  0  0  0  0  0  0  0  0
    5.3960   -0.5710   -0.1430 C   0  0  0  0  0  0  0  0  0  0  0  0
    6.4310   -1.5740    0.0190 C   0  0  0  0  0  0  0  0  0  0  0  0
    6.4540   -2.2810    1.0340 O   0  0  0  0  0  0  0  0  0  0  0  0
    7.4570   -1.7420   -1.0420 C   0  0  2  0  0  0  0  0  0  0  0  0
    8.4360   -2.8370   -0.7090 C   0  0  0  0  0  0  0  0  0  0  0  0
    9.6350   -2.1790   -0.0490 C   0  0  0  0  0  0  0  0  0  0  0  0
    9.3520   -0.6970   -0.0670 C   0  0  1  0  0  0  0  0  0  0  0  0
   10.6170    0.0710   -0.3080 C   0  0  0  0  0  0  0  0  0  0  0  0
   10.3750    1.5680   -0.3340 C   0  0  0  0  0  0  0  0  0  0  0  0
    9.8390    2.0180    0.8820 O   0  0  0  0  0  0  0  0  0  0  0  0
    8.2980   -0.4840   -1.1270 C   0  0  0  0  0  0  0  0  0  0  0  0
    3.4340    0.5340    0.7330 O   0  0  0  0  0  0  0  0  0  0  0  0
  1  2  1  0
  2  3  1  0
  3  4  1  0
  4  5  2  0
  4  6  1  0
  6  7  1  0
  6 23  2  0
  7  8  2  0
  8  9  1  0
  8 22  1  0
  9 10  1  0
 10 11  1  0
 11 12  2  0
 11 13  1  0
 13 14  1  0
 13 21  1  0
 14 15  1  0
 15 16  1  1
 15 17  1  0
 17 18  1  0
 18 19  1  6
 18 21  1  0
 19 20  1  0
 22 23  1  0
 23 24  1  0
 24 25  1  0
 25 26  2  0
 27 25  1  6
 27 28  1  0
 27 42  1  0
 28 29  1  0
 29 30  1  0
 30 31  2  3
 30 42  1  0
 31 32  1  0
 32 33  2  0
 34 32  1  1
 34 35  1  0
 34 41  1  0
 35 36  1  0
 36 37  1  0
 37 38  1  6
 37 41  1  0
 38 39  1  0
 39 40  1  0
M  END
