
     RDKit          3D

 42 45  0  0  0  0  0  0  0  0999 V2000
    3.0560   -4.8210    1.1390 C   0  0  0  0  0  0  0  0  0  0  0  0
    3.6760   -3.6280    1.0020 C   0  0  0  0  0  0  0  0  0  0  0  0
    5.0340   -3.7090    0.9250 O   0  0  0  0  0  0  0  0  0  0  0  0
    2.9390   -2.4260    0.9490 C   0  0  0  0  0  0  0  0  0  0  0  0
    3.1790   -1.1720    0.8230 C   0  0  0  0  0  0  0  0  0  0  0  0
    4.4100   -0.4390    0.6660 C   0  0  0  0  0  0  0  0  0  0  0  0
    5.9560   -0.9500    0.0390 S   0  0  2  0  0  0  0  0  0  0  0  0
    7.0860   -1.4940    1.2660 C   0  0  0  0  0  0  0  0  0  0  0  0
    6.6130    0.3200   -0.5600 O   0  0  0  0  0  0  0  0  0  0  0  0
    5.8290   -1.8500   -1.1490 O   0  0  0  0  0  0  0  0  0  0  0  0
    4.1810    0.8350    1.0810 C   0  0  0  0  0  0  0  0  0  0  0  0
    5.2270    1.8950    1.0720 C   0  0  0  0  0  0  0  0  0  0  0  0
    2.8240    0.9760    1.4760 N   0  0  0  0  0  0  0  0  0  0  0  0
    2.0970   -0.0860    0.8790 C   0  0  1  0  0  0  0  0  0  0  0  0
    1.6780    0.2660   -0.5150 C   0  0  2  0  0  0  0  0  0  0  0  0
    2.7030    0.8210   -1.3760 C   0  0  0  0  0  0  0  0  0  0  0  0
    2.5370    1.8760   -2.1380 C   0  0  0  0  0  0  0  0  0  0  0  0
    1.2830    2.5740   -2.1730 C   0  0  0  0  0  0  0  0  0  0  0  0
    1.0640    3.5830   -2.8760 O   0  0  0  0  0  0  0  0  0  0  0  0
    0.2160    2.0230   -1.3030 C   0  0  0  0  0  0  0  0  0  0  0  0
    0.4010    0.9780   -0.5550 C   0  0  0  0  0  0  0  0  0  0  0  0
   -0.6980    0.4290    0.3260 C   0  0  0  0  0  0  0  0  0  0  0  0
   -2.0490    0.8910   -0.0050 C   0  0  2  0  0  0  0  0  0  0  0  0
   -2.7980   -0.0020   -0.9250 C   0  0  0  0  0  0  0  0  0  0  0  0
   -3.3910    0.4520   -1.9620 O   0  0  0  0  0  0  0  0  0  0  0  0
   -2.9010   -1.4070   -0.7100 N   0  0  0  0  0  0  0  0  0  0  0  0
   -3.6580   -2.2410   -1.6560 C   0  0  0  0  0  0  0  0  0  0  0  0
   -3.6170   -3.6430   -1.2260 C   0  0  0  0  0  0  0  0  0  0  0  0
   -4.6900   -4.3570   -0.9250 C   0  0  0  0  0  0  0  0  0  0  0  0
   -4.5680   -5.7650   -0.4990 C   0  0  0  0  0  0  0  0  0  0  0  0
   -5.2570   -6.6200   -1.3710 O   0  0  0  0  0  0  0  0  0  0  0  0
   -2.3380   -4.2280   -1.1410 O   0  0  0  0  0  0  0  0  0  0  0  0
   -1.8670   -4.8030   -2.3570 C   0  0  0  0  0  0  0  0  0  0  0  0
   -2.1260    2.2310   -0.5280 N   0  0  0  0  0  0  0  0  0  0  0  0
   -3.2760    3.0510   -0.2150 C   0  0  0  0  0  0  0  0  0  0  0  0
   -3.0970    3.8420    1.0390 C   0  0  1  0  0  0  0  0  0  0  0  0
   -1.9280    4.7950    0.9950 C   0  0  0  0  0  0  0  0  0  0  0  0
   -2.2370    5.8520    2.0460 C   0  0  0  0  0  0  0  0  0  0  0  0
   -3.7310    5.9600    2.0180 C   0  0  0  0  0  0  0  0  0  0  0  0
   -4.2800    4.6960    1.3910 C   0  0  0  0  0  0  0  0  0  0  0  0
   -1.0850    2.7320   -1.3390 C   0  0  0  0  0  0  0  0  0  0  0  0
   -1.2340    3.7530   -2.0830 O   0  0  0  0  0  0  0  0  0  0  0  0
  1  2  2  0
  2  3  1  0
  2  4  1  0
  4  5  2  3
  5  6  1  0
  5 14  1  0
  6  7  1  0
  6 11  2  0
  7  8  1  1
  7  9  2  0
  7 10  2  0
 11 12  1  0
 11 13  1  0
 14 13  1  6
 14 15  1  0
 15 16  1  1
 15 21  1  0
 16 17  2  0
 17 18  1  0
 18 19  2  0
 18 20  1  0
 20 21  2  0
 20 41  1  0
 21 22  1  0
 22 23  1  0
 23 24  1  6
 23 34  1  0
 24 25  2  0
 24 26  1  0
 26 27  1  0
 27 28  1  0
 28 29  2  3
 28 32  1  0
 29 30  1  0
 30 31  1  0
 32 33  1  0
 34 35  1  0
 34 41  1  0
 36 35  1  6
 36 37  1  0
 36 40  1  0
 37 38  1  0
 38 39  1  0
 39 40  1  0
 41 42  2  0
M  END
