
     RDKit          3D

 42 46  0  0  0  0  0  0  0  0999 V2000
    0.6790    5.1540    3.9670 C   0  0  0  0  0  0  0  0  0  0  0  0
    0.3550    3.9910    3.2390 O   0  0  0  0  0  0  0  0  0  0  0  0
    1.2800    3.3540    2.4150 C   0  0  0  0  0  0  0  0  0  0  0  0
    2.5500    3.8360    2.2790 C   0  0  0  0  0  0  0  0  0  0  0  0
    3.4820    3.1910    1.4470 C   0  0  0  0  0  0  0  0  0  0  0  0
    3.2040    2.0590    0.7290 C   0  0  0  0  0  0  0  0  0  0  0  0
    4.0700    1.3350   -0.1360 C   0  0  0  0  0  0  0  0  0  0  0  0
    3.5440    0.2770   -0.6860 O   0  0  0  0  0  0  0  0  0  0  0  0
    5.4120    1.5810   -0.4950 N   0  0  0  0  0  0  0  0  0  0  0  0
    6.3920    2.5740   -0.1910 C   0  0  0  0  0  0  0  0  0  0  0  0
    7.6500    1.6790    0.0480 C   0  0  0  0  0  0  0  0  0  0  0  0
    7.5410    0.7220   -1.1180 C   0  0  0  0  0  0  0  0  0  0  0  0
    6.1020    0.6630   -1.4560 C   0  0  1  0  0  0  0  0  0  0  0  0
    5.5560   -0.7130   -1.3420 C   0  0  0  0  0  0  0  0  0  0  0  0
    5.5160   -1.4040   -0.1560 C   0  0  0  0  0  0  0  0  0  0  0  0
    4.9700   -2.6710   -0.1440 C   0  0  0  0  0  0  0  0  0  0  0  0
    4.4580   -3.2810   -1.2660 C   0  0  0  0  0  0  0  0  0  0  0  0
    3.9150   -4.5610   -1.1950 O   0  0  0  0  0  0  0  0  0  0  0  0
    4.5120   -2.5580   -2.4550 C   0  0  0  0  0  0  0  0  0  0  0  0
    4.0030   -3.1570   -3.5970 O   0  0  0  0  0  0  0  0  0  0  0  0
    5.0510   -1.2920   -2.5000 C   0  0  0  0  0  0  0  0  0  0  0  0
    1.8740    1.5970    0.9030 C   0  0  0  0  0  0  0  0  0  0  0  0
    0.9630    2.2190    1.7070 C   0  0  0  0  0  0  0  0  0  0  0  0
   -0.3360    1.7310    1.8440 O   0  0  0  0  0  0  0  0  0  0  0  0
   -0.6960    0.5680    1.1260 C   0  0  0  0  0  0  0  0  0  0  0  0
   -2.1710    0.3150    1.4790 C   0  0  2  0  0  0  0  0  0  0  0  0
   -2.6750   -0.9340    0.8480 C   0  0  0  0  0  0  0  0  0  0  0  0
   -4.0880   -0.8840    0.5080 N   0  0  0  0  0  0  0  0  0  0  0  0
   -4.7740   -2.1100    0.3470 C   0  0  0  0  0  0  0  0  0  0  0  0
   -4.1670   -3.2220    0.5240 O   0  0  0  0  0  0  0  0  0  0  0  0
   -6.2080   -2.2100   -0.0310 C   0  0  2  0  0  0  0  0  0  0  0  0
   -6.7150   -3.6270   -0.0290 C   0  0  0  0  0  0  0  0  0  0  0  0
   -7.6720   -3.6610   -1.1920 C   0  0  0  0  0  0  0  0  0  0  0  0
   -7.4360   -2.5650   -1.9810 O   0  0  0  0  0  0  0  0  0  0  0  0
   -6.3830   -1.8370   -1.4870 C   0  0  2  0  0  0  0  0  0  0  0  0
   -5.1180   -1.9950   -2.2730 C   0  0  0  0  0  0  0  0  0  0  0  0
   -4.5120   -3.6940   -2.2500 S   0  0  0  0  0  0  0  0  0  0  0  0
   -3.3940   -3.8690   -3.2840 O   0  0  0  0  0  0  0  0  0  0  0  0
   -4.7930    0.3780    0.3400 C   0  0  0  0  0  0  0  0  0  0  0  0
   -4.1960    1.3550    1.3400 C   0  0  2  0  0  0  0  0  0  0  0  0
   -4.8750    2.7080    1.2550 C   0  0  0  0  0  0  0  0  0  0  0  0
   -2.8420    1.4580    1.0530 O   0  0  0  0  0  0  0  0  0  0  0  0
  1  2  1  0
  2  3  1  0
  3  4  2  0
  3 23  1  0
  4  5  1  0
  5  6  2  0
  6  7  1  0
  6 22  1  0
  7  8  2  0
  7  9  1  0
  9 10  1  0
  9 13  1  0
 10 11  1  0
 11 12  1  0
 12 13  1  0
 13 14  1  1
 14 15  2  0
 14 21  1  0
 15 16  1  0
 16 17  2  0
 17 18  1  0
 17 19  1  0
 19 20  1  0
 19 21  2  0
 22 23  2  0
 23 24  1  0
 24 25  1  0
 26 25  1  6
 26 27  1  0
 26 42  1  0
 27 28  1  0
 28 29  1  0
 28 39  1  0
 29 30  2  0
 31 29  1  6
 31 32  1  0
 31 35  1  0
 32 33  1  0
 33 34  1  0
 34 35  1  0
 35 36  1  6
 36 37  1  0
 37 38  2  0
 39 40  1  0
 40 41  1  6
 40 42  1  0
M  END
