
     RDKit          3D

 42 46  0  0  0  0  0  0  0  0999 V2000
   -9.9950   -2.6700   -1.6790 C   0  0  0  0  0  0  0  0  0  0  0  0
   -8.6300   -2.2670   -2.2460 C   0  0  0  0  0  0  0  0  0  0  0  0
   -7.9500   -1.4430   -1.1970 C   0  0  0  0  0  0  0  0  0  0  0  0
   -6.5780   -0.9840   -1.6530 C   0  0  1  0  0  0  0  0  0  0  0  0
   -6.7130   -0.1540   -2.8900 C   0  0  0  0  0  0  0  0  0  0  0  0
   -6.6410   -0.7090   -4.0200 O   0  0  0  0  0  0  0  0  0  0  0  0
   -6.9190    1.2360   -2.7380 N   0  0  0  0  0  0  0  0  0  0  0  0
   -7.2510    1.7770   -1.4470 C   0  0  0  0  0  0  0  0  0  0  0  0
   -6.6240    1.0720   -0.2900 C   0  0  0  0  0  0  0  0  0  0  0  0
   -5.9510   -0.1690   -0.6470 N   0  0  0  0  0  0  0  0  0  0  0  0
   -4.7310   -0.5530   -0.0230 C   0  0  0  0  0  0  0  0  0  0  0  0
   -4.2110   -1.6370   -0.3890 O   0  0  0  0  0  0  0  0  0  0  0  0
   -4.0970    0.3150    1.0330 C   0  0  1  0  0  0  0  0  0  0  0  0
   -5.3630    0.4160    2.3620 S   0  0  0  0  0  0  0  0  0  0  0  0
   -4.4340   -0.5660    3.6090 C   0  0  0  0  0  0  0  0  0  0  0  0
   -3.0390   -0.3240    3.1510 C   0  0  2  0  0  0  0  0  0  0  0  0
   -2.5050    0.9690    3.7010 C   0  0  0  0  0  0  0  0  0  0  0  0
   -2.9460   -0.3760    1.6700 C   0  0  2  0  0  0  0  0  0  0  0  0
   -1.7090    0.4030    1.2960 C   0  0  0  0  0  0  0  0  0  0  0  0
   -1.7510    1.4370    0.5830 O   0  0  0  0  0  0  0  0  0  0  0  0
   -0.4220   -0.0110    1.7460 N   0  0  0  0  0  0  0  0  0  0  0  0
    0.7870    0.7140    1.4070 C   0  0  0  0  0  0  0  0  0  0  0  0
    1.9830    0.0250    2.0290 C   0  0  1  0  0  0  0  0  0  0  0  0
    2.0550   -1.2640    1.5260 O   0  0  0  0  0  0  0  0  0  0  0  0
    3.2040    0.7650    1.6190 C   0  0  0  0  0  0  0  0  0  0  0  0
    3.6800    0.7080    0.3300 C   0  0  0  0  0  0  0  0  0  0  0  0
    4.8230    1.4040   -0.0620 C   0  0  0  0  0  0  0  0  0  0  0  0
    5.5170    2.1750    0.8320 C   0  0  0  0  0  0  0  0  0  0  0  0
    6.6350    2.8590    0.4570 O   0  0  0  0  0  0  0  0  0  0  0  0
    7.2290    2.9000   -0.7930 C   0  0  0  0  0  0  0  0  0  0  0  0
    7.6830    1.5870   -1.2950 C   0  0  0  0  0  0  0  0  0  0  0  0
    7.5990    1.0850   -2.5750 C   0  0  0  0  0  0  0  0  0  0  0  0
    8.1590   -0.1730   -2.5350 C   0  0  0  0  0  0  0  0  0  0  0  0
    8.5590   -0.3850   -1.2420 C   0  0  0  0  0  0  0  0  0  0  0  0
    8.2590    0.6720   -0.5570 O   0  0  0  0  0  0  0  0  0  0  0  0
    9.1720   -1.7400   -1.1590 C   0  0  2  0  0  0  0  0  0  0  0  0
   10.4340   -1.6250   -0.3290 C   0  0  0  0  0  0  0  0  0  0  0  0
   11.3410   -0.7430   -0.9010 O   0  0  0  0  0  0  0  0  0  0  0  0
    9.4670   -2.0390   -2.5980 C   0  0  0  0  0  0  0  0  0  0  0  0
    8.4740   -1.3050   -3.2900 O   0  0  0  0  0  0  0  0  0  0  0  0
    5.0330    2.2330    2.1440 C   0  0  0  0  0  0  0  0  0  0  0  0
    3.9020    1.5420    2.5230 C   0  0  0  0  0  0  0  0  0  0  0  0
  1  2  1  0
  2  3  1  0
  4  3  1  1
  4  5  1  0
  4 10  1  0
  5  6  2  0
  5  7  1  0
  7  8  1  0
  8  9  1  0
  9 10  1  0
 10 11  1  0
 11 12  2  0
 13 11  1  6
 13 14  1  0
 13 18  1  0
 14 15  1  0
 15 16  1  0
 16 17  1  6
 16 18  1  0
 18 19  1  1
 19 20  2  0
 19 21  1  0
 21 22  1  0
 22 23  1  0
 23 24  1  6
 23 25  1  0
 25 26  2  0
 25 42  1  0
 26 27  1  0
 27 28  2  0
 28 29  1  0
 28 41  1  0
 29 30  1  0
 30 31  1  0
 31 32  2  0
 31 35  1  0
 32 33  1  0
 33 34  2  0
 33 40  1  0
 34 35  1  0
 34 36  1  0
 36 37  1  1
 36 39  1  0
 37 38  1  0
 39 40  1  0
 41 42  2  0
M  END
