
     RDKit          3D

 42 46  0  0  0  0  0  0  0  0999 V2000
   -9.0910    1.8110    0.5760 C   0  0  0  0  0  0  0  0  0  0  0  0
   -9.0040    3.0370    0.0220 O   0  0  0  0  0  0  0  0  0  0  0  0
   -7.8230    3.6860   -0.0510 C   0  0  0  0  0  0  0  0  0  0  0  0
   -6.5440    2.8110   -0.9240 S   0  0  0  0  0  0  0  0  0  0  0  0
   -5.8480    1.4520   -0.0040 C   0  0  0  0  0  0  0  0  0  0  0  0
   -5.9800    1.0940    1.2520 C   0  0  0  0  0  0  0  0  0  0  0  0
   -5.2040   -0.1090    1.5690 C   0  0  0  0  0  0  0  0  0  0  0  0
   -5.1610   -0.7590    2.9260 C   0  0  0  0  0  0  0  0  0  0  0  0
   -6.4620   -1.1490    3.2940 O   0  0  0  0  0  0  0  0  0  0  0  0
   -6.9830   -2.0560    2.3720 C   0  0  0  0  0  0  0  0  0  0  0  0
   -4.5850   -0.4810    0.4690 C   0  0  0  0  0  0  0  0  0  0  0  0
   -3.7020   -1.6290    0.3190 C   0  0  1  0  0  0  0  0  0  0  0  0
   -4.1150   -2.5480   -0.7240 N   0  0  0  0  0  0  0  0  0  0  0  0
   -2.9550   -3.3090   -1.0330 C   0  0  0  0  0  0  0  0  0  0  0  0
   -2.9850   -4.4120   -1.6360 O   0  0  0  0  0  0  0  0  0  0  0  0
   -1.7350   -2.5840   -0.5280 C   0  0  0  0  0  0  0  0  0  0  0  0
   -2.2840   -1.2300   -0.1340 C   0  0  2  0  0  0  0  0  0  0  0  0
   -1.6290   -0.6290    1.0530 C   0  0  0  0  0  0  0  0  0  0  0  0
   -0.2930   -0.1730    0.9090 N   0  0  1  0  0  0  0  0  0  0  0  0
    0.7010   -1.2240    0.9300 C   0  0  0  0  0  0  0  0  0  0  0  0
   -0.0510    0.7350   -0.1790 C   0  0  0  0  0  0  0  0  0  0  0  0
    1.3560    0.6210   -0.6600 C   0  0  0  0  0  0  0  0  0  0  0  0
    2.3630    1.3910   -0.1170 C   0  0  0  0  0  0  0  0  0  0  0  0
    3.6750    1.2820   -0.5680 C   0  0  0  0  0  0  0  0  0  0  0  0
    4.0220    0.4050   -1.5730 C   0  0  0  0  0  0  0  0  0  0  0  0
    5.3930    0.2830   -2.0520 C   0  0  0  0  0  0  0  0  0  0  0  0
    5.6270   -0.5480   -2.9790 O   0  0  0  0  0  0  0  0  0  0  0  0
    6.4430    1.0090   -1.5630 O   0  0  0  0  0  0  0  0  0  0  0  0
    7.7740    0.8950   -2.0230 C   0  0  1  0  0  0  0  0  0  0  0  0
    8.3080    2.1160   -2.6090 C   0  0  0  0  0  0  0  0  0  0  0  0
    7.8760    2.8240   -3.5640 O   0  0  0  0  0  0  0  0  0  0  0  0
    9.4670    2.4500   -1.9290 O   0  0  0  0  0  0  0  0  0  0  0  0
    9.7070    1.4990   -0.9280 C   0  0  0  0  0  0  0  0  0  0  0  0
   10.6010    1.1850    0.0810 C   0  0  0  0  0  0  0  0  0  0  0  0
   10.1020    0.0330    0.6390 C   0  0  0  0  0  0  0  0  0  0  0  0
   10.7560   -0.6850    1.7890 C   0  0  0  0  0  0  0  0  0  0  0  0
    8.9920   -0.3530    0.0430 N   0  0  0  0  0  0  0  0  0  0  0  0
    8.7200    0.5510   -0.9450 C   0  0  0  0  0  0  0  0  0  0  0  0
    3.0030   -0.3560   -2.1030 C   0  0  0  0  0  0  0  0  0  0  0  0
    1.6990   -0.2590   -1.6660 C   0  0  0  0  0  0  0  0  0  0  0  0
   -4.9300    0.4430   -0.5770 C   0  0  0  0  0  0  0  0  0  0  0  0
   -4.5670    0.4640   -1.7760 O   0  0  0  0  0  0  0  0  0  0  0  0
  1  2  1  0
  2  3  1  0
  3  4  1  0
  4  5  1  0
  5  6  2  0
  5 41  1  0
  6  7  1  0
  7  8  1  0
  7 11  2  0
  8  9  1  0
  9 10  1  0
 12 11  1  6
 11 41  1  0
 12 13  1  0
 12 17  1  0
 13 14  1  0
 14 15  2  0
 14 16  1  0
 16 17  1  0
 17 18  1  1
 18 19  1  0
 19 20  1  6
 19 21  1  0
 21 22  1  0
 22 23  2  0
 22 40  1  0
 23 24  1  0
 24 25  2  0
 25 26  1  0
 25 39  1  0
 26 27  2  0
 26 28  1  0
 29 28  1  1
 29 30  1  0
 29 38  1  0
 30 31  2  0
 30 32  1  0
 32 33  1  0
 33 34  1  0
 33 38  2  0
 34 35  2  0
 35 36  1  0
 35 37  1  0
 37 38  1  0
 39 40  2  0
 41 42  2  0
M  CHG  1  19   1
M  END
