
     RDKit          3D

 37 41  0  0  0  0  0  0  0  0999 V2000
    5.3070    0.6940   -5.1540 C   0  0  0  0  0  0  0  0  0  0  0  0
    4.1780    0.6140   -4.5080 C   0  0  0  0  0  0  0  0  0  0  0  0
    4.1060    0.3500   -3.0730 C   0  0  0  0  0  0  0  0  0  0  0  0
    5.2040    0.1610   -2.2760 C   0  0  0  0  0  0  0  0  0  0  0  0
    5.0950   -0.0890   -0.9030 C   0  0  0  0  0  0  0  0  0  0  0  0
    3.8670   -0.1550   -0.3040 C   0  0  0  0  0  0  0  0  0  0  0  0
    2.7250    0.0330   -1.0860 C   0  0  0  0  0  0  0  0  0  0  0  0
    1.4500   -0.0500   -0.4570 N   0  0  0  0  0  0  0  0  0  0  0  0
    0.8340    1.0770    0.1550 C   0  0  0  0  0  0  0  0  0  0  0  0
    1.4710    2.1540    0.1130 O   0  0  0  0  0  0  0  0  0  0  0  0
   -0.4220    1.0340    0.7850 N   0  0  0  0  0  0  0  0  0  0  0  0
   -1.0530    2.1810    1.4100 C   0  0  0  0  0  0  0  0  0  0  0  0
   -2.5220    1.8410    1.2490 C   0  0  0  0  0  0  0  0  0  0  0  0
   -2.5200    0.3860    1.6290 C   0  0  1  0  0  0  0  0  0  0  0  0
   -3.7880   -0.3210    1.3270 C   0  0  0  0  0  0  0  0  0  0  0  0
   -4.1800   -0.3270   -0.1090 C   0  0  0  0  0  0  0  0  0  0  0  0
   -5.4350   -1.0530   -0.2450 N   0  0  0  0  0  0  0  0  0  0  0  0
   -5.5540   -2.3650   -0.4650 C   0  0  0  0  0  0  0  0  0  0  0  0
   -6.8420   -2.7290   -0.5410 N   0  0  0  0  0  0  0  0  0  0  0  0
   -7.5780   -1.6210   -0.3640 C   0  0  0  0  0  0  0  0  0  0  0  0
   -8.9490   -1.4270   -0.3480 C   0  0  0  0  0  0  0  0  0  0  0  0
   -9.4460   -0.1570   -0.1420 C   0  0  0  0  0  0  0  0  0  0  0  0
   -8.5650    0.8860    0.0430 C   0  0  0  0  0  0  0  0  0  0  0  0
   -7.2010    0.6720    0.0230 C   0  0  0  0  0  0  0  0  0  0  0  0
   -6.6970   -0.5910   -0.1820 C   0  0  0  0  0  0  0  0  0  0  0  0
   -1.3120   -0.1340    0.9320 C   0  0  0  0  0  0  0  0  0  0  0  0
    2.8610    0.2780   -2.4350 C   0  0  0  0  0  0  0  0  0  0  0  0
    1.7680    0.4650   -3.2200 F   0  0  0  0  0  0  0  0  0  0  0  0
    3.5610   -0.3880    1.0950 C   0  0  0  0  0  0  0  0  0  0  0  0
    2.4440   -1.0070    1.2410 O   0  0  0  0  0  0  0  0  0  0  0  0
    4.2790   -0.0530    2.3620 C   0  0  1  0  0  0  0  0  0  0  0  0
    4.0980   -1.1190    3.3610 C   0  0  0  0  0  0  0  0  0  0  0  0
    5.1180   -1.7270    3.8210 N   0  0  0  0  0  0  0  0  0  0  0  0
    2.8760   -1.4830    3.8160 F   0  0  0  0  0  0  0  0  0  0  0  0
    5.7090    0.2640    2.0460 C   0  0  0  0  0  0  0  0  0  0  0  0
    6.3420   -0.7600    1.1340 C   0  0  0  0  0  0  0  0  0  0  0  0
    6.4340   -0.2590   -0.2890 C   0  0  0  0  0  0  0  0  0  0  0  0
  1  2  2  0
  2  3  1  0
  3  4  2  0
  3 27  1  0
  4  5  1  0
  5  6  2  0
  5 37  1  0
  6  7  1  0
  6 29  1  0
  7  8  1  0
  7 27  2  0
  8  9  1  0
  9 10  2  0
  9 11  1  0
 11 12  1  0
 11 26  1  0
 12 13  1  0
 13 14  1  0
 14 15  1  6
 14 26  1  0
 15 16  1  0
 16 17  1  0
 17 18  1  0
 17 25  1  0
 18 19  2  0
 19 20  1  0
 20 21  2  0
 20 25  1  0
 21 22  1  0
 22 23  2  0
 23 24  1  0
 24 25  2  0
 27 28  1  0
 29 30  2  0
 29 31  1  0
 31 32  1  1
 31 35  1  0
 32 33  2  0
 32 34  1  0
 35 36  1  0
 36 37  1  0
M  END
