
     RDKit          3D

 37 41  0  0  0  0  0  0  0  0999 V2000
    6.2910    4.4410    0.1000 C   0  0  0  0  0  0  0  0  0  0  0  0
    4.9390    4.5060   -0.6060 C   0  0  0  0  0  0  0  0  0  0  0  0
    4.4150    3.0770   -0.5480 C   0  0  0  0  0  0  0  0  0  0  0  0
    4.6200    2.1400   -1.4460 N   0  0  0  0  0  0  0  0  0  0  0  0
    3.9980    0.9730   -1.0510 C   0  0  0  0  0  0  0  0  0  0  0  0
    4.1790   -0.2720   -1.8320 C   0  0  1  0  0  0  0  0  0  0  0  0
    4.5360   -0.1290   -3.2850 C   0  0  0  0  0  0  0  0  0  0  0  0
    5.6610   -0.4010   -2.3500 C   0  0  0  0  0  0  0  0  0  0  0  0
    3.3950    1.2210    0.1240 C   0  0  0  0  0  0  0  0  0  0  0  0
    2.6400    0.4230    1.0490 C   0  0  0  0  0  0  0  0  0  0  0  0
    2.5020    1.0180    2.2400 O   0  0  0  0  0  0  0  0  0  0  0  0
    2.0250   -0.8080    0.9680 N   0  0  0  0  0  0  0  0  0  0  0  0
    1.3560   -1.4060    2.1870 C   0  0  0  0  0  0  0  0  0  0  0  0
    0.6390   -2.5820    1.7110 C   0  0  2  0  0  0  0  0  0  0  0  0
    1.3900   -3.8880    1.8980 C   0  0  0  0  0  0  0  0  0  0  0  0
    1.6570   -4.1020    3.3680 C   0  0  0  0  0  0  0  0  0  0  0  0
    0.3910   -2.3010    0.2230 C   0  0  1  0  0  0  0  0  0  0  0  0
   -0.6670   -1.3660    0.0450 N   0  0  0  0  0  0  0  0  0  0  0  0
   -1.9840   -1.7890   -0.3730 C   0  0  0  0  0  0  0  0  0  0  0  0
   -2.1900   -2.9920   -0.5760 O   0  0  0  0  0  0  0  0  0  0  0  0
   -2.9790   -0.7650   -0.5200 C   0  0  0  0  0  0  0  0  0  0  0  0
   -2.5590    0.4410   -0.9200 N   0  0  0  0  0  0  0  0  0  0  0  0
   -3.3640    1.4930   -1.0610 C   0  0  0  0  0  0  0  0  0  0  0  0
   -4.7330    1.3380   -0.7740 C   0  0  0  0  0  0  0  0  0  0  0  0
   -5.5270    2.5030   -1.0080 C   0  0  0  0  0  0  0  0  0  0  0  0
   -4.9840    3.7100   -1.1140 C   0  0  0  0  0  0  0  0  0  0  0  0
   -5.7800    4.8030   -1.3350 F   0  0  0  0  0  0  0  0  0  0  0  0
   -5.2320    0.1340   -0.3520 C   0  0  0  0  0  0  0  0  0  0  0  0
   -6.5560   -0.0070   -0.0220 C   0  0  0  0  0  0  0  0  0  0  0  0
   -7.5390    1.0790    0.0030 C   0  0  0  0  0  0  0  0  0  0  0  0
   -6.9450   -1.2910    0.4340 C   0  0  0  0  0  0  0  0  0  0  0  0
   -8.2600   -1.4640    0.7590 F   0  0  0  0  0  0  0  0  0  0  0  0
   -6.0820   -2.3330    0.5500 C   0  0  0  0  0  0  0  0  0  0  0  0
   -4.7550   -2.1620    0.2190 C   0  0  0  0  0  0  0  0  0  0  0  0
   -4.3150   -0.9400   -0.2300 C   0  0  0  0  0  0  0  0  0  0  0  0
    1.7610   -1.7000   -0.1150 C   0  0  0  0  0  0  0  0  0  0  0  0
    3.6800    2.5600    0.4160 N   0  0  0  0  0  0  0  0  0  0  0  0
  1  2  1  0
  2  3  1  0
  3  4  2  0
  3 37  1  0
  4  5  1  0
  6  5  1  1
  5  9  2  0
  6  7  1  0
  6  8  1  0
  7  8  1  0
  9 10  1  0
  9 37  1  0
 10 11  2  0
 10 12  1  0
 12 13  1  0
 12 36  1  0
 13 14  1  0
 14 15  1  6
 14 17  1  0
 15 16  1  0
 17 18  1  1
 17 36  1  0
 18 19  1  0
 19 20  2  0
 19 21  1  0
 21 22  2  0
 21 35  1  0
 22 23  1  0
 23 24  2  0
 24 25  1  0
 24 28  1  0
 25 26  2  3
 26 27  1  0
 28 29  2  0
 28 35  1  0
 29 30  1  0
 29 31  1  0
 31 32  1  0
 31 33  2  0
 33 34  1  0
 34 35  2  0
M  END
