
     RDKit          3D

 37 40  0  0  0  0  0  0  0  0999 V2000
    3.5690   -3.7580   -0.0980 C   0  0  0  0  0  0  0  0  0  0  0  0
    2.7580   -2.7670    0.0600 C   0  0  0  0  0  0  0  0  0  0  0  0
    3.0400   -1.3270   -0.1070 C   0  0  0  0  0  0  0  0  0  0  0  0
    2.0800   -0.4470    0.1040 C   0  0  0  0  0  0  0  0  0  0  0  0
    0.7300   -0.7330    0.5040 C   0  0  0  0  0  0  0  0  0  0  0  0
   -0.2060    0.1970    0.6980 C   0  0  0  0  0  0  0  0  0  0  0  0
    0.1260    1.5870    0.4990 C   0  0  0  0  0  0  0  0  0  0  0  0
   -0.7670    2.5530    0.7780 C   0  0  0  0  0  0  0  0  0  0  0  0
   -0.4080    3.9610    0.5740 C   0  0  0  0  0  0  0  0  0  0  0  0
    0.7320    4.2440    0.1300 O   0  0  0  0  0  0  0  0  0  0  0  0
   -2.0850    2.1550    1.2520 C   0  0  0  0  0  0  0  0  0  0  0  0
   -3.0720    3.2520    1.5210 C   0  0  2  0  0  0  0  0  0  0  0  0
   -4.3380    2.6880    2.1530 C   0  0  0  0  0  0  0  0  0  0  0  0
   -5.4570    3.6520    1.9400 C   0  0  0  0  0  0  0  0  0  0  0  0
   -5.0510    5.0550    1.6390 C   0  0  0  0  0  0  0  0  0  0  0  0
   -4.0670    5.1880    0.5920 N   0  0  0  0  0  0  0  0  0  0  0  0
   -3.5310    3.8930    0.2210 C   0  0  0  0  0  0  0  0  0  0  0  0
   -2.3890    0.9290    1.3980 N   0  0  0  0  0  0  0  0  0  0  0  0
   -1.5680   -0.2160    1.1440 C   0  0  1  0  0  0  0  0  0  0  0  0
   -2.1640   -1.0310    0.1180 N   0  0  0  0  0  0  0  0  0  0  0  0
   -1.7520   -2.3440   -0.2480 C   0  0  0  0  0  0  0  0  0  0  0  0
   -1.8770   -3.3710    0.5400 C   0  0  0  0  0  0  0  0  0  0  0  0
   -1.4650   -4.7280    0.1970 C   0  0  1  0  0  0  0  0  0  0  0  0
   -0.4960   -5.1870    1.1160 F   0  0  0  0  0  0  0  0  0  0  0  0
   -2.5390   -5.6190    0.3650 F   0  0  0  0  0  0  0  0  0  0  0  0
   -0.9180   -4.9560   -1.1510 C   0  0  0  0  0  0  0  0  0  0  0  0
   -0.8080   -3.7540   -1.9790 C   0  0  0  0  0  0  0  0  0  0  0  0
   -1.1910   -2.5570   -1.5650 C   0  0  0  0  0  0  0  0  0  0  0  0
   -1.0430   -1.4840   -2.4350 O   0  0  0  0  0  0  0  0  0  0  0  0
   -1.9880   -1.3600   -3.4950 C   0  0  0  0  0  0  0  0  0  0  0  0
    4.3770   -0.9340   -0.4260 N   0  0  0  0  0  0  0  0  0  0  0  0
    5.2760   -1.8190   -0.8920 N   0  0  0  0  0  0  0  0  0  0  0  0
    6.4620   -1.2390   -1.0720 C   0  0  0  0  0  0  0  0  0  0  0  0
    7.7300   -1.8820   -1.5780 C   0  0  0  0  0  0  0  0  0  0  0  0
    6.2870    0.0690   -0.6990 C   0  0  0  0  0  0  0  0  0  0  0  0
    4.9460    0.2490   -0.2870 C   0  0  0  0  0  0  0  0  0  0  0  0
    4.4550    1.5450    0.2130 C   0  0  0  0  0  0  0  0  0  0  0  0
  1  2  2  0
  2  3  1  0
  3  4  2  3
  3 31  1  0
  4  5  1  0
  5  6  2  3
  6  7  1  0
  6 19  1  0
  7  8  2  0
  8  9  1  0
  8 11  1  0
  9 10  2  0
 12 11  1  6
 11 18  2  0
 12 13  1  0
 12 17  1  0
 13 14  1  0
 14 15  1  0
 15 16  1  0
 16 17  1  0
 18 19  1  0
 19 20  1  6
 20 21  1  0
 21 22  2  0
 21 28  1  0
 22 23  1  0
 23 24  1  1
 23 25  1  0
 23 26  1  0
 26 27  1  0
 27 28  2  0
 28 29  1  0
 29 30  1  0
 31 32  1  0
 31 36  1  0
 32 33  2  0
 33 34  1  0
 33 35  1  0
 35 36  2  0
 36 37  1  0
M  END
