
     RDKit          3D

 37 41  0  0  0  0  0  0  0  0999 V2000
   -1.9300    3.2440    1.4440 C   0  0  0  0  0  0  0  0  0  0  0  0
   -1.9540    3.4060   -0.0610 C   0  0  0  0  0  0  0  0  0  0  0  0
   -3.0940    2.5660   -0.6110 C   0  0  0  0  0  0  0  0  0  0  0  0
   -2.9210    1.1680   -0.2870 N   0  0  0  0  0  0  0  0  0  0  0  0
   -3.4320    0.5740    0.8940 C   0  0  0  0  0  0  0  0  0  0  0  0
   -4.2690    1.1910    1.5790 O   0  0  0  0  0  0  0  0  0  0  0  0
   -2.9830   -0.7700    1.3230 C   0  0  0  0  0  0  0  0  0  0  0  0
   -2.5840   -1.6050    0.2550 N   0  0  0  0  0  0  0  0  0  0  0  0
   -3.0240   -2.9040    0.1600 C   0  0  1  0  0  0  0  0  0  0  0  0
   -2.0600   -3.9590    0.7260 C   0  0  0  0  0  0  0  0  0  0  0  0
   -4.2730   -3.0860    1.0510 C   0  0  0  0  0  0  0  0  0  0  0  0
   -3.4690   -3.3850   -1.2100 C   0  0  0  0  0  0  0  0  0  0  0  0
   -3.1630   -2.2680   -2.1830 C   0  0  0  0  0  0  0  0  0  0  0  0
   -1.6780   -1.9160   -1.9080 C   0  0  0  0  0  0  0  0  0  0  0  0
   -1.6790   -1.0370   -0.6890 C   0  0  2  0  0  0  0  0  0  0  0  0
   -0.3690   -0.7620   -0.0580 C   0  0  0  0  0  0  0  0  0  0  0  0
    0.7040   -0.1420   -0.8590 C   0  0  2  0  0  0  0  0  0  0  0  0
    1.1530   -0.9400   -2.0490 C   0  0  0  0  0  0  0  0  0  0  0  0
    1.8920    0.0300   -0.0070 N   0  0  0  0  0  0  0  0  0  0  0  0
    2.1950   -0.6110    1.1230 C   0  0  0  0  0  0  0  0  0  0  0  0
    1.7990   -1.5440    2.0040 N   0  0  0  0  0  0  0  0  0  0  0  0
    2.6800   -1.6920    3.0040 C   0  0  0  0  0  0  0  0  0  0  0  0
    2.6150   -2.6080    4.1640 C   0  0  0  0  0  0  0  0  0  0  0  0
    3.6880   -0.8110    2.7500 N   0  0  0  0  0  0  0  0  0  0  0  0
    3.4050   -0.1570    1.6210 C   0  0  0  0  0  0  0  0  0  0  0  0
    3.8630    0.8040    0.7590 C   0  0  0  0  0  0  0  0  0  0  0  0
    5.0040    1.6080    0.7270 C   0  0  0  0  0  0  0  0  0  0  0  0
    5.2250    2.5180   -0.2830 C   0  0  0  0  0  0  0  0  0  0  0  0
    6.3410    3.2960   -0.3010 F   0  0  0  0  0  0  0  0  0  0  0  0
    4.2710    2.6130   -1.2790 C   0  0  0  0  0  0  0  0  0  0  0  0
    4.4530    3.5650   -2.3780 C   0  0  0  0  0  0  0  0  0  0  0  0
    4.1670    4.9920   -1.9730 C   0  0  0  0  0  0  0  0  0  0  0  0
    3.1450    1.8170   -1.2460 C   0  0  0  0  0  0  0  0  0  0  0  0
    2.2060    1.9080   -2.2230 F   0  0  0  0  0  0  0  0  0  0  0  0
    2.9120    0.8980   -0.2340 C   0  0  0  0  0  0  0  0  0  0  0  0
   -2.2040    0.2990   -1.1700 C   0  0  0  0  0  0  0  0  0  0  0  0
   -2.0380    0.7010   -2.3490 O   0  0  0  0  0  0  0  0  0  0  0  0
  1  2  1  0
  2  3  1  0
  3  4  1  0
  4  5  1  0
  4 36  1  0
  5  6  2  0
  5  7  1  0
  7  8  1  0
  8  9  1  0
  8 15  1  0
  9 10  1  1
  9 11  1  0
  9 12  1  0
 12 13  1  0
 13 14  1  0
 14 15  1  0
 15 16  1  1
 15 36  1  0
 16 17  1  0
 17 18  1  6
 17 19  1  0
 19 20  1  0
 19 35  1  0
 20 21  1  0
 20 25  2  0
 21 22  2  0
 22 23  1  0
 22 24  1  0
 24 25  1  0
 25 26  1  0
 26 27  2  0
 26 35  1  0
 27 28  1  0
 28 29  1  0
 28 30  2  0
 30 31  1  0
 30 33  1  0
 31 32  1  0
 33 34  1  0
 33 35  2  0
 36 37  2  0
M  END
