
     RDKit          3D

 37 40  0  0  0  0  0  0  0  0999 V2000
    5.5850   -4.6960   -0.0070 C   0  0  0  0  0  0  0  0  0  0  0  0
    6.4530   -3.7060    0.7440 C   0  0  0  0  0  0  0  0  0  0  0  0
    5.8430   -2.3170    0.7420 C   0  0  0  0  0  0  0  0  0  0  0  0
    5.7340   -1.8760   -0.7080 C   0  0  2  0  0  0  0  0  0  0  0  0
    7.1650   -1.8800   -1.2450 C   0  0  0  0  0  0  0  0  0  0  0  0
    5.2650   -0.5040   -0.8020 N   0  0  0  0  0  0  0  0  0  0  0  0
    4.0870   -0.1060   -1.4920 C   0  0  0  0  0  0  0  0  0  0  0  0
    3.4280   -1.0110   -2.0490 O   0  0  0  0  0  0  0  0  0  0  0  0
    3.6330    1.2800   -1.5690 C   0  0  0  0  0  0  0  0  0  0  0  0
    4.4540    2.3590   -1.6310 C   0  0  0  0  0  0  0  0  0  0  0  0
    3.9070    3.6390   -1.6960 C   0  0  0  0  0  0  0  0  0  0  0  0
    4.8360    4.7960   -1.7660 C   0  0  0  0  0  0  0  0  0  0  0  0
    2.5540    3.8550   -1.7020 C   0  0  0  0  0  0  0  0  0  0  0  0
    1.9960    5.0700   -1.7600 F   0  0  0  0  0  0  0  0  0  0  0  0
    1.6930    2.7690   -1.6420 C   0  0  0  0  0  0  0  0  0  0  0  0
    2.2580    1.5120   -1.5760 C   0  0  0  0  0  0  0  0  0  0  0  0
    1.1880    0.5780   -1.5150 N   0  0  0  0  0  0  0  0  0  0  0  0
    0.0470    1.1270   -1.5370 C   0  0  0  0  0  0  0  0  0  0  0  0
   -1.3100    0.6170   -1.4940 N   0  0  0  0  0  0  0  0  0  0  0  0
   -2.2660    1.4080   -0.7470 C   0  0  0  0  0  0  0  0  0  0  0  0
   -3.4790    1.0510   -0.6620 N   0  0  0  0  0  0  0  0  0  0  0  0
   -4.5540    1.6520   -0.0080 C   0  0  0  0  0  0  0  0  0  0  0  0
   -4.8660    3.1270   -0.2710 C   0  0  0  0  0  0  0  0  0  0  0  0
   -5.3530    1.0550    0.8280 C   0  0  0  0  0  0  0  0  0  0  0  0
   -6.3620    1.8160    1.3840 F   0  0  0  0  0  0  0  0  0  0  0  0
   -5.2690   -0.3490    1.1660 C   0  0  0  0  0  0  0  0  0  0  0  0
   -6.1150   -0.8840    2.0600 C   0  0  0  0  0  0  0  0  0  0  0  0
   -7.1540   -0.0260    2.7070 C   0  0  0  0  0  0  0  0  0  0  0  0
   -6.0170   -2.2500    2.4290 N   0  0  0  0  0  0  0  0  0  0  0  0
   -6.8560   -2.6860    3.5520 C   0  0  0  0  0  0  0  0  0  0  0  0
   -5.1440   -3.1620    1.7520 C   0  0  0  0  0  0  0  0  0  0  0  0
   -4.8350   -2.6400    0.3830 C   0  0  0  0  0  0  0  0  0  0  0  0
   -4.2750   -1.2270    0.4790 C   0  0  0  0  0  0  0  0  0  0  0  0
   -1.7270    2.6110   -0.1350 C   0  0  0  0  0  0  0  0  0  0  0  0
   -2.3070    3.0740    0.9000 O   0  0  0  0  0  0  0  0  0  0  0  0
   -0.5380    3.3480   -0.6320 C   0  0  0  0  0  0  0  0  0  0  0  0
    0.2420    2.5930   -1.6450 C   0  0  1  0  0  0  0  0  0  0  0  0
  1  2  1  0
  2  3  1  0
  3  4  1  0
  4  5  1  1
  4  6  1  0
  6  7  1  0
  7  8  2  0
  7  9  1  0
  9 10  2  0
  9 16  1  0
 10 11  1  0
 11 12  1  0
 11 13  2  0
 13 14  1  0
 13 15  1  0
 15 16  2  0
 15 37  1  0
 16 17  1  0
 17 18  2  0
 18 19  1  0
 18 37  1  0
 19 20  1  0
 20 21  2  3
 20 34  1  0
 21 22  1  0
 22 23  1  0
 22 24  2  3
 24 25  1  0
 24 26  1  0
 26 27  2  0
 26 33  1  0
 27 28  1  0
 27 29  1  0
 29 30  1  0
 29 31  1  0
 31 32  1  0
 32 33  1  0
 34 35  2  0
 34 36  1  0
 37 36  1  1
M  END
