
     RDKit          3D

 37 41  0  0  0  0  0  0  0  0999 V2000
    1.9970    5.4940   -0.5780 C   0  0  0  0  0  0  0  0  0  0  0  0
    1.8960    4.8240    0.7810 C   0  0  0  0  0  0  0  0  0  0  0  0
    1.2850    3.5390    0.6720 O   0  0  0  0  0  0  0  0  0  0  0  0
    1.8570    2.5650   -0.1100 C   0  0  0  0  0  0  0  0  0  0  0  0
    2.9140    2.8120   -0.7270 O   0  0  0  0  0  0  0  0  0  0  0  0
    1.2740    1.2870   -0.2310 N   0  0  0  0  0  0  0  0  0  0  0  0
    1.8550    0.2580   -1.0620 C   0  0  0  0  0  0  0  0  0  0  0  0
    2.8670   -0.6000   -0.3150 C   0  0  0  0  0  0  0  0  0  0  0  0
    3.3650   -1.5780   -1.2330 N   0  0  0  0  0  0  0  0  0  0  0  0
    4.3800   -2.4430   -0.7200 C   0  0  2  0  0  0  0  0  0  0  0  0
    3.9270   -3.2920    0.4290 C   0  0  0  0  0  0  0  0  0  0  0  0
    5.6240   -1.7300   -0.3600 C   0  0  0  0  0  0  0  0  0  0  0  0
    6.2660   -2.0030    0.8240 C   0  0  0  0  0  0  0  0  0  0  0  0
    7.4240   -1.3660    1.2030 C   0  0  0  0  0  0  0  0  0  0  0  0
    7.9650   -0.4210    0.3720 C   0  0  0  0  0  0  0  0  0  0  0  0
    9.1230    0.2190    0.7470 F   0  0  0  0  0  0  0  0  0  0  0  0
    7.3440   -0.1310   -0.8120 C   0  0  0  0  0  0  0  0  0  0  0  0
    7.8880    0.8050   -1.6240 F   0  0  0  0  0  0  0  0  0  0  0  0
    6.1880   -0.7720   -1.1820 C   0  0  0  0  0  0  0  0  0  0  0  0
    0.0540    1.0460    0.5050 C   0  0  0  0  0  0  0  0  0  0  0  0
    0.0460    1.0760    1.8870 C   0  0  0  0  0  0  0  0  0  0  0  0
   -1.0770    0.8650    2.6560 C   0  0  0  0  0  0  0  0  0  0  0  0
   -2.2520    0.6080    1.9750 C   0  0  0  0  0  0  0  0  0  0  0  0
   -3.5680    0.3510    2.3530 C   0  0  0  0  0  0  0  0  0  0  0  0
   -4.3060    0.1730    1.1710 C   0  0  0  0  0  0  0  0  0  0  0  0
   -3.4540    0.3210    0.1360 N   0  0  0  0  0  0  0  0  0  0  0  0
   -2.2260    0.5810    0.5850 C   0  0  0  0  0  0  0  0  0  0  0  0
   -1.1010    0.7940   -0.1300 N   0  0  0  0  0  0  0  0  0  0  0  0
   -3.9950    0.1860   -1.1740 C   0  0  0  0  0  0  0  0  0  0  0  0
   -5.3120   -0.0710   -1.2500 C   0  0  0  0  0  0  0  0  0  0  0  0
   -5.5200   -1.0740   -2.2660 C   0  0  0  0  0  0  0  0  0  0  0  0
   -6.3780   -2.1230   -2.3390 C   0  0  0  0  0  0  0  0  0  0  0  0
   -7.1780   -2.7200   -1.2240 C   0  0  0  0  0  0  0  0  0  0  0  0
   -7.2390   -1.7860   -0.0780 N   0  0  0  0  0  0  0  0  0  0  0  0
   -6.0050   -1.5980    0.6100 C   0  0  0  0  0  0  0  0  0  0  0  0
   -5.7590   -0.1360    1.0330 C   0  0  2  0  0  0  0  0  0  0  0  0
   -6.1660    0.6480   -0.2690 C   0  0  0  0  0  0  0  0  0  0  0  0
  1  2  1  0
  2  3  1  0
  3  4  1  0
  4  5  2  0
  4  6  1  0
  6  7  1  0
  6 20  1  0
  7  8  1  0
  8  9  1  0
  9 10  1  0
 10 11  1  1
 10 12  1  0
 12 13  2  0
 12 19  1  0
 13 14  1  0
 14 15  2  0
 15 16  1  0
 15 17  1  0
 17 18  1  0
 17 19  2  0
 20 21  2  0
 20 28  1  0
 21 22  1  0
 22 23  2  0
 23 24  1  0
 23 27  1  0
 24 25  2  0
 25 26  1  0
 25 36  1  0
 26 27  1  0
 26 29  1  0
 27 28  2  0
 29 30  2  0
 30 31  1  0
 30 37  1  0
 31 32  2  0
 32 33  1  0
 33 34  1  0
 34 35  1  0
 36 35  1  6
 36 37  1  0
M  END
