
     RDKit          3D

 35 35  0  0  0  0  0  0  0  0999 V2000
    2.2620   -4.8680    1.2510 C   0  0  0  0  0  0  0  0  0  0  0  0
    1.8760   -3.9120    2.2080 O   0  0  0  0  0  0  0  0  0  0  0  0
    1.8820   -2.5700    1.8640 C   0  0  0  0  0  0  0  0  0  0  0  0
    3.0160   -1.8560    2.0710 C   0  0  0  0  0  0  0  0  0  0  0  0
    4.1650   -2.4570    2.6220 O   0  0  0  0  0  0  0  0  0  0  0  0
    3.0350   -0.5450    1.7390 C   0  0  0  0  0  0  0  0  0  0  0  0
    4.1640    0.2380    1.9260 O   0  0  0  0  0  0  0  0  0  0  0  0
    1.9310    0.1440    1.1800 C   0  0  0  0  0  0  0  0  0  0  0  0
    2.0750    1.5520    0.8670 C   0  0  0  0  0  0  0  0  0  0  0  0
    1.2490    2.3300    0.3810 O   0  0  0  0  0  0  0  0  0  0  0  0
    3.3210    2.1900    1.1330 O   0  0  0  0  0  0  0  0  0  0  0  0
    3.5460    3.5540    0.8600 C   0  0  1  0  0  0  0  0  0  0  0  0
    3.8420    4.3170    2.0900 C   0  0  0  0  0  0  0  0  0  0  0  0
    2.9620    4.5920    2.9340 O   0  0  0  0  0  0  0  0  0  0  0  0
    5.1450    4.7360    2.3030 O   0  0  0  0  0  0  0  0  0  0  0  0
    4.6020    3.7430   -0.1690 C   0  0  0  0  0  0  0  0  0  0  0  0
    4.7430    4.8240   -0.7950 O   0  0  0  0  0  0  0  0  0  0  0  0
    5.4530    2.7040   -0.4490 O   0  0  0  0  0  0  0  0  0  0  0  0
    0.7910   -0.5910    0.9770 C   0  0  0  0  0  0  0  0  0  0  0  0
   -0.4050    0.0060    0.4110 C   0  0  0  0  0  0  0  0  0  0  0  0
   -0.5740    1.1760    0.0510 O   0  0  0  0  0  0  0  0  0  0  0  0
   -1.5220   -0.7960    0.2340 O   0  0  0  0  0  0  0  0  0  0  0  0
   -2.7530   -0.4670   -0.2810 C   0  0  0  0  0  0  0  0  0  0  0  0
   -2.8510   -0.0140   -1.6860 C   0  0  2  0  0  0  0  0  0  0  0  0
   -2.1350    1.1410   -1.9650 O   0  0  0  0  0  0  0  0  0  0  0  0
   -4.3220    0.3680   -1.9200 C   0  0  1  0  0  0  0  0  0  0  0  0
   -4.4790    0.8720   -3.3610 C   0  0  0  0  0  0  0  0  0  0  0  0
   -5.2000   -0.6870   -1.6800 O   0  0  0  0  0  0  0  0  0  0  0  0
   -5.2330   -1.9030   -2.3130 C   0  0  0  0  0  0  0  0  0  0  0  0
   -4.4020   -2.1260   -3.2080 O   0  0  0  0  0  0  0  0  0  0  0  0
   -4.7160    1.5040   -1.0440 C   0  0  0  0  0  0  0  0  0  0  0  0
   -5.6810    1.4540   -0.2520 O   0  0  0  0  0  0  0  0  0  0  0  0
   -3.9880    2.7030   -1.0880 O   0  0  0  0  0  0  0  0  0  0  0  0
    0.7420   -1.9570    1.3120 C   0  0  0  0  0  0  0  0  0  0  0  0
   -0.3210   -2.7550    1.1520 O   0  0  0  0  0  0  0  0  0  0  0  0
  1  2  1  0
  2  3  1  0
  3  4  2  0
  3 34  1  0
  4  5  1  0
  4  6  1  0
  6  7  1  0
  6  8  2  0
  8  9  1  0
  8 19  1  0
  9 10  2  0
  9 11  1  0
 12 11  1  1
 12 13  1  0
 12 16  1  0
 13 14  2  0
 13 15  1  0
 16 17  2  0
 16 18  1  0
 19 20  1  0
 19 34  2  0
 20 21  2  0
 20 22  1  0
 22 23  1  0
 23 24  1  0
 24 25  1  1
 24 26  1  0
 26 27  1  6
 26 28  1  0
 26 31  1  0
 28 29  1  0
 29 30  2  0
 31 32  2  0
 31 33  1  0
 34 35  1  0
M  CHG  3  15  -1  18  -1  33  -1
M  END
