
     RDKit          3D

 36 38  0  0  0  0  0  0  0  0999 V2000
    0.0730    1.0730    2.6010 C   0  0  0  0  0  0  0  0  0  0  0  0
   -0.4220    1.2990    1.1610 C   0  0  2  0  0  0  0  0  0  0  0  0
   -1.3980    2.3860    1.1350 C   0  0  0  0  0  0  0  0  0  0  0  0
   -0.6950    0.0440    0.4530 C   0  0  0  0  0  0  0  0  0  0  0  0
   -1.7760   -0.2270   -0.2830 C   0  0  0  0  0  0  0  0  0  0  0  0
   -2.9200    0.5180   -0.8340 C   0  0  0  0  0  0  0  0  0  0  0  0
   -2.8110    1.6970   -1.1560 O   0  0  0  0  0  0  0  0  0  0  0  0
   -4.1850   -0.0980   -1.0220 N   0  0  0  0  0  0  0  0  0  0  0  0
   -5.3610    0.4490   -1.5720 C   0  0  0  0  0  0  0  0  0  0  0  0
   -6.1610    1.3940   -0.8230 C   0  0  0  0  0  0  0  0  0  0  0  0
   -5.7980    2.1220    0.2830 C   0  0  0  0  0  0  0  0  0  0  0  0
   -6.7200    3.0010    0.8220 C   0  0  0  0  0  0  0  0  0  0  0  0
   -7.9820    3.2030    0.3310 C   0  0  0  0  0  0  0  0  0  0  0  0
   -8.3560    2.4680   -0.7900 C   0  0  0  0  0  0  0  0  0  0  0  0
   -7.4620    1.5960   -1.3350 C   0  0  0  0  0  0  0  0  0  0  0  0
   -1.6050   -1.5170   -0.6980 N   0  0  0  0  0  0  0  0  0  0  0  0
   -0.4200   -2.0260   -0.2290 C   0  0  0  0  0  0  0  0  0  0  0  0
   -0.0440   -3.4180   -0.5600 C   0  0  0  0  0  0  0  0  0  0  0  0
   -0.9990   -4.1940   -1.2450 C   0  0  0  0  0  0  0  0  0  0  0  0
   -0.7500   -5.4650   -1.6310 C   0  0  0  0  0  0  0  0  0  0  0  0
    0.4620   -6.0500   -1.3600 C   0  0  0  0  0  0  0  0  0  0  0  0
    0.7680   -7.3380   -1.7210 F   0  0  0  0  0  0  0  0  0  0  0  0
    1.3990   -5.3000   -0.6930 C   0  0  0  0  0  0  0  0  0  0  0  0
    1.1440   -3.9870   -0.2950 C   0  0  0  0  0  0  0  0  0  0  0  0
    0.1320   -1.0490    0.4680 N   0  0  0  0  0  0  0  0  0  0  0  0
    1.5220   -1.0830    0.9480 C   0  0  0  0  0  0  0  0  0  0  0  0
    2.3140   -0.6550   -0.3010 C   0  0  0  0  0  0  0  0  0  0  0  0
    3.7500   -0.4970   -0.2760 C   0  0  1  0  0  0  0  0  0  0  0  0
    4.1570   -0.1420   -1.6380 O   0  0  0  0  0  0  0  0  0  0  0  0
    4.2740    0.6990    0.5410 C   0  0  0  0  0  0  0  0  0  0  0  0
    5.7950    0.7330    0.3970 C   0  0  1  0  0  0  0  0  0  0  0  0
    6.1460    0.8200   -0.9610 O   0  0  0  0  0  0  0  0  0  0  0  0
    6.2900    2.0700    0.9680 C   0  0  0  0  0  0  0  0  0  0  0  0
    7.7850    2.0910    0.7870 C   0  0  0  0  0  0  0  0  0  0  0  0
    8.6010    1.8020    1.6830 O   0  0  0  0  0  0  0  0  0  0  0  0
    8.2480    2.4560   -0.4730 O   0  0  0  0  0  0  0  0  0  0  0  0
  2  1  1  1
  2  3  1  0
  2  4  1  0
  4  5  2  0
  4 25  1  0
  5  6  1  0
  5 16  1  0
  6  7  2  0
  6  8  1  0
  8  9  1  0
  9 10  1  0
 10 11  2  0
 10 15  1  0
 11 12  1  0
 12 13  2  0
 13 14  1  0
 14 15  2  0
 16 17  2  0
 17 18  1  0
 17 25  1  0
 18 19  2  0
 18 24  1  0
 19 20  1  0
 20 21  2  0
 21 22  1  0
 21 23  1  0
 23 24  2  0
 25 26  1  0
 26 27  1  0
 27 28  1  0
 28 29  1  6
 28 30  1  0
 30 31  1  0
 31 32  1  6
 31 33  1  0
 33 34  1  0
 34 35  2  0
 34 36  1  0
M  END
