
     RDKit          3D

 37 39  0  0  0  0  0  0  0  0999 V2000
   -7.5890    0.7000   -0.0460 C   0  0  0  0  0  0  0  0  0  0  0  0
   -6.6740    1.5460   -0.8200 N   0  0  0  0  0  0  0  0  0  0  0  0
   -5.3440    0.9560   -0.7210 C   0  0  0  0  0  0  0  0  0  0  0  0
   -5.3580   -0.4630   -1.1710 C   0  0  1  0  0  0  0  0  0  0  0  0
   -5.8100   -0.6060   -2.6250 C   0  0  0  0  0  0  0  0  0  0  0  0
   -5.4080   -2.3690   -2.8840 S   0  0  0  0  0  0  0  0  0  0  0  0
   -6.6510   -3.2130   -2.9460 O   0  0  0  0  0  0  0  0  0  0  0  0
   -4.4830   -2.6450   -1.3320 C   0  0  0  0  0  0  0  0  0  0  0  0
   -4.0450   -1.1690   -1.1160 C   0  0  2  0  0  0  0  0  0  0  0  0
   -3.3800   -1.0290    0.1420 N   0  0  0  0  0  0  0  0  0  0  0  0
   -2.0150   -0.7630    0.2820 C   0  0  0  0  0  0  0  0  0  0  0  0
   -1.3610   -0.6420   -0.8100 O   0  0  0  0  0  0  0  0  0  0  0  0
   -1.2420   -0.6060    1.5210 C   0  0  1  0  0  0  0  0  0  0  0  0
   -1.4010   -1.7090    2.5240 C   0  0  0  0  0  0  0  0  0  0  0  0
   -3.0540   -1.9620    3.1390 S   0  0  0  0  0  0  0  0  0  0  0  0
   -3.6680   -0.5850    4.1210 C   0  0  0  0  0  0  0  0  0  0  0  0
    0.1670   -0.3450    1.2530 N   0  0  0  0  0  0  0  0  0  0  0  0
    0.8480    0.8350    1.6410 C   0  0  0  0  0  0  0  0  0  0  0  0
    0.1900    1.7180    2.2540 O   0  0  0  0  0  0  0  0  0  0  0  0
    2.2720    1.0090    1.3320 C   0  0  0  0  0  0  0  0  0  0  0  0
    2.8520    0.0870    0.7040 O   0  0  0  0  0  0  0  0  0  0  0  0
    3.0280    2.1450    1.7000 N   0  0  0  0  0  0  0  0  0  0  0  0
    4.4060    2.3220    1.4100 C   0  0  0  0  0  0  0  0  0  0  0  0
    5.0360    3.4370    1.8170 N   0  0  0  0  0  0  0  0  0  0  0  0
    6.3220    3.6530    1.5800 N   0  0  0  0  0  0  0  0  0  0  0  0
    7.0590    2.7550    0.9160 C   0  0  0  0  0  0  0  0  0  0  0  0
    8.2960    2.9750    0.6950 O   0  0  0  0  0  0  0  0  0  0  0  0
    6.4500    1.5980    0.4820 C   0  0  0  0  0  0  0  0  0  0  0  0
    7.2640    0.6270   -0.2180 C   0  0  0  0  0  0  0  0  0  0  0  0
    6.7960    0.0150   -1.2770 C   0  0  0  0  0  0  0  0  0  0  0  0
    5.4990    0.1180   -1.9690 C   0  0  0  0  0  0  0  0  0  0  0  0
    5.3640   -1.1850   -2.5230 O   0  0  0  0  0  0  0  0  0  0  0  0
    6.6050   -1.7090   -2.8000 C   0  0  0  0  0  0  0  0  0  0  0  0
    6.8850   -2.6510   -3.5780 O   0  0  0  0  0  0  0  0  0  0  0  0
    7.5380   -0.9650   -2.0220 N   0  0  0  0  0  0  0  0  0  0  0  0
    8.9730   -1.1840   -2.0040 C   0  0  0  0  0  0  0  0  0  0  0  0
    5.1330    1.4190    0.7460 N   0  0  0  0  0  0  0  0  0  0  0  0
  1  2  1  0
  2  3  1  0
  4  3  1  6
  4  5  1  0
  4  9  1  0
  6  5  1  1
  6  7  2  0
  6  8  1  0
  8  9  1  0
  9 10  1  1
 10 11  1  0
 11 12  2  0
 11 13  1  0
 13 14  1  1
 13 17  1  0
 14 15  1  0
 15 16  1  0
 17 18  1  0
 18 19  2  0
 18 20  1  0
 20 21  2  0
 20 22  1  0
 22 23  1  0
 23 24  2  0
 23 37  1  0
 24 25  1  0
 25 26  1  0
 26 27  2  0
 26 28  1  0
 28 29  1  0
 28 37  2  0
 29 30  2  3
 30 31  1  0
 30 35  1  0
 31 32  1  0
 32 33  1  0
 33 34  2  0
 33 35  1  0
 35 36  1  0
M  CHG  1   2   1
M  END
