
     RDKit          3D

 38 41  0  0  0  0  0  0  0  0999 V2000
   -7.3050    1.6840    0.9830 C   0  0  0  0  0  0  0  0  0  0  0  0
   -6.3600    0.7980    0.7560 C   0  0  0  0  0  0  0  0  0  0  0  0
   -5.0620    0.8400    1.2260 C   0  0  0  0  0  0  0  0  0  0  0  0
   -4.3620   -0.2520    0.7870 C   0  0  0  0  0  0  0  0  0  0  0  0
   -2.9560   -0.6310    1.0460 C   0  0  1  0  0  0  0  0  0  0  0  0
   -2.9200   -1.8240    1.9360 C   0  0  0  0  0  0  0  0  0  0  0  0
   -3.5730   -1.5260    3.2210 C   0  0  0  0  0  0  0  0  0  0  0  0
   -3.6850   -2.4430    4.0970 O   0  0  0  0  0  0  0  0  0  0  0  0
   -4.0960   -0.3000    3.5820 O   0  0  0  0  0  0  0  0  0  0  0  0
   -4.7140   -0.0850    4.8450 C   0  0  0  0  0  0  0  0  0  0  0  0
   -2.2550   -0.8610   -0.1740 O   0  0  0  0  0  0  0  0  0  0  0  0
   -1.1740   -0.1480   -0.5970 C   0  0  0  0  0  0  0  0  0  0  0  0
   -0.7730    0.7830    0.1580 O   0  0  0  0  0  0  0  0  0  0  0  0
   -0.4320   -0.3640   -1.8500 C   0  0  1  0  0  0  0  0  0  0  0  0
   -1.4120   -0.1730   -3.0150 C   0  0  0  0  0  0  0  0  0  0  0  0
   -1.4230    1.3040   -3.2320 C   0  0  0  0  0  0  0  0  0  0  0  0
   -0.2790    1.8930   -2.4680 C   0  0  2  0  0  0  0  0  0  0  0  0
    0.5030    2.8770   -3.3140 C   0  0  0  0  0  0  0  0  0  0  0  0
    0.5820    0.6910   -2.1460 C   0  0  2  0  0  0  0  0  0  0  0  0
    1.2750    0.3060   -3.4470 C   0  0  0  0  0  0  0  0  0  0  0  0
    1.4950    0.9310   -1.1270 O   0  0  0  0  0  0  0  0  0  0  0  0
    2.3210   -0.0670   -0.6690 C   0  0  0  0  0  0  0  0  0  0  0  0
    2.2020   -1.1990   -1.2220 O   0  0  0  0  0  0  0  0  0  0  0  0
    3.3210    0.1510    0.4310 C   0  0  0  0  0  0  0  0  0  0  0  0
    4.6370    0.4730   -0.2170 C   0  0  2  0  0  0  0  0  0  0  0  0
    5.1560   -0.6270   -1.1290 C   0  0  0  0  0  0  0  0  0  0  0  0
    5.6310   -1.6050   -0.0870 C   0  0  0  0  0  0  0  0  0  0  0  0
    6.3440   -0.6640    0.8720 C   0  0  0  0  0  0  0  0  0  0  0  0
    5.7630    0.4820    0.7730 C   0  0  0  0  0  0  0  0  0  0  0  0
    6.5670    1.6200    1.8940 S   0  0  0  0  0  0  0  0  0  0  0  0
    7.7740    0.4490    2.4980 C   0  0  0  0  0  0  0  0  0  0  0  0
    8.7100    0.6640    3.3650 N   0  0  0  0  0  0  0  0  0  0  0  0
    7.4550   -0.7770    1.7920 C   0  0  0  0  0  0  0  0  0  0  0  0
    8.1890   -1.8830    2.0370 C   0  0  0  0  0  0  0  0  0  0  0  0
    7.9010   -3.0320    1.3860 F   0  0  0  0  0  0  0  0  0  0  0  0
   -5.2610   -0.9600    0.0390 N   0  0  0  0  0  0  0  0  0  0  0  0
   -6.4410   -0.3570    0.0100 C   0  0  0  0  0  0  0  0  0  0  0  0
   -7.5400   -0.7860   -0.6330 C   0  0  0  0  0  0  0  0  0  0  0  0
  1  2  2  0
  2  3  1  0
  2 37  1  0
  3  4  2  0
  4  5  1  0
  4 36  1  0
  5  6  1  1
  5 11  1  0
  6  7  1  0
  7  8  2  0
  7  9  1  0
  9 10  1  0
 11 12  1  0
 12 13  2  0
 14 12  1  1
 14 15  1  0
 14 19  1  0
 15 16  1  0
 16 17  1  0
 17 18  1  6
 17 19  1  0
 19 20  1  6
 19 21  1  0
 21 22  1  0
 22 23  2  0
 22 24  1  0
 25 24  1  1
 25 26  1  0
 25 29  1  0
 26 27  1  0
 27 28  1  0
 28 29  2  0
 28 33  1  0
 29 30  1  0
 30 31  1  0
 31 32  2  0
 31 33  1  0
 33 34  2  3
 34 35  1  0
 36 37  1  0
 37 38  2  0
M  END
