
     RDKit          3D

 38 40  0  0  0  0  0  0  0  0999 V2000
    5.6310   -2.4500   -0.9880 C   0  0  0  0  0  0  0  0  0  0  0  0
    4.6950   -1.4270   -1.0010 O   0  0  0  0  0  0  0  0  0  0  0  0
    3.3430   -1.7180   -0.7220 C   0  0  0  0  0  0  0  0  0  0  0  0
    3.1620   -2.9290   -0.4870 O   0  0  0  0  0  0  0  0  0  0  0  0
    2.3230   -0.6930   -0.7200 C   0  0  0  0  0  0  0  0  0  0  0  0
    2.6890    0.5670   -1.0440 C   0  0  0  0  0  0  0  0  0  0  0  0
    3.9270    1.1070   -1.4020 C   0  0  0  0  0  0  0  0  0  0  0  0
    4.0950    2.4100   -1.6930 C   0  0  0  0  0  0  0  0  0  0  0  0
    3.0120    3.3510   -1.6580 C   0  0  0  0  0  0  0  0  0  0  0  0
    3.2750    4.6200   -1.9600 C   0  0  0  0  0  0  0  0  0  0  0  0
    4.5840    5.1560   -2.3310 C   0  0  0  0  0  0  0  0  0  0  0  0
    5.6030    4.2060   -2.3510 O   0  0  0  0  0  0  0  0  0  0  0  0
    5.4400    2.8680   -2.0550 C   0  0  0  0  0  0  0  0  0  0  0  0
    6.3890    2.0470   -2.0860 O   0  0  0  0  0  0  0  0  0  0  0  0
    0.9110   -0.9310   -0.4690 C   0  0  0  0  0  0  0  0  0  0  0  0
    0.2800    0.2370   -0.7590 O   0  0  0  0  0  0  0  0  0  0  0  0
    0.0930   -1.9310   -0.0530 N   0  0  0  0  0  0  0  0  0  0  0  0
    0.5450   -3.1810    0.4770 C   0  0  0  0  0  0  0  0  0  0  0  0
    0.1960   -4.1400   -0.6560 C   0  0  0  0  0  0  0  0  0  0  0  0
   -0.2540   -3.8540   -1.8770 C   0  0  0  0  0  0  0  0  0  0  0  0
   -0.5270   -2.5440   -2.4490 C   0  0  0  0  0  0  0  0  0  0  0  0
   -1.5340   -1.6430   -1.7690 C   0  0  0  0  0  0  0  0  0  0  0  0
   -1.3840   -1.7710   -0.2980 C   0  0  2  0  0  0  0  0  0  0  0  0
   -2.1620   -1.0980    0.6930 C   0  0  2  0  0  0  0  0  0  0  0  0
   -3.6110   -1.0360    0.3060 N   0  0  0  0  0  0  0  0  0  0  0  0
   -4.6230   -1.7640    0.9270 C   0  0  0  0  0  0  0  0  0  0  0  0
   -4.3290   -2.5280    1.8740 O   0  0  0  0  0  0  0  0  0  0  0  0
   -6.0050   -1.6730    0.5190 C   0  0  0  0  0  0  0  0  0  0  0  0
   -6.4480   -0.5990   -0.8220 S   0  0  0  0  0  0  0  0  0  0  0  0
   -6.9230   -2.3750    1.1310 C   0  0  0  0  0  0  0  0  0  0  0  0
   -6.5860   -3.2040    2.1640 F   0  0  0  0  0  0  0  0  0  0  0  0
   -1.8570    0.0840    1.5040 C   0  0  1  0  0  0  0  0  0  0  0  0
   -0.6550    0.0010    2.4180 C   0  0  0  0  0  0  0  0  0  0  0  0
   -0.9290    0.7670    3.7100 C   0  0  0  0  0  0  0  0  0  0  0  0
   -1.3450    2.1640    3.2800 C   0  0  0  0  0  0  0  0  0  0  0  0
   -1.1050    2.3980    1.8070 C   0  0  2  0  0  0  0  0  0  0  0  0
   -1.5240    3.8430    1.5340 C   0  0  0  0  0  0  0  0  0  0  0  0
   -2.0350    1.4620    1.0150 C   0  0  0  0  0  0  0  0  0  0  0  0
  1  2  1  0
  2  3  1  0
  3  4  2  0
  3  5  1  0
  5  6  2  3
  5 15  1  0
  6  7  1  0
  7  8  2  3
  8  9  1  0
  8 13  1  0
  9 10  2  0
 10 11  1  0
 11 12  1  0
 12 13  1  0
 13 14  2  0
 15 16  2  0
 15 17  1  0
 17 18  1  0
 17 23  1  0
 18 19  1  0
 19 20  2  0
 20 21  1  0
 21 22  1  0
 23 22  1  6
 23 24  1  0
 24 25  1  6
 24 32  1  0
 25 26  1  0
 26 27  2  0
 26 28  1  0
 28 29  1  0
 28 30  2  3
 30 31  1  0
 32 33  1  6
 32 38  1  0
 33 34  1  0
 34 35  1  0
 35 36  1  0
 36 37  1  6
 36 38  1  0
M  END
