
     RDKit          3D

 38 41  0  0  0  0  0  0  0  0999 V2000
   -6.1710    2.0820    1.2600 C   0  0  0  0  0  0  0  0  0  0  0  0
   -5.5540    1.4990    0.0430 C   0  0  0  0  0  0  0  0  0  0  0  0
   -5.9060    0.1250   -0.3610 C   0  0  2  0  0  0  0  0  0  0  0  0
   -5.1630   -0.2630   -1.6940 C   0  0  1  0  0  0  0  0  0  0  0  0
   -5.5590    0.6070   -2.6930 O   0  0  0  0  0  0  0  0  0  0  0  0
   -3.7000   -0.2340   -1.5190 C   0  0  0  0  0  0  0  0  0  0  0  0
   -3.0190    0.9470   -1.7260 C   0  0  0  0  0  0  0  0  0  0  0  0
   -1.6410    1.0040   -1.5470 C   0  0  0  0  0  0  0  0  0  0  0  0
   -0.9190   -0.1080   -1.1620 C   0  0  0  0  0  0  0  0  0  0  0  0
    0.4900    0.0780   -1.0040 N   0  0  0  0  0  0  0  0  0  0  0  0
    0.9120    0.8880    0.1510 C   0  0  0  0  0  0  0  0  0  0  0  0
    1.5930   -0.0500    1.4880 S   0  0  0  0  0  0  0  0  0  0  0  0
    3.3560   -0.2880    1.5290 C   0  0  0  0  0  0  0  0  0  0  0  0
    4.1510    0.7220    0.8510 C   0  0  0  0  0  0  0  0  0  0  0  0
    3.5120    1.7770    0.4880 O   0  0  0  0  0  0  0  0  0  0  0  0
    5.5550    0.6830    0.5440 N   0  0  0  0  0  0  0  0  0  0  0  0
    6.1670    2.0210    0.6130 C   0  0  0  0  0  0  0  0  0  0  0  0
    6.6040    2.4580    1.9550 C   0  0  0  0  0  0  0  0  0  0  0  0
    5.5190    2.4810    2.8680 O   0  0  0  0  0  0  0  0  0  0  0  0
    6.3200   -0.4230    0.1410 C   0  0  0  0  0  0  0  0  0  0  0  0
    7.6450   -0.4560    0.6260 C   0  0  0  0  0  0  0  0  0  0  0  0
    8.5280   -1.4570    0.3160 C   0  0  0  0  0  0  0  0  0  0  0  0
    8.1320   -2.4730   -0.4900 C   0  0  0  0  0  0  0  0  0  0  0  0
    6.8390   -2.4460   -0.9670 C   0  0  0  0  0  0  0  0  0  0  0  0
    5.9070   -1.4570   -0.6850 C   0  0  0  0  0  0  0  0  0  0  0  0
    4.5540   -1.5690   -1.2900 C   0  0  0  0  0  0  0  0  0  0  0  0
    4.2190   -2.8180   -1.4210 O   0  0  0  0  0  0  0  0  0  0  0  0
    3.8710   -0.4890   -1.6140 O   0  0  0  0  0  0  0  0  0  0  0  0
    2.7870    0.0530   -2.1920 C   0  0  0  0  0  0  0  0  0  0  0  0
    1.4450   -0.4580   -1.8740 C   0  0  0  0  0  0  0  0  0  0  0  0
    1.0990   -1.5390   -2.4730 O   0  0  0  0  0  0  0  0  0  0  0  0
   -1.5770   -1.2790   -0.9550 C   0  0  0  0  0  0  0  0  0  0  0  0
   -2.9620   -1.3390   -1.1340 C   0  0  0  0  0  0  0  0  0  0  0  0
   -7.3330   -0.2840   -0.4360 C   0  0  0  0  0  0  0  0  0  0  0  0
   -6.2770   -1.0180    0.4260 C   0  0  2  0  0  0  0  0  0  0  0  0
   -6.7220   -1.2820    1.7980 C   0  0  2  0  0  0  0  0  0  0  0  0
   -8.0340   -0.6540    2.1540 C   0  0  0  0  0  0  0  0  0  0  0  0
   -5.7690   -1.0060    2.7690 F   0  0  0  0  0  0  0  0  0  0  0  0
  1  2  1  0
  3  2  1  1
  3  4  1  0
  3 34  1  0
  3 35  1  0
  4  5  1  6
  4  6  1  0
  6  7  2  0
  6 33  1  0
  7  8  1  0
  8  9  2  0
  9 10  1  0
  9 32  1  0
 10 11  1  0
 10 30  1  0
 11 12  1  0
 12 13  1  0
 13 14  1  0
 14 15  2  0
 14 16  1  0
 16 17  1  0
 16 20  1  0
 17 18  1  0
 18 19  1  0
 20 21  2  0
 20 25  1  0
 21 22  1  0
 22 23  2  0
 23 24  1  0
 24 25  2  0
 25 26  1  0
 26 27  2  0
 26 28  1  0
 28 29  1  0
 29 30  1  0
 30 31  2  0
 32 33  2  0
 35 34  1  6
 35 36  1  0
 36 37  1  1
 36 38  1  0
M  END
