
     RDKit          3D

 38 41  0  0  0  0  0  0  0  0999 V2000
    2.5140    6.3430   -0.3090 C   0  0  0  0  0  0  0  0  0  0  0  0
    2.0170    4.9230   -0.2230 C   0  0  0  0  0  0  0  0  0  0  0  0
    3.1130    3.9560   -0.5270 C   0  0  0  0  0  0  0  0  0  0  0  0
    4.2650    4.3430   -0.8090 O   0  0  0  0  0  0  0  0  0  0  0  0
    2.8470    2.5360   -0.4980 N   0  0  0  0  0  0  0  0  0  0  0  0
    3.8170    1.5820   -0.7700 C   0  0  0  0  0  0  0  0  0  0  0  0
    4.9770    2.1300   -1.0400 O   0  0  0  0  0  0  0  0  0  0  0  0
    3.8530    0.1700   -0.8250 C   0  0  0  0  0  0  0  0  0  0  0  0
    2.9390   -0.7450   -0.6430 C   0  0  0  0  0  0  0  0  0  0  0  0
    1.5980   -0.3760   -0.3210 C   0  0  0  0  0  0  0  0  0  0  0  0
    0.7050   -1.3450   -0.1550 C   0  0  0  0  0  0  0  0  0  0  0  0
    0.9620   -3.1330   -0.2830 S   0  0  0  0  0  0  0  0  0  0  0  0
   -0.7890   -3.6190    0.0090 C   0  0  0  0  0  0  0  0  0  0  0  0
   -1.4820   -2.3310   -0.4120 C   0  0  1  0  0  0  0  0  0  0  0  0
   -2.8620   -2.3650    0.1480 C   0  0  0  0  0  0  0  0  0  0  0  0
   -3.6480   -1.1420   -0.2080 C   0  0  0  0  0  0  0  0  0  0  0  0
   -3.1190   -0.2610   -0.9230 O   0  0  0  0  0  0  0  0  0  0  0  0
   -4.9700   -0.9480    0.2340 N   0  0  0  0  0  0  0  0  0  0  0  0
   -5.8170    0.1490   -0.0300 C   0  0  0  0  0  0  0  0  0  0  0  0
   -7.0570    0.2240    0.6190 C   0  0  0  0  0  0  0  0  0  0  0  0
   -7.9520    1.2390    0.4300 C   0  0  0  0  0  0  0  0  0  0  0  0
   -9.2600    1.2920    1.1330 C   0  0  0  0  0  0  0  0  0  0  0  0
   -7.6750    2.2730   -0.4360 C   0  0  0  0  0  0  0  0  0  0  0  0
   -8.6310    3.3850   -0.6570 C   0  0  0  0  0  0  0  0  0  0  0  0
   -6.4650    2.2260   -1.0870 C   0  0  0  0  0  0  0  0  0  0  0  0
   -6.1620    3.2370   -1.9510 F   0  0  0  0  0  0  0  0  0  0  0  0
   -5.5510    1.1810   -0.8880 C   0  0  0  0  0  0  0  0  0  0  0  0
   -0.7040   -1.2250    0.1640 C   0  0  0  0  0  0  0  0  0  0  0  0
   -1.1890   -0.2890    0.8480 O   0  0  0  0  0  0  0  0  0  0  0  0
    3.3070   -2.1020   -0.7680 O   0  0  0  0  0  0  0  0  0  0  0  0
    4.5040   -2.6140   -0.1720 C   0  0  2  0  0  0  0  0  0  0  0  0
    4.2690   -3.0580    1.2480 C   0  0  0  0  0  0  0  0  0  0  0  0
    5.4490   -3.8140    1.7730 C   0  0  0  0  0  0  0  0  0  0  0  0
    6.6580   -3.1320    1.5840 O   0  0  0  0  0  0  0  0  0  0  0  0
    7.1010   -3.3500    0.2810 C   0  0  0  0  0  0  0  0  0  0  0  0
    6.8670   -2.1140   -0.5500 C   0  0  0  0  0  0  0  0  0  0  0  0
    5.5510   -1.5090   -0.1410 C   0  0  1  0  0  0  0  0  0  0  0  0
    5.2150   -0.4660   -1.1850 C   0  0  0  0  0  0  0  0  0  0  0  0
  1  2  1  0
  2  3  1  0
  3  4  2  0
  3  5  1  0
  5  6  1  0
  6  7  2  0
  6  8  1  0
  8  9  2  0
  8 38  1  0
  9 10  1  0
  9 30  1  0
 10 11  2  3
 11 12  1  0
 11 28  1  0
 12 13  1  0
 13 14  1  0
 14 15  1  1
 14 28  1  0
 15 16  1  0
 16 17  2  0
 16 18  1  0
 18 19  1  0
 19 20  2  0
 19 27  1  0
 20 21  1  0
 21 22  1  0
 21 23  2  0
 23 24  1  0
 23 25  1  0
 25 26  1  0
 25 27  2  0
 28 29  2  0
 30 31  1  0
 31 32  1  1
 31 37  1  0
 32 33  1  0
 33 34  1  0
 34 35  1  0
 35 36  1  0
 37 36  1  6
 37 38  1  0
M  END
