
     RDKit          3D

 38 40  0  0  0  0  0  0  0  0999 V2000
   -9.4510    1.5090    0.2020 C   0  0  0  0  0  0  0  0  0  0  0  0
   -8.3740    0.4380    0.2320 C   0  0  0  0  0  0  0  0  0  0  0  0
   -7.1910    0.8080    0.1040 O   0  0  0  0  0  0  0  0  0  0  0  0
   -8.6930   -0.9060    0.3950 N   0  0  0  0  0  0  0  0  0  0  0  0
   -7.8250   -2.0350    0.4490 C   0  0  0  0  0  0  0  0  0  0  0  0
   -6.8110   -2.0910    1.5220 C   0  0  0  0  0  0  0  0  0  0  0  0
   -5.7700   -1.1040    1.4740 N   0  0  0  0  0  0  0  0  0  0  0  0
   -4.8200   -1.0780    0.3660 C   0  0  0  0  0  0  0  0  0  0  0  0
   -4.9900   -1.9480   -0.4800 O   0  0  0  0  0  0  0  0  0  0  0  0
   -3.7980   -0.1240    0.2950 N   0  0  0  0  0  0  0  0  0  0  0  0
   -2.7900    0.1290   -0.6100 C   0  0  0  0  0  0  0  0  0  0  0  0
   -2.4660   -0.4590   -1.7100 C   0  0  0  0  0  0  0  0  0  0  0  0
   -3.2300   -1.5910   -2.1860 N   0  0  0  0  0  0  0  0  0  0  0  0
   -1.3260   -0.1630   -2.5110 N   0  0  0  0  0  0  0  0  0  0  0  0
   -0.4690    0.6870   -2.2790 C   0  0  0  0  0  0  0  0  0  0  0  0
    1.0000    1.1190   -3.2610 S   0  0  0  0  0  0  0  0  0  0  0  0
    1.9050    1.8130   -1.8520 C   0  0  2  0  0  0  0  0  0  0  0  0
    2.8190    0.7270   -1.3540 C   0  0  0  0  0  0  0  0  0  0  0  0
    2.7370    0.2880   -0.1960 O   0  0  0  0  0  0  0  0  0  0  0  0
    3.7770    0.2220   -2.2540 N   0  0  0  0  0  0  0  0  0  0  0  0
    4.7470   -0.7830   -1.9820 C   0  0  0  0  0  0  0  0  0  0  0  0
    5.7990   -0.4070   -1.0180 C   0  0  2  0  0  0  0  0  0  0  0  0
    6.7070   -1.6360   -0.9040 C   0  0  0  0  0  0  0  0  0  0  0  0
    7.7980   -1.7410   -1.4340 O   0  0  0  0  0  0  0  0  0  0  0  0
    5.9680   -2.5190   -0.0810 N   0  0  0  0  0  0  0  0  0  0  0  0
    5.1200   -1.6750    0.7320 C   0  0  0  0  0  0  0  0  0  0  0  0
    4.2930   -2.0140    1.6050 O   0  0  0  0  0  0  0  0  0  0  0  0
    5.4070   -0.3100    0.3430 N   0  0  0  0  0  0  0  0  0  0  0  0
    5.3510    0.8440    1.2170 C   0  0  0  0  0  0  0  0  0  0  0  0
    6.6640    1.0900    1.8760 C   0  0  0  0  0  0  0  0  0  0  0  0
    6.7650    2.0630    2.6610 O   0  0  0  0  0  0  0  0  0  0  0  0
    7.7560    0.2960    1.6540 O   0  0  0  0  0  0  0  0  0  0  0  0
    9.0190    0.5220    2.2800 C   0  0  0  0  0  0  0  0  0  0  0  0
    9.4420    1.7910    1.8970 F   0  0  0  0  0  0  0  0  0  0  0  0
    0.8070    2.0860   -0.9100 C   0  0  0  0  0  0  0  0  0  0  0  0
    1.0950    3.0110    0.2720 C   0  0  0  0  0  0  0  0  0  0  0  0
   -0.3400    1.5370   -1.1230 C   0  0  0  0  0  0  0  0  0  0  0  0
   -1.8470    1.6560   -0.1530 S   0  0  0  0  0  0  0  0  0  0  0  0
  1  2  1  0
  2  3  2  0
  2  4  1  0
  4  5  1  0
  5  6  1  0
  6  7  1  0
  7  8  1  0
  8  9  2  0
  8 10  1  0
 10 11  1  0
 11 12  2  0
 11 38  1  0
 12 13  1  0
 12 14  1  0
 14 15  2  0
 15 16  1  0
 15 37  1  0
 16 17  1  0
 17 18  1  1
 17 35  1  0
 18 19  2  0
 18 20  1  0
 20 21  1  0
 22 21  1  6
 22 23  1  0
 22 28  1  0
 23 24  2  0
 23 25  1  0
 25 26  1  0
 26 27  2  0
 26 28  1  0
 28 29  1  0
 29 30  1  0
 30 31  2  0
 30 32  1  0
 32 33  1  0
 33 34  1  0
 35 36  1  0
 35 37  2  0
 37 38  1  0
M  END
