
     RDKit          3D

 37 41  0  0  0  0  0  0  0  0999 V2000
    2.0250   -2.5230    1.0250 C   0  0  0  0  0  0  0  0  0  0  0  0
    2.5730   -1.2200    0.5960 C   0  0  0  0  0  0  0  0  0  0  0  0
    3.9080   -0.9300    0.6700 N   0  0  0  0  0  0  0  0  0  0  0  0
    4.1320    0.2720    0.1420 C   0  0  0  0  0  0  0  0  0  0  0  0
    5.4730    0.9050    0.0560 C   0  0  0  0  0  0  0  0  0  0  0  0
    5.8400    2.0620   -0.5670 C   0  0  0  0  0  0  0  0  0  0  0  0
    7.1870    2.2180   -0.3150 C   0  0  0  0  0  0  0  0  0  0  0  0
    7.6490    1.2090    0.4330 N   0  0  0  0  0  0  0  0  0  0  0  0
    8.9870    0.9280    0.9340 C   0  0  0  0  0  0  0  0  0  0  0  0
    9.6780    0.0540   -0.0200 N   0  0  2  0  0  0  0  0  0  0  0  0
    9.4040    0.4230   -1.3780 C   0  0  0  0  0  0  0  0  0  0  0  0
    9.1430   -1.3010    0.1610 C   0  0  0  0  0  0  0  0  0  0  0  0
    6.5930    0.3960    0.6630 C   0  0  0  0  0  0  0  0  0  0  0  0
    3.0110    0.7260   -0.2460 O   0  0  0  0  0  0  0  0  0  0  0  0
    1.9890   -0.1400    0.0040 C   0  0  0  0  0  0  0  0  0  0  0  0
    0.6630    0.2370   -0.3510 C   0  0  0  0  0  0  0  0  0  0  0  0
    0.6140    1.3050   -1.1990 O   0  0  0  0  0  0  0  0  0  0  0  0
   -0.6250   -0.1690   -0.0780 N   0  0  0  0  0  0  0  0  0  0  0  0
   -1.0300   -1.1860    0.8260 C   0  0  0  0  0  0  0  0  0  0  0  0
   -2.0910   -0.6930    1.8580 C   0  0  0  0  0  0  0  0  0  0  0  0
   -2.9310    0.4200    1.2760 C   0  0  0  0  0  0  0  0  0  0  0  0
   -3.0510    0.1340   -0.1790 C   0  0  1  0  0  0  0  0  0  0  0  0
   -4.1770    0.6940   -0.8510 N   0  0  0  0  0  0  0  0  0  0  0  0
   -4.7900   -0.1870   -1.7950 C   0  0  0  0  0  0  0  0  0  0  0  0
   -6.0980   -0.7310   -1.3090 C   0  0  0  0  0  0  0  0  0  0  0  0
   -6.4300   -1.9700   -1.5440 C   0  0  0  0  0  0  0  0  0  0  0  0
   -7.6890   -2.5670   -1.0940 C   0  0  1  0  0  0  0  0  0  0  0  0
   -8.6990   -2.5710   -2.0340 F   0  0  0  0  0  0  0  0  0  0  0  0
   -7.3580   -3.9190   -0.7850 F   0  0  0  0  0  0  0  0  0  0  0  0
   -8.0720   -2.0520    0.1300 F   0  0  0  0  0  0  0  0  0  0  0  0
   -6.9660    0.2150   -0.5900 C   0  0  0  0  0  0  0  0  0  0  0  0
   -8.2410    0.4590   -0.6750 C   0  0  0  0  0  0  0  0  0  0  0  0
   -8.6460    1.5200    0.2760 C   0  0  0  0  0  0  0  0  0  0  0  0
   -7.3030    2.1740    0.6300 C   0  0  0  0  0  0  0  0  0  0  0  0
   -6.2890    1.0690    0.4180 C   0  0  2  0  0  0  0  0  0  0  0  0
   -5.0110    1.5710   -0.1390 C   0  0  0  0  0  0  0  0  0  0  0  0
   -1.7500    0.4770   -0.8270 C   0  0  0  0  0  0  0  0  0  0  0  0
  1  2  1  0
  2  3  1  0
  2 15  2  0
  3  4  2  0
  4  5  1  0
  4 14  1  0
  5  6  1  0
  5 13  2  0
  6  7  2  0
  7  8  1  0
  8  9  1  0
  8 13  1  0
  9 10  1  0
 10 11  1  6
 10 12  1  0
 14 15  1  0
 15 16  1  0
 16 17  2  0
 16 18  1  0
 18 19  1  0
 18 37  1  0
 19 20  1  0
 20 21  1  0
 21 22  1  0
 22 23  1  6
 22 37  1  0
 23 24  1  0
 23 36  1  0
 24 25  1  0
 25 26  2  3
 25 31  1  0
 26 27  1  0
 27 28  1  6
 27 29  1  0
 27 30  1  0
 31 32  2  0
 31 35  1  0
 32 33  1  0
 33 34  1  0
 35 34  1  6
 35 36  1  0
M  CHG  1  10   1
M  END
