
     RDKit          3D

 35 37  0  0  0  0  0  0  0  0999 V2000
    4.3790   -2.3500    1.4830 C   0  0  0  0  0  0  0  0  0  0  0  0
    5.0060   -1.5340    0.5340 O   0  0  0  0  0  0  0  0  0  0  0  0
    6.0010   -0.6320    0.8630 C   0  0  0  0  0  0  0  0  0  0  0  0
    6.3740   -0.5500    2.1760 C   0  0  0  0  0  0  0  0  0  0  0  0
    7.3630    0.3390    2.5310 C   0  0  0  0  0  0  0  0  0  0  0  0
    7.9530    1.1220    1.5700 C   0  0  0  0  0  0  0  0  0  0  0  0
    7.5900    1.0520    0.2420 C   0  0  0  0  0  0  0  0  0  0  0  0
    8.2650    1.9050   -0.7230 C   0  0  0  0  0  0  0  0  0  0  0  0
    6.6060    0.1700   -0.1180 C   0  0  0  0  0  0  0  0  0  0  0  0
    6.1880    0.0630   -1.5170 C   0  0  0  0  0  0  0  0  0  0  0  0
    4.8690    0.7210   -1.8010 C   0  0  0  0  0  0  0  0  0  0  0  0
    4.7520    2.0900   -1.9760 C   0  0  0  0  0  0  0  0  0  0  0  0
    3.5390    2.7000   -2.2490 C   0  0  0  0  0  0  0  0  0  0  0  0
    2.3890    1.9330   -2.3550 C   0  0  0  0  0  0  0  0  0  0  0  0
    2.4630    0.5670   -2.1890 C   0  0  0  0  0  0  0  0  0  0  0  0
    1.2590   -0.2730   -2.2940 C   0  0  0  0  0  0  0  0  0  0  0  0
    0.0710    0.3970   -1.8110 N   0  0  0  0  0  0  0  0  0  0  0  0
   -1.1940   -0.2760   -1.8440 C   0  0  0  0  0  0  0  0  0  0  0  0
   -1.4300   -1.2600   -2.6320 N   0  0  0  0  0  0  0  0  0  0  0  0
   -2.2690    0.1260   -0.9940 N   0  0  0  0  0  0  0  0  0  0  0  0
   -3.0590   -0.7480   -0.2250 C   0  0  0  0  0  0  0  0  0  0  0  0
   -2.6970   -2.0680   -0.1080 C   0  0  0  0  0  0  0  0  0  0  0  0
   -3.3920   -3.0040    0.6450 C   0  0  0  0  0  0  0  0  0  0  0  0
   -4.5060   -2.5940    1.3130 C   0  0  0  0  0  0  0  0  0  0  0  0
   -5.2350   -3.5460    2.0940 N   0  0  0  0  0  0  0  0  0  0  0  0
   -4.9010   -1.2820    1.2230 C   0  0  0  0  0  0  0  0  0  0  0  0
   -4.2030   -0.3420    0.4670 C   0  0  0  0  0  0  0  0  0  0  0  0
   -4.6220    0.9940    0.4150 N   0  0  0  0  0  0  0  0  0  0  0  0
   -5.8570    1.4300    0.9620 C   0  0  0  0  0  0  0  0  0  0  0  0
   -5.9430    2.5920    1.8030 N   0  0  0  0  0  0  0  0  0  0  0  0
   -6.9370    0.7960    0.6900 N   0  0  0  0  0  0  0  0  0  0  0  0
   -8.1850    1.2400    1.2490 C   0  0  0  0  0  0  0  0  0  0  0  0
   -9.3120    0.4710    0.5980 C   0  0  0  0  0  0  0  0  0  0  0  0
   -9.1440   -0.9000    0.8410 O   0  0  0  0  0  0  0  0  0  0  0  0
    3.6860   -0.0030   -1.9190 C   0  0  0  0  0  0  0  0  0  0  0  0
  1  2  1  0
  2  3  1  0
  3  4  2  0
  3  9  1  0
  4  5  1  0
  5  6  2  0
  6  7  1  0
  7  8  1  0
  7  9  2  0
  9 10  1  0
 10 11  1  0
 11 12  2  0
 11 35  1  0
 12 13  1  0
 13 14  2  0
 14 15  1  0
 15 16  1  0
 15 35  2  0
 16 17  1  0
 17 18  1  0
 18 19  2  0
 18 20  1  0
 20 21  1  0
 21 22  2  0
 21 27  1  0
 22 23  1  0
 23 24  2  0
 24 25  1  0
 24 26  1  0
 26 27  2  0
 27 28  1  0
 28 29  1  0
 29 30  1  0
 29 31  2  3
 31 32  1  0
 32 33  1  0
 33 34  1  0
M  CHG  2  19   1  31   1
M  END
