
     RDKit          3D

 36 39  0  0  0  0  0  0  0  0999 V2000
    2.7750    4.2710    0.8250 C   0  0  0  0  0  0  0  0  0  0  0  0
    1.3840    4.1690    1.0150 O   0  0  0  0  0  0  0  0  0  0  0  0
    0.6300    3.0650    0.6670 C   0  0  0  0  0  0  0  0  0  0  0  0
    1.1210    1.9240    0.0920 C   0  0  0  0  0  0  0  0  0  0  0  0
    0.3380    0.8170   -0.2510 C   0  0  0  0  0  0  0  0  0  0  0  0
    0.9300   -0.1820   -0.9860 N   0  0  0  0  0  0  0  0  0  0  0  0
    2.1940   -0.7970   -0.9770 C   0  0  0  0  0  0  0  0  0  0  0  0
    2.6080   -1.3900   -2.2010 C   0  0  0  0  0  0  0  0  0  0  0  0
    1.7210   -1.2130   -3.4070 C   0  0  0  0  0  0  0  0  0  0  0  0
    3.7880   -2.0760   -2.2930 C   0  0  0  0  0  0  0  0  0  0  0  0
    4.1830   -2.6350   -3.3640 N   0  0  0  0  0  0  0  0  0  0  0  0
    4.5660   -2.1870   -1.2020 N   0  0  0  0  0  0  0  0  0  0  0  0
    4.2090   -1.6500   -0.0500 C   0  0  0  0  0  0  0  0  0  0  0  0
    3.0170   -0.9610    0.0410 N   0  0  0  0  0  0  0  0  0  0  0  0
    2.6550   -0.5280    1.3780 C   0  0  0  0  0  0  0  0  0  0  0  0
    3.7710    0.3480    1.9570 C   0  0  0  0  0  0  0  0  0  0  0  0
    5.1170   -0.3140    1.7350 C   0  0  0  0  0  0  0  0  0  0  0  0
    5.0070   -1.7220    1.1960 C   0  0  0  0  0  0  0  0  0  0  0  0
   -1.0070    0.8830    0.0080 C   0  0  0  0  0  0  0  0  0  0  0  0
   -1.9490   -0.1800   -0.3420 C   0  0  0  0  0  0  0  0  0  0  0  0
   -1.5910   -1.1440   -1.0820 O   0  0  0  0  0  0  0  0  0  0  0  0
   -3.2750   -0.2200    0.0970 N   0  0  0  0  0  0  0  0  0  0  0  0
   -3.6500    0.0210    1.4660 C   0  0  0  0  0  0  0  0  0  0  0  0
   -3.7180   -1.3460    2.2030 C   0  0  0  0  0  0  0  0  0  0  0  0
   -2.3950   -1.9370    2.1100 N   0  0  0  0  0  0  0  0  0  0  0  0
   -4.2880   -0.7250   -0.7990 C   0  0  0  0  0  0  0  0  0  0  0  0
   -5.3390    0.0230   -1.2600 C   0  0  0  0  0  0  0  0  0  0  0  0
   -6.2840   -0.5380   -2.1270 C   0  0  0  0  0  0  0  0  0  0  0  0
   -6.1660   -1.8490   -2.5240 C   0  0  0  0  0  0  0  0  0  0  0  0
   -5.1120   -2.6080   -2.0650 C   0  0  0  0  0  0  0  0  0  0  0  0
   -4.1780   -2.0340   -1.2010 C   0  0  0  0  0  0  0  0  0  0  0  0
   -1.5050    2.0530    0.5920 C   0  0  0  0  0  0  0  0  0  0  0  0
   -0.7230    3.1290    0.9230 C   0  0  0  0  0  0  0  0  0  0  0  0
   -1.2870    4.3260    1.5330 C   0  0  0  0  0  0  0  0  0  0  0  0
   -2.6690    4.4210    1.8030 N   0  0  0  0  0  0  0  0  0  0  0  0
   -0.5780    5.3210    1.8460 O   0  0  0  0  0  0  0  0  0  0  0  0
  1  2  1  0
  2  3  1  0
  3  4  2  0
  3 33  1  0
  4  5  1  0
  5  6  1  0
  5 19  2  0
  6  7  1  0
  7  8  2  0
  7 14  1  0
  8  9  1  0
  8 10  1  0
 10 11  2  0
 10 12  1  0
 12 13  2  0
 13 14  1  0
 13 18  1  0
 14 15  1  0
 15 16  1  0
 16 17  1  0
 17 18  1  0
 19 20  1  0
 19 32  1  0
 20 21  2  0
 20 22  1  0
 22 23  1  0
 22 26  1  0
 23 24  1  0
 24 25  1  0
 26 27  2  0
 26 31  1  0
 27 28  1  0
 28 29  2  0
 29 30  1  0
 30 31  2  0
 32 33  2  0
 33 34  1  0
 34 35  1  0
 34 36  2  0
M  CHG  3  11   1  12   1  25   1
M  END
