
     RDKit          3D

 37 41  0  0  0  0  0  0  0  0999 V2000
   -8.3850    1.0830   -1.4460 C   0  0  0  0  0  0  0  0  0  0  0  0
   -7.6120    0.1290   -0.6090 C   0  0  0  0  0  0  0  0  0  0  0  0
   -7.8470   -1.2210   -0.6900 C   0  0  0  0  0  0  0  0  0  0  0  0
   -7.1210   -2.1160    0.0960 C   0  0  0  0  0  0  0  0  0  0  0  0
   -7.4180   -3.4490   -0.0450 F   0  0  0  0  0  0  0  0  0  0  0  0
   -6.1510   -1.6760    0.9730 C   0  0  0  0  0  0  0  0  0  0  0  0
   -5.9150   -0.3250    1.0550 C   0  0  0  0  0  0  0  0  0  0  0  0
   -4.8920    0.1760    1.9770 C   0  0  0  0  0  0  0  0  0  0  0  0
   -3.5820    0.2770    1.3550 N   0  0  1  0  0  0  0  0  0  0  0  0
   -3.2850   -0.8970    0.5700 C   0  0  0  0  0  0  0  0  0  0  0  0
   -1.9180   -0.7020   -0.0660 C   0  0  0  0  0  0  0  0  0  0  0  0
   -1.8520    0.5250   -0.8190 N   0  0  0  0  0  0  0  0  0  0  0  0
   -0.6430    0.6060   -1.5610 C   0  0  0  0  0  0  0  0  0  0  0  0
    0.5890    0.5960   -0.7360 C   0  0  0  0  0  0  0  0  0  0  0  0
    1.8730    0.5260   -1.1350 N   0  0  0  0  0  0  0  0  0  0  0  0
    2.6850    0.5460   -0.0730 C   0  0  0  0  0  0  0  0  0  0  0  0
    4.1320    0.4940    0.0280 C   0  0  0  0  0  0  0  0  0  0  0  0
    4.8510    1.6630    0.0160 C   0  0  0  0  0  0  0  0  0  0  0  0
    4.1840    3.0010   -0.0980 C   0  0  0  0  0  0  0  0  0  0  0  0
    6.2270    1.6610    0.1100 C   0  0  0  0  0  0  0  0  0  0  0  0
    6.9080    0.4720    0.2190 C   0  0  0  0  0  0  0  0  0  0  0  0
    6.2190   -0.7480    0.2370 C   0  0  0  0  0  0  0  0  0  0  0  0
    4.8540   -0.6930    0.1380 C   0  0  0  0  0  0  0  0  0  0  0  0
    4.0840   -1.9250    0.1520 C   0  0  0  0  0  0  0  0  0  0  0  0
    4.2760   -2.8830   -0.7320 C   0  0  0  0  0  0  0  0  0  0  0  0
    3.5230   -4.0290   -0.6710 F   0  0  0  0  0  0  0  0  0  0  0  0
    5.1580   -2.8280   -1.7620 F   0  0  0  0  0  0  0  0  0  0  0  0
    6.9840   -1.9850    0.3980 C   0  0  0  0  0  0  0  0  0  0  0  0
    8.2840   -2.0170    0.5240 C   0  0  0  0  0  0  0  0  0  0  0  0
    9.1360   -0.8150    0.5200 C   0  0  0  0  0  0  0  0  0  0  0  0
    8.3570    0.4100    0.3210 C   0  0  0  0  0  0  0  0  0  0  0  0
    8.9840    1.5040    0.2300 O   0  0  0  0  0  0  0  0  0  0  0  0
    1.8630    0.6290    0.9930 N   0  0  0  0  0  0  0  0  0  0  0  0
    0.6250    0.6580    0.5720 O   0  0  0  0  0  0  0  0  0  0  0  0
   -2.0880    1.6280    0.0590 C   0  0  0  0  0  0  0  0  0  0  0  0
   -3.5330    1.4860    0.5470 C   0  0  0  0  0  0  0  0  0  0  0  0
   -6.6350    0.5590    0.2760 C   0  0  0  0  0  0  0  0  0  0  0  0
  1  2  1  0
  2  3  2  0
  2 37  1  0
  3  4  1  0
  4  5  1  0
  4  6  2  0
  6  7  1  0
  7  8  1  0
  7 37  2  0
  9  8  1  6
  9 10  1  0
  9 36  1  0
 10 11  1  0
 11 12  1  0
 12 13  1  0
 12 35  1  0
 13 14  1  0
 14 15  2  0
 14 34  1  0
 15 16  1  0
 16 17  1  0
 16 33  2  0
 17 18  2  0
 17 23  1  0
 18 19  1  0
 18 20  1  0
 20 21  2  0
 21 22  1  0
 21 31  1  0
 22 23  2  0
 22 28  1  0
 23 24  1  0
 24 25  2  3
 25 26  1  0
 25 27  1  0
 28 29  2  0
 29 30  1  0
 30 31  1  0
 31 32  2  0
 33 34  1  0
 35 36  1  0
M  CHG  1   9   1
M  END
