
     RDKit          3D

 37 39  0  0  0  0  0  0  0  0999 V2000
    1.5310    1.8070    0.5670 C   0  0  0  0  0  0  0  0  0  0  0  0
    0.4820    0.7390    0.6500 C   0  0  2  0  0  0  0  0  0  0  0  0
    0.4040    0.4180    2.1810 C   0  0  0  0  0  0  0  0  0  0  0  0
    0.7910   -0.4790   -0.0340 N   0  0  0  0  0  0  0  0  0  0  0  0
    1.9710   -0.8380   -0.5210 C   0  0  0  0  0  0  0  0  0  0  0  0
    3.2470   -0.1720   -0.7520 C   0  0  0  0  0  0  0  0  0  0  0  0
    4.2650   -0.6470   -0.2030 O   0  0  0  0  0  0  0  0  0  0  0  0
    3.3700    0.9660   -1.5680 N   0  0  0  0  0  0  0  0  0  0  0  0
    4.6960    1.5440   -1.7200 C   0  0  0  0  0  0  0  0  0  0  0  0
    5.1440    2.2950   -0.5450 C   0  0  0  0  0  0  0  0  0  0  0  0
    6.1470    1.8100    0.2640 C   0  0  0  0  0  0  0  0  0  0  0  0
    6.5750    2.5180    1.3880 C   0  0  0  0  0  0  0  0  0  0  0  0
    5.9900    3.7230    1.6990 C   0  0  0  0  0  0  0  0  0  0  0  0
    6.3800    4.4380    2.7830 F   0  0  0  0  0  0  0  0  0  0  0  0
    4.9860    4.2250    0.9010 C   0  0  0  0  0  0  0  0  0  0  0  0
    4.5720    3.5010   -0.2170 C   0  0  0  0  0  0  0  0  0  0  0  0
    1.8850   -2.1350   -1.0050 N   0  0  0  0  0  0  0  0  0  0  0  0
    0.6630   -2.5640   -0.8200 C   0  0  0  0  0  0  0  0  0  0  0  0
    0.2350   -3.9250   -1.1510 C   0  0  0  0  0  0  0  0  0  0  0  0
    0.9230   -4.9970   -0.5550 C   0  0  0  0  0  0  0  0  0  0  0  0
    0.6200   -6.3120   -0.8150 C   0  0  0  0  0  0  0  0  0  0  0  0
   -0.3950   -6.6190   -1.6910 C   0  0  0  0  0  0  0  0  0  0  0  0
   -0.7080   -7.8910   -1.9550 F   0  0  0  0  0  0  0  0  0  0  0  0
   -1.0680   -5.5720   -2.2770 C   0  0  0  0  0  0  0  0  0  0  0  0
   -0.7600   -4.2250   -2.0130 C   0  0  0  0  0  0  0  0  0  0  0  0
   -0.0710   -1.5340   -0.2030 C   0  0  0  0  0  0  0  0  0  0  0  0
   -1.4610   -1.6980    0.1260 C   0  0  0  0  0  0  0  0  0  0  0  0
   -2.3460   -0.5240    0.3210 C   0  0  0  0  0  0  0  0  0  0  0  0
   -3.8070   -1.0220    0.5630 C   0  0  1  0  0  0  0  0  0  0  0  0
   -3.6800   -1.8190    1.7240 O   0  0  0  0  0  0  0  0  0  0  0  0
   -4.6800    0.1340    0.9840 C   0  0  0  0  0  0  0  0  0  0  0  0
   -4.7480    1.2340   -0.0310 C   0  0  1  0  0  0  0  0  0  0  0  0
   -5.2610    0.7020   -1.2160 O   0  0  0  0  0  0  0  0  0  0  0  0
   -5.7690    2.2490    0.4380 C   0  0  0  0  0  0  0  0  0  0  0  0
   -5.8700    3.3790   -0.5540 C   0  0  0  0  0  0  0  0  0  0  0  0
   -5.1670    3.4260   -1.5980 O   0  0  0  0  0  0  0  0  0  0  0  0
   -6.7570    4.4170   -0.3390 O   0  0  0  0  0  0  0  0  0  0  0  0
  2  1  1  1
  2  3  1  0
  2  4  1  0
  4  5  1  0
  4 26  1  0
  5  6  1  0
  5 17  2  0
  6  7  2  0
  6  8  1  0
  8  9  1  0
  9 10  1  0
 10 11  2  0
 10 16  1  0
 11 12  1  0
 12 13  2  0
 13 14  1  0
 13 15  1  0
 15 16  2  0
 17 18  1  0
 18 19  1  0
 18 26  2  0
 19 20  2  0
 19 25  1  0
 20 21  1  0
 21 22  2  0
 22 23  1  0
 22 24  1  0
 24 25  2  0
 26 27  1  0
 27 28  1  0
 28 29  1  0
 29 30  1  1
 29 31  1  0
 31 32  1  0
 32 33  1  6
 32 34  1  0
 34 35  1  0
 35 36  2  0
 35 37  1  0
M  END
