
     RDKit          3D

 37 41  0  0  0  0  0  0  0  0999 V2000
   -6.3620   -2.9300    1.7360 C   0  0  0  0  0  0  0  0  0  0  0  0
   -5.6630   -1.9490    0.8620 C   0  0  0  0  0  0  0  0  0  0  0  0
   -4.4930   -2.2450    0.2050 C   0  0  0  0  0  0  0  0  0  0  0  0
   -3.8650   -1.3300   -0.5940 C   0  0  0  0  0  0  0  0  0  0  0  0
   -4.4310   -0.0840   -0.7350 C   0  0  0  0  0  0  0  0  0  0  0  0
   -3.8470    0.8840   -1.5340 C   0  0  0  0  0  0  0  0  0  0  0  0
   -2.5850    0.5710   -2.2150 C   0  0  0  0  0  0  0  0  0  0  0  0
   -1.3800    0.6650   -1.2980 C   0  0  0  0  0  0  0  0  0  0  0  0
   -0.1270    0.3270   -2.0210 C   0  0  0  0  0  0  0  0  0  0  0  0
   -0.2110    0.0000   -3.2280 O   0  0  0  0  0  0  0  0  0  0  0  0
    1.1450    0.3540   -1.4210 N   0  0  0  0  0  0  0  0  0  0  0  0
    2.3120    0.0060   -2.1920 C   0  0  0  0  0  0  0  0  0  0  0  0
    3.4780    0.8340   -1.7640 C   0  0  0  0  0  0  0  0  0  0  0  0
    3.7660    0.7870   -0.3440 N   0  0  0  0  0  0  0  0  0  0  0  0
    5.0560    0.1370   -0.2030 C   0  0  0  0  0  0  0  0  0  0  0  0
    5.5260    0.0470    1.2290 C   0  0  1  0  0  0  0  0  0  0  0  0
    6.8360   -0.6420    1.2210 C   0  0  0  0  0  0  0  0  0  0  0  0
    7.8410   -0.1710    0.4330 C   0  0  0  0  0  0  0  0  0  0  0  0
    9.0650   -0.8390    0.4460 C   0  0  0  0  0  0  0  0  0  0  0  0
    9.2510   -1.9300    1.2230 N   0  0  0  0  0  0  0  0  0  0  0  0
    8.2810   -2.4150    2.0070 C   0  0  0  0  0  0  0  0  0  0  0  0
    7.0500   -1.7470    1.9970 C   0  0  0  0  0  0  0  0  0  0  0  0
    5.6620    1.4650    1.7830 C   0  0  1  0  0  0  0  0  0  0  0  0
    6.5680    2.2070    1.0640 F   0  0  0  0  0  0  0  0  0  0  0  0
    4.4250    2.0570    1.6770 F   0  0  0  0  0  0  0  0  0  0  0  0
    5.9760    1.4070    3.1320 F   0  0  0  0  0  0  0  0  0  0  0  0
    2.7150    0.0260    0.3040 C   0  0  0  0  0  0  0  0  0  0  0  0
    1.3900    0.7170   -0.0360 C   0  0  0  0  0  0  0  0  0  0  0  0
   -4.4030    2.1330   -1.6920 C   0  0  0  0  0  0  0  0  0  0  0  0
   -5.5680    2.4250   -1.0360 C   0  0  0  0  0  0  0  0  0  0  0  0
   -6.0710    3.5680   -1.1840 O   0  0  0  0  0  0  0  0  0  0  0  0
   -6.1630    1.5000   -0.2470 N   0  0  0  0  0  0  0  0  0  0  0  0
   -5.6150    0.2690   -0.0930 C   0  0  0  0  0  0  0  0  0  0  0  0
   -6.2240   -0.6830    0.7090 C   0  0  0  0  0  0  0  0  0  0  0  0
   -7.4940   -0.3230    1.3970 C   0  0  0  0  0  0  0  0  0  0  0  0
   -7.4490    1.1470    1.7440 C   0  0  0  0  0  0  0  0  0  0  0  0
   -7.3950    1.8910    0.4180 C   0  0  0  0  0  0  0  0  0  0  0  0
  1  2  1  0
  2  3  2  0
  2 34  1  0
  3  4  1  0
  4  5  2  0
  5  6  1  0
  5 33  1  0
  6  7  1  0
  6 29  2  0
  7  8  1  0
  8  9  1  0
  9 10  2  0
  9 11  1  0
 11 12  1  0
 11 28  1  0
 12 13  1  0
 13 14  1  0
 14 15  1  0
 14 27  1  0
 16 15  1  6
 16 17  1  0
 16 23  1  0
 17 18  2  0
 17 22  1  0
 18 19  1  0
 19 20  2  0
 20 21  1  0
 21 22  2  0
 23 24  1  6
 23 25  1  0
 23 26  1  0
 27 28  1  0
 29 30  1  0
 30 31  2  0
 30 32  1  0
 32 33  1  0
 32 37  1  0
 33 34  2  0
 34 35  1  0
 35 36  1  0
 36 37  1  0
M  CHG  1  20   1
M  END
