
     RDKit          3D

 37 41  0  0  0  0  0  0  0  0999 V2000
   -5.0060   -2.4960   -0.8660 C   0  0  0  0  0  0  0  0  0  0  0  0
   -5.3380   -1.8550   -2.1770 C   0  0  0  0  0  0  0  0  0  0  0  0
   -4.4410   -0.6690   -2.4180 C   0  0  0  0  0  0  0  0  0  0  0  0
   -4.5570    0.3110   -1.3980 N   0  0  0  0  0  0  0  0  0  0  0  0
   -5.7840    1.0590   -1.1830 C   0  0  0  0  0  0  0  0  0  0  0  0
   -6.1670    0.9590    0.2870 C   0  0  0  0  0  0  0  0  0  0  0  0
   -5.0430    1.2780    1.1850 C   0  0  0  0  0  0  0  0  0  0  0  0
   -5.3070    1.7600    2.4790 C   0  0  0  0  0  0  0  0  0  0  0  0
   -4.2780    2.0700    3.3340 C   0  0  0  0  0  0  0  0  0  0  0  0
   -2.9740    1.9140    2.9380 C   0  0  0  0  0  0  0  0  0  0  0  0
   -2.6880    1.4430    1.6740 C   0  0  0  0  0  0  0  0  0  0  0  0
   -3.7330    1.1320    0.8160 C   0  0  0  0  0  0  0  0  0  0  0  0
   -3.4220    0.6240   -0.5400 C   0  0  0  0  0  0  0  0  0  0  0  0
   -2.2840    0.4580   -0.9970 N   0  0  0  0  0  0  0  0  0  0  0  0
   -0.9650    0.5680   -0.7030 C   0  0  0  0  0  0  0  0  0  0  0  0
   -0.1530   -0.3870   -0.3840 C   0  0  0  0  0  0  0  0  0  0  0  0
    1.2720   -0.1010   -0.0910 C   0  0  0  0  0  0  0  0  0  0  0  0
    2.2500   -0.7770   -0.9860 C   0  0  0  0  0  0  0  0  0  0  0  0
    3.5770   -0.3870   -0.5650 N   0  0  0  0  0  0  0  0  0  0  0  0
    4.1200    0.7080   -1.1220 C   0  0  0  0  0  0  0  0  0  0  0  0
    3.4630    1.3500   -1.9800 O   0  0  0  0  0  0  0  0  0  0  0  0
    5.3750    1.1990   -0.8210 C   0  0  0  0  0  0  0  0  0  0  0  0
    6.1210    0.5220    0.1120 C   0  0  0  0  0  0  0  0  0  0  0  0
    5.5930   -0.6090    0.7060 C   0  0  0  0  0  0  0  0  0  0  0  0
    6.3130   -1.3080    1.6440 C   0  0  0  0  0  0  0  0  0  0  0  0
    5.7420   -2.4240    2.2050 C   0  0  0  0  0  0  0  0  0  0  0  0
    4.4850   -2.8800    1.8750 C   0  0  0  0  0  0  0  0  0  0  0  0
    3.7740   -2.1590    0.9250 C   0  0  0  0  0  0  0  0  0  0  0  0
    4.3140   -1.0360    0.3420 C   0  0  0  0  0  0  0  0  0  0  0  0
    7.3990    0.9450    0.4780 O   0  0  0  0  0  0  0  0  0  0  0  0
    7.9000    2.0830   -0.1360 C   0  0  0  0  0  0  0  0  0  0  0  0
    7.2470    2.7410   -1.0030 N   0  0  0  0  0  0  0  0  0  0  0  0
    5.9260    2.3960   -1.4530 C   0  0  0  0  0  0  0  0  0  0  0  0
   -0.6090   -1.7840   -0.2930 C   0  0  1  0  0  0  0  0  0  0  0  0
   -0.0190   -2.6220   -1.2190 F   0  0  0  0  0  0  0  0  0  0  0  0
   -0.3210   -2.1930    1.0050 F   0  0  0  0  0  0  0  0  0  0  0  0
   -1.9720   -1.9110   -0.4220 F   0  0  0  0  0  0  0  0  0  0  0  0
  1  2  1  0
  2  3  1  0
  3  4  1  0
  4  5  1  0
  4 13  1  0
  5  6  1  0
  6  7  1  0
  7  8  2  0
  7 12  1  0
  8  9  1  0
  9 10  2  0
 10 11  1  0
 11 12  2  0
 12 13  1  0
 13 14  2  3
 14 15  1  0
 15 16  2  3
 16 17  1  0
 16 34  1  0
 17 18  1  0
 18 19  1  0
 19 20  1  0
 19 29  1  0
 20 21  2  0
 20 22  1  0
 22 23  2  0
 22 33  1  0
 23 24  1  0
 23 30  1  0
 24 25  2  0
 24 29  1  0
 25 26  1  0
 26 27  2  0
 27 28  1  0
 28 29  2  0
 30 31  1  0
 31 32  2  0
 32 33  1  0
 34 35  1  6
 34 36  1  0
 34 37  1  0
M  CHG  1  32   1
M  END
