
     RDKit          3D

 36 40  0  0  0  0  0  0  0  0999 V2000
   -7.6400    2.5140    2.3160 C   0  0  0  0  0  0  0  0  0  0  0  0
   -6.3370    1.7710    2.1770 C   0  0  0  0  0  0  0  0  0  0  0  0
   -6.4260    0.9380    0.9390 C   0  0  0  0  0  0  0  0  0  0  0  0
   -7.4610    0.8250    0.0540 C   0  0  0  0  0  0  0  0  0  0  0  0
   -7.0330   -0.0820   -0.9290 C   0  0  0  0  0  0  0  0  0  0  0  0
   -5.7600   -0.4600   -0.5720 C   0  0  0  0  0  0  0  0  0  0  0  0
   -5.4640    0.1730    0.5310 O   0  0  0  0  0  0  0  0  0  0  0  0
   -4.9830   -1.4020   -1.3680 C   0  0  0  0  0  0  0  0  0  0  0  0
   -3.6620   -1.8760   -1.0520 C   0  0  0  0  0  0  0  0  0  0  0  0
   -3.1740   -2.6860   -1.9770 O   0  0  0  0  0  0  0  0  0  0  0  0
   -2.7830   -1.6800   -0.0080 N   0  0  0  0  0  0  0  0  0  0  0  0
   -2.8650   -0.9900    1.2410 C   0  0  0  0  0  0  0  0  0  0  0  0
   -2.2080    0.3600    1.0230 C   0  0  0  0  0  0  0  0  0  0  0  0
   -1.1100    0.2050   -0.0470 C   0  0  0  0  0  0  0  0  0  0  0  0
   -0.4400   -1.1350    0.0140 C   0  0  2  0  0  0  0  0  0  0  0  0
    0.5660   -1.1680   -1.1370 C   0  0  0  0  0  0  0  0  0  0  0  0
    1.5760   -0.0960   -1.0170 C   0  0  0  0  0  0  0  0  0  0  0  0
    1.3060    1.1110   -1.6160 C   0  0  0  0  0  0  0  0  0  0  0  0
    2.2710    2.0860   -1.4800 C   0  0  0  0  0  0  0  0  0  0  0  0
    3.4110    1.8650   -0.8010 N   0  0  0  0  0  0  0  0  0  0  0  0
    3.6800    0.6840   -0.2120 C   0  0  0  0  0  0  0  0  0  0  0  0
    4.8870    0.4830    0.5110 N   0  0  0  0  0  0  0  0  0  0  0  0
    5.7120    1.5880    0.8820 C   0  0  0  0  0  0  0  0  0  0  0  0
    7.1810    1.3920    0.7790 C   0  0  0  0  0  0  0  0  0  0  0  0
    7.5350    0.0680    1.2450 N   0  0  2  0  0  0  0  0  0  0  0  0
    8.9240   -0.2460    1.0950 C   0  0  0  0  0  0  0  0  0  0  0  0
    9.7770    0.8060    0.5040 C   0  0  0  0  0  0  0  0  0  0  0  0
    6.7830   -0.9590    0.5490 C   0  0  0  0  0  0  0  0  0  0  0  0
    5.2840   -0.8500    0.8640 C   0  0  0  0  0  0  0  0  0  0  0  0
    2.7640   -0.3240   -0.3090 C   0  0  0  0  0  0  0  0  0  0  0  0
   -1.3980   -2.2650   -0.2110 C   0  0  0  0  0  0  0  0  0  0  0  0
   -5.5910   -1.8700   -2.4690 C   0  0  0  0  0  0  0  0  0  0  0  0
   -6.9300   -1.5150   -2.9120 C   0  0  1  0  0  0  0  0  0  0  0  0
   -6.8470   -0.9740   -4.2150 F   0  0  0  0  0  0  0  0  0  0  0  0
   -7.7040   -2.6980   -3.0880 F   0  0  0  0  0  0  0  0  0  0  0  0
   -7.7170   -0.5810   -2.1060 C   0  0  0  0  0  0  0  0  0  0  0  0
  1  2  1  0
  2  3  1  0
  3  4  2  0
  3  7  1  0
  4  5  1  0
  5  6  2  0
  5 36  1  0
  6  7  1  0
  6  8  1  0
  8  9  1  0
  8 32  2  0
  9 10  2  0
  9 11  1  0
 11 12  1  0
 11 31  1  0
 12 13  1  0
 13 14  1  0
 14 15  1  0
 15 16  1  6
 15 31  1  0
 16 17  1  0
 17 18  2  0
 17 30  1  0
 18 19  1  0
 19 20  2  0
 20 21  1  0
 21 22  1  0
 21 30  2  0
 22 23  1  0
 22 29  1  0
 23 24  1  0
 24 25  1  0
 25 26  1  6
 25 28  1  0
 26 27  1  0
 28 29  1  0
 32 33  1  0
 33 34  1  6
 33 35  1  0
 33 36  1  0
M  CHG  1  25   1
M  END
