
     RDKit          3D

 31 32  0  0  0  0  0  0  0  0999 V2000
   -3.7400   -2.5850   -0.8200 C   0  0  0  0  0  0  0  0  0  0  0  0
   -2.4330   -2.2270   -1.1030 O   0  0  0  0  0  0  0  0  0  0  0  0
   -1.5630   -2.4900   -0.0810 C   0  0  0  0  0  0  0  0  0  0  0  0
   -1.7930   -1.6800    1.1480 C   0  0  1  0  0  0  0  0  0  0  0  0
   -0.8210   -2.1730    2.0790 O   0  0  0  0  0  0  0  0  0  0  0  0
   -1.4390   -0.2180    0.9610 C   0  0  2  0  0  0  0  0  0  0  0  0
   -2.4010    0.6110    0.2170 C   0  0  0  0  0  0  0  0  0  0  0  0
   -3.7150    0.6890    0.7950 N   0  0  1  0  0  0  0  0  0  0  0  0
   -3.7190    1.6780    1.9030 C   0  0  0  0  0  0  0  0  0  0  0  0
   -4.7660    1.0460   -0.0920 C   0  0  1  0  0  0  0  0  0  0  0  0
   -4.3830    1.0310   -1.5600 C   0  0  0  0  0  0  0  0  0  0  0  0
   -6.0580    0.2890    0.1390 C   0  0  0  0  0  0  0  0  0  0  0  0
   -6.5770    0.5090    1.4740 N   0  0  0  0  0  0  0  0  0  0  0  0
   -0.1240   -0.2030    0.3780 O   0  0  0  0  0  0  0  0  0  0  0  0
    0.9580    0.2710    1.0880 C   0  0  0  0  0  0  0  0  0  0  0  0
    0.7760    0.6910    2.2590 O   0  0  0  0  0  0  0  0  0  0  0  0
    2.3380    0.3130    0.5410 C   0  0  2  0  0  0  0  0  0  0  0  0
    2.4520    1.1530   -0.6850 C   0  0  0  0  0  0  0  0  0  0  0  0
    3.6930    0.8220   -1.4310 C   0  0  0  0  0  0  0  0  0  0  0  0
    4.1430    1.7060   -2.4830 N   0  0  0  0  0  0  0  0  0  0  0  0
    5.3240    2.2140   -2.3960 C   0  0  0  0  0  0  0  0  0  0  0  0
    6.2220    1.9640   -1.3260 N   0  0  0  0  0  0  0  0  0  0  0  0
    7.4400    1.4300   -1.4660 N   0  0  0  0  0  0  0  0  0  0  0  0
    8.0320    1.3250   -0.2700 C   0  0  0  0  0  0  0  0  0  0  0  0
    7.1830    1.7990    0.6560 N   0  0  0  0  0  0  0  0  0  0  0  0
    6.0800    2.1850   -0.0110 C   0  0  0  0  0  0  0  0  0  0  0  0
    5.0720    2.6800    0.5400 O   0  0  0  0  0  0  0  0  0  0  0  0
    4.4440   -0.2390   -1.2110 C   0  0  0  0  0  0  0  0  0  0  0  0
    4.1430   -1.2680   -0.1670 C   0  0  2  0  0  0  0  0  0  0  0  0
    4.3750   -2.5820   -0.6870 N   0  0  0  0  0  0  0  0  0  0  0  0
    2.6740   -1.1320    0.1530 C   0  0  0  0  0  0  0  0  0  0  0  0
  1  2  1  0
  2  3  1  0
  3  4  1  0
  4  5  1  1
  4  6  1  0
  6  7  1  6
  6 14  1  0
  7  8  1  0
  8  9  1  1
  8 10  1  0
 10 11  1  6
 10 12  1  0
 12 13  1  0
 14 15  1  0
 15 16  2  0
 17 15  1  6
 17 18  1  0
 17 31  1  0
 18 19  1  0
 19 20  1  0
 19 28  2  0
 20 21  2  3
 21 22  1  0
 22 23  1  0
 22 26  1  0
 23 24  2  0
 24 25  1  0
 25 26  1  0
 26 27  2  0
 28 29  1  0
 29 30  1  6
 29 31  1  0
M  CHG  3   8   1  13   1  30   1
M  END
