
     RDKit          3D

 33 36  0  0  0  0  0  0  0  0999 V2000
   -0.6140   -3.1940    2.4960 C   0  0  0  0  0  0  0  0  0  0  0  0
   -0.2070   -1.9780    3.0740 O   0  0  0  0  0  0  0  0  0  0  0  0
   -0.2500   -0.7740    2.3930 C   0  0  0  0  0  0  0  0  0  0  0  0
    0.1490    0.4090    2.9690 C   0  0  0  0  0  0  0  0  0  0  0  0
    0.0930    1.5900    2.2610 C   0  0  0  0  0  0  0  0  0  0  0  0
    0.4590    2.8170    2.7330 O   0  0  0  0  0  0  0  0  0  0  0  0
    0.9630    3.2480    3.9290 C   0  0  0  0  0  0  0  0  0  0  0  0
    2.3130    2.6980    4.3090 C   0  0  0  0  0  0  0  0  0  0  0  0
    3.4720    3.2120    3.0310 Cl  0  0  0  0  0  0  0  0  0  0  0  0
   -0.3800    1.5730    0.9320 C   0  0  0  0  0  0  0  0  0  0  0  0
   -0.7840    0.4080    0.3380 C   0  0  0  0  0  0  0  0  0  0  0  0
   -1.3260    0.3730   -1.0800 C   0  0  2  0  0  0  0  0  0  0  0  0
   -2.7210    0.8420   -1.0600 C   0  0  0  0  0  0  0  0  0  0  0  0
   -2.9630    2.2720   -0.8070 C   0  0  0  0  0  0  0  0  0  0  0  0
   -3.1650    3.4120   -0.5920 N   0  0  0  0  0  0  0  0  0  0  0  0
   -3.7520    0.0590   -1.2610 C   0  0  0  0  0  0  0  0  0  0  0  0
   -5.0600    0.6750   -1.2000 N   0  0  0  0  0  0  0  0  0  0  0  0
   -3.6390   -1.3150   -1.6070 N   0  0  0  0  0  0  0  0  0  0  0  0
   -2.3160   -1.8090   -1.7360 C   0  0  0  0  0  0  0  0  0  0  0  0
   -1.2040   -1.0110   -1.5390 C   0  0  0  0  0  0  0  0  0  0  0  0
   -0.1350   -1.8320   -1.8210 C   0  0  0  0  0  0  0  0  0  0  0  0
    1.3000   -1.4840   -1.8200 C   0  0  0  0  0  0  0  0  0  0  0  0
    1.5830   -0.7410   -3.1170 C   0  0  0  0  0  0  0  0  0  0  0  0
    3.3190   -0.3370   -3.2450 S   0  0  0  0  0  0  0  0  0  0  0  0
    3.7780    0.8410   -2.0060 C   0  0  0  0  0  0  0  0  0  0  0  0
    3.7480    2.2380   -2.1370 C   0  0  0  0  0  0  0  0  0  0  0  0
    4.1950    2.7250   -0.9710 N   0  0  0  0  0  0  0  0  0  0  0  0
    4.4950    1.7470   -0.1370 N   0  0  0  0  0  0  0  0  0  0  0  0
    4.2480    0.5550   -0.7460 C   0  0  0  0  0  0  0  0  0  0  0  0
   -0.6340   -3.0460   -2.1580 N   0  0  0  0  0  0  0  0  0  0  0  0
   -1.9410   -3.0510   -2.1120 N   0  0  0  0  0  0  0  0  0  0  0  0
   -2.8170   -4.1760   -2.4060 C   0  0  0  0  0  0  0  0  0  0  0  0
   -0.7150   -0.7560    1.0720 C   0  0  0  0  0  0  0  0  0  0  0  0
  1  2  1  0
  2  3  1  0
  3  4  2  0
  3 33  1  0
  4  5  1  0
  5  6  1  0
  5 10  2  0
  6  7  1  0
  7  8  1  0
  8  9  1  0
 10 11  1  0
 12 11  1  1
 11 33  2  0
 12 13  1  0
 12 20  1  0
 13 14  1  0
 13 16  2  0
 14 15  3  0
 16 17  1  0
 16 18  1  0
 18 19  1  0
 19 20  2  0
 19 31  1  0
 20 21  1  0
 21 22  1  0
 21 30  2  0
 22 23  1  0
 23 24  1  0
 24 25  1  0
 25 26  2  0
 25 29  1  0
 26 27  1  0
 27 28  1  0
 28 29  2  0
 30 31  1  0
 31 32  1  0
M  CHG  1  28   1
M  END
