
     RDKit          3D

 32 33  0  0  0  0  0  0  0  0999 V2000
   -5.7770    1.9770   -1.9730 C   0  0  0  0  0  0  0  0  0  0  0  0
   -5.1630    0.5900   -2.0070 C   0  0  0  0  0  0  0  0  0  0  0  0
   -3.8160    0.5880   -1.4430 N   0  0  0  0  0  0  0  0  0  0  0  0
   -3.7310   -0.4920   -0.4460 C   0  0  2  0  0  0  0  0  0  0  0  0
   -4.9580   -0.5770    0.3780 C   0  0  0  0  0  0  0  0  0  0  0  0
   -5.7980   -1.7370    0.2390 N   0  0  0  0  0  0  0  0  0  0  0  0
   -5.2530   -3.0200    0.6890 C   0  0  0  0  0  0  0  0  0  0  0  0
   -5.3760    0.2260    1.3360 C   0  0  0  0  0  0  0  0  0  0  0  0
   -4.6530    1.4270    1.8340 C   0  0  0  0  0  0  0  0  0  0  0  0
   -3.3410    0.9720    2.3480 N   0  0  0  0  0  0  0  0  0  0  0  0
   -2.5790   -0.0910    1.7840 C   0  0  0  0  0  0  0  0  0  0  0  0
   -1.9400   -0.8420    2.6120 O   0  0  0  0  0  0  0  0  0  0  0  0
   -2.4420   -0.4100    0.3440 C   0  0  2  0  0  0  0  0  0  0  0  0
   -1.4780    0.3740   -0.2870 N   0  0  0  0  0  0  0  0  0  0  0  0
   -0.8840    1.5150    0.4510 C   0  0  0  0  0  0  0  0  0  0  0  0
    0.5620    1.4360    0.0080 C   0  0  0  0  0  0  0  0  0  0  0  0
    1.3040    0.3890    0.2560 N   0  0  0  0  0  0  0  0  0  0  0  0
    2.5520    0.1820   -0.1650 N   0  0  0  0  0  0  0  0  0  0  0  0
    3.1860   -1.0300    0.2650 C   0  0  1  0  0  0  0  0  0  0  0  0
    2.3350   -1.8600    1.1340 C   0  0  0  0  0  0  0  0  0  0  0  0
    3.8450   -1.8660   -0.8110 C   0  0  0  0  0  0  0  0  0  0  0  0
    4.9350   -1.1240   -1.3430 O   0  0  0  0  0  0  0  0  0  0  0  0
    6.0790   -0.9340   -0.5210 C   0  0  0  0  0  0  0  0  0  0  0  0
    6.0970   -1.5250    0.5690 O   0  0  0  0  0  0  0  0  0  0  0  0
    7.1600   -0.0360   -1.0410 C   0  0  0  0  0  0  0  0  0  0  0  0
    8.5110   -0.2910   -0.4970 C   0  0  0  0  0  0  0  0  0  0  0  0
    8.5420   -0.1780    0.9290 N   0  0  0  0  0  0  0  0  0  0  0  0
    3.0340    1.1840   -0.9070 C   0  0  0  0  0  0  0  0  0  0  0  0
    4.1620    1.1450   -1.3780 O   0  0  0  0  0  0  0  0  0  0  0  0
    2.3370    2.3250   -1.2090 N   0  0  0  0  0  0  0  0  0  0  0  0
    1.0560    2.4620   -0.7350 C   0  0  0  0  0  0  0  0  0  0  0  0
    0.4030    3.5020   -0.9960 O   0  0  0  0  0  0  0  0  0  0  0  0
  1  2  1  0
  2  3  1  0
  4  3  1  1
  4  5  1  0
  4 13  1  0
  5  6  1  0
  5  8  2  0
  6  7  1  0
  8  9  1  0
  9 10  1  0
 10 11  1  0
 11 12  2  0
 11 13  1  0
 13 14  1  6
 14 15  1  0
 15 16  1  0
 16 17  2  0
 16 31  1  0
 17 18  1  0
 18 19  1  0
 18 28  1  0
 19 20  1  6
 19 21  1  0
 21 22  1  0
 22 23  1  0
 23 24  2  0
 23 25  1  0
 25 26  1  0
 26 27  1  0
 28 29  2  0
 28 30  1  0
 30 31  1  0
 31 32  2  0
M  CHG  3   3   1  14   1  27   1
M  END
