
     RDKit          3D

 32 33  0  0  0  0  0  0  0  0999 V2000
   -8.5340    1.5560    0.2910 C   0  0  0  0  0  0  0  0  0  0  0  0
   -7.2470    2.2580    0.6570 C   0  0  0  0  0  0  0  0  0  0  0  0
   -6.2460    1.1890    0.6070 N   0  0  0  0  0  0  0  0  0  0  0  0
   -5.2400    1.5220   -0.1350 C   0  0  0  0  0  0  0  0  0  0  0  0
   -5.4100    2.7850   -0.6230 O   0  0  0  0  0  0  0  0  0  0  0  0
   -4.3490    0.4660   -0.1540 N   0  0  0  0  0  0  0  0  0  0  0  0
   -3.4190    0.4140   -1.1630 C   0  0  0  0  0  0  0  0  0  0  0  0
   -3.6220    1.3920   -1.9660 O   0  0  0  0  0  0  0  0  0  0  0  0
   -2.3840   -0.5540   -1.3330 C   0  0  2  0  0  0  0  0  0  0  0  0
   -2.8930   -2.0070   -1.2160 C   0  0  0  0  0  0  0  0  0  0  0  0
   -1.5470   -2.7290   -1.1070 C   0  0  1  0  0  0  0  0  0  0  0  0
   -0.8610   -2.5610   -2.4430 C   0  0  0  0  0  0  0  0  0  0  0  0
   -0.9150   -1.9360   -0.0710 N   0  0  1  0  0  0  0  0  0  0  0  0
    0.4940   -2.1560    0.0440 C   0  0  0  0  0  0  0  0  0  0  0  0
    0.8980   -2.4680    1.4490 C   0  0  0  0  0  0  0  0  0  0  0  0
    0.5370   -1.3270    2.3680 C   0  0  2  0  0  0  0  0  0  0  0  0
    1.2240   -0.1240    1.9370 N   0  0  0  0  0  0  0  0  0  0  0  0
    2.4950   -0.1110    2.5800 C   0  0  0  0  0  0  0  0  0  0  0  0
    3.5300    0.5540    2.2150 N   0  0  0  0  0  0  0  0  0  0  0  0
    3.5500    1.3970    1.0790 C   0  0  0  0  0  0  0  0  0  0  0  0
    2.5640    2.1360    0.8640 O   0  0  0  0  0  0  0  0  0  0  0  0
    4.7210    1.3980    0.1670 C   0  0  1  0  0  0  0  0  0  0  0  0
    5.3180    2.7820    0.0660 C   0  0  0  0  0  0  0  0  0  0  0  0
    5.7000    0.4360    0.6860 N   0  0  0  0  0  0  0  0  0  0  0  0
    4.3060    0.9110   -1.1990 C   0  0  0  0  0  0  0  0  0  0  0  0
    5.4120    0.8810   -2.1720 C   0  0  0  0  0  0  0  0  0  0  0  0
    6.7090    1.3040   -1.7990 N   0  0  0  0  0  0  0  0  0  0  0  0
    5.1970    0.4760   -3.3400 O   0  0  0  0  0  0  0  0  0  0  0  0
    2.3880   -0.9800    3.7050 N   0  0  0  0  0  0  0  0  0  0  0  0
    1.0650   -1.5070    3.7320 C   0  0  0  0  0  0  0  0  0  0  0  0
    0.4450   -2.0240    4.6970 O   0  0  0  0  0  0  0  0  0  0  0  0
   -1.2700   -0.5600   -0.3360 C   0  0  0  0  0  0  0  0  0  0  0  0
  1  2  1  0
  2  3  1  0
  3  4  2  3
  4  5  1  0
  4  6  1  0
  6  7  1  0
  7  8  2  0
  9  7  1  1
  9 10  1  0
  9 32  1  0
 10 11  1  0
 11 12  1  6
 11 13  1  0
 13 14  1  6
 13 32  1  0
 14 15  1  0
 16 15  1  6
 16 17  1  0
 16 30  1  0
 17 18  1  0
 18 19  2  3
 18 29  1  0
 19 20  1  0
 20 21  2  0
 20 22  1  0
 22 23  1  6
 22 24  1  0
 22 25  1  0
 25 26  1  0
 26 27  1  0
 26 28  2  0
 29 30  1  0
 30 31  2  0
M  CHG  2  13   1  24   1
M  END
