
     RDKit          3D

 32 33  0  0  0  0  0  0  0  0999 V2000
   -2.8270   -3.5970   -2.7970 C   0  0  0  0  0  0  0  0  0  0  0  0
   -2.2920   -2.2360   -2.5510 C   0  0  0  0  0  0  0  0  0  0  0  0
   -1.2860   -2.1450   -1.6940 C   0  0  0  0  0  0  0  0  0  0  0  0
   -0.5850   -0.9150   -1.2830 C   0  0  0  0  0  0  0  0  0  0  0  0
    0.6680   -1.0870   -0.5810 N   0  0  0  0  0  0  0  0  0  0  0  0
    1.6050    0.0160   -0.4910 C   0  0  2  0  0  0  0  0  0  0  0  0
    2.0860    0.4310   -1.8620 C   0  0  0  0  0  0  0  0  0  0  0  0
    3.0550   -0.6480   -2.2250 C   0  0  0  0  0  0  0  0  0  0  0  0
    3.3340   -1.4520   -0.9730 C   0  0  0  0  0  0  0  0  0  0  0  0
    2.8700   -0.5050    0.1190 C   0  0  2  0  0  0  0  0  0  0  0  0
    2.6500   -1.2570    1.4260 C   0  0  0  0  0  0  0  0  0  0  0  0
    2.0260   -0.3290    2.3480 N   0  0  0  0  0  0  0  0  0  0  0  0
    3.9010    0.5550    0.3330 C   0  0  0  0  0  0  0  0  0  0  0  0
    3.7100    1.7760    0.1620 O   0  0  0  0  0  0  0  0  0  0  0  0
    5.1900    0.1010    0.7690 N   0  0  0  0  0  0  0  0  0  0  0  0
    6.2320    1.0480    0.9990 C   0  0  0  0  0  0  0  0  0  0  0  0
    7.5200    0.5830    1.4350 N   0  0  0  0  0  0  0  0  0  0  0  0
    6.0130    2.2810    0.8180 O   0  0  0  0  0  0  0  0  0  0  0  0
   -0.8850    0.3300   -1.4360 N   0  0  0  0  0  0  0  0  0  0  0  0
   -2.0200    0.8480   -2.0680 N   0  0  0  0  0  0  0  0  0  0  0  0
   -2.4540    2.1710   -1.6670 C   0  0  0  0  0  0  0  0  0  0  0  0
   -3.4360    2.1380   -0.5230 C   0  0  0  0  0  0  0  0  0  0  0  0
   -2.9320    1.5350    0.6670 N   0  0  1  0  0  0  0  0  0  0  0  0
   -2.5820    2.5250    1.6860 C   0  0  0  0  0  0  0  0  0  0  0  0
   -3.9270    0.6070    1.1710 C   0  0  2  0  0  0  0  0  0  0  0  0
   -5.0720    1.3750    1.8000 C   0  0  0  0  0  0  0  0  0  0  0  0
   -3.3760   -0.3360    2.1520 C   0  0  0  0  0  0  0  0  0  0  0  0
   -4.2010   -1.3070    2.7450 N   0  0  0  0  0  0  0  0  0  0  0  0
   -2.1690   -0.2750    2.4610 O   0  0  0  0  0  0  0  0  0  0  0  0
   -2.7840    0.1910   -3.0720 C   0  0  0  0  0  0  0  0  0  0  0  0
   -3.4030    0.9590   -3.8580 O   0  0  0  0  0  0  0  0  0  0  0  0
   -2.8900   -1.1830   -3.2360 O   0  0  0  0  0  0  0  0  0  0  0  0
  1  2  1  0
  2  3  2  0
  2 32  1  0
  3  4  1  0
  4  5  1  0
  4 19  2  0
  6  5  1  6
  6  7  1  0
  6 10  1  0
  7  8  1  0
  8  9  1  0
  9 10  1  0
 10 11  1  1
 10 13  1  0
 11 12  1  0
 13 14  2  0
 13 15  1  0
 15 16  1  0
 16 17  1  0
 16 18  2  0
 19 20  1  0
 20 21  1  0
 20 30  1  0
 21 22  1  0
 22 23  1  0
 23 24  1  1
 23 25  1  0
 25 26  1  1
 25 27  1  0
 27 28  1  0
 27 29  2  0
 30 31  2  0
 30 32  1  0
M  CHG  3  12   1  17   1  23   1
M  END
