
     RDKit          3D

 38 41  0  0  0  0  0  0  0  0999 V2000
    0.5140    0.3510    2.0140 C   0  0  0  0  0  0  0  0  0  0  0  0
    0.7470    0.8590    0.5850 C   0  0  0  0  0  0  0  0  0  0  0  0
    0.7260   -0.3080   -0.3150 C   0  0  0  0  0  0  0  0  0  0  0  0
   -0.3760   -1.0500   -0.6560 C   0  0  0  0  0  0  0  0  0  0  0  0
   -1.7910   -0.9200   -0.3270 C   0  0  0  0  0  0  0  0  0  0  0  0
   -2.5190   -1.9570   -0.2120 O   0  0  0  0  0  0  0  0  0  0  0  0
   -2.4260    0.3060   -0.1260 N   0  0  0  0  0  0  0  0  0  0  0  0
   -3.8100    0.5090    0.2230 C   0  0  0  0  0  0  0  0  0  0  0  0
   -4.4210    1.7270   -0.0980 C   0  0  0  0  0  0  0  0  0  0  0  0
   -5.7180    1.9480    0.2490 C   0  0  0  0  0  0  0  0  0  0  0  0
   -6.4690    1.0140    0.9100 C   0  0  0  0  0  0  0  0  0  0  0  0
   -7.8510    1.2680    1.2720 C   0  0  0  0  0  0  0  0  0  0  0  0
   -8.7650    0.2400    1.3330 C   0  0  0  0  0  0  0  0  0  0  0  0
  -10.0890    0.5110    1.6850 C   0  0  0  0  0  0  0  0  0  0  0  0
  -10.4760    1.7960    1.9690 C   0  0  0  0  0  0  0  0  0  0  0  0
   -9.5680    2.8260    1.9100 C   0  0  0  0  0  0  0  0  0  0  0  0
   -8.2560    2.5480    1.5600 C   0  0  0  0  0  0  0  0  0  0  0  0
   -5.8590   -0.1770    1.2190 C   0  0  0  0  0  0  0  0  0  0  0  0
   -4.5310   -0.4290    0.8770 C   0  0  0  0  0  0  0  0  0  0  0  0
    0.1140   -2.0620   -1.5040 C   0  0  0  0  0  0  0  0  0  0  0  0
    1.4770   -1.8590   -1.6140 C   0  0  0  0  0  0  0  0  0  0  0  0
    1.8440   -0.8030   -0.9000 N   0  0  0  0  0  0  0  0  0  0  0  0
    3.1970   -0.2550   -0.7500 C   0  0  0  0  0  0  0  0  0  0  0  0
    3.8990   -0.8420    0.4110 C   0  0  0  0  0  0  0  0  0  0  0  0
    5.2910   -0.2910    0.5340 C   0  0  1  0  0  0  0  0  0  0  0  0
    5.9440   -0.6270   -0.6780 O   0  0  0  0  0  0  0  0  0  0  0  0
    5.2310    1.2000    0.6970 C   0  0  0  0  0  0  0  0  0  0  0  0
    6.6190    1.8070    0.8410 C   0  0  1  0  0  0  0  0  0  0  0  0
    6.4030    3.1960    0.9830 O   0  0  0  0  0  0  0  0  0  0  0  0
    7.3370    1.3630    2.0740 C   0  0  0  0  0  0  0  0  0  0  0  0
    8.6650    2.0120    2.1110 C   0  0  0  0  0  0  0  0  0  0  0  0
    9.0260    2.7930    1.2020 O   0  0  0  0  0  0  0  0  0  0  0  0
    9.5780    1.7980    3.1430 O   0  0  0  0  0  0  0  0  0  0  0  0
    2.4260   -2.7050   -2.4130 C   0  0  0  0  0  0  0  0  0  0  0  0
    1.8470   -3.1000   -3.7490 C   0  0  0  0  0  0  0  0  0  0  0  0
    0.6230   -2.2330   -3.9980 C   0  0  0  0  0  0  0  0  0  0  0  0
   -0.5710   -3.1010   -3.6750 C   0  0  0  0  0  0  0  0  0  0  0  0
   -0.7110   -3.1110   -2.1460 C   0  0  0  0  0  0  0  0  0  0  0  0
  1  2  1  0
  2  3  1  0
  3  4  2  0
  3 22  1  0
  4  5  1  0
  4 20  1  0
  5  6  2  0
  5  7  1  0
  7  8  1  0
  8  9  2  0
  8 19  1  0
  9 10  1  0
 10 11  2  0
 11 12  1  0
 11 18  1  0
 12 13  2  0
 12 17  1  0
 13 14  1  0
 14 15  2  0
 15 16  1  0
 16 17  2  0
 18 19  2  0
 20 21  2  0
 20 38  1  0
 21 22  1  0
 21 34  1  0
 22 23  1  0
 23 24  1  0
 24 25  1  0
 25 26  1  6
 25 27  1  0
 27 28  1  0
 28 29  1  1
 28 30  1  0
 30 31  1  0
 31 32  2  0
 31 33  1  0
 34 35  1  0
 35 36  1  0
 36 37  1  0
 37 38  1  0
M  END
