
     RDKit          3D

 33 36  0  0  0  0  0  0  0  0999 V2000
   -4.2210    4.4250    2.3920 C   0  0  0  0  0  0  0  0  0  0  0  0
   -4.3270    3.3610    1.6140 C   0  0  0  0  0  0  0  0  0  0  0  0
   -4.4050    3.4990    0.1310 C   0  0  0  0  0  0  0  0  0  0  0  0
   -3.3000    2.8020   -0.5150 N   0  0  0  0  0  0  0  0  0  0  0  0
   -3.2410    1.3680   -0.4700 C   0  0  0  0  0  0  0  0  0  0  0  0
   -2.0020    0.6590   -0.8310 C   0  0  0  0  0  0  0  0  0  0  0  0
   -0.8420    1.1030    0.0370 C   0  0  1  0  0  0  0  0  0  0  0  0
   -1.0790    0.8500    1.4900 C   0  0  0  0  0  0  0  0  0  0  0  0
   -0.5070   -0.5570    1.6600 C   0  0  0  0  0  0  0  0  0  0  0  0
    0.7000   -0.5100    0.7330 C   0  0  0  0  0  0  0  0  0  0  0  0
    0.3610    0.4150   -0.3100 N   0  0  0  0  0  0  0  0  0  0  0  0
    1.6370    1.4550   -0.7530 S   0  0  1  0  0  0  0  0  0  0  0  0
    1.1850    2.4770   -1.7410 O   0  0  0  0  0  0  0  0  0  0  0  0
    2.0710    2.1900    0.5040 O   0  0  0  0  0  0  0  0  0  0  0  0
    3.0040    0.5580   -1.3710 C   0  0  0  0  0  0  0  0  0  0  0  0
    3.2430    0.1760   -2.6740 C   0  0  0  0  0  0  0  0  0  0  0  0
    4.4110   -0.4890   -2.6950 N   0  0  0  0  0  0  0  0  0  0  0  0
    4.9440   -0.5590   -1.4710 N   0  0  0  0  0  0  0  0  0  0  0  0
    6.1700   -1.1830   -1.1130 C   0  0  0  0  0  0  0  0  0  0  0  0
    7.1150   -0.4850   -0.3930 C   0  0  0  0  0  0  0  0  0  0  0  0
    8.3240   -1.0620   -0.0250 C   0  0  0  0  0  0  0  0  0  0  0  0
    8.6120   -2.3690   -0.3770 C   0  0  0  0  0  0  0  0  0  0  0  0
   10.1410   -3.1170    0.0790 Cl  0  0  0  0  0  0  0  0  0  0  0  0
    7.6680   -3.0640   -1.0950 C   0  0  0  0  0  0  0  0  0  0  0  0
    6.4580   -2.4800   -1.4610 C   0  0  0  0  0  0  0  0  0  0  0  0
    4.0850    0.0810   -0.6630 C   0  0  0  0  0  0  0  0  0  0  0  0
   -4.3320    0.7780   -0.1010 N   0  0  0  0  0  0  0  0  0  0  0  0
   -4.4890   -0.6240    0.0110 C   0  0  0  0  0  0  0  0  0  0  0  0
   -4.8780   -1.3610   -1.0050 C   0  0  0  0  0  0  0  0  0  0  0  0
   -5.0500   -2.8270   -0.9180 C   0  0  0  0  0  0  0  0  0  0  0  0
   -4.7750   -3.3970    0.3570 N   0  0  0  0  0  0  0  0  0  0  0  0
   -4.3760   -2.5380    1.3500 N   0  0  0  0  0  0  0  0  0  0  0  0
   -4.2190   -1.2710    1.2840 C   0  0  0  0  0  0  0  0  0  0  0  0
  1  2  2  0
  2  3  1  0
  3  4  1  0
  4  5  1  0
  5  6  1  0
  5 27  2  3
  7  6  1  6
  7  8  1  0
  7 11  1  0
  8  9  1  0
  9 10  1  0
 10 11  1  0
 12 11  1  1
 12 13  2  0
 12 14  2  0
 12 15  1  0
 15 16  1  0
 15 26  2  0
 16 17  2  0
 17 18  1  0
 18 19  1  0
 18 26  1  0
 19 20  2  0
 19 25  1  0
 20 21  1  0
 21 22  2  0
 22 23  1  0
 22 24  1  0
 24 25  2  0
 27 28  1  0
 28 29  2  0
 28 33  1  0
 29 30  1  0
 30 31  1  0
 31 32  1  0
 32 33  2  0
M  CHG  1  31   1
M  END
