
     RDKit          3D

 32 34  0  0  0  0  0  0  0  0999 V2000
    5.7640   -0.9000    1.2130 C   0  0  0  0  0  0  0  0  0  0  0  0
    5.3800   -0.6250   -0.1790 C   0  0  2  0  0  0  0  0  0  0  0  0
    6.4310   -0.1870   -1.0720 N   0  0  0  0  0  0  0  0  0  0  0  0
    7.7170   -0.1610   -0.4820 C   0  0  1  0  0  0  0  0  0  0  0  0
    8.6580   -1.0800   -1.2910 C   0  0  0  0  0  0  0  0  0  0  0  0
    8.2810    1.2260   -0.5320 C   0  0  1  0  0  0  0  0  0  0  0  0
    7.4200    2.1230    0.1410 O   0  0  0  0  0  0  0  0  0  0  0  0
    8.0240    2.4390    1.3360 N   0  0  0  0  0  0  0  0  0  0  0  0
    9.2340    1.9670    1.4200 N   0  0  0  0  0  0  0  0  0  0  0  0
    9.4640    1.2740    0.1920 O   0  0  0  0  0  0  0  0  0  0  0  0
    4.1730    0.1660   -0.4600 C   0  0  0  0  0  0  0  0  0  0  0  0
    3.9020    1.0150   -1.1310 O   0  0  0  0  0  0  0  0  0  0  0  0
    2.8720   -0.4620    0.5330 N   0  0  0  0  0  0  0  0  0  0  0  0
    1.7840    0.3920   -0.0400 C   0  0  0  0  0  0  0  0  0  0  0  0
    1.8430    1.4600   -0.5400 O   0  0  0  0  0  0  0  0  0  0  0  0
    0.5540   -0.3220    0.1000 N   0  0  0  0  0  0  0  0  0  0  0  0
   -0.7580   -0.2500   -0.1750 C   0  0  0  0  0  0  0  0  0  0  0  0
   -1.7910    0.7490    0.3640 C   0  0  1  0  0  0  0  0  0  0  0  0
   -1.4380    2.0310   -0.0750 N   0  0  0  0  0  0  0  0  0  0  0  0
   -3.0680    0.0930    0.0790 C   0  0  0  0  0  0  0  0  0  0  0  0
   -4.4290    0.4120    0.3270 C   0  0  1  0  0  0  0  0  0  0  0  0
   -4.6170    0.6290    1.8850 C   0  0  0  0  0  0  0  0  0  0  0  0
   -4.1510   -0.4450    2.6670 N   0  0  0  0  0  0  0  0  0  0  0  0
   -5.0100    1.6570   -0.2270 C   0  0  2  0  0  0  0  0  0  0  0  0
   -4.6880    3.0570    0.0990 C   0  0  0  0  0  0  0  0  0  0  0  0
   -6.0820    2.4240    0.4080 C   0  0  0  0  0  0  0  0  0  0  0  0
   -5.3320   -0.6340   -0.0460 N   0  0  0  0  0  0  0  0  0  0  0  0
   -5.7370   -1.7250    0.5930 C   0  0  0  0  0  0  0  0  0  0  0  0
   -5.0190   -3.0060    0.3340 C   0  0  0  0  0  0  0  0  0  0  0  0
   -4.2480   -2.9240   -0.8220 O   0  0  0  0  0  0  0  0  0  0  0  0
   -5.0750   -2.2790   -1.7700 C   0  0  0  0  0  0  0  0  0  0  0  0
   -5.3460   -0.8210   -1.4960 C   0  0  0  0  0  0  0  0  0  0  0  0
  2  1  1  1
  2  3  1  0
  2 11  1  0
  3  4  1  0
  4  5  1  6
  4  6  1  0
  6  7  1  1
  6 10  1  0
  7  8  1  0
  8  9  2  0
  9 10  1  0
 11 12  2  0
 11 13  1  0
 13 14  1  0
 14 15  2  0
 14 16  1  0
 16 17  1  0
 17 18  1  0
 18 19  1  6
 18 20  1  0
 21 20  1  1
 21 22  1  0
 21 24  1  0
 21 27  1  0
 22 23  1  0
 24 25  1  1
 24 26  1  0
 25 26  1  0
 27 28  1  0
 27 32  1  0
 28 29  1  0
 29 30  1  0
 30 31  1  0
 31 32  1  0
M  CHG  3   3   1  19   1  23   1
M  END
