
     RDKit          3D

 41 46  0  0  0  0  0  0  0  0999 V2000
    7.2790   -1.9250    1.3050 N   0  0  0  0  0  0  0  0  0  0  0  0
    6.2040   -1.3810    0.5290 C   0  0  0  0  0  0  0  0  0  0  0  0
    4.9310   -1.8990    0.8460 C   0  0  0  0  0  0  0  0  0  0  0  0
    3.8810   -1.3980    0.1380 C   0  0  0  0  0  0  0  0  0  0  0  0
    4.0010   -0.4350   -0.8470 C   0  0  0  0  0  0  0  0  0  0  0  0
    2.8120    0.0240   -1.5160 C   0  0  0  0  0  0  0  0  0  0  0  0
    2.7710    0.8380   -2.6340 N   0  0  0  0  0  0  0  0  0  0  0  0
    1.4850    1.0830   -2.9600 C   0  0  0  0  0  0  0  0  0  0  0  0
    0.6990    1.7410   -3.8630 N   0  0  0  0  0  0  0  0  0  0  0  0
   -0.5100    1.4920   -3.5030 N   0  0  0  0  0  0  0  0  0  0  0  0
   -0.5730    0.7280   -2.4440 C   0  0  0  0  0  0  0  0  0  0  0  0
   -1.6720    0.2540   -1.7270 N   0  0  0  0  0  0  0  0  0  0  0  0
   -2.7620   -0.2870   -2.0060 C   0  0  0  0  0  0  0  0  0  0  0  0
   -3.7170   -0.6610   -0.9540 C   0  0  0  0  0  0  0  0  0  0  0  0
   -3.3940   -0.4280    0.3620 C   0  0  0  0  0  0  0  0  0  0  0  0
   -2.1630    0.0320    0.8330 N   0  0  0  0  0  0  0  0  0  0  0  0
   -1.9830    0.2690    2.2650 C   0  0  0  0  0  0  0  0  0  0  0  0
   -2.8560    1.4200    2.6620 C   0  0  0  0  0  0  0  0  0  0  0  0
   -3.0970    1.6790    3.9930 C   0  0  0  0  0  0  0  0  0  0  0  0
   -3.8670    2.7360    4.3650 C   0  0  0  0  0  0  0  0  0  0  0  0
   -4.3890    3.5220    3.4030 N   0  0  0  0  0  0  0  0  0  0  0  0
   -4.1330    3.2360    2.0990 C   0  0  0  0  0  0  0  0  0  0  0  0
   -3.3800    2.2050    1.7230 N   0  0  0  0  0  0  0  0  0  0  0  0
   -4.3900   -0.7380    1.2670 N   0  0  0  0  0  0  0  0  0  0  0  0
   -5.5710   -1.2260    0.9020 C   0  0  0  0  0  0  0  0  0  0  0  0
   -6.4610   -1.4980    1.7580 O   0  0  0  0  0  0  0  0  0  0  0  0
   -5.9070   -1.4690   -0.4210 C   0  0  0  0  0  0  0  0  0  0  0  0
   -7.1600   -1.9760   -0.7310 C   0  0  0  0  0  0  0  0  0  0  0  0
   -7.4880   -2.2120   -2.0810 C   0  0  0  0  0  0  0  0  0  0  0  0
   -9.0840   -2.8320   -2.4670 Cl  0  0  0  0  0  0  0  0  0  0  0  0
   -6.5300   -1.9200   -3.0010 C   0  0  0  0  0  0  0  0  0  0  0  0
   -5.2650   -1.4090   -2.7010 C   0  0  0  0  0  0  0  0  0  0  0  0
   -4.9530   -1.1760   -1.3540 C   0  0  0  0  0  0  0  0  0  0  0  0
    0.7250    0.4330   -2.0570 N   0  0  0  0  0  0  0  0  0  0  0  0
    1.5280   -0.1700   -1.2380 N   0  0  0  0  0  0  0  0  0  0  0  0
    5.2730    0.0270   -1.1050 C   0  0  0  0  0  0  0  0  0  0  0  0
    6.3840   -0.4320   -0.4300 C   0  0  0  0  0  0  0  0  0  0  0  0
    7.7600    0.0340   -0.6800 C   0  0  0  0  0  0  0  0  0  0  0  0
    8.1450    0.8660    0.5800 C   0  0  0  0  0  0  0  0  0  0  0  0
    8.5630    1.3530    1.5000 C   0  0  0  0  0  0  0  0  0  0  0  0
   10.0480    0.9430    2.4400 Cl  0  0  0  0  0  0  0  0  0  0  0  0
  1  2  1  0
  2  3  2  0
  2 37  1  0
  3  4  1  0
  4  5  2  0
  5  6  1  0
  5 36  1  0
  6  7  1  0
  6 35  2  0
  7  8  2  0
  8  9  1  0
  8 34  1  0
  9 10  1  0
 10 11  2  0
 11 12  1  0
 11 34  1  0
 12 13  2  3
 13 14  1  0
 14 15  2  0
 14 33  1  0
 15 16  1  0
 15 24  1  0
 16 17  1  0
 17 18  1  0
 18 19  2  0
 18 23  1  0
 19 20  1  0
 20 21  2  0
 21 22  1  0
 22 23  2  0
 24 25  1  0
 25 26  2  0
 25 27  1  0
 27 28  2  0
 27 33  1  0
 28 29  1  0
 29 30  1  0
 29 31  2  0
 31 32  1  0
 32 33  2  0
 34 35  1  0
 36 37  2  0
 37 38  1  0
 38 39  1  0
 39 40  2  3
 40 41  1  0
M  END
