
     RDKit          3D

 41 46  0  0  0  0  0  0  0  0999 V2000
   -6.3500    3.1510    0.3570 N   0  0  0  0  0  0  0  0  0  0  0  0
   -6.6920    1.7670    0.2560 C   0  0  0  0  0  0  0  0  0  0  0  0
   -8.0250    1.4340    0.1460 C   0  0  0  0  0  0  0  0  0  0  0  0
   -8.3410    0.1110    0.0500 C   0  0  0  0  0  0  0  0  0  0  0  0
   -9.7670   -0.3120   -0.0720 C   0  0  0  0  0  0  0  0  0  0  0  0
  -10.1580   -0.3790   -1.5360 C   0  0  0  0  0  0  0  0  0  0  0  0
   -9.9860    0.8890   -2.0790 O   0  0  0  0  0  0  0  0  0  0  0  0
   -7.3930   -0.8280    0.0620 N   0  0  0  0  0  0  0  0  0  0  0  0
   -6.1070   -0.5190    0.1680 C   0  0  0  0  0  0  0  0  0  0  0  0
   -5.1190   -1.5430    0.1780 N   0  0  0  0  0  0  0  0  0  0  0  0
   -3.7520   -1.1580    0.2930 C   0  0  0  0  0  0  0  0  0  0  0  0
   -3.2850    0.0800    0.3940 N   0  0  0  0  0  0  0  0  0  0  0  0
   -1.9470    0.1070    0.4860 C   0  0  0  0  0  0  0  0  0  0  0  0
   -1.0340    1.1290    0.6040 C   0  0  0  0  0  0  0  0  0  0  0  0
    0.3400    0.8640    0.6810 C   0  0  0  0  0  0  0  0  0  0  0  0
    1.2230    2.0060    0.8070 C   0  0  0  0  0  0  0  0  0  0  0  0
    0.8110    3.3150    0.8790 N   0  0  0  0  0  0  0  0  0  0  0  0
    1.8450    4.1170    0.9850 N   0  0  0  0  0  0  0  0  0  0  0  0
    2.9550    3.3630    0.9850 C   0  0  0  0  0  0  0  0  0  0  0  0
    2.5490    2.0490    0.8730 N   0  0  0  0  0  0  0  0  0  0  0  0
    3.4910    0.9920    0.8400 C   0  0  0  0  0  0  0  0  0  0  0  0
    4.0150    0.5220   -0.3730 C   0  0  0  0  0  0  0  0  0  0  0  0
    4.9490   -0.4930   -0.3850 C   0  0  0  0  0  0  0  0  0  0  0  0
    5.4040   -1.0830    0.7850 C   0  0  0  0  0  0  0  0  0  0  0  0
    6.3560   -2.1260    0.7720 N   0  0  0  0  0  0  0  0  0  0  0  0
    6.9420   -2.6280   -0.4470 C   0  0  0  0  0  0  0  0  0  0  0  0
    7.7270   -1.5740   -1.1410 C   0  0  0  0  0  0  0  0  0  0  0  0
    8.1740   -1.8200   -2.4300 C   0  0  0  0  0  0  0  0  0  0  0  0
    8.9090   -0.8740   -3.1070 C   0  0  0  0  0  0  0  0  0  0  0  0
    9.2160    0.3360   -2.5270 C   0  0  0  0  0  0  0  0  0  0  0  0
   10.1440    1.4980   -3.4210 Cl  0  0  0  0  0  0  0  0  0  0  0  0
    8.7670    0.5590   -1.2600 N   0  0  0  0  0  0  0  0  0  0  0  0
    8.0510   -0.3570   -0.5920 C   0  0  0  0  0  0  0  0  0  0  0  0
    4.8980   -0.6310    1.9920 C   0  0  0  0  0  0  0  0  0  0  0  0
    5.4400   -1.3450    3.5180 Cl  0  0  0  0  0  0  0  0  0  0  0  0
    3.9750    0.3740    1.9800 C   0  0  0  0  0  0  0  0  0  0  0  0
    0.7000   -0.4440    0.6310 C   0  0  0  0  0  0  0  0  0  0  0  0
   -0.2240   -1.4840    0.5100 C   0  0  0  0  0  0  0  0  0  0  0  0
   -1.5580   -1.2100    0.4370 C   0  0  0  0  0  0  0  0  0  0  0  0
   -2.6720   -1.9720    0.3190 N   0  0  0  0  0  0  0  0  0  0  0  0
   -5.7730    0.7870    0.2640 N   0  0  0  0  0  0  0  0  0  0  0  0
  1  2  1  0
  2  3  2  0
  2 41  1  0
  3  4  1  0
  4  5  1  0
  4  8  2  0
  5  6  1  0
  6  7  1  0
  8  9  1  0
  9 10  1  0
  9 41  2  0
 10 11  1  0
 11 12  2  0
 11 40  1  0
 12 13  1  0
 13 14  2  0
 13 39  1  0
 14 15  1  0
 15 16  1  0
 15 37  2  0
 16 17  2  0
 16 20  1  0
 17 18  1  0
 18 19  2  0
 19 20  1  0
 20 21  1  0
 21 22  2  0
 21 36  1  0
 22 23  1  0
 23 24  2  0
 24 25  1  0
 24 34  1  0
 25 26  1  0
 26 27  1  0
 27 28  2  0
 27 33  1  0
 28 29  1  0
 29 30  2  0
 30 31  1  0
 30 32  1  0
 32 33  2  0
 34 35  1  0
 34 36  2  0
 37 38  1  0
 38 39  2  0
 39 40  1  0
M  END
