
     RDKit          3D

 41 45  0  0  0  0  0  0  0  0999 V2000
   -3.7780    4.3700    1.5880 C   0  0  0  0  0  0  0  0  0  0  0  0
   -3.4820    3.5510    2.5780 C   0  0  0  0  0  0  0  0  0  0  0  0
   -2.4510    2.4950    2.3550 C   0  0  0  0  0  0  0  0  0  0  0  0
   -3.1480    0.8480    2.6000 S   0  0  0  0  0  0  0  0  0  0  0  0
   -4.3820    0.4790    1.3120 C   0  0  0  0  0  0  0  0  0  0  0  0
   -3.7220    0.2770   -0.0250 C   0  0  0  0  0  0  0  0  0  0  0  0
   -2.3270    0.2590   -0.0850 C   0  0  0  0  0  0  0  0  0  0  0  0
   -1.6620    0.0360   -1.2410 C   0  0  0  0  0  0  0  0  0  0  0  0
   -0.1640    0.0140   -1.3330 C   0  0  0  0  0  0  0  0  0  0  0  0
    0.7170   -0.1250   -2.0810 N   0  0  0  0  0  0  0  0  0  0  0  0
    2.0030   -0.0870   -1.8650 C   0  0  0  0  0  0  0  0  0  0  0  0
    3.0610   -0.2530   -2.7720 C   0  0  0  0  0  0  0  0  0  0  0  0
    4.3520   -0.1740   -2.3400 C   0  0  0  0  0  0  0  0  0  0  0  0
    4.7370    0.0630   -1.0410 C   0  0  0  0  0  0  0  0  0  0  0  0
    6.1290    0.1450   -0.6310 C   0  0  0  0  0  0  0  0  0  0  0  0
    6.9760    0.1760   -1.5510 O   0  0  0  0  0  0  0  0  0  0  0  0
    6.5690    0.1890    0.6950 N   0  0  0  0  0  0  0  0  0  0  0  0
    7.8820    0.2730    1.1850 C   0  0  0  0  0  0  0  0  0  0  0  0
    8.0780    0.1540    2.5520 C   0  0  0  0  0  0  0  0  0  0  0  0
    9.3190    0.2300    3.1300 C   0  0  0  0  0  0  0  0  0  0  0  0
   10.3690    0.4240    2.3420 N   0  0  0  0  0  0  0  0  0  0  0  0
   10.2870    0.5530    0.9900 C   0  0  0  0  0  0  0  0  0  0  0  0
   11.4790    0.7530    0.3010 N   0  0  0  0  0  0  0  0  0  0  0  0
   11.6670    0.9180   -1.0920 C   0  0  0  0  0  0  0  0  0  0  0  0
   10.6980    0.8950   -1.8530 O   0  0  0  0  0  0  0  0  0  0  0  0
    9.0120    0.4720    0.4300 C   0  0  0  0  0  0  0  0  0  0  0  0
    3.7020    0.2320   -0.1160 C   0  0  0  0  0  0  0  0  0  0  0  0
    2.3820    0.1460   -0.5850 C   0  0  0  0  0  0  0  0  0  0  0  0
    0.7890    0.3030    0.2570 S   0  0  0  0  0  0  0  0  0  0  0  0
   -2.3730   -0.1760   -2.3750 C   0  0  0  0  0  0  0  0  0  0  0  0
   -3.7400   -0.1750   -2.4020 C   0  0  0  0  0  0  0  0  0  0  0  0
   -4.4300    0.0600   -1.1820 C   0  0  0  0  0  0  0  0  0  0  0  0
   -5.8030    0.0650   -1.2130 O   0  0  0  0  0  0  0  0  0  0  0  0
   -6.7330   -0.6940   -0.5830 C   0  0  0  0  0  0  0  0  0  0  0  0
   -7.4880   -0.2250    0.4970 C   0  0  0  0  0  0  0  0  0  0  0  0
   -8.4230   -1.0230    1.1130 C   0  0  0  0  0  0  0  0  0  0  0  0
   -8.6520   -2.3080    0.6910 C   0  0  0  0  0  0  0  0  0  0  0  0
   -7.9330   -2.8110   -0.3670 C   0  0  0  0  0  0  0  0  0  0  0  0
   -8.1410   -4.1150   -0.8220 O   0  0  0  0  0  0  0  0  0  0  0  0
   -9.0980   -4.9140   -0.1840 C   0  0  0  0  0  0  0  0  0  0  0  0
   -7.0060   -2.0080   -0.9720 C   0  0  0  0  0  0  0  0  0  0  0  0
  1  2  2  0
  2  3  1  0
  3  4  1  0
  4  5  1  0
  5  6  1  0
  6  7  2  0
  6 32  1  0
  7  8  1  0
  8  9  1  0
  8 30  2  0
  9 10  2  0
  9 29  1  0
 10 11  1  0
 11 12  2  0
 11 28  1  0
 12 13  1  0
 13 14  2  0
 14 15  1  0
 14 27  1  0
 15 16  2  0
 15 17  1  0
 17 18  1  0
 18 19  2  0
 18 26  1  0
 19 20  1  0
 20 21  2  0
 21 22  1  0
 22 23  1  0
 22 26  2  0
 23 24  1  0
 24 25  2  0
 27 28  2  0
 28 29  1  0
 30 31  1  0
 31 32  2  0
 32 33  1  0
 33 34  1  0
 34 35  2  0
 34 41  1  0
 35 36  1  0
 36 37  2  0
 37 38  1  0
 38 39  1  0
 38 41  2  0
 39 40  1  0
M  END
