
     RDKit          3D

 41 47  0  0  0  0  0  0  0  0999 V2000
    1.8840   -4.0860   -1.4010 C   0  0  0  0  0  0  0  0  0  0  0  0
    2.4080   -2.7160   -1.2330 C   0  0  0  0  0  0  0  0  0  0  0  0
    1.6010   -1.7290   -0.8020 N   0  0  0  0  0  0  0  0  0  0  0  0
    1.9990   -0.4720   -0.6260 C   0  0  0  0  0  0  0  0  0  0  0  0
    1.1280    0.5170   -0.1670 N   0  0  0  0  0  0  0  0  0  0  0  0
   -0.2200    0.3580    0.1590 C   0  0  0  0  0  0  0  0  0  0  0  0
   -0.9350   -0.7840    0.0540 C   0  0  0  0  0  0  0  0  0  0  0  0
   -2.2740   -0.8400    0.4260 C   0  0  0  0  0  0  0  0  0  0  0  0
   -2.8930    0.2700    0.9080 C   0  0  0  0  0  0  0  0  0  0  0  0
   -4.2680    0.2470    1.3030 N   0  0  0  0  0  0  0  0  0  0  0  0
   -5.0230   -0.8880    1.1600 N   0  0  0  0  0  0  0  0  0  0  0  0
   -6.2570   -1.0270    1.0100 C   0  0  0  0  0  0  0  0  0  0  0  0
   -6.9280   -2.3760    0.8680 C   0  0  0  0  0  0  0  0  0  0  0  0
   -8.2420   -2.1040    1.4420 N   0  0  0  0  0  0  0  0  0  0  0  0
   -8.5740   -0.7410    1.1960 C   0  0  0  0  0  0  0  0  0  0  0  0
   -9.7540   -0.0330    1.1760 C   0  0  0  0  0  0  0  0  0  0  0  0
   -9.7760    1.3170    0.8980 C   0  0  0  0  0  0  0  0  0  0  0  0
  -11.2760    2.2060    0.8750 Cl  0  0  0  0  0  0  0  0  0  0  0  0
   -8.6000    1.9850    0.6330 C   0  0  0  0  0  0  0  0  0  0  0  0
   -8.5290    3.4310    0.3300 C   0  0  0  0  0  0  0  0  0  0  0  0
  -10.1520    4.1330    0.4640 Cl  0  0  0  0  0  0  0  0  0  0  0  0
   -7.4060    1.2700    0.6540 C   0  0  0  0  0  0  0  0  0  0  0  0
   -7.3760   -0.0760    0.9300 C   0  0  0  0  0  0  0  0  0  0  0  0
   -2.1510    1.3880    0.9970 N   0  0  0  0  0  0  0  0  0  0  0  0
   -0.8930    1.4510    0.6510 N   0  0  0  0  0  0  0  0  0  0  0  0
    3.3160   -0.1700   -0.9040 N   0  0  0  0  0  0  0  0  0  0  0  0
    4.1590   -1.1460   -1.3420 C   0  0  0  0  0  0  0  0  0  0  0  0
    5.5910   -0.7870   -1.6380 C   0  0  0  0  0  0  0  0  0  0  0  0
    5.8100    0.6650   -1.3990 C   0  0  0  0  0  0  0  0  0  0  0  0
    5.9230    1.6230   -2.3590 C   0  0  0  0  0  0  0  0  0  0  0  0
    6.1120    2.8100   -1.7550 N   0  0  0  0  0  0  0  0  0  0  0  0
    6.1170    2.6120   -0.4410 N   0  0  0  0  0  0  0  0  0  0  0  0
    5.9340    1.3040   -0.1880 C   0  0  0  0  0  0  0  0  0  0  0  0
    5.9010    0.8160    1.2130 C   0  0  0  0  0  0  0  0  0  0  0  0
    6.9890    1.5970    1.9460 C   0  0  0  0  0  0  0  0  0  0  0  0
    6.5950    3.0390    1.9330 C   0  0  0  0  0  0  0  0  0  0  0  0
    6.2860    3.6050    0.5910 C   0  0  0  0  0  0  0  0  0  0  0  0
    3.7480   -2.4380   -1.5210 C   0  0  0  0  0  0  0  0  0  0  0  0
    4.5910   -3.4970   -1.9720 C   0  0  0  0  0  0  0  0  0  0  0  0
    5.9640   -3.4340   -2.3010 N   0  0  0  0  0  0  0  0  0  0  0  0
    4.0950   -4.6800   -2.1140 O   0  0  0  0  0  0  0  0  0  0  0  0
  1  2  1  0
  2  3  2  0
  2 38  1  0
  3  4  1  0
  4  5  1  0
  4 26  2  0
  5  6  1  0
  6  7  2  0
  6 25  1  0
  7  8  1  0
  8  9  2  0
  9 10  1  0
  9 24  1  0
 10 11  1  0
 11 12  2  3
 12 13  1  0
 12 23  1  0
 13 14  1  0
 14 15  1  0
 15 16  2  0
 15 23  1  0
 16 17  1  0
 17 18  1  0
 17 19  2  0
 19 20  1  0
 19 22  1  0
 20 21  1  0
 22 23  2  0
 24 25  2  0
 26 27  1  0
 27 28  1  0
 27 38  2  0
 28 29  1  0
 29 30  1  0
 29 33  2  0
 30 31  2  0
 31 32  1  0
 32 33  1  0
 32 37  1  0
 33 34  1  0
 34 35  1  0
 35 36  1  0
 36 37  1  0
 38 39  1  0
 39 40  1  0
 39 41  2  0
 21 18  1  0
M  END
