
     RDKit          3D

 42 45  0  0  0  0  0  0  0  0999 V2000
   -0.6960    1.0270   -3.7180 C   0  0  0  0  0  0  0  0  0  0  0  0
   -0.8180    1.5050   -2.2580 C   0  0  2  0  0  0  0  0  0  0  0  0
    0.1620    2.5680   -2.0210 C   0  0  0  0  0  0  0  0  0  0  0  0
   -0.8630    0.4150   -1.3190 N   0  0  0  0  0  0  0  0  0  0  0  0
    0.0100   -0.6120   -1.2270 C   0  0  0  0  0  0  0  0  0  0  0  0
    1.2330   -0.7950   -1.9960 C   0  0  0  0  0  0  0  0  0  0  0  0
    2.4740   -0.4160   -1.1510 C   0  0  0  0  0  0  0  0  0  0  0  0
    3.7310   -0.5960   -1.9160 C   0  0  1  0  0  0  0  0  0  0  0  0
    3.7680    0.1960   -3.0510 O   0  0  0  0  0  0  0  0  0  0  0  0
    4.9130   -0.3700   -1.0390 C   0  0  0  0  0  0  0  0  0  0  0  0
    5.0340    0.9720   -0.4100 C   0  0  1  0  0  0  0  0  0  0  0  0
    3.9740    1.3180    0.4310 O   0  0  0  0  0  0  0  0  0  0  0  0
    6.2740    0.9910    0.4580 C   0  0  0  0  0  0  0  0  0  0  0  0
    6.2330   -0.0200    1.5350 C   0  0  0  0  0  0  0  0  0  0  0  0
    6.6020   -1.2240    1.4030 O   0  0  0  0  0  0  0  0  0  0  0  0
    5.7650    0.3000    2.8210 O   0  0  0  0  0  0  0  0  0  0  0  0
   -0.4060   -1.5090   -0.2250 C   0  0  0  0  0  0  0  0  0  0  0  0
    0.2810   -2.7390    0.1660 C   0  0  0  0  0  0  0  0  0  0  0  0
    0.8300   -2.8500    1.4140 C   0  0  0  0  0  0  0  0  0  0  0  0
    1.4790   -3.9990    1.8080 C   0  0  0  0  0  0  0  0  0  0  0  0
    1.5760   -5.0570    0.9270 C   0  0  0  0  0  0  0  0  0  0  0  0
    2.2140   -6.2140    1.2840 F   0  0  0  0  0  0  0  0  0  0  0  0
    1.0340   -4.9630   -0.3230 C   0  0  0  0  0  0  0  0  0  0  0  0
    0.3890   -3.8100   -0.7020 C   0  0  0  0  0  0  0  0  0  0  0  0
   -1.5480   -0.9920    0.2820 C   0  0  0  0  0  0  0  0  0  0  0  0
   -2.3210   -1.6070    1.3530 C   0  0  0  0  0  0  0  0  0  0  0  0
   -2.8930   -2.8440    1.1880 C   0  0  0  0  0  0  0  0  0  0  0  0
   -3.6370   -3.4470    2.2080 C   0  0  0  0  0  0  0  0  0  0  0  0
   -3.8020   -2.7990    3.3940 C   0  0  0  0  0  0  0  0  0  0  0  0
   -4.5290   -3.3690    4.4120 F   0  0  0  0  0  0  0  0  0  0  0  0
   -3.2380   -1.5580    3.5840 C   0  0  0  0  0  0  0  0  0  0  0  0
   -2.5000   -0.9710    2.5580 C   0  0  0  0  0  0  0  0  0  0  0  0
   -1.8050    0.1880   -0.4040 C   0  0  0  0  0  0  0  0  0  0  0  0
   -2.9440    1.0250    0.0120 C   0  0  0  0  0  0  0  0  0  0  0  0
   -3.9820    0.3990    0.4530 O   0  0  0  0  0  0  0  0  0  0  0  0
   -3.0080    2.4040   -0.0190 N   0  0  0  0  0  0  0  0  0  0  0  0
   -4.1350    3.1650    0.3900 C   0  0  0  0  0  0  0  0  0  0  0  0
   -4.2590    4.4860   -0.0790 C   0  0  0  0  0  0  0  0  0  0  0  0
   -5.2960    5.3040    0.2800 C   0  0  0  0  0  0  0  0  0  0  0  0
   -6.2900    4.8720    1.1340 C   0  0  0  0  0  0  0  0  0  0  0  0
   -6.1720    3.5890    1.5920 C   0  0  0  0  0  0  0  0  0  0  0  0
   -5.1170    2.7400    1.2340 C   0  0  0  0  0  0  0  0  0  0  0  0
  2  1  1  6
  2  3  1  0
  2  4  1  0
  4  5  1  0
  4 33  1  0
  5  6  1  0
  5 17  2  0
  6  7  1  0
  7  8  1  0
  8  9  1  6
  8 10  1  0
 10 11  1  0
 11 12  1  1
 11 13  1  0
 13 14  1  0
 14 15  2  0
 14 16  1  0
 17 18  1  0
 17 25  1  0
 18 19  2  0
 18 24  1  0
 19 20  1  0
 20 21  2  0
 21 22  1  0
 21 23  1  0
 23 24  2  0
 25 26  1  0
 25 33  2  0
 26 27  2  0
 26 32  1  0
 27 28  1  0
 28 29  2  0
 29 30  1  0
 29 31  1  0
 31 32  2  0
 33 34  1  0
 34 35  2  0
 34 36  1  0
 36 37  1  0
 37 38  2  0
 37 42  1  0
 38 39  1  0
 39 40  2  0
 40 41  1  0
 41 42  2  0
M  END
