
     RDKit          3D

 41 45  0  0  0  0  0  0  0  0999 V2000
   -4.8430    5.4780   -0.7540 C   0  0  0  0  0  0  0  0  0  0  0  0
   -4.3420    4.0550   -0.7390 C   0  0  0  0  0  0  0  0  0  0  0  0
   -3.0320    3.9900   -0.1660 N   0  0  0  0  0  0  0  0  0  0  0  0
   -2.3080    2.7610   -0.0270 C   0  0  0  0  0  0  0  0  0  0  0  0
   -2.8420    1.5580   -0.4450 C   0  0  0  0  0  0  0  0  0  0  0  0
   -2.2220    0.3720   -0.3470 N   0  0  0  0  0  0  0  0  0  0  0  0
   -2.8280   -0.7610   -0.9560 C   0  0  0  0  0  0  0  0  0  0  0  0
   -2.8820   -2.1100   -0.5010 C   0  0  0  0  0  0  0  0  0  0  0  0
   -2.5300   -2.7460    0.5660 C   0  0  0  0  0  0  0  0  0  0  0  0
   -2.7260   -4.2770    0.7290 C   0  0  0  0  0  0  0  0  0  0  0  0
   -1.5440   -4.6190    1.5650 C   0  0  0  0  0  0  0  0  0  0  0  0
   -1.0990   -3.3650    2.2290 C   0  0  0  0  0  0  0  0  0  0  0  0
   -2.0580   -2.3530    1.8450 N   0  0  0  0  0  0  0  0  0  0  0  0
   -2.4960   -1.1980    2.5830 C   0  0  0  0  0  0  0  0  0  0  0  0
   -3.4190   -0.4760   -2.1450 C   0  0  0  0  0  0  0  0  0  0  0  0
   -4.1110   -1.3540   -3.0140 C   0  0  0  0  0  0  0  0  0  0  0  0
   -4.6520   -0.9220   -4.1790 C   0  0  0  0  0  0  0  0  0  0  0  0
   -4.5040    0.5170   -4.5340 C   0  0  0  0  0  0  0  0  0  0  0  0
   -5.5060   -2.0010   -5.2530 Cl  0  0  0  0  0  0  0  0  0  0  0  0
   -1.0000    0.3870    0.1970 C   0  0  0  0  0  0  0  0  0  0  0  0
   -0.2720   -0.6660    0.2690 N   0  0  0  0  0  0  0  0  0  0  0  0
    1.0060   -0.6270    0.8430 C   0  0  0  0  0  0  0  0  0  0  0  0
    1.3460   -0.6060    2.1630 N   0  0  0  0  0  0  0  0  0  0  0  0
    2.6610   -0.5700    2.2640 N   0  0  0  0  0  0  0  0  0  0  0  0
    3.2130   -0.5670    1.0530 N   0  0  0  0  0  0  0  0  0  0  0  0
    4.4240   -0.5410    0.4090 C   0  0  0  0  0  0  0  0  0  0  0  0
    5.6850   -0.4990    1.0740 N   0  0  0  0  0  0  0  0  0  0  0  0
    6.9360   -0.4750    0.4310 C   0  0  0  0  0  0  0  0  0  0  0  0
    7.0830   -0.4970   -0.9430 C   0  0  0  0  0  0  0  0  0  0  0  0
    8.3540   -0.4720   -1.5070 C   0  0  0  0  0  0  0  0  0  0  0  0
    8.4660   -0.5020   -3.2560 Cl  0  0  0  0  0  0  0  0  0  0  0  0
    9.4630   -0.4270   -0.7260 C   0  0  0  0  0  0  0  0  0  0  0  0
    9.3370   -0.4050    0.6370 C   0  0  0  0  0  0  0  0  0  0  0  0
    8.0770   -0.4290    1.2270 C   0  0  0  0  0  0  0  0  0  0  0  0
    7.9900   -0.4050    2.6000 O   0  0  0  0  0  0  0  0  0  0  0  0
    4.1080   -0.5610   -0.8890 N   0  0  0  0  0  0  0  0  0  0  0  0
    2.8000   -0.5980   -1.0630 N   0  0  0  0  0  0  0  0  0  0  0  0
    2.2110   -0.6020    0.1690 C   0  0  0  0  0  0  0  0  0  0  0  0
   -0.3960    1.5680    0.6450 C   0  0  0  0  0  0  0  0  0  0  0  0
   -1.0540    2.7440    0.5300 C   0  0  0  0  0  0  0  0  0  0  0  0
   -0.5090    4.0000    0.9630 N   0  0  0  0  0  0  0  0  0  0  0  0
  1  2  1  0
  2  3  1  0
  3  4  1  0
  4  5  2  0
  4 40  1  0
  5  6  1  0
  6  7  1  0
  6 20  1  0
  7  8  1  0
  7 15  2  3
  8  9  2  3
  9 10  1  0
  9 13  1  0
 10 11  1  0
 11 12  1  0
 12 13  1  0
 13 14  1  0
 15 16  1  0
 16 17  2  3
 17 18  1  0
 17 19  1  0
 20 21  2  3
 20 39  1  0
 21 22  1  0
 22 23  2  0
 22 38  1  0
 23 24  1  0
 24 25  1  0
 25 26  1  0
 25 38  1  0
 26 27  1  0
 26 36  2  0
 27 28  1  0
 28 29  2  0
 28 34  1  0
 29 30  1  0
 30 31  1  0
 30 32  2  0
 32 33  1  0
 33 34  2  0
 34 35  1  0
 36 37  1  0
 37 38  2  0
 39 40  2  0
 40 41  1  0
M  END
