
     RDKit          3D

 41 46  0  0  0  0  0  0  0  0999 V2000
   -3.2170   -6.1590    0.2860 O   0  0  0  0  0  0  0  0  0  0  0  0
   -4.1310   -5.2960    0.2900 C   0  0  0  0  0  0  0  0  0  0  0  0
   -3.8680   -3.9180    0.6250 N   0  0  0  0  0  0  0  0  0  0  0  0
   -2.5320   -3.4880    0.9680 C   0  0  0  0  0  0  0  0  0  0  0  0
   -2.5920   -2.0160    1.2630 C   0  0  1  0  0  0  0  0  0  0  0  0
   -1.2010   -1.4770    1.6420 C   0  0  0  0  0  0  0  0  0  0  0  0
   -1.2490   -0.0860    1.9190 N   0  0  0  0  0  0  0  0  0  0  0  0
   -1.4600    0.9390    0.9350 C   0  0  0  0  0  0  0  0  0  0  0  0
   -0.8230    0.9010   -0.1430 N   0  0  0  0  0  0  0  0  0  0  0  0
    0.1330    0.0040   -0.6330 C   0  0  0  0  0  0  0  0  0  0  0  0
    1.3870   -0.0280   -0.1910 C   0  0  0  0  0  0  0  0  0  0  0  0
    1.8310    1.1220    1.0660 Cl  0  0  0  0  0  0  0  0  0  0  0  0
    2.3330   -0.9700   -0.7340 C   0  0  0  0  0  0  0  0  0  0  0  0
    2.1020   -1.8780   -1.7330 C   0  0  0  0  0  0  0  0  0  0  0  0
    3.0740   -2.7730   -2.1990 C   0  0  0  0  0  0  0  0  0  0  0  0
    2.6680   -3.8960   -3.4800 Cl  0  0  0  0  0  0  0  0  0  0  0  0
    4.3110   -2.7120   -1.6050 C   0  0  0  0  0  0  0  0  0  0  0  0
    4.6110   -1.8210   -0.5940 C   0  0  0  0  0  0  0  0  0  0  0  0
    3.6210   -0.9650   -0.1740 C   0  0  0  0  0  0  0  0  0  0  0  0
    4.1580   -0.2140    0.8030 N   0  0  0  0  0  0  0  0  0  0  0  0
    5.4520   -0.5550    1.0250 C   0  0  0  0  0  0  0  0  0  0  0  0
    6.4290   -0.1090    1.8930 C   0  0  0  0  0  0  0  0  0  0  0  0
    7.6930   -0.6580    1.8970 C   0  0  0  0  0  0  0  0  0  0  0  0
    7.9350   -1.6750    0.9930 C   0  0  0  0  0  0  0  0  0  0  0  0
    6.9340   -2.0930    0.1430 C   0  0  0  0  0  0  0  0  0  0  0  0
    5.7030   -1.5510    0.1460 N   0  0  0  0  0  0  0  0  0  0  0  0
   -2.3670    2.0080    1.1840 N   0  0  0  0  0  0  0  0  0  0  0  0
   -2.4050    3.2120    0.4670 C   0  0  0  0  0  0  0  0  0  0  0  0
   -3.5170    4.0460    0.6500 C   0  0  0  0  0  0  0  0  0  0  0  0
   -3.6470    5.2560    0.0040 C   0  0  0  0  0  0  0  0  0  0  0  0
   -2.6590    5.6890   -0.8620 C   0  0  0  0  0  0  0  0  0  0  0  0
   -2.5120    6.8110   -1.6240 N   0  0  0  0  0  0  0  0  0  0  0  0
   -1.3370    6.7070   -2.2830 C   0  0  0  0  0  0  0  0  0  0  0  0
   -0.7760    5.5420   -1.9280 N   0  0  0  0  0  0  0  0  0  0  0  0
   -1.5700    4.8950   -1.0530 C   0  0  0  0  0  0  0  0  0  0  0  0
   -1.4560    3.6770   -0.3930 C   0  0  0  0  0  0  0  0  0  0  0  0
   -3.1740   -1.3200    0.1040 C   0  0  0  0  0  0  0  0  0  0  0  0
   -2.8460   -1.3030   -1.1830 N   0  0  0  0  0  0  0  0  0  0  0  0
   -3.6630   -0.5200   -1.8980 C   0  0  0  0  0  0  0  0  0  0  0  0
   -4.5540   -0.0190   -0.9980 N   0  0  0  0  0  0  0  0  0  0  0  0
   -4.2570   -0.4980    0.1860 N   0  0  0  0  0  0  0  0  0  0  0  0
  1  2  2  0
  2  3  1  0
  3  4  1  0
  5  4  1  6
  5  6  1  0
  5 37  1  0
  6  7  1  0
  7  8  1  0
  8  9  2  3
  8 27  1  0
  9 10  1  0
 10 11  2  3
 11 12  1  0
 11 13  1  0
 13 14  2  0
 13 19  1  0
 14 15  1  0
 15 16  1  0
 15 17  2  0
 17 18  1  0
 18 19  2  0
 18 26  1  0
 19 20  1  0
 20 21  2  0
 21 22  1  0
 21 26  1  0
 22 23  2  0
 23 24  1  0
 24 25  2  0
 25 26  1  0
 27 28  1  0
 28 29  2  0
 28 36  1  0
 29 30  1  0
 30 31  2  0
 31 32  1  0
 31 35  1  0
 32 33  1  0
 33 34  2  0
 34 35  1  0
 35 36  2  0
 37 38  1  0
 37 41  2  0
 38 39  2  0
 39 40  1  0
 40 41  1  0
M  END
