
     RDKit          3D

 41 46  0  0  0  0  0  0  0  0999 V2000
   -3.4610    4.6710   -0.7550 C   0  0  0  0  0  0  0  0  0  0  0  0
   -2.1900    4.1850   -0.3060 N   0  0  0  0  0  0  0  0  0  0  0  0
   -1.7960    2.8240   -0.4360 C   0  0  0  0  0  0  0  0  0  0  0  0
   -0.5040    2.4710   -0.1040 C   0  0  0  0  0  0  0  0  0  0  0  0
   -0.0600    1.1570   -0.2540 C   0  0  0  0  0  0  0  0  0  0  0  0
    1.2670    0.9420    0.1820 N   0  0  0  0  0  0  0  0  0  0  0  0
    2.1980    0.1680   -0.5630 C   0  0  0  0  0  0  0  0  0  0  0  0
    1.8670   -0.3580   -1.6200 O   0  0  0  0  0  0  0  0  0  0  0  0
    3.5340    0.0030   -0.0800 N   0  0  0  0  0  0  0  0  0  0  0  0
    4.5740   -0.7320   -0.7430 C   0  0  2  0  0  0  0  0  0  0  0  0
    5.8270   -0.8850    0.0880 C   0  0  0  0  0  0  0  0  0  0  0  0
    7.0670   -0.4530   -0.2730 N   0  0  0  0  0  0  0  0  0  0  0  0
    7.9830   -0.7590    0.6710 C   0  0  0  0  0  0  0  0  0  0  0  0
    9.4090   -0.4700    0.6870 C   0  0  0  0  0  0  0  0  0  0  0  0
   10.0140    0.2740   -0.2960 C   0  0  0  0  0  0  0  0  0  0  0  0
   11.3940    0.5120   -0.3010 C   0  0  0  0  0  0  0  0  0  0  0  0
   12.1350    0.0000    0.6770 N   0  0  0  0  0  0  0  0  0  0  0  0
   11.5890   -0.7250    1.6500 C   0  0  0  0  0  0  0  0  0  0  0  0
   12.5940   -1.3830    2.8930 Cl  0  0  0  0  0  0  0  0  0  0  0  0
   10.2110   -0.9890    1.6920 C   0  0  0  0  0  0  0  0  0  0  0  0
    7.2760   -1.3970    1.6350 N   0  0  0  0  0  0  0  0  0  0  0  0
    5.9880   -1.4670    1.2780 N   0  0  0  0  0  0  0  0  0  0  0  0
    4.8800   -0.0960   -2.1390 C   0  0  0  0  0  0  0  0  0  0  0  0
    4.4450   -1.4910   -1.9770 C   0  0  0  0  0  0  0  0  0  0  0  0
   -0.9120    0.1980   -0.7360 C   0  0  0  0  0  0  0  0  0  0  0  0
   -2.2100    0.5470   -1.0700 C   0  0  0  0  0  0  0  0  0  0  0  0
   -3.1560   -0.3760   -1.6080 N   0  0  0  0  0  0  0  0  0  0  0  0
   -4.4100   -0.5690   -0.9290 C   0  0  0  0  0  0  0  0  0  0  0  0
   -5.4200   -1.3660   -1.3110 N   0  0  0  0  0  0  0  0  0  0  0  0
   -6.4050   -1.3350   -0.3960 C   0  0  0  0  0  0  0  0  0  0  0  0
   -5.9970   -0.4990    0.5810 N   0  0  0  0  0  0  0  0  0  0  0  0
   -4.8020   -0.0490    0.2430 N   0  0  0  0  0  0  0  0  0  0  0  0
   -6.6750   -0.1810    1.7850 C   0  0  0  0  0  0  0  0  0  0  0  0
   -6.1170    0.9680    2.5230 C   0  0  0  0  0  0  0  0  0  0  0  0
   -7.7040   -0.7840    2.3080 C   0  0  0  0  0  0  0  0  0  0  0  0
   -8.5390   -1.9400    1.9380 C   0  0  0  0  0  0  0  0  0  0  0  0
   -8.5250   -2.2820    0.5160 C   0  0  0  0  0  0  0  0  0  0  0  0
   -7.6590   -2.0400   -0.4460 C   0  0  0  0  0  0  0  0  0  0  0  0
   -8.0500   -2.5860   -1.7990 C   0  0  0  0  0  0  0  0  0  0  0  0
   -8.1970   -1.2210   -2.9300 Cl  0  0  0  0  0  0  0  0  0  0  0  0
   -2.6430    1.8640   -0.9170 C   0  0  0  0  0  0  0  0  0  0  0  0
  1  2  1  0
  2  3  1  0
  3  4  2  0
  3 41  1  0
  4  5  1  0
  5  6  1  0
  5 25  2  0
  6  7  1  0
  7  8  2  0
  7  9  1  0
 10  9  1  1
 10 11  1  0
 10 23  1  0
 10 24  1  0
 11 12  2  0
 11 22  1  0
 12 13  1  0
 13 14  1  0
 13 21  2  0
 14 15  2  0
 14 20  1  0
 15 16  1  0
 16 17  2  0
 17 18  1  0
 18 19  1  0
 18 20  2  0
 21 22  1  0
 23 24  1  0
 25 26  1  0
 26 27  1  0
 26 41  2  0
 27 28  1  0
 28 29  1  0
 28 32  2  0
 29 30  2  0
 30 31  1  0
 30 38  1  0
 31 32  1  0
 31 33  1  0
 33 34  1  0
 33 35  2  0
 35 36  1  0
 36 37  1  0
 37 38  2  0
 38 39  1  0
 39 40  1  0
M  END
