
     RDKit          3D

 41 46  0  0  0  0  0  0  0  0999 V2000
   -6.8270   -1.6860    1.0590 C   0  0  0  0  0  0  0  0  0  0  0  0
   -6.6510   -1.1770   -0.3290 C   0  0  1  0  0  0  0  0  0  0  0  0
   -6.9750   -2.2720   -1.2460 N   0  0  0  0  0  0  0  0  0  0  0  0
   -8.6560   -2.6720   -0.9120 Cl  0  0  0  0  0  0  0  0  0  0  0  0
   -7.6740   -0.0980   -0.6220 C   0  0  0  0  0  0  0  0  0  0  0  0
   -7.5040    1.1170    0.2390 C   0  0  0  0  0  0  0  0  0  0  0  0
   -6.1020    1.5980    0.3440 C   0  0  0  0  0  0  0  0  0  0  0  0
   -5.1100    0.7100   -0.3110 C   0  0  0  0  0  0  0  0  0  0  0  0
   -3.8810    1.2660   -0.5990 C   0  0  0  0  0  0  0  0  0  0  0  0
   -2.8610    0.5520   -1.1910 C   0  0  0  0  0  0  0  0  0  0  0  0
   -1.5920    0.8330   -1.5730 N   0  0  0  0  0  0  0  0  0  0  0  0
   -0.9910   -0.2290   -2.1100 C   0  0  0  0  0  0  0  0  0  0  0  0
    0.3650   -0.4480   -2.6700 C   0  0  0  0  0  0  0  0  0  0  0  0
    1.4010   -0.6240   -1.6810 N   0  0  0  0  0  0  0  0  0  0  0  0
    1.8910    0.3760   -0.8070 C   0  0  0  0  0  0  0  0  0  0  0  0
    1.3770    1.5190   -0.9380 O   0  0  0  0  0  0  0  0  0  0  0  0
    2.9220    0.1840    0.2070 C   0  0  0  0  0  0  0  0  0  0  0  0
    3.5980    1.2140    0.8510 C   0  0  0  0  0  0  0  0  0  0  0  0
    3.4560    2.6450    0.5390 C   0  0  0  0  0  0  0  0  0  0  0  0
    4.7300    3.4120    0.8360 C   0  0  0  0  0  0  0  0  0  0  0  0
    5.9180    2.9360    0.0690 C   0  0  0  0  0  0  0  0  0  0  0  0
    7.1500    3.6760    0.3870 C   0  0  0  0  0  0  0  0  0  0  0  0
    8.3280    3.4190   -0.2100 N   0  0  0  0  0  0  0  0  0  0  0  0
    9.2590    4.2290    0.2710 N   0  0  0  0  0  0  0  0  0  0  0  0
    8.6420    4.9810    1.1630 N   0  0  0  0  0  0  0  0  0  0  0  0
    7.3700    4.6760    1.2590 N   0  0  0  0  0  0  0  0  0  0  0  0
    4.4550    0.6820    1.7970 C   0  0  0  0  0  0  0  0  0  0  0  0
    4.2930   -0.6230    1.7150 N   0  0  0  0  0  0  0  0  0  0  0  0
    3.3780   -0.9450    0.7680 N   0  0  0  0  0  0  0  0  0  0  0  0
    3.0020   -2.2890    0.4970 C   0  0  0  0  0  0  0  0  0  0  0  0
    1.8180   -2.8130    0.9650 C   0  0  0  0  0  0  0  0  0  0  0  0
    1.5260   -4.1280    0.6820 C   0  0  0  0  0  0  0  0  0  0  0  0
    2.3520   -4.9450   -0.0420 C   0  0  0  0  0  0  0  0  0  0  0  0
    1.8660   -6.5890   -0.3240 Cl  0  0  0  0  0  0  0  0  0  0  0  0
    3.5330   -4.4440   -0.5170 C   0  0  0  0  0  0  0  0  0  0  0  0
    3.8330   -3.1110   -0.2320 C   0  0  0  0  0  0  0  0  0  0  0  0
    5.0890   -2.6390   -0.7520 N   0  0  0  0  0  0  0  0  0  0  0  0
   -1.9430   -1.2190   -2.0570 N   0  0  0  0  0  0  0  0  0  0  0  0
   -3.0740   -0.7510   -1.5030 C   0  0  0  0  0  0  0  0  0  0  0  0
   -4.3060   -1.3190   -1.2190 C   0  0  0  0  0  0  0  0  0  0  0  0
   -5.3300   -0.5960   -0.6240 C   0  0  0  0  0  0  0  0  0  0  0  0
  2  1  1  1
  2  3  1  0
  2  5  1  0
  2 41  1  0
  3  4  1  0
  5  6  1  0
  6  7  1  0
  7  8  1  0
  8  9  2  0
  8 41  1  0
  9 10  1  0
 10 11  1  0
 10 39  2  0
 11 12  1  0
 12 13  1  0
 12 38  2  0
 13 14  1  0
 14 15  1  0
 15 16  2  0
 15 17  1  0
 17 18  2  0
 17 29  1  0
 18 19  1  0
 18 27  1  0
 19 20  1  0
 20 21  1  0
 21 22  1  0
 22 23  2  0
 22 26  1  0
 23 24  1  0
 24 25  2  0
 25 26  1  0
 27 28  2  0
 28 29  1  0
 29 30  1  0
 30 31  2  0
 30 36  1  0
 31 32  1  0
 32 33  2  0
 33 34  1  0
 33 35  1  0
 35 36  2  0
 36 37  1  0
 38 39  1  0
 39 40  1  0
 40 41  2  0
M  END
