
     RDKit          3D

 41 46  0  0  0  0  0  0  0  0999 V2000
   -7.5600   -3.4900    0.3780 C   0  0  0  0  0  0  0  0  0  0  0  0
   -6.5580   -3.6680   -0.6660 C   0  0  0  0  0  0  0  0  0  0  0  0
   -5.4450   -2.9570   -0.8080 C   0  0  0  0  0  0  0  0  0  0  0  0
   -5.0900   -1.8850    0.0900 C   0  0  0  0  0  0  0  0  0  0  0  0
   -3.9670   -1.1690    0.0200 C   0  0  0  0  0  0  0  0  0  0  0  0
   -3.6870   -0.1070    0.9670 C   0  0  0  0  0  0  0  0  0  0  0  0
   -4.6380    0.3160    1.8730 N   0  0  0  0  0  0  0  0  0  0  0  0
   -4.1460    1.2580    2.6440 N   0  0  0  0  0  0  0  0  0  0  0  0
   -2.8760    1.5220    2.3190 C   0  0  0  0  0  0  0  0  0  0  0  0
   -1.9750    2.4600    2.8910 N   0  0  0  0  0  0  0  0  0  0  0  0
   -2.5940    0.6440    1.2490 C   0  0  0  0  0  0  0  0  0  0  0  0
   -1.3240    0.5840    0.6320 N   0  0  0  0  0  0  0  0  0  0  0  0
   -0.5530   -0.5920    0.7820 C   0  0  0  0  0  0  0  0  0  0  0  0
   -1.0010   -1.5200    1.5150 O   0  0  0  0  0  0  0  0  0  0  0  0
    0.7100   -0.8190    0.1610 N   0  0  0  0  0  0  0  0  0  0  0  0
    1.3820   -2.0520    0.4080 C   0  0  0  0  0  0  0  0  0  0  0  0
    2.6750   -2.1830   -0.3030 C   0  0  0  0  0  0  0  0  0  0  0  0
    3.6670   -1.1970   -0.0230 N   0  0  0  0  0  0  0  0  0  0  0  0
    3.9610   -0.0720   -0.6900 C   0  0  0  0  0  0  0  0  0  0  0  0
    3.3700    0.4470   -1.9540 C   0  0  1  0  0  0  0  0  0  0  0  0
    3.4890    1.8780   -2.3090 C   0  0  0  0  0  0  0  0  0  0  0  0
    4.4210    0.9380   -2.9720 C   0  0  0  0  0  0  0  0  0  0  0  0
    4.9670    0.5780   -0.0310 N   0  0  0  0  0  0  0  0  0  0  0  0
    5.3230   -0.1220    1.0570 C   0  0  0  0  0  0  0  0  0  0  0  0
    4.5050   -1.2310    1.0550 C   0  0  0  0  0  0  0  0  0  0  0  0
    4.8770   -1.9470    2.1790 C   0  0  0  0  0  0  0  0  0  0  0  0
    5.8580   -1.2650    2.7780 N   0  0  0  0  0  0  0  0  0  0  0  0
    6.1480   -0.1670    2.1320 N   0  0  0  0  0  0  0  0  0  0  0  0
    7.1520    0.8250    2.4760 C   0  0  0  0  0  0  0  0  0  0  0  0
   -0.7740    1.6910   -0.0640 C   0  0  0  0  0  0  0  0  0  0  0  0
    0.5020    2.1680    0.2900 C   0  0  0  0  0  0  0  0  0  0  0  0
    1.1100    3.2330   -0.3200 C   0  0  0  0  0  0  0  0  0  0  0  0
    0.4380    3.8750   -1.3370 C   0  0  0  0  0  0  0  0  0  0  0  0
    1.0620    4.9800   -1.9770 N   0  0  0  0  0  0  0  0  0  0  0  0
   -0.8010    3.4660   -1.7300 C   0  0  0  0  0  0  0  0  0  0  0  0
   -1.3920    2.3710   -1.0810 C   0  0  0  0  0  0  0  0  0  0  0  0
   -3.0080    1.8540   -1.5640 Cl  0  0  0  0  0  0  0  0  0  0  0  0
   -3.0960   -1.5210   -1.0760 C   0  0  0  0  0  0  0  0  0  0  0  0
   -3.3910   -2.4640   -1.9170 N   0  0  0  0  0  0  0  0  0  0  0  0
   -4.5440   -3.2880   -1.9370 C   0  0  2  0  0  0  0  0  0  0  0  0
   -5.4030   -3.0800   -3.4910 Cl  0  0  0  0  0  0  0  0  0  0  0  0
  1  2  1  0
  2  3  2  3
  3  4  1  0
  3 40  1  0
  4  5  2  0
  5  6  1  0
  5 38  1  0
  6  7  2  0
  6 11  1  0
  7  8  1  0
  8  9  1  0
  9 10  1  0
  9 11  2  0
 11 12  1  0
 12 13  1  0
 12 30  1  0
 13 14  2  0
 13 15  1  0
 15 16  1  0
 16 17  1  0
 17 18  1  0
 18 19  1  0
 18 25  1  0
 20 19  1  1
 19 23  2  0
 20 21  1  0
 20 22  1  0
 21 22  1  0
 23 24  1  0
 24 25  2  0
 24 28  1  0
 25 26  1  0
 26 27  2  0
 27 28  1  0
 28 29  1  0
 30 31  2  0
 30 36  1  0
 31 32  1  0
 32 33  2  0
 33 34  1  0
 33 35  1  0
 35 36  2  0
 36 37  1  0
 38 39  2  0
 39 40  1  0
 40 41  1  6
M  END
