
     RDKit          3D

 40 45  0  0  0  0  0  0  0  0999 V2000
   -5.5650    5.3010   -0.7170 C   0  0  0  0  0  0  0  0  0  0  0  0
   -5.7380    3.8720   -0.2420 C   0  0  0  0  0  0  0  0  0  0  0  0
   -4.5400    3.0820   -0.7490 C   0  0  0  0  0  0  0  0  0  0  0  0
   -4.6030    1.7050   -0.3520 N   0  0  0  0  0  0  0  0  0  0  0  0
   -3.4760    0.9340   -0.8270 C   0  0  1  0  0  0  0  0  0  0  0  0
   -2.2210    1.3970   -0.2870 C   0  0  0  0  0  0  0  0  0  0  0  0
   -1.3240    0.6440    0.2960 C   0  0  0  0  0  0  0  0  0  0  0  0
   -0.1190    1.1830    0.8000 N   0  0  0  0  0  0  0  0  0  0  0  0
    0.7930    0.2980    1.4210 C   0  0  0  0  0  0  0  0  0  0  0  0
    2.0410    0.8150    1.9460 C   0  0  0  0  0  0  0  0  0  0  0  0
    2.9620    0.1510    2.5320 N   0  0  0  0  0  0  0  0  0  0  0  0
    2.8850   -1.2380    2.7570 C   0  0  0  0  0  0  0  0  0  0  0  0
    2.0150   -1.8520    3.6070 N   0  0  0  0  0  0  0  0  0  0  0  0
    2.2640   -3.1310    3.5440 N   0  0  0  0  0  0  0  0  0  0  0  0
    3.2570   -3.4050    2.6940 C   0  0  0  0  0  0  0  0  0  0  0  0
    3.6860   -2.1800    2.1600 C   0  0  0  0  0  0  0  0  0  0  0  0
    4.7720   -2.0290    1.1780 C   0  0  0  0  0  0  0  0  0  0  0  0
    5.3590   -3.0840    0.7820 O   0  0  0  0  0  0  0  0  0  0  0  0
    5.1430   -0.7510    0.6980 N   0  0  0  0  0  0  0  0  0  0  0  0
    6.2190   -0.6970   -0.2590 C   0  0  0  0  0  0  0  0  0  0  0  0
    6.9200   -1.7160   -0.7530 N   0  0  0  0  0  0  0  0  0  0  0  0
    7.8370   -1.2830   -1.6130 N   0  0  0  0  0  0  0  0  0  0  0  0
    7.7250    0.0650   -1.6780 C   0  0  0  0  0  0  0  0  0  0  0  0
    8.4500    0.9370   -2.4230 N   0  0  0  0  0  0  0  0  0  0  0  0
    8.1430    2.2550   -2.3130 C   0  0  0  0  0  0  0  0  0  0  0  0
    7.1430    2.6850   -1.4850 C   0  0  0  0  0  0  0  0  0  0  0  0
    6.4000    1.7990   -0.7230 C   0  0  0  0  0  0  0  0  0  0  0  0
    6.7130    0.4600   -0.8340 C   0  0  0  0  0  0  0  0  0  0  0  0
    0.5260   -0.9340    1.5180 N   0  0  0  0  0  0  0  0  0  0  0  0
   -0.6900   -1.5760    1.0260 C   0  0  0  0  0  0  0  0  0  0  0  0
   -0.8860   -3.0040    1.2720 C   0  0  0  0  0  0  0  0  0  0  0  0
   -1.5840   -0.8170    0.4310 C   0  0  0  0  0  0  0  0  0  0  0  0
   -2.8300   -1.3820   -0.0900 C   0  0  0  0  0  0  0  0  0  0  0  0
   -3.6920   -0.5220   -0.6700 C   0  0  0  0  0  0  0  0  0  0  0  0
   -4.9840   -0.9870   -1.1510 C   0  0  0  0  0  0  0  0  0  0  0  0
   -5.8100   -0.2380   -1.7500 N   0  0  0  0  0  0  0  0  0  0  0  0
   -7.3550   -0.7780   -2.3310 Cl  0  0  0  0  0  0  0  0  0  0  0  0
   -5.3130   -2.4090   -0.9100 C   0  0  0  0  0  0  0  0  0  0  0  0
   -4.0210   -3.1210   -1.2630 C   0  0  0  0  0  0  0  0  0  0  0  0
   -3.0700   -2.8160   -0.0440 C   0  0  0  0  0  0  0  0  0  0  0  0
  1  2  1  0
  2  3  1  0
  3  4  1  0
  5  4  1  1
  5  6  1  0
  5 34  1  0
  6  7  2  0
  7  8  1  0
  7 32  1  0
  8  9  1  0
  9 10  1  0
  9 29  2  0
 10 11  2  3
 11 12  1  0
 12 13  1  0
 12 16  2  0
 13 14  1  0
 14 15  2  0
 15 16  1  0
 16 17  1  0
 17 18  2  0
 17 19  1  0
 19 20  1  0
 20 21  2  0
 20 28  1  0
 21 22  1  0
 22 23  1  0
 23 24  2  0
 23 28  1  0
 24 25  1  0
 25 26  2  0
 26 27  1  0
 27 28  2  0
 29 30  1  0
 30 31  1  0
 30 32  2  0
 32 33  1  0
 33 34  2  0
 33 40  1  0
 34 35  1  0
 35 36  2  3
 35 38  1  0
 36 37  1  0
 38 39  1  0
 39 40  1  0
M  END
