
     RDKit          3D

 45 49  0  0  0  0  0  0  0  0999 V2000
    8.6390   -3.8230    1.1720 C   0  0  0  0  0  0  0  0  0  0  0  0
    8.3620   -2.4230    1.5300 N   0  0  0  0  0  0  0  0  0  0  0  0
    6.9350   -2.1660    1.4870 C   0  0  2  0  0  0  0  0  0  0  0  0
    6.2570   -3.4810    1.5250 C   0  0  0  0  0  0  0  0  0  0  0  0
    5.3300   -3.5630    0.5770 C   0  0  0  0  0  0  0  0  0  0  0  0
    5.2550   -2.3350   -0.2180 C   0  0  1  0  0  0  0  0  0  0  0  0
    4.0260   -1.5610    0.0220 C   0  0  0  0  0  0  0  0  0  0  0  0
    3.1980   -2.0140    0.8730 O   0  0  0  0  0  0  0  0  0  0  0  0
    3.6810   -0.3660   -0.6030 N   0  0  0  0  0  0  0  0  0  0  0  0
    2.4220    0.3060   -0.2730 C   0  0  0  0  0  0  0  0  0  0  0  0
    1.4900    0.2470    0.3720 N   0  0  0  0  0  0  0  0  0  0  0  0
    0.4260    1.0620    0.4690 C   0  0  0  0  0  0  0  0  0  0  0  0
   -0.6790    0.7960    1.4070 C   0  0  0  0  0  0  0  0  0  0  0  0
   -0.8910    1.6080    2.5190 C   0  0  0  0  0  0  0  0  0  0  0  0
   -1.8570    1.3210    3.4570 C   0  0  0  0  0  0  0  0  0  0  0  0
   -2.6080    0.1870    3.2430 C   0  0  0  0  0  0  0  0  0  0  0  0
   -2.4120   -0.6400    2.1350 C   0  0  0  0  0  0  0  0  0  0  0  0
   -1.4340   -0.3430    1.1930 C   0  0  0  0  0  0  0  0  0  0  0  0
   -1.1690   -1.1130    0.0450 N   0  0  0  0  0  0  0  0  0  0  0  0
   -1.7800   -2.3140   -0.3640 C   0  0  0  0  0  0  0  0  0  0  0  0
   -2.6800   -2.8120    0.3380 O   0  0  0  0  0  0  0  0  0  0  0  0
   -1.3910   -3.0240   -1.6190 C   0  0  0  0  0  0  0  0  0  0  0  0
   -2.2330   -4.2570   -1.7080 C   0  0  0  0  0  0  0  0  0  0  0  0
   -1.6620   -5.4290   -1.7360 C   0  0  0  0  0  0  0  0  0  0  0  0
   -2.2500   -6.7660   -1.8190 C   0  0  0  0  0  0  0  0  0  0  0  0
   -4.0230   -6.6770   -1.8950 S   0  0  0  0  0  0  0  0  0  0  0  0
   -4.4990   -7.2820   -3.2060 O   0  0  0  0  0  0  0  0  0  0  0  0
   -4.5370   -5.0120   -1.8420 C   0  0  0  0  0  0  0  0  0  0  0  0
   -3.6770   -4.0360   -1.7600 C   0  0  0  0  0  0  0  0  0  0  0  0
    0.4980    2.1410   -0.3660 C   0  0  0  0  0  0  0  0  0  0  0  0
   -0.3900    3.3020   -0.6370 C   0  0  0  0  0  0  0  0  0  0  0  0
    0.1270    4.1800   -1.4230 O   0  0  0  0  0  0  0  0  0  0  0  0
   -1.6780    3.4790   -0.1250 N   0  0  0  0  0  0  0  0  0  0  0  0
   -2.5230    4.5810   -0.3590 C   0  0  0  0  0  0  0  0  0  0  0  0
   -2.1820    5.6410   -1.1540 C   0  0  0  0  0  0  0  0  0  0  0  0
   -3.1030    6.6970   -1.3260 C   0  0  0  0  0  0  0  0  0  0  0  0
   -4.3300    6.6670   -0.7050 C   0  0  0  0  0  0  0  0  0  0  0  0
   -5.2190    7.6930   -0.8750 O   0  0  0  0  0  0  0  0  0  0  0  0
   -4.8830    8.7920   -1.6910 C   0  0  0  0  0  0  0  0  0  0  0  0
   -4.6900    5.6020    0.1010 C   0  0  0  0  0  0  0  0  0  0  0  0
   -3.7760    4.5680    0.2640 C   0  0  0  0  0  0  0  0  0  0  0  0
   -4.0920    3.4760    1.0650 O   0  0  0  0  0  0  0  0  0  0  0  0
   -5.3210    3.3740    1.7290 C   0  0  0  0  0  0  0  0  0  0  0  0
    2.0570    1.9090   -1.1990 S   0  0  0  0  0  0  0  0  0  0  0  0
    6.5060   -1.5790    0.1610 C   0  0  0  0  0  0  0  0  0  0  0  0
  1  2  1  0
  3  2  1  6
  3  4  1  0
  3 45  1  0
  4  5  2  0
  5  6  1  0
  6  7  1  1
  6 45  1  0
  7  8  2  0
  7  9  1  0
  9 10  1  0
 10 11  2  0
 10 44  1  0
 11 12  1  0
 12 13  1  0
 12 30  2  0
 13 14  2  0
 13 18  1  0
 14 15  1  0
 15 16  2  0
 16 17  1  0
 17 18  2  0
 18 19  1  0
 19 20  1  0
 20 21  2  0
 20 22  1  0
 22 23  1  0
 23 24  2  0
 23 29  1  0
 24 25  1  0
 26 25  1  6
 26 27  2  0
 26 28  1  0
 28 29  2  0
 30 31  1  0
 30 44  1  0
 31 32  2  0
 31 33  1  0
 33 34  1  0
 34 35  2  0
 34 41  1  0
 35 36  1  0
 36 37  2  0
 37 38  1  0
 37 40  1  0
 38 39  1  0
 40 41  2  0
 41 42  1  0
 42 43  1  0
M  CHG  1   2   1
M  END
