
     RDKit          3D

 45 49  0  0  0  0  0  0  0  0999 V2000
   -6.9650    3.5620   -0.3740 C   0  0  0  0  0  0  0  0  0  0  0  0
   -5.4670    3.6750   -0.6640 C   0  0  0  0  0  0  0  0  0  0  0  0
   -4.9550    2.3580   -0.4930 O   0  0  0  0  0  0  0  0  0  0  0  0
   -3.6270    2.0250   -0.6550 C   0  0  0  0  0  0  0  0  0  0  0  0
   -2.8460    2.9270   -0.9620 O   0  0  0  0  0  0  0  0  0  0  0  0
   -3.1450    0.6040   -0.4620 C   0  0  0  0  0  0  0  0  0  0  0  0
   -4.1960   -0.2920   -0.1370 C   0  0  0  0  0  0  0  0  0  0  0  0
   -5.3870    0.2550   -0.0140 O   0  0  0  0  0  0  0  0  0  0  0  0
   -4.2330   -1.6680    0.0840 N   0  0  0  0  0  0  0  0  0  0  0  0
   -5.4870   -2.3760    0.4180 C   0  0  1  0  0  0  0  0  0  0  0  0
   -6.0120   -3.0830   -0.8240 C   0  0  0  0  0  0  0  0  0  0  0  0
   -5.8110   -4.5510   -0.6200 C   0  0  0  0  0  0  0  0  0  0  0  0
   -5.0530   -4.6310    0.6860 C   0  0  0  0  0  0  0  0  0  0  0  0
   -5.3120   -3.3870    1.4030 N   0  0  0  0  0  0  0  0  0  0  0  0
   -1.9000    0.4230   -0.6270 C   0  0  0  0  0  0  0  0  0  0  0  0
   -1.1220   -0.7420   -0.5340 N   0  0  0  0  0  0  0  0  0  0  0  0
    0.2990   -0.7750   -0.7790 C   0  0  0  0  0  0  0  0  0  0  0  0
    0.8630    0.2950   -1.1040 O   0  0  0  0  0  0  0  0  0  0  0  0
    1.0560   -2.0140   -0.6530 C   0  0  0  0  0  0  0  0  0  0  0  0
    0.5080   -3.2390   -0.3620 C   0  0  0  0  0  0  0  0  0  0  0  0
    1.5580   -4.1420   -0.3350 C   0  0  0  0  0  0  0  0  0  0  0  0
    2.6940   -3.4320   -0.6090 C   0  0  0  0  0  0  0  0  0  0  0  0
    4.0670   -4.0220   -0.6790 C   0  0  0  0  0  0  0  0  0  0  0  0
    5.0700   -2.9320   -0.5400 N   0  0  0  0  0  0  0  0  0  0  0  0
    5.1440   -1.9200   -1.4780 C   0  0  0  0  0  0  0  0  0  0  0  0
    4.3060   -2.0040   -2.4690 O   0  0  0  0  0  0  0  0  0  0  0  0
    6.0620   -0.7970   -1.4440 C   0  0  0  0  0  0  0  0  0  0  0  0
    6.0170    0.4030   -2.7530 S   0  0  0  0  0  0  0  0  0  0  0  0
    7.3050    1.4500   -2.1280 C   0  0  0  0  0  0  0  0  0  0  0  0
    7.8620    2.6290   -2.6120 C   0  0  0  0  0  0  0  0  0  0  0  0
    8.8850    3.2390   -1.8830 C   0  0  0  0  0  0  0  0  0  0  0  0
    9.2770    2.6280   -0.7250 C   0  0  0  0  0  0  0  0  0  0  0  0
    8.7040    1.4710   -0.2870 C   0  0  0  0  0  0  0  0  0  0  0  0
    7.6710    0.8150   -0.9820 C   0  0  0  0  0  0  0  0  0  0  0  0
    7.0280   -0.3320   -0.6440 C   0  0  0  0  0  0  0  0  0  0  0  0
    7.3520   -1.1240    0.6260 C   0  0  0  0  0  0  0  0  0  0  0  0
    2.3560   -2.1740   -0.7910 O   0  0  0  0  0  0  0  0  0  0  0  0
   -0.8710    1.9260   -0.9150 S   0  0  0  0  0  0  0  0  0  0  0  0
   -0.0810    2.4580    0.6100 C   0  0  0  0  0  0  0  0  0  0  0  0
   -1.0380    3.0200    1.6080 C   0  0  0  0  0  0  0  0  0  0  0  0
   -1.6990    2.2910    2.5570 C   0  0  0  0  0  0  0  0  0  0  0  0
   -2.5670    2.9160    3.4270 C   0  0  0  0  0  0  0  0  0  0  0  0
   -2.8070    4.2360    3.3980 N   0  0  0  0  0  0  0  0  0  0  0  0
   -2.1610    4.9680    2.4670 C   0  0  0  0  0  0  0  0  0  0  0  0
   -1.2700    4.3760    1.5600 C   0  0  0  0  0  0  0  0  0  0  0  0
  1  2  1  0
  2  3  1  0
  3  4  1  0
  4  5  2  0
  4  6  1  0
  6  7  1  0
  6 15  2  3
  7  8  2  0
  7  9  1  0
 10  9  1  6
 10 11  1  0
 10 14  1  0
 11 12  1  0
 12 13  1  0
 13 14  1  0
 15 16  1  0
 15 38  1  0
 16 17  1  0
 17 18  2  0
 17 19  1  0
 19 20  2  0
 19 37  1  0
 20 21  1  0
 21 22  2  0
 22 23  1  0
 22 37  1  0
 23 24  1  0
 24 25  1  0
 25 26  2  0
 25 27  1  0
 27 28  1  0
 27 35  2  0
 28 29  1  0
 29 30  2  0
 29 34  1  0
 30 31  1  0
 31 32  2  0
 32 33  1  0
 33 34  2  0
 34 35  1  0
 35 36  1  0
 38 39  1  0
 39 40  1  0
 40 41  2  0
 40 45  1  0
 41 42  1  0
 42 43  2  0
 43 44  1  0
 44 45  2  0
M  CHG  1  43   1
M  END
