
     RDKit          3D

 45 48  0  0  0  0  0  0  0  0999 V2000
    1.1050    2.8540    0.7520 C   0  0  0  0  0  0  0  0  0  0  0  0
    0.4520    2.3120   -0.4910 C   0  0  1  0  0  0  0  0  0  0  0  0
    0.9880    2.8650   -1.7770 C   0  0  0  0  0  0  0  0  0  0  0  0
    0.3030    0.8600   -0.4880 N   0  0  0  0  0  0  0  0  0  0  0  0
   -0.8660    0.2860   -0.9350 C   0  0  0  0  0  0  0  0  0  0  0  0
   -2.0350    0.9830   -1.4980 C   0  0  0  0  0  0  0  0  0  0  0  0
   -3.2100    1.0760   -0.5390 C   0  0  0  0  0  0  0  0  0  0  0  0
   -4.3130    1.8070   -1.2590 C   0  0  1  0  0  0  0  0  0  0  0  0
   -4.7290    1.1390   -2.4100 O   0  0  0  0  0  0  0  0  0  0  0  0
   -5.4060    2.3370   -0.4120 C   0  0  0  0  0  0  0  0  0  0  0  0
   -6.0940    1.2350    0.3400 C   0  0  1  0  0  0  0  0  0  0  0  0
   -5.1770    0.6090    1.1640 O   0  0  0  0  0  0  0  0  0  0  0  0
   -7.2680    1.7700    1.1500 C   0  0  0  0  0  0  0  0  0  0  0  0
   -7.8860    0.6300    1.8540 C   0  0  0  0  0  0  0  0  0  0  0  0
   -8.8870    0.8270    2.5860 O   0  0  0  0  0  0  0  0  0  0  0  0
   -7.4040   -0.6640    1.7420 O   0  0  0  0  0  0  0  0  0  0  0  0
   -0.6900   -1.0630   -0.7440 C   0  0  0  0  0  0  0  0  0  0  0  0
   -1.7560   -2.0180   -1.1090 C   0  0  0  0  0  0  0  0  0  0  0  0
   -2.4810   -2.6650   -0.1290 C   0  0  0  0  0  0  0  0  0  0  0  0
   -3.4790   -3.5640   -0.4210 C   0  0  0  0  0  0  0  0  0  0  0  0
   -3.7890   -3.8490   -1.7280 C   0  0  0  0  0  0  0  0  0  0  0  0
   -4.7730   -4.7340   -2.0620 F   0  0  0  0  0  0  0  0  0  0  0  0
   -3.0510   -3.1890   -2.7010 C   0  0  0  0  0  0  0  0  0  0  0  0
   -2.0550   -2.2920   -2.4190 C   0  0  0  0  0  0  0  0  0  0  0  0
    0.5350   -1.3150   -0.2030 C   0  0  0  0  0  0  0  0  0  0  0  0
    1.1120   -2.5910    0.1460 C   0  0  0  0  0  0  0  0  0  0  0  0
    2.1620   -3.0550   -0.6380 C   0  0  0  0  0  0  0  0  0  0  0  0
    2.7560   -4.2620   -0.3530 C   0  0  0  0  0  0  0  0  0  0  0  0
    2.2990   -5.0210    0.7290 C   0  0  0  0  0  0  0  0  0  0  0  0
    1.2560   -4.5320    1.4870 C   0  0  0  0  0  0  0  0  0  0  0  0
    0.6390   -3.3110    1.2160 C   0  0  0  0  0  0  0  0  0  0  0  0
    1.1580   -0.0500   -0.0500 C   0  0  0  0  0  0  0  0  0  0  0  0
    2.5400    0.0430    0.4490 C   0  0  0  0  0  0  0  0  0  0  0  0
    2.9150   -0.8730    1.2780 O   0  0  0  0  0  0  0  0  0  0  0  0
    3.4990    1.0120    0.1210 N   0  0  0  0  0  0  0  0  0  0  0  0
    4.8120    1.1150    0.6100 C   0  0  0  0  0  0  0  0  0  0  0  0
    5.6930    1.9870   -0.0160 C   0  0  0  0  0  0  0  0  0  0  0  0
    6.9990    2.1590    0.4120 C   0  0  0  0  0  0  0  0  0  0  0  0
    7.4490    1.4470    1.4930 C   0  0  0  0  0  0  0  0  0  0  0  0
    9.0810    1.6030    2.0990 S   0  0  2  0  0  0  0  0  0  0  0  0
   10.0420    0.4240    1.2460 N   0  0  0  0  0  0  0  0  0  0  0  0
    9.1500    1.3090    3.5810 O   0  0  0  0  0  0  0  0  0  0  0  0
    9.6510    2.9570    1.8890 O   0  0  0  0  0  0  0  0  0  0  0  0
    6.6030    0.5790    2.1320 C   0  0  0  0  0  0  0  0  0  0  0  0
    5.2780    0.4240    1.6740 C   0  0  0  0  0  0  0  0  0  0  0  0
  2  1  1  1
  2  3  1  0
  2  4  1  0
  4  5  1  0
  4 32  1  0
  5  6  1  0
  5 17  2  0
  6  7  1  0
  7  8  1  0
  8  9  1  6
  8 10  1  0
 10 11  1  0
 11 12  1  1
 11 13  1  0
 13 14  1  0
 14 15  2  0
 14 16  1  0
 17 18  1  0
 17 25  1  0
 18 19  2  0
 18 24  1  0
 19 20  1  0
 20 21  2  0
 21 22  1  0
 21 23  1  0
 23 24  2  0
 25 26  1  0
 25 32  2  0
 26 27  2  0
 26 31  1  0
 27 28  1  0
 28 29  2  0
 29 30  1  0
 30 31  2  0
 32 33  1  0
 33 34  2  0
 33 35  1  0
 35 36  1  0
 36 37  2  0
 36 45  1  0
 37 38  1  0
 38 39  2  0
 39 40  1  0
 39 44  1  0
 40 41  1  6
 40 42  2  0
 40 43  2  0
 44 45  2  0
M  END
