
     RDKit          3D

 45 49  0  0  0  0  0  0  0  0999 V2000
   -5.6110   -1.5040   -1.8180 C   0  0  0  0  0  0  0  0  0  0  0  0
   -5.4880   -0.2140   -1.0780 C   0  0  2  0  0  0  0  0  0  0  0  0
   -4.2390   -0.2060   -0.3500 N   0  0  0  0  0  0  0  0  0  0  0  0
   -3.2330    0.7740   -0.5670 C   0  0  0  0  0  0  0  0  0  0  0  0
   -3.4860    1.6470   -1.4350 O   0  0  0  0  0  0  0  0  0  0  0  0
   -1.9410    0.8410    0.1350 C   0  0  1  0  0  0  0  0  0  0  0  0
   -1.0800   -0.3500   -0.0820 C   0  0  0  0  0  0  0  0  0  0  0  0
    0.3800   -0.1670    0.1470 C   0  0  0  0  0  0  0  0  0  0  0  0
    0.8450    1.1050   -0.3000 N   0  0  0  0  0  0  0  0  0  0  0  0
    2.1170    1.6460   -0.0320 C   0  0  0  0  0  0  0  0  0  0  0  0
    2.4520    2.7880   -0.4630 O   0  0  0  0  0  0  0  0  0  0  0  0
    3.1250    0.9200    0.7590 C   0  0  0  0  0  0  0  0  0  0  0  0
    3.3320    0.9350    2.1190 C   0  0  0  0  0  0  0  0  0  0  0  0
    4.3620    0.1210    2.3920 N   0  0  0  0  0  0  0  0  0  0  0  0
    4.8570   -0.4410    1.2710 C   0  0  0  0  0  0  0  0  0  0  0  0
    5.8990   -1.3330    1.0240 C   0  0  0  0  0  0  0  0  0  0  0  0
    6.2080   -1.7600   -0.2500 C   0  0  0  0  0  0  0  0  0  0  0  0
    7.5040   -2.8660   -0.5630 S   0  0  2  0  0  0  0  0  0  0  0  0
    7.0370   -3.7980   -1.6840 O   0  0  0  0  0  0  0  0  0  0  0  0
    7.6960   -3.8270    0.6100 O   0  0  0  0  0  0  0  0  0  0  0  0
    8.9980   -2.1700   -1.0950 C   0  0  0  0  0  0  0  0  0  0  0  0
    9.7020   -1.2060   -0.2370 C   0  0  2  0  0  0  0  0  0  0  0  0
   10.0910   -1.7130    1.1220 C   0  0  0  0  0  0  0  0  0  0  0  0
    9.1050    0.1680   -0.1710 C   0  0  0  0  0  0  0  0  0  0  0  0
   10.0100    0.9770    0.7740 C   0  0  0  0  0  0  0  0  0  0  0  0
    9.4510    2.3140    0.8520 N   0  0  0  0  0  0  0  0  0  0  0  0
    5.4120   -1.2440   -1.2790 C   0  0  0  0  0  0  0  0  0  0  0  0
    4.3820   -0.3620   -1.0360 C   0  0  0  0  0  0  0  0  0  0  0  0
    4.0880    0.0530    0.2380 C   0  0  0  0  0  0  0  0  0  0  0  0
   -0.0810    1.9140   -1.1040 C   0  0  0  0  0  0  0  0  0  0  0  0
   -1.2680    2.1560   -0.1600 C   0  0  0  0  0  0  0  0  0  0  0  0
   -6.5960    0.0060   -0.1110 C   0  0  0  0  0  0  0  0  0  0  0  0
   -6.3230    0.1510    1.0860 O   0  0  0  0  0  0  0  0  0  0  0  0
   -7.9360    0.0480   -0.5520 N   0  0  0  0  0  0  0  0  0  0  0  0
   -9.0880    0.2490    0.2380 C   0  0  0  0  0  0  0  0  0  0  0  0
   -9.0450    0.4920    1.5880 C   0  0  0  0  0  0  0  0  0  0  0  0
  -10.1730    0.7070    2.3820 C   0  0  0  0  0  0  0  0  0  0  0  0
  -11.3980    0.6760    1.8000 C   0  0  0  0  0  0  0  0  0  0  0  0
  -11.4930    0.4350    0.4480 C   0  0  0  0  0  0  0  0  0  0  0  0
  -12.7190    0.4030   -0.1360 N   0  0  0  0  0  0  0  0  0  0  0  0
  -12.8440    0.1680   -1.4520 C   0  0  0  0  0  0  0  0  0  0  0  0
  -13.9790    0.1390   -1.9870 O   0  0  0  0  0  0  0  0  0  0  0  0
  -11.7540   -0.0460   -2.2550 C   0  0  0  0  0  0  0  0  0  0  0  0
  -10.4720   -0.0200   -1.6880 C   0  0  0  0  0  0  0  0  0  0  0  0
  -10.3650    0.2200   -0.3490 C   0  0  0  0  0  0  0  0  0  0  0  0
  2  1  1  1
  2  3  1  0
  2 32  1  0
  3  4  1  0
  4  5  2  0
  6  4  1  6
  6  7  1  0
  6 31  1  0
  7  8  1  0
  8  9  1  0
  9 10  1  0
  9 30  1  0
 10 11  2  0
 10 12  1  0
 12 13  2  0
 12 29  1  0
 13 14  1  0
 14 15  1  0
 15 16  2  0
 15 29  1  0
 16 17  1  0
 17 18  1  0
 17 27  2  0
 18 19  2  0
 18 20  2  0
 18 21  1  6
 21 22  1  0
 22 23  1  1
 22 24  1  0
 24 25  1  0
 25 26  1  0
 27 28  1  0
 28 29  2  0
 30 31  1  0
 32 33  2  0
 32 34  1  0
 34 35  1  0
 35 36  2  0
 35 45  1  0
 36 37  1  0
 37 38  2  0
 38 39  1  0
 39 40  1  0
 39 45  2  0
 40 41  1  0
 41 42  2  0
 41 43  1  0
 43 44  2  0
 44 45  1  0
M  CHG  1  26   1
M  END
