
     RDKit          3D

 45 49  0  0  0  0  0  0  0  0999 V2000
   -3.7120   -8.7700   -1.8120 C   0  0  0  0  0  0  0  0  0  0  0  0
   -3.3640   -7.5420   -1.5950 C   0  0  0  0  0  0  0  0  0  0  0  0
   -2.4420   -6.8110   -2.4720 C   0  0  0  0  0  0  0  0  0  0  0  0
   -2.1400   -5.5780   -2.1870 C   0  0  0  0  0  0  0  0  0  0  0  0
   -1.0460   -4.4440   -3.0760 S   0  0  0  0  0  0  0  0  0  0  0  0
   -1.2630   -3.0680   -1.9800 C   0  0  0  0  0  0  0  0  0  0  0  0
   -0.6400   -1.7950   -2.1080 N   0  0  0  0  0  0  0  0  0  0  0  0
   -0.9410   -0.8280   -1.1410 C   0  0  0  0  0  0  0  0  0  0  0  0
   -1.7370   -1.0720   -0.2030 O   0  0  0  0  0  0  0  0  0  0  0  0
   -0.3350    0.5600   -1.1600 C   0  0  1  0  0  0  0  0  0  0  0  0
   -0.7950    1.3320   -0.1570 O   0  0  0  0  0  0  0  0  0  0  0  0
   -1.1940    2.5970    0.0660 C   0  0  0  0  0  0  0  0  0  0  0  0
   -1.6790    2.8600    1.3640 C   0  0  0  0  0  0  0  0  0  0  0  0
   -2.1200    4.1010    1.7480 C   0  0  0  0  0  0  0  0  0  0  0  0
   -2.1040    5.1550    0.8640 C   0  0  0  0  0  0  0  0  0  0  0  0
   -2.5690    6.5070    1.1870 C   0  0  2  0  0  0  0  0  0  0  0  0
   -4.0210    6.6520    0.8750 C   0  0  0  0  0  0  0  0  0  0  0  0
   -1.7950    7.4500    0.3620 N   0  0  0  0  0  0  0  0  0  0  0  0
   -1.5240    8.6050    1.1750 C   0  0  0  0  0  0  0  0  0  0  0  0
   -2.1880    8.4140    2.4270 N   0  0  0  0  0  0  0  0  0  0  0  0
   -2.1920    6.9780    2.5500 C   0  0  0  0  0  0  0  0  0  0  0  0
   -1.9410    6.3650    3.5380 O   0  0  0  0  0  0  0  0  0  0  0  0
   -1.6330    4.9030   -0.3980 C   0  0  0  0  0  0  0  0  0  0  0  0
   -1.1810    3.6510   -0.8100 C   0  0  0  0  0  0  0  0  0  0  0  0
   -0.6630    3.4770   -2.2050 C   0  0  0  0  0  0  0  0  0  0  0  0
    1.1780    0.4060   -1.1320 C   0  0  0  0  0  0  0  0  0  0  0  0
    1.7320   -0.2880   -2.0220 O   0  0  0  0  0  0  0  0  0  0  0  0
    1.9880    1.0100   -0.1440 N   0  0  0  0  0  0  0  0  0  0  0  0
    3.4230    0.8800   -0.0980 C   0  0  0  0  0  0  0  0  0  0  0  0
    3.8470   -0.5420    0.0430 C   0  0  0  0  0  0  0  0  0  0  0  0
    3.0120   -1.4840    0.1280 O   0  0  0  0  0  0  0  0  0  0  0  0
    5.1880   -0.9030    0.0880 O   0  0  0  0  0  0  0  0  0  0  0  0
    5.6100   -2.2370    0.2210 C   0  0  0  0  0  0  0  0  0  0  0  0
    5.7210   -2.9410   -0.9620 C   0  0  0  0  0  0  0  0  0  0  0  0
    6.1320   -4.2680   -0.9360 C   0  0  0  0  0  0  0  0  0  0  0  0
    6.4170   -4.8330    0.2880 C   0  0  0  0  0  0  0  0  0  0  0  0
    6.3050   -4.1260    1.4650 C   0  0  0  0  0  0  0  0  0  0  0  0
    6.6380   -4.8130    2.7550 C   0  0  0  0  0  0  0  0  0  0  0  0
    5.8960   -2.8040    1.4440 C   0  0  0  0  0  0  0  0  0  0  0  0
   -2.1060   -3.5700   -1.0820 N   0  0  0  0  0  0  0  0  0  0  0  0
   -2.5340   -4.7870   -1.1780 C   0  0  0  0  0  0  0  0  0  0  0  0
   -3.4010   -5.3680   -0.2910 C   0  0  0  0  0  0  0  0  0  0  0  0
   -3.9300   -4.6250    0.8820 C   0  0  0  0  0  0  0  0  0  0  0  0
   -3.8300   -6.7330   -0.4730 C   0  0  0  0  0  0  0  0  0  0  0  0
   -4.8710   -7.4420    0.5770 S   0  0  0  0  0  0  0  0  0  0  0  0
  1  2  2  0
  2  3  1  0
  2 44  1  0
  3  4  2  0
  4  5  1  0
  4 41  1  0
  5  6  1  0
  6  7  1  0
  6 40  2  0
  7  8  1  0
  8  9  2  0
  8 10  1  0
 10 11  1  1
 10 26  1  0
 11 12  1  0
 12 13  2  0
 12 24  1  0
 13 14  1  0
 14 15  2  0
 15 16  1  0
 15 23  1  0
 16 17  1  6
 16 18  1  0
 16 21  1  0
 18 19  1  0
 19 20  1  0
 20 21  1  0
 21 22  2  0
 23 24  2  0
 24 25  1  0
 26 27  2  0
 26 28  1  0
 28 29  1  0
 29 30  1  0
 30 31  2  0
 30 32  1  0
 32 33  1  0
 33 34  2  0
 33 39  1  0
 34 35  1  0
 35 36  2  0
 36 37  1  0
 37 38  1  0
 37 39  2  0
 40 41  1  0
 41 42  2  0
 42 43  1  0
 42 44  1  0
 44 45  2  0
M  CHG  1  20   1
M  END
