
     RDKit          3D

 45 49  0  0  0  0  0  0  0  0999 V2000
   -9.8700   -3.1030    1.4840 C   0  0  0  0  0  0  0  0  0  0  0  0
   -9.6160   -2.2960    0.4670 C   0  0  0  0  0  0  0  0  0  0  0  0
   -8.2860   -2.4300   -0.1070 C   0  0  0  0  0  0  0  0  0  0  0  0
   -7.6400   -1.1730   -0.2790 C   0  0  0  0  0  0  0  0  0  0  0  0
   -6.0310   -1.5520   -0.8620 S   0  0  2  0  0  0  0  0  0  0  0  0
   -5.7280   -0.2850   -1.8090 O   0  0  0  0  0  0  0  0  0  0  0  0
   -6.1550   -2.6620   -1.9170 O   0  0  0  0  0  0  0  0  0  0  0  0
   -4.9690   -1.6320    0.2790 N   0  0  0  0  0  0  0  0  0  0  0  0
   -4.0640   -1.7800    1.3650 C   0  0  0  0  0  0  0  0  0  0  0  0
   -2.8910   -1.0720    0.5470 C   0  0  0  0  0  0  0  0  0  0  0  0
   -3.1530    0.3180    0.4520 N   0  0  0  0  0  0  0  0  0  0  0  0
   -2.1920    0.9430   -0.8570 S   0  0  2  0  0  0  0  0  0  0  0  0
   -2.6900    2.3690   -1.0580 O   0  0  0  0  0  0  0  0  0  0  0  0
   -2.7950    0.1390   -2.0660 O   0  0  0  0  0  0  0  0  0  0  0  0
   -0.5620    0.7880   -0.8840 C   0  0  0  0  0  0  0  0  0  0  0  0
    0.2260    2.0650   -1.5760 C   0  0  0  0  0  0  0  0  0  0  0  0
    1.4710    1.6240   -1.5620 C   0  0  0  0  0  0  0  0  0  0  0  0
    2.2820    0.6880   -1.2700 C   0  0  0  0  0  0  0  0  0  0  0  0
    3.6640    0.9270   -1.0270 C   0  0  0  0  0  0  0  0  0  0  0  0
    4.4600    1.2920   -1.8630 O   0  0  0  0  0  0  0  0  0  0  0  0
    4.0890    0.7900    0.3790 N   0  0  0  0  0  0  0  0  0  0  0  0
    5.3030    1.3930    0.7760 C   0  0  0  0  0  0  0  0  0  0  0  0
    5.2380    2.8370    0.7910 C   0  0  0  0  0  0  0  0  0  0  0  0
    6.2390    3.6460    1.1380 C   0  0  0  0  0  0  0  0  0  0  0  0
    7.4640    3.0250    1.4800 C   0  0  0  0  0  0  0  0  0  0  0  0
    7.5860    1.7300    1.4580 C   0  0  0  0  0  0  0  0  0  0  0  0
    8.7190    0.8800    1.6010 O   0  0  0  0  0  0  0  0  0  0  0  0
    9.4960    1.1200    0.3180 C   0  0  0  0  0  0  0  0  0  0  0  0
   10.2190   -0.2040    0.0430 C   0  0  0  0  0  0  0  0  0  0  0  0
   11.5520   -0.1690   -0.0960 C   0  0  0  0  0  0  0  0  0  0  0  0
   12.2020   -1.5290   -0.2880 C   0  0  0  0  0  0  0  0  0  0  0  0
   11.2710   -2.4260   -0.2840 C   0  0  0  0  0  0  0  0  0  0  0  0
   11.8570   -3.8270   -0.0060 C   0  0  0  0  0  0  0  0  0  0  0  0
   12.3930   -5.0670    0.2550 N   0  0  0  0  0  0  0  0  0  0  0  0
   10.0060   -2.5570   -0.1580 C   0  0  0  0  0  0  0  0  0  0  0  0
    9.3520   -1.2500    0.0400 C   0  0  0  0  0  0  0  0  0  0  0  0
    6.4750    0.8710    1.1220 C   0  0  0  0  0  0  0  0  0  0  0  0
    1.5540   -0.5740   -0.6180 C   0  0  0  0  0  0  0  0  0  0  0  0
    0.2910   -0.0510   -0.6630 C   0  0  0  0  0  0  0  0  0  0  0  0
   -8.3530    0.0120   -0.3050 C   0  0  0  0  0  0  0  0  0  0  0  0
   -9.7180    0.0020   -0.2120 C   0  0  0  0  0  0  0  0  0  0  0  0
  -10.2200    1.3530   -0.2900 C   0  0  0  0  0  0  0  0  0  0  0  0
   -9.1590    2.1290    0.2520 N   0  0  0  0  0  0  0  0  0  0  0  0
   -7.9400    1.4410    0.0180 C   0  0  0  0  0  0  0  0  0  0  0  0
  -10.4880   -1.3030   -0.0990 C   0  0  0  0  0  0  0  0  0  0  0  0
  1  2  2  0
  2  3  1  0
  2 45  1  0
  3  4  2  0
  4  5  1  0
  4 40  1  0
  5  6  2  0
  5  7  2  0
  5  8  1  1
  8  9  1  0
  9 10  1  0
 10 11  1  0
 12 11  1  1
 12 13  2  0
 12 14  2  0
 12 15  1  0
 15 16  2  0
 15 39  1  0
 16 17  1  0
 17 18  2  0
 18 19  1  0
 18 38  1  0
 19 20  2  0
 19 21  1  0
 21 22  1  0
 22 23  2  0
 22 37  1  0
 23 24  1  0
 24 25  2  0
 25 26  1  0
 26 27  1  0
 26 37  2  0
 27 28  1  0
 28 29  1  0
 29 30  2  0
 29 36  1  0
 30 31  1  0
 31 32  2  0
 32 33  1  0
 32 35  1  0
 33 34  3  0
 35 36  2  0
 38 39  2  0
 40 41  2  0
 40 44  1  0
 41 42  1  0
 41 45  1  0
 42 43  1  0
 43 44  1  0
M  CHG  1  43   1
M  END
