
     RDKit          3D

 44 47  0  0  0  0  0  0  0  0999 V2000
   -7.6050    1.0040    0.6950 C   0  0  0  0  0  0  0  0  0  0  0  0
   -6.6690    1.8310    1.5580 C   0  0  0  0  0  0  0  0  0  0  0  0
   -5.4610    1.2280    1.8450 O   0  0  0  0  0  0  0  0  0  0  0  0
   -4.5100    0.7960    1.0100 C   0  0  0  0  0  0  0  0  0  0  0  0
   -4.7310    0.9480   -0.2380 O   0  0  0  0  0  0  0  0  0  0  0  0
   -3.2080    0.1530    1.4360 C   0  0  0  0  0  0  0  0  0  0  0  0
   -2.9500   -0.0260    2.6960 C   0  0  0  0  0  0  0  0  0  0  0  0
   -3.8510    0.3420    3.8140 C   0  0  0  0  0  0  0  0  0  0  0  0
   -4.1340   -0.9450    4.4890 N   0  0  0  0  0  0  0  0  0  0  0  0
   -5.4500   -1.0170    5.0290 C   0  0  0  0  0  0  0  0  0  0  0  0
   -6.2670   -1.9830    4.1680 C   0  0  0  0  0  0  0  0  0  0  0  0
   -6.3320   -1.5560    2.8550 O   0  0  0  0  0  0  0  0  0  0  0  0
   -1.6430   -0.5220    3.0680 N   0  0  0  0  0  0  0  0  0  0  0  0
   -0.6960   -0.7920    2.0550 C   0  0  0  0  0  0  0  0  0  0  0  0
    0.9780   -1.2380    2.1220 S   0  0  0  0  0  0  0  0  0  0  0  0
    1.2760   -1.1730    0.2890 C   0  0  0  0  0  0  0  0  0  0  0  0
    2.5920   -1.4510   -0.2400 C   0  0  0  0  0  0  0  0  0  0  0  0
    3.5850   -1.6340    0.5580 O   0  0  0  0  0  0  0  0  0  0  0  0
    2.9040   -1.5590   -1.6880 C   0  0  0  0  0  0  0  0  0  0  0  0
    4.3610   -1.8260   -1.9100 C   0  0  0  0  0  0  0  0  0  0  0  0
    5.2260   -0.7170   -1.5280 N   0  0  0  0  0  0  0  0  0  0  0  0
    6.6310   -0.8800   -1.5050 C   0  0  0  0  0  0  0  0  0  0  0  0
    7.0680   -2.0400   -1.7770 O   0  0  0  0  0  0  0  0  0  0  0  0
    7.5800    0.1210   -1.2060 N   0  0  0  0  0  0  0  0  0  0  0  0
    8.9640   -0.1090   -1.0800 C   0  0  0  0  0  0  0  0  0  0  0  0
    9.7530   -0.5190   -2.0960 C   0  0  0  0  0  0  0  0  0  0  0  0
    9.3040   -0.7470   -3.3810 O   0  0  0  0  0  0  0  0  0  0  0  0
   11.1160   -0.7370   -1.8770 C   0  0  0  0  0  0  0  0  0  0  0  0
   11.6930   -0.5430   -0.6390 C   0  0  0  0  0  0  0  0  0  0  0  0
   10.8860   -0.1190    0.4070 C   0  0  0  0  0  0  0  0  0  0  0  0
    9.5620    0.0950    0.1970 C   0  0  0  0  0  0  0  0  0  0  0  0
    8.7150    0.6550    1.2000 C   0  0  0  0  0  0  0  0  0  0  0  0
    8.0150    1.1240    2.0400 N   0  0  0  0  0  0  0  0  0  0  0  0
    0.0860   -0.8270   -0.1430 C   0  0  0  0  0  0  0  0  0  0  0  0
   -0.9570   -0.6210    0.7070 C   0  0  0  0  0  0  0  0  0  0  0  0
   -2.3600   -0.2820    0.3480 C   0  0  2  0  0  0  0  0  0  0  0  0
   -2.4010    0.5650   -0.8730 C   0  0  0  0  0  0  0  0  0  0  0  0
   -1.9290    1.8680   -0.8730 C   0  0  0  0  0  0  0  0  0  0  0  0
   -1.9660    2.6500   -2.0340 C   0  0  0  0  0  0  0  0  0  0  0  0
   -2.4750    2.1510   -3.2150 C   0  0  0  0  0  0  0  0  0  0  0  0
   -2.4830    2.9910   -4.4620 C   0  0  0  0  0  0  0  0  0  0  0  0
   -2.9470    0.8660   -3.2300 C   0  0  0  0  0  0  0  0  0  0  0  0
   -3.5220    0.2780   -4.4750 C   0  0  0  0  0  0  0  0  0  0  0  0
   -2.9060    0.0910   -2.0680 C   0  0  0  0  0  0  0  0  0  0  0  0
  1  2  1  0
  2  3  1  0
  3  4  1  0
  4  5  2  0
  4  6  1  0
  6  7  2  0
  6 36  1  0
  7  8  1  0
  7 13  1  0
  8  9  1  0
  9 10  1  0
 10 11  1  0
 11 12  1  0
 13 14  1  0
 14 15  1  0
 14 35  2  0
 15 16  1  0
 16 17  1  0
 16 34  2  0
 17 18  2  0
 17 19  1  0
 19 20  1  0
 20 21  1  0
 21 22  1  0
 22 23  2  0
 22 24  1  0
 24 25  1  0
 25 26  2  0
 25 31  1  0
 26 27  1  0
 26 28  1  0
 28 29  2  0
 29 30  1  0
 30 31  2  0
 31 32  1  0
 32 33  3  0
 34 35  1  0
 35 36  1  0
 36 37  1  6
 37 38  2  0
 37 44  1  0
 38 39  1  0
 39 40  2  0
 40 41  1  0
 40 42  1  0
 42 43  1  0
 42 44  2  0
M  CHG  1   9   1
M  END
