
     RDKit          3D

 45 48  0  0  0  0  0  0  0  0999 V2000
   -4.7160   -3.3240   -3.6610 C   0  0  0  0  0  0  0  0  0  0  0  0
   -4.0420   -4.0500   -2.5390 C   0  0  1  0  0  0  0  0  0  0  0  0
   -4.0220   -5.5240   -2.8790 C   0  0  0  0  0  0  0  0  0  0  0  0
   -2.6140   -3.6090   -2.3050 C   0  0  2  0  0  0  0  0  0  0  0  0
   -2.1280   -4.4190   -1.1860 N   0  0  0  0  0  0  0  0  0  0  0  0
   -2.5170   -2.1650   -2.0130 C   0  0  0  0  0  0  0  0  0  0  0  0
   -2.7490   -1.3160   -2.9030 O   0  0  0  0  0  0  0  0  0  0  0  0
   -2.1540   -1.6880   -0.7060 N   0  0  0  0  0  0  0  0  0  0  0  0
   -2.0470   -0.2760   -0.4140 C   0  0  0  0  0  0  0  0  0  0  0  0
   -2.2900    0.4290   -1.4180 O   0  0  0  0  0  0  0  0  0  0  0  0
   -1.6930    0.2320    0.9110 C   0  0  0  0  0  0  0  0  0  0  0  0
   -1.6080    1.5150    1.1990 C   0  0  0  0  0  0  0  0  0  0  0  0
   -1.8300    2.5920    0.2470 C   0  0  0  0  0  0  0  0  0  0  0  0
   -2.1610    2.3700   -0.9390 O   0  0  0  0  0  0  0  0  0  0  0  0
   -1.6870    3.9980    0.5670 C   0  0  0  0  0  0  0  0  0  0  0  0
   -1.3450    4.3930    1.6850 O   0  0  0  0  0  0  0  0  0  0  0  0
   -1.9370    4.9940   -0.4140 N   0  0  0  0  0  0  0  0  0  0  0  0
   -1.8410    6.3830   -0.2600 C   0  0  0  0  0  0  0  0  0  0  0  0
   -1.7180    7.0010    0.9420 C   0  0  0  0  0  0  0  0  0  0  0  0
   -1.6030    8.4010    1.0130 C   0  0  0  0  0  0  0  0  0  0  0  0
   -1.6150    9.1540   -0.1150 N   0  0  0  0  0  0  0  0  0  0  0  0
   -1.7360    8.5580   -1.3030 C   0  0  0  0  0  0  0  0  0  0  0  0
   -1.8500    7.1900   -1.4000 C   0  0  0  0  0  0  0  0  0  0  0  0
   -1.4690    1.8340    2.6430 C   0  0  0  0  0  0  0  0  0  0  0  0
   -1.4290    0.9370    3.5930 C   0  0  0  0  0  0  0  0  0  0  0  0
   -1.2810    1.4670    5.3160 S   0  0  0  0  0  0  0  0  0  0  0  0
   -1.5540   -0.0370    6.2370 C   0  0  0  0  0  0  0  0  0  0  0  0
   -1.6840   -1.1650    5.6110 C   0  0  0  0  0  0  0  0  0  0  0  0
   -1.6620   -1.4230    4.2140 C   0  0  0  0  0  0  0  0  0  0  0  0
   -1.5270   -0.4610    3.2840 C   0  0  0  0  0  0  0  0  0  0  0  0
   -1.2790   -0.8470    1.8790 C   0  0  2  0  0  0  0  0  0  0  0  0
    0.2380   -0.9730    1.7850 C   0  0  0  0  0  0  0  0  0  0  0  0
    0.8910   -1.3030    0.6400 C   0  0  0  0  0  0  0  0  0  0  0  0
    2.2950   -1.3870    0.6700 C   0  0  0  0  0  0  0  0  0  0  0  0
    3.0370   -1.1530    1.7980 C   0  0  0  0  0  0  0  0  0  0  0  0
    4.3940   -1.2120    1.8890 O   0  0  0  0  0  0  0  0  0  0  0  0
    5.3640   -1.4650    0.9350 C   0  0  0  0  0  0  0  0  0  0  0  0
    5.4530   -0.4280   -0.1680 C   0  0  0  0  0  0  0  0  0  0  0  0
    6.5020   -0.7790   -1.1530 C   0  0  0  0  0  0  0  0  0  0  0  0
    7.1880   -1.8400   -1.0560 O   0  0  0  0  0  0  0  0  0  0  0  0
    6.8050    0.0500   -2.2680 N   0  0  0  0  0  0  0  0  0  0  0  0
    7.8160   -0.2720   -3.2340 C   0  0  0  0  0  0  0  0  0  0  0  0
    9.4670   -0.4280   -2.5340 S   0  0  0  0  0  0  0  0  0  0  0  0
    2.3610   -0.8130    2.9800 C   0  0  0  0  0  0  0  0  0  0  0  0
    0.9800   -0.7380    2.9200 C   0  0  0  0  0  0  0  0  0  0  0  0
  2  1  1  6
  2  3  1  0
  2  4  1  0
  4  5  1  1
  4  6  1  0
  6  7  2  0
  6  8  1  0
  8  9  1  0
  9 10  2  0
  9 11  1  0
 11 12  2  0
 11 31  1  0
 12 13  1  0
 12 24  1  0
 13 14  2  0
 13 15  1  0
 15 16  2  0
 15 17  1  0
 17 18  1  0
 18 19  2  0
 18 23  1  0
 19 20  1  0
 20 21  2  0
 21 22  1  0
 22 23  2  0
 24 25  2  0
 25 26  1  0
 25 30  1  0
 26 27  1  0
 27 28  2  0
 28 29  1  0
 29 30  2  0
 30 31  1  0
 31 32  1  1
 32 33  2  0
 32 45  1  0
 33 34  1  0
 34 35  2  0
 35 36  1  0
 35 44  1  0
 36 37  1  0
 37 38  1  0
 38 39  1  0
 39 40  2  0
 39 41  1  0
 41 42  1  0
 42 43  1  0
 44 45  2  0
M  CHG  1   5   1
M  END
