
     RDKit          3D

 17 17  0  0  0  0  0  0  0  0999 V2000
   -3.6460    3.0940    0.4670 C   0  0  0  0  0  0  0  0  0  0  0  0
   -2.5340    2.2860    0.2170 O   0  0  0  0  0  0  0  0  0  0  0  0
   -2.5610    0.9180    0.0760 C   0  0  0  0  0  0  0  0  0  0  0  0
   -3.6010    0.0660    0.1380 N   0  0  0  0  0  0  0  0  0  0  0  0
   -3.1730   -1.1710   -0.0570 N   0  0  0  0  0  0  0  0  0  0  0  0
   -1.8330   -1.1500   -0.2510 C   0  0  0  0  0  0  0  0  0  0  0  0
   -0.9920   -2.2460   -0.4920 O   0  0  0  0  0  0  0  0  0  0  0  0
   -1.5670   -3.5250   -0.5430 C   0  0  0  0  0  0  0  0  0  0  0  0
   -1.4450    0.1540   -0.1700 C   0  0  0  0  0  0  0  0  0  0  0  0
   -0.0840    0.6200   -0.3200 N   0  0  0  0  0  0  0  0  0  0  0  0
    0.7650    0.7250    0.7990 C   0  0  0  0  0  0  0  0  0  0  0  0
    0.1980    0.3140    2.2640 S   0  0  0  0  0  0  0  0  0  0  0  0
    2.0910    1.1850    0.6200 N   0  0  0  0  0  0  0  0  0  0  0  0
    2.9450    0.5870   -0.1210 C   0  0  0  0  0  0  0  0  0  0  0  0
    2.5390   -0.5860   -0.7870 N   0  0  0  0  0  0  0  0  0  0  0  0
    4.3120    1.1510   -0.2430 C   0  0  0  0  0  0  0  0  0  0  0  0
    5.2320    0.1130    0.2450 N   0  0  0  0  0  0  0  0  0  0  0  0
  1  2  1  0
  2  3  1  0
  3  4  2  0
  3  9  1  0
  4  5  1  0
  5  6  1  0
  6  7  1  0
  6  9  2  0
  7  8  1  0
  9 10  1  0
 10 11  1  0
 11 12  2  0
 11 13  1  0
 13 14  2  3
 14 15  1  0
 14 16  1  0
 16 17  1  0
M  END
