
     RDKit          3D

 17 18  0  0  0  0  0  0  0  0999 V2000
    1.3460   -2.2650   -0.1440 C   0  0  0  0  0  0  0  0  0  0  0  0
    1.5690   -0.8420    0.0530 N   0  0  0  0  0  0  0  0  0  0  0  0
    0.6440   -0.0130    0.5700 C   0  0  0  0  0  0  0  0  0  0  0  0
   -1.0190   -0.4380    1.1190 S   0  0  0  0  0  0  0  0  0  0  0  0
   -2.1130   -0.2490   -0.3470 C   0  0  1  0  0  0  0  0  0  0  0  0
   -3.4990   -0.5700   -0.0160 C   0  0  0  0  0  0  0  0  0  0  0  0
   -3.8500   -1.8540    0.4620 N   0  0  0  0  0  0  0  0  0  0  0  0
   -4.3960    0.2900   -0.1510 O   0  0  0  0  0  0  0  0  0  0  0  0
   -1.9490    1.1100   -0.9050 C   0  0  0  0  0  0  0  0  0  0  0  0
   -2.2120    2.2930   -0.1590 N   0  0  0  0  0  0  0  0  0  0  0  0
   -1.5590    1.2300   -2.0910 O   0  0  0  0  0  0  0  0  0  0  0  0
    1.2110    1.2100    0.5960 N   0  0  0  0  0  0  0  0  0  0  0  0
    2.4610    1.1700    0.1120 C   0  0  0  0  0  0  0  0  0  0  0  0
    3.5610    1.9100   -0.1600 N   0  0  0  0  0  0  0  0  0  0  0  0
    4.4540    1.0450   -0.6720 C   0  0  0  0  0  0  0  0  0  0  0  0
    3.9400   -0.1980   -0.7220 N   0  0  0  0  0  0  0  0  0  0  0  0
    2.6870   -0.1480   -0.2350 C   0  0  0  0  0  0  0  0  0  0  0  0
  1  2  1  0
  2  3  1  0
  2 17  1  0
  3  4  1  0
  3 12  2  0
  5  4  1  1
  5  6  1  0
  5  9  1  0
  6  7  1  0
  6  8  2  0
  9 10  1  0
  9 11  2  0
 12 13  1  0
 13 14  1  0
 13 17  2  0
 14 15  1  0
 15 16  2  0
 16 17  1  0
M  END
