
     RDKit          3D

 17 17  0  0  0  0  0  0  0  0999 V2000
   -2.8720    0.2450    2.5450 N   0  0  0  0  0  0  0  0  0  0  0  0
   -3.9720    0.1900    1.6670 C   0  0  0  0  0  0  0  0  0  0  0  0
   -3.8810    0.0220    0.3780 C   0  0  0  0  0  0  0  0  0  0  0  0
   -5.0370   -0.0290   -0.4870 N   0  0  0  0  0  0  0  0  0  0  0  0
   -4.6300   -0.1980   -1.6530 N   0  0  0  0  0  0  0  0  0  0  0  0
   -3.2110   -0.2770   -1.6960 C   0  0  0  0  0  0  0  0  0  0  0  0
   -2.7120   -0.1480   -0.4840 C   0  0  0  0  0  0  0  0  0  0  0  0
   -1.3660   -0.1600   -0.0310 N   0  0  0  0  0  0  0  0  0  0  0  0
   -0.2570   -0.3270   -0.8890 C   0  0  0  0  0  0  0  0  0  0  0  0
   -0.4150   -0.4760   -2.1260 O   0  0  0  0  0  0  0  0  0  0  0  0
    1.1180   -0.3280   -0.3420 C   0  0  0  0  0  0  0  0  0  0  0  0
    1.3070   -0.1810    0.8900 O   0  0  0  0  0  0  0  0  0  0  0  0
    2.2280   -0.4930   -1.1840 N   0  0  0  0  0  0  0  0  0  0  0  0
    3.6070   -0.5060   -0.7400 C   0  0  0  0  0  0  0  0  0  0  0  0
    3.9710    0.7870   -0.0760 C   0  0  0  0  0  0  0  0  0  0  0  0
    5.2630    1.0070    0.4650 N   0  0  0  0  0  0  0  0  0  0  0  0
    2.9000    2.0120    0.0550 S   0  0  0  0  0  0  0  0  0  0  0  0
  1  2  1  0
  2  3  2  3
  3  4  1  0
  3  7  1  0
  4  5  2  0
  5  6  1  0
  6  7  2  0
  7  8  1  0
  8  9  1  0
  9 10  2  0
  9 11  1  0
 11 12  2  0
 11 13  1  0
 13 14  1  0
 14 15  1  0
 15 16  1  0
 15 17  2  0
M  END
