
     RDKit          3D

 17 18  0  0  0  0  0  0  0  0999 V2000
   -5.5900   -0.2020    0.1020 C   0  0  0  0  0  0  0  0  0  0  0  0
   -4.3290   -0.1110   -0.6310 C   0  0  0  0  0  0  0  0  0  0  0  0
   -3.9800    0.0050   -1.8990 N   0  0  0  0  0  0  0  0  0  0  0  0
   -2.6660    0.0480   -2.0410 N   0  0  0  0  0  0  0  0  0  0  0  0
   -2.0570   -0.0430   -0.8010 C   0  0  0  0  0  0  0  0  0  0  0  0
   -0.8230   -0.0530   -0.3370 N   0  0  0  0  0  0  0  0  0  0  0  0
   -0.5960   -0.1580    0.9490 C   0  0  0  0  0  0  0  0  0  0  0  0
    0.3960   -0.1980    1.7020 N   0  0  0  0  0  0  0  0  0  0  0  0
    1.7500   -0.1370    1.3510 C   0  0  0  0  0  0  0  0  0  0  0  0
    2.5350   -0.9860    1.8430 O   0  0  0  0  0  0  0  0  0  0  0  0
    2.3060    0.8280    0.4690 N   0  0  0  0  0  0  0  0  0  0  0  0
    3.6980    0.8790    0.1180 C   0  0  0  0  0  0  0  0  0  0  0  0
    4.1440   -0.3720   -0.5370 C   0  0  0  0  0  0  0  0  0  0  0  0
    5.4960   -0.5060   -0.9560 N   0  0  0  0  0  0  0  0  0  0  0  0
    3.2980   -1.2840   -0.7010 O   0  0  0  0  0  0  0  0  0  0  0  0
   -2.3440   -0.2550    1.6150 S   0  0  0  0  0  0  0  0  0  0  0  0
   -3.0840   -0.1390    0.0460 C   0  0  0  0  0  0  0  0  0  0  0  0
  1  2  1  0
  2  3  2  0
  2 17  1  0
  3  4  1  0
  4  5  1  0
  5  6  1  0
  5 17  2  0
  6  7  1  0
  7  8  2  3
  7 16  1  0
  8  9  1  0
  9 10  2  0
  9 11  1  0
 11 12  1  0
 12 13  1  0
 13 14  1  0
 13 15  2  0
 16 17  1  0
M  END
