
     RDKit          3D

 17 18  0  0  0  0  0  0  0  0999 V2000
   -3.9780   -2.3700   -0.3550 N   0  0  0  0  0  0  0  0  0  0  0  0
   -2.8940   -1.4220   -0.2900 C   0  0  0  0  0  0  0  0  0  0  0  0
   -1.6210   -1.8930   -0.1010 C   0  0  0  0  0  0  0  0  0  0  0  0
   -0.6070   -1.0190   -0.0390 N   0  0  0  0  0  0  0  0  0  0  0  0
   -0.8430    0.3000   -0.1620 N   0  0  0  0  0  0  0  0  0  0  0  0
   -0.0180    1.3670   -0.1370 C   0  0  0  0  0  0  0  0  0  0  0  0
    1.4580    1.3300    0.0470 C   0  0  0  0  0  0  0  0  0  0  0  0
    1.8920   -0.0900    0.1940 C   0  0  0  0  0  0  0  0  0  0  0  0
    3.3310   -0.1970    0.3790 N   0  0  0  0  0  0  0  0  0  0  0  0
    3.8330   -1.8280    0.5490 S   0  0  2  0  0  0  0  0  0  0  0  0
    2.7330   -2.6820    1.1500 O   0  0  0  0  0  0  0  0  0  0  0  0
    5.0900   -1.9030    1.3750 O   0  0  0  0  0  0  0  0  0  0  0  0
   -0.7610    2.5230   -0.3110 C   0  0  0  0  0  0  0  0  0  0  0  0
   -0.2220    3.8590   -0.3410 N   0  0  0  0  0  0  0  0  0  0  0  0
   -2.0280    2.1440   -0.4390 N   0  0  0  0  0  0  0  0  0  0  0  0
   -2.0780    0.7910   -0.3490 C   0  0  0  0  0  0  0  0  0  0  0  0
   -3.1690   -0.0800   -0.4200 C   0  0  0  0  0  0  0  0  0  0  0  0
  1  2  1  0
  2  3  1  0
  2 17  2  0
  3  4  2  0
  4  5  1  0
  5  6  1  0
  5 16  1  0
  6  7  1  0
  6 13  2  0
  7  8  1  0
  8  9  1  0
 10  9  1  1
 10 11  2  0
 10 12  2  0
 13 14  1  0
 13 15  1  0
 15 16  2  0
 16 17  1  0
M  END
