
     RDKit          3D

 15 16  0  0  0  0  0  0  0  0999 V2000
    1.9400    2.4720   -0.8400 N   0  0  0  0  0  0  0  0  0  0  0  0
    2.1070    1.1290   -0.4400 C   0  0  0  0  0  0  0  0  0  0  0  0
    3.4020    0.6520   -0.2820 C   0  0  0  0  0  0  0  0  0  0  0  0
    3.5470   -0.6630    0.1090 C   0  0  0  0  0  0  0  0  0  0  0  0
    2.4650   -1.4950    0.3420 C   0  0  0  0  0  0  0  0  0  0  0  0
    1.1900   -0.9580    0.1670 C   0  0  0  0  0  0  0  0  0  0  0  0
    0.9950    0.3510   -0.2240 C   0  0  0  0  0  0  0  0  0  0  0  0
   -0.2510    0.9160   -0.4070 O   0  0  0  0  0  0  0  0  0  0  0  0
   -1.4400    0.2400   -0.2220 C   0  0  0  0  0  0  0  0  0  0  0  0
   -1.9980   -0.5340   -1.1280 C   0  0  0  0  0  0  0  0  0  0  0  0
   -3.2650   -1.2480   -0.9170 C   0  0  0  0  0  0  0  0  0  0  0  0
   -3.8310   -1.0250    0.3540 O   0  0  0  0  0  0  0  0  0  0  0  0
   -3.2640   -0.2250    1.3060 C   0  0  0  0  0  0  0  0  0  0  0  0
   -2.1250    0.3910    1.0600 C   0  0  0  0  0  0  0  0  0  0  0  0
   -1.5890    1.2020    2.0770 O   0  0  0  0  0  0  0  0  0  0  0  0
  1  2  1  0
  2  3  2  0
  2  7  1  0
  3  4  1  0
  4  5  2  0
  5  6  1  0
  6  7  2  0
  7  8  1  0
  8  9  1  0
  9 10  2  0
  9 14  1  0
 10 11  1  0
 11 12  1  0
 12 13  1  0
 13 14  2  0
 14 15  1  0
M  END
