
     RDKit          3D

 21 22  0  0  0  0  0  0  0  0999 V2000
    3.9750    1.7420   -0.8660 C   0  0  0  0  0  0  0  0  0  0  0  0
    2.8100    1.4670    0.0820 C   0  0  1  0  0  0  0  0  0  0  0  0
    1.5840    1.1100   -0.7230 C   0  0  0  0  0  0  0  0  0  0  0  0
    0.9280    0.0120    0.0800 C   0  0  1  0  0  0  0  0  0  0  0  0
    0.0310   -0.7590   -0.6430 N   0  0  0  0  0  0  0  0  0  0  0  0
   -1.1260   -0.3000   -1.2380 C   0  0  0  0  0  0  0  0  0  0  0  0
   -2.3200    0.0950   -0.4900 C   0  0  1  0  0  0  0  0  0  0  0  0
   -3.4010    0.5370   -1.4800 C   0  0  0  0  0  0  0  0  0  0  0  0
   -2.8500   -1.0500    0.3690 C   0  0  0  0  0  0  0  0  0  0  0  0
   -4.1660   -0.5990    0.9480 C   0  0  0  0  0  0  0  0  0  0  0  0
   -3.9230    1.1560    1.1170 S   0  0  2  0  0  0  0  0  0  0  0  0
   -3.9570    1.5930    2.5460 O   0  0  0  0  0  0  0  0  0  0  0  0
   -4.8120    1.9440    0.2300 O   0  0  0  0  0  0  0  0  0  0  0  0
   -2.2040    1.2090    0.5140 C   0  0  0  0  0  0  0  0  0  0  0  0
    2.1200   -0.7830    0.5120 C   0  0  0  0  0  0  0  0  0  0  0  0
    2.3080   -2.0830    0.5890 C   0  0  0  0  0  0  0  0  0  0  0  0
    3.6040   -2.6680    1.0550 C   0  0  1  0  0  0  0  0  0  0  0  0
    3.2640   -4.1860    1.9130 Cl  0  0  0  0  0  0  0  0  0  0  0  0
    4.6610   -3.0280   -0.3320 Cl  0  0  0  0  0  0  0  0  0  0  0  0
    3.1490    0.2600    0.8910 C   0  0  2  0  0  0  0  0  0  0  0  0
    2.9000    0.6560    2.7590 Br  0  0  0  0  0  0  0  0  0  0  0  0
  2  1  1  6
  2  3  1  0
  2 20  1  0
  3  4  1  0
  4  5  1  6
  4 15  1  0
  5  6  1  0
  6  7  1  0
  7  8  1  6
  7  9  1  0
  7 14  1  0
  9 10  1  0
 11 10  1  1
 11 12  2  0
 11 13  2  0
 11 14  1  0
 15 16  2  3
 15 20  1  0
 16 17  1  0
 17 18  1  6
 17 19  1  0
 20 21  1  1
M  END
