
     RDKit          3D

 15 15  0  0  0  0  0  0  0  0999 V2000
    4.6260    1.1150   -0.4730 C   0  0  0  0  0  0  0  0  0  0  0  0
    3.2120    0.6400   -0.4190 C   0  0  0  0  0  0  0  0  0  0  0  0
    2.8420   -0.5070   -1.0770 C   0  0  0  0  0  0  0  0  0  0  0  0
    1.5530   -0.9750   -1.0500 C   0  0  0  0  0  0  0  0  0  0  0  0
    0.5260   -0.3120   -0.3470 C   0  0  0  0  0  0  0  0  0  0  0  0
   -0.8150   -0.8510   -0.3530 C   0  0  0  0  0  0  0  0  0  0  0  0
   -1.0140   -2.0400   -1.0830 O   0  0  0  0  0  0  0  0  0  0  0  0
   -1.8730   -0.3800    0.2310 C   0  0  0  0  0  0  0  0  0  0  0  0
   -3.1720   -1.0550    0.1240 C   0  0  0  0  0  0  0  0  0  0  0  0
   -3.3030   -2.2070   -0.5990 O   0  0  0  0  0  0  0  0  0  0  0  0
   -4.2120   -0.5430    0.7310 C   0  0  0  0  0  0  0  0  0  0  0  0
   -4.1090    0.6500    1.4880 N   0  0  0  0  0  0  0  0  0  0  0  0
    0.9200    0.8370    0.3060 C   0  0  0  0  0  0  0  0  0  0  0  0
   -0.0070    1.5690    1.0280 O   0  0  0  0  0  0  0  0  0  0  0  0
    2.2410    1.3100    0.2740 C   0  0  0  0  0  0  0  0  0  0  0  0
  1  2  1  0
  2  3  2  0
  2 15  1  0
  3  4  1  0
  4  5  2  0
  5  6  1  0
  5 13  1  0
  6  7  1  0
  6  8  2  3
  8  9  1  0
  9 10  1  0
  9 11  2  3
 11 12  1  0
 13 14  1  0
 13 15  2  0
M  END
