
     RDKit          3D

 15 16  0  0  0  0  0  0  0  0999 V2000
   -3.5430    0.4820    0.0700 N   0  0  0  0  0  0  0  0  0  0  0  0
   -2.3420   -0.2790    0.0950 C   0  0  0  0  0  0  0  0  0  0  0  0
   -2.3810   -1.6620    0.2360 C   0  0  0  0  0  0  0  0  0  0  0  0
   -1.1920   -2.3590    0.2550 C   0  0  0  0  0  0  0  0  0  0  0  0
    0.0050   -1.6670    0.1340 C   0  0  0  0  0  0  0  0  0  0  0  0
    0.0460   -0.2950   -0.0060 C   0  0  0  0  0  0  0  0  0  0  0  0
    1.2250    0.3800   -0.1240 C   0  0  0  0  0  0  0  0  0  0  0  0
    2.7490   -0.5200   -0.0990 S   0  0  1  0  0  0  0  0  0  0  0  0
    2.9040   -1.2650    1.1810 O   0  0  0  0  0  0  0  0  0  0  0  0
    2.9050   -1.2430   -1.4450 O   0  0  0  0  0  0  0  0  0  0  0  0
    3.9230    0.7680   -0.1140 O   0  0  0  0  0  0  0  0  0  0  0  0
    1.2040    1.7490   -0.2610 C   0  0  0  0  0  0  0  0  0  0  0  0
    0.0340    2.4690   -0.2840 C   0  0  0  0  0  0  0  0  0  0  0  0
   -1.1590    1.7860   -0.1640 C   0  0  0  0  0  0  0  0  0  0  0  0
   -1.1510    0.4130   -0.0260 C   0  0  0  0  0  0  0  0  0  0  0  0
  1  2  1  0
  2  3  2  0
  2 15  1  0
  3  4  1  0
  4  5  2  0
  5  6  1  0
  6  7  2  0
  6 15  1  0
  7  8  1  0
  7 12  1  0
  8  9  1  1
  8 10  1  0
  8 11  1  0
 12 13  2  0
 13 14  1  0
 14 15  2  0
M  END
