
     RDKit          3D

 14 14  0  0  0  0  0  0  0  0999 V2000
    4.1170    0.9780    0.5960 C   0  0  0  0  0  0  0  0  0  0  0  0
    3.2240    0.0740   -0.2530 C   0  0  0  0  0  0  0  0  0  0  0  0
    2.0620    0.7300   -0.6120 O   0  0  0  0  0  0  0  0  0  0  0  0
    1.2860   -0.0910   -1.3780 C   0  0  0  0  0  0  0  0  0  0  0  0
    0.8490   -1.3770   -0.7290 C   0  0  0  0  0  0  0  0  0  0  0  0
    0.0870   -1.1720    0.4390 O   0  0  0  0  0  0  0  0  0  0  0  0
   -1.0910   -0.4710    0.3410 C   0  0  0  0  0  0  0  0  0  0  0  0
   -1.0340    0.7730    0.7450 C   0  0  0  0  0  0  0  0  0  0  0  0
   -2.0400    1.7810    0.7890 N   0  0  0  0  0  0  0  0  0  0  0  0
   -3.3910    1.6420    0.3750 C   0  0  0  0  0  0  0  0  0  0  0  0
   -3.9870    0.5760   -0.1190 C   0  0  0  0  0  0  0  0  0  0  0  0
   -3.4600   -0.7590   -0.3880 C   0  0  0  0  0  0  0  0  0  0  0  0
   -2.2140   -1.2060   -0.1890 C   0  0  0  0  0  0  0  0  0  0  0  0
   -2.0390   -2.5370   -0.5520 O   0  0  0  0  0  0  0  0  0  0  0  0
  1  2  1  0
  2  3  1  0
  3  4  1  0
  4  5  1  0
  5  6  1  0
  6  7  1  0
  7  8  2  0
  7 13  1  0
  8  9  1  0
  9 10  1  0
 10 11  2  0
 11 12  1  0
 12 13  2  0
 13 14  1  0
M  END
