
     RDKit          3D

 15 15  0  0  0  0  0  0  0  0999 V2000
   -3.4960   -1.1920    1.6500 C   0  0  0  0  0  0  0  0  0  0  0  0
   -3.1280    0.1960    1.1810 C   0  0  0  0  0  0  0  0  0  0  0  0
   -2.2080    0.1900    0.0360 C   0  0  0  0  0  0  0  0  0  0  0  0
   -2.7150    0.1800   -1.2420 C   0  0  0  0  0  0  0  0  0  0  0  0
   -1.8730    0.1750   -2.2940 N   0  0  0  0  0  0  0  0  0  0  0  0
   -0.5490    0.1780   -2.2030 C   0  0  0  0  0  0  0  0  0  0  0  0
    0.2080    0.1720   -3.2150 O   0  0  0  0  0  0  0  0  0  0  0  0
    0.0190    0.1880   -0.9200 C   0  0  0  0  0  0  0  0  0  0  0  0
    1.4630    0.1910   -0.8110 C   0  0  0  0  0  0  0  0  0  0  0  0
    2.0950    0.2000    0.3330 C   0  0  0  0  0  0  0  0  0  0  0  0
    3.5560    0.2030    0.4180 C   0  0  0  0  0  0  0  0  0  0  0  0
    4.3130    0.1970   -0.7510 O   0  0  0  0  0  0  0  0  0  0  0  0
    4.1740    0.2120    1.5730 C   0  0  0  0  0  0  0  0  0  0  0  0
    5.5530    0.2150    1.6900 O   0  0  0  0  0  0  0  0  0  0  0  0
   -0.8230    0.1940    0.1710 C   0  0  0  0  0  0  0  0  0  0  0  0
  1  2  1  0
  2  3  1  0
  3  4  2  0
  3 15  1  0
  4  5  1  0
  5  6  1  0
  6  7  2  0
  6  8  1  0
  8  9  1  0
  8 15  2  0
  9 10  2  3
 10 11  1  0
 11 12  1  0
 11 13  2  3
 13 14  1  0
M  END
