
     RDKit          3D

 15 16  0  0  0  0  0  0  0  0999 V2000
    2.9220   -1.6320   -0.9690 C   0  0  0  0  0  0  0  0  0  0  0  0
    3.0040   -0.5760   -0.1700 C   0  0  0  0  0  0  0  0  0  0  0  0
    1.7710    0.1030    0.2590 C   0  0  0  0  0  0  0  0  0  0  0  0
    0.5890   -0.3690   -0.1710 N   0  0  0  0  0  0  0  0  0  0  0  0
   -0.6080    0.1910    0.1720 C   0  0  0  0  0  0  0  0  0  0  0  0
   -1.8570   -0.3610   -0.3290 C   0  0  0  0  0  0  0  0  0  0  0  0
   -2.1060   -0.6690   -1.6720 C   0  0  0  0  0  0  0  0  0  0  0  0
   -3.3810   -1.1860   -1.7280 C   0  0  0  0  0  0  0  0  0  0  0  0
   -3.8990   -1.2050   -0.5230 O   0  0  0  0  0  0  0  0  0  0  0  0
   -3.0140   -0.7240    0.3120 C   0  0  0  0  0  0  0  0  0  0  0  0
   -0.5440    1.2870    0.9970 C   0  0  0  0  0  0  0  0  0  0  0  0
   -1.7270    1.9230    1.3920 O   0  0  0  0  0  0  0  0  0  0  0  0
    0.6710    1.7940    1.4570 C   0  0  0  0  0  0  0  0  0  0  0  0
    1.8590    1.1990    1.0880 C   0  0  0  0  0  0  0  0  0  0  0  0
    3.0820    1.7160    1.5560 O   0  0  0  0  0  0  0  0  0  0  0  0
  1  2  2  0
  2  3  1  0
  3  4  2  0
  3 14  1  0
  4  5  1  0
  5  6  1  0
  5 11  2  0
  6  7  1  0
  6 10  2  0
  7  8  2  0
  8  9  1  0
  9 10  1  0
 11 12  1  0
 11 13  1  0
 13 14  2  0
 14 15  1  0
M  END
