
     RDKit          3D

 15 15  0  0  0  0  0  0  0  0999 V2000
   -1.4440    3.7760    0.8700 C   0  0  0  0  0  0  0  0  0  0  0  0
   -1.6600    2.5370    0.3680 C   0  0  0  0  0  0  0  0  0  0  0  0
   -0.6950    1.5230    0.5630 C   0  0  0  0  0  0  0  0  0  0  0  0
   -0.5880    0.2590    0.2230 C   0  0  0  0  0  0  0  0  0  0  0  0
   -1.4420   -0.6470   -0.5140 C   0  0  0  0  0  0  0  0  0  0  0  0
   -2.7170   -0.4660   -1.1340 C   0  0  0  0  0  0  0  0  0  0  0  0
   -3.3390   -1.5860   -1.8150 N   0  0  0  0  0  0  0  0  0  0  0  0
   -3.3630    0.5750   -1.1510 O   0  0  0  0  0  0  0  0  0  0  0  0
   -0.8100   -1.8390   -0.5510 C   0  0  0  0  0  0  0  0  0  0  0  0
    0.4510   -1.7720    0.1390 C   0  0  0  0  0  0  0  0  0  0  0  0
    1.3520   -2.8540    0.2790 O   0  0  0  0  0  0  0  0  0  0  0  0
    0.6060   -0.5610    0.6000 C   0  0  0  0  0  0  0  0  0  0  0  0
    1.6720   -0.0830    1.3160 O   0  0  0  0  0  0  0  0  0  0  0  0
    3.0160   -0.4030    1.0630 C   0  0  0  0  0  0  0  0  0  0  0  0
    3.4800   -0.0130   -0.3100 C   0  0  0  0  0  0  0  0  0  0  0  0
  1  2  2  0
  2  3  1  0
  3  4  2  3
  4  5  1  0
  4 12  1  0
  5  6  1  0
  5  9  2  0
  6  7  1  0
  6  8  2  0
  9 10  1  0
 10 11  1  0
 10 12  2  0
 12 13  1  0
 13 14  1  0
 14 15  1  0
M  END
