
     RDKit          3D

 23 25  0  0  0  0  0  0  0  0999 V2000
    5.2250   -1.8860    1.7790 C   0  0  0  0  0  0  0  0  0  0  0  0
    4.8980   -0.6970    0.9480 C   0  0  0  0  0  0  0  0  0  0  0  0
    5.8730    0.1540    0.4850 C   0  0  0  0  0  0  0  0  0  0  0  0
    5.5630    1.2550   -0.2850 C   0  0  0  0  0  0  0  0  0  0  0  0
    6.6520    2.1430   -0.7600 C   0  0  0  0  0  0  0  0  0  0  0  0
    4.2520    1.5180   -0.6040 C   0  0  0  0  0  0  0  0  0  0  0  0
    3.2320    0.6970   -0.1660 C   0  0  0  0  0  0  0  0  0  0  0  0
    1.8360    0.9610   -0.4950 C   0  0  0  0  0  0  0  0  0  0  0  0
    1.5900    1.9750   -1.2000 O   0  0  0  0  0  0  0  0  0  0  0  0
    0.7580    0.1740   -0.0860 N   0  0  0  0  0  0  0  0  0  0  0  0
   -0.6350    0.4720   -0.4370 C   0  0  0  0  0  0  0  0  0  0  0  0
   -1.5290   -0.5580    0.1550 C   0  0  2  0  0  0  0  0  0  0  0  0
   -1.1790   -1.9370   -0.3660 C   0  0  0  0  0  0  0  0  0  0  0  0
   -2.2730   -2.2290   -1.3580 C   0  0  0  0  0  0  0  0  0  0  0  0
   -3.4650   -1.5370   -0.6980 C   0  0  0  0  0  0  0  0  0  0  0  0
   -2.8970   -0.4240   -0.0810 N   0  0  0  0  0  0  0  0  0  0  0  0
   -3.4560    0.8430   -0.2870 C   0  0  0  0  0  0  0  0  0  0  0  0
   -4.8700    0.8480    0.1860 C   0  0  0  0  0  0  0  0  0  0  0  0
   -6.0050    0.5390   -0.5560 C   0  0  0  0  0  0  0  0  0  0  0  0
   -7.0960    0.6770    0.2900 C   0  0  0  0  0  0  0  0  0  0  0  0
   -6.6260    1.0490    1.4720 N   0  0  0  0  0  0  0  0  0  0  0  0
   -5.2900    1.1650    1.4580 C   0  0  0  0  0  0  0  0  0  0  0  0
    3.5790   -0.3920    0.6000 C   0  0  0  0  0  0  0  0  0  0  0  0
  1  2  1  0
  2  3  2  0
  2 23  1  0
  3  4  1  0
  4  5  1  0
  4  6  2  0
  6  7  1  0
  7  8  1  0
  7 23  2  0
  8  9  2  0
  8 10  1  0
 10 11  1  0
 12 11  1  6
 12 13  1  0
 12 16  1  0
 13 14  1  0
 14 15  1  0
 15 16  1  0
 16 17  1  0
 17 18  1  0
 18 19  1  0
 18 22  2  0
 19 20  2  0
 20 21  1  0
 21 22  1  0
M  END
