
     RDKit          3D

 23 25  0  0  0  0  0  0  0  0999 V2000
    1.0580    1.3400    0.3980 C   0  0  0  0  0  0  0  0  0  0  0  0
    1.6310    0.0360   -0.0230 C   0  0  0  0  0  0  0  0  0  0  0  0
    3.0230   -0.1230   -0.0410 C   0  0  0  0  0  0  0  0  0  0  0  0
    3.5640   -1.3190   -0.4270 C   0  0  0  0  0  0  0  0  0  0  0  0
    4.9610   -1.4900   -0.4490 N   0  0  0  0  0  0  0  0  0  0  0  0
    5.8240   -0.4010   -0.0650 C   0  0  0  0  0  0  0  0  0  0  0  0
    5.8870    0.1310    1.1430 C   0  0  0  0  0  0  0  0  0  0  0  0
    6.8840    1.2280    1.1700 C   0  0  0  0  0  0  0  0  0  0  0  0
    7.3970    1.2590   -0.2020 C   0  0  0  0  0  0  0  0  0  0  0  0
    6.7760    0.3190   -0.8910 C   0  0  0  0  0  0  0  0  0  0  0  0
    2.7420   -2.3480   -0.7900 C   0  0  0  0  0  0  0  0  0  0  0  0
    1.3530   -2.1810   -0.7690 C   0  0  0  0  0  0  0  0  0  0  0  0
    0.7930   -0.9870   -0.3850 C   0  0  0  0  0  0  0  0  0  0  0  0
   -0.6290   -0.7660   -0.3460 N   0  0  0  0  0  0  0  0  0  0  0  0
   -1.5570   -1.7950   -0.7120 C   0  0  0  0  0  0  0  0  0  0  0  0
   -2.9680   -1.4650   -0.6370 C   0  0  0  0  0  0  0  0  0  0  0  0
   -3.8360   -2.3580   -0.9570 O   0  0  0  0  0  0  0  0  0  0  0  0
   -3.5310   -0.2280   -0.2390 N   0  0  0  0  0  0  0  0  0  0  0  0
   -4.9880   -0.0330   -0.2100 C   0  0  1  0  0  0  0  0  0  0  0  0
   -5.4230    0.3030    1.1960 C   0  0  0  0  0  0  0  0  0  0  0  0
   -6.7930    0.9410    0.9310 C   0  0  0  0  0  0  0  0  0  0  0  0
   -6.4320    1.9160   -0.1820 C   0  0  0  0  0  0  0  0  0  0  0  0
   -5.3610    1.2020   -0.9770 C   0  0  0  0  0  0  0  0  0  0  0  0
  1  2  1  0
  2  3  2  0
  2 13  1  0
  3  4  1  0
  4  5  1  0
  4 11  2  0
  5  6  1  0
  6  7  2  0
  6 10  1  0
  7  8  1  0
  8  9  1  0
  9 10  2  0
 11 12  1  0
 12 13  2  0
 13 14  1  0
 14 15  1  0
 15 16  1  0
 16 17  2  0
 16 18  1  0
 19 18  1  1
 19 20  1  0
 19 23  1  0
 20 21  1  0
 21 22  1  0
 22 23  1  0
M  END
