
     RDKit          3D

 23 25  0  0  0  0  0  0  0  0999 V2000
   -1.4630    3.2670    1.3490 C   0  0  0  0  0  0  0  0  0  0  0  0
   -1.0750    2.2930    0.2590 C   0  0  0  0  0  0  0  0  0  0  0  0
   -1.8020    0.9970    0.5160 C   0  0  0  0  0  0  0  0  0  0  0  0
   -1.4920   -0.0580   -0.5120 C   0  0  1  0  0  0  0  0  0  0  0  0
   -0.0510   -0.4000   -0.5640 C   0  0  0  0  0  0  0  0  0  0  0  0
    0.6220   -0.2430   -1.6170 O   0  0  0  0  0  0  0  0  0  0  0  0
    0.6630   -0.9240    0.5610 N   0  0  0  0  0  0  0  0  0  0  0  0
    2.0470   -1.2500    0.5030 C   0  0  0  0  0  0  0  0  0  0  0  0
    3.1230   -0.4590    0.7740 C   0  0  0  0  0  0  0  0  0  0  0  0
    3.0380    0.9350    1.1920 C   0  0  0  0  0  0  0  0  0  0  0  0
    2.2030    1.4960    2.1380 C   0  0  0  0  0  0  0  0  0  0  0  0
    2.4640    2.8500    2.2090 C   0  0  0  0  0  0  0  0  0  0  0  0
    3.4540    3.1290    1.3150 N   0  0  0  0  0  0  0  0  0  0  0  0
    3.7930    1.9890    0.7120 C   0  0  0  0  0  0  0  0  0  0  0  0
    4.2380   -1.2470    0.5680 C   0  0  0  0  0  0  0  0  0  0  0  0
    3.8410   -2.4950    0.1800 N   0  0  0  0  0  0  0  0  0  0  0  0
    2.4970   -2.5150    0.1350 C   0  0  0  0  0  0  0  0  0  0  0  0
    1.6270   -3.6830   -0.2430 C   0  0  0  0  0  0  0  0  0  0  0  0
   -2.2910   -1.3020   -0.0960 C   0  0  0  0  0  0  0  0  0  0  0  0
   -2.6430   -2.1400   -1.3010 C   0  0  0  0  0  0  0  0  0  0  0  0
   -3.7320   -1.4270   -2.0450 C   0  0  0  0  0  0  0  0  0  0  0  0
   -3.4120    0.0300   -2.1260 C   0  0  0  0  0  0  0  0  0  0  0  0
   -1.9470    0.3110   -1.8850 C   0  0  0  0  0  0  0  0  0  0  0  0
  1  2  1  0
  2  3  1  0
  4  3  1  1
  4  5  1  0
  4 19  1  0
  4 23  1  0
  5  6  2  0
  5  7  1  0
  7  8  1  0
  8  9  1  0
  8 17  2  0
  9 10  1  0
  9 15  2  0
 10 11  1  0
 10 14  2  0
 11 12  2  0
 12 13  1  0
 13 14  1  0
 15 16  1  0
 16 17  1  0
 17 18  1  0
 19 20  1  0
 20 21  1  0
 21 22  1  0
 22 23  1  0
M  END
