
     RDKit          3D

 24 26  0  0  0  0  0  0  0  0999 V2000
    5.8440    2.7250   -0.8330 C   0  0  0  0  0  0  0  0  0  0  0  0
    4.8850    1.7350   -0.2710 C   0  0  0  0  0  0  0  0  0  0  0  0
    3.6030    1.6630   -0.7630 C   0  0  0  0  0  0  0  0  0  0  0  0
    2.7000    0.7430   -0.2450 C   0  0  0  0  0  0  0  0  0  0  0  0
    3.0110   -0.1400    0.7700 C   0  0  0  0  0  0  0  0  0  0  0  0
    2.0340   -1.0920    1.2930 C   0  0  0  0  0  0  0  0  0  0  0  0
    2.3220   -2.0020    2.2790 C   0  0  0  0  0  0  0  0  0  0  0  0
    1.3740   -2.9050    2.7560 C   0  0  0  0  0  0  0  0  0  0  0  0
    0.1230   -2.8670    2.2110 C   0  0  0  0  0  0  0  0  0  0  0  0
   -0.1860   -1.9370    1.1990 C   0  0  0  0  0  0  0  0  0  0  0  0
   -1.5410   -1.9450    0.6640 C   0  0  0  0  0  0  0  0  0  0  0  0
   -2.3990   -2.7930    1.1160 O   0  0  0  0  0  0  0  0  0  0  0  0
   -1.9150   -1.0350   -0.3410 N   0  0  0  0  0  0  0  0  0  0  0  0
   -1.0120   -0.0620   -0.8860 C   0  0  0  0  0  0  0  0  0  0  0  0
   -1.6780    0.7120   -1.9620 C   0  0  0  0  0  0  0  0  0  0  0  0
   -2.9960    1.3180   -1.5510 C   0  0  0  0  0  0  0  0  0  0  0  0
   -3.9000    0.3150   -0.8850 C   0  0  1  0  0  0  0  0  0  0  0  0
   -4.3190    0.7150    0.5060 C   0  0  0  0  0  0  0  0  0  0  0  0
   -5.1590    0.2090   -1.7170 C   0  0  0  0  0  0  0  0  0  0  0  0
   -3.2700   -1.0650   -0.8640 C   0  0  0  0  0  0  0  0  0  0  0  0
    0.7830   -1.1010    0.7940 N   0  0  0  0  0  0  0  0  0  0  0  0
    4.3000   -0.0580    1.2560 C   0  0  0  0  0  0  0  0  0  0  0  0
    5.2230    0.8670    0.7410 C   0  0  0  0  0  0  0  0  0  0  0  0
    6.4780    0.9250    1.2360 F   0  0  0  0  0  0  0  0  0  0  0  0
  1  2  1  0
  2  3  2  0
  2 23  1  0
  3  4  1  0
  4  5  2  0
  5  6  1  0
  5 22  1  0
  6  7  2  0
  6 21  1  0
  7  8  1  0
  8  9  2  0
  9 10  1  0
 10 11  1  0
 10 21  2  0
 11 12  2  0
 11 13  1  0
 13 14  1  0
 13 20  1  0
 14 15  1  0
 15 16  1  0
 16 17  1  0
 17 18  1  1
 17 19  1  0
 17 20  1  0
 22 23  2  0
 23 24  1  0
M  END
