
     RDKit          3D

 23 25  0  0  0  0  0  0  0  0999 V2000
    6.8640   -0.0960   -0.1510 C   0  0  0  0  0  0  0  0  0  0  0  0
    6.1120    0.7150    0.8790 C   0  0  0  0  0  0  0  0  0  0  0  0
    4.6310    0.7180    0.5600 C   0  0  0  0  0  0  0  0  0  0  0  0
    4.1150   -0.7080    0.5730 C   0  0  0  0  0  0  0  0  0  0  0  0
    2.6690   -0.7170    0.2640 C   0  0  0  0  0  0  0  0  0  0  0  0
    2.2290   -1.1030   -0.9830 C   0  0  0  0  0  0  0  0  0  0  0  0
    0.8950   -1.1350   -1.3340 C   0  0  0  0  0  0  0  0  0  0  0  0
   -0.0240   -0.7600   -0.3820 C   0  0  0  0  0  0  0  0  0  0  0  0
    0.4200   -0.3680    0.8830 C   0  0  0  0  0  0  0  0  0  0  0  0
    1.7530   -0.3370    1.2310 C   0  0  0  0  0  0  0  0  0  0  0  0
    2.1610    0.0740    2.5450 N   0  0  0  0  0  0  0  0  0  0  0  0
   -1.3650   -0.8860   -0.9960 C   0  0  1  0  0  0  0  0  0  0  0  0
   -2.3750    0.0280   -0.3690 C   0  0  0  0  0  0  0  0  0  0  0  0
   -3.7380   -0.0820   -0.9740 C   0  0  0  0  0  0  0  0  0  0  0  0
   -4.7070    0.8340   -0.3200 C   0  0  0  0  0  0  0  0  0  0  0  0
   -5.3050    0.6460    0.9290 C   0  0  0  0  0  0  0  0  0  0  0  0
   -5.1280   -0.4630    1.8710 C   0  0  0  0  0  0  0  0  0  0  0  0
   -6.1170    1.7060    1.1500 N   0  0  0  0  0  0  0  0  0  0  0  0
   -6.0800    2.5550    0.1340 N   0  0  0  0  0  0  0  0  0  0  0  0
   -5.2250    2.0320   -0.7630 C   0  0  0  0  0  0  0  0  0  0  0  0
   -4.9540    2.5890   -1.8570 O   0  0  0  0  0  0  0  0  0  0  0  0
   -1.0970   -0.6520   -2.4420 C   0  0  0  0  0  0  0  0  0  0  0  0
    0.1760   -1.5040   -2.6040 C   0  0  0  0  0  0  0  0  0  0  0  0
  1  2  1  0
  2  3  1  0
  3  4  1  0
  4  5  1  0
  5  6  2  0
  5 10  1  0
  6  7  1  0
  7  8  2  0
  7 23  1  0
  8  9  1  0
  8 12  1  0
  9 10  2  0
 10 11  1  0
 12 13  1  1
 12 22  1  0
 13 14  1  0
 14 15  1  0
 15 16  2  0
 15 20  1  0
 16 17  1  0
 16 18  1  0
 18 19  1  0
 19 20  1  0
 20 21  2  0
 22 23  1  0
M  END
