
     RDKit          3D

 23 25  0  0  0  0  0  0  0  0999 V2000
   -4.1600    1.3330    0.8030 O   0  0  0  0  0  0  0  0  0  0  0  0
   -3.7330    0.3140    0.2680 C   0  0  0  0  0  0  0  0  0  0  0  0
   -2.3050    0.2260    0.1230 N   0  0  0  0  0  0  0  0  0  0  0  0
   -1.4280    1.2760    0.5820 C   0  0  0  0  0  0  0  0  0  0  0  0
   -0.0240    0.8470    0.2710 C   0  0  0  0  0  0  0  0  0  0  0  0
    0.8770    0.6930    1.1880 C   0  0  0  0  0  0  0  0  0  0  0  0
    2.2410    0.2750    0.8720 C   0  0  0  0  0  0  0  0  0  0  0  0
    3.1200    0.1380    1.8870 C   0  0  0  0  0  0  0  0  0  0  0  0
    4.4650   -0.2740    1.5760 C   0  0  0  0  0  0  0  0  0  0  0  0
    4.8750   -0.5210    0.3540 C   0  0  0  0  0  0  0  0  0  0  0  0
    6.2780   -0.9490    0.0470 C   0  0  0  0  0  0  0  0  0  0  0  0
    6.8950    0.1460   -0.7770 C   0  0  0  0  0  0  0  0  0  0  0  0
    5.8840    1.1960   -1.1810 C   0  0  0  0  0  0  0  0  0  0  0  0
    4.6220    0.5970   -1.7510 C   0  0  0  0  0  0  0  0  0  0  0  0
    3.9700   -0.3910   -0.7960 C   0  0  2  0  0  0  0  0  0  0  0  0
    2.6290    0.0220   -0.4580 N   0  0  0  0  0  0  0  0  0  0  0  0
   -4.5920   -0.7020   -0.1750 N   0  0  0  0  0  0  0  0  0  0  0  0
   -6.0030   -0.6900   -0.0820 C   0  0  0  0  0  0  0  0  0  0  0  0
   -6.6810   -1.9030   -0.3140 C   0  0  0  0  0  0  0  0  0  0  0  0
   -8.0420   -1.9750   -0.2590 C   0  0  0  0  0  0  0  0  0  0  0  0
   -8.7720   -0.8470    0.0280 C   0  0  0  0  0  0  0  0  0  0  0  0
   -8.1100    0.3340    0.2530 C   0  0  0  0  0  0  0  0  0  0  0  0
   -6.7150    0.4470    0.2050 C   0  0  0  0  0  0  0  0  0  0  0  0
  1  2  2  0
  2  3  1  0
  2 17  1  0
  3  4  1  0
  4  5  1  0
  5  6  2  3
  6  7  1  0
  7  8  2  0
  7 16  1  0
  8  9  1  0
  9 10  2  0
 10 11  1  0
 10 15  1  0
 11 12  1  0
 12 13  1  0
 13 14  1  0
 15 14  1  6
 15 16  1  0
 17 18  1  0
 18 19  2  0
 18 23  1  0
 19 20  1  0
 20 21  2  0
 21 22  1  0
 22 23  2  0
M  END
