
     RDKit          3D

 25 27  0  0  0  0  0  0  0  0999 V2000
   -3.9090   -3.1450   -2.3410 C   0  0  0  0  0  0  0  0  0  0  0  0
   -2.9250   -3.5660   -1.1780 C   0  0  0  0  0  0  0  0  0  0  0  0
   -1.9940   -2.3890   -0.9680 C   0  0  0  0  0  0  0  0  0  0  0  0
   -0.9810   -2.4640    0.0660 C   0  0  0  0  0  0  0  0  0  0  0  0
   -0.7800   -3.5350    0.8170 C   0  0  0  0  0  0  0  0  0  0  0  0
   -1.8070   -4.9730    0.5510 Cl  0  0  0  0  0  0  0  0  0  0  0  0
    0.2120   -3.6540    1.8880 C   0  0  0  0  0  0  0  0  0  0  0  0
    1.0260   -2.4680    2.1060 C   0  0  0  0  0  0  0  0  0  0  0  0
    0.8450   -1.3860    1.3670 C   0  0  0  0  0  0  0  0  0  0  0  0
   -0.1280   -1.2520    0.3140 C   0  0  0  0  0  0  0  0  0  0  0  0
   -0.0280   -0.0340   -0.2860 C   0  0  0  0  0  0  0  0  0  0  0  0
   -0.7780    0.4120   -1.4200 C   0  0  0  0  0  0  0  0  0  0  0  0
   -0.9050    1.5390   -1.9810 C   0  0  0  0  0  0  0  0  0  0  0  0
   -1.9870    1.5380   -3.4860 Cl  0  0  0  0  0  0  0  0  0  0  0  0
   -0.7170    2.8910   -1.5490 C   0  0  0  0  0  0  0  0  0  0  0  0
   -0.7870    3.8810   -2.3640 O   0  0  0  0  0  0  0  0  0  0  0  0
   -0.4720    3.2570   -0.2470 O   0  0  0  0  0  0  0  0  0  0  0  0
   -0.3110    4.6140    0.1560 C   0  0  0  0  0  0  0  0  0  0  0  0
    1.0830    0.6450    0.3930 C   0  0  0  0  0  0  0  0  0  0  0  0
    1.8530    1.7540    0.3890 N   0  0  0  0  0  0  0  0  0  0  0  0
    2.8040    1.6330    1.3560 C   0  0  0  0  0  0  0  0  0  0  0  0
    3.7840    2.6160    1.6380 N   0  0  0  0  0  0  0  0  0  0  0  0
    3.8370    3.8470    0.8960 C   0  0  0  0  0  0  0  0  0  0  0  0
    2.6570    0.4610    1.9730 N   0  0  0  0  0  0  0  0  0  0  0  0
    1.6230   -0.1300    1.3840 C   0  0  0  0  0  0  0  0  0  0  0  0
  1  2  1  0
  2  3  1  0
  3  4  1  0
  4  5  2  0
  4 10  1  0
  5  6  1  0
  5  7  1  0
  7  8  1  0
  8  9  2  0
  9 10  1  0
  9 25  1  0
 10 11  2  0
 11 12  1  0
 11 19  1  0
 12 13  2  3
 13 14  1  0
 13 15  1  0
 15 16  2  0
 15 17  1  0
 17 18  1  0
 19 20  1  0
 19 25  2  0
 20 21  2  0
 21 22  1  0
 21 24  1  0
 22 23  1  0
 24 25  1  0
M  CHG  1  20   1
M  END
