
     RDKit          3D

 18 19  0  0  0  0  0  0  0  0999 V2000
    4.7230   -1.1320    0.0330 C   0  0  0  0  0  0  0  0  0  0  0  0
    3.6110   -0.1110   -0.1000 C   0  0  2  0  0  0  0  0  0  0  0  0
    2.4830   -0.5820    0.6390 N   0  0  0  0  0  0  0  0  0  0  0  0
    1.3120   -0.1880   -0.0460 C   0  0  0  0  0  0  0  0  0  0  0  0
    0.0680   -0.1140    0.4820 C   0  0  0  0  0  0  0  0  0  0  0  0
   -1.0290    0.3010   -0.3280 C   0  0  0  0  0  0  0  0  0  0  0  0
   -2.2900    0.4290    0.0110 C   0  0  0  0  0  0  0  0  0  0  0  0
   -3.2850    0.8810   -0.9980 C   0  0  0  0  0  0  0  0  0  0  0  0
   -2.8760    1.1270   -2.1540 O   0  0  0  0  0  0  0  0  0  0  0  0
   -4.6470    1.0260   -0.6530 N   0  0  0  0  0  0  0  0  0  0  0  0
   -5.0790    0.7410    0.6600 C   0  0  0  0  0  0  0  0  0  0  0  0
   -6.2980    0.8770    0.9420 O   0  0  0  0  0  0  0  0  0  0  0  0
   -4.1140    0.3130    1.5980 N   0  0  0  0  0  0  0  0  0  0  0  0
   -2.8460    0.1660    1.3240 C   0  0  0  0  0  0  0  0  0  0  0  0
   -2.0060   -0.2660    2.3570 O   0  0  0  0  0  0  0  0  0  0  0  0
    1.6840    0.1130   -1.3820 N   0  0  0  0  0  0  0  0  0  0  0  0
    3.0970   -0.1050   -1.4950 C   0  0  0  0  0  0  0  0  0  0  0  0
    3.7170   -0.2510   -2.5580 O   0  0  0  0  0  0  0  0  0  0  0  0
  2  1  1  6
  2  3  1  0
  2 17  1  0
  3  4  1  0
  4  5  2  3
  4 16  1  0
  5  6  1  0
  6  7  2  3
  7  8  1  0
  7 14  1  0
  8  9  2  0
  8 10  1  0
 10 11  1  0
 11 12  2  0
 11 13  1  0
 13 14  2  0
 14 15  1  0
 16 17  1  0
 17 18  2  0
M  END
