
     RDKit          3D

 19 20  0  0  0  0  0  0  0  0999 V2000
   -5.4940   -0.8470    0.4880 N   0  0  0  0  0  0  0  0  0  0  0  0
   -4.2690   -0.3970    0.3900 C   0  0  0  0  0  0  0  0  0  0  0  0
   -3.5250   -0.4740   -0.8970 C   0  0  0  0  0  0  0  0  0  0  0  0
   -2.1140   -0.0790   -0.6010 C   0  0  2  0  0  0  0  0  0  0  0  0
   -2.0550    1.3160   -0.5300 O   0  0  0  0  0  0  0  0  0  0  0  0
   -1.1350   -0.5030   -1.6740 C   0  0  0  0  0  0  0  0  0  0  0  0
    0.1580    0.2170   -1.3440 C   0  0  0  0  0  0  0  0  0  0  0  0
    0.5720   -0.2510   -0.0280 N   0  0  0  0  0  0  0  0  0  0  0  0
    1.9220   -0.0100    0.3450 C   0  0  0  0  0  0  0  0  0  0  0  0
    2.3270   -0.3970    1.4740 O   0  0  0  0  0  0  0  0  0  0  0  0
    2.8820    0.6840   -0.5520 C   0  0  0  0  0  0  0  0  0  0  0  0
    4.1510    0.7750    0.0970 N   0  0  0  0  0  0  0  0  0  0  0  0
    4.8930   -0.3590    0.5160 C   0  0  0  0  0  0  0  0  0  0  0  0
    6.1620   -0.2120    1.1630 N   0  0  0  0  0  0  0  0  0  0  0  0
    4.4170   -1.4980    0.3090 O   0  0  0  0  0  0  0  0  0  0  0  0
   -0.2820   -0.9220    0.8890 C   0  0  0  0  0  0  0  0  0  0  0  0
   -1.7310   -0.6730    0.7330 C   0  0  1  0  0  0  0  0  0  0  0  0
   -2.2910    0.1290    1.7240 O   0  0  0  0  0  0  0  0  0  0  0  0
   -3.6270    0.1790    1.5270 N   0  0  0  0  0  0  0  0  0  0  0  0
  1  2  2  0
  2  3  1  0
  2 19  1  0
  3  4  1  0
  4  5  1  1
  4  6  1  0
  4 17  1  0
  6  7  1  0
  7  8  1  0
  8  9  1  0
  8 16  1  0
  9 10  2  0
  9 11  1  0
 11 12  1  0
 12 13  1  0
 13 14  1  0
 13 15  2  0
 17 16  1  1
 17 18  1  0
 18 19  1  0
M  END
