
     RDKit          3D

 25 27  0  0  0  0  0  0  0  0999 V2000
   -3.1350    3.2280    0.0390 C   0  0  0  0  0  0  0  0  0  0  0  0
   -2.7740    1.8640    0.0530 O   0  0  0  0  0  0  0  0  0  0  0  0
   -3.7740    0.9110    0.0120 C   0  0  0  0  0  0  0  0  0  0  0  0
   -5.0990    1.2890   -0.0400 C   0  0  0  0  0  0  0  0  0  0  0  0
   -6.0750    0.3000   -0.0780 C   0  0  0  0  0  0  0  0  0  0  0  0
   -5.7010   -1.0140   -0.0640 C   0  0  0  0  0  0  0  0  0  0  0  0
   -4.3520   -1.4170   -0.0110 C   0  0  0  0  0  0  0  0  0  0  0  0
   -3.3870   -0.4290    0.0270 C   0  0  0  0  0  0  0  0  0  0  0  0
   -2.0100   -0.7140    0.0770 N   0  0  0  0  0  0  0  0  0  0  0  0
   -1.3860   -1.9820    0.0600 C   0  0  0  0  0  0  0  0  0  0  0  0
   -2.0840   -3.0120   -0.0090 O   0  0  0  0  0  0  0  0  0  0  0  0
    0.0830   -2.1780    0.1170 C   0  0  0  0  0  0  0  0  0  0  0  0
    0.8640   -1.0060    0.2190 N   0  0  0  0  0  0  0  0  0  0  0  0
    0.8220   -0.2790    1.4320 C   0  0  0  0  0  0  0  0  0  0  0  0
    2.0830   -0.3070    2.2460 C   0  0  0  0  0  0  0  0  0  0  0  0
    3.2860   -0.5060    1.4680 N   0  0  0  0  0  0  0  0  0  0  0  0
    3.0050    0.0470    0.1510 C   0  0  1  0  0  0  0  0  0  0  0  0
    4.2040    0.3310   -0.6430 C   0  0  0  0  0  0  0  0  0  0  0  0
    4.5260    1.5380   -1.1060 C   0  0  0  0  0  0  0  0  0  0  0  0
    5.7630    1.4290   -1.8370 C   0  0  0  0  0  0  0  0  0  0  0  0
    6.6150    2.6970   -2.7100 Cl  0  0  0  0  0  0  0  0  0  0  0  0
    6.1260    0.1620   -1.7110 C   0  0  0  0  0  0  0  0  0  0  0  0
    5.2410   -0.5900   -1.0740 C   0  0  0  0  0  0  0  0  0  0  0  0
    5.3030   -2.3130   -0.8070 Cl  0  0  0  0  0  0  0  0  0  0  0  0
    2.0880   -0.9740   -0.5090 C   0  0  0  0  0  0  0  0  0  0  0  0
  1  2  1  0
  2  3  1  0
  3  4  2  0
  3  8  1  0
  4  5  1  0
  5  6  2  0
  6  7  1  0
  7  8  2  0
  8  9  1  0
  9 10  1  0
 10 11  2  0
 10 12  1  0
 12 13  1  0
 13 14  1  0
 13 25  1  0
 14 15  1  0
 15 16  1  0
 16 17  1  0
 17 18  1  6
 17 25  1  0
 18 19  2  0
 18 23  1  0
 19 20  1  0
 20 21  1  0
 20 22  2  0
 22 23  2  0
 23 24  1  0
M  CHG  1  16   1
M  END
