
     RDKit          3D

 21 21  0  0  0  0  0  0  0  0999 V2000
   -3.4260    0.7320   -2.4780 C   0  0  0  0  0  0  0  0  0  0  0  0
   -3.2800   -0.4220   -1.7460 O   0  0  0  0  0  0  0  0  0  0  0  0
   -3.5040   -0.2410   -0.3970 C   0  0  1  0  0  0  0  0  0  0  0  0
   -4.8600    0.2720   -0.3040 O   0  0  0  0  0  0  0  0  0  0  0  0
   -3.6570   -1.4860    0.2460 O   0  0  0  0  0  0  0  0  0  0  0  0
   -2.6620    0.7350    0.3030 C   0  0  0  0  0  0  0  0  0  0  0  0
   -1.1910    0.6260    0.3680 C   0  0  2  0  0  0  0  0  0  0  0  0
   -0.8060    1.8300    1.1480 O   0  0  0  0  0  0  0  0  0  0  0  0
   -0.5890    0.8220   -0.8480 O   0  0  0  0  0  0  0  0  0  0  0  0
   -0.5980   -0.5190    1.1560 C   0  0  1  0  0  0  0  0  0  0  0  0
   -1.2120   -0.5670    2.3820 O   0  0  0  0  0  0  0  0  0  0  0  0
   -0.7790   -1.8050    0.4360 C   0  0  0  0  0  0  0  0  0  0  0  0
    0.6250   -2.4660    0.3350 C   0  0  0  0  0  0  0  0  0  0  0  0
    1.3430   -1.5920   -0.4890 O   0  0  0  0  0  0  0  0  0  0  0  0
    1.6670   -0.4350    0.2220 C   0  0  2  0  0  0  0  0  0  0  0  0
    3.1180   -0.6190    0.6420 C   0  0  0  0  0  0  0  0  0  0  0  0
    3.6590    0.4610    1.2590 O   0  0  0  0  0  0  0  0  0  0  0  0
    3.7160    1.6280    0.5770 C   0  0  0  0  0  0  0  0  0  0  0  0
    4.5110    1.6190   -0.6890 C   0  0  0  0  0  0  0  0  0  0  0  0
    4.0890    0.7440   -1.6540 O   0  0  0  0  0  0  0  0  0  0  0  0
    0.8060   -0.1670    1.3030 N   0  0  0  0  0  0  0  0  0  0  0  0
  1  2  1  0
  2  3  1  0
  3  4  1  6
  3  5  1  0
  3  6  1  0
  6  7  1  0
  7  8  1  1
  7  9  1  0
  7 10  1  0
 10 11  1  1
 10 12  1  0
 10 21  1  0
 12 13  1  0
 13 14  1  0
 14 15  1  0
 15 16  1  1
 15 21  1  0
 16 17  1  0
 17 18  1  0
 18 19  1  0
 19 20  1  0
M  END
