
     RDKit          3D

 20 20  0  0  0  0  0  0  0  0999 V2000
   -4.3680    1.7080   -1.0850 C   0  0  0  0  0  0  0  0  0  0  0  0
   -2.9790    1.3270   -0.5430 C   0  0  1  0  0  0  0  0  0  0  0  0
   -2.2920    2.5600   -0.4810 O   0  0  0  0  0  0  0  0  0  0  0  0
   -3.1640    0.8420    0.8560 C   0  0  0  0  0  0  0  0  0  0  0  0
   -2.9940   -0.6740    0.9090 C   0  0  0  0  0  0  0  0  0  0  0  0
   -1.5920   -0.9290    0.3790 C   0  0  1  0  0  0  0  0  0  0  0  0
   -1.3900   -2.3260    0.4430 O   0  0  0  0  0  0  0  0  0  0  0  0
   -1.4700   -0.3980   -1.0090 C   0  0  2  0  0  0  0  0  0  0  0  0
   -0.0700    0.2000   -1.2150 C   0  0  1  0  0  0  0  0  0  0  0  0
    0.0580    1.3860   -0.4990 O   0  0  0  0  0  0  0  0  0  0  0  0
    0.9350   -0.8120   -0.7820 C   0  0  0  0  0  0  0  0  0  0  0  0
    0.9110   -1.9260   -1.3650 O   0  0  0  0  0  0  0  0  0  0  0  0
    1.8640   -0.5990    0.1930 O   0  0  0  0  0  0  0  0  0  0  0  0
    2.7690   -1.6380    0.5180 C   0  0  0  0  0  0  0  0  0  0  0  0
    3.6630   -1.1120    1.6170 C   0  0  0  0  0  0  0  0  0  0  0  0
    4.3720    0.0210    1.2110 O   0  0  0  0  0  0  0  0  0  0  0  0
    5.2430   -0.0210    0.1410 C   0  0  0  0  0  0  0  0  0  0  0  0
    5.9380    1.1630   -0.2280 N   0  0  0  0  0  0  0  0  0  0  0  0
    5.4530   -1.0500   -0.5240 O   0  0  0  0  0  0  0  0  0  0  0  0
   -2.4470    0.4490   -1.4310 O   0  0  0  0  0  0  0  0  0  0  0  0
  2  1  1  6
  2  3  1  0
  2  4  1  0
  2 20  1  0
  4  5  1  0
  5  6  1  0
  6  7  1  6
  6  8  1  0
  8  9  1  0
  8 20  1  1
  9 10  1  1
  9 11  1  0
 11 12  2  0
 11 13  1  0
 13 14  1  0
 14 15  1  0
 15 16  1  0
 16 17  1  0
 17 18  1  0
 17 19  2  0
M  END
