
     RDKit          3D

 24 25  0  0  0  0  0  0  0  0999 V2000
    6.0650   -0.0300   -0.1880 C   0  0  0  0  0  0  0  0  0  0  0  0
    5.3290   -0.9450    0.5680 O   0  0  0  0  0  0  0  0  0  0  0  0
    4.8280   -0.2130    2.0130 S   0  0  2  0  0  0  0  0  0  0  0  0
    5.5280    1.0910    2.2420 O   0  0  0  0  0  0  0  0  0  0  0  0
    5.2170   -1.2000    3.1100 O   0  0  0  0  0  0  0  0  0  0  0  0
    3.1210   -0.0750    2.0860 N   0  0  0  0  0  0  0  0  0  0  0  0
    2.6210    0.9440    1.2510 N   0  0  0  0  0  0  0  0  0  0  0  0
    1.4030    0.6770    0.5280 C   0  0  0  0  0  0  0  0  0  0  0  0
    0.9040   -0.4750    0.7330 O   0  0  0  0  0  0  0  0  0  0  0  0
    0.8040    1.6200   -0.3430 N   0  0  0  0  0  0  0  0  0  0  0  0
   -0.4280    1.2820   -1.0330 C   0  0  1  0  0  0  0  0  0  0  0  0
   -0.0920    0.2850   -2.0860 C   0  0  0  0  0  0  0  0  0  0  0  0
   -1.3220   -0.3890   -2.6800 C   0  0  0  0  0  0  0  0  0  0  0  0
   -2.0100   -1.0680   -1.5030 C   0  0  2  0  0  0  0  0  0  0  0  0
   -3.2080   -2.2370   -1.9990 Cl  0  0  0  0  0  0  0  0  0  0  0  0
   -2.6090    0.0880   -0.7130 C   0  0  1  0  0  0  0  0  0  0  0  0
   -3.2320    0.9020   -1.6900 O   0  0  0  0  0  0  0  0  0  0  0  0
   -3.6000   -0.3320    0.2640 C   0  0  0  0  0  0  0  0  0  0  0  0
   -4.7870   -0.9530   -0.0120 N   0  0  0  0  0  0  0  0  0  0  0  0
   -5.4360   -1.1900    1.1220 N   0  0  0  0  0  0  0  0  0  0  0  0
   -4.6830   -0.7280    2.1240 C   0  0  0  0  0  0  0  0  0  0  0  0
   -4.9880   -0.7810    3.3580 O   0  0  0  0  0  0  0  0  0  0  0  0
   -3.5690   -0.2090    1.5920 N   0  0  0  0  0  0  0  0  0  0  0  0
   -1.5300    0.9360   -0.1040 C   0  0  0  0  0  0  0  0  0  0  0  0
  1  2  1  0
  2  3  1  0
  3  4  2  0
  3  5  2  0
  3  6  1  6
  6  7  1  0
  7  8  1  0
  8  9  2  0
  8 10  1  0
 11 10  1  1
 11 12  1  0
 11 24  1  0
 12 13  1  0
 13 14  1  0
 14 15  1  6
 14 16  1  0
 16 17  1  6
 16 18  1  0
 16 24  1  0
 18 19  2  0
 18 23  1  0
 19 20  1  0
 20 21  1  0
 21 22  2  0
 21 23  1  0
M  END
