
     RDKit          3D

 25 26  0  0  0  0  0  0  0  0999 V2000
   -4.7730    0.3330   -2.4710 C   0  0  0  0  0  0  0  0  0  0  0  0
   -3.8330    0.8290   -1.4120 C   0  0  1  0  0  0  0  0  0  0  0  0
   -4.4890    1.1930   -0.1270 C   0  0  0  0  0  0  0  0  0  0  0  0
   -3.4360    1.9110    0.7010 C   0  0  1  0  0  0  0  0  0  0  0  0
   -3.5480    1.5730    2.1670 C   0  0  0  0  0  0  0  0  0  0  0  0
   -2.0640    1.7470    0.1690 C   0  0  0  0  0  0  0  0  0  0  0  0
   -1.7690    0.3900   -0.3350 N   0  0  0  0  0  0  0  0  0  0  0  0
   -0.4830   -0.0700   -0.0970 C   0  0  0  0  0  0  0  0  0  0  0  0
    0.3380    0.7760    0.5020 O   0  0  0  0  0  0  0  0  0  0  0  0
    0.0740   -1.3650   -0.4270 C   0  0  0  0  0  0  0  0  0  0  0  0
   -0.6940   -2.4720   -0.7200 C   0  0  0  0  0  0  0  0  0  0  0  0
   -0.1630   -3.7610   -0.8950 C   0  0  0  0  0  0  0  0  0  0  0  0
   -1.2780   -5.2470   -1.3010 Br  0  0  0  0  0  0  0  0  0  0  0  0
    1.1770   -3.9270   -0.7680 C   0  0  0  0  0  0  0  0  0  0  0  0
    2.0020   -2.8520   -0.4740 C   0  0  0  0  0  0  0  0  0  0  0  0
    1.4620   -1.6010   -0.3090 C   0  0  0  0  0  0  0  0  0  0  0  0
    2.3440   -0.4960   -0.1480 N   0  0  0  0  0  0  0  0  0  0  0  0
    3.6580   -0.5940    0.3420 C   0  0  0  0  0  0  0  0  0  0  0  0
    4.1930   -1.6520    0.7010 O   0  0  0  0  0  0  0  0  0  0  0  0
    4.5140    0.6420    0.4600 C   0  0  0  0  0  0  0  0  0  0  0  0
    5.8820    0.3210    1.0060 C   0  0  0  0  0  0  0  0  0  0  0  0
    6.6710    1.5610    1.0990 C   0  0  0  0  0  0  0  0  0  0  0  0
    6.1660    2.6490    0.7470 O   0  0  0  0  0  0  0  0  0  0  0  0
    7.9710    1.5200    1.5770 O   0  0  0  0  0  0  0  0  0  0  0  0
   -2.7990   -0.2820   -1.0560 C   0  0  0  0  0  0  0  0  0  0  0  0
  2  1  1  6
  2  3  1  0
  2 25  1  0
  3  4  1  0
  4  5  1  1
  4  6  1  0
  6  7  1  0
  7  8  1  0
  7 25  1  0
  8  9  2  0
  8 10  1  0
 10 11  2  0
 10 16  1  0
 11 12  1  0
 12 13  1  0
 12 14  2  0
 14 15  1  0
 15 16  2  0
 16 17  1  0
 17 18  1  0
 18 19  2  0
 18 20  1  0
 20 21  1  0
 21 22  1  0
 22 23  2  0
 22 24  1  0
M  END
