
     RDKit          3D

 21 21  0  0  0  0  0  0  0  0999 V2000
   -2.4370   -2.3260    1.0580 C   0  0  0  0  0  0  0  0  0  0  0  0
   -1.3970   -1.4660    0.3100 C   0  0  2  0  0  0  0  0  0  0  0  0
   -1.1050   -2.2250   -0.8310 O   0  0  0  0  0  0  0  0  0  0  0  0
   -0.3170   -1.2740    1.0920 O   0  0  0  0  0  0  0  0  0  0  0  0
    0.7830   -0.6430    0.6380 C   0  0  0  0  0  0  0  0  0  0  0  0
    1.4950   -1.2410   -0.5290 C   0  0  0  0  0  0  0  0  0  0  0  0
    2.6360   -0.4990   -0.9170 O   0  0  0  0  0  0  0  0  0  0  0  0
    3.7310   -0.2560   -0.1430 C   0  0  0  0  0  0  0  0  0  0  0  0
    3.7760   -0.7130    1.0210 O   0  0  0  0  0  0  0  0  0  0  0  0
    4.8470    0.5150   -0.6230 N   0  0  0  0  0  0  0  0  0  0  0  0
    5.9720    0.7310    0.2510 C   0  0  2  0  0  0  0  0  0  0  0  0
    6.1090    2.1080    0.4590 O   0  0  0  0  0  0  0  0  0  0  0  0
    7.1680    0.2880   -0.3420 O   0  0  0  0  0  0  0  0  0  0  0  0
   -2.0250   -0.1920   -0.1630 C   0  0  1  0  0  0  0  0  0  0  0  0
   -1.1640    0.4860   -1.0100 O   0  0  0  0  0  0  0  0  0  0  0  0
   -3.3320   -0.4200   -0.8820 C   0  0  0  0  0  0  0  0  0  0  0  0
   -4.4290    0.0340   -0.1760 O   0  0  0  0  0  0  0  0  0  0  0  0
   -4.4340    1.4180   -0.0250 C   0  0  0  0  0  0  0  0  0  0  0  0
   -3.0580    1.9440    0.3350 C   0  0  2  0  0  0  0  0  0  0  0  0
   -2.3950    2.2630   -0.8510 O   0  0  0  0  0  0  0  0  0  0  0  0
   -2.3230    0.7660    0.9860 C   0  0  0  0  0  0  0  0  0  0  0  0
  2  1  1  1
  2  3  1  0
  2  4  1  0
  2 14  1  0
  4  5  1  0
  5  6  1  0
  6  7  1  0
  7  8  1  0
  8  9  2  0
  8 10  1  0
 10 11  1  0
 11 12  1  6
 11 13  1  0
 14 15  1  6
 14 16  1  0
 14 21  1  0
 16 17  1  0
 17 18  1  0
 18 19  1  0
 19 20  1  6
 19 21  1  0
M  END
