
     RDKit          3D

 20 20  0  0  0  0  0  0  0  0999 V2000
    5.1600   -0.1020    0.4970 O   0  0  0  0  0  0  0  0  0  0  0  0
    4.2410   -1.0870    0.1670 C   0  0  0  0  0  0  0  0  0  0  0  0
    3.2100   -0.6200   -0.7860 C   0  0  0  0  0  0  0  0  0  0  0  0
    2.3250    0.4940   -0.3630 C   0  0  2  0  0  0  0  0  0  0  0  0
    2.9590    1.7870   -0.0220 C   0  0  0  0  0  0  0  0  0  0  0  0
    3.6650    1.8460    1.1490 O   0  0  0  0  0  0  0  0  0  0  0  0
    1.4360    0.0370    0.6040 O   0  0  0  0  0  0  0  0  0  0  0  0
    0.1310   -0.0040    0.2190 C   0  0  1  0  0  0  0  0  0  0  0  0
   -0.3100   -1.3860    0.2360 N   0  0  0  0  0  0  0  0  0  0  0  0
   -1.5640   -1.3990   -0.5150 C   0  0  1  0  0  0  0  0  0  0  0  0
   -1.3010   -0.8810   -1.7830 O   0  0  0  0  0  0  0  0  0  0  0  0
   -2.0070   -2.8250   -0.6150 C   0  0  0  0  0  0  0  0  0  0  0  0
   -3.2000   -2.9700   -1.3150 O   0  0  0  0  0  0  0  0  0  0  0  0
   -2.5310   -0.5530    0.2440 C   0  0  0  0  0  0  0  0  0  0  0  0
   -2.0010    0.7450    0.7180 C   0  0  2  0  0  0  0  0  0  0  0  0
   -2.7340    1.0930    2.0220 C   0  0  0  0  0  0  0  0  0  0  0  0
   -2.3830    2.3650    2.4420 O   0  0  0  0  0  0  0  0  0  0  0  0
   -2.4480    1.8240   -0.2750 C   0  0  0  0  0  0  0  0  0  0  0  0
   -1.7760    1.6930   -1.4840 O   0  0  0  0  0  0  0  0  0  0  0  0
   -0.6700    0.8060    0.9900 O   0  0  0  0  0  0  0  0  0  0  0  0
  1  2  1  0
  2  3  1  0
  4  3  1  1
  4  5  1  0
  4  7  1  0
  5  6  1  0
  8  7  1  1
  8  9  1  0
  8 20  1  0
  9 10  1  0
 10 11  1  6
 10 12  1  0
 10 14  1  0
 12 13  1  0
 14 15  1  0
 15 16  1  1
 15 18  1  0
 15 20  1  0
 16 17  1  0
 18 19  1  0
M  END
