
     RDKit          3D

 24 25  0  0  0  0  0  0  0  0999 V2000
   -1.6620   -0.7190    2.4120 C   0  0  0  0  0  0  0  0  0  0  0  0
   -2.7590   -0.7140    1.4080 C   0  0  0  0  0  0  0  0  0  0  0  0
   -2.6140   -0.1600    0.2410 C   0  0  0  0  0  0  0  0  0  0  0  0
   -1.4740    0.5060   -0.2940 C   0  0  0  0  0  0  0  0  0  0  0  0
   -1.5560    0.9990   -1.5110 O   0  0  0  0  0  0  0  0  0  0  0  0
   -0.1980    0.7590    0.2480 N   0  0  0  0  0  0  0  0  0  0  0  0
    0.8480    1.4780   -0.5090 C   0  0  1  0  0  0  0  0  0  0  0  0
    1.2220    2.7770    0.1570 C   0  0  0  0  0  0  0  0  0  0  0  0
    1.8400    2.5490    1.7870 Cl  0  0  0  0  0  0  0  0  0  0  0  0
    1.9750    0.5410   -0.5530 C   0  0  0  0  0  0  0  0  0  0  0  0
    2.2620   -0.3540    0.2970 O   0  0  0  0  0  0  0  0  0  0  0  0
    2.9000    0.5220   -1.5990 N   0  0  0  0  0  0  0  0  0  0  0  0
    4.0410   -0.3100   -1.7060 C   0  0  0  0  0  0  0  0  0  0  0  0
    4.4290   -0.6150   -2.8390 N   0  0  0  0  0  0  0  0  0  0  0  0
    5.4680   -1.3980   -3.0570 O   0  0  0  0  0  0  0  0  0  0  0  0
    5.8900   -1.9990   -1.4340 S   0  0  0  0  0  0  0  0  0  0  0  0
    4.9530   -3.1920   -1.2330 O   0  0  0  0  0  0  0  0  0  0  0  0
    5.1940   -0.5220   -0.7540 C   0  0  0  0  0  0  0  0  0  0  0  0
    5.4890    0.1710    0.1700 O   0  0  0  0  0  0  0  0  0  0  0  0
   -3.7610   -0.2320   -0.6380 N   0  0  0  0  0  0  0  0  0  0  0  0
   -4.9730   -0.8610   -0.2710 C   0  0  0  0  0  0  0  0  0  0  0  0
   -5.9660   -0.9220   -1.0360 O   0  0  0  0  0  0  0  0  0  0  0  0
   -5.1020   -1.4560    1.0060 N   0  0  0  0  0  0  0  0  0  0  0  0
   -3.9800   -1.3720    1.8350 N   0  0  0  0  0  0  0  0  0  0  0  0
  1  2  1  0
  2  3  2  0
  2 24  1  0
  3  4  1  0
  3 20  1  0
  4  5  2  0
  4  6  1  0
  6  7  1  0
  7  8  1  1
  7 10  1  0
  8  9  1  0
 10 11  2  0
 10 12  1  0
 12 13  1  0
 13 14  2  0
 13 18  1  0
 14 15  1  0
 16 15  1  6
 16 17  2  0
 16 18  1  0
 18 19  2  0
 20 21  1  0
 21 22  2  0
 21 23  1  0
 23 24  1  0
M  END
