
     RDKit          3D

 21 21  0  0  0  0  0  0  0  0999 V2000
   -0.1200   -0.6660   -1.1520 O   0  0  0  0  0  0  0  0  0  0  0  0
   -0.1960   -0.4710    0.0810 C   0  0  0  0  0  0  0  0  0  0  0  0
    1.0220   -0.3060    0.7930 N   0  0  0  0  0  0  0  0  0  0  0  0
    2.3170   -0.3640    0.0930 C   0  0  2  0  0  0  0  0  0  0  0  0
    2.9800   -1.4510    0.6840 O   0  0  0  0  0  0  0  0  0  0  0  0
    3.1080    0.8790    0.3250 C   0  0  1  0  0  0  0  0  0  0  0  0
    3.3670    1.0330    1.6790 O   0  0  0  0  0  0  0  0  0  0  0  0
    4.3740    1.0030   -0.4520 C   0  0  1  0  0  0  0  0  0  0  0  0
    4.8650    2.3070   -0.1770 O   0  0  0  0  0  0  0  0  0  0  0  0
    5.4370    0.0590   -0.1050 C   0  0  0  0  0  0  0  0  0  0  0  0
    6.5200    0.4770    0.3980 O   0  0  0  0  0  0  0  0  0  0  0  0
    5.3800   -1.3260   -0.2800 O   0  0  0  0  0  0  0  0  0  0  0  0
   -1.4330   -0.4310    0.6550 O   0  0  0  0  0  0  0  0  0  0  0  0
   -2.6650   -0.5800    0.0350 C   0  0  2  0  0  0  0  0  0  0  0  0
   -2.8780    0.4750   -0.9990 C   0  0  0  0  0  0  0  0  0  0  0  0
   -2.8280    1.8470   -0.3690 C   0  0  0  0  0  0  0  0  0  0  0  0
   -3.0330    2.7770   -1.3940 O   0  0  0  0  0  0  0  0  0  0  0  0
   -3.8100   -0.6600    1.0410 C   0  0  0  0  0  0  0  0  0  0  0  0
   -4.8310   -1.4430    0.2580 C   0  0  0  0  0  0  0  0  0  0  0  0
   -4.2270   -1.9130   -0.8820 O   0  0  0  0  0  0  0  0  0  0  0  0
   -2.8370   -1.9240   -0.6450 C   0  0  0  0  0  0  0  0  0  0  0  0
  1  2  2  0
  2  3  1  0
  2 13  1  0
  3  4  1  0
  4  5  1  1
  4  6  1  0
  6  7  1  1
  6  8  1  0
  8  9  1  1
  8 10  1  0
 10 11  2  0
 10 12  1  0
 13 14  1  0
 14 15  1  6
 14 18  1  0
 14 21  1  0
 15 16  1  0
 16 17  1  0
 18 19  1  0
 19 20  1  0
 20 21  1  0
M  END
