
     RDKit          3D

 30 33  0  0  0  0  0  0  0  0999 V2000
   -3.5770    2.5540    1.4000 C   0  0  0  0  0  0  0  0  0  0  0  0
   -2.8280    2.5170    0.0830 C   0  0  1  0  0  0  0  0  0  0  0  0
   -2.5310    3.9830   -0.2670 C   0  0  0  0  0  0  0  0  0  0  0  0
   -1.5780    1.7970    0.2140 N   0  0  0  0  0  0  0  0  0  0  0  0
   -0.3630    2.3000    0.4800 C   0  0  0  0  0  0  0  0  0  0  0  0
    0.5670    1.2740    0.5210 C   0  0  0  0  0  0  0  0  0  0  0  0
   -0.1370    0.1220    0.2670 C   0  0  0  0  0  0  0  0  0  0  0  0
   -1.4550    0.4420    0.0780 C   0  0  0  0  0  0  0  0  0  0  0  0
   -2.5250   -0.4120   -0.2070 N   0  0  0  0  0  0  0  0  0  0  0  0
   -2.9410   -0.7260   -1.5850 C   0  0  0  0  0  0  0  0  0  0  0  0
   -3.8020   -1.9720   -1.5660 C   0  0  0  0  0  0  0  0  0  0  0  0
   -5.0660   -1.6400   -0.8110 C   0  0  0  0  0  0  0  0  0  0  0  0
   -4.8040   -0.7800    0.4130 C   0  0  0  0  0  0  0  0  0  0  0  0
   -3.3560   -1.0660    0.8160 C   0  0  0  0  0  0  0  0  0  0  0  0
    0.6440   -1.1440    0.2560 C   0  0  0  0  0  0  0  0  0  0  0  0
    1.9590   -1.1050    0.4870 C   0  0  0  0  0  0  0  0  0  0  0  0
    2.7140   -2.3750    0.4710 C   0  0  0  0  0  0  0  0  0  0  0  0
    3.9470   -2.3040    0.6910 O   0  0  0  0  0  0  0  0  0  0  0  0
    2.0420   -3.5880    0.2160 N   0  0  0  0  0  0  0  0  0  0  0  0
    0.6730   -3.5790   -0.0190 C   0  0  0  0  0  0  0  0  0  0  0  0
    0.1040   -4.6920   -0.2510 O   0  0  0  0  0  0  0  0  0  0  0  0
   -0.1260   -2.3620   -0.0100 C   0  0  0  0  0  0  0  0  0  0  0  0
    2.6640    0.1040    0.7450 N   0  0  0  0  0  0  0  0  0  0  0  0
    4.0340    0.0680    0.9710 N   0  0  0  0  0  0  0  0  0  0  0  0
    4.8350    0.2130   -0.0130 C   0  0  0  0  0  0  0  0  0  0  0  0
    6.2890    0.1880    0.1330 C   0  0  0  0  0  0  0  0  0  0  0  0
    7.0850    0.3400   -0.8990 C   0  0  0  0  0  0  0  0  0  0  0  0
    8.5470    0.3090   -0.7060 C   0  0  0  0  0  0  0  0  0  0  0  0
    9.1720    1.8980   -1.2650 Cl  0  0  0  0  0  0  0  0  0  0  0  0
    2.0090    1.3830    0.7820 C   0  0  0  0  0  0  0  0  0  0  0  0
  2  1  1  1
  2  3  1  0
  2  4  1  0
  4  5  1  0
  4  8  1  0
  5  6  2  0
  6  7  1  0
  6 30  1  0
  7  8  2  0
  7 15  1  0
  8  9  1  0
  9 10  1  0
  9 14  1  0
 10 11  1  0
 11 12  1  0
 12 13  1  0
 13 14  1  0
 15 16  2  0
 15 22  1  0
 16 17  1  0
 16 23  1  0
 17 18  2  0
 17 19  1  0
 19 20  1  0
 20 21  2  0
 20 22  1  0
 23 24  1  0
 23 30  1  0
 24 25  2  3
 25 26  1  0
 26 27  2  3
 27 28  1  0
 28 29  1  0
M  END
