
     RDKit          3D

 30 32  0  0  0  0  0  0  0  0999 V2000
   -7.1840   -0.0560    0.6280 C   0  0  0  0  0  0  0  0  0  0  0  0
   -5.8670    0.6810    0.6210 C   0  0  1  0  0  0  0  0  0  0  0  0
   -5.8030    1.5490    1.8670 C   0  0  0  0  0  0  0  0  0  0  0  0
   -4.4840    2.2150    1.9730 C   0  0  1  0  0  0  0  0  0  0  0  0
   -4.3570    3.0570    3.2290 C   0  0  0  0  0  0  0  0  0  0  0  0
   -3.3800    1.1570    2.0690 C   0  0  0  0  0  0  0  0  0  0  0  0
   -3.4860    0.3180    0.8230 N   0  0  0  0  0  0  0  0  0  0  0  0
   -2.3470    0.2160    0.0510 C   0  0  0  0  0  0  0  0  0  0  0  0
   -1.2490    0.7460    0.5480 O   0  0  0  0  0  0  0  0  0  0  0  0
   -2.2530   -0.4160   -1.2400 C   0  0  0  0  0  0  0  0  0  0  0  0
   -3.3590   -0.5240   -2.0670 C   0  0  0  0  0  0  0  0  0  0  0  0
   -3.2320   -0.9470   -3.3960 C   0  0  0  0  0  0  0  0  0  0  0  0
   -4.7820   -1.0890   -4.5150 Br  0  0  0  0  0  0  0  0  0  0  0  0
   -1.9900   -1.2540   -3.8760 C   0  0  0  0  0  0  0  0  0  0  0  0
   -0.8540   -1.1540   -3.0640 C   0  0  0  0  0  0  0  0  0  0  0  0
   -0.9910   -0.7440   -1.7710 C   0  0  0  0  0  0  0  0  0  0  0  0
    0.1030   -0.7600   -0.8920 N   0  0  0  0  0  0  0  0  0  0  0  0
    1.4820   -0.7460   -1.2170 C   0  0  0  0  0  0  0  0  0  0  0  0
    1.8210   -0.7060   -2.4170 O   0  0  0  0  0  0  0  0  0  0  0  0
    2.5400   -0.7770   -0.1560 C   0  0  0  0  0  0  0  0  0  0  0  0
    3.9140   -0.7550   -0.7400 C   0  0  0  0  0  0  0  0  0  0  0  0
    4.9050   -0.7880    0.3660 C   0  0  0  0  0  0  0  0  0  0  0  0
    4.5310   -0.8290    1.5680 O   0  0  0  0  0  0  0  0  0  0  0  0
    6.3080   -0.7750    0.1180 N   0  0  0  0  0  0  0  0  0  0  0  0
    6.8470   -0.7280   -1.2330 C   0  0  0  0  0  0  0  0  0  0  0  0
    8.3520   -0.8890   -1.1060 C   0  0  0  0  0  0  0  0  0  0  0  0
    8.9180    0.0900   -0.3230 O   0  0  0  0  0  0  0  0  0  0  0  0
    8.3120    0.2730    0.9000 C   0  0  0  0  0  0  0  0  0  0  0  0
    7.2720   -0.8060    1.1980 C   0  0  0  0  0  0  0  0  0  0  0  0
   -4.7370   -0.3390    0.6550 C   0  0  0  0  0  0  0  0  0  0  0  0
  2  1  1  1
  2  3  1  0
  2 30  1  0
  3  4  1  0
  4  5  1  1
  4  6  1  0
  6  7  1  0
  7  8  1  0
  7 30  1  0
  8  9  2  0
  8 10  1  0
 10 11  2  0
 10 16  1  0
 11 12  1  0
 12 13  1  0
 12 14  2  0
 14 15  1  0
 15 16  2  0
 16 17  1  0
 17 18  1  0
 18 19  2  0
 18 20  1  0
 20 21  1  0
 21 22  1  0
 22 23  2  0
 22 24  1  0
 24 25  1  0
 24 29  1  0
 25 26  1  0
 26 27  1  0
 27 28  1  0
 28 29  1  0
M  END
