
     RDKit          3D

 30 33  0  0  0  0  0  0  0  0999 V2000
    4.7720    3.2090   -0.9640 C   0  0  0  0  0  0  0  0  0  0  0  0
    5.3980    1.9610   -0.4710 C   0  0  0  0  0  0  0  0  0  0  0  0
    4.6230    0.8970   -0.3120 C   0  0  0  0  0  0  0  0  0  0  0  0
    3.1640    0.7830   -0.5700 C   0  0  0  0  0  0  0  0  0  0  0  0
    3.0100   -0.6530   -0.9290 C   0  0  2  0  0  0  0  0  0  0  0  0
    1.6110   -1.1670   -0.8420 C   0  0  0  0  0  0  0  0  0  0  0  0
    0.9930   -1.0840    0.4650 C   0  0  0  0  0  0  0  0  0  0  0  0
    1.5540   -0.6660    1.4870 O   0  0  0  0  0  0  0  0  0  0  0  0
   -0.3920   -1.5200    0.5980 N   0  0  0  0  0  0  0  0  0  0  0  0
   -0.9680   -1.4210    1.8940 C   0  0  0  0  0  0  0  0  0  0  0  0
   -2.3780   -1.8580    1.9960 C   0  0  0  0  0  0  0  0  0  0  0  0
   -3.2750   -1.0580    1.1300 C   0  0  0  0  0  0  0  0  0  0  0  0
   -3.7560    0.1330    1.5950 N   0  0  0  0  0  0  0  0  0  0  0  0
   -4.5050    0.9610    0.9210 N   0  0  0  0  0  0  0  0  0  0  0  0
   -4.9960    2.2220    1.4720 C   0  0  0  0  0  0  0  0  0  0  0  0
   -4.0650    3.3660    1.2020 C   0  0  0  0  0  0  0  0  0  0  0  0
   -4.8670    0.6680   -0.3530 C   0  0  0  0  0  0  0  0  0  0  0  0
   -5.6380    1.4900   -1.0930 N   0  0  0  0  0  0  0  0  0  0  0  0
   -6.0120    1.2230   -2.3570 C   0  0  0  0  0  0  0  0  0  0  0  0
   -5.5840    0.0460   -2.9290 C   0  0  0  0  0  0  0  0  0  0  0  0
   -4.7930   -0.8090   -2.1870 C   0  0  0  0  0  0  0  0  0  0  0  0
   -4.4170   -0.5170   -0.8840 C   0  0  0  0  0  0  0  0  0  0  0  0
   -3.6220   -1.3900   -0.1560 C   0  0  0  0  0  0  0  0  0  0  0  0
   -3.2490   -2.4750   -0.7070 O   0  0  0  0  0  0  0  0  0  0  0  0
    3.9410   -1.3280   -0.0650 N   0  0  0  0  0  0  0  0  0  0  0  0
    4.2410   -2.5600    0.6810 C   0  0  0  0  0  0  0  0  0  0  0  0
    5.7210   -2.4950    0.9240 C   0  0  0  0  0  0  0  0  0  0  0  0
    6.0470   -1.0690    0.7230 C   0  0  0  0  0  0  0  0  0  0  0  0
    7.5800   -0.3600    1.1770 Cl  0  0  0  0  0  0  0  0  0  0  0  0
    5.0260   -0.4410    0.1640 C   0  0  0  0  0  0  0  0  0  0  0  0
  1  2  1  0
  2  3  2  3
  3  4  1  0
  3 30  1  0
  4  5  1  0
  5  6  1  1
  5 25  1  0
  6  7  1  0
  7  8  2  0
  7  9  1  0
  9 10  1  0
 10 11  1  0
 11 12  1  0
 12 13  2  0
 12 23  1  0
 13 14  1  0
 14 15  1  0
 14 17  1  0
 15 16  1  0
 17 18  2  0
 17 22  1  0
 18 19  1  0
 19 20  2  0
 20 21  1  0
 21 22  2  0
 22 23  1  0
 23 24  2  0
 25 26  1  0
 25 30  1  0
 26 27  1  0
 27 28  1  0
 28 29  1  0
 28 30  2  0
M  END
