
     RDKit          3D

 30 33  0  0  0  0  0  0  0  0999 V2000
    7.2700    2.2170    0.0370 C   0  0  0  0  0  0  0  0  0  0  0  0
    6.2040    1.6070   -0.7850 C   0  0  0  0  0  0  0  0  0  0  0  0
    5.4000    0.7060   -0.2420 C   0  0  0  0  0  0  0  0  0  0  0  0
    5.5160    0.2720    1.1700 C   0  0  0  0  0  0  0  0  0  0  0  0
    4.1530    0.4200    1.7980 C   0  0  0  0  0  0  0  0  0  0  0  0
    3.1420   -0.1850    0.9610 N   0  0  0  0  0  0  0  0  0  0  0  0
    1.9200   -0.6700    1.5800 C   0  0  0  0  0  0  0  0  0  0  0  0
    1.7570   -0.5760    2.8040 O   0  0  0  0  0  0  0  0  0  0  0  0
    0.9040   -1.2660    0.7220 C   0  0  0  0  0  0  0  0  0  0  0  0
   -0.3730   -1.7850    1.2940 C   0  0  0  0  0  0  0  0  0  0  0  0
   -1.2700   -2.3250    0.3190 N   0  0  0  0  0  0  0  0  0  0  0  0
   -1.0620   -3.7500   -0.0020 C   0  0  0  0  0  0  0  0  0  0  0  0
   -2.2920   -1.6230   -0.3290 C   0  0  0  0  0  0  0  0  0  0  0  0
   -3.0100   -2.2350   -1.1930 O   0  0  0  0  0  0  0  0  0  0  0  0
   -2.6110   -0.2150   -0.0910 C   0  0  1  0  0  0  0  0  0  0  0  0
   -1.5790    0.7560   -0.6220 C   0  0  0  0  0  0  0  0  0  0  0  0
   -3.8780    0.1560   -0.7390 N   0  0  0  0  0  0  0  0  0  0  0  0
   -4.2480   -0.0750   -2.0100 C   0  0  0  0  0  0  0  0  0  0  0  0
   -5.4860    0.4170   -2.2280 N   0  0  0  0  0  0  0  0  0  0  0  0
   -5.9160    0.9680   -1.0950 C   0  0  0  0  0  0  0  0  0  0  0  0
   -7.1150    1.6120   -0.7730 C   0  0  0  0  0  0  0  0  0  0  0  0
   -7.2400    2.0740    0.5190 C   0  0  0  0  0  0  0  0  0  0  0  0
   -6.2520    1.9230    1.4650 C   0  0  0  0  0  0  0  0  0  0  0  0
   -5.0810    1.2830    1.1150 C   0  0  0  0  0  0  0  0  0  0  0  0
   -4.9100    0.8020   -0.1720 C   0  0  0  0  0  0  0  0  0  0  0  0
    1.0760   -1.3690   -0.5840 C   0  0  0  0  0  0  0  0  0  0  0  0
    2.2330   -0.9210   -1.2570 N   0  0  0  0  0  0  0  0  0  0  0  0
    3.2630   -0.3250   -0.4430 C   0  0  0  0  0  0  0  0  0  0  0  0
    4.3500    0.1040   -1.0490 C   0  0  0  0  0  0  0  0  0  0  0  0
    4.5670   -0.0200   -2.7860 Cl  0  0  0  0  0  0  0  0  0  0  0  0
  1  2  1  0
  2  3  2  3
  3  4  1  0
  3 29  1  0
  4  5  1  0
  5  6  1  0
  6  7  1  0
  6 28  1  0
  7  8  2  0
  7  9  1  0
  9 10  1  0
  9 26  2  0
 10 11  1  0
 11 12  1  0
 11 13  1  0
 13 14  2  0
 13 15  1  0
 15 16  1  6
 15 17  1  0
 17 18  1  0
 17 25  1  0
 18 19  2  0
 19 20  1  0
 20 21  2  0
 20 25  1  0
 21 22  1  0
 22 23  2  0
 23 24  1  0
 24 25  2  0
 26 27  1  0
 27 28  1  0
 28 29  2  0
 29 30  1  0
M  END
