
     RDKit          3D

 30 33  0  0  0  0  0  0  0  0999 V2000
    8.3120    1.6210   -0.3760 C   0  0  0  0  0  0  0  0  0  0  0  0
    8.1500    0.5300    0.4950 O   0  0  0  0  0  0  0  0  0  0  0  0
    6.9630   -0.1170    0.7550 C   0  0  0  0  0  0  0  0  0  0  0  0
    6.9970   -1.1740    1.6440 C   0  0  0  0  0  0  0  0  0  0  0  0
    5.8360   -1.8700    1.9510 C   0  0  0  0  0  0  0  0  0  0  0  0
    4.6750   -1.5180    1.3840 N   0  0  0  0  0  0  0  0  0  0  0  0
    4.5840   -0.4780    0.4970 C   0  0  0  0  0  0  0  0  0  0  0  0
    3.3110   -0.2160   -0.0420 N   0  0  0  0  0  0  0  0  0  0  0  0
    3.0950    0.8860   -0.9390 C   0  0  0  0  0  0  0  0  0  0  0  0
    2.1450    0.3450   -2.0140 C   0  0  0  0  0  0  0  0  0  0  0  0
    0.8280    0.0970   -1.3710 N   0  0  0  0  0  0  0  0  0  0  0  0
   -0.2830    0.1520   -2.2080 C   0  0  0  0  0  0  0  0  0  0  0  0
    0.0000    0.2800   -3.4860 O   0  0  0  0  0  0  0  0  0  0  0  0
   -1.6860    0.0830   -1.8640 C   0  0  0  0  0  0  0  0  0  0  0  0
   -2.0250    0.1290   -0.4990 N   0  0  0  0  0  0  0  0  0  0  0  0
   -3.3070   -0.3250   -0.0050 C   0  0  0  0  0  0  0  0  0  0  0  0
   -4.3100    0.5090   -0.1940 C   0  0  0  0  0  0  0  0  0  0  0  0
   -4.1000    1.8100   -0.8710 C   0  0  0  0  0  0  0  0  0  0  0  0
   -5.6890    0.1870    0.2560 C   0  0  0  0  0  0  0  0  0  0  0  0
   -6.7370    0.6920   -0.3620 C   0  0  0  0  0  0  0  0  0  0  0  0
   -7.9360    0.1860    0.3150 C   0  0  0  0  0  0  0  0  0  0  0  0
   -7.4020   -0.6710    1.3940 C   0  0  0  0  0  0  0  0  0  0  0  0
   -6.0740   -0.6790    1.3700 C   0  0  0  0  0  0  0  0  0  0  0  0
   -5.1530   -1.3920    2.2860 C   0  0  2  0  0  0  0  0  0  0  0  0
   -4.4350   -0.1140    3.3350 Cl  0  0  0  0  0  0  0  0  0  0  0  0
   -4.0870   -2.0420    1.5830 N   0  0  0  0  0  0  0  0  0  0  0  0
   -3.3000   -1.6600    0.6430 C   0  0  0  0  0  0  0  0  0  0  0  0
    0.8560   -0.2600    0.0210 C   0  0  0  0  0  0  0  0  0  0  0  0
    2.1700   -1.0360    0.2650 C   0  0  0  0  0  0  0  0  0  0  0  0
    5.7380    0.1960    0.2070 C   0  0  0  0  0  0  0  0  0  0  0  0
  1  2  1  0
  2  3  1  0
  3  4  2  0
  3 30  1  0
  4  5  1  0
  5  6  2  0
  6  7  1  0
  7  8  1  0
  7 30  2  0
  8  9  1  0
  8 29  1  0
  9 10  1  0
 10 11  1  0
 11 12  1  0
 11 28  1  0
 12 13  2  0
 12 14  1  0
 14 15  1  0
 15 16  1  0
 16 17  2  0
 16 27  1  0
 17 18  1  0
 17 19  1  0
 19 20  2  0
 19 23  1  0
 20 21  1  0
 21 22  1  0
 22 23  2  0
 23 24  1  0
 24 25  1  1
 24 26  1  0
 26 27  2  0
 28 29  1  0
M  END
