
     RDKit          3D

 30 33  0  0  0  0  0  0  0  0999 V2000
    8.2810   -3.2040    0.1070 C   0  0  0  0  0  0  0  0  0  0  0  0
    8.2930   -1.8230   -0.4810 C   0  0  0  0  0  0  0  0  0  0  0  0
    7.0190   -1.1730   -0.2760 N   0  0  0  0  0  0  0  0  0  0  0  0
    6.7240    0.1350   -0.7170 C   0  0  0  0  0  0  0  0  0  0  0  0
    7.6100    0.7820   -1.3240 O   0  0  0  0  0  0  0  0  0  0  0  0
    5.4320    0.7760   -0.5010 C   0  0  0  0  0  0  0  0  0  0  0  0
    5.0610    2.0420   -0.8960 C   0  0  0  0  0  0  0  0  0  0  0  0
    3.7570    2.2260   -0.4820 C   0  0  0  0  0  0  0  0  0  0  0  0
    3.3540    1.1060    0.1430 N   0  0  0  0  0  0  0  0  0  0  0  0
    2.0350    0.9410    0.7100 C   0  0  0  0  0  0  0  0  0  0  0  0
    1.9940    0.4570    1.9910 C   0  0  0  0  0  0  0  0  0  0  0  0
    0.8210    0.2840    2.5630 N   0  0  0  0  0  0  0  0  0  0  0  0
   -0.3340    0.5810    1.8930 C   0  0  0  0  0  0  0  0  0  0  0  0
   -0.3520    1.0680    0.6070 C   0  0  0  0  0  0  0  0  0  0  0  0
   -1.5030    1.3640   -0.1790 C   0  0  0  0  0  0  0  0  0  0  0  0
   -1.2310    1.9730   -1.3170 O   0  0  0  0  0  0  0  0  0  0  0  0
   -2.8870    1.1300    0.0200 N   0  0  0  0  0  0  0  0  0  0  0  0
   -3.7980    1.6330   -1.0270 C   0  0  0  0  0  0  0  0  0  0  0  0
   -5.0650    2.1900   -0.4810 C   0  0  0  0  0  0  0  0  0  0  0  0
   -5.6400    1.3850    0.6360 C   0  0  0  0  0  0  0  0  0  0  0  0
   -4.9040    0.1350    0.9460 C   0  0  1  0  0  0  0  0  0  0  0  0
   -5.2120   -0.9390    0.0100 C   0  0  0  0  0  0  0  0  0  0  0  0
   -5.9480   -0.8680   -1.0780 C   0  0  0  0  0  0  0  0  0  0  0  0
   -5.9920   -2.2040   -1.7280 C   0  0  0  0  0  0  0  0  0  0  0  0
   -5.1690   -3.0690   -0.8520 C   0  0  0  0  0  0  0  0  0  0  0  0
   -4.7390   -2.3160    0.1300 C   0  0  0  0  0  0  0  0  0  0  0  0
   -3.7230   -2.9170    1.4180 Cl  0  0  0  0  0  0  0  0  0  0  0  0
   -3.4300    0.4320    1.1200 C   0  0  0  0  0  0  0  0  0  0  0  0
    0.9110    1.2480    0.0080 C   0  0  0  0  0  0  0  0  0  0  0  0
    4.3450    0.2650    0.1250 N   0  0  0  0  0  0  0  0  0  0  0  0
  1  2  1  0
  2  3  1  0
  3  4  1  0
  4  5  2  0
  4  6  1  0
  6  7  1  0
  6 30  2  0
  7  8  2  0
  8  9  1  0
  9 10  1  0
  9 30  1  0
 10 11  2  0
 10 29  1  0
 11 12  1  0
 12 13  2  0
 13 14  1  0
 14 15  1  0
 14 29  2  0
 15 16  2  0
 15 17  1  0
 17 18  1  0
 17 28  1  0
 18 19  1  0
 19 20  1  0
 20 21  1  0
 21 22  1  6
 21 28  1  0
 22 23  2  0
 22 26  1  0
 23 24  1  0
 24 25  1  0
 25 26  2  0
 26 27  1  0
M  END
