
     RDKit          3D

 29 32  0  0  0  0  0  0  0  0999 V2000
    5.6630   -1.7870    1.9610 C   0  0  0  0  0  0  0  0  0  0  0  0
    5.4880   -0.8560    0.8860 N   0  0  2  0  0  0  0  0  0  0  0  0
    5.8770    0.4630    1.3840 C   0  0  0  0  0  0  0  0  0  0  0  0
    4.1490   -0.8260    0.3520 C   0  0  0  0  0  0  0  0  0  0  0  0
    3.1520   -0.7880    1.4860 C   0  0  0  0  0  0  0  0  0  0  0  0
    1.8000   -0.7560    1.0460 N   0  0  0  0  0  0  0  0  0  0  0  0
    1.2930    0.3180    0.2120 C   0  0  0  0  0  0  0  0  0  0  0  0
    2.0540    1.2390   -0.1320 O   0  0  0  0  0  0  0  0  0  0  0  0
   -0.0510    0.3340   -0.2160 N   0  0  0  0  0  0  0  0  0  0  0  0
   -0.6570    1.3140   -1.0220 C   0  0  0  0  0  0  0  0  0  0  0  0
   -0.0510    2.4090   -1.5230 C   0  0  0  0  0  0  0  0  0  0  0  0
   -0.6970    3.3660   -2.3270 C   0  0  0  0  0  0  0  0  0  0  0  0
   -2.0270    3.1520   -2.6050 C   0  0  0  0  0  0  0  0  0  0  0  0
   -2.7100    2.0560   -2.1280 C   0  0  0  0  0  0  0  0  0  0  0  0
   -2.0150    1.1540   -1.3430 C   0  0  0  0  0  0  0  0  0  0  0  0
   -2.6690   -0.0090   -0.8210 N   0  0  0  0  0  0  0  0  0  0  0  0
   -3.2930   -0.0980    0.3460 C   0  0  0  0  0  0  0  0  0  0  0  0
   -3.4970    0.8900    1.3910 C   0  0  0  0  0  0  0  0  0  0  0  0
   -3.0930    2.2010    1.4540 C   0  0  0  0  0  0  0  0  0  0  0  0
   -3.5340    2.7160    2.6560 C   0  0  0  0  0  0  0  0  0  0  0  0
   -4.1920    1.7570    3.3210 N   0  0  0  0  0  0  0  0  0  0  0  0
   -4.1850    0.6380    2.5770 C   0  0  0  0  0  0  0  0  0  0  0  0
   -3.7440   -1.3810    0.3930 N   0  0  0  0  0  0  0  0  0  0  0  0
   -3.4040   -2.0540   -0.7140 C   0  0  0  0  0  0  0  0  0  0  0  0
   -3.6230   -3.3580   -1.1360 C   0  0  0  0  0  0  0  0  0  0  0  0
   -3.1520   -3.8070   -2.3520 C   0  0  0  0  0  0  0  0  0  0  0  0
   -2.4480   -2.9140   -3.1510 C   0  0  0  0  0  0  0  0  0  0  0  0
   -2.2360   -1.6200   -2.7210 C   0  0  0  0  0  0  0  0  0  0  0  0
   -2.7060   -1.1680   -1.5050 C   0  0  0  0  0  0  0  0  0  0  0  0
  2  1  1  1
  2  3  1  0
  2  4  1  0
  4  5  1  0
  5  6  1  0
  6  7  1  0
  7  8  2  0
  7  9  1  0
  9 10  1  0
 10 11  2  0
 10 15  1  0
 11 12  1  0
 12 13  2  0
 13 14  1  0
 14 15  2  0
 15 16  1  0
 16 17  1  0
 16 29  1  0
 17 18  1  0
 17 23  2  0
 18 19  1  0
 18 22  2  0
 19 20  2  0
 20 21  1  0
 21 22  1  0
 23 24  1  0
 24 25  2  0
 24 29  1  0
 25 26  1  0
 26 27  2  0
 27 28  1  0
 28 29  2  0
M  CHG  1   2   1
M  END
