
     RDKit          3D

 30 33  0  0  0  0  0  0  0  0999 V2000
    5.3730    4.0210   -0.8200 C   0  0  0  0  0  0  0  0  0  0  0  0
    3.9470    3.6480   -0.7310 C   0  0  0  0  0  0  0  0  0  0  0  0
    3.5850    2.3860   -0.4590 C   0  0  0  0  0  0  0  0  0  0  0  0
    4.6250    1.3550   -0.2460 C   0  0  0  0  0  0  0  0  0  0  0  0
    4.5580    0.2150   -1.2110 C   0  0  0  0  0  0  0  0  0  0  0  0
    3.2420   -0.5200   -1.1260 C   0  0  0  0  0  0  0  0  0  0  0  0
    2.3660   -0.1780   -0.3230 O   0  0  0  0  0  0  0  0  0  0  0  0
    3.0390   -1.6100   -1.9890 N   0  0  0  0  0  0  0  0  0  0  0  0
    1.8840   -2.4210   -2.0630 C   0  0  0  0  0  0  0  0  0  0  0  0
    0.7450   -2.2840   -1.3140 C   0  0  0  0  0  0  0  0  0  0  0  0
   -0.3610   -3.1250   -1.4420 C   0  0  0  0  0  0  0  0  0  0  0  0
   -1.5240   -2.9610   -0.6470 N   0  0  0  0  0  0  0  0  0  0  0  0
   -1.6520   -2.0120    0.3990 C   0  0  0  0  0  0  0  0  0  0  0  0
   -0.6830   -1.8170    1.2650 N   0  0  0  0  0  0  0  0  0  0  0  0
   -1.0750   -0.8130    2.1850 N   0  0  0  0  0  0  0  0  0  0  0  0
   -2.2520   -0.3760    1.9270 C   0  0  0  0  0  0  0  0  0  0  0  0
   -3.1350    0.6540    2.5250 C   0  0  0  0  0  0  0  0  0  0  0  0
   -3.9330    1.2730    1.6550 C   0  0  0  0  0  0  0  0  0  0  0  0
   -4.8470    2.3490    2.1630 C   0  0  0  0  0  0  0  0  0  0  0  0
   -4.4170    2.7400    3.5670 C   0  0  0  0  0  0  0  0  0  0  0  0
   -4.1800    1.6370    4.3520 O   0  0  0  0  0  0  0  0  0  0  0  0
   -3.0540    0.9140    3.9560 C   0  0  0  0  0  0  0  0  0  0  0  0
   -4.0470    0.7870    0.3360 N   0  0  0  0  0  0  0  0  0  0  0  0
   -3.4370   -0.2820   -0.1340 C   0  0  0  0  0  0  0  0  0  0  0  0
   -3.5960   -0.7090   -1.5400 C   0  0  0  0  0  0  0  0  0  0  0  0
   -2.7480   -1.1910    0.7900 C   0  0  1  0  0  0  0  0  0  0  0  0
   -0.3170   -4.1450   -2.3620 C   0  0  0  0  0  0  0  0  0  0  0  0
    0.8010   -4.3190   -3.1320 C   0  0  0  0  0  0  0  0  0  0  0  0
    1.8790   -3.4660   -2.9780 C   0  0  0  0  0  0  0  0  0  0  0  0
    3.2960   -3.7100   -3.9740 Cl  0  0  0  0  0  0  0  0  0  0  0  0
  1  2  1  0
  2  3  2  3
  3  4  1  0
  4  5  1  0
  5  6  1  0
  6  7  2  0
  6  8  1  0
  8  9  1  0
  9 10  2  0
  9 29  1  0
 10 11  1  0
 11 12  1  0
 11 27  2  0
 12 13  1  0
 13 14  2  0
 26 13  1  6
 14 15  1  0
 15 16  2  0
 16 17  1  0
 16 26  1  0
 17 18  2  0
 17 22  1  0
 18 19  1  0
 18 23  1  0
 19 20  1  0
 20 21  1  0
 21 22  1  0
 23 24  2  0
 24 25  1  0
 24 26  1  0
 27 28  1  0
 28 29  2  0
 29 30  1  0
M  END
