
     RDKit          3D

 34 37  0  0  0  0  0  0  0  0999 V2000
    6.7730    1.1100    1.5600 C   0  0  0  0  0  0  0  0  0  0  0  0
    6.8000   -0.3340    1.1270 C   0  0  0  0  0  0  0  0  0  0  0  0
    6.3700   -0.5090   -0.2920 C   0  0  0  0  0  0  0  0  0  0  0  0
    7.1680   -0.7370   -1.3070 O   0  0  0  0  0  0  0  0  0  0  0  0
    6.4980   -0.8420   -2.4140 N   0  0  0  0  0  0  0  0  0  0  0  0
    5.1840   -0.6800   -2.1640 C   0  0  0  0  0  0  0  0  0  0  0  0
    5.0980   -0.4670   -0.8060 C   0  0  0  0  0  0  0  0  0  0  0  0
    3.7560   -0.2580   -0.2590 C   0  0  1  0  0  0  0  0  0  0  0  0
    3.6940    0.1440    1.0980 N   0  0  0  0  0  0  0  0  0  0  0  0
    2.7250   -0.8580    2.0860 S   0  0  2  0  0  0  0  0  0  0  0  0
    2.8080   -0.3100    3.5020 O   0  0  0  0  0  0  0  0  0  0  0  0
    3.3430   -2.2470    2.1620 O   0  0  0  0  0  0  0  0  0  0  0  0
    1.0720   -0.9110    1.6100 C   0  0  0  0  0  0  0  0  0  0  0  0
    0.6480   -1.8670    0.7150 C   0  0  0  0  0  0  0  0  0  0  0  0
   -0.6550   -1.9440    0.3050 C   0  0  0  0  0  0  0  0  0  0  0  0
   -1.6210   -1.0480    0.7800 C   0  0  0  0  0  0  0  0  0  0  0  0
   -2.9610   -1.1960    0.2110 C   0  0  0  0  0  0  0  0  0  0  0  0
   -3.2900   -2.3930   -0.1060 O   0  0  0  0  0  0  0  0  0  0  0  0
   -3.8840   -0.1800   -0.0150 N   0  0  0  0  0  0  0  0  0  0  0  0
   -5.1830   -0.3140   -0.5550 C   0  0  0  0  0  0  0  0  0  0  0  0
   -5.7140   -1.5010   -1.0060 C   0  0  0  0  0  0  0  0  0  0  0  0
   -6.9920   -1.6310   -1.5510 C   0  0  0  0  0  0  0  0  0  0  0  0
   -7.5420   -3.1890   -2.0830 Cl  0  0  0  0  0  0  0  0  0  0  0  0
   -7.7750   -0.5150   -1.6480 C   0  0  0  0  0  0  0  0  0  0  0  0
   -7.3000    0.6920   -1.2160 C   0  0  0  0  0  0  0  0  0  0  0  0
   -6.0160    0.8000   -0.6730 C   0  0  0  0  0  0  0  0  0  0  0  0
   -5.5910    2.0680   -0.2380 N   0  0  0  0  0  0  0  0  0  0  0  0
   -6.5260    3.1970   -0.4110 C   0  0  0  0  0  0  0  0  0  0  0  0
   -1.2120   -0.1070    1.6620 C   0  0  0  0  0  0  0  0  0  0  0  0
   -2.1700    0.8500    2.2700 C   0  0  0  0  0  0  0  0  0  0  0  0
    0.1300   -0.0400    2.0730 C   0  0  0  0  0  0  0  0  0  0  0  0
    3.1110    0.8040   -1.1520 C   0  0  0  0  0  0  0  0  0  0  0  0
    2.9060    0.2460   -2.5150 C   0  0  0  0  0  0  0  0  0  0  0  0
    3.9420   -0.6930   -3.0190 C   0  0  0  0  0  0  0  0  0  0  0  0
  1  2  1  0
  2  3  1  0
  3  4  1  0
  3  7  2  0
  4  5  1  0
  5  6  2  0
  6  7  1  0
  6 34  1  0
  7  8  1  0
  8  9  1  1
  8 32  1  0
 10  9  1  6
 10 11  2  0
 10 12  2  0
 10 13  1  0
 13 14  2  0
 13 31  1  0
 14 15  1  0
 15 16  2  0
 16 17  1  0
 16 29  1  0
 17 18  2  0
 17 19  1  0
 19 20  1  0
 20 21  2  0
 20 26  1  0
 21 22  1  0
 22 23  1  0
 22 24  2  0
 24 25  1  0
 25 26  2  0
 26 27  1  0
 27 28  1  0
 29 30  1  0
 29 31  2  0
 32 33  1  0
 33 34  1  0
M  END
