
     RDKit          3D

 34 37  0  0  0  0  0  0  0  0999 V2000
    0.5470   -1.7150   -3.5040 C   0  0  0  0  0  0  0  0  0  0  0  0
   -0.2260   -1.2810   -2.2820 C   0  0  0  0  0  0  0  0  0  0  0  0
    0.4160   -1.7360   -0.9870 C   0  0  1  0  0  0  0  0  0  0  0  0
    0.4480   -3.2750   -1.1150 C   0  0  0  0  0  0  0  0  0  0  0  0
    1.6840   -1.2680   -0.7420 N   0  0  0  0  0  0  0  0  0  0  0  0
    2.1730    0.0790   -0.5850 C   0  0  0  0  0  0  0  0  0  0  0  0
    1.3310    0.9670   -0.6340 O   0  0  0  0  0  0  0  0  0  0  0  0
    3.6180    0.2930   -0.3900 C   0  0  0  0  0  0  0  0  0  0  0  0
    4.3950   -0.5190   -1.2290 C   0  0  0  0  0  0  0  0  0  0  0  0
    5.7650   -0.3880   -1.1270 C   0  0  0  0  0  0  0  0  0  0  0  0
    6.2720    0.4890   -0.2510 C   0  0  0  0  0  0  0  0  0  0  0  0
    8.0020    0.9150    0.1280 S   0  0  0  0  0  0  0  0  0  0  0  0
    7.6220    2.1800    1.4110 C   0  0  0  0  0  0  0  0  0  0  0  0
    6.2340    2.1450    1.4150 C   0  0  0  0  0  0  0  0  0  0  0  0
    5.5530    3.1280    2.4090 C   0  0  0  0  0  0  0  0  0  0  0  0
    5.5770    1.3240    0.6080 C   0  0  0  0  0  0  0  0  0  0  0  0
    4.1620    1.1730    0.4860 C   0  0  0  0  0  0  0  0  0  0  0  0
   -0.5770   -1.4670    0.0710 C   0  0  0  0  0  0  0  0  0  0  0  0
   -1.7470   -0.8360   -0.1040 N   0  0  0  0  0  0  0  0  0  0  0  0
   -2.4120   -0.8810    1.0910 C   0  0  0  0  0  0  0  0  0  0  0  0
   -3.7380   -0.3130    1.2670 C   0  0  0  0  0  0  0  0  0  0  0  0
   -4.5060   -0.5620    2.3490 C   0  0  0  0  0  0  0  0  0  0  0  0
   -5.7830   -0.0570    2.5250 C   0  0  0  0  0  0  0  0  0  0  0  0
   -6.7540   -0.4260    3.9220 Cl  0  0  0  0  0  0  0  0  0  0  0  0
   -6.3050    0.7580    1.5270 C   0  0  0  0  0  0  0  0  0  0  0  0
   -7.6510    1.3040    1.6230 C   0  0  0  0  0  0  0  0  0  0  0  0
   -8.1270    2.0230    0.7010 O   0  0  0  0  0  0  0  0  0  0  0  0
   -8.5000    1.0880    2.7040 O   0  0  0  0  0  0  0  0  0  0  0  0
   -5.5200    1.0060    0.4380 C   0  0  0  0  0  0  0  0  0  0  0  0
   -4.2520    0.5130    0.2470 C   0  0  0  0  0  0  0  0  0  0  0  0
   -3.4790    0.7670   -0.8390 O   0  0  0  0  0  0  0  0  0  0  0  0
   -3.7780    1.5280   -1.9360 C   0  0  0  0  0  0  0  0  0  0  0  0
   -1.6540   -1.5210    1.9690 N   0  0  0  0  0  0  0  0  0  0  0  0
   -0.5300   -1.8780    1.3410 N   0  0  0  0  0  0  0  0  0  0  0  0
  1  2  1  0
  2  3  1  0
  3  4  1  6
  3  5  1  0
  3 18  1  0
  5  6  1  0
  6  7  2  0
  6  8  1  0
  8  9  2  0
  8 17  1  0
  9 10  1  0
 10 11  2  0
 11 12  1  0
 11 16  1  0
 12 13  1  0
 13 14  2  0
 14 15  1  0
 14 16  1  0
 16 17  2  0
 18 19  2  0
 18 34  1  0
 19 20  1  0
 20 21  1  0
 20 33  2  0
 21 22  2  0
 21 30  1  0
 22 23  1  0
 23 24  1  0
 23 25  2  0
 25 26  1  0
 25 29  1  0
 26 27  2  0
 26 28  1  0
 29 30  2  0
 30 31  1  0
 31 32  1  0
 33 34  1  0
M  END
