
     RDKit          3D

 34 37  0  0  0  0  0  0  0  0999 V2000
   -1.5380    4.7240   -1.2550 C   0  0  0  0  0  0  0  0  0  0  0  0
   -1.5130    4.4060    0.1970 C   0  0  0  0  0  0  0  0  0  0  0  0
   -1.2460    2.9430    0.4580 N   0  0  0  0  0  0  0  0  0  0  0  0
   -2.3670    2.2250   -0.0970 C   0  0  0  0  0  0  0  0  0  0  0  0
   -2.6660    0.8840    0.4070 C   0  0  0  0  0  0  0  0  0  0  0  0
   -3.9940    0.6500    0.8200 C   0  0  0  0  0  0  0  0  0  0  0  0
   -4.4560   -0.5780    1.2060 C   0  0  0  0  0  0  0  0  0  0  0  0
   -5.7630   -0.7970    1.5960 O   0  0  0  0  0  0  0  0  0  0  0  0
   -6.7330    0.1960    1.6280 C   0  0  0  0  0  0  0  0  0  0  0  0
   -3.6130   -1.7080    1.2170 C   0  0  0  0  0  0  0  0  0  0  0  0
   -4.1800   -2.9240    1.6160 N   0  0  0  0  0  0  0  0  0  0  0  0
   -3.3970   -4.1130    1.7170 C   0  0  0  0  0  0  0  0  0  0  0  0
   -4.1490   -5.3550    2.1440 C   0  0  0  0  0  0  0  0  0  0  0  0
   -2.1990   -4.1980    1.4860 O   0  0  0  0  0  0  0  0  0  0  0  0
   -2.3300   -1.5020    0.8240 C   0  0  0  0  0  0  0  0  0  0  0  0
   -1.8760   -0.2250    0.4260 C   0  0  0  0  0  0  0  0  0  0  0  0
   -0.5420   -0.1740    0.0010 C   0  0  0  0  0  0  0  0  0  0  0  0
    0.2740    0.7410    0.2090 O   0  0  0  0  0  0  0  0  0  0  0  0
    0.0100   -1.2640   -0.7950 N   0  0  0  0  0  0  0  0  0  0  0  0
    1.3100   -1.0280   -1.1170 C   0  0  0  0  0  0  0  0  0  0  0  0
    1.9410   -1.2120   -2.0330 N   0  0  0  0  0  0  0  0  0  0  0  0
    3.3190   -0.8860   -2.2370 C   0  0  0  0  0  0  0  0  0  0  0  0
    4.0870   -0.3210   -1.3940 C   0  0  0  0  0  0  0  0  0  0  0  0
    5.4440    0.0200   -1.5130 C   0  0  0  0  0  0  0  0  0  0  0  0
    6.0050   -0.2850   -2.6780 C   0  0  0  0  0  0  0  0  0  0  0  0
    5.2390   -0.9180   -3.7290 C   0  0  0  0  0  0  0  0  0  0  0  0
    3.8010   -1.1860   -3.5980 C   0  0  0  0  0  0  0  0  0  0  0  0
    5.8390    0.5830   -0.2200 C   0  0  0  0  0  0  0  0  0  0  0  0
    7.4210    1.1360    0.1780 Cl  0  0  0  0  0  0  0  0  0  0  0  0
    4.7650    0.6000    0.6250 C   0  0  0  0  0  0  0  0  0  0  0  0
    4.8740    1.0700    1.9270 O   0  0  0  0  0  0  0  0  0  0  0  0
    5.7760    0.8410    2.9140 C   0  0  0  0  0  0  0  0  0  0  0  0
    3.6250    0.1080   -0.0420 C   0  0  2  0  0  0  0  0  0  0  0  0
    2.6090   -1.2750    0.4410 S   0  0  0  0  0  0  0  0  0  0  0  0
  1  2  1  0
  2  3  1  0
  3  4  1  0
  4  5  1  0
  5  6  2  0
  5 16  1  0
  6  7  1  0
  7  8  1  0
  7 10  2  0
  8  9  1  0
 10 11  1  0
 10 15  1  0
 11 12  1  0
 12 13  1  0
 12 14  2  0
 15 16  2  0
 16 17  1  0
 17 18  2  0
 17 19  1  0
 19 20  1  0
 20 21  2  0
 20 34  1  0
 21 22  1  0
 22 23  2  0
 22 27  1  0
 23 24  1  0
 23 33  1  0
 24 25  2  0
 24 28  1  0
 25 26  1  0
 26 27  1  0
 28 29  1  0
 28 30  2  0
 30 31  1  0
 30 33  1  0
 31 32  1  0
 33 34  1  1
M  END
