
     RDKit          3D

 26 25  0  0  0  0  0  0  0  0999 V2000
    2.8420   -0.5550    0.2590 C   0  0  0  0  0  0  0  0  0  0  0  0
    3.1940    0.2660   -0.9200 C   0  0  0  0  0  0  0  0  0  0  0  0
    2.2480    1.0040   -1.4810 C   0  0  0  0  0  0  0  0  0  0  0  0
    0.8740    1.1750   -1.1590 C   0  0  0  0  0  0  0  0  0  0  0  0
    0.1480    0.4020   -0.1420 C   0  0  0  0  0  0  0  0  0  0  0  0
   -1.2650    0.9870   -0.1350 C   0  0  0  0  0  0  0  0  0  0  0  0
   -1.4110    2.4250    0.2020 C   0  0  0  0  0  0  0  0  0  0  0  0
   -2.3150    0.2710   -0.4060 C   0  0  0  0  0  0  0  0  0  0  0  0
   -3.7160    0.7920   -0.4140 C   0  0  0  0  0  0  0  0  0  0  0  0
   -4.3940    0.0380    0.5450 O   0  0  0  0  0  0  0  0  0  0  0  0
   -5.8940    0.3100    0.8090 P   0  0  0  0  0  0  0  0  0  0  0  0
   -7.3780    0.7440    0.7760 O   0  0  0  0  0  0  0  0  0  0  0  0
   -6.0850   -0.8040    1.9710 O   0  0  0  0  0  0  0  0  0  0  0  0
   -6.0880   -0.1760   -0.7910 O   0  0  0  0  0  0  0  0  0  0  0  0
   -7.1470   -1.4700   -0.7360 P   0  0  0  0  0  0  0  0  0  0  0  0
   -5.8960   -2.3730   -0.9210 O   0  0  0  0  0  0  0  0  0  0  0  0
   -7.6030   -1.9950    0.7380 O   0  0  0  0  0  0  0  0  0  0  0  0
   -8.2640   -0.4260   -0.9870 O   0  0  0  0  0  0  0  0  0  0  0  0
    4.5680    0.2340   -1.5190 C   0  0  0  0  0  0  0  0  0  0  0  0
    5.6860    0.7530   -0.7230 C   0  0  0  0  0  0  0  0  0  0  0  0
    5.8660    0.0510    0.5510 C   0  0  0  0  0  0  0  0  0  0  0  0
    6.7870   -0.7790    0.9050 C   0  0  0  0  0  0  0  0  0  0  0  0
    7.9120   -1.2430    0.1070 C   0  0  0  0  0  0  0  0  0  0  0  0
    7.9710   -0.7470   -1.1460 F   0  0  0  0  0  0  0  0  0  0  0  0
    6.7050   -1.3500    2.3170 C   0  0  0  0  0  0  0  0  0  0  0  0
    5.6090   -0.8360    2.9570 F   0  0  0  0  0  0  0  0  0  0  0  0
  1  2  1  0
  2  3  2  3
  2 19  1  0
  3  4  1  0
  4  5  1  0
  5  6  1  0
  6  7  1  0
  6  8  2  3
  8  9  1  0
  9 10  1  0
 10 11  1  0
 11 12  1  0
 11 13  1  0
 11 14  1  0
 14 15  1  0
 15 16  1  0
 15 17  1  0
 15 18  1  0
 19 20  1  0
 20 21  1  0
 21 22  2  3
 22 23  1  0
 22 25  1  0
 23 24  1  0
 25 26  1  0
M  END
