
     RDKit          3D

 28 29  0  0  0  0  0  0  0  0999 V2000
   -7.4720   -1.0320    0.6260 C   0  0  0  0  0  0  0  0  0  0  0  0
   -6.2300   -0.6750    0.8950 C   0  0  0  0  0  0  0  0  0  0  0  0
   -5.8760    0.0830    1.9940 C   0  0  0  0  0  0  0  0  0  0  0  0
   -4.5130    0.2990    2.0090 C   0  0  0  0  0  0  0  0  0  0  0  0
   -3.2470    0.7090    2.3470 C   0  0  0  0  0  0  0  0  0  0  0  0
   -2.7200    1.4040    3.3040 N   0  0  0  0  0  0  0  0  0  0  0  0
   -2.7720    0.0540    1.2140 C   0  0  0  0  0  0  0  0  0  0  0  0
   -1.5560   -0.0850    0.7020 C   0  0  0  0  0  0  0  0  0  0  0  0
   -1.3890   -0.8090   -0.4630 O   0  0  0  0  0  0  0  0  0  0  0  0
   -0.4740   -1.8710   -0.5600 C   0  0  0  0  0  0  0  0  0  0  0  0
   -0.4760    0.4880    1.3260 O   0  0  0  0  0  0  0  0  0  0  0  0
    0.7160    0.5580    0.7190 N   0  0  0  0  0  0  0  0  0  0  0  0
    1.1450    1.3800   -0.1450 C   0  0  0  0  0  0  0  0  0  0  0  0
    0.2940    2.4070   -0.5820 O   0  0  0  0  0  0  0  0  0  0  0  0
   -1.0490    2.2970   -0.5800 O   0  0  0  0  0  0  0  0  0  0  0  0
   -1.6730    2.2410   -1.8370 C   0  0  0  0  0  0  0  0  0  0  0  0
   -1.0000    2.2920   -2.8990 O   0  0  0  0  0  0  0  0  0  0  0  0
    2.4590    1.2630   -0.6580 N   0  0  0  0  0  0  0  0  0  0  0  0
    2.9930    2.3120   -1.4830 C   0  0  0  0  0  0  0  0  0  0  0  0
    3.2630    0.1120   -0.3620 C   0  0  0  0  0  0  0  0  0  0  0  0
    4.4950    0.2210   -0.9650 O   0  0  0  0  0  0  0  0  0  0  0  0
    5.3330   -0.8520   -0.7220 C   0  0  1  0  0  0  0  0  0  0  0  0
    6.6340   -0.5610   -1.4580 C   0  0  0  0  0  0  0  0  0  0  0  0
    5.6610   -1.0190    0.7370 C   0  0  0  0  0  0  0  0  0  0  0  0
    4.8290   -2.0580   -1.1970 F   0  0  0  0  0  0  0  0  0  0  0  0
   -4.0070   -0.3830    0.8260 C   0  0  0  0  0  0  0  0  0  0  0  0
   -5.0830   -0.9660    0.1730 C   0  0  0  0  0  0  0  0  0  0  0  0
   -5.0300   -1.9480   -1.3670 P   0  0  0  0  0  0  0  0  0  0  0  0
  1  2  2  0
  2  3  1  0
  2 27  1  0
  3  4  2  0
  4  5  1  0
  4 26  1  0
  5  6  2  0
  5  7  1  0
  7  8  2  3
  7 26  1  0
  8  9  1  0
  8 11  1  0
  9 10  1  0
 11 12  1  0
 12 13  2  3
 13 14  1  0
 13 18  1  0
 14 15  1  0
 15 16  1  0
 16 17  2  0
 18 19  1  0
 18 20  1  0
 20 21  1  0
 21 22  1  0
 22 23  1  6
 22 24  1  0
 22 25  1  0
 26 27  2  0
 27 28  1  0
M  END
