
     RDKit          3D

 10 11  0  0  0  0  0  0  0  0999 V2000
    1.6000    1.4450   -0.8160 P   0  0  0  0  0  0  0  0  0  0  0  0
    0.0010    0.7280   -0.2020 C   0  0  2  0  0  0  0  0  0  0  0  0
   -0.1990    1.2470    1.0990 O   0  0  0  0  0  0  0  0  0  0  0  0
    0.7490    0.7310    1.8200 O   0  0  0  0  0  0  0  0  0  0  0  0
    1.0860   -0.4720    1.3690 N   0  0  0  0  0  0  0  0  0  0  0  0
    0.2520   -0.7200    0.1760 C   0  0  1  0  0  0  0  0  0  0  0  0
   -0.9460   -1.4210    0.6710 C   0  0  0  0  0  0  0  0  0  0  0  0
   -2.3550   -1.3790   -0.2140 P   0  0  0  0  0  0  0  0  0  0  0  0
   -2.2360   -0.4280   -1.7560 N   0  0  0  0  0  0  0  0  0  0  0  0
   -1.3280    1.0140   -1.3260 S   0  0  0  0  0  0  0  0  0  0  0  0
  2  1  1  6
  2  3  1  0
  2  6  1  0
  2 10  1  0
  3  4  1  0
  4  5  1  0
  6  5  1  1
  6  7  1  0
  7  8  2  0
  8  9  1  0
  9 10  1  0
M  END
