
     RDKit          3D

 10  9  0  0  0  0  0  0  0  0999 V2000
    1.8180   -2.1590    0.0660 C   0  0  0  0  0  0  0  0  0  0  0  0
    0.6030   -1.3990    0.0610 N   0  0  0  0  0  0  0  0  0  0  0  0
    0.5060   -0.1780    0.3870 C   0  0  0  0  0  0  0  0  0  0  0  0
    1.6640    0.4840    0.7790 O   0  0  0  0  0  0  0  0  0  0  0  0
    3.1570    0.3590   -0.1800 P   0  0  0  0  0  0  0  0  0  0  0  0
    3.8140    1.7370   -0.7110 N   0  0  0  0  0  0  0  0  0  0  0  0
   -1.0970    0.7280    0.3550 P   0  0  0  0  0  0  0  0  0  0  0  0
   -1.4730    1.5710   -1.5950 S   0  0  0  0  0  0  0  0  0  0  0  0
   -2.4110   -0.3210    0.7700 O   0  0  0  0  0  0  0  0  0  0  0  0
   -3.5220    0.0860    0.0330 C   0  0  0  0  0  0  0  0  0  0  0  0
  1  2  1  0
  2  3  2  3
  3  4  1  0
  3  7  1  0
  4  5  1  0
  5  6  2  0
  7  8  1  0
  7  9  1  0
  9 10  1  0
M  END
