
     RDKit          3D

 10 11  0  0  0  0  0  0  0  0999 V2000
   -2.2320   -1.2790    1.8830 O   0  0  0  0  0  0  0  0  0  0  0  0
   -0.7910   -1.0810    0.9990 P   0  0  0  0  0  0  0  0  0  0  0  0
    0.4970   -0.3810    1.9570 O   0  0  0  0  0  0  0  0  0  0  0  0
    1.6620    0.2530    0.8650 P   0  0  0  0  0  0  0  0  0  0  0  0
    1.9500    1.9720    1.0470 N   0  0  0  0  0  0  0  0  0  0  0  0
    3.1610    2.4970    0.5420 S   0  0  0  0  0  0  0  0  0  0  0  0
    1.4080   -0.2740   -0.8460 C   0  0  0  0  0  0  0  0  0  0  0  0
    0.1750   -0.3950   -1.3760 C   0  0  0  0  0  0  0  0  0  0  0  0
   -1.2340   -0.4620   -1.7560 N   0  0  0  0  0  0  0  0  0  0  0  0
   -0.9780    0.0310   -0.4750 C   0  0  1  0  0  0  0  0  0  0  0  0
  1  2  1  0
  2  3  1  0
  2 10  1  0
  3  4  1  0
  4  5  1  0
  4  7  1  0
  5  6  2  0
  7  8  2  0
  8  9  1  0
  8 10  1  0
 10  9  1  6
M  END
