
     RDKit          3D

 10  9  0  0  0  0  0  0  0  0999 V2000
   -0.2980   -1.4880   -0.5500 C   0  0  0  0  0  0  0  0  0  0  0  0
   -0.5560   -0.0050   -0.4690 C   0  0  2  0  0  0  0  0  0  0  0  0
   -0.8450    0.4760   -1.8000 N   0  0  0  0  0  0  0  0  0  0  0  0
    0.4230    0.6940    0.1820 O   0  0  0  0  0  0  0  0  0  0  0  0
    1.9820    0.5710   -0.5330 P   0  0  0  0  0  0  0  0  0  0  0  0
    2.8730    2.0010   -0.0310 O   0  0  0  0  0  0  0  0  0  0  0  0
    2.8680   -0.7890    0.1420 O   0  0  0  0  0  0  0  0  0  0  0  0
   -2.1320    0.2250    0.5290 P   0  0  0  0  0  0  0  0  0  0  0  0
   -2.0090    1.7760    1.4630 N   0  0  0  0  0  0  0  0  0  0  0  0
   -2.3370   -1.3880    1.9410 S   0  0  0  0  0  0  0  0  0  0  0  0
  2  1  1  6
  2  3  1  0
  2  4  1  0
  2  8  1  0
  4  5  1  0
  5  6  1  0
  5  7  1  0
  8  9  1  0
  8 10  1  0
M  END
