
     RDKit          3D

 28 30  0  0  0  0  0  0  0  0999 V2000
    2.9210    1.0190   -1.7600 C   0  0  0  0  0  0  0  0  0  0  0  0
    3.5290    0.4240   -0.7560 C   0  0  0  0  0  0  0  0  0  0  0  0
    2.7290   -0.3480    0.1950 C   0  0  0  0  0  0  0  0  0  0  0  0
    0.9030   -0.4210   -0.0980 P   0  0  0  0  0  0  0  0  0  0  0  0
    0.5720   -0.9920   -1.6710 F   0  0  0  0  0  0  0  0  0  0  0  0
    0.2510    1.1590    0.2680 N   0  0  0  0  0  0  0  0  0  0  0  0
   -0.7620    1.7210   -0.2050 C   0  0  0  0  0  0  0  0  0  0  0  0
   -1.7060    1.2210   -1.2100 C   0  0  1  0  0  0  0  0  0  0  0  0
   -1.0130    0.8640   -2.3720 O   0  0  0  0  0  0  0  0  0  0  0  0
   -2.5140    0.0220   -0.7670 C   0  0  0  0  0  0  0  0  0  0  0  0
   -3.2490    0.3640    0.4320 N   0  0  0  0  0  0  0  0  0  0  0  0
   -4.2910    1.3320    0.2140 C   0  0  0  0  0  0  0  0  0  0  0  0
   -5.5810    0.5380    0.1390 C   0  0  2  0  0  0  0  0  0  0  0  0
   -6.6900    1.4440    0.6310 C   0  0  0  0  0  0  0  0  0  0  0  0
   -5.3080   -0.5670    1.0040 N   0  0  0  0  0  0  0  0  0  0  0  0
   -5.8290   -1.7650    0.3370 C   0  0  0  0  0  0  0  0  0  0  0  0
   -4.8940   -2.7420    0.6630 O   0  0  0  0  0  0  0  0  0  0  0  0
   -3.6930   -2.0620    0.3520 C   0  0  0  0  0  0  0  0  0  0  0  0
   -3.8800   -0.7610    1.0510 C   0  0  1  0  0  0  0  0  0  0  0  0
    3.2710   -0.9590    1.2060 C   0  0  0  0  0  0  0  0  0  0  0  0
    4.7260   -0.9090    1.4520 C   0  0  1  0  0  0  0  0  0  0  0  0
    5.1460   -2.2660    1.5050 O   0  0  0  0  0  0  0  0  0  0  0  0
    5.5970   -2.5750    2.7880 C   0  0  0  0  0  0  0  0  0  0  0  0
    5.4570   -0.1830    0.5510 O   0  0  0  0  0  0  0  0  0  0  0  0
    4.9610    0.5080   -0.5670 C   0  0  0  0  0  0  0  0  0  0  0  0
    5.7880    1.1610   -1.3380 C   0  0  0  0  0  0  0  0  0  0  0  0
    7.2410    1.1290   -0.9740 C   0  0  0  0  0  0  0  0  0  0  0  0
    5.4660    1.8750   -2.4510 O   0  0  0  0  0  0  0  0  0  0  0  0
  1  2  2  0
  2  3  1  0
  2 25  1  0
  3  4  1  0
  3 20  2  0
  4  5  1  0
  4  6  1  0
  6  7  2  3
  7  8  1  0
  8  9  1  6
  8 10  1  0
 10 11  1  0
 11 12  1  0
 11 19  1  0
 12 13  1  0
 13 14  1  1
 13 15  1  0
 15 16  1  0
 15 19  1  0
 16 17  1  0
 17 18  1  0
 19 18  1  6
 20 21  1  0
 21 22  1  6
 21 24  1  0
 22 23  1  0
 24 25  1  0
 25 26  2  3
 26 27  1  0
 26 28  1  0
M  END
