
     RDKit          3D

 10 10  0  0  0  0  0  0  0  0999 V2000
   -3.1070   -0.8320    0.1770 C   0  0  0  0  0  0  0  0  0  0  0  0
   -1.9660   -0.1600    0.1110 C   0  0  0  0  0  0  0  0  0  0  0  0
   -1.8590    1.0510   -0.7280 C   0  0  0  0  0  0  0  0  0  0  0  0
   -0.5620   -0.8070    1.0990 P   0  0  0  0  0  0  0  0  0  0  0  0
    1.4020   -0.1990    0.4130 P   0  0  0  0  0  0  0  0  0  0  0  0
    2.0020    1.3990    0.7120 C   0  0  0  0  0  0  0  0  0  0  0  0
    3.3470    1.4700    0.5140 N   0  0  0  0  0  0  0  0  0  0  0  0
    4.0780    0.4900    0.1540 O   0  0  0  0  0  0  0  0  0  0  0  0
    3.7930   -0.7080   -0.0960 O   0  0  0  0  0  0  0  0  0  0  0  0
    2.6300   -1.2820   -0.0520 N   0  0  0  0  0  0  0  0  0  0  0  0
  1  2  2  0
  2  3  1  0
  2  4  1  0
  4  5  1  0
  5  6  1  0
  5 10  1  0
  6  7  2  0
  7  8  1  0
  8  9  1  0
  9 10  1  0
M  END
