
     RDKit          3D

 40 43  0  0  0  0  0  0  0  0999 V2000
    6.4000   -0.8240   -3.9590 C   0  0  0  0  0  0  0  0  0  0  0  0
    6.7270   -0.5130   -2.5380 C   0  0  2  0  0  0  0  0  0  0  0  0
    6.7440   -1.6460   -1.6890 O   0  0  0  0  0  0  0  0  0  0  0  0
    6.4200   -1.1520   -0.4040 C   0  0  0  0  0  0  0  0  0  0  0  0
    6.7540   -1.8910    0.8390 C   0  0  0  0  0  0  0  0  0  0  0  0
    6.1080   -3.2640    0.8550 C   0  0  0  0  0  0  0  0  0  0  0  0
    6.5400   -4.0330   -0.2270 O   0  0  0  0  0  0  0  0  0  0  0  0
    5.8080    0.0040   -0.5040 C   0  0  0  0  0  0  0  0  0  0  0  0
    5.2920    0.8830    0.5310 C   0  0  0  0  0  0  0  0  0  0  0  0
    4.7220    1.9710    0.1760 O   0  0  0  0  0  0  0  0  0  0  0  0
    5.3490    0.6730    1.8840 O   0  0  0  0  0  0  0  0  0  0  0  0
    4.8360    1.5440    2.8540 C   0  0  0  0  0  0  0  0  0  0  0  0
    3.3670    1.7310    2.7790 C   0  0  0  0  0  0  0  0  0  0  0  0
    2.7730    2.5770    3.5100 O   0  0  0  0  0  0  0  0  0  0  0  0
    2.5260    0.9930    1.9030 N   0  0  0  0  0  0  0  0  0  0  0  0
    1.0760    1.1840    1.8290 C   0  0  1  0  0  0  0  0  0  0  0  0
    0.5960    1.3080    0.4310 C   0  0  0  0  0  0  0  0  0  0  0  0
   -0.8860    1.5310    0.3650 C   0  0  0  0  0  0  0  0  0  0  0  0
   -1.4520    1.6890    1.4690 O   0  0  0  0  0  0  0  0  0  0  0  0
   -1.5850    1.5590   -0.8400 N   0  0  0  0  0  0  0  0  0  0  0  0
   -2.9750    1.7710   -0.9650 C   0  0  0  0  0  0  0  0  0  0  0  0
   -3.7600    2.2710    0.0320 C   0  0  0  0  0  0  0  0  0  0  0  0
   -5.1250    2.4200   -0.1870 C   0  0  0  0  0  0  0  0  0  0  0  0
   -5.7290    2.0850   -1.3750 C   0  0  0  0  0  0  0  0  0  0  0  0
   -7.4730    2.2770   -1.6680 S   0  0  0  0  0  0  0  0  0  0  0  0
   -8.3550    0.7660   -1.1510 C   0  0  2  0  0  0  0  0  0  0  0  0
   -8.2350    0.6460    0.3340 C   0  0  0  0  0  0  0  0  0  0  0  0
   -7.8600   -0.4350   -1.8710 C   0  0  0  0  0  0  0  0  0  0  0  0
   -6.6480   -1.0570   -1.7030 C   0  0  0  0  0  0  0  0  0  0  0  0
   -6.5890   -2.1270   -2.5620 C   0  0  0  0  0  0  0  0  0  0  0  0
   -7.7920   -2.1190   -3.2370 C   0  0  0  0  0  0  0  0  0  0  0  0
   -8.5050   -1.1120   -2.8020 O   0  0  0  0  0  0  0  0  0  0  0  0
   -4.9260    1.5840   -2.3700 C   0  0  0  0  0  0  0  0  0  0  0  0
   -3.5880    1.4270   -2.1830 C   0  0  0  0  0  0  0  0  0  0  0  0
    0.5080   -0.0350    2.5130 C   0  0  0  0  0  0  0  0  0  0  0  0
   -0.4170   -0.8840    2.0130 C   0  0  0  0  0  0  0  0  0  0  0  0
   -0.6620   -1.8570    2.9830 C   0  0  0  0  0  0  0  0  0  0  0  0
    0.1450   -1.5580    4.0660 C   0  0  0  0  0  0  0  0  0  0  0  0
    0.8410   -0.4350    3.7300 N   0  0  0  0  0  0  0  0  0  0  0  0
    5.7330    0.2600   -1.8780 O   0  0  0  0  0  0  0  0  0  0  0  0
  2  1  1  6
  2  3  1  0
  2 40  1  0
  3  4  1  0
  4  5  1  0
  4  8  2  0
  5  6  1  0
  6  7  1  0
  8  9  1  0
  8 40  1  0
  9 10  2  0
  9 11  1  0
 11 12  1  0
 12 13  1  0
 13 14  2  0
 13 15  1  0
 15 16  1  0
 16 17  1  6
 16 35  1  0
 17 18  1  0
 18 19  2  0
 18 20  1  0
 20 21  1  0
 21 22  2  0
 21 34  1  0
 22 23  1  0
 23 24  2  0
 24 25  1  0
 24 33  1  0
 25 26  1  0
 26 27  1  1
 26 28  1  0
 28 29  2  0
 28 32  1  0
 29 30  1  0
 30 31  2  0
 31 32  1  0
 33 34  2  0
 35 36  2  0
 35 39  1  0
 36 37  1  0
 37 38  2  0
 38 39  1  0
M  END
