
     RDKit          3D

 40 43  0  0  0  0  0  0  0  0999 V2000
    3.7530    2.8460    1.9740 C   0  0  0  0  0  0  0  0  0  0  0  0
    4.5270    2.9690    0.7030 C   0  0  0  0  0  0  0  0  0  0  0  0
    3.8090    2.1590   -0.3770 C   0  0  1  0  0  0  0  0  0  0  0  0
    4.6570    2.3350   -1.6350 C   0  0  0  0  0  0  0  0  0  0  0  0
    5.4980    1.0510   -1.6120 C   0  0  0  0  0  0  0  0  0  0  0  0
    4.5120    0.1080   -1.1660 N   0  0  0  0  0  0  0  0  0  0  0  0
    4.2670   -1.1600   -1.7170 C   0  0  0  0  0  0  0  0  0  0  0  0
    4.9220   -1.6030   -2.6980 O   0  0  0  0  0  0  0  0  0  0  0  0
    3.2210   -2.0360   -1.1670 C   0  0  0  0  0  0  0  0  0  0  0  0
    1.9150   -1.9940   -1.6410 C   0  0  0  0  0  0  0  0  0  0  0  0
    0.9000   -2.7990   -1.1520 C   0  0  0  0  0  0  0  0  0  0  0  0
   -0.4510   -2.6690   -1.6600 C   0  0  0  0  0  0  0  0  0  0  0  0
   -1.4210   -1.8460   -0.8420 C   0  0  0  0  0  0  0  0  0  0  0  0
   -1.0600   -0.4520   -0.6660 C   0  0  0  0  0  0  0  0  0  0  0  0
   -0.2840    0.0570   -1.5190 O   0  0  0  0  0  0  0  0  0  0  0  0
   -1.5280    0.3620    0.4020 N   0  0  0  0  0  0  0  0  0  0  0  0
   -2.3910   -0.2210    1.3350 C   0  0  0  0  0  0  0  0  0  0  0  0
   -3.8300   -0.2870    1.3280 C   0  0  1  0  0  0  0  0  0  0  0  0
   -4.5740    0.8680    1.3900 O   0  0  0  0  0  0  0  0  0  0  0  0
   -4.4620   -1.2630    0.3240 C   0  0  0  0  0  0  0  0  0  0  0  0
   -5.9720   -1.1210    0.5740 C   0  0  0  0  0  0  0  0  0  0  0  0
   -5.9930   -1.1920    2.3880 S   0  0  0  0  0  0  0  0  0  0  0  0
   -4.2070   -1.0090    2.6610 C   0  0  0  0  0  0  0  0  0  0  0  0
   -0.9560    1.6850    0.4390 C   0  0  0  0  0  0  0  0  0  0  0  0
   -1.5440    2.7810   -0.3250 C   0  0  2  0  0  0  0  0  0  0  0  0
   -2.9650    3.1670   -0.0160 C   0  0  0  0  0  0  0  0  0  0  0  0
   -1.3770    2.7140   -1.8350 C   0  0  0  0  0  0  0  0  0  0  0  0
   -1.7670    4.1630   -2.1850 C   0  0  0  0  0  0  0  0  0  0  0  0
   -1.2050    4.8990   -1.1150 O   0  0  0  0  0  0  0  0  0  0  0  0
   -0.7640    4.0790   -0.1050 C   0  0  0  0  0  0  0  0  0  0  0  0
    0.0610    4.2520    0.8100 O   0  0  0  0  0  0  0  0  0  0  0  0
    1.2490   -3.6740   -0.1460 C   0  0  0  0  0  0  0  0  0  0  0  0
    0.3490   -4.6300    0.4610 C   0  0  0  0  0  0  0  0  0  0  0  0
    0.7520   -5.4020    1.3850 O   0  0  0  0  0  0  0  0  0  0  0  0
   -0.9690   -4.7730    0.0940 O   0  0  0  0  0  0  0  0  0  0  0  0
   -1.8340   -5.7230    0.7020 C   0  0  0  0  0  0  0  0  0  0  0  0
    2.5370   -3.7020    0.3110 N   0  0  0  0  0  0  0  0  0  0  0  0
    3.5130   -2.9250   -0.1590 C   0  0  0  0  0  0  0  0  0  0  0  0
    4.6940   -3.0070    0.3170 O   0  0  0  0  0  0  0  0  0  0  0  0
    3.8200    0.6930   -0.0540 C   0  0  0  0  0  0  0  0  0  0  0  0
  1  2  1  0
  3  2  1  1
  3  4  1  0
  3 40  1  0
  4  5  1  0
  5  6  1  0
  6  7  1  0
  6 40  1  0
  7  8  2  0
  7  9  1  0
  9 10  2  0
  9 38  1  0
 10 11  1  0
 11 12  1  0
 11 32  2  0
 12 13  1  0
 13 14  1  0
 14 15  2  0
 14 16  1  0
 16 17  1  0
 16 24  1  0
 17 18  1  0
 18 19  1  1
 18 20  1  0
 18 23  1  0
 20 21  1  0
 21 22  1  0
 22 23  1  0
 24 25  1  0
 25 26  1  6
 25 27  1  0
 25 30  1  0
 27 28  1  0
 28 29  1  0
 29 30  1  0
 30 31  2  0
 32 33  1  0
 32 37  1  0
 33 34  2  0
 33 35  1  0
 35 36  1  0
 37 38  1  0
 38 39  2  0
M  END
