
     RDKit          3D

 40 43  0  0  0  0  0  0  0  0999 V2000
  -10.1700   -1.8030   -0.4300 C   0  0  0  0  0  0  0  0  0  0  0  0
   -9.4600   -3.0810   -0.7500 C   0  0  0  0  0  0  0  0  0  0  0  0
   -8.0140   -2.9140   -1.0830 C   0  0  2  0  0  0  0  0  0  0  0  0
   -7.4670   -4.3180   -1.3760 C   0  0  0  0  0  0  0  0  0  0  0  0
   -7.2650   -2.2970   -0.0740 O   0  0  0  0  0  0  0  0  0  0  0  0
   -6.4790   -1.1690   -0.2550 C   0  0  0  0  0  0  0  0  0  0  0  0
   -6.4360   -0.6690   -1.4030 O   0  0  0  0  0  0  0  0  0  0  0  0
   -5.7750   -0.6210    0.7850 O   0  0  0  0  0  0  0  0  0  0  0  0
   -4.9670    0.5230    0.6270 C   0  0  0  0  0  0  0  0  0  0  0  0
   -3.7160    0.2690    0.3140 C   0  0  0  0  0  0  0  0  0  0  0  0
   -2.9390   -0.9420    0.0800 C   0  0  0  0  0  0  0  0  0  0  0  0
   -3.2010   -2.0900    0.5340 O   0  0  0  0  0  0  0  0  0  0  0  0
   -1.8110   -0.6170   -0.7600 N   0  0  0  0  0  0  0  0  0  0  0  0
   -0.8160   -1.5490   -1.2130 C   0  0  0  0  0  0  0  0  0  0  0  0
    0.3280   -1.6210   -0.1920 C   0  0  0  0  0  0  0  0  0  0  0  0
    0.1760   -2.3990    0.9590 C   0  0  0  0  0  0  0  0  0  0  0  0
    1.7390   -2.1630    1.7970 S   0  0  0  0  0  0  0  0  0  0  0  0
    2.4430   -1.0880    0.5920 C   0  0  0  0  0  0  0  0  0  0  0  0
    3.7960   -0.4920    0.6760 C   0  0  0  0  0  0  0  0  0  0  0  0
    4.4840   -0.7660    1.6720 O   0  0  0  0  0  0  0  0  0  0  0  0
    4.3010    0.3540   -0.3240 N   0  0  0  0  0  0  0  0  0  0  0  0
    5.5700    0.9840   -0.3880 C   0  0  0  0  0  0  0  0  0  0  0  0
    6.7630    0.0360   -0.4610 C   0  0  2  0  0  0  0  0  0  0  0  0
    6.7980   -0.7530    0.6410 O   0  0  0  0  0  0  0  0  0  0  0  0
    7.9750    0.8960   -0.5780 C   0  0  0  0  0  0  0  0  0  0  0  0
    9.2370    0.2760   -0.6960 N   0  0  0  0  0  0  0  0  0  0  0  0
   10.2140    1.3680   -0.9160 C   0  0  0  0  0  0  0  0  0  0  0  0
   11.5020    1.0770   -0.1780 C   0  0  0  0  0  0  0  0  0  0  0  0
   11.3260    1.0180    1.1990 O   0  0  0  0  0  0  0  0  0  0  0  0
   10.1040    0.4500    1.5560 C   0  0  0  0  0  0  0  0  0  0  0  0
    9.6750   -0.4910    0.4450 C   0  0  0  0  0  0  0  0  0  0  0  0
    1.4960   -0.9760   -0.3320 C   0  0  0  0  0  0  0  0  0  0  0  0
   -1.9440    0.7980   -1.0100 C   0  0  0  0  0  0  0  0  0  0  0  0
   -1.4840    1.3960   -2.0020 O   0  0  0  0  0  0  0  0  0  0  0  0
   -2.7090    1.3710    0.1110 C   0  0  1  0  0  0  0  0  0  0  0  0
   -3.4280    2.6610   -0.1910 C   0  0  0  0  0  0  0  0  0  0  0  0
   -4.4390    2.8860    0.9360 C   0  0  1  0  0  0  0  0  0  0  0  0
   -3.7530    2.6970    2.2630 C   0  0  0  0  0  0  0  0  0  0  0  0
   -5.0340    4.2710    0.8010 C   0  0  0  0  0  0  0  0  0  0  0  0
   -5.5360    1.8770    0.8090 C   0  0  0  0  0  0  0  0  0  0  0  0
  1  2  1  0
  2  3  1  0
  3  4  1  1
  3  5  1  0
  5  6  1  0
  6  7  2  0
  6  8  1  0
  8  9  1  0
  9 10  2  0
  9 40  1  0
 10 11  1  0
 10 35  1  0
 11 12  2  0
 11 13  1  0
 13 14  1  0
 13 33  1  0
 14 15  1  0
 15 16  2  0
 15 32  1  0
 16 17  1  0
 17 18  1  0
 18 19  1  0
 18 32  2  0
 19 20  2  0
 19 21  1  0
 21 22  1  0
 22 23  1  0
 23 24  1  1
 23 25  1  0
 25 26  1  0
 26 27  1  0
 26 31  1  0
 27 28  1  0
 28 29  1  0
 29 30  1  0
 30 31  1  0
 33 34  2  0
 33 35  1  0
 35 36  1  6
 36 37  1  0
 37 38  1  1
 37 39  1  0
 37 40  1  0
M  END
