
     RDKit          3D

 40 43  0  0  0  0  0  0  0  0999 V2000
   11.1950   -0.6500    0.0560 C   0  0  0  0  0  0  0  0  0  0  0  0
   10.3430   -0.4270   -0.8980 C   0  0  0  0  0  0  0  0  0  0  0  0
   11.0520    0.0550   -2.4840 S   0  0  0  0  0  0  0  0  0  0  0  0
    9.6900    0.3210   -3.5800 C   0  0  0  0  0  0  0  0  0  0  0  0
    8.4720    0.1400   -3.1330 C   0  0  0  0  0  0  0  0  0  0  0  0
    8.0930   -0.2660   -1.7980 C   0  0  0  0  0  0  0  0  0  0  0  0
    8.9040   -0.5280   -0.7790 C   0  0  0  0  0  0  0  0  0  0  0  0
    8.3230   -0.9350    0.4930 C   0  0  0  0  0  0  0  0  0  0  0  0
    9.1530   -1.1950    1.4480 O   0  0  0  0  0  0  0  0  0  0  0  0
    6.9250   -1.1020    0.8700 C   0  0  0  0  0  0  0  0  0  0  0  0
    5.9300   -0.7670   -0.0090 O   0  0  0  0  0  0  0  0  0  0  0  0
    4.5820   -0.9100    0.2750 C   0  0  0  0  0  0  0  0  0  0  0  0
    4.1690   -1.4230    1.4910 C   0  0  0  0  0  0  0  0  0  0  0  0
    2.8350   -1.5660    1.7790 C   0  0  0  0  0  0  0  0  0  0  0  0
    1.8250   -1.2090    0.8760 C   0  0  0  0  0  0  0  0  0  0  0  0
    0.4780   -1.4040    1.2470 N   0  0  0  0  0  0  0  0  0  0  0  0
   -0.6670   -0.8400    0.6630 C   0  0  0  0  0  0  0  0  0  0  0  0
   -0.5370   -0.0580   -0.3040 O   0  0  0  0  0  0  0  0  0  0  0  0
   -2.0460   -1.1300    1.1470 C   0  0  2  0  0  0  0  0  0  0  0  0
   -2.3620   -2.6040    1.1280 C   0  0  0  0  0  0  0  0  0  0  0  0
   -3.0170   -0.4050    0.4370 O   0  0  0  0  0  0  0  0  0  0  0  0
   -3.8410    0.5260    1.0560 C   0  0  0  0  0  0  0  0  0  0  0  0
   -3.6480    0.6640    2.2900 O   0  0  0  0  0  0  0  0  0  0  0  0
   -4.8670    1.2970    0.3160 C   0  0  0  0  0  0  0  0  0  0  0  0
   -5.6240    2.1870    0.9070 C   0  0  0  0  0  0  0  0  0  0  0  0
   -5.8040    2.7390    2.2700 C   0  0  0  0  0  0  0  0  0  0  0  0
   -4.8010    2.8090    3.0070 O   0  0  0  0  0  0  0  0  0  0  0  0
   -7.1160    3.1410    2.6140 N   0  0  0  0  0  0  0  0  0  0  0  0
   -8.1690    3.0090    1.6860 C   0  0  0  0  0  0  0  0  0  0  0  0
   -9.3940    3.1870    2.0670 O   0  0  0  0  0  0  0  0  0  0  0  0
   -7.9490    2.6720    0.2780 C   0  0  2  0  0  0  0  0  0  0  0  0
   -8.5900    1.3440   -0.0890 C   0  0  0  0  0  0  0  0  0  0  0  0
   -6.5190    2.7480   -0.1680 C   0  0  2  0  0  0  0  0  0  0  0  0
   -6.1520    2.0490   -1.3280 N   0  0  0  0  0  0  0  0  0  0  0  0
   -5.2130    1.2160   -1.0930 C   0  0  0  0  0  0  0  0  0  0  0  0
   -4.6540    0.3110   -2.1160 C   0  0  0  0  0  0  0  0  0  0  0  0
   -5.0330   -1.1240   -1.9690 C   0  0  0  0  0  0  0  0  0  0  0  0
   -4.4110   -1.8270   -3.0050 O   0  0  0  0  0  0  0  0  0  0  0  0
    2.2600   -0.7010   -0.3270 C   0  0  0  0  0  0  0  0  0  0  0  0
    3.6190   -0.5490   -0.6370 C   0  0  0  0  0  0  0  0  0  0  0  0
  1  2  2  0
  2  3  1  0
  2  7  1  0
  3  4  1  0
  4  5  2  0
  5  6  1  0
  6  7  2  0
  7  8  1  0
  8  9  2  0
  8 10  1  0
 10 11  1  0
 11 12  1  0
 12 13  2  0
 12 40  1  0
 13 14  1  0
 14 15  2  0
 15 16  1  0
 15 39  1  0
 16 17  1  0
 17 18  2  0
 17 19  1  0
 19 20  1  6
 19 21  1  0
 21 22  1  0
 22 23  2  0
 22 24  1  0
 24 25  2  0
 24 35  1  0
 25 26  1  0
 25 33  1  0
 26 27  2  0
 26 28  1  0
 28 29  1  0
 29 30  2  0
 29 31  1  0
 31 32  1  1
 31 33  1  0
 33 34  1  6
 34 35  2  0
 35 36  1  0
 36 37  1  0
 37 38  1  0
 39 40  2  0
M  END
