
     RDKit          3D

 40 42  0  0  0  0  0  0  0  0999 V2000
  -12.4180    0.5020   -1.4560 C   0  0  0  0  0  0  0  0  0  0  0  0
  -11.9300    0.1540   -0.2550 O   0  0  0  0  0  0  0  0  0  0  0  0
  -10.8020   -0.5380   -0.1530 C   0  0  0  0  0  0  0  0  0  0  0  0
   -9.5740    0.1120   -0.7120 C   0  0  2  0  0  0  0  0  0  0  0  0
   -9.5740    0.1700   -2.2140 C   0  0  0  0  0  0  0  0  0  0  0  0
   -8.4140   -0.7830   -0.4000 N   0  0  0  0  0  0  0  0  0  0  0  0
   -7.3210   -0.3060    0.3700 C   0  0  0  0  0  0  0  0  0  0  0  0
   -7.3750    0.8790    0.7670 O   0  0  0  0  0  0  0  0  0  0  0  0
   -6.2150   -1.2180    0.6470 C   0  0  0  0  0  0  0  0  0  0  0  0
   -5.0130   -0.6180    1.3060 C   0  0  1  0  0  0  0  0  0  0  0  0
   -5.2880   -0.0080    2.5150 O   0  0  0  0  0  0  0  0  0  0  0  0
   -4.0960   -1.8420    1.6110 C   0  0  0  0  0  0  0  0  0  0  0  0
   -2.8360   -1.3810    2.2660 C   0  0  0  0  0  0  0  0  0  0  0  0
   -2.2540   -0.3090    1.5050 N   0  0  0  0  0  0  0  0  0  0  0  0
   -0.8910   -0.3690    1.1210 C   0  0  0  0  0  0  0  0  0  0  0  0
   -0.1510   -1.3510    1.4310 O   0  0  0  0  0  0  0  0  0  0  0  0
   -0.3220    0.7510    0.3340 C   0  0  0  0  0  0  0  0  0  0  0  0
    1.1530    0.5580    0.1930 C   0  0  0  0  0  0  0  0  0  0  0  0
    1.8450    0.5160    1.5060 C   0  0  0  0  0  0  0  0  0  0  0  0
    1.2050    0.5760    2.6100 O   0  0  0  0  0  0  0  0  0  0  0  0
    3.2130    0.4110    1.5510 O   0  0  0  0  0  0  0  0  0  0  0  0
    3.9780    0.3600    2.7010 C   0  0  0  0  0  0  0  0  0  0  0  0
    5.4200    0.2750    2.4450 C   0  0  0  0  0  0  0  0  0  0  0  0
    6.1590    0.2000    3.5030 O   0  0  0  0  0  0  0  0  0  0  0  0
    6.0640    0.2700    1.1220 C   0  0  0  0  0  0  0  0  0  0  0  0
    5.5150    0.3340   -0.0430 C   0  0  0  0  0  0  0  0  0  0  0  0
    6.6720    0.2970   -1.4110 S   0  0  0  0  0  0  0  0  0  0  0  0
    8.1050   -0.5180   -0.6070 C   0  0  1  0  0  0  0  0  0  0  0  0
    9.3540   -0.1660   -1.2730 C   0  0  0  0  0  0  0  0  0  0  0  0
    9.4200   -0.0950   -2.6820 C   0  0  0  0  0  0  0  0  0  0  0  0
   10.5700    0.2570   -3.3120 C   0  0  0  0  0  0  0  0  0  0  0  0
   11.7290    0.5630   -2.6310 C   0  0  0  0  0  0  0  0  0  0  0  0
   12.9520    0.9420   -3.3850 C   0  0  0  0  0  0  0  0  0  0  0  0
   11.6810    0.4990   -1.2670 C   0  0  0  0  0  0  0  0  0  0  0  0
   10.4920    0.1340   -0.6090 C   0  0  0  0  0  0  0  0  0  0  0  0
   10.5540    0.0670    0.8890 C   0  0  0  0  0  0  0  0  0  0  0  0
    7.8750    0.1810    1.0400 S   0  0  0  0  0  0  0  0  0  0  0  0
   -3.0500    0.8300    1.1440 C   0  0  0  0  0  0  0  0  0  0  0  0
   -4.2850    0.3020    0.3900 C   0  0  2  0  0  0  0  0  0  0  0  0
   -5.0660    1.3280   -0.0560 O   0  0  0  0  0  0  0  0  0  0  0  0
  1  2  1  0
  2  3  1  0
  3  4  1  0
  4  5  1  6
  4  6  1  0
  6  7  1  0
  7  8  2  0
  7  9  1  0
  9 10  1  0
 10 11  1  1
 10 12  1  0
 10 39  1  0
 12 13  1  0
 13 14  1  0
 14 15  1  0
 14 38  1  0
 15 16  2  0
 15 17  1  0
 17 18  1  0
 18 19  1  0
 19 20  2  0
 19 21  1  0
 21 22  1  0
 22 23  1  0
 23 24  2  0
 23 25  1  0
 25 26  2  0
 25 37  1  0
 26 27  1  0
 27 28  1  0
 28 29  1  6
 28 37  1  0
 29 30  2  0
 29 35  1  0
 30 31  1  0
 31 32  2  0
 32 33  1  0
 32 34  1  0
 34 35  2  0
 35 36  1  0
 38 39  1  0
 39 40  1  1
M  END
