
     RDKit          3D

 40 43  0  0  0  0  0  0  0  0999 V2000
   -5.7960    0.4070   -5.3820 C   0  0  0  0  0  0  0  0  0  0  0  0
   -5.2140    0.6240   -4.0240 C   0  0  0  0  0  0  0  0  0  0  0  0
   -5.4190   -0.5870   -3.1280 C   0  0  1  0  0  0  0  0  0  0  0  0
   -4.7410   -1.7980   -3.7560 C   0  0  0  0  0  0  0  0  0  0  0  0
   -4.8800   -0.4100   -1.8630 O   0  0  0  0  0  0  0  0  0  0  0  0
   -5.5230   -0.4610   -0.6410 C   0  0  0  0  0  0  0  0  0  0  0  0
   -6.8630   -0.7070   -0.5100 C   0  0  0  0  0  0  0  0  0  0  0  0
   -7.5010   -0.7570    0.7290 C   0  0  0  0  0  0  0  0  0  0  0  0
   -6.7900   -0.5560    1.8780 C   0  0  0  0  0  0  0  0  0  0  0  0
   -5.4200   -0.3030    1.7530 C   0  0  0  0  0  0  0  0  0  0  0  0
   -4.7740   -0.2500    0.5410 C   0  0  0  0  0  0  0  0  0  0  0  0
   -3.4060    0.0110    0.3590 N   0  0  0  0  0  0  0  0  0  0  0  0
   -2.5030    0.2060    1.4180 C   0  0  0  0  0  0  0  0  0  0  0  0
   -2.8300    0.1610    2.6070 O   0  0  0  0  0  0  0  0  0  0  0  0
   -1.0520    0.4860    1.1180 C   0  0  0  0  0  0  0  0  0  0  0  0
   -0.2510    0.6310    2.4000 C   0  0  1  0  0  0  0  0  0  0  0  0
   -0.3680   -0.6550    3.1520 C   0  0  0  0  0  0  0  0  0  0  0  0
    1.1110    0.8840    2.1000 O   0  0  0  0  0  0  0  0  0  0  0  0
    1.8040    1.9820    2.5590 C   0  0  0  0  0  0  0  0  0  0  0  0
    1.2120    2.8080    3.2860 O   0  0  0  0  0  0  0  0  0  0  0  0
    3.2000    2.2210    2.2330 C   0  0  0  0  0  0  0  0  0  0  0  0
    4.1060    1.5330    1.4840 C   0  0  0  0  0  0  0  0  0  0  0  0
    5.3640    1.9920    1.3410 C   0  0  0  0  0  0  0  0  0  0  0  0
    6.3280    1.2490    0.5240 N   0  0  0  0  0  0  0  0  0  0  0  0
    7.6570    1.6330    0.4200 C   0  0  0  0  0  0  0  0  0  0  0  0
    8.1050    2.6270    1.0150 O   0  0  0  0  0  0  0  0  0  0  0  0
    8.6240    0.8590   -0.4240 C   0  0  1  0  0  0  0  0  0  0  0  0
    9.8100    0.4900    0.4290 C   0  0  0  0  0  0  0  0  0  0  0  0
    8.0670   -0.3190   -1.0030 N   0  0  0  0  0  0  0  0  0  0  0  0
    7.8980   -0.5470   -2.4220 C   0  0  0  0  0  0  0  0  0  0  0  0
    7.6440   -2.0250   -2.6000 C   0  0  0  0  0  0  0  0  0  0  0  0
    7.0620   -2.4440   -1.2620 C   0  0  0  0  0  0  0  0  0  0  0  0
    7.5900   -1.4480   -0.2900 C   0  0  0  0  0  0  0  0  0  0  0  0
    7.5780   -1.6550    0.9670 O   0  0  0  0  0  0  0  0  0  0  0  0
    5.6900    3.1290    1.9520 C   0  0  0  0  0  0  0  0  0  0  0  0
    4.1490    3.6360    2.8060 S   0  0  0  0  0  0  0  0  0  0  0  0
   -7.4410   -0.6100    3.0930 O   0  0  0  0  0  0  0  0  0  0  0  0
   -8.8370   -0.2770    3.1910 C   0  0  0  0  0  0  0  0  0  0  0  0
   -9.6190   -0.7690    2.0100 C   0  0  0  0  0  0  0  0  0  0  0  0
   -8.8670   -1.0080    0.8600 O   0  0  0  0  0  0  0  0  0  0  0  0
  1  2  1  0
  2  3  1  0
  3  4  1  6
  3  5  1  0
  5  6  1  0
  6  7  2  0
  6 11  1  0
  7  8  1  0
  8  9  2  0
  8 40  1  0
  9 10  1  0
  9 37  1  0
 10 11  2  0
 11 12  1  0
 12 13  1  0
 13 14  2  0
 13 15  1  0
 15 16  1  0
 16 17  1  6
 16 18  1  0
 18 19  1  0
 19 20  2  0
 19 21  1  0
 21 22  2  0
 21 36  1  0
 22 23  1  0
 23 24  1  0
 23 35  2  0
 24 25  1  0
 25 26  2  0
 25 27  1  0
 27 28  1  1
 27 29  1  0
 29 30  1  0
 29 33  1  0
 30 31  1  0
 31 32  1  0
 32 33  1  0
 33 34  2  0
 35 36  1  0
 37 38  1  0
 38 39  1  0
 39 40  1  0
M  END
