
     RDKit          3D

 39 42  0  0  0  0  0  0  0  0999 V2000
    5.2800   -4.1700   -2.1010 C   0  0  0  0  0  0  0  0  0  0  0  0
    3.9220   -3.7850   -2.6460 C   0  0  0  0  0  0  0  0  0  0  0  0
    3.4110   -2.5880   -2.1020 O   0  0  0  0  0  0  0  0  0  0  0  0
    4.0080   -1.3860   -2.0750 C   0  0  0  0  0  0  0  0  0  0  0  0
    5.1790   -1.2950   -2.5720 O   0  0  0  0  0  0  0  0  0  0  0  0
    3.3410   -0.1790   -1.4890 C   0  0  0  0  0  0  0  0  0  0  0  0
    1.9830   -0.2120   -1.3260 C   0  0  0  0  0  0  0  0  0  0  0  0
    1.3420    0.9540   -1.0820 C   0  0  0  0  0  0  0  0  0  0  0  0
   -0.0980    1.2410   -0.8860 C   0  0  0  0  0  0  0  0  0  0  0  0
   -0.4570    2.4570   -0.7040 O   0  0  0  0  0  0  0  0  0  0  0  0
   -0.9980    0.1530   -0.9120 N   0  0  0  0  0  0  0  0  0  0  0  0
   -2.4080    0.4310   -0.7360 C   0  0  1  0  0  0  0  0  0  0  0  0
   -2.9850    0.3700   -2.1320 C   0  0  0  0  0  0  0  0  0  0  0  0
   -4.4880    0.4410   -2.1730 C   0  0  0  0  0  0  0  0  0  0  0  0
   -4.9840   -0.6740   -1.3360 C   0  0  0  0  0  0  0  0  0  0  0  0
   -4.5090   -0.6810    0.0930 C   0  0  2  0  0  0  0  0  0  0  0  0
   -5.3640    0.1710    0.8900 N   0  0  0  0  0  0  0  0  0  0  0  0
   -6.7490    0.1770    0.9570 C   0  0  0  0  0  0  0  0  0  0  0  0
   -7.4280   -0.6080    0.2450 O   0  0  0  0  0  0  0  0  0  0  0  0
   -7.5590    1.0770    1.8330 C   0  0  0  0  0  0  0  0  0  0  0  0
   -8.8530    1.3880    1.1090 C   0  0  1  0  0  0  0  0  0  0  0  0
   -9.6770    0.2250    0.7100 C   0  0  0  0  0  0  0  0  0  0  0  0
  -11.1150    0.7820    0.7350 C   0  0  0  0  0  0  0  0  0  0  0  0
  -10.9450    2.0050    1.5850 C   0  0  0  0  0  0  0  0  0  0  0  0
   -9.6580    2.0390    2.0830 O   0  0  0  0  0  0  0  0  0  0  0  0
   -3.0630   -0.4760    0.2570 C   0  0  0  0  0  0  0  0  0  0  0  0
    2.6630    2.1530   -1.0710 S   0  0  0  0  0  0  0  0  0  0  0  0
    3.9780    0.9720   -1.3920 C   0  0  0  0  0  0  0  0  0  0  0  0
    5.3420    1.4150   -1.2240 N   0  0  0  0  0  0  0  0  0  0  0  0
    6.3120    0.6310   -0.6290 C   0  0  0  0  0  0  0  0  0  0  0  0
    6.0730   -0.5030   -0.1660 O   0  0  0  0  0  0  0  0  0  0  0  0
    7.7320    1.1860   -0.5340 C   0  0  0  0  0  0  0  0  0  0  0  0
    8.1060    1.1910    0.9240 C   0  0  0  0  0  0  0  0  0  0  0  0
    7.8440    2.2810    1.7520 C   0  0  0  0  0  0  0  0  0  0  0  0
    8.3200    1.9170    2.9990 C   0  0  0  0  0  0  0  0  0  0  0  0
    8.8420    0.6510    2.8870 C   0  0  0  0  0  0  0  0  0  0  0  0
    9.4660   -0.1300    3.9990 C   0  0  0  0  0  0  0  0  0  0  0  0
    9.9660   -1.4630    3.5730 C   0  0  0  0  0  0  0  0  0  0  0  0
    8.6870    0.2690    1.6280 O   0  0  0  0  0  0  0  0  0  0  0  0
  1  2  1  0
  2  3  1  0
  3  4  1  0
  4  5  2  0
  4  6  1  0
  6  7  1  0
  6 28  2  0
  7  8  2  0
  8  9  1  0
  8 27  1  0
  9 10  2  0
  9 11  1  0
 12 11  1  6
 12 13  1  0
 12 26  1  0
 13 14  1  0
 14 15  1  0
 15 16  1  0
 16 17  1  1
 16 26  1  0
 17 18  1  0
 18 19  2  0
 18 20  1  0
 21 20  1  1
 21 22  1  0
 21 25  1  0
 22 23  1  0
 23 24  1  0
 24 25  1  0
 27 28  1  0
 28 29  1  0
 29 30  1  0
 30 31  2  0
 30 32  1  0
 32 33  1  0
 33 34  2  0
 33 39  1  0
 34 35  1  0
 35 36  2  0
 36 37  1  0
 36 39  1  0
 37 38  1  0
M  END
