
     RDKit          3D

 40 43  0  0  0  0  0  0  0  0999 V2000
    9.9870    0.8630   -4.0370 C   0  0  0  0  0  0  0  0  0  0  0  0
    9.0800    0.5130   -3.0080 O   0  0  0  0  0  0  0  0  0  0  0  0
    8.9450   -0.7570   -2.5130 C   0  0  0  0  0  0  0  0  0  0  0  0
    9.6180   -1.6860   -2.9460 O   0  0  0  0  0  0  0  0  0  0  0  0
    7.9750   -1.0680   -1.4280 C   0  0  0  0  0  0  0  0  0  0  0  0
    7.7050   -2.2190   -0.8270 C   0  0  0  0  0  0  0  0  0  0  0  0
    6.7810   -2.2820    0.1430 C   0  0  0  0  0  0  0  0  0  0  0  0
    6.1480   -1.1100    0.4670 C   0  0  0  0  0  0  0  0  0  0  0  0
    5.0990   -0.8350    1.4670 C   0  0  0  0  0  0  0  0  0  0  0  0
    4.6880    0.5910    1.5280 C   0  0  2  0  0  0  0  0  0  0  0  0
    5.7420    1.5780    1.8750 C   0  0  0  0  0  0  0  0  0  0  0  0
    6.2660    1.2800    3.1340 O   0  0  0  0  0  0  0  0  0  0  0  0
    3.5310    0.8140    2.4780 C   0  0  0  0  0  0  0  0  0  0  0  0
    2.3580    0.0590    2.0860 N   0  0  0  0  0  0  0  0  0  0  0  0
    1.2020    0.1790    2.8970 C   0  0  0  0  0  0  0  0  0  0  0  0
    1.2330    0.9240    3.9160 O   0  0  0  0  0  0  0  0  0  0  0  0
   -0.0190   -0.5860    2.5130 C   0  0  1  0  0  0  0  0  0  0  0  0
   -1.0620   -0.3120    3.5460 C   0  0  0  0  0  0  0  0  0  0  0  0
   -1.6670    0.9450    3.0200 C   0  0  0  0  0  0  0  0  0  0  0  0
   -2.0770    1.8830    3.7500 O   0  0  0  0  0  0  0  0  0  0  0  0
   -1.6630    0.8220    1.5900 N   0  0  0  0  0  0  0  0  0  0  0  0
   -2.6900    1.4570    0.7820 C   0  0  2  0  0  0  0  0  0  0  0  0
   -3.5140    0.3730    0.1630 C   0  0  0  0  0  0  0  0  0  0  0  0
   -2.9940   -0.7580    0.0370 O   0  0  0  0  0  0  0  0  0  0  0  0
   -4.8360    0.5750   -0.2740 N   0  0  0  0  0  0  0  0  0  0  0  0
   -5.6900   -0.3820   -0.8780 C   0  0  0  0  0  0  0  0  0  0  0  0
   -5.3440   -1.6220   -1.3250 C   0  0  0  0  0  0  0  0  0  0  0  0
   -6.2180   -2.5190   -1.8910 C   0  0  0  0  0  0  0  0  0  0  0  0
   -7.5280   -2.1690   -2.0270 C   0  0  0  0  0  0  0  0  0  0  0  0
   -7.9440   -0.9130   -1.5890 C   0  0  0  0  0  0  0  0  0  0  0  0
   -7.0440   -0.0440   -1.0290 C   0  0  0  0  0  0  0  0  0  0  0  0
   -9.2900   -0.6370   -1.7630 O   0  0  0  0  0  0  0  0  0  0  0  0
  -10.2270   -1.6910   -1.6180 C   0  0  0  0  0  0  0  0  0  0  0  0
   -9.8270   -2.9180   -2.3800 C   0  0  0  0  0  0  0  0  0  0  0  0
   -8.4390   -3.0350   -2.5880 O   0  0  0  0  0  0  0  0  0  0  0  0
   -2.1150    2.4180   -0.2140 C   0  0  2  0  0  0  0  0  0  0  0  0
   -3.2590    3.0450   -0.9870 C   0  0  0  0  0  0  0  0  0  0  0  0
   -1.0870    1.8340   -1.1450 C   0  0  0  0  0  0  0  0  0  0  0  0
   -0.5210    0.0170    1.2040 C   0  0  0  0  0  0  0  0  0  0  0  0
    6.9150    0.0870   -0.6590 S   0  0  0  0  0  0  0  0  0  0  0  0
  1  2  1  0
  2  3  1  0
  3  4  2  0
  3  5  1  0
  5  6  2  0
  5 40  1  0
  6  7  1  0
  7  8  2  0
  8  9  1  0
  8 40  1  0
 10  9  1  1
 10 11  1  0
 10 13  1  0
 11 12  1  0
 13 14  1  0
 14 15  1  0
 15 16  2  0
 17 15  1  1
 17 18  1  0
 17 39  1  0
 18 19  1  0
 19 20  2  0
 19 21  1  0
 22 21  1  6
 21 39  1  0
 22 23  1  0
 22 36  1  0
 23 24  2  0
 23 25  1  0
 25 26  1  0
 26 27  2  0
 26 31  1  0
 27 28  1  0
 28 29  2  0
 29 30  1  0
 29 35  1  0
 30 31  2  0
 30 32  1  0
 32 33  1  0
 33 34  1  0
 34 35  1  0
 36 37  1  6
 36 38  1  0
M  END
