
     RDKit          3D

 22 23  0  0  0  0  0  0  0  0999 V2000
    4.4120    1.1910   -0.6520 C   0  0  0  0  0  0  0  0  0  0  0  0
    3.9960    0.2420    0.1950 C   0  0  0  0  0  0  0  0  0  0  0  0
    4.4900    0.3640    1.6100 C   0  0  0  0  0  0  0  0  0  0  0  0
    3.1690   -0.8700   -0.2670 C   0  0  0  0  0  0  0  0  0  0  0  0
    1.7870   -1.0700    0.2320 C   0  0  0  0  0  0  0  0  0  0  0  0
    0.8100    0.0180   -0.1330 C   0  0  2  0  0  0  0  0  0  0  0  0
    1.2570    1.2720    0.5320 C   0  0  0  0  0  0  0  0  0  0  0  0
   -0.0420    1.9120    1.0350 C   0  0  0  0  0  0  0  0  0  0  0  0
   -0.8790    0.7330    1.3300 C   0  0  0  0  0  0  0  0  0  0  0  0
   -0.6080   -0.2250    0.1920 C   0  0  1  0  0  0  0  0  0  0  0  0
   -1.4810    0.0750   -1.0010 C   0  0  0  0  0  0  0  0  0  0  0  0
   -1.5180    1.4140   -1.5690 C   0  0  0  0  0  0  0  0  0  0  0  0
   -0.4660    1.9810   -2.4310 C   0  0  0  0  0  0  0  0  0  0  0  0
   -2.5930    2.1950   -1.3950 C   0  0  0  0  0  0  0  0  0  0  0  0
   -2.5980    3.5420   -1.9810 C   0  0  0  0  0  0  0  0  0  0  0  0
   -3.6900    1.7340   -0.6660 O   0  0  0  0  0  0  0  0  0  0  0  0
   -0.8900   -1.6460    0.6670 C   0  0  1  0  0  0  0  0  0  0  0  0
   -0.0960   -1.9930    1.7370 O   0  0  0  0  0  0  0  0  0  0  0  0
   -2.3150   -1.6860    1.3120 C   0  0  0  0  0  0  0  0  0  0  0  0
   -2.3070   -3.1490    1.7220 C   0  0  0  0  0  0  0  0  0  0  0  0
   -1.7510   -3.8170    0.4850 C   0  0  0  0  0  0  0  0  0  0  0  0
   -1.1380   -2.6670   -0.3540 C   0  0  0  0  0  0  0  0  0  0  0  0
  1  2  2  0
  2  3  1  0
  2  4  1  0
  4  5  1  0
  6  5  1  1
  6  7  1  0
  6 10  1  0
  7  8  1  0
  8  9  1  0
  9 10  1  0
 10 11  1  6
 10 17  1  0
 11 12  1  0
 12 13  1  0
 12 14  2  3
 14 15  1  0
 14 16  1  0
 17 18  1  1
 17 19  1  0
 17 22  1  0
 19 20  1  0
 20 21  1  0
 21 22  1  0
M  END
