
     RDKit          3D

 22 22  0  0  0  0  0  0  0  0999 V2000
    7.3300    1.7570    0.8960 C   0  0  0  0  0  0  0  0  0  0  0  0
    6.6410    1.4890   -0.3680 C   0  0  0  0  0  0  0  0  0  0  0  0
    5.3360    1.1560   -0.3710 C   0  0  0  0  0  0  0  0  0  0  0  0
    4.6940    0.9000   -1.6370 C   0  0  0  0  0  0  0  0  0  0  0  0
    3.4650    0.5660   -1.7870 C   0  0  0  0  0  0  0  0  0  0  0  0
    2.3890    0.3380   -0.8510 C   0  0  0  0  0  0  0  0  0  0  0  0
    1.1750    0.0360   -1.2870 C   0  0  0  0  0  0  0  0  0  0  0  0
   -0.0090   -0.2140   -0.5210 C   0  0  0  0  0  0  0  0  0  0  0  0
   -0.1110   -0.0680    0.9410 C   0  0  0  0  0  0  0  0  0  0  0  0
   -1.1450   -0.5190   -1.1760 C   0  0  0  0  0  0  0  0  0  0  0  0
   -2.4000   -0.7960   -0.5540 C   0  0  0  0  0  0  0  0  0  0  0  0
   -3.4890    0.0490   -0.8030 C   0  0  0  0  0  0  0  0  0  0  0  0
   -4.7050   -0.2180   -0.2550 C   0  0  0  0  0  0  0  0  0  0  0  0
   -5.9020    0.6500   -0.4880 C   0  0  2  0  0  0  0  0  0  0  0  0
   -5.5480    1.9950   -1.0350 C   0  0  0  0  0  0  0  0  0  0  0  0
   -6.5340    0.8410    0.7550 O   0  0  0  0  0  0  0  0  0  0  0  0
   -4.8880   -1.3170    0.5500 C   0  0  0  0  0  0  0  0  0  0  0  0
   -3.8330   -2.1450    0.7970 C   0  0  0  0  0  0  0  0  0  0  0  0
   -2.5850   -1.8960    0.2500 C   0  0  0  0  0  0  0  0  0  0  0  0
   -1.5120   -2.8870    0.5390 C   0  0  0  0  0  0  0  0  0  0  0  0
    2.5720    0.4110    0.5130 O   0  0  0  0  0  0  0  0  0  0  0  0
    3.0020   -0.8220    1.1240 C   0  0  0  0  0  0  0  0  0  0  0  0
  1  2  1  0
  2  3  2  3
  3  4  1  0
  4  5  2  3
  5  6  1  0
  6  7  2  3
  6 21  1  0
  7  8  1  0
  8  9  1  0
  8 10  2  3
 10 11  1  0
 11 12  2  0
 11 19  1  0
 12 13  1  0
 13 14  1  0
 13 17  2  0
 14 15  1  1
 14 16  1  0
 17 18  1  0
 18 19  2  0
 19 20  1  0
 21 22  1  0
M  END
