
     RDKit          3D

 22 23  0  0  0  0  0  0  0  0999 V2000
    1.1670   -2.4210    1.5960 C   0  0  0  0  0  0  0  0  0  0  0  0
    0.6160   -2.9930    0.5910 C   0  0  0  0  0  0  0  0  0  0  0  0
   -0.5970   -2.6960   -0.0880 C   0  0  0  0  0  0  0  0  0  0  0  0
   -1.0200   -3.5550   -1.0180 C   0  0  0  0  0  0  0  0  0  0  0  0
   -2.2110   -3.4980   -1.8280 C   0  0  0  0  0  0  0  0  0  0  0  0
   -3.2750   -2.6760   -1.6940 C   0  0  0  0  0  0  0  0  0  0  0  0
   -3.5290   -1.6100   -0.7080 C   0  0  0  0  0  0  0  0  0  0  0  0
   -2.6420   -1.0820    0.0840 C   0  0  0  0  0  0  0  0  0  0  0  0
   -2.7850    0.0040    1.1000 C   0  0  0  0  0  0  0  0  0  0  0  0
   -1.5670    0.8170    0.5930 C   0  0  2  0  0  0  0  0  0  0  0  0
   -1.8610    1.6860   -0.5510 C   0  0  0  0  0  0  0  0  0  0  0  0
   -2.9170    2.7120   -0.2420 C   0  0  0  0  0  0  0  0  0  0  0  0
   -3.1230    3.5600   -1.5010 C   0  0  0  0  0  0  0  0  0  0  0  0
   -0.5450   -0.2380    0.2950 C   0  0  0  0  0  0  0  0  0  0  0  0
    0.9010   -0.0260    0.0360 C   0  0  0  0  0  0  0  0  0  0  0  0
    1.6150    0.8000    1.0300 C   0  0  0  0  0  0  0  0  0  0  0  0
    3.0620    0.9020    0.6170 C   0  0  0  0  0  0  0  0  0  0  0  0
    3.4680    0.3300   -0.4260 O   0  0  0  0  0  0  0  0  0  0  0  0
    3.9610    1.6190    1.3720 O   0  0  0  0  0  0  0  0  0  0  0  0
    5.3220    1.6920    0.9490 C   0  0  0  0  0  0  0  0  0  0  0  0
    5.9620    0.3280    0.8730 C   0  0  0  0  0  0  0  0  0  0  0  0
   -1.1700   -1.3970    0.1730 C   0  0  0  0  0  0  0  0  0  0  0  0
  1  2  2  0
  2  3  1  0
  3  4  2  0
  3 22  1  0
  4  5  1  0
  5  6  2  0
  6  7  1  0
  7  8  2  0
  8  9  1  0
  8 22  1  0
  9 10  1  0
 10 11  1  6
 10 14  1  0
 11 12  1  0
 12 13  1  0
 14 15  1  0
 14 22  2  0
 15 16  1  0
 16 17  1  0
 17 18  2  0
 17 19  1  0
 19 20  1  0
 20 21  1  0
M  END
