
     RDKit          3D

 22 23  0  0  0  0  0  0  0  0999 V2000
   -6.1430   -0.8760   -1.5390 N   0  0  0  0  0  0  0  0  0  0  0  0
   -5.1970   -0.7940   -0.4740 C   0  0  0  0  0  0  0  0  0  0  0  0
   -4.0270   -0.0030   -0.9630 C   0  0  0  0  0  0  0  0  0  0  0  0
   -3.8440    0.5560   -2.1740 N   0  0  0  0  0  0  0  0  0  0  0  0
   -2.6600    1.1790   -2.2050 N   0  0  0  0  0  0  0  0  0  0  0  0
   -2.1090    1.0090   -1.0170 N   0  0  0  0  0  0  0  0  0  0  0  0
   -2.9160    0.2890   -0.2240 C   0  0  0  0  0  0  0  0  0  0  0  0
   -2.6640   -0.1220    1.1900 C   0  0  0  0  0  0  0  0  0  0  0  0
   -1.3840    0.3650    1.6450 N   0  0  0  0  0  0  0  0  0  0  0  0
   -0.1590   -0.0090    1.0000 C   0  0  0  0  0  0  0  0  0  0  0  0
   -0.2360   -0.7750    0.0270 O   0  0  0  0  0  0  0  0  0  0  0  0
    1.0750    0.4710    1.4530 N   0  0  0  0  0  0  0  0  0  0  0  0
    2.3390    0.1840    0.9070 C   0  0  0  0  0  0  0  0  0  0  0  0
    2.5740   -0.5300   -0.2340 C   0  0  0  0  0  0  0  0  0  0  0  0
    3.8710   -0.7880   -0.7200 C   0  0  0  0  0  0  0  0  0  0  0  0
    4.9700   -0.3200   -0.0480 C   0  0  0  0  0  0  0  0  0  0  0  0
    6.5830   -0.6330   -0.6370 S   0  0  2  0  0  0  0  0  0  0  0  0
    6.5550   -0.7980   -2.1330 O   0  0  0  0  0  0  0  0  0  0  0  0
    7.1520   -1.8760    0.0210 O   0  0  0  0  0  0  0  0  0  0  0  0
    4.7660    0.4040    1.1080 C   0  0  0  0  0  0  0  0  0  0  0  0
    6.1590    1.0080    1.9770 Cl  0  0  0  0  0  0  0  0  0  0  0  0
    3.4930    0.6450    1.5650 C   0  0  0  0  0  0  0  0  0  0  0  0
  1  2  1  0
  2  3  1  0
  3  4  1  0
  3  7  2  0
  4  5  1  0
  5  6  2  0
  6  7  1  0
  7  8  1  0
  8  9  1  0
  9 10  1  0
 10 11  2  0
 10 12  1  0
 12 13  1  0
 13 14  2  0
 13 22  1  0
 14 15  1  0
 15 16  2  0
 17 16  1  1
 16 20  1  0
 17 18  2  0
 17 19  2  0
 20 21  1  0
 20 22  2  0
M  END
