
     RDKit          3D

 22 23  0  0  0  0  0  0  0  0999 V2000
   -1.4650    4.4230    2.0810 C   0  0  0  0  0  0  0  0  0  0  0  0
   -1.6720    3.6980    0.9940 C   0  0  0  0  0  0  0  0  0  0  0  0
   -1.4530    4.1390   -0.4150 C   0  0  0  0  0  0  0  0  0  0  0  0
   -0.7690    2.8710   -0.9730 C   0  0  0  0  0  0  0  0  0  0  0  0
   -1.6680    1.8120   -0.4960 C   0  0  1  0  0  0  0  0  0  0  0  0
   -1.1450    0.4460   -0.2770 C   0  0  2  0  0  0  0  0  0  0  0  0
   -0.5590   -0.2840   -1.4080 C   0  0  0  0  0  0  0  0  0  0  0  0
    0.6330    0.2700   -2.0820 C   0  0  0  0  0  0  0  0  0  0  0  0
    1.8460    0.4030   -1.1880 C   0  0  0  0  0  0  0  0  0  0  0  0
    2.2190   -0.8520   -0.6950 O   0  0  0  0  0  0  0  0  0  0  0  0
    3.3150   -0.8030    0.1250 C   0  0  1  0  0  0  0  0  0  0  0  0
    3.6120   -2.2150    0.5880 C   0  0  0  0  0  0  0  0  0  0  0  0
    4.5610   -0.3050   -0.5830 C   0  0  0  0  0  0  0  0  0  0  0  0
    3.0900    0.0290    1.3740 C   0  0  0  0  0  0  0  0  0  0  0  0
   -2.2280   -0.3090    0.2680 O   0  0  0  0  0  0  0  0  0  0  0  0
   -2.1550   -1.6250    0.6120 C   0  0  0  0  0  0  0  0  0  0  0  0
   -1.6630   -2.0620    1.7500 C   0  0  0  0  0  0  0  0  0  0  0  0
   -1.7330   -3.5190    1.8010 C   0  0  0  0  0  0  0  0  0  0  0  0
   -2.3480   -3.8680    0.5040 C   0  0  0  0  0  0  0  0  0  0  0  0
   -2.5820   -2.7630   -0.1630 C   0  0  0  0  0  0  0  0  0  0  0  0
   -3.2080   -2.7760   -1.5290 C   0  0  0  0  0  0  0  0  0  0  0  0
   -2.1630    2.2960    0.8800 C   0  0  0  0  0  0  0  0  0  0  0  0
  1  2  2  0
  2  3  1  0
  2 22  1  0
  3  4  1  0
  5  4  1  1
  5  6  1  0
  5 22  1  0
  6  7  1  6
  6 15  1  0
  7  8  1  0
  8  9  1  0
  9 10  1  0
 10 11  1  0
 11 12  1  1
 11 13  1  0
 11 14  1  0
 15 16  1  0
 16 17  2  0
 16 20  1  0
 17 18  1  0
 18 19  1  0
 19 20  2  0
 20 21  1  0
M  END
