
     RDKit          3D

 22 22  0  0  0  0  0  0  0  0999 V2000
    3.1580   -1.3350    1.9420 C   0  0  0  0  0  0  0  0  0  0  0  0
    4.2330   -0.8160    1.3190 C   0  0  0  0  0  0  0  0  0  0  0  0
    5.4540   -0.6590    2.1240 C   0  0  0  0  0  0  0  0  0  0  0  0
    4.0860   -0.4650   -0.0740 C   0  0  0  0  0  0  0  0  0  0  0  0
    2.9160   -0.6560   -0.7110 O   0  0  0  0  0  0  0  0  0  0  0  0
    1.6480   -0.8520   -0.8700 C   0  0  0  0  0  0  0  0  0  0  0  0
    0.7110    0.2380   -0.2720 C   0  0  0  0  0  0  0  0  0  0  0  0
   -0.7020   -0.2080   -0.5740 C   0  0  0  0  0  0  0  0  0  0  0  0
   -1.6640    0.7940   -0.0510 C   0  0  2  0  0  0  0  0  0  0  0  0
   -1.3430    2.0060   -0.7180 O   0  0  0  0  0  0  0  0  0  0  0  0
   -1.4270    1.1040    1.4050 C   0  0  0  0  0  0  0  0  0  0  0  0
   -1.7770   -0.1000    2.2400 C   0  0  0  0  0  0  0  0  0  0  0  0
   -3.2720   -0.2770    2.1080 C   0  0  0  0  0  0  0  0  0  0  0  0
   -3.8760    0.5610    1.0120 C   0  0  0  0  0  0  0  0  0  0  0  0
   -3.1230    0.4260   -0.3100 C   0  0  2  0  0  0  0  0  0  0  0  0
   -3.1740   -1.0080   -0.7270 C   0  0  0  0  0  0  0  0  0  0  0  0
   -4.5080   -1.5700   -1.0340 C   0  0  0  0  0  0  0  0  0  0  0  0
   -3.6450    1.3920   -1.3020 C   0  0  0  0  0  0  0  0  0  0  0  0
   -5.0470    1.2810   -1.7390 C   0  0  0  0  0  0  0  0  0  0  0  0
    5.0950    0.0580   -0.7780 C   0  0  0  0  0  0  0  0  0  0  0  0
    6.4210    0.3550   -0.3360 C   0  0  0  0  0  0  0  0  0  0  0  0
    4.7360    0.3580   -2.2410 C   0  0  0  0  0  0  0  0  0  0  0  0
  1  2  2  0
  2  3  1  0
  2  4  1  0
  4  5  1  0
  4 20  2  3
  5  6  1  0
  6  7  1  0
  7  8  1  0
  8  9  1  0
  9 10  1  6
  9 11  1  0
  9 15  1  0
 11 12  1  0
 12 13  1  0
 13 14  1  0
 14 15  1  0
 15 16  1  6
 15 18  1  0
 16 17  1  0
 18 19  1  0
 20 21  1  0
 20 22  1  0
M  END
