
     RDKit          3D

 22 23  0  0  0  0  0  0  0  0999 V2000
    3.1460    0.0880    2.9390 C   0  0  0  0  0  0  0  0  0  0  0  0
    3.7980   -0.6540    2.1050 C   0  0  0  0  0  0  0  0  0  0  0  0
    3.5980   -0.8080    0.6810 C   0  0  0  0  0  0  0  0  0  0  0  0
    4.4440   -1.6330    0.0440 C   0  0  0  0  0  0  0  0  0  0  0  0
    4.3080   -1.8430   -1.3920 C   0  0  0  0  0  0  0  0  0  0  0  0
    2.5640   -0.1220   -0.1330 C   0  0  0  0  0  0  0  0  0  0  0  0
    1.1740   -0.5400    0.2510 C   0  0  0  0  0  0  0  0  0  0  0  0
    0.1410    0.1860   -0.6320 C   0  0  2  0  0  0  0  0  0  0  0  0
    0.4600   -0.2190   -1.9490 O   0  0  0  0  0  0  0  0  0  0  0  0
    0.4620    1.6140   -0.4900 C   0  0  0  0  0  0  0  0  0  0  0  0
   -0.5370    2.6520   -0.7710 C   0  0  0  0  0  0  0  0  0  0  0  0
   -1.1220    3.3350    0.4630 C   0  0  0  0  0  0  0  0  0  0  0  0
   -2.5850    2.9940    0.6490 C   0  0  0  0  0  0  0  0  0  0  0  0
   -2.9040    1.5610    0.2270 C   0  0  0  0  0  0  0  0  0  0  0  0
   -1.8740    0.6100    0.7030 C   0  0  0  0  0  0  0  0  0  0  0  0
   -1.2430   -0.2690   -0.2890 C   0  0  2  0  0  0  0  0  0  0  0  0
   -1.1100   -1.6600    0.3470 C   0  0  0  0  0  0  0  0  0  0  0  0
   -2.4290   -2.3050    0.6620 C   0  0  0  0  0  0  0  0  0  0  0  0
   -3.0800   -2.6500   -0.6860 C   0  0  0  0  0  0  0  0  0  0  0  0
   -3.1990   -1.3580   -1.3910 C   0  0  0  0  0  0  0  0  0  0  0  0
   -4.2670   -0.9960   -1.8090 O   0  0  0  0  0  0  0  0  0  0  0  0
   -1.9840   -0.5390   -1.5640 C   0  0  0  0  0  0  0  0  0  0  0  0
  1  2  2  0
  2  3  1  0
  3  4  2  3
  3  6  1  0
  4  5  1  0
  6  7  1  0
  7  8  1  0
  8  9  1  6
  8 10  1  0
  8 16  1  0
 10 11  1  0
 11 12  1  0
 12 13  1  0
 13 14  1  0
 14 15  1  0
 16 15  1  1
 16 17  1  0
 16 22  1  0
 17 18  1  0
 18 19  1  0
 19 20  1  0
 20 21  2  0
 20 22  1  0
M  END
