
     RDKit          3D

 23 23  0  0  0  0  0  0  0  0999 V2000
    0.1490    4.8830   -1.2830 C   0  0  0  0  0  0  0  0  0  0  0  0
    0.2670    3.4070   -1.4260 C   0  0  0  0  0  0  0  0  0  0  0  0
    0.6940    2.8870   -2.4910 O   0  0  0  0  0  0  0  0  0  0  0  0
   -0.0920    2.5220   -0.3760 N   0  0  0  0  0  0  0  0  0  0  0  0
    0.0200    1.0540   -0.5050 C   0  0  2  0  0  0  0  0  0  0  0  0
   -1.3930    0.5380   -0.3140 C   0  0  1  0  0  0  0  0  0  0  0  0
   -1.6610   -0.6150   -1.1140 N   0  0  0  0  0  0  0  0  0  0  0  0
   -2.0280   -1.7400   -0.6680 C   0  0  0  0  0  0  0  0  0  0  0  0
   -2.2400   -2.0690    0.6910 N   0  0  0  0  0  0  0  0  0  0  0  0
   -2.2620   -2.8170   -1.6150 N   0  0  0  0  0  0  0  0  0  0  0  0
   -1.7420    0.3580    1.0830 C   0  0  0  0  0  0  0  0  0  0  0  0
   -0.8790    0.5110    2.0970 C   0  0  0  0  0  0  0  0  0  0  0  0
   -1.3400    0.3030    3.4800 C   0  0  0  0  0  0  0  0  0  0  0  0
   -0.5110    0.4530    4.4050 O   0  0  0  0  0  0  0  0  0  0  0  0
   -2.6350   -0.0450    3.7400 O   0  0  0  0  0  0  0  0  0  0  0  0
    0.4190    0.8630    1.8160 O   0  0  0  0  0  0  0  0  0  0  0  0
    0.9730    0.6340    0.5520 C   0  0  1  0  0  0  0  0  0  0  0  0
    1.4850   -0.7620    0.5100 C   0  0  2  0  0  0  0  0  0  0  0  0
    2.4420   -0.8260    1.5760 O   0  0  0  0  0  0  0  0  0  0  0  0
    2.2160   -1.1550   -0.7390 C   0  0  2  0  0  0  0  0  0  0  0  0
    1.3380   -1.1440   -1.8060 O   0  0  0  0  0  0  0  0  0  0  0  0
    2.7440   -2.5860   -0.6270 C   0  0  0  0  0  0  0  0  0  0  0  0
    3.3980   -2.9640   -1.7950 O   0  0  0  0  0  0  0  0  0  0  0  0
  1  2  1  0
  2  3  2  0
  2  4  1  0
  5  4  1  1
  5  6  1  0
  5 17  1  0
  6  7  1  6
  6 11  1  0
  7  8  2  3
  8  9  1  0
  8 10  1  0
 11 12  2  0
 12 13  1  0
 12 16  1  0
 13 14  2  0
 13 15  1  0
 17 16  1  1
 17 18  1  0
 18 19  1  1
 18 20  1  0
 20 21  1  6
 20 22  1  0
 22 23  1  0
M  CHG  1   7   1
M  END
