
     RDKit          3D

 19 19  0  0  0  0  0  0  0  0999 V2000
   -3.6390   -1.5040   -0.3390 C   0  0  0  0  0  0  0  0  0  0  0  0
   -2.9120   -0.3430   -0.8900 C   0  0  1  0  0  0  0  0  0  0  0  0
   -3.9210    0.5230   -1.6660 C   0  0  0  0  0  0  0  0  0  0  0  0
   -2.2160    0.5780    0.0360 C   0  0  2  0  0  0  0  0  0  0  0  0
   -3.1380    1.1980    1.0530 C   0  0  0  0  0  0  0  0  0  0  0  0
   -1.9280    1.7080   -0.8280 O   0  0  0  0  0  0  0  0  0  0  0  0
   -0.8740    0.1900    0.5760 C   0  0  1  0  0  0  0  0  0  0  0  0
   -0.4820    1.4110    1.4800 C   0  0  0  0  0  0  0  0  0  0  0  0
   -0.8670   -0.9220    1.5680 C   0  0  0  0  0  0  0  0  0  0  0  0
   -1.3480   -2.1320    1.2040 O   0  0  0  0  0  0  0  0  0  0  0  0
    0.1640    0.1740   -0.4870 C   0  0  0  0  0  0  0  0  0  0  0  0
    1.4900   -0.1440   -0.2020 N   0  0  0  0  0  0  0  0  0  0  0  0
    1.9050   -1.4270    0.1320 C   0  0  0  0  0  0  0  0  0  0  0  0
    2.7850   -2.0600   -0.9290 C   0  0  0  0  0  0  0  0  0  0  0  0
    3.9590   -1.4700   -1.1910 O   0  0  0  0  0  0  0  0  0  0  0  0
    4.4410   -0.5250   -0.3350 C   0  0  0  0  0  0  0  0  0  0  0  0
    3.7880    0.8200   -0.4840 C   0  0  1  0  0  0  0  0  0  0  0  0
    4.0220    1.2430   -1.8560 N   0  0  0  0  0  0  0  0  0  0  0  0
    2.3950    0.9360   -0.0570 C   0  0  0  0  0  0  0  0  0  0  0  0
  2  1  1  1
  2  3  1  0
  2  4  1  0
  4  5  1  1
  4  6  1  0
  4  7  1  0
  7  8  1  1
  7  9  1  0
  7 11  1  0
  9 10  1  0
 11 12  1  0
 12 13  1  0
 12 19  1  0
 13 14  1  0
 14 15  1  0
 15 16  1  0
 16 17  1  0
 17 18  1  6
 17 19  1  0
M  CHG  1  18   1
M  END
