
     RDKit          3D

 20 20  0  0  0  0  0  0  0  0999 V2000
    4.3030    0.8000   -2.7180 C   0  0  0  0  0  0  0  0  0  0  0  0
    3.6360    0.7640   -1.4480 O   0  0  0  0  0  0  0  0  0  0  0  0
    3.9010   -0.1880   -0.4970 C   0  0  0  0  0  0  0  0  0  0  0  0
    4.7730   -1.0600   -0.7730 O   0  0  0  0  0  0  0  0  0  0  0  0
    3.2390   -0.2640    0.8250 C   0  0  2  0  0  0  0  0  0  0  0  0
    3.7550   -1.3560    1.6250 N   0  0  0  0  0  0  0  0  0  0  0  0
    1.7720   -0.0770    0.8300 C   0  0  0  0  0  0  0  0  0  0  0  0
    0.8830   -0.9830    0.0780 C   0  0  2  0  0  0  0  0  0  0  0  0
    1.1260   -2.4010    0.6540 C   0  0  0  0  0  0  0  0  0  0  0  0
    1.1990   -1.1280   -1.3910 C   0  0  0  0  0  0  0  0  0  0  0  0
   -0.3960   -0.7370    0.3650 O   0  0  0  0  0  0  0  0  0  0  0  0
   -1.1170    0.3410    0.2040 C   0  0  1  0  0  0  0  0  0  0  0  0
   -0.7940    1.6230    0.8560 C   0  0  0  0  0  0  0  0  0  0  0  0
   -1.4910    0.6450   -1.2650 C   0  0  0  0  0  0  0  0  0  0  0  0
   -2.8410    1.3260   -1.1750 C   0  0  0  0  0  0  0  0  0  0  0  0
   -3.5160    0.8050    0.0430 C   0  0  1  0  0  0  0  0  0  0  0  0
   -4.1010    1.8410    0.8780 N   0  0  0  0  0  0  0  0  0  0  0  0
   -4.7220   -0.0250   -0.4340 C   0  0  0  0  0  0  0  0  0  0  0  0
   -5.3560   -0.5390    0.7150 O   0  0  0  0  0  0  0  0  0  0  0  0
   -2.5200   -0.0450    0.7170 C   0  0  0  0  0  0  0  0  0  0  0  0
  1  2  1  0
  2  3  1  0
  3  4  2  0
  3  5  1  0
  5  6  1  6
  5  7  1  0
  7  8  1  0
  8  9  1  1
  8 10  1  0
  8 11  1  0
 11 12  1  0
 12 13  1  1
 12 14  1  0
 12 20  1  0
 14 15  1  0
 15 16  1  0
 16 17  1  1
 16 18  1  0
 16 20  1  0
 18 19  1  0
M  CHG  1   6   1
M  END
