
     RDKit          3D

 20 20  0  0  0  0  0  0  0  0999 V2000
    3.4390    0.7630   -1.8870 C   0  0  0  0  0  0  0  0  0  0  0  0
    3.1440   -0.2070   -0.7930 C   0  0  0  0  0  0  0  0  0  0  0  0
    1.9910    0.2260    0.0970 C   0  0  1  0  0  0  0  0  0  0  0  0
    2.2740    1.5320    0.7560 C   0  0  0  0  0  0  0  0  0  0  0  0
    3.5330    1.3580    1.6000 C   0  0  0  0  0  0  0  0  0  0  0  0
    0.8530    0.1720   -0.6530 O   0  0  0  0  0  0  0  0  0  0  0  0
   -0.0820   -0.7660   -0.2800 C   0  0  2  0  0  0  0  0  0  0  0  0
   -0.3790   -1.6370   -1.4520 C   0  0  0  0  0  0  0  0  0  0  0  0
   -1.5480   -1.7510   -2.0440 C   0  0  0  0  0  0  0  0  0  0  0  0
   -1.7270   -2.6330   -3.1830 C   0  0  0  0  0  0  0  0  0  0  0  0
   -2.8590   -2.7080   -3.7130 O   0  0  0  0  0  0  0  0  0  0  0  0
   -0.7030   -3.4010   -3.7150 O   0  0  0  0  0  0  0  0  0  0  0  0
   -2.7110   -0.9720   -1.5520 C   0  0  0  0  0  0  0  0  0  0  0  0
   -2.5270   -0.8740   -0.0490 C   0  0  2  0  0  0  0  0  0  0  0  0
   -3.7140   -0.3650    0.5490 N   0  0  0  0  0  0  0  0  0  0  0  0
   -1.3110    0.0020    0.1570 C   0  0  1  0  0  0  0  0  0  0  0  0
   -1.2690    0.3630    1.5520 N   0  0  0  0  0  0  0  0  0  0  0  0
   -1.3510    1.6910    2.0370 C   0  0  0  0  0  0  0  0  0  0  0  0
   -1.3060    2.0420    3.4800 C   0  0  0  0  0  0  0  0  0  0  0  0
   -1.4700    2.6010    1.1560 O   0  0  0  0  0  0  0  0  0  0  0  0
  1  2  1  0
  3  2  1  6
  3  4  1  0
  3  6  1  0
  4  5  1  0
  7  6  1  6
  7  8  1  0
  7 16  1  0
  8  9  2  0
  9 10  1  0
  9 13  1  0
 10 11  2  0
 10 12  1  0
 13 14  1  0
 14 15  1  1
 14 16  1  0
 16 17  1  1
 17 18  1  0
 18 19  1  0
 18 20  2  0
M  CHG  1  15   1
M  END
