
     RDKit          3D

 37 40  0  0  0  0  0  0  0  0999 V2000
   -5.8800   -3.2650    0.1570 C   0  0  0  0  0  0  0  0  0  0  0  0
   -6.0000   -2.7010   -1.0320 C   0  0  0  0  0  0  0  0  0  0  0  0
   -7.3650   -2.7240   -1.6640 C   0  0  0  0  0  0  0  0  0  0  0  0
   -4.9440   -2.1330   -1.7020 N   0  0  0  0  0  0  0  0  0  0  0  0
   -4.2710   -1.1180   -1.4150 C   0  0  0  0  0  0  0  0  0  0  0  0
   -2.8640   -0.5120   -2.4640 S   0  0  0  0  0  0  0  0  0  0  0  0
   -1.9070   -0.0870   -0.9240 C   0  0  0  0  0  0  0  0  0  0  0  0
   -0.7620   -0.2310   -0.7410 N   0  0  0  0  0  0  0  0  0  0  0  0
    0.5170   -0.4130   -0.5920 C   0  0  0  0  0  0  0  0  0  0  0  0
    1.4740    0.5270   -0.7360 C   0  0  0  0  0  0  0  0  0  0  0  0
    2.8850    0.1730   -0.5340 C   0  0  0  0  0  0  0  0  0  0  0  0
    3.1490   -1.0160   -0.2330 O   0  0  0  0  0  0  0  0  0  0  0  0
    3.9110    1.1140   -0.6680 N   0  0  0  0  0  0  0  0  0  0  0  0
    5.2820    0.8690   -0.4980 C   0  0  0  0  0  0  0  0  0  0  0  0
    6.1090    2.0070   -0.4940 C   0  0  0  0  0  0  0  0  0  0  0  0
    7.4660    1.8670   -0.3410 C   0  0  0  0  0  0  0  0  0  0  0  0
    8.0460    0.6210   -0.1900 C   0  0  0  0  0  0  0  0  0  0  0  0
    7.2610   -0.4990   -0.1910 C   0  0  0  0  0  0  0  0  0  0  0  0
    7.8520   -1.7870   -0.0370 N   0  0  1  0  0  0  0  0  0  0  0  0
    9.2860   -1.6920    0.1060 C   0  0  0  0  0  0  0  0  0  0  0  0
    7.3350   -2.4850    1.1350 C   0  0  0  0  0  0  0  0  0  0  0  0
    5.8950   -0.3420   -0.3460 C   0  0  0  0  0  0  0  0  0  0  0  0
    1.1300    1.9210   -1.1030 C   0  0  2  0  0  0  0  0  0  0  0  0
   -0.2500    2.0430   -1.2350 F   0  0  0  0  0  0  0  0  0  0  0  0
    1.7670    2.2110   -2.2950 F   0  0  0  0  0  0  0  0  0  0  0  0
    1.5270    2.7570   -0.0990 F   0  0  0  0  0  0  0  0  0  0  0  0
   -2.9810    0.4320   -0.0790 N   0  0  0  0  0  0  0  0  0  0  0  0
   -2.7160    1.4150    0.9720 C   0  0  0  0  0  0  0  0  0  0  0  0
   -3.9140    1.8370    1.6910 C   0  0  0  0  0  0  0  0  0  0  0  0
   -4.0190    2.7290    2.6760 C   0  0  0  0  0  0  0  0  0  0  0  0
   -5.4350    2.8290    3.0970 C   0  0  0  0  0  0  0  0  0  0  0  0
   -6.1050    1.8630    2.2020 C   0  0  0  0  0  0  0  0  0  0  0  0
   -5.2270    1.2960    1.3960 C   0  0  0  0  0  0  0  0  0  0  0  0
   -5.3270    0.2950    0.3380 C   0  0  0  0  0  0  0  0  0  0  0  0
   -6.5960   -0.1990    0.0820 O   0  0  0  0  0  0  0  0  0  0  0  0
   -7.4660    0.5560   -0.7720 C   0  0  0  0  0  0  0  0  0  0  0  0
   -4.2370   -0.1260   -0.3560 C   0  0  0  0  0  0  0  0  0  0  0  0
  1  2  2  0
  2  3  1  0
  2  4  1  0
  4  5  2  3
  5  6  1  0
  5 37  1  0
  6  7  1  0
  7  8  2  3
  7 27  1  0
  8  9  1  0
  9 10  2  3
 10 11  1  0
 10 23  1  0
 11 12  2  0
 11 13  1  0
 13 14  1  0
 14 15  2  0
 14 22  1  0
 15 16  1  0
 16 17  2  0
 17 18  1  0
 18 19  1  0
 18 22  2  0
 19 20  1  1
 19 21  1  0
 23 24  1  6
 23 25  1  0
 23 26  1  0
 27 28  1  0
 27 37  1  0
 28 29  1  0
 29 30  2  0
 29 33  1  0
 30 31  1  0
 31 32  1  0
 32 33  2  0
 33 34  1  0
 34 35  1  0
 34 37  2  0
 35 36  1  0
M  CHG  1  19   1
M  END
