
     RDKit          3D

 36 39  0  0  0  0  0  0  0  0999 V2000
    5.0080   -4.2450    0.8600 C   0  0  0  0  0  0  0  0  0  0  0  0
    4.6020   -2.9190    1.4640 C   0  0  0  0  0  0  0  0  0  0  0  0
    3.2540   -2.4310    0.9350 C   0  0  2  0  0  0  0  0  0  0  0  0
    3.3530   -2.2740   -0.4930 N   0  0  0  0  0  0  0  0  0  0  0  0
    2.8190   -1.2090    1.6320 C   0  0  0  0  0  0  0  0  0  0  0  0
    2.7560   -1.2370    2.8870 O   0  0  0  0  0  0  0  0  0  0  0  0
    2.4760   -0.0210    0.9410 N   0  0  0  0  0  0  0  0  0  0  0  0
    2.0450    1.1960    1.6410 C   0  0  2  0  0  0  0  0  0  0  0  0
    0.6730    1.5650    1.3780 C   0  0  0  0  0  0  0  0  0  0  0  0
   -0.1690    1.0940    2.1800 O   0  0  0  0  0  0  0  0  0  0  0  0
    0.1340    2.3830    0.3500 N   0  0  0  0  0  0  0  0  0  0  0  0
    0.6150    3.6110   -0.1610 C   0  0  2  0  0  0  0  0  0  0  0  0
    0.2310    3.5900   -1.6140 C   0  0  0  0  0  0  0  0  0  0  0  0
   -0.8230    2.5340   -1.7620 C   0  0  0  0  0  0  0  0  0  0  0  0
   -1.0790    2.0870   -0.3450 C   0  0  1  0  0  0  0  0  0  0  0  0
   -1.5060    0.6690   -0.3120 C   0  0  0  0  0  0  0  0  0  0  0  0
   -0.6980   -0.2120    0.0720 O   0  0  0  0  0  0  0  0  0  0  0  0
   -2.8220    0.3270   -0.7130 N   0  0  0  0  0  0  0  0  0  0  0  0
   -3.3000   -1.0550   -0.7000 C   0  0  1  0  0  0  0  0  0  0  0  0
   -4.3280   -1.1570    0.3720 C   0  0  0  0  0  0  0  0  0  0  0  0
   -5.3050   -0.2140    0.6020 C   0  0  0  0  0  0  0  0  0  0  0  0
   -6.2510   -0.3330    1.6060 C   0  0  0  0  0  0  0  0  0  0  0  0
   -6.2420   -1.4340    2.4330 C   0  0  0  0  0  0  0  0  0  0  0  0
   -5.2750   -2.3920    2.2250 C   0  0  0  0  0  0  0  0  0  0  0  0
   -4.3290   -2.2610    1.2120 C   0  0  0  0  0  0  0  0  0  0  0  0
   -3.9080   -1.4780   -1.9720 C   0  0  0  0  0  0  0  0  0  0  0  0
   -3.5850   -2.7090   -2.5150 C   0  0  0  0  0  0  0  0  0  0  0  0
   -4.1280   -3.1490   -3.7010 C   0  0  0  0  0  0  0  0  0  0  0  0
   -5.0320   -2.3690   -4.4100 C   0  0  0  0  0  0  0  0  0  0  0  0
   -5.3600   -1.1520   -3.8850 C   0  0  0  0  0  0  0  0  0  0  0  0
   -4.8050   -0.7230   -2.6900 C   0  0  0  0  0  0  0  0  0  0  0  0
    2.0310    3.9540    0.0860 C   0  0  0  0  0  0  0  0  0  0  0  0
    2.9760    2.7990    0.0560 C   0  0  0  0  0  0  0  0  0  0  0  0
    3.0800    2.2660    1.4450 C   0  0  2  0  0  0  0  0  0  0  0  0
    4.4560    1.6900    1.6640 C   0  0  0  0  0  0  0  0  0  0  0  0
    5.4800    2.7080    1.4810 N   0  0  0  0  0  0  0  0  0  0  0  0
  1  2  1  0
  2  3  1  0
  3  4  1  6
  3  5  1  0
  5  6  2  0
  5  7  1  0
  8  7  1  6
  8  9  1  0
  8 34  1  0
  9 10  2  0
  9 11  1  0
 11 12  1  0
 11 15  1  0
 12 13  1  6
 12 32  1  0
 13 14  1  0
 14 15  1  0
 15 16  1  6
 16 17  2  0
 16 18  1  0
 19 18  1  6
 19 20  1  0
 19 26  1  0
 20 21  2  0
 20 25  1  0
 21 22  1  0
 22 23  2  0
 23 24  1  0
 24 25  2  0
 26 27  2  0
 26 31  1  0
 27 28  1  0
 28 29  2  0
 29 30  1  0
 30 31  2  0
 32 33  1  0
 33 34  1  0
 34 35  1  6
 35 36  1  0
M  CHG  2   4   1  36   1
M  END
