
     RDKit          3D

 37 41  0  0  0  0  0  0  0  0999 V2000
   -7.8260    3.6490   -1.7430 C   0  0  0  0  0  0  0  0  0  0  0  0
   -7.3260    2.3390   -2.3390 C   0  0  0  0  0  0  0  0  0  0  0  0
   -6.9820    1.3570   -1.2740 C   0  0  0  0  0  0  0  0  0  0  0  0
   -7.9480    0.4900   -0.7880 C   0  0  0  0  0  0  0  0  0  0  0  0
   -7.6750   -0.4120    0.1660 N   0  0  0  0  0  0  0  0  0  0  0  0
   -6.4320   -0.5370    0.7220 C   0  0  0  0  0  0  0  0  0  0  0  0
   -5.4560    0.2990    0.2690 C   0  0  0  0  0  0  0  0  0  0  0  0
   -5.7220    1.2560   -0.7340 C   0  0  0  0  0  0  0  0  0  0  0  0
   -4.0810    0.2170    0.8160 C   0  0  0  0  0  0  0  0  0  0  0  0
   -3.9300   -0.6070    2.0460 C   0  0  2  0  0  0  0  0  0  0  0  0
   -3.3150   -2.2530    1.4950 S   0  0  0  0  0  0  0  0  0  0  0  0
   -1.6550   -2.0180    0.8310 C   0  0  0  0  0  0  0  0  0  0  0  0
   -1.4650   -1.7110   -0.4650 N   0  0  0  0  0  0  0  0  0  0  0  0
   -0.2310   -1.5230   -0.9820 C   0  0  0  0  0  0  0  0  0  0  0  0
   -0.0380   -1.2360   -2.1910 O   0  0  0  0  0  0  0  0  0  0  0  0
    0.8710   -1.6430   -0.1810 C   0  0  0  0  0  0  0  0  0  0  0  0
    2.1640   -1.4550   -0.6870 C   0  0  0  0  0  0  0  0  0  0  0  0
    3.2890   -1.5750    0.1140 C   0  0  0  0  0  0  0  0  0  0  0  0
    4.5930   -1.3710   -0.3800 N   0  0  0  0  0  0  0  0  0  0  0  0
    4.7950   -0.5650   -1.5610 C   0  0  0  0  0  0  0  0  0  0  0  0
    5.6330    0.6340   -1.0760 C   0  0  0  0  0  0  0  0  0  0  0  0
    6.8930    0.1030   -0.6120 N   0  0  0  0  0  0  0  0  0  0  0  0
    8.1250    0.8170   -0.7740 C   0  0  0  0  0  0  0  0  0  0  0  0
    9.2220    0.3030   -0.3510 O   0  0  0  0  0  0  0  0  0  0  0  0
    8.2400    2.1390   -1.4090 C   0  0  0  0  0  0  0  0  0  0  0  0
    8.4360    3.2290   -0.3560 C   0  0  2  0  0  0  0  0  0  0  0  0
    7.3590    3.2350    0.4970 F   0  0  0  0  0  0  0  0  0  0  0  0
    8.4400    4.4470   -1.0440 F   0  0  0  0  0  0  0  0  0  0  0  0
    9.6450    3.1270    0.2720 F   0  0  0  0  0  0  0  0  0  0  0  0
    7.0180   -1.1820    0.0570 C   0  0  0  0  0  0  0  0  0  0  0  0
    5.7540   -1.9440    0.2220 C   0  0  0  0  0  0  0  0  0  0  0  0
    3.0550   -1.8900    1.4340 C   0  0  0  0  0  0  0  0  0  0  0  0
    1.7820   -2.0830    1.9690 C   0  0  0  0  0  0  0  0  0  0  0  0
    0.6970   -1.9530    1.1330 C   0  0  0  0  0  0  0  0  0  0  0  0
   -0.5710   -2.1330    1.6040 N   0  0  0  0  0  0  0  0  0  0  0  0
   -5.2440   -0.8440    2.7770 C   0  0  0  0  0  0  0  0  0  0  0  0
   -6.1670   -1.5440    1.7700 C   0  0  0  0  0  0  0  0  0  0  0  0
  1  2  1  0
  2  3  1  0
  3  4  2  0
  3  8  1  0
  4  5  1  0
  5  6  2  0
  6  7  1  0
  6 37  1  0
  7  8  2  0
  7  9  1  0
  9 10  1  0
 10 11  1  6
 10 36  1  0
 11 12  1  0
 12 13  2  0
 12 35  1  0
 13 14  1  0
 14 15  2  0
 14 16  1  0
 16 17  2  0
 16 34  1  0
 17 18  1  0
 18 19  1  0
 18 32  2  0
 19 20  1  0
 19 31  1  0
 20 21  1  0
 21 22  1  0
 22 23  1  0
 22 30  1  0
 23 24  2  0
 23 25  1  0
 25 26  1  0
 26 27  1  1
 26 28  1  0
 26 29  1  0
 30 31  1  0
 32 33  1  0
 33 34  2  0
 34 35  1  0
 36 37  1  0
M  CHG  1   5   1
M  END
