
     RDKit          3D

 37 41  0  0  0  0  0  0  0  0999 V2000
   -5.9950    0.7450   -0.1420 C   0  0  0  0  0  0  0  0  0  0  0  0
   -4.6730    0.1360    0.1870 C   0  0  0  0  0  0  0  0  0  0  0  0
   -3.6170    0.8950   -0.1190 C   0  0  0  0  0  0  0  0  0  0  0  0
   -3.8460    2.1970   -0.7100 C   0  0  0  0  0  0  0  0  0  0  0  0
   -3.0120    3.1120   -0.9810 N   0  0  0  0  0  0  0  0  0  0  0  0
   -3.5090    4.3670   -1.5990 C   0  0  2  0  0  0  0  0  0  0  0  0
   -2.5310    4.9470   -2.3820 F   0  0  0  0  0  0  0  0  0  0  0  0
   -3.8420    5.2770   -0.6150 F   0  0  0  0  0  0  0  0  0  0  0  0
   -4.6640    4.1030   -2.3150 F   0  0  0  0  0  0  0  0  0  0  0  0
   -2.2040    0.5260   -0.0020 C   0  0  0  0  0  0  0  0  0  0  0  0
   -1.5550   -0.1200    0.9330 C   0  0  0  0  0  0  0  0  0  0  0  0
   -0.1240   -0.4280    0.9520 C   0  0  0  0  0  0  0  0  0  0  0  0
    0.5520   -0.0970   -0.2700 N   0  0  0  0  0  0  0  0  0  0  0  0
    1.9300   -0.4950   -0.4080 C   0  0  0  0  0  0  0  0  0  0  0  0
    2.8850    0.5100    0.0610 C   0  0  0  0  0  0  0  0  0  0  0  0
    2.4740    1.7180    0.5760 C   0  0  0  0  0  0  0  0  0  0  0  0
    3.3910    2.6420    1.0070 C   0  0  0  0  0  0  0  0  0  0  0  0
    4.7300    2.3720    0.9290 C   0  0  0  0  0  0  0  0  0  0  0  0
    5.1580    1.1810    0.4210 C   0  0  0  0  0  0  0  0  0  0  0  0
    4.2380    0.2620   -0.0070 C   0  0  0  0  0  0  0  0  0  0  0  0
    4.7090   -0.9600   -0.5270 O   0  0  0  0  0  0  0  0  0  0  0  0
    6.0670   -1.2240   -0.6020 C   0  0  0  0  0  0  0  0  0  0  0  0
    6.7710   -1.8300    0.4200 C   0  0  0  0  0  0  0  0  0  0  0  0
    8.1280   -2.0700    0.2910 C   0  0  0  0  0  0  0  0  0  0  0  0
    8.8040   -1.7140   -0.8460 C   0  0  0  0  0  0  0  0  0  0  0  0
    8.0960   -1.1090   -1.8630 C   0  0  0  0  0  0  0  0  0  0  0  0
    6.7360   -0.8630   -1.7470 C   0  0  0  0  0  0  0  0  0  0  0  0
   -0.0980    0.5900   -1.3030 C   0  0  0  0  0  0  0  0  0  0  0  0
    0.4880    0.9490   -2.3620 O   0  0  0  0  0  0  0  0  0  0  0  0
   -1.4730    0.9080   -1.1850 N   0  0  0  0  0  0  0  0  0  0  0  0
   -2.3270   -0.9180    2.3830 S   0  0  0  0  0  0  0  0  0  0  0  0
   -3.7170   -1.7950    1.5730 C   0  0  0  0  0  0  0  0  0  0  0  0
   -3.6650   -3.0570    1.6980 N   0  0  0  0  0  0  0  0  0  0  0  0
   -4.6960   -3.8450    1.1030 C   0  0  0  0  0  0  0  0  0  0  0  0
   -6.0140   -3.1810    1.2670 C   0  0  0  0  0  0  0  0  0  0  0  0
   -6.0510   -1.7630    0.7720 C   0  0  0  0  0  0  0  0  0  0  0  0
   -4.7520   -1.1250    0.8470 N   0  0  0  0  0  0  0  0  0  0  0  0
  1  2  1  0
  2  3  2  0
  2 37  1  0
  3  4  1  0
  3 10  1  0
  4  5  2  3
  5  6  1  0
  6  7  1  6
  6  8  1  0
  6  9  1  0
 10 11  2  0
 10 30  1  0
 11 12  1  0
 11 31  1  0
 12 13  1  0
 13 14  1  0
 13 28  1  0
 14 15  1  0
 15 16  2  0
 15 20  1  0
 16 17  1  0
 17 18  2  0
 18 19  1  0
 19 20  2  0
 20 21  1  0
 21 22  1  0
 22 23  2  0
 22 27  1  0
 23 24  1  0
 24 25  2  0
 25 26  1  0
 26 27  2  0
 28 29  2  0
 28 30  1  0
 31 32  1  0
 32 33  2  0
 32 37  1  0
 33 34  1  0
 34 35  1  0
 35 36  1  0
 36 37  1  0
M  CHG  1   5   1
M  END
