
     RDKit          3D

 37 41  0  0  0  0  0  0  0  0999 V2000
    2.6560    1.2100   -2.1070 O   0  0  0  0  0  0  0  0  0  0  0  0
    2.3670    0.0590   -2.4960 C   0  0  0  0  0  0  0  0  0  0  0  0
    3.3480   -0.7100   -3.1740 N   0  0  0  0  0  0  0  0  0  0  0  0
    4.6740   -0.2160   -3.4340 C   0  0  0  0  0  0  0  0  0  0  0  0
    5.3530    0.0900   -2.1660 C   0  0  0  0  0  0  0  0  0  0  0  0
    4.9670   -0.1140   -0.8720 C   0  0  0  0  0  0  0  0  0  0  0  0
    5.9440    0.3440   -0.0880 N   0  0  0  0  0  0  0  0  0  0  0  0
    6.0040    0.3520    1.3470 C   0  0  2  0  0  0  0  0  0  0  0  0
    6.7460    1.5920    1.8400 C   0  0  0  0  0  0  0  0  0  0  0  0
    8.2340    1.3190    1.8730 C   0  0  0  0  0  0  0  0  0  0  0  0
    8.5490    0.3560    2.9970 C   0  0  0  0  0  0  0  0  0  0  0  0
    7.3150   -0.4930    3.2270 C   0  0  0  0  0  0  0  0  0  0  0  0
    6.7090   -0.8660    1.8920 C   0  0  0  0  0  0  0  0  0  0  0  0
    6.9270    0.8260   -0.8510 N   0  0  0  0  0  0  0  0  0  0  0  0
    6.5790    0.6770   -2.1020 N   0  0  0  0  0  0  0  0  0  0  0  0
    1.0530   -0.5000   -2.2660 C   0  0  0  0  0  0  0  0  0  0  0  0
    0.6230   -1.7640   -2.6280 C   0  0  0  0  0  0  0  0  0  0  0  0
   -0.6950   -1.8330   -2.2010 C   0  0  0  0  0  0  0  0  0  0  0  0
   -1.0210   -0.6710   -1.6200 N   0  0  0  0  0  0  0  0  0  0  0  0
   -2.3420   -0.4390   -1.0830 C   0  0  0  0  0  0  0  0  0  0  0  0
   -3.4130   -1.0280   -1.6820 C   0  0  0  0  0  0  0  0  0  0  0  0
   -4.6490   -0.7720   -1.1750 C   0  0  0  0  0  0  0  0  0  0  0  0
   -4.9290    0.0490   -0.0830 C   0  0  0  0  0  0  0  0  0  0  0  0
   -6.4180    0.3430    0.4680 S   0  0  0  0  0  0  0  0  0  0  0  0
   -6.2590    1.5660   -0.8600 O   0  0  0  0  0  0  0  0  0  0  0  0
   -6.0210    0.8390    1.9820 C   0  0  0  0  0  0  0  0  0  0  0  0
   -7.0540    0.9000    3.0870 C   0  0  2  0  0  0  0  0  0  0  0  0
   -7.6380   -0.3170    3.3460 F   0  0  0  0  0  0  0  0  0  0  0  0
   -7.9180    1.9570    3.0060 F   0  0  0  0  0  0  0  0  0  0  0  0
   -6.3640    1.1810    4.2960 F   0  0  0  0  0  0  0  0  0  0  0  0
   -7.1240   -1.0660    0.0590 C   0  0  0  0  0  0  0  0  0  0  0  0
   -8.1910   -0.7410   -0.9690 C   0  0  0  0  0  0  0  0  0  0  0  0
   -8.5940    0.6980   -0.7610 C   0  0  0  0  0  0  0  0  0  0  0  0
   -7.7740    1.0880    0.4960 C   0  0  0  0  0  0  0  0  0  0  0  0
   -3.7660    0.5930    0.4470 C   0  0  0  0  0  0  0  0  0  0  0  0
   -2.5020    0.3770   -0.0130 C   0  0  0  0  0  0  0  0  0  0  0  0
   -0.0030    0.1630   -1.6340 C   0  0  0  0  0  0  0  0  0  0  0  0
  1  2  2  0
  2  3  1  0
  2 16  1  0
  3  4  1  0
  4  5  1  0
  5  6  2  0
  5 15  1  0
  6  7  1  0
  8  7  1  6
  7 14  1  0
  8  9  1  0
  8 13  1  0
  9 10  1  0
 10 11  1  0
 11 12  1  0
 12 13  1  0
 14 15  2  0
 16 17  1  0
 16 37  2  0
 17 18  2  0
 18 19  1  0
 19 20  1  0
 19 37  1  0
 20 21  2  0
 20 36  1  0
 21 22  1  0
 22 23  2  0
 23 24  1  0
 23 35  1  0
 24 25  2  0
 24 26  1  0
 24 31  1  0
 24 34  1  0
 26 27  1  0
 27 28  1  1
 27 29  1  0
 27 30  1  0
 31 32  1  0
 32 33  1  0
 33 34  1  0
 35 36  2  0
M  CHG  1  15   1
M  END
