
     RDKit          3D

 36 39  0  0  0  0  0  0  0  0999 V2000
   10.1590   -4.0330    2.5670 C   0  0  0  0  0  0  0  0  0  0  0  0
   10.2360   -3.5730    1.1530 C   0  0  0  0  0  0  0  0  0  0  0  0
    8.9300   -3.4630    0.4060 C   0  0  0  0  0  0  0  0  0  0  0  0
    8.0270   -2.5020    1.0730 C   0  0  0  0  0  0  0  0  0  0  0  0
    6.7470   -2.2250    0.3030 C   0  0  0  0  0  0  0  0  0  0  0  0
    5.6070   -2.7910    0.5920 N   0  0  0  0  0  0  0  0  0  0  0  0
    4.5150   -2.4960   -0.1040 C   0  0  0  0  0  0  0  0  0  0  0  0
    3.2850   -2.9260   -0.0080 N   0  0  0  0  0  0  0  0  0  0  0  0
    2.3120   -2.4080   -0.9180 C   0  0  0  0  0  0  0  0  0  0  0  0
    2.3260   -2.8910   -2.0760 O   0  0  0  0  0  0  0  0  0  0  0  0
    1.3650   -1.3870   -0.5510 C   0  0  0  0  0  0  0  0  0  0  0  0
    1.2790   -0.8750    0.7360 C   0  0  0  0  0  0  0  0  0  0  0  0
    0.3170    0.0640    0.7220 N   0  0  0  0  0  0  0  0  0  0  0  0
   -0.2030    0.1770   -0.4740 N   0  0  0  0  0  0  0  0  0  0  0  0
   -1.2820    1.0860   -0.7870 C   0  0  0  0  0  0  0  0  0  0  0  0
   -1.6930    1.0280   -1.9570 O   0  0  0  0  0  0  0  0  0  0  0  0
   -1.8240    1.9870    0.2120 C   0  0  0  0  0  0  0  0  0  0  0  0
   -2.9620    2.7490    0.0110 N   0  0  1  0  0  0  0  0  0  0  0  0
   -3.9150    2.3980   -0.9900 C   0  0  0  0  0  0  0  0  0  0  0  0
   -4.8070    1.2480   -0.5310 C   0  0  0  0  0  0  0  0  0  0  0  0
   -5.7020    1.6910    0.5700 C   0  0  2  0  0  0  0  0  0  0  0  0
   -7.1260    1.8130    0.2790 C   0  0  0  0  0  0  0  0  0  0  0  0
   -7.6880    1.6490   -0.9540 C   0  0  0  0  0  0  0  0  0  0  0  0
   -9.0640    1.7770   -1.1950 C   0  0  0  0  0  0  0  0  0  0  0  0
   -9.5910    1.5670   -2.5420 C   0  0  0  0  0  0  0  0  0  0  0  0
   -9.8900    2.0830   -0.1380 C   0  0  0  0  0  0  0  0  0  0  0  0
  -11.2420    2.2170   -0.3470 F   0  0  0  0  0  0  0  0  0  0  0  0
   -9.3580    2.2570    1.1200 C   0  0  0  0  0  0  0  0  0  0  0  0
   -8.0080    2.1270    1.3420 C   0  0  0  0  0  0  0  0  0  0  0  0
   -7.5360    2.2940    2.5790 F   0  0  0  0  0  0  0  0  0  0  0  0
   -5.1330    2.9660    1.1920 C   0  0  0  0  0  0  0  0  0  0  0  0
   -3.6380    2.9130    1.3100 C   0  0  0  0  0  0  0  0  0  0  0  0
    0.4170   -0.6980   -1.2770 C   0  0  0  0  0  0  0  0  0  0  0  0
    5.0840   -1.3010   -1.3110 S   0  0  0  0  0  0  0  0  0  0  0  0
    6.7980   -1.3270   -0.7250 C   0  0  0  0  0  0  0  0  0  0  0  0
    7.8850   -0.5250   -1.2810 C   0  0  0  0  0  0  0  0  0  0  0  0
  1  2  1  0
  2  3  1  0
  3  4  1  0
  4  5  1  0
  5  6  1  0
  5 35  2  0
  6  7  1  0
  7  8  2  3
  7 34  1  0
  8  9  1  0
  9 10  2  0
  9 11  1  0
 11 12  1  0
 11 33  2  0
 12 13  2  0
 13 14  1  0
 14 15  1  0
 14 33  1  0
 15 16  2  0
 15 17  1  0
 18 17  1  1
 18 19  1  0
 18 32  1  0
 19 20  1  0
 20 21  1  0
 21 22  1  6
 21 31  1  0
 22 23  2  0
 22 29  1  0
 23 24  1  0
 24 25  1  0
 24 26  2  0
 26 27  1  0
 26 28  1  0
 28 29  2  0
 29 30  1  0
 31 32  1  0
 34 35  1  0
 35 36  1  0
M  CHG  1  18   1
M  END
