
     RDKit          3D

 37 41  0  0  0  0  0  0  0  0999 V2000
   -4.4070    3.4000   -0.2200 N   0  0  0  0  0  0  0  0  0  0  0  0
   -5.3490    2.7560   -0.1490 C   0  0  0  0  0  0  0  0  0  0  0  0
   -6.5530    1.9360   -0.0530 C   0  0  0  0  0  0  0  0  0  0  0  0
   -7.7650    2.3690   -0.1860 N   0  0  0  0  0  0  0  0  0  0  0  0
   -8.7650    1.8790   -0.1030 C   0  0  0  0  0  0  0  0  0  0  0  0
  -10.2310    2.1400   -0.2420 C   0  0  0  0  0  0  0  0  0  0  0  0
  -10.6660    2.6580    0.9370 F   0  0  0  0  0  0  0  0  0  0  0  0
   -8.2160    0.1060    0.3230 S   0  0  0  0  0  0  0  0  0  0  0  0
   -6.4560    0.6000    0.2480 C   0  0  0  0  0  0  0  0  0  0  0  0
   -5.3630   -0.3540    0.2840 C   0  0  0  0  0  0  0  0  0  0  0  0
   -4.2300   -0.0920    1.1330 N   0  0  0  0  0  0  0  0  0  0  0  0
   -3.1090   -0.7200    0.4100 C   0  0  2  0  0  0  0  0  0  0  0  0
   -2.8840   -2.0660    1.0100 C   0  0  0  0  0  0  0  0  0  0  0  0
   -2.0010   -2.8400    0.0300 C   0  0  0  0  0  0  0  0  0  0  0  0
   -1.2080   -1.8500   -0.8160 C   0  0  0  0  0  0  0  0  0  0  0  0
   -0.7470   -0.7620   -0.0050 N   0  0  0  0  0  0  0  0  0  0  0  0
    0.1960   -1.0750    0.9710 C   0  0  0  0  0  0  0  0  0  0  0  0
    1.5770   -1.1490    0.4050 C   0  0  0  0  0  0  0  0  0  0  0  0
    2.0740   -2.2690   -0.2660 C   0  0  0  0  0  0  0  0  0  0  0  0
    3.3910   -2.2500   -0.7340 C   0  0  0  0  0  0  0  0  0  0  0  0
    4.1960   -1.1410   -0.5320 C   0  0  0  0  0  0  0  0  0  0  0  0
    3.7310   -0.0170    0.1310 C   0  0  0  0  0  0  0  0  0  0  0  0
    2.4260   -0.1160    0.5510 C   0  0  0  0  0  0  0  0  0  0  0  0
    4.8250    0.9270    0.2000 C   0  0  0  0  0  0  0  0  0  0  0  0
    4.7260    2.0680    0.7550 O   0  0  0  0  0  0  0  0  0  0  0  0
    5.9880    0.4130   -0.4160 N   0  0  0  0  0  0  0  0  0  0  0  0
    7.2880    0.9990   -0.5460 C   0  0  0  0  0  0  0  0  0  0  0  0
    7.5450    2.3400   -0.2810 C   0  0  0  0  0  0  0  0  0  0  0  0
    8.7860    2.8770   -0.3840 C   0  0  0  0  0  0  0  0  0  0  0  0
    8.9580    4.2260   -0.1310 F   0  0  0  0  0  0  0  0  0  0  0  0
    9.8710    2.1310   -0.7550 C   0  0  0  0  0  0  0  0  0  0  0  0
    9.6480    0.7780   -1.0260 C   0  0  0  0  0  0  0  0  0  0  0  0
   10.7200    0.0370   -1.3830 F   0  0  0  0  0  0  0  0  0  0  0  0
    8.3600    0.2300   -0.9170 C   0  0  0  0  0  0  0  0  0  0  0  0
    5.6130   -0.8890   -0.8900 C   0  0  0  0  0  0  0  0  0  0  0  0
    6.3020   -1.7140   -1.5030 O   0  0  0  0  0  0  0  0  0  0  0  0
   -1.8580    0.0900    0.4310 C   0  0  0  0  0  0  0  0  0  0  0  0
  1  2  3  0
  2  3  1  0
  3  4  1  0
  3  9  2  0
  4  5  2  0
  5  6  1  0
  5  8  1  0
  6  7  1  0
  8  9  1  0
  9 10  1  0
 10 11  1  0
 12 11  1  1
 12 13  1  0
 12 37  1  0
 13 14  1  0
 14 15  1  0
 15 16  1  0
 16 17  1  0
 16 37  1  0
 17 18  1  0
 18 19  2  0
 18 23  1  0
 19 20  1  0
 20 21  2  0
 21 22  1  0
 21 35  1  0
 22 23  2  0
 22 24  1  0
 24 25  2  0
 24 26  1  0
 26 27  1  0
 26 35  1  0
 27 28  2  0
 27 34  1  0
 28 29  1  0
 29 30  1  0
 29 31  2  0
 31 32  1  0
 32 33  1  0
 32 34  2  0
 35 36  2  0
M  CHG  1  11   1
M  END
