
     RDKit          3D

 37 41  0  0  0  0  0  0  0  0999 V2000
   -5.7860   -2.1020    1.2340 C   0  0  0  0  0  0  0  0  0  0  0  0
   -4.9250   -1.8220    2.4240 N   0  0  0  0  0  0  0  0  0  0  0  0
   -4.0520   -0.6980    2.0770 C   0  0  0  0  0  0  0  0  0  0  0  0
   -2.7800   -1.2970    1.5660 C   0  0  0  0  0  0  0  0  0  0  0  0
   -2.3850   -3.0550    1.5110 S   0  0  0  0  0  0  0  0  0  0  0  0
   -0.8180   -2.8300    0.7840 C   0  0  0  0  0  0  0  0  0  0  0  0
    0.0520   -3.7490    0.5140 N   0  0  0  0  0  0  0  0  0  0  0  0
    1.2310   -3.4870    0.0380 C   0  0  0  0  0  0  0  0  0  0  0  0
    2.0840   -4.4940   -0.3380 C   0  0  0  0  0  0  0  0  0  0  0  0
    1.6930   -5.7700   -0.1040 F   0  0  0  0  0  0  0  0  0  0  0  0
    3.3000   -4.2730   -0.9330 C   0  0  0  0  0  0  0  0  0  0  0  0
    3.6610   -2.9550   -1.1400 C   0  0  0  0  0  0  0  0  0  0  0  0
    2.7610   -1.9340   -0.7360 C   0  0  0  0  0  0  0  0  0  0  0  0
    1.5350   -2.1130   -0.1700 C   0  0  0  0  0  0  0  0  0  0  0  0
    0.6880   -1.0530    0.0590 C   0  0  0  0  0  0  0  0  0  0  0  0
    0.8880    0.2040   -0.1520 O   0  0  0  0  0  0  0  0  0  0  0  0
    1.0890    1.4820   -0.3360 C   0  0  0  0  0  0  0  0  0  0  0  0
    1.8370    2.4420    0.4510 C   0  0  0  0  0  0  0  0  0  0  0  0
    1.4360    2.5980    1.9050 C   0  0  0  0  0  0  0  0  0  0  0  0
    2.0670    3.4280    2.6210 N   0  0  0  0  0  0  0  0  0  0  0  0
    1.8640    3.7120    3.9260 F   0  0  0  0  0  0  0  0  0  0  0  0
    2.8210    3.1720    0.1070 C   0  0  0  0  0  0  0  0  0  0  0  0
    3.4930    3.2820   -1.1910 C   0  0  0  0  0  0  0  0  0  0  0  0
    3.4720    4.6210   -1.6610 F   0  0  0  0  0  0  0  0  0  0  0  0
   -0.6260   -1.4440    0.5900 C   0  0  0  0  0  0  0  0  0  0  0  0
   -1.6640   -0.6890    1.0040 C   0  0  0  0  0  0  0  0  0  0  0  0
   -1.8500    0.8400    1.0580 C   0  0  0  0  0  0  0  0  0  0  0  0
   -2.6930    1.1900   -0.0690 N   0  0  0  0  0  0  0  0  0  0  0  0
   -3.0040    2.5480   -0.2420 C   0  0  0  0  0  0  0  0  0  0  0  0
   -3.6560    2.6260   -1.6070 C   0  0  0  0  0  0  0  0  0  0  0  0
   -3.0700    1.4550   -2.3370 C   0  0  0  0  0  0  0  0  0  0  0  0
   -2.6430    0.5040   -1.2520 C   0  0  0  0  0  0  0  0  0  0  0  0
    3.4030   -0.6470   -0.5030 N   0  0  0  0  0  0  0  0  0  0  0  0
    3.3420   -0.1780    0.8590 C   0  0  0  0  0  0  0  0  0  0  0  0
    4.1440   -0.1340   -1.6290 C   0  0  0  0  0  0  0  0  0  0  0  0
    5.0910   -1.2170   -2.1400 C   0  0  0  0  0  0  0  0  0  0  0  0
    4.8100   -2.5220   -1.7010 O   0  0  0  0  0  0  0  0  0  0  0  0
  1  2  1  0
  2  3  1  0
  3  4  1  0
  4  5  1  0
  4 26  2  0
  5  6  1  0
  6  7  2  0
  6 25  1  0
  7  8  1  0
  8  9  2  0
  8 14  1  0
  9 10  1  0
  9 11  1  0
 11 12  2  0
 12 13  1  0
 12 37  1  0
 13 14  2  0
 13 33  1  0
 14 15  1  0
 15 16  1  0
 15 25  2  0
 16 17  1  0
 17 18  1  0
 18 19  1  0
 18 22  2  3
 19 20  2  3
 20 21  1  0
 22 23  1  0
 23 24  1  0
 25 26  1  0
 26 27  1  0
 27 28  1  0
 28 29  1  0
 28 32  1  0
 29 30  1  0
 30 31  1  0
 31 32  1  0
 33 34  1  0
 33 35  1  0
 35 36  1  0
 36 37  1  0
M  CHG  1   2   1
M  END
