
     RDKit          3D

 29 31  0  0  0  0  0  0  0  0999 V2000
    6.3120   -0.4040   -1.9540 C   0  0  0  0  0  0  0  0  0  0  0  0
    5.9400    0.4950   -0.8210 C   0  0  0  0  0  0  0  0  0  0  0  0
    4.5230    0.9080   -0.7470 C   0  0  1  0  0  0  0  0  0  0  0  0
    4.2030    1.6600   -2.0470 C   0  0  0  0  0  0  0  0  0  0  0  0
    3.4950   -0.1980   -0.6550 C   0  0  2  0  0  0  0  0  0  0  0  0
    2.1650    0.4120   -0.5930 C   0  0  0  0  0  0  0  0  0  0  0  0
    1.3140    0.2620    0.6450 C   0  0  1  0  0  0  0  0  0  0  0  0
    1.3690    1.6600    1.3300 C   0  0  0  0  0  0  0  0  0  0  0  0
   -0.1130    0.1620    0.2220 C   0  0  0  0  0  0  0  0  0  0  0  0
   -1.2140    0.0310    1.1610 C   0  0  2  0  0  0  0  0  0  0  0  0
   -1.2340   -1.1880    2.0100 C   0  0  2  0  0  0  0  0  0  0  0  0
   -1.7420   -2.2970    1.2740 O   0  0  0  0  0  0  0  0  0  0  0  0
   -2.3550   -0.9180    3.0380 C   0  0  2  0  0  0  0  0  0  0  0  0
   -2.2830   -1.8010    4.0910 O   0  0  0  0  0  0  0  0  0  0  0  0
   -3.6290   -1.0110    2.2540 C   0  0  0  0  0  0  0  0  0  0  0  0
   -3.4420   -0.9100    0.8960 O   0  0  0  0  0  0  0  0  0  0  0  0
   -2.5900    0.1160    0.5200 C   0  0  1  0  0  0  0  0  0  0  0  0
   -3.2860    1.4230    0.8210 C   0  0  0  0  0  0  0  0  0  0  0  0
   -4.6840    1.4370    0.3100 C   0  0  0  0  0  0  0  0  0  0  0  0
   -4.7570    1.1360   -1.1690 C   0  0  0  0  0  0  0  0  0  0  0  0
   -3.9110   -0.0170   -1.5780 C   0  0  1  0  0  0  0  0  0  0  0  0
   -4.5330   -1.3650   -1.3130 C   0  0  0  0  0  0  0  0  0  0  0  0
   -3.7130    0.0860   -3.0980 C   0  0  0  0  0  0  0  0  0  0  0  0
   -4.9360    0.0370   -3.7520 O   0  0  0  0  0  0  0  0  0  0  0  0
   -2.4990    0.0230   -1.0030 C   0  0  0  0  0  0  0  0  0  0  0  0
    1.8430   -0.6570    1.6580 C   0  0  0  0  0  0  0  0  0  0  0  0
    3.4010   -0.6110    1.7060 C   0  0  0  0  0  0  0  0  0  0  0  0
    3.7970   -1.2110    0.3960 C   0  0  2  0  0  0  0  0  0  0  0  0
    5.0580   -1.7240    0.3590 O   0  0  0  0  0  0  0  0  0  0  0  0
  1  2  1  0
  2  3  1  0
  3  4  1  6
  3  5  1  0
  5  6  1  1
  5 28  1  0
  6  7  1  0
  7  8  1  1
  7  9  1  0
  7 26  1  0
 10  9  1  6
 10 11  1  0
 10 17  1  0
 11 12  1  6
 11 13  1  0
 13 14  1  1
 13 15  1  0
 15 16  1  0
 16 17  1  0
 17 18  1  6
 17 25  1  0
 18 19  1  0
 19 20  1  0
 20 21  1  0
 21 22  1  6
 21 23  1  0
 21 25  1  0
 23 24  1  0
 26 27  1  0
 27 28  1  0
 28 29  1  1
M  END
