
     RDKit          3D

 31 33  0  0  0  0  0  0  0  0999 V2000
   -6.5030    0.2700   -1.3530 C   0  0  0  0  0  0  0  0  0  0  0  0
   -6.2720   -0.0480    0.1200 C   0  0  2  0  0  0  0  0  0  0  0  0
   -7.1120   -1.2320    0.5070 C   0  0  0  0  0  0  0  0  0  0  0  0
   -6.7440    1.1320    0.9590 C   0  0  0  0  0  0  0  0  0  0  0  0
   -4.8430   -0.4080    0.3560 C   0  0  1  0  0  0  0  0  0  0  0  0
   -4.5150   -1.4680   -0.4880 O   0  0  0  0  0  0  0  0  0  0  0  0
   -3.8340    0.5940    0.6140 C   0  0  0  0  0  0  0  0  0  0  0  0
   -3.9170    1.2910    1.6700 O   0  0  0  0  0  0  0  0  0  0  0  0
   -2.7220    0.8820   -0.1940 N   0  0  0  0  0  0  0  0  0  0  0  0
   -1.5420    2.0890    0.4180 S   0  0  2  0  0  0  0  0  0  0  0  0
   -2.1460    2.8940    1.4320 O   0  0  0  0  0  0  0  0  0  0  0  0
   -0.9170    2.8280   -0.6900 O   0  0  0  0  0  0  0  0  0  0  0  0
   -0.4020    0.9770    1.1370 O   0  0  0  0  0  0  0  0  0  0  0  0
    0.7950    1.2010    0.4280 C   0  0  0  0  0  0  0  0  0  0  0  0
    1.2010   -0.0240   -0.3170 C   0  0  1  0  0  0  0  0  0  0  0  0
    2.2750    0.2440   -1.1020 O   0  0  0  0  0  0  0  0  0  0  0  0
    3.3010   -0.6350   -0.7710 C   0  0  1  0  0  0  0  0  0  0  0  0
    4.4250    0.0930   -0.2710 N   0  0  0  0  0  0  0  0  0  0  0  0
    4.3580    1.3820    0.1560 C   0  0  0  0  0  0  0  0  0  0  0  0
    5.6310    1.7610    0.4960 N   0  0  0  0  0  0  0  0  0  0  0  0
    6.5000    0.7430    0.2910 C   0  0  0  0  0  0  0  0  0  0  0  0
    7.8760    0.6130    0.4540 C   0  0  0  0  0  0  0  0  0  0  0  0
    8.6740    1.6550    0.9100 N   0  0  0  0  0  0  0  0  0  0  0  0
    8.4150   -0.5880    0.1290 N   0  0  0  0  0  0  0  0  0  0  0  0
    7.6430   -1.5770   -0.3310 C   0  0  0  0  0  0  0  0  0  0  0  0
    6.3440   -1.4320   -0.4840 N   0  0  0  0  0  0  0  0  0  0  0  0
    5.7050   -0.2750   -0.1850 C   0  0  0  0  0  0  0  0  0  0  0  0
    2.7690   -1.7310    0.0750 C   0  0  2  0  0  0  0  0  0  0  0  0
    2.8030   -2.9730   -0.6160 O   0  0  0  0  0  0  0  0  0  0  0  0
    1.3430   -1.3000    0.3740 C   0  0  2  0  0  0  0  0  0  0  0  0
    0.5060   -2.3120   -0.1760 O   0  0  0  0  0  0  0  0  0  0  0  0
  2  1  1  6
  2  3  1  0
  2  4  1  0
  2  5  1  0
  5  6  1  6
  5  7  1  0
  7  8  2  0
  7  9  1  0
 10  9  1  6
 10 11  2  0
 10 12  2  0
 10 13  1  0
 13 14  1  0
 15 14  1  1
 15 16  1  0
 15 30  1  0
 16 17  1  0
 17 18  1  1
 17 28  1  0
 18 19  1  0
 18 27  1  0
 19 20  2  0
 20 21  1  0
 21 22  2  0
 21 27  1  0
 22 23  1  0
 22 24  1  0
 24 25  2  0
 25 26  1  0
 26 27  2  0
 28 29  1  6
 28 30  1  0
 30 31  1  6
M  END
