
     RDKit          3D

 29 32  0  0  0  0  0  0  0  0999 V2000
   -3.3670   -3.0940   -0.5620 C   0  0  0  0  0  0  0  0  0  0  0  0
   -2.4410   -1.8760   -0.6560 C   0  0  0  0  0  0  0  0  0  0  0  0
   -3.1100   -0.7650    0.0780 C   0  0  2  0  0  0  0  0  0  0  0  0
   -4.4420   -0.5160   -0.6060 C   0  0  0  0  0  0  0  0  0  0  0  0
   -5.2930    0.4790    0.1140 C   0  0  2  0  0  0  0  0  0  0  0  0
   -6.3430    0.8290   -0.7630 O   0  0  0  0  0  0  0  0  0  0  0  0
   -4.5410    1.7240    0.4670 C   0  0  0  0  0  0  0  0  0  0  0  0
   -3.1630    1.4930    0.9800 C   0  0  0  0  0  0  0  0  0  0  0  0
   -2.3530    0.5160    0.1360 C   0  0  2  0  0  0  0  0  0  0  0  0
   -2.2270    1.1200   -1.2470 C   0  0  0  0  0  0  0  0  0  0  0  0
   -1.2420    2.2670   -1.2430 C   0  0  0  0  0  0  0  0  0  0  0  0
    0.1310    1.8790   -0.7410 C   0  0  0  0  0  0  0  0  0  0  0  0
    0.1160    0.4770   -0.3100 C   0  0  1  0  0  0  0  0  0  0  0  0
    1.3570   -0.0960    0.2510 C   0  0  2  0  0  0  0  0  0  0  0  0
    1.0750   -1.4530    0.5570 O   0  0  0  0  0  0  0  0  0  0  0  0
    1.6980    0.4960    1.6280 C   0  0  0  0  0  0  0  0  0  0  0  0
    2.8430   -0.2390    2.2560 C   0  0  1  0  0  0  0  0  0  0  0  0
    2.4390   -0.8740    3.5980 C   0  0  0  0  0  0  0  0  0  0  0  0
    3.4340   -1.3320    1.4470 C   0  0  2  0  0  0  0  0  0  0  0  0
    4.7500   -1.5340    1.9370 O   0  0  0  0  0  0  0  0  0  0  0  0
    3.5140   -1.1760   -0.0050 C   0  0  2  0  0  0  0  0  0  0  0  0
    4.8180   -0.8370   -0.4020 O   0  0  0  0  0  0  0  0  0  0  0  0
    2.5810   -0.0940   -0.5860 C   0  0  1  0  0  0  0  0  0  0  0  0
    2.2960   -0.5380   -1.9830 C   0  0  0  0  0  0  0  0  0  0  0  0
    3.3240   -0.0800   -2.9890 C   0  0  0  0  0  0  0  0  0  0  0  0
    3.4950    1.3010   -2.9070 O   0  0  0  0  0  0  0  0  0  0  0  0
    4.1510    1.5400   -1.7240 C   0  0  0  0  0  0  0  0  0  0  0  0
    3.3750    1.1860   -0.4870 C   0  0  0  0  0  0  0  0  0  0  0  0
   -0.9870    0.3670    0.7630 C   0  0  0  0  0  0  0  0  0  0  0  0
  1  2  1  0
  3  2  1  6
  3  4  1  0
  3  9  1  0
  4  5  1  0
  5  6  1  6
  5  7  1  0
  7  8  1  0
  9  8  1  1
  9 10  1  0
  9 29  1  0
 10 11  1  0
 11 12  1  0
 13 12  1  1
 13 14  1  0
 13 29  1  0
 14 15  1  1
 14 16  1  0
 14 23  1  0
 16 17  1  0
 17 18  1  1
 17 19  1  0
 19 20  1  1
 19 21  1  0
 21 22  1  1
 21 23  1  0
 23 24  1  6
 23 28  1  0
 24 25  1  0
 25 26  1  0
 26 27  1  0
 27 28  1  0
M  END
