
     RDKit          3D

 28 32  0  0  0  0  0  0  0  0999 V2000
   -2.8520    1.3410   -1.3940 C   0  0  0  0  0  0  0  0  0  0  0  0
   -2.1630    1.2900   -0.0800 C   0  0  2  0  0  0  0  0  0  0  0  0
   -3.2490    1.2720    0.8440 O   0  0  0  0  0  0  0  0  0  0  0  0
   -1.5290    2.6080    0.3460 C   0  0  0  0  0  0  0  0  0  0  0  0
   -0.5120    2.9690   -0.6350 C   0  0  1  0  0  0  0  0  0  0  0  0
    0.3620    4.0430   -0.0530 C   0  0  0  0  0  0  0  0  0  0  0  0
    1.3720    4.4680   -0.8770 O   0  0  0  0  0  0  0  0  0  0  0  0
    0.1270    1.7670   -1.1770 C   0  0  0  0  0  0  0  0  0  0  0  0
    0.1290    0.5040   -0.3070 C   0  0  1  0  0  0  0  0  0  0  0  0
   -0.6070   -0.7050   -0.8840 C   0  0  2  0  0  0  0  0  0  0  0  0
   -0.7010   -0.8800   -2.2980 C   0  0  0  0  0  0  0  0  0  0  0  0
    0.4270   -1.7960   -2.8280 C   0  0  0  0  0  0  0  0  0  0  0  0
    1.4590   -2.0350   -1.7060 C   0  0  0  0  0  0  0  0  0  0  0  0
    2.0820   -0.8280   -1.1910 C   0  0  2  0  0  0  0  0  0  0  0  0
    3.4760   -1.1870   -0.8330 C   0  0  0  0  0  0  0  0  0  0  0  0
    3.7160   -1.6490    0.3730 C   0  0  0  0  0  0  0  0  0  0  0  0
    2.6020   -1.7890    1.3130 C   0  0  0  0  0  0  0  0  0  0  0  0
    1.9130   -0.4020    1.3050 C   0  0  1  0  0  0  0  0  0  0  0  0
    3.0460    0.4400    1.9410 C   0  0  0  0  0  0  0  0  0  0  0  0
    3.3320   -0.0860    3.2250 O   0  0  0  0  0  0  0  0  0  0  0  0
    1.5260   -0.0070   -0.0720 C   0  0  2  0  0  0  0  0  0  0  0  0
    2.3700    1.1460   -0.2580 O   0  0  0  0  0  0  0  0  0  0  0  0
   -1.1790    0.1280    0.1390 C   0  0  2  0  0  0  0  0  0  0  0  0
   -1.7010   -0.6240    1.3250 C   0  0  2  0  0  0  0  0  0  0  0  0
   -1.1720   -1.8050    1.9010 C   0  0  0  0  0  0  0  0  0  0  0  0
   -2.3260   -2.7630    2.2640 C   0  0  0  0  0  0  0  0  0  0  0  0
   -3.1220   -2.5940    0.9860 C   0  0  0  0  0  0  0  0  0  0  0  0
   -3.1290   -1.0540    0.9270 C   0  0  0  0  0  0  0  0  0  0  0  0
  2  1  1  6
  2  3  1  0
  2  4  1  0
  2 23  1  0
  4  5  1  0
  5  6  1  1
  5  8  1  0
  6  7  1  0
  9  8  1  6
  9 10  1  0
  9 21  1  0
  9 23  1  0
 10 11  1  6
 10 23  1  0
 11 12  1  0
 12 13  1  0
 14 13  1  1
 14 15  1  0
 14 21  1  0
 15 16  2  0
 16 17  1  0
 17 18  1  0
 18 19  1  6
 18 21  1  0
 19 20  1  0
 21 22  1  6
 23 24  1  1
 24 25  1  6
 24 28  1  0
 25 26  1  0
 26 27  1  0
 27 28  1  0
M  END
