
     RDKit          3D

 31 34  0  0  0  0  0  0  0  0999 V2000
    6.9520    0.2600    2.7280 C   0  0  0  0  0  0  0  0  0  0  0  0
    5.9600    1.1270    2.7130 C   0  0  0  0  0  0  0  0  0  0  0  0
    4.6090    0.7880    2.1860 C   0  0  0  0  0  0  0  0  0  0  0  0
    4.5540   -0.5520    1.7220 O   0  0  0  0  0  0  0  0  0  0  0  0
    3.3350   -0.9800    1.2020 C   0  0  0  0  0  0  0  0  0  0  0  0
    2.2290   -0.1660    1.1360 C   0  0  0  0  0  0  0  0  0  0  0  0
    1.0110   -0.5490    0.6300 C   0  0  0  0  0  0  0  0  0  0  0  0
   -0.1530    0.3160    0.5220 C   0  0  0  0  0  0  0  0  0  0  0  0
   -1.3210   -0.0640    0.9660 C   0  0  0  0  0  0  0  0  0  0  0  0
   -1.4860   -1.3850    1.5970 C   0  0  0  0  0  0  0  0  0  0  0  0
   -2.4520    0.7920    0.8980 N   0  0  0  0  0  0  0  0  0  0  0  0
   -3.6970    0.4460    0.3340 C   0  0  0  0  0  0  0  0  0  0  0  0
   -4.7990    1.2690    0.5800 C   0  0  0  0  0  0  0  0  0  0  0  0
   -6.0290    0.9790    0.0480 C   0  0  0  0  0  0  0  0  0  0  0  0
   -6.2180   -0.1130   -0.7340 N   0  0  0  0  0  0  0  0  0  0  0  0
   -5.1910   -0.9210   -0.9910 C   0  0  0  0  0  0  0  0  0  0  0  0
   -5.4080   -2.1070   -1.8460 C   0  0  0  0  0  0  0  0  0  0  0  0
   -3.9390   -0.6420   -0.4600 C   0  0  0  0  0  0  0  0  0  0  0  0
   -0.0060    1.6160   -0.1350 C   0  0  0  0  0  0  0  0  0  0  0  0
    0.7100    2.6600    0.3050 N   0  0  0  0  0  0  0  0  0  0  0  0
    0.6230    3.6170   -0.5960 N   0  0  0  0  0  0  0  0  0  0  0  0
   -0.1300    3.2450   -1.6250 C   0  0  0  0  0  0  0  0  0  0  0  0
   -0.5540    1.9620   -1.3650 C   0  0  0  0  0  0  0  0  0  0  0  0
   -1.4030    1.4540   -2.4980 C   0  0  0  0  0  0  0  0  0  0  0  0
   -1.8230    2.7370   -3.1750 C   0  0  0  0  0  0  0  0  0  0  0  0
   -0.6850    3.7100   -2.9500 C   0  0  0  0  0  0  0  0  0  0  0  0
    0.9510   -1.8660    0.1650 C   0  0  0  0  0  0  0  0  0  0  0  0
    2.0460   -2.6920    0.2240 C   0  0  0  0  0  0  0  0  0  0  0  0
    3.2480   -2.2640    0.7410 C   0  0  0  0  0  0  0  0  0  0  0  0
    4.3040   -3.1520    0.7680 O   0  0  0  0  0  0  0  0  0  0  0  0
    4.2620   -4.4630    0.3120 C   0  0  0  0  0  0  0  0  0  0  0  0
  1  2  2  0
  2  3  1  0
  3  4  1  0
  4  5  1  0
  5  6  2  0
  5 29  1  0
  6  7  1  0
  7  8  1  0
  7 27  2  0
  8  9  2  3
  8 19  1  0
  9 10  1  0
  9 11  1  0
 11 12  1  0
 12 13  2  0
 12 18  1  0
 13 14  1  0
 14 15  2  0
 15 16  1  0
 16 17  1  0
 16 18  2  0
 19 20  1  0
 19 23  2  0
 20 21  1  0
 21 22  2  0
 22 23  1  0
 22 26  1  0
 23 24  1  0
 24 25  1  0
 25 26  1  0
 27 28  1  0
 28 29  2  0
 29 30  1  0
 30 31  1  0
M  END
