
     RDKit          3D

 29 31  0  0  0  0  0  0  0  0999 V2000
   -2.1800   -4.6490   -0.5750 C   0  0  0  0  0  0  0  0  0  0  0  0
   -1.6210   -3.2310   -0.3570 C   0  0  0  0  0  0  0  0  0  0  0  0
   -2.7610   -2.3660    0.1000 C   0  0  2  0  0  0  0  0  0  0  0  0
   -3.8410   -2.3430   -0.9420 C   0  0  0  0  0  0  0  0  0  0  0  0
   -2.3780   -1.0280    0.6340 C   0  0  2  0  0  0  0  0  0  0  0  0
   -1.5310   -1.2680    1.7430 O   0  0  0  0  0  0  0  0  0  0  0  0
   -3.6570   -0.4280    1.2330 C   0  0  0  0  0  0  0  0  0  0  0  0
   -4.2340    0.5880    0.2680 C   0  0  0  0  0  0  0  0  0  0  0  0
   -3.2580    1.7480    0.2990 C   0  0  2  0  0  0  0  0  0  0  0  0
   -3.7030    2.7640   -0.7080 C   0  0  0  0  0  0  0  0  0  0  0  0
   -5.1170    3.2390   -0.3420 C   0  0  0  0  0  0  0  0  0  0  0  0
   -5.4290    4.1890   -1.3450 O   0  0  0  0  0  0  0  0  0  0  0  0
   -1.8380    1.3160    0.1590 C   0  0  2  0  0  0  0  0  0  0  0  0
   -1.0550    2.3040   -0.6640 C   0  0  0  0  0  0  0  0  0  0  0  0
    0.1730    1.6580   -1.2500 C   0  0  0  0  0  0  0  0  0  0  0  0
    0.7010    0.7290   -0.1840 C   0  0  2  0  0  0  0  0  0  0  0  0
    2.0290    0.3860   -0.4270 O   0  0  0  0  0  0  0  0  0  0  0  0
    2.7650    0.6610    0.6970 C   0  0  1  0  0  0  0  0  0  0  0  0
    3.3770   -0.6240    1.2100 C   0  0  0  0  0  0  0  0  0  0  0  0
    4.5460   -1.0720    0.3710 C   0  0  1  0  0  0  0  0  0  0  0  0
    5.7580   -1.2360    1.2660 C   0  0  0  0  0  0  0  0  0  0  0  0
    4.1980   -2.4810   -0.1320 C   0  0  0  0  0  0  0  0  0  0  0  0
    4.7790   -0.3000   -0.7320 O   0  0  0  0  0  0  0  0  0  0  0  0
    4.9240    1.0390   -0.5110 C   0  0  2  0  0  0  0  0  0  0  0  0
    6.3140    1.4460   -0.0760 C   0  0  0  0  0  0  0  0  0  0  0  0
    3.9040    1.6210    0.4410 C   0  0  1  0  0  0  0  0  0  0  0  0
    3.4930    2.8600    0.0140 O   0  0  0  0  0  0  0  0  0  0  0  0
   -0.2010   -0.5060   -0.2750 C   0  0  0  0  0  0  0  0  0  0  0  0
   -1.6620   -0.1140   -0.2900 C   0  0  1  0  0  0  0  0  0  0  0  0
  1  2  1  0
  2  3  1  0
  3  4  1  6
  3  5  1  0
  5  6  1  1
  5  7  1  0
  5 29  1  0
  7  8  1  0
  8  9  1  0
  9 10  1  6
  9 13  1  0
 10 11  1  0
 11 12  1  0
 13 14  1  6
 13 29  1  0
 14 15  1  0
 15 16  1  0
 16 17  1  6
 16 28  1  0
 18 17  1  6
 18 19  1  0
 18 26  1  0
 19 20  1  0
 20 21  1  1
 20 22  1  0
 20 23  1  0
 23 24  1  0
 24 25  1  1
 24 26  1  0
 26 27  1  6
 29 28  1  1
M  END
