
     RDKit          3D

 29 33  0  0  0  0  0  0  0  0999 V2000
    6.8230    2.0660    2.6330 C   0  0  0  0  0  0  0  0  0  0  0  0
    6.0630    2.8110    1.5400 C   0  0  0  0  0  0  0  0  0  0  0  0
    4.9440    1.9370    1.1150 C   0  0  0  0  0  0  0  0  0  0  0  0
    5.1510    1.0470    0.0960 C   0  0  0  0  0  0  0  0  0  0  0  0
    4.1120    0.2340   -0.3000 C   0  0  0  0  0  0  0  0  0  0  0  0
    2.8660    0.2950    0.3060 C   0  0  0  0  0  0  0  0  0  0  0  0
    1.6670   -0.3980    0.1050 C   0  0  0  0  0  0  0  0  0  0  0  0
    1.4650   -1.4640   -0.8970 C   0  0  0  0  0  0  0  0  0  0  0  0
    0.1190   -2.0000   -0.9150 N   0  0  0  0  0  0  0  0  0  0  0  0
    0.1840   -3.0890   -1.9020 C   0  0  0  0  0  0  0  0  0  0  0  0
   -1.1420   -3.5370   -2.3970 C   0  0  0  0  0  0  0  0  0  0  0  0
   -1.8050   -2.4620   -3.1060 N   0  0  0  0  0  0  0  0  0  0  0  0
   -1.1050   -1.2020   -2.9100 C   0  0  0  0  0  0  0  0  0  0  0  0
   -0.7840   -0.9930   -1.4420 C   0  0  1  0  0  0  0  0  0  0  0  0
   -2.0820   -0.9830   -0.7290 C   0  0  0  0  0  0  0  0  0  0  0  0
   -2.7210    0.1960   -0.3200 C   0  0  0  0  0  0  0  0  0  0  0  0
   -3.9010   -0.1380    0.3110 C   0  0  0  0  0  0  0  0  0  0  0  0
   -4.8860    0.7560    0.8970 C   0  0  0  0  0  0  0  0  0  0  0  0
   -6.0300    0.2980    1.5030 C   0  0  0  0  0  0  0  0  0  0  0  0
   -6.9080    1.2310    2.0310 C   0  0  0  0  0  0  0  0  0  0  0  0
   -6.6470    2.5690    1.9540 C   0  0  0  0  0  0  0  0  0  0  0  0
   -5.5370    2.9920    1.3660 N   0  0  0  0  0  0  0  0  0  0  0  0
   -4.6570    2.1110    0.8380 C   0  0  0  0  0  0  0  0  0  0  0  0
   -3.9370   -1.4830    0.2650 N   0  0  0  0  0  0  0  0  0  0  0  0
   -2.8790   -1.9350   -0.3390 O   0  0  0  0  0  0  0  0  0  0  0  0
    0.8070    0.1330    1.0350 C   0  0  0  0  0  0  0  0  0  0  0  0
    1.4510    1.0960    1.7590 N   0  0  0  0  0  0  0  0  0  0  0  0
    2.7350    1.2080    1.3160 C   0  0  0  0  0  0  0  0  0  0  0  0
    3.7530    2.0070    1.7060 N   0  0  0  0  0  0  0  0  0  0  0  0
  1  2  1  0
  2  3  1  0
  3  4  2  0
  3 29  1  0
  4  5  1  0
  5  6  2  0
  6  7  1  0
  6 28  1  0
  7  8  1  0
  7 26  2  0
  8  9  1  0
  9 10  1  0
  9 14  1  0
 10 11  1  0
 11 12  1  0
 12 13  1  0
 13 14  1  0
 14 15  1  1
 15 16  2  0
 15 25  1  0
 16 17  1  0
 17 18  1  0
 17 24  2  0
 18 19  2  0
 18 23  1  0
 19 20  1  0
 20 21  2  0
 21 22  1  0
 22 23  2  0
 24 25  1  0
 26 27  1  0
 27 28  1  0
 28 29  2  0
M  CHG  1  12   1
M  END
