
     RDKit          3D

 29 33  0  0  0  0  0  0  0  0999 V2000
    9.3350   -2.4740   -0.6930 C   0  0  0  0  0  0  0  0  0  0  0  0
    8.9430   -1.0840   -0.2750 C   0  0  0  0  0  0  0  0  0  0  0  0
    7.5050   -0.9370   -0.2860 N   0  0  0  0  0  0  0  0  0  0  0  0
    7.0960    0.3950    0.1130 C   0  0  0  0  0  0  0  0  0  0  0  0
    5.6180    0.5360    0.1000 C   0  0  0  0  0  0  0  0  0  0  0  0
    4.8940    1.6640    0.4220 C   0  0  0  0  0  0  0  0  0  0  0  0
    3.5520    1.3530    0.2730 C   0  0  0  0  0  0  0  0  0  0  0  0
    3.5380    0.0270   -0.1410 C   0  0  0  0  0  0  0  0  0  0  0  0
    2.2960   -0.5390   -0.3660 C   0  0  0  0  0  0  0  0  0  0  0  0
    1.1170    0.1540   -0.1970 C   0  0  0  0  0  0  0  0  0  0  0  0
    1.1420    1.4580    0.2110 C   0  0  0  0  0  0  0  0  0  0  0  0
    0.1700    2.3990    0.4660 C   0  0  0  0  0  0  0  0  0  0  0  0
   -1.2660    2.2190    0.3530 C   0  0  0  0  0  0  0  0  0  0  0  0
   -2.2070    3.1450    0.6050 N   0  0  0  0  0  0  0  0  0  0  0  0
   -3.3980    2.6170    0.3930 N   0  0  0  0  0  0  0  0  0  0  0  0
   -3.2510    1.3420    0.0020 C   0  0  0  0  0  0  0  0  0  0  0  0
   -4.3190    0.3460   -0.3510 C   0  0  2  0  0  0  0  0  0  0  0  0
   -5.6290    0.8770    0.1270 C   0  0  0  0  0  0  0  0  0  0  0  0
   -6.8110    0.1310   -0.4600 C   0  0  0  0  0  0  0  0  0  0  0  0
   -7.1460   -1.1250    0.2680 C   0  0  0  0  0  0  0  0  0  0  0  0
   -6.7080   -2.3710   -0.4930 C   0  0  0  0  0  0  0  0  0  0  0  0
   -5.3440   -2.8460    0.0270 C   0  0  0  0  0  0  0  0  0  0  0  0
   -4.2490   -1.9850   -0.5660 C   0  0  0  0  0  0  0  0  0  0  0  0
   -3.9500   -0.8920    0.3150 N   0  0  0  0  0  0  0  0  0  0  0  0
   -1.9170    1.1090   -0.0180 N   0  0  0  0  0  0  0  0  0  0  0  0
    0.8160    3.5560    0.8520 C   0  0  0  0  0  0  0  0  0  0  0  0
    2.1430    3.3070    0.8260 N   0  0  0  0  0  0  0  0  0  0  0  0
    2.3770    2.0490    0.4440 C   0  0  0  0  0  0  0  0  0  0  0  0
    4.7700   -0.3970   -0.2250 O   0  0  0  0  0  0  0  0  0  0  0  0
  1  2  1  0
  2  3  1  0
  3  4  1  0
  4  5  1  0
  5  6  2  0
  5 29  1  0
  6  7  1  0
  7  8  2  0
  7 28  1  0
  8  9  1  0
  8 29  1  0
  9 10  2  0
 10 11  1  0
 11 12  1  0
 11 28  2  0
 12 13  1  0
 12 26  2  0
 13 14  2  0
 13 25  1  0
 14 15  1  0
 15 16  1  0
 17 16  1  1
 16 25  2  0
 17 18  1  0
 17 24  1  0
 18 19  1  0
 19 20  1  0
 20 21  1  0
 21 22  1  0
 22 23  1  0
 23 24  1  0
 26 27  1  0
 27 28  1  0
M  CHG  1  24   1
M  END
