
     RDKit          3D

 29 33  0  0  0  0  0  0  0  0999 V2000
    2.3480   -1.9550   -1.9920 O   0  0  0  0  0  0  0  0  0  0  0  0
    2.4220   -1.2660   -0.9690 C   0  0  0  0  0  0  0  0  0  0  0  0
    3.6180   -1.3160   -0.1920 N   0  0  0  0  0  0  0  0  0  0  0  0
    4.7390   -2.1510   -0.5770 C   0  0  0  0  0  0  0  0  0  0  0  0
    5.8510   -2.0050    0.4090 C   0  0  0  0  0  0  0  0  0  0  0  0
    6.3010   -0.6010    0.4460 C   0  0  0  0  0  0  0  0  0  0  0  0
    5.8750    0.3970    1.2720 C   0  0  0  0  0  0  0  0  0  0  0  0
    6.5770    1.5480    0.9300 C   0  0  0  0  0  0  0  0  0  0  0  0
    7.4210    1.2120   -0.1080 C   0  0  0  0  0  0  0  0  0  0  0  0
    7.2310   -0.0890   -0.3760 N   0  0  0  0  0  0  0  0  0  0  0  0
    1.3540   -0.4360   -0.5530 N   0  0  0  0  0  0  0  0  0  0  0  0
    0.1720   -0.4370   -1.3900 C   0  0  0  0  0  0  0  0  0  0  0  0
   -0.8580    0.5520   -0.9620 C   0  0  0  0  0  0  0  0  0  0  0  0
   -0.9330    0.4980    0.5620 C   0  0  2  0  0  0  0  0  0  0  0  0
   -2.2030    1.1060    1.0770 C   0  0  1  0  0  0  0  0  0  0  0  0
   -2.4120    2.4580    0.7540 N   0  0  0  0  0  0  0  0  0  0  0  0
   -3.1760    2.7480   -0.4090 C   0  0  0  0  0  0  0  0  0  0  0  0
   -4.4480    1.9750   -0.5480 C   0  0  0  0  0  0  0  0  0  0  0  0
   -4.3440    0.6230   -0.0500 N   0  0  0  0  0  0  0  0  0  0  0  0
   -3.3250    0.2080    0.6950 C   0  0  0  0  0  0  0  0  0  0  0  0
   -3.5740   -1.0910    0.9650 N   0  0  0  0  0  0  0  0  0  0  0  0
   -4.7140   -1.4750    0.4060 C   0  0  0  0  0  0  0  0  0  0  0  0
   -5.4040   -2.6680    0.3780 C   0  0  0  0  0  0  0  0  0  0  0  0
   -6.6030   -2.8080   -0.2960 C   0  0  0  0  0  0  0  0  0  0  0  0
   -7.1140   -1.7040   -0.9580 C   0  0  0  0  0  0  0  0  0  0  0  0
   -6.4150   -0.5020   -0.9280 C   0  0  0  0  0  0  0  0  0  0  0  0
   -5.2210   -0.3890   -0.2490 C   0  0  0  0  0  0  0  0  0  0  0  0
    0.3130    1.1460    1.0540 C   0  0  0  0  0  0  0  0  0  0  0  0
    1.4980    0.3410    0.6430 C   0  0  0  0  0  0  0  0  0  0  0  0
  1  2  2  0
  2  3  1  0
  2 11  1  0
  3  4  1  0
  4  5  1  0
  5  6  1  0
  6  7  2  0
  6 10  1  0
  7  8  1  0
  8  9  2  0
  9 10  1  0
 11 12  1  0
 11 29  1  0
 12 13  1  0
 14 13  1  6
 14 15  1  0
 14 28  1  0
 15 16  1  6
 15 20  1  0
 16 17  1  0
 17 18  1  0
 18 19  1  0
 19 20  1  0
 19 27  1  0
 20 21  2  0
 21 22  1  0
 22 23  2  0
 22 27  1  0
 23 24  1  0
 24 25  2  0
 25 26  1  0
 26 27  2  0
 28 29  1  0
M  CHG  1  16   1
M  END
