
     RDKit          3D

 29 33  0  0  0  0  0  0  0  0999 V2000
   -6.4980    1.7530   -1.8850 C   0  0  0  0  0  0  0  0  0  0  0  0
   -5.4330    0.9290   -1.2040 C   0  0  0  0  0  0  0  0  0  0  0  0
   -4.1240    1.2850   -1.3180 C   0  0  0  0  0  0  0  0  0  0  0  0
   -3.0950    0.5580   -0.7070 C   0  0  0  0  0  0  0  0  0  0  0  0
   -3.4130   -0.5490    0.0310 C   0  0  0  0  0  0  0  0  0  0  0  0
   -4.7640   -0.9070    0.1430 C   0  0  0  0  0  0  0  0  0  0  0  0
   -5.7620   -0.1780   -0.4660 C   0  0  0  0  0  0  0  0  0  0  0  0
   -5.0720   -2.0110    0.9090 C   0  0  0  0  0  0  0  0  0  0  0  0
   -6.4930   -2.4180    1.0490 C   0  0  0  0  0  0  0  0  0  0  0  0
   -4.1310   -2.7290    1.5310 N   0  0  0  0  0  0  0  0  0  0  0  0
   -2.8290   -2.4080    1.4390 C   0  0  0  0  0  0  0  0  0  0  0  0
   -1.7140   -2.9670    1.9770 N   0  0  0  0  0  0  0  0  0  0  0  0
   -0.6930   -2.2400    1.5630 C   0  0  0  0  0  0  0  0  0  0  0  0
   -1.1170   -1.1710    0.7310 C   0  0  0  0  0  0  0  0  0  0  0  0
   -0.1560   -0.2550    0.1840 C   0  0  0  0  0  0  0  0  0  0  0  0
    1.1580   -0.1490    0.6390 N   0  0  0  0  0  0  0  0  0  0  0  0
    1.8230    0.7810   -0.0440 C   0  0  0  0  0  0  0  0  0  0  0  0
    3.2310    1.2240    0.1010 C   0  0  2  0  0  0  0  0  0  0  0  0
    3.2220    2.5620    0.8060 C   0  0  0  0  0  0  0  0  0  0  0  0
    3.8420    1.3380   -1.2140 N   0  0  0  0  0  0  0  0  0  0  0  0
    5.2330    1.7000   -1.0070 C   0  0  0  0  0  0  0  0  0  0  0  0
    6.0590    0.5160   -0.7320 C   0  0  0  0  0  0  0  0  0  0  0  0
    7.4100    0.5260   -0.4940 C   0  0  0  0  0  0  0  0  0  0  0  0
    7.8260   -0.7710   -0.2780 C   0  0  0  0  0  0  0  0  0  0  0  0
    6.7620   -1.5840   -0.3780 N   0  0  0  0  0  0  0  0  0  0  0  0
    5.6850   -0.8240   -0.6510 C   0  0  0  0  0  0  0  0  0  0  0  0
    0.9080    1.2570   -0.9330 N   0  0  0  0  0  0  0  0  0  0  0  0
   -0.1940    0.6200   -0.7440 O   0  0  0  0  0  0  0  0  0  0  0  0
   -2.4610   -1.3050    0.6780 C   0  0  0  0  0  0  0  0  0  0  0  0
  1  2  1  0
  2  3  2  0
  2  7  1  0
  3  4  1  0
  4  5  2  0
  5  6  1  0
  5 29  1  0
  6  7  2  0
  6  8  1  0
  8  9  1  0
  8 10  2  0
 10 11  1  0
 11 12  1  0
 11 29  2  0
 12 13  1  0
 13 14  2  0
 14 15  1  0
 14 29  1  0
 15 16  2  0
 15 28  1  0
 16 17  1  0
 17 18  1  0
 17 27  2  0
 18 19  1  6
 18 20  1  0
 20 21  1  0
 21 22  1  0
 22 23  1  0
 22 26  2  0
 23 24  2  0
 24 25  1  0
 25 26  1  0
 27 28  1  0
M  CHG  1  20   1
M  END
