
     RDKit          3D

 29 33  0  0  0  0  0  0  0  0999 V2000
    7.0720    0.8220   -2.7990 O   0  0  0  0  0  0  0  0  0  0  0  0
    5.9190    0.9300   -2.3430 C   0  0  0  0  0  0  0  0  0  0  0  0
    5.0860    1.9620   -2.5270 N   0  0  0  0  0  0  0  0  0  0  0  0
    3.9320    1.7060   -1.8750 C   0  0  0  0  0  0  0  0  0  0  0  0
    2.7570    2.3870   -1.7170 C   0  0  0  0  0  0  0  0  0  0  0  0
    1.7210    1.8700   -0.9760 C   0  0  0  0  0  0  0  0  0  0  0  0
    1.8280    0.6440   -0.3640 C   0  0  0  0  0  0  0  0  0  0  0  0
    0.7660    0.0870    0.3970 N   0  0  0  0  0  0  0  0  0  0  0  0
   -0.5780    0.6040    0.4570 C   0  0  1  0  0  0  0  0  0  0  0  0
   -1.2980    0.4900   -0.8660 C   0  0  0  0  0  0  0  0  0  0  0  0
   -2.7780    0.6710   -0.5760 C   0  0  0  0  0  0  0  0  0  0  0  0
   -3.3200   -0.5380    0.0590 N   0  0  2  0  0  0  0  0  0  0  0  0
   -4.6290   -0.2990    0.5590 C   0  0  1  0  0  0  0  0  0  0  0  0
   -5.7080   -0.5760   -0.4970 C   0  0  0  0  0  0  0  0  0  0  0  0
   -6.9000    0.2860   -0.1490 C   0  0  0  0  0  0  0  0  0  0  0  0
   -6.9920    0.4570    1.3600 C   0  0  0  0  0  0  0  0  0  0  0  0
   -6.5330   -0.8440    1.9720 C   0  0  0  0  0  0  0  0  0  0  0  0
   -5.0160   -1.0190    1.7920 C   0  0  0  0  0  0  0  0  0  0  0  0
   -2.3800   -1.0830    1.0000 C   0  0  0  0  0  0  0  0  0  0  0  0
   -1.3900   -0.0720    1.5080 C   0  0  0  0  0  0  0  0  0  0  0  0
    3.0100   -0.0530   -0.5150 C   0  0  0  0  0  0  0  0  0  0  0  0
    4.0360    0.4770   -1.2580 C   0  0  0  0  0  0  0  0  0  0  0  0
    5.2750    0.0200   -1.5650 N   0  0  0  0  0  0  0  0  0  0  0  0
    5.7880   -1.2470   -1.1120 C   0  0  0  0  0  0  0  0  0  0  0  0
    6.4660   -1.0520    0.1860 C   0  0  0  0  0  0  0  0  0  0  0  0
    7.7970   -0.7500    0.3520 C   0  0  0  0  0  0  0  0  0  0  0  0
    7.9830   -0.6630    1.6780 N   0  0  0  0  0  0  0  0  0  0  0  0
    6.8150   -0.9020    2.2920 C   0  0  0  0  0  0  0  0  0  0  0  0
    5.8540   -1.1470    1.3780 N   0  0  0  0  0  0  0  0  0  0  0  0
  1  2  2  0
  2  3  1  0
  2 23  1  0
  3  4  1  0
  4  5  2  0
  4 22  1  0
  5  6  1  0
  6  7  2  0
  7  8  1  0
  7 21  1  0
  9  8  1  6
  9 10  1  0
  9 20  1  0
 10 11  1  0
 12 11  1  1
 12 13  1  0
 12 19  1  0
 13 14  1  6
 13 18  1  0
 14 15  1  0
 15 16  1  0
 16 17  1  0
 17 18  1  0
 19 20  1  0
 21 22  2  0
 22 23  1  0
 23 24  1  0
 24 25  1  0
 25 26  2  0
 25 29  1  0
 26 27  1  0
 27 28  1  0
 28 29  2  0
M  CHG  2  12   1  29   1
M  END
