
     RDKit          3D

 30 32  0  0  0  0  0  0  0  0999 V2000
    7.4170    1.7720    0.1950 C   0  0  0  0  0  0  0  0  0  0  0  0
    6.4300    0.9160   -0.4850 C   0  0  0  0  0  0  0  0  0  0  0  0
    5.1320    0.6030   -0.1710 C   0  0  0  0  0  0  0  0  0  0  0  0
    4.6610   -0.2420   -1.1460 C   0  0  0  0  0  0  0  0  0  0  0  0
    3.3090   -0.8280   -1.2050 C   0  0  0  0  0  0  0  0  0  0  0  0
    2.4180   -0.5610   -0.2720 C   0  0  0  0  0  0  0  0  0  0  0  0
    1.0930   -1.1450   -0.3440 C   0  0  0  0  0  0  0  0  0  0  0  0
    0.7330   -1.9170   -1.2770 O   0  0  0  0  0  0  0  0  0  0  0  0
    0.1180   -0.8710    0.6510 N   0  0  0  0  0  0  0  0  0  0  0  0
   -1.1960   -1.4300    0.6090 C   0  0  1  0  0  0  0  0  0  0  0  0
   -1.4380   -2.3880    1.7770 C   0  0  0  0  0  0  0  0  0  0  0  0
   -0.4470   -3.5300    1.7420 C   0  0  0  0  0  0  0  0  0  0  0  0
   -0.5990   -4.2250    0.5400 O   0  0  0  0  0  0  0  0  0  0  0  0
   -2.2650   -0.4040    0.5440 C   0  0  0  0  0  0  0  0  0  0  0  0
   -2.2430    0.7120    1.3550 C   0  0  0  0  0  0  0  0  0  0  0  0
   -3.2380    1.6660    1.2950 C   0  0  0  0  0  0  0  0  0  0  0  0
   -4.2700    1.4840    0.3980 C   0  0  0  0  0  0  0  0  0  0  0  0
   -4.3480    0.3840   -0.4430 C   0  0  0  0  0  0  0  0  0  0  0  0
   -5.4200    0.2230   -1.3540 N   0  0  0  0  0  0  0  0  0  0  0  0
   -5.4910   -0.9200   -2.2200 C   0  0  2  0  0  0  0  0  0  0  0  0
   -6.6170   -0.8610   -3.0140 F   0  0  0  0  0  0  0  0  0  0  0  0
   -5.6200   -2.0880   -1.4580 F   0  0  0  0  0  0  0  0  0  0  0  0
   -4.4050   -1.0120   -3.0690 F   0  0  0  0  0  0  0  0  0  0  0  0
   -3.3190   -0.5390   -0.3350 C   0  0  0  0  0  0  0  0  0  0  0  0
   -5.2290    2.6230    0.4960 C   0  0  0  0  0  0  0  0  0  0  0  0
   -4.9780    3.0970    1.9130 C   0  0  0  0  0  0  0  0  0  0  0  0
   -3.4730    2.9420    2.0280 C   0  0  0  0  0  0  0  0  0  0  0  0
    5.6350   -0.4220   -2.0020 O   0  0  0  0  0  0  0  0  0  0  0  0
    6.7030    0.2310   -1.6720 C   0  0  0  0  0  0  0  0  0  0  0  0
    8.0040    0.2610   -2.4110 C   0  0  0  0  0  0  0  0  0  0  0  0
  1  2  1  0
  2  3  1  0
  2 29  2  0
  3  4  2  0
  4  5  1  0
  4 28  1  0
  5  6  2  3
  6  7  1  0
  7  8  2  0
  7  9  1  0
  9 10  1  0
 10 11  1  1
 10 14  1  0
 11 12  1  0
 12 13  1  0
 14 15  2  0
 14 24  1  0
 15 16  1  0
 16 17  2  0
 16 27  1  0
 17 18  1  0
 17 25  1  0
 18 19  1  0
 18 24  2  0
 19 20  1  0
 20 21  1  6
 20 22  1  0
 20 23  1  0
 25 26  1  0
 26 27  1  0
 28 29  1  0
 29 30  1  0
M  END
