
     RDKit          3D

 29 31  0  0  0  0  0  0  0  0999 V2000
    4.3530   -1.3940   -1.1390 C   0  0  0  0  0  0  0  0  0  0  0  0
    4.8920   -0.6270    0.0260 C   0  0  0  0  0  0  0  0  0  0  0  0
    6.1530   -0.8940    0.5040 C   0  0  0  0  0  0  0  0  0  0  0  0
    6.8810   -1.8760   -0.0740 F   0  0  0  0  0  0  0  0  0  0  0  0
    6.7490   -0.2030    1.5520 C   0  0  0  0  0  0  0  0  0  0  0  0
    5.9910    0.8050    2.1200 C   0  0  0  0  0  0  0  0  0  0  0  0
    6.5740    1.4930    3.1340 F   0  0  0  0  0  0  0  0  0  0  0  0
    4.7350    1.0780    1.6570 C   0  0  0  0  0  0  0  0  0  0  0  0
    4.1640    0.3800    0.6140 C   0  0  0  0  0  0  0  0  0  0  0  0
    2.7750    0.6500    0.1690 C   0  0  0  0  0  0  0  0  0  0  0  0
    2.5930    1.8000   -0.3820 O   0  0  0  0  0  0  0  0  0  0  0  0
    1.7020   -0.2300    0.3130 N   0  0  0  0  0  0  0  0  0  0  0  0
    0.3870    0.0520   -0.1110 C   0  0  0  0  0  0  0  0  0  0  0  0
   -0.5300   -1.0030   -0.2830 C   0  0  0  0  0  0  0  0  0  0  0  0
   -1.8130   -0.7600   -0.6840 C   0  0  0  0  0  0  0  0  0  0  0  0
   -2.8670   -1.7430   -0.9010 C   0  0  0  0  0  0  0  0  0  0  0  0
   -2.6450   -3.1400   -0.4970 C   0  0  2  0  0  0  0  0  0  0  0  0
   -3.9470   -3.9030   -0.8850 C   0  0  0  0  0  0  0  0  0  0  0  0
   -2.5110   -3.3760    0.9940 C   0  0  0  0  0  0  0  0  0  0  0  0
   -2.1990    0.5780   -0.9240 C   0  0  0  0  0  0  0  0  0  0  0  0
   -1.3110    1.5910   -0.7560 C   0  0  0  0  0  0  0  0  0  0  0  0
   -0.0300    1.3440   -0.3540 C   0  0  0  0  0  0  0  0  0  0  0  0
   -1.9220    2.9180   -1.0720 C   0  0  2  0  0  0  0  0  0  0  0  0
   -1.7670    3.8690    0.0910 C   0  0  0  0  0  0  0  0  0  0  0  0
   -2.4340    3.3020    1.2900 C   0  0  0  0  0  0  0  0  0  0  0  0
   -2.9960    2.1820    1.3450 O   0  0  0  0  0  0  0  0  0  0  0  0
   -2.4440    4.0620    2.4480 O   0  0  0  0  0  0  0  0  0  0  0  0
   -3.3630    2.6160   -1.3000 C   0  0  0  0  0  0  0  0  0  0  0  0
   -3.4210    1.1570   -1.3490 N   0  0  0  0  0  0  0  0  0  0  0  0
  1  2  1  0
  2  3  2  0
  2  9  1  0
  3  4  1  0
  3  5  1  0
  5  6  2  0
  6  7  1  0
  6  8  1  0
  8  9  2  0
  9 10  1  0
 10 11  2  0
 10 12  1  0
 12 13  1  0
 13 14  2  0
 13 22  1  0
 14 15  1  0
 15 16  1  0
 15 20  2  0
 16 17  1  0
 17 18  1  1
 17 19  1  0
 20 21  1  0
 20 29  1  0
 21 22  2  0
 21 23  1  0
 23 24  1  1
 23 28  1  0
 24 25  1  0
 25 26  2  0
 25 27  1  0
 28 29  1  0
M  END
