
     RDKit          3D

 29 31  0  0  0  0  0  0  0  0999 V2000
   -3.8000    0.3350    1.9880 C   0  0  0  0  0  0  0  0  0  0  0  0
   -4.2720   -0.5630    0.8550 C   0  0  1  0  0  0  0  0  0  0  0  0
   -4.4000   -1.9640    1.4610 C   0  0  1  0  0  0  0  0  0  0  0  0
   -5.3300   -1.8490    2.4820 F   0  0  0  0  0  0  0  0  0  0  0  0
   -4.8390   -2.8070    0.4600 F   0  0  0  0  0  0  0  0  0  0  0  0
   -3.1560   -2.3120    1.9390 F   0  0  0  0  0  0  0  0  0  0  0  0
   -5.6490   -0.1740    0.3780 C   0  0  0  0  0  0  0  0  0  0  0  0
   -5.5320    1.1290   -0.3820 C   0  0  0  0  0  0  0  0  0  0  0  0
   -4.7300    0.8800   -1.5890 C   0  0  0  0  0  0  0  0  0  0  0  0
   -5.1360    1.3340   -2.6830 O   0  0  0  0  0  0  0  0  0  0  0  0
   -3.4670    0.0960   -1.4650 C   0  0  0  0  0  0  0  0  0  0  0  0
   -2.4910   -0.0240   -2.3770 C   0  0  0  0  0  0  0  0  0  0  0  0
   -1.4000   -0.7740   -2.1250 C   0  0  0  0  0  0  0  0  0  0  0  0
   -0.2020   -1.0990   -2.8800 C   0  0  0  0  0  0  0  0  0  0  0  0
    0.8930   -0.1910   -2.7460 N   0  0  0  0  0  0  0  0  0  0  0  0
    1.5030    0.0620   -1.4530 C   0  0  0  0  0  0  0  0  0  0  0  0
    0.9980   -0.5680   -0.5020 O   0  0  0  0  0  0  0  0  0  0  0  0
    2.5760    0.9510   -1.3130 N   0  0  0  0  0  0  0  0  0  0  0  0
    3.2290    1.2240   -0.0700 C   0  0  0  0  0  0  0  0  0  0  0  0
    3.9290    0.0690    0.5860 C   0  0  1  0  0  0  0  0  0  0  0  0
    3.0300   -0.9340    0.8780 O   0  0  0  0  0  0  0  0  0  0  0  0
    4.9830   -0.4440   -0.2980 C   0  0  0  0  0  0  0  0  0  0  0  0
    6.3260    0.0620   -0.0150 C   0  0  0  0  0  0  0  0  0  0  0  0
    6.1080    1.1450    1.3730 S   0  0  1  0  0  0  0  0  0  0  0  0
    7.1430    0.9140    2.4280 O   0  0  0  0  0  0  0  0  0  0  0  0
    6.0700    2.5810    0.9340 O   0  0  0  0  0  0  0  0  0  0  0  0
    4.5020    0.5690    1.8730 C   0  0  0  0  0  0  0  0  0  0  0  0
   -1.7140   -1.4190   -0.4160 S   0  0  0  0  0  0  0  0  0  0  0  0
   -3.3320   -0.5550   -0.2770 C   0  0  0  0  0  0  0  0  0  0  0  0
  2  1  1  1
  2  3  1  0
  2  7  1  0
  2 29  1  0
  3  4  1  1
  3  5  1  0
  3  6  1  0
  7  8  1  0
  8  9  1  0
  9 10  2  0
  9 11  1  0
 11 12  1  0
 11 29  2  0
 12 13  2  0
 13 14  1  0
 13 28  1  0
 14 15  1  0
 15 16  1  0
 16 17  2  0
 16 18  1  0
 18 19  1  0
 19 20  1  0
 20 21  1  1
 20 22  1  0
 20 27  1  0
 22 23  1  0
 24 23  1  6
 24 25  2  0
 24 26  2  0
 24 27  1  0
 28 29  1  0
M  END
