
     RDKit          3D

 28 29  0  0  0  0  0  0  0  0999 V2000
   -6.8250    0.2200    0.7510 N   0  0  0  0  0  0  0  0  0  0  0  0
   -5.9710   -0.1810    1.8390 C   0  0  0  0  0  0  0  0  0  0  0  0
   -6.4260   -0.9580    2.7220 O   0  0  0  0  0  0  0  0  0  0  0  0
   -4.6180    0.2810    1.9400 C   0  0  0  0  0  0  0  0  0  0  0  0
   -4.0430    1.1060    1.0530 C   0  0  0  0  0  0  0  0  0  0  0  0
   -5.0350    1.6470   -0.3230 S   0  0  0  0  0  0  0  0  0  0  0  0
   -2.6540    1.5510    1.2180 C   0  0  0  0  0  0  0  0  0  0  0  0
   -1.7290    1.2990    0.0940 C   0  0  0  0  0  0  0  0  0  0  0  0
   -1.4770   -0.0800   -0.3480 C   0  0  1  0  0  0  0  0  0  0  0  0
   -0.5320   -0.1050   -1.4260 O   0  0  0  0  0  0  0  0  0  0  0  0
    0.7480    0.3360   -1.2930 C   0  0  0  0  0  0  0  0  0  0  0  0
    1.1740    0.7790   -0.2220 O   0  0  0  0  0  0  0  0  0  0  0  0
    1.7000    0.3240   -2.3710 N   0  0  0  0  0  0  0  0  0  0  0  0
    3.0430    0.7820   -2.2480 C   0  0  0  0  0  0  0  0  0  0  0  0
    3.7980    0.0180   -1.2200 C   0  0  0  0  0  0  0  0  0  0  0  0
    4.3830    0.4300   -0.1260 C   0  0  0  0  0  0  0  0  0  0  0  0
    5.0390   -0.5520    0.6700 C   0  0  0  0  0  0  0  0  0  0  0  0
    6.0370   -0.2980    1.5390 C   0  0  0  0  0  0  0  0  0  0  0  0
    6.5370    1.1110    1.7260 C   0  0  2  0  0  0  0  0  0  0  0  0
    7.8290    1.0900    2.2130 F   0  0  0  0  0  0  0  0  0  0  0  0
    5.7330    1.7800    2.6090 F   0  0  0  0  0  0  0  0  0  0  0  0
    6.6110    1.7590    0.4910 F   0  0  0  0  0  0  0  0  0  0  0  0
    4.5380   -1.9390    0.4770 C   0  0  0  0  0  0  0  0  0  0  0  0
    4.0550   -1.7580   -1.2960 S   0  0  0  0  0  0  0  0  0  0  0  0
   -1.1100   -1.0660    0.7230 C   0  0  0  0  0  0  0  0  0  0  0  0
   -1.4900   -2.3780    0.0580 C   0  0  0  0  0  0  0  0  0  0  0  0
   -2.0750   -2.0680   -1.1680 O   0  0  0  0  0  0  0  0  0  0  0  0
   -2.6860   -0.7970   -0.9620 C   0  0  0  0  0  0  0  0  0  0  0  0
  1  2  1  0
  2  3  2  0
  2  4  1  0
  4  5  2  3
  5  6  1  0
  5  7  1  0
  7  8  1  0
  9  8  1  1
  9 10  1  0
  9 25  1  0
  9 28  1  0
 10 11  1  0
 11 12  2  0
 11 13  1  0
 13 14  1  0
 14 15  1  0
 15 16  2  0
 15 24  1  0
 16 17  1  0
 17 18  2  3
 17 23  1  0
 18 19  1  0
 19 20  1  1
 19 21  1  0
 19 22  1  0
 23 24  1  0
 25 26  1  0
 26 27  1  0
 27 28  1  0
M  END
