
     RDKit          3D

 30 32  0  0  0  0  0  0  0  0999 V2000
   -4.6090   -2.7620   -1.5260 C   0  0  0  0  0  0  0  0  0  0  0  0
   -4.2560   -1.7840   -0.6530 C   0  0  0  0  0  0  0  0  0  0  0  0
   -5.3170   -1.2470   -0.0280 O   0  0  0  0  0  0  0  0  0  0  0  0
   -6.6700   -1.6550   -0.1830 C   0  0  0  0  0  0  0  0  0  0  0  0
   -2.8750   -1.4940   -0.5220 C   0  0  0  0  0  0  0  0  0  0  0  0
   -2.2610   -0.5870    0.1790 C   0  0  0  0  0  0  0  0  0  0  0  0
   -2.9110    0.3850    1.0290 C   0  0  0  0  0  0  0  0  0  0  0  0
   -2.2040    1.2300    1.8250 C   0  0  0  0  0  0  0  0  0  0  0  0
   -3.0690    2.1320    2.5870 C   0  0  0  0  0  0  0  0  0  0  0  0
   -4.4100    1.8020    2.1270 C   0  0  0  0  0  0  0  0  0  0  0  0
   -4.2620    0.7810    1.2330 C   0  0  0  0  0  0  0  0  0  0  0  0
   -0.7910   -0.4010   -0.0620 C   0  0  0  0  0  0  0  0  0  0  0  0
   -0.0310   -1.0250   -0.9000 C   0  0  0  0  0  0  0  0  0  0  0  0
    1.4100   -0.8040   -1.0880 C   0  0  0  0  0  0  0  0  0  0  0  0
    2.0550    0.1660   -0.3030 N   0  0  0  0  0  0  0  0  0  0  0  0
    3.4550    0.3680   -0.5000 C   0  0  0  0  0  0  0  0  0  0  0  0
    4.1750   -0.3680   -1.4400 C   0  0  0  0  0  0  0  0  0  0  0  0
    5.5180   -0.1520   -1.6060 C   0  0  0  0  0  0  0  0  0  0  0  0
    6.2230    0.7810   -0.8760 C   0  0  0  0  0  0  0  0  0  0  0  0
    7.6130    0.9840   -1.0690 N   0  0  0  0  0  0  0  0  0  0  0  0
    5.4780    1.5020    0.0560 C   0  0  0  0  0  0  0  0  0  0  0  0
    4.1300    1.3050    0.2430 C   0  0  0  0  0  0  0  0  0  0  0  0
    3.4020    2.0320    1.1760 O   0  0  0  0  0  0  0  0  0  0  0  0
    4.0690    3.0040    1.9550 C   0  0  0  0  0  0  0  0  0  0  0  0
    4.6450    3.9920    1.1980 F   0  0  0  0  0  0  0  0  0  0  0  0
   -0.6960   -2.0290   -1.8190 C   0  0  2  0  0  0  0  0  0  0  0  0
    0.1420   -3.1120   -1.9950 F   0  0  0  0  0  0  0  0  0  0  0  0
   -0.9700   -1.4800   -3.0350 F   0  0  0  0  0  0  0  0  0  0  0  0
   -1.9120   -2.5090   -1.1400 C   0  0  0  0  0  0  0  0  0  0  0  0
   -2.1820   -3.7310   -1.0490 O   0  0  0  0  0  0  0  0  0  0  0  0
  1  2  2  0
  2  3  1  0
  2  5  1  0
  3  4  1  0
  5  6  2  0
  5 29  1  0
  6  7  1  0
  6 12  1  0
  7  8  2  0
  7 11  1  0
  8  9  1  0
  9 10  1  0
 10 11  2  0
 12 13  2  0
 13 14  1  0
 13 26  1  0
 14 15  1  0
 15 16  1  0
 16 17  2  0
 16 22  1  0
 17 18  1  0
 18 19  2  0
 19 20  1  0
 19 21  1  0
 21 22  2  0
 22 23  1  0
 23 24  1  0
 24 25  1  0
 26 27  1  6
 26 28  1  0
 26 29  1  0
 29 30  2  0
M  END
