
     RDKit          3D

 30 32  0  0  0  0  0  0  0  0999 V2000
    2.8400   -1.7490   -2.2770 C   0  0  0  0  0  0  0  0  0  0  0  0
    2.6050   -1.4850   -0.8170 C   0  0  2  0  0  0  0  0  0  0  0  0
    1.9140   -0.2090   -0.7160 N   0  0  0  0  0  0  0  0  0  0  0  0
    0.6320   -0.1310   -0.1170 C   0  0  0  0  0  0  0  0  0  0  0  0
    0.1120   -1.1800    0.3220 O   0  0  0  0  0  0  0  0  0  0  0  0
   -0.0220    1.1640   -0.0370 C   0  0  0  0  0  0  0  0  0  0  0  0
   -1.2100    1.2380    0.5190 C   0  0  0  0  0  0  0  0  0  0  0  0
   -1.7760    0.0020    1.0120 N   0  0  0  0  0  0  0  0  0  0  0  0
   -2.6230   -0.7610    0.1560 C   0  0  0  0  0  0  0  0  0  0  0  0
   -2.9180   -0.3520   -1.1320 C   0  0  0  0  0  0  0  0  0  0  0  0
   -3.7450   -1.1520   -1.8860 C   0  0  0  0  0  0  0  0  0  0  0  0
   -4.2920   -2.3330   -1.4290 C   0  0  0  0  0  0  0  0  0  0  0  0
   -3.9810   -2.7170   -0.1400 C   0  0  0  0  0  0  0  0  0  0  0  0
   -3.1560   -1.9430    0.6480 C   0  0  0  0  0  0  0  0  0  0  0  0
   -2.8400   -2.3250    1.9450 O   0  0  0  0  0  0  0  0  0  0  0  0
   -1.9740    2.4830    0.6600 C   0  0  0  0  0  0  0  0  0  0  0  0
   -3.2220    2.4930    1.2550 C   0  0  0  0  0  0  0  0  0  0  0  0
   -3.9680    3.6440    1.4050 C   0  0  0  0  0  0  0  0  0  0  0  0
   -5.1880    3.5920    1.9980 F   0  0  0  0  0  0  0  0  0  0  0  0
   -3.4540    4.8440    0.9430 C   0  0  0  0  0  0  0  0  0  0  0  0
   -2.2130    4.8300    0.3510 C   0  0  0  0  0  0  0  0  0  0  0  0
   -1.7250    6.0100   -0.0950 F   0  0  0  0  0  0  0  0  0  0  0  0
   -1.4690    3.6570    0.2060 C   0  0  0  0  0  0  0  0  0  0  0  0
    3.8780   -1.3400   -0.0680 C   0  0  0  0  0  0  0  0  0  0  0  0
    5.0260   -1.4490   -0.7120 C   0  0  0  0  0  0  0  0  0  0  0  0
    6.3190   -1.3140   -0.0220 C   0  0  0  0  0  0  0  0  0  0  0  0
    6.2220   -1.0660    1.3430 O   0  0  0  0  0  0  0  0  0  0  0  0
    5.0460   -0.9500    2.0260 C   0  0  0  0  0  0  0  0  0  0  0  0
    3.9010   -1.0800    1.3550 C   0  0  0  0  0  0  0  0  0  0  0  0
    2.7040   -0.9690    2.0110 F   0  0  0  0  0  0  0  0  0  0  0  0
  2  1  1  6
  2  3  1  0
  2 24  1  0
  3  4  1  0
  4  5  2  0
  4  6  1  0
  6  7  2  3
  7  8  1  0
  7 16  1  0
  8  9  1  0
  9 10  2  0
  9 14  1  0
 10 11  1  0
 11 12  2  0
 12 13  1  0
 13 14  2  0
 14 15  1  0
 16 17  2  0
 16 23  1  0
 17 18  1  0
 18 19  1  0
 18 20  2  0
 20 21  1  0
 21 22  1  0
 21 23  2  0
 24 25  2  0
 24 29  1  0
 25 26  1  0
 26 27  1  0
 27 28  1  0
 28 29  2  0
 29 30  1  0
M  END
