
     RDKit          3D

 29 31  0  0  0  0  0  0  0  0999 V2000
    1.5350    5.7940    1.0120 C   0  0  0  0  0  0  0  0  0  0  0  0
    0.5110    4.8560    0.5850 N   0  0  0  0  0  0  0  0  0  0  0  0
    0.7690    3.5060    0.2680 C   0  0  0  0  0  0  0  0  0  0  0  0
    1.9210    3.0350    0.3540 O   0  0  0  0  0  0  0  0  0  0  0  0
   -0.3180    2.6690   -0.1710 N   0  0  0  0  0  0  0  0  0  0  0  0
   -0.0780    1.3220   -0.5320 C   0  0  0  0  0  0  0  0  0  0  0  0
   -0.8530    0.3750   -0.9610 C   0  0  0  0  0  0  0  0  0  0  0  0
   -2.6390    0.7230   -1.1980 S   0  0  0  0  0  0  0  0  0  0  0  0
   -3.5300   -0.8240   -1.4950 C   0  0  0  0  0  0  0  0  0  0  0  0
   -3.7920   -1.5890   -0.2540 C   0  0  1  0  0  0  0  0  0  0  0  0
   -2.7330   -1.8880    0.5630 O   0  0  0  0  0  0  0  0  0  0  0  0
   -5.1210   -1.3180    0.3920 C   0  0  2  0  0  0  0  0  0  0  0  0
   -5.4710    0.0440    0.8740 C   0  0  0  0  0  0  0  0  0  0  0  0
   -5.2480   -1.1110    1.8440 C   0  0  0  0  0  0  0  0  0  0  0  0
   -0.3240   -0.8970   -1.2350 C   0  0  0  0  0  0  0  0  0  0  0  0
   -0.9330   -1.9110   -1.6660 O   0  0  0  0  0  0  0  0  0  0  0  0
    1.1270   -1.0220   -0.9750 C   0  0  0  0  0  0  0  0  0  0  0  0
    1.8970   -2.0680   -1.1940 C   0  0  0  0  0  0  0  0  0  0  0  0
    1.3280   -3.2080   -1.7480 O   0  0  0  0  0  0  0  0  0  0  0  0
    3.3150   -2.0350   -0.8500 C   0  0  0  0  0  0  0  0  0  0  0  0
    4.3950   -2.2910   -1.6490 C   0  0  0  0  0  0  0  0  0  0  0  0
    5.5050   -2.1130   -0.8180 C   0  0  0  0  0  0  0  0  0  0  0  0
    5.0410   -1.7650    0.4410 C   0  0  0  0  0  0  0  0  0  0  0  0
    5.7990   -1.4790    1.6600 C   0  0  2  0  0  0  0  0  0  0  0  0
    5.2380   -0.4730    2.4300 F   0  0  0  0  0  0  0  0  0  0  0  0
    7.0920   -1.0910    1.3440 F   0  0  0  0  0  0  0  0  0  0  0  0
    5.8110   -2.6540    2.4040 F   0  0  0  0  0  0  0  0  0  0  0  0
    3.7500   -1.7310    0.3870 O   0  0  0  0  0  0  0  0  0  0  0  0
    1.5690    0.5780   -0.3830 S   0  0  0  0  0  0  0  0  0  0  0  0
  1  2  1  0
  2  3  1  0
  3  4  2  0
  3  5  1  0
  5  6  1  0
  6  7  2  0
  6 29  1  0
  7  8  1  0
  7 15  1  0
  8  9  1  0
  9 10  1  0
 10 11  1  1
 10 12  1  0
 12 13  1  6
 12 14  1  0
 13 14  1  0
 15 16  2  0
 15 17  1  0
 17 18  2  3
 17 29  1  0
 18 19  1  0
 18 20  1  0
 20 21  2  0
 20 28  1  0
 21 22  1  0
 22 23  2  0
 23 24  1  0
 23 28  1  0
 24 25  1  1
 24 26  1  0
 24 27  1  0
M  END
