
     RDKit          3D

 14 14  0  0  0  0  0  0  0  0999 V2000
    4.6850   -0.2430    0.4200 N   0  0  0  0  0  0  0  0  0  0  0  0
    3.3090   -0.5760    0.5420 C   0  0  0  0  0  0  0  0  0  0  0  0
    2.3830   -0.0230   -0.2130 C   0  0  0  0  0  0  0  0  0  0  0  0
    2.7640    0.9130   -1.1550 O   0  0  0  0  0  0  0  0  0  0  0  0
    0.9450   -0.3640   -0.0930 C   0  0  2  0  0  0  0  0  0  0  0  0
    0.5540   -0.8710   -1.3490 O   0  0  0  0  0  0  0  0  0  0  0  0
    0.1940    0.9060    0.1770 C   0  0  2  0  0  0  0  0  0  0  0  0
    0.5780    1.4100    1.4190 O   0  0  0  0  0  0  0  0  0  0  0  0
   -1.2930    0.7520    0.0770 C   0  0  2  0  0  0  0  0  0  0  0  0
   -1.8570   -0.1360    1.1670 C   0  0  0  0  0  0  0  0  0  0  0  0
   -3.2350    0.1350    1.1900 O   0  0  0  0  0  0  0  0  0  0  0  0
   -3.8290   -0.1400   -0.0290 C   0  0  0  0  0  0  0  0  0  0  0  0
   -2.8650   -0.4480   -1.1270 C   0  0  0  0  0  0  0  0  0  0  0  0
   -1.7080    0.2600   -1.1270 O   0  0  0  0  0  0  0  0  0  0  0  0
  1  2  1  0
  2  3  2  3
  3  4  1  0
  3  5  1  0
  5  6  1  6
  5  7  1  0
  7  8  1  1
  7  9  1  0
  9 10  1  1
  9 14  1  0
 10 11  1  0
 11 12  1  0
 12 13  1  0
 13 14  1  0
M  END
