
     RDKit          3D

 15 15  0  0  0  0  0  0  0  0999 V2000
   -4.1620    1.3350    1.1430 C   0  0  0  0  0  0  0  0  0  0  0  0
   -3.0600    1.1740    0.1430 C   0  0  0  0  0  0  0  0  0  0  0  0
   -3.2020    1.5220   -1.0600 O   0  0  0  0  0  0  0  0  0  0  0  0
   -1.7990    0.6210    0.5040 N   0  0  0  0  0  0  0  0  0  0  0  0
   -0.7170    0.4550   -0.4460 C   0  0  1  0  0  0  0  0  0  0  0  0
    0.4780    1.3140   -0.0930 C   0  0  2  0  0  0  0  0  0  0  0  0
    1.1310    1.8100   -1.2110 O   0  0  0  0  0  0  0  0  0  0  0  0
    1.3260    0.7140    0.8180 O   0  0  0  0  0  0  0  0  0  0  0  0
    1.8120   -0.5080    0.4210 C   0  0  2  0  0  0  0  0  0  0  0  0
    3.3150   -0.5060    0.3740 C   0  0  0  0  0  0  0  0  0  0  0  0
    3.8110   -1.7350   -0.0260 O   0  0  0  0  0  0  0  0  0  0  0  0
    1.1830   -1.0200   -0.8480 C   0  0  1  0  0  0  0  0  0  0  0  0
    1.5660   -2.3550   -1.0120 O   0  0  0  0  0  0  0  0  0  0  0  0
   -0.3310   -0.9800   -0.6300 C   0  0  2  0  0  0  0  0  0  0  0  0
   -0.9680   -1.5060   -1.7380 O   0  0  0  0  0  0  0  0  0  0  0  0
  1  2  1  0
  2  3  2  0
  2  4  1  0
  5  4  1  1
  5  6  1  0
  5 14  1  0
  6  7  1  6
  6  8  1  0
  8  9  1  0
  9 10  1  6
  9 12  1  0
 10 11  1  0
 12 13  1  1
 12 14  1  0
 14 15  1  6
M  END
