
     RDKit          3D

 15 15  0  0  0  0  0  0  0  0999 V2000
    2.8920    1.2850    1.6020 C   0  0  0  0  0  0  0  0  0  0  0  0
    2.5040    1.4210    0.2680 O   0  0  0  0  0  0  0  0  0  0  0  0
    2.2030    0.2200   -0.3210 C   0  0  2  0  0  0  0  0  0  0  0  0
    3.0780    0.0550   -1.4090 O   0  0  0  0  0  0  0  0  0  0  0  0
    0.8100    0.2850   -0.9020 C   0  0  1  0  0  0  0  0  0  0  0  0
    0.3830   -0.9810   -1.5700 C   0  0  0  0  0  0  0  0  0  0  0  0
   -1.1000   -1.1280   -1.2830 C   0  0  1  0  0  0  0  0  0  0  0  0
   -1.3780   -2.2390   -0.5190 O   0  0  0  0  0  0  0  0  0  0  0  0
   -1.5050    0.1750   -0.5800 C   0  0  1  0  0  0  0  0  0  0  0  0
   -2.6750    0.0100    0.2760 C   0  0  0  0  0  0  0  0  0  0  0  0
   -3.7070    0.6870    0.0320 O   0  0  0  0  0  0  0  0  0  0  0  0
   -2.7460   -0.8700    1.3860 N   0  0  0  0  0  0  0  0  0  0  0  0
   -3.8950   -0.9530    2.1320 O   0  0  0  0  0  0  0  0  0  0  0  0
   -0.2370    0.4920    0.1750 C   0  0  2  0  0  0  0  0  0  0  0  0
   -0.1570    1.8220    0.5540 O   0  0  0  0  0  0  0  0  0  0  0  0
  1  2  1  0
  2  3  1  0
  3  4  1  6
  3  5  1  0
  5  6  1  1
  5 14  1  0
  6  7  1  0
  7  8  1  1
  7  9  1  0
  9 10  1  1
  9 14  1  0
 10 11  2  0
 10 12  1  0
 12 13  1  0
 14 15  1  6
M  END
