
     RDKit          3D

 15 15  0  0  0  0  0  0  0  0999 V2000
    4.3950    0.5680   -0.3120 N   0  0  0  0  0  0  0  0  0  0  0  0
    3.4040   -0.4680   -0.5460 C   0  0  2  0  0  0  0  0  0  0  0  0
    2.9800   -0.4750   -1.8550 O   0  0  0  0  0  0  0  0  0  0  0  0
    2.2280   -0.2310    0.3720 C   0  0  1  0  0  0  0  0  0  0  0  0
    1.6540    0.9930    0.1440 O   0  0  0  0  0  0  0  0  0  0  0  0
    1.2640   -1.3910    0.3430 C   0  0  0  0  0  0  0  0  0  0  0  0
    0.2710   -1.3240    1.2760 O   0  0  0  0  0  0  0  0  0  0  0  0
   -0.5720   -0.2560    1.2290 C   0  0  0  0  0  0  0  0  0  0  0  0
   -1.3230   -0.1580   -0.1070 C   0  0  1  0  0  0  0  0  0  0  0  0
   -2.0470   -1.3370   -0.2230 O   0  0  0  0  0  0  0  0  0  0  0  0
   -3.4020   -1.1770   -0.0570 C   0  0  0  0  0  0  0  0  0  0  0  0
   -3.8420   -0.3120   -1.0780 O   0  0  0  0  0  0  0  0  0  0  0  0
   -3.4920    0.9620   -0.7040 C   0  0  0  0  0  0  0  0  0  0  0  0
   -2.1530    1.0720   -0.0610 C   0  0  2  0  0  0  0  0  0  0  0  0
   -1.4400    2.0940   -0.7200 O   0  0  0  0  0  0  0  0  0  0  0  0
  2  1  1  6
  2  3  1  0
  2  4  1  0
  4  5  1  6
  4  6  1  0
  6  7  1  0
  7  8  1  0
  9  8  1  1
  9 10  1  0
  9 14  1  0
 10 11  1  0
 11 12  1  0
 12 13  1  0
 13 14  1  0
 14 15  1  6
M  END
