
     RDKit          3D

 15 15  0  0  0  0  0  0  0  0999 V2000
    2.6410   -0.5360    1.2160 C   0  0  0  0  0  0  0  0  0  0  0  0
    1.8840    0.3200    0.2300 C   0  0  2  0  0  0  0  0  0  0  0  0
    0.7640   -0.2960   -0.2740 O   0  0  0  0  0  0  0  0  0  0  0  0
   -0.4000    0.4290   -0.1400 C   0  0  0  0  0  0  0  0  0  0  0  0
   -1.5210   -0.4000   -0.7460 C   0  0  1  0  0  0  0  0  0  0  0  0
   -1.2800   -0.6590   -2.0900 O   0  0  0  0  0  0  0  0  0  0  0  0
   -1.6070   -1.6790    0.0640 C   0  0  0  0  0  0  0  0  0  0  0  0
   -2.4710   -1.3630    1.1500 O   0  0  0  0  0  0  0  0  0  0  0  0
   -3.1320   -0.1720    0.9020 C   0  0  0  0  0  0  0  0  0  0  0  0
   -3.8130    0.4490    1.7460 O   0  0  0  0  0  0  0  0  0  0  0  0
   -2.8730    0.1830   -0.4940 C   0  0  1  0  0  0  0  0  0  0  0  0
   -2.9680    1.5890   -0.7720 N   0  0  0  0  0  0  0  0  0  0  0  0
    2.8340    0.5430   -0.9560 C   0  0  1  0  0  0  0  0  0  0  0  0
    4.0030    1.1650   -0.5450 O   0  0  0  0  0  0  0  0  0  0  0  0
    3.1590   -0.7510   -1.4150 O   0  0  0  0  0  0  0  0  0  0  0  0
  2  1  1  1
  2  3  1  0
  2 13  1  0
  3  4  1  0
  4  5  1  0
  5  6  1  6
  5  7  1  0
  5 11  1  0
  7  8  1  0
  8  9  1  0
  9 10  2  0
  9 11  1  0
 11 12  1  1
 13 14  1  1
 13 15  1  0
M  END
