
     RDKit          3D

 15 16  0  0  0  0  0  0  0  0999 V2000
    3.7500    0.2820    1.1690 C   0  0  0  0  0  0  0  0  0  0  0  0
    2.7610    0.1160    0.1750 O   0  0  0  0  0  0  0  0  0  0  0  0
    1.4770   -0.3390    0.4710 C   0  0  0  0  0  0  0  0  0  0  0  0
    1.2530   -0.5940    1.6770 O   0  0  0  0  0  0  0  0  0  0  0  0
    0.5350   -0.4740   -0.6280 C   0  0  1  0  0  0  0  0  0  0  0  0
    1.1710   -0.2300   -1.8800 O   0  0  0  0  0  0  0  0  0  0  0  0
   -0.0280   -1.9010   -0.7320 C   0  0  0  0  0  0  0  0  0  0  0  0
   -1.4170   -1.7790   -0.8110 O   0  0  0  0  0  0  0  0  0  0  0  0
   -1.6480   -0.7330    0.0130 C   0  0  2  0  0  0  0  0  0  0  0  0
   -2.8680    0.0410   -0.0510 C   0  0  0  0  0  0  0  0  0  0  0  0
   -2.4610    1.4060    0.2250 N   0  0  0  0  0  0  0  0  0  0  0  0
   -0.9800    1.3880    0.3050 C   0  0  1  0  0  0  0  0  0  0  0  0
   -0.6650    1.0700    1.6120 O   0  0  0  0  0  0  0  0  0  0  0  0
   -0.6880    0.3030   -0.6220 C   0  0  1  0  0  0  0  0  0  0  0  0
   -1.1720    0.6480   -1.8910 O   0  0  0  0  0  0  0  0  0  0  0  0
  1  2  1  0
  2  3  1  0
  3  4  2  0
  3  5  1  0
  5  6  1  6
  5  7  1  0
  5 14  1  0
  7  8  1  0
  8  9  1  0
  9 10  1  6
  9 14  1  0
 10 11  1  0
 11 12  1  0
 12 13  1  1
 12 14  1  0
 14 15  1  6
M  END
