
     RDKit          3D

 15 15  0  0  0  0  0  0  0  0999 V2000
    4.2840    0.2040    0.2280 C   0  0  0  0  0  0  0  0  0  0  0  0
    2.9020    0.3910    0.3030 O   0  0  0  0  0  0  0  0  0  0  0  0
    2.3230   -0.5970   -0.5050 C   0  0  0  0  0  0  0  0  0  0  0  0
    0.8400   -0.4190   -0.4420 C   0  0  2  0  0  0  0  0  0  0  0  0
    0.2040   -1.3930   -1.2420 O   0  0  0  0  0  0  0  0  0  0  0  0
    0.3840    0.9270   -0.9680 C   0  0  0  0  0  0  0  0  0  0  0  0
   -1.0280    0.8550   -0.9760 O   0  0  0  0  0  0  0  0  0  0  0  0
   -1.4500    0.7060    0.3300 C   0  0  1  0  0  0  0  0  0  0  0  0
   -2.9420    0.9010    0.4610 C   0  0  1  0  0  0  0  0  0  0  0  0
   -3.2360    2.1800    0.0280 O   0  0  0  0  0  0  0  0  0  0  0  0
   -3.7110   -0.1470   -0.2910 C   0  0  0  0  0  0  0  0  0  0  0  0
   -3.3340   -1.3950    0.2290 O   0  0  0  0  0  0  0  0  0  0  0  0
   -1.0550   -0.5230    0.8860 O   0  0  0  0  0  0  0  0  0  0  0  0
    0.3220   -0.4800    0.9900 C   0  0  1  0  0  0  0  0  0  0  0  0
    0.8950   -1.5330    1.7530 N   0  0  0  0  0  0  0  0  0  0  0  0
  1  2  1  0
  2  3  1  0
  3  4  1  0
  4  5  1  6
  4  6  1  0
  4 14  1  0
  6  7  1  0
  8  7  1  6
  8  9  1  0
  8 13  1  0
  9 10  1  6
  9 11  1  0
 11 12  1  0
 13 14  1  0
 14 15  1  6
M  END
