
     RDKit          3D

 33 36  0  0  0  0  0  0  0  0999 V2000
    4.4070   -1.8650   -0.7770 C   0  0  0  0  0  0  0  0  0  0  0  0
    3.4800   -0.6960   -0.8940 C   0  0  0  0  0  0  0  0  0  0  0  0
    2.1730   -1.1540   -1.0710 O   0  0  0  0  0  0  0  0  0  0  0  0
    1.0660    0.1800   -1.2110 P   0  0  0  0  0  0  0  0  0  0  0  0
    1.9680    1.6310   -1.2530 O   0  0  0  0  0  0  0  0  0  0  0  0
   -0.1390    0.1390    0.2260 C   0  0  1  0  0  0  0  0  0  0  0  0
   -0.2350   -1.2820    0.5980 N   0  0  0  0  0  0  0  0  0  0  0  0
    0.6580   -1.8810    1.2670 C   0  0  0  0  0  0  0  0  0  0  0  0
    1.4860   -1.1820    2.1850 N   0  0  0  0  0  0  0  0  0  0  0  0
    1.2850    0.0870    2.3030 C   0  0  0  0  0  0  0  0  0  0  0  0
    0.5190    0.8050    1.3350 N   0  0  0  0  0  0  0  0  0  0  0  0
    0.3580    2.2160    1.4030 C   0  0  0  0  0  0  0  0  0  0  0  0
    1.1870    2.9060    2.0360 O   0  0  0  0  0  0  0  0  0  0  0  0
   -0.8230    2.7960    0.6950 C   0  0  2  0  0  0  0  0  0  0  0  0
   -0.4300    3.6680   -0.4410 C   0  0  0  0  0  0  0  0  0  0  0  0
   -1.1080    4.8990   -0.2910 O   0  0  0  0  0  0  0  0  0  0  0  0
   -1.5120    5.0260    1.0220 C   0  0  0  0  0  0  0  0  0  0  0  0
   -1.9180    6.0890    1.5410 O   0  0  0  0  0  0  0  0  0  0  0  0
   -1.3840    3.7760    1.6420 N   0  0  0  0  0  0  0  0  0  0  0  0
   -1.8010    1.8870    0.4460 O   0  0  0  0  0  0  0  0  0  0  0  0
   -1.4580    0.7130   -0.1300 C   0  0  1  0  0  0  0  0  0  0  0  0
   -1.6300    0.8550   -1.5280 O   0  0  0  0  0  0  0  0  0  0  0  0
   -3.2340    1.5410   -1.7190 P   0  0  0  0  0  0  0  0  0  0  0  0
   -4.3700    1.2430   -0.7130 O   0  0  0  0  0  0  0  0  0  0  0  0
   -2.4400   -0.2430    0.2330 O   0  0  0  0  0  0  0  0  0  0  0  0
   -2.1720   -1.3140   -0.4870 O   0  0  0  0  0  0  0  0  0  0  0  0
   -3.2940   -2.0760   -0.7480 C   0  0  0  0  0  0  0  0  0  0  0  0
   -2.8820   -3.3490   -1.1430 O   0  0  0  0  0  0  0  0  0  0  0  0
   -2.9300   -4.1930   -0.1380 O   0  0  0  0  0  0  0  0  0  0  0  0
   -2.0210   -3.8300    0.7270 O   0  0  0  0  0  0  0  0  0  0  0  0
   -0.4310   -4.2460    0.1790 P   0  0  0  0  0  0  0  0  0  0  0  0
   -0.2690   -4.0420   -1.5340 O   0  0  0  0  0  0  0  0  0  0  0  0
    0.8010   -3.2970    1.0610 N   0  0  0  0  0  0  0  0  0  0  0  0
  1  2  1  0
  2  3  1  0
  3  4  1  0
  4  5  1  0
  6  4  1  6
  6  7  1  0
  6 11  1  0
  6 21  1  0
  7  8  2  0
  8  9  1  0
  8 33  1  0
  9 10  2  0
 10 11  1  0
 11 12  1  0
 12 13  2  0
 12 14  1  0
 14 15  1  6
 14 19  1  0
 14 20  1  0
 15 16  1  0
 16 17  1  0
 17 18  2  0
 17 19  1  0
 20 21  1  0
 21 22  1  6
 21 25  1  0
 22 23  1  0
 23 24  2  0
 25 26  1  0
 26 27  1  0
 27 28  1  0
 28 29  1  0
 29 30  1  0
 30 31  1  0
 31 32  1  0
 31 33  1  0
M  END
