
     RDKit          3D

 33 33  0  0  0  0  0  0  0  0999 V2000
    2.7880    0.9160   -1.3810 N   0  0  0  0  0  0  0  0  0  0  0  0
    2.3260    1.1300   -0.1930 C   0  0  0  0  0  0  0  0  0  0  0  0
    3.0470    0.5830    0.9250 N   0  0  0  0  0  0  0  0  0  0  0  0
    4.3200   -0.6460    0.7470 P   0  0  0  0  0  0  0  0  0  0  0  0
    4.0510   -1.7290   -0.5560 O   0  0  0  0  0  0  0  0  0  0  0  0
    5.8520    0.1320    0.6930 O   0  0  0  0  0  0  0  0  0  0  0  0
    6.6860   -0.1120   -0.7950 P   0  0  0  0  0  0  0  0  0  0  0  0
    6.4400    1.3100   -1.7870 O   0  0  0  0  0  0  0  0  0  0  0  0
    6.0890   -1.5220   -1.6120 O   0  0  0  0  0  0  0  0  0  0  0  0
    1.1480    1.8780    0.0420 N   0  0  0  0  0  0  0  0  0  0  0  0
    0.5420    1.8560    1.3450 C   0  0  0  0  0  0  0  0  0  0  0  0
    0.1870    0.4930    1.6590 N   0  0  0  0  0  0  0  0  0  0  0  0
   -0.4270    0.3190    2.9290 C   0  0  0  0  0  0  0  0  0  0  0  0
   -1.9070    0.0600    2.6710 C   0  0  0  0  0  0  0  0  0  0  0  0
   -1.9650   -1.2050    2.1150 O   0  0  0  0  0  0  0  0  0  0  0  0
   -1.3340   -1.2980    0.8940 C   0  0  1  0  0  0  0  0  0  0  0  0
   -0.5710   -2.5740    0.8770 C   0  0  0  0  0  0  0  0  0  0  0  0
    0.0890   -2.8680   -0.1510 O   0  0  0  0  0  0  0  0  0  0  0  0
   -0.5460   -3.4610    1.9350 O   0  0  0  0  0  0  0  0  0  0  0  0
   -2.4220   -1.4350   -0.1630 C   0  0  2  0  0  0  0  0  0  0  0  0
   -3.2600   -0.3020   -0.1200 O   0  0  0  0  0  0  0  0  0  0  0  0
   -3.3710    0.5520   -1.2240 C   0  0  0  0  0  0  0  0  0  0  0  0
   -2.6990    0.2790   -2.2630 O   0  0  0  0  0  0  0  0  0  0  0  0
   -4.2250    1.6640   -1.1130 N   0  0  0  0  0  0  0  0  0  0  0  0
   -4.3600    2.5500   -2.2170 C   0  0  0  0  0  0  0  0  0  0  0  0
   -3.7090    2.3210   -3.2780 O   0  0  0  0  0  0  0  0  0  0  0  0
   -5.1960    3.6580   -2.1370 O   0  0  0  0  0  0  0  0  0  0  0  0
   -3.1970   -2.6740    0.0080 C   0  0  0  0  0  0  0  0  0  0  0  0
   -2.6110   -3.7920   -0.0030 O   0  0  0  0  0  0  0  0  0  0  0  0
   -4.5650   -2.5930    0.1790 O   0  0  0  0  0  0  0  0  0  0  0  0
   -0.4000   -0.1860    0.5720 C   0  0  0  0  0  0  0  0  0  0  0  0
    0.4220    2.8390   -1.2690 P   0  0  0  0  0  0  0  0  0  0  0  0
    0.6890    2.4790   -2.7600 O   0  0  0  0  0  0  0  0  0  0  0  0
  1  2  2  0
  2  3  1  0
  2 10  1  0
  3  4  1  0
  4  5  1  0
  4  6  1  0
  6  7  1  0
  7  8  1  0
  7  9  1  0
 10 11  1  0
 10 32  1  0
 11 12  1  0
 12 13  1  0
 12 31  1  0
 13 14  1  0
 14 15  1  0
 15 16  1  0
 16 17  1  1
 16 20  1  0
 16 31  1  0
 17 18  2  0
 17 19  1  0
 20 21  1  1
 20 28  1  0
 21 22  1  0
 22 23  2  0
 22 24  1  0
 24 25  1  0
 25 26  2  0
 25 27  1  0
 28 29  2  0
 28 30  1  0
 32 33  2  0
M  END
