
     RDKit          3D

 32 33  0  0  0  0  0  0  0  0999 V2000
    2.9870   -0.6580    3.6470 N   0  0  0  0  0  0  0  0  0  0  0  0
    2.7840   -0.8200    2.2530 C   0  0  0  0  0  0  0  0  0  0  0  0
    3.2250   -1.8630    1.7160 O   0  0  0  0  0  0  0  0  0  0  0  0
    2.1180    0.1150    1.4200 N   0  0  0  0  0  0  0  0  0  0  0  0
    1.9430   -0.1070    0.0110 C   0  0  1  0  0  0  0  0  0  0  0  0
    3.5440   -0.2190   -0.9080 P   0  0  0  0  0  0  0  0  0  0  0  0
    3.8270   -1.9060   -1.2640 O   0  0  0  0  0  0  0  0  0  0  0  0
    5.4880   -2.3000   -0.9230 P   0  0  0  0  0  0  0  0  0  0  0  0
    6.1160   -1.6550    0.3600 O   0  0  0  0  0  0  0  0  0  0  0  0
    4.8590    0.4830   -0.0600 O   0  0  0  0  0  0  0  0  0  0  0  0
    5.7200    1.6470   -1.0230 P   0  0  0  0  0  0  0  0  0  0  0  0
    6.0440    1.0040   -2.6210 O   0  0  0  0  0  0  0  0  0  0  0  0
    4.7280    3.0690   -1.2650 O   0  0  0  0  0  0  0  0  0  0  0  0
    1.1350   -1.3980   -0.1670 C   0  0  0  0  0  0  0  0  0  0  0  0
    0.0390   -1.2620    0.6810 O   0  0  0  0  0  0  0  0  0  0  0  0
   -0.8590   -0.3350    0.1480 C   0  0  2  0  0  0  0  0  0  0  0  0
   -1.4280    0.5050    1.2880 C   0  0  0  0  0  0  0  0  0  0  0  0
   -2.6560    1.1740    0.8930 N   0  0  0  0  0  0  0  0  0  0  0  0
   -2.8630    2.5660    1.0940 C   0  0  0  0  0  0  0  0  0  0  0  0
   -4.0800    3.1580    0.6870 N   0  0  0  0  0  0  0  0  0  0  0  0
   -2.0030    3.3130    1.6240 O   0  0  0  0  0  0  0  0  0  0  0  0
   -3.6660    0.3790    0.2880 C   0  0  0  0  0  0  0  0  0  0  0  0
   -4.8770    0.7170    0.3780 O   0  0  0  0  0  0  0  0  0  0  0  0
   -3.3060   -0.8020   -0.4230 N   0  0  0  0  0  0  0  0  0  0  0  0
   -4.3660   -1.5840   -1.0250 C   0  0  0  0  0  0  0  0  0  0  0  0
   -4.6620   -1.1460   -2.4390 C   0  0  0  0  0  0  0  0  0  0  0  0
   -5.6990   -1.9770   -2.9030 O   0  0  0  0  0  0  0  0  0  0  0  0
   -1.9460   -1.1380   -0.4970 C   0  0  0  0  0  0  0  0  0  0  0  0
   -1.5990   -2.1640   -1.1340 O   0  0  0  0  0  0  0  0  0  0  0  0
   -0.2650    0.5550   -0.7560 O   0  0  0  0  0  0  0  0  0  0  0  0
    1.0570    0.9520   -0.5640 C   0  0  0  0  0  0  0  0  0  0  0  0
    1.4670    2.1030   -0.8500 O   0  0  0  0  0  0  0  0  0  0  0  0
  1  2  1  0
  2  3  2  0
  2  4  1  0
  5  4  1  1
  5  6  1  0
  5 14  1  0
  5 31  1  0
  6  7  1  0
  6 10  1  0
  7  8  1  0
  8  9  2  0
 10 11  1  0
 11 12  1  0
 11 13  1  0
 14 15  1  0
 15 16  1  0
 16 17  1  1
 16 28  1  0
 16 30  1  0
 17 18  1  0
 18 19  1  0
 18 22  1  0
 19 20  1  0
 19 21  2  0
 22 23  2  0
 22 24  1  0
 24 25  1  0
 24 28  1  0
 25 26  1  0
 26 27  1  0
 28 29  2  0
 30 31  1  0
 31 32  2  0
M  END
