
     RDKit          3D

 33 33  0  0  0  0  0  0  0  0999 V2000
   -4.2930    2.6050   -5.4410 O   0  0  0  0  0  0  0  0  0  0  0  0
   -4.7920    3.4900   -4.2530 P   0  0  0  0  0  0  0  0  0  0  0  0
   -5.1620    2.7010   -2.7700 O   0  0  0  0  0  0  0  0  0  0  0  0
   -5.2440    3.5510   -1.6940 C   0  0  0  0  0  0  0  0  0  0  0  0
   -5.5670    2.7800   -0.4560 C   0  0  0  0  0  0  0  0  0  0  0  0
   -4.5110    1.8160   -0.2360 N   0  0  0  0  0  0  0  0  0  0  0  0
   -4.5400    0.9840    0.8240 C   0  0  0  0  0  0  0  0  0  0  0  0
   -5.5390    1.0530    1.6550 O   0  0  0  0  0  0  0  0  0  0  0  0
   -3.7120    0.0260    1.2520 N   0  0  0  0  0  0  0  0  0  0  0  0
   -2.8850   -0.9210    1.6680 C   0  0  0  0  0  0  0  0  0  0  0  0
   -3.3600   -1.4430    2.7580 O   0  0  0  0  0  0  0  0  0  0  0  0
   -1.7140   -1.4200    1.2070 N   0  0  0  0  0  0  0  0  0  0  0  0
   -1.0220   -2.4770    1.8830 C   0  0  0  0  0  0  0  0  0  0  0  0
    0.2300   -2.7910    1.1100 C   0  0  1  0  0  0  0  0  0  0  0  0
    1.0450   -1.6360    1.0560 O   0  0  0  0  0  0  0  0  0  0  0  0
    1.4160   -1.0320   -0.1220 C   0  0  0  0  0  0  0  0  0  0  0  0
    1.0140   -1.5240   -1.2230 O   0  0  0  0  0  0  0  0  0  0  0  0
    2.2320    0.1270   -0.2130 N   0  0  0  0  0  0  0  0  0  0  0  0
    2.5780    0.7030   -1.4750 C   0  0  1  0  0  0  0  0  0  0  0  0
    2.1640    2.1780   -1.5660 C   0  0  0  0  0  0  0  0  0  0  0  0
    2.9300    2.5820   -2.6580 O   0  0  0  0  0  0  0  0  0  0  0  0
    4.1170    1.9020   -2.5500 C   0  0  1  0  0  0  0  0  0  0  0  0
    5.1650    2.8550   -2.1020 C   0  0  0  0  0  0  0  0  0  0  0  0
    4.9110    4.0690   -1.8820 O   0  0  0  0  0  0  0  0  0  0  0  0
    6.5080    2.4320   -1.9000 N   0  0  0  0  0  0  0  0  0  0  0  0
    7.4520    3.3100   -1.4920 O   0  0  0  0  0  0  0  0  0  0  0  0
    3.9510    0.8350   -1.6780 O   0  0  0  0  0  0  0  0  0  0  0  0
    1.0460   -4.1940    1.9800 P   0  0  0  0  0  0  0  0  0  0  0  0
    1.3840   -5.5170    0.9380 O   0  0  0  0  0  0  0  0  0  0  0  0
    2.4570   -3.6520    2.8300 O   0  0  0  0  0  0  0  0  0  0  0  0
    2.4490   -4.4550    4.3820 P   0  0  0  0  0  0  0  0  0  0  0  0
    2.2350   -6.1600    4.0490 O   0  0  0  0  0  0  0  0  0  0  0  0
    1.1220   -3.8600    5.3320 O   0  0  0  0  0  0  0  0  0  0  0  0
  1  2  2  0
  2  3  1  0
  3  4  1  0
  4  5  1  0
  5  6  1  0
  6  7  1  0
  7  8  2  0
  7  9  1  0
  9 10  1  0
 10 11  2  0
 10 12  1  0
 12 13  1  0
 14 13  1  1
 14 15  1  0
 14 28  1  0
 15 16  1  0
 16 17  2  0
 16 18  1  0
 19 18  1  1
 19 20  1  0
 19 27  1  0
 20 21  1  0
 21 22  1  0
 22 23  1  1
 22 27  1  0
 23 24  2  0
 23 25  1  0
 25 26  1  0
 28 29  1  0
 28 30  1  0
 30 31  1  0
 31 32  1  0
 31 33  1  0
M  END
