
     RDKit          3D

 33 35  0  0  0  0  0  0  0  0999 V2000
   -3.8340    3.0350   -1.6500 C   0  0  0  0  0  0  0  0  0  0  0  0
   -3.7030    1.7220   -1.0510 N   0  0  0  0  0  0  0  0  0  0  0  0
   -2.8680    0.7860   -1.5600 C   0  0  0  0  0  0  0  0  0  0  0  0
   -2.9540   -0.3150   -0.8110 N   0  0  0  0  0  0  0  0  0  0  0  0
   -2.2460   -1.5820   -0.9660 C   0  0  2  0  0  0  0  0  0  0  0  0
   -1.2720   -1.6420    0.0020 O   0  0  0  0  0  0  0  0  0  0  0  0
   -0.0640   -1.8870   -0.5870 C   0  0  2  0  0  0  0  0  0  0  0  0
    1.1160   -1.4070    0.1910 C   0  0  0  0  0  0  0  0  0  0  0  0
    1.1000   -0.0330    0.4110 O   0  0  0  0  0  0  0  0  0  0  0  0
    2.4510    0.4650    1.2930 P   0  0  1  0  0  0  0  0  0  0  0  0
    2.6500    1.9430    1.0410 O   0  0  0  0  0  0  0  0  0  0  0  0
    2.2720    0.1810    2.9470 O   0  0  0  0  0  0  0  0  0  0  0  0
    3.7720   -0.4440    0.7590 O   0  0  0  0  0  0  0  0  0  0  0  0
    5.2390    0.2980    1.0620 P   0  0  1  0  0  0  0  0  0  0  0  0
    5.2230    1.1510    2.3080 O   0  0  0  0  0  0  0  0  0  0  0  0
    6.4070   -0.9240    1.3200 O   0  0  0  0  0  0  0  0  0  0  0  0
    5.7460    1.1860   -0.2840 O   0  0  0  0  0  0  0  0  0  0  0  0
    7.4260    1.0990   -0.3580 P   0  0  2  0  0  0  0  0  0  0  0  0
    7.8210   -0.3570   -0.4580 O   0  0  0  0  0  0  0  0  0  0  0  0
    8.0440    1.6900    1.0950 O   0  0  0  0  0  0  0  0  0  0  0  0
    8.0560    1.9270   -1.6800 O   0  0  0  0  0  0  0  0  0  0  0  0
   -0.1670   -1.2350   -1.9550 C   0  0  1  0  0  0  0  0  0  0  0  0
    0.7680   -1.7540   -2.8460 O   0  0  0  0  0  0  0  0  0  0  0  0
   -1.5760   -1.6710   -2.3110 C   0  0  1  0  0  0  0  0  0  0  0  0
   -1.4920   -2.9970   -2.7290 O   0  0  0  0  0  0  0  0  0  0  0  0
   -3.8440   -0.0980    0.1860 C   0  0  0  0  0  0  0  0  0  0  0  0
   -4.3250   -0.8230    1.2130 N   0  0  0  0  0  0  0  0  0  0  0  0
   -5.2460   -0.3050    2.0730 C   0  0  0  0  0  0  0  0  0  0  0  0
   -5.7390   -1.0910    3.1510 N   0  0  0  0  0  0  0  0  0  0  0  0
   -5.6920    0.9530    1.9040 N   0  0  0  0  0  0  0  0  0  0  0  0
   -5.2380    1.7180    0.8870 C   0  0  0  0  0  0  0  0  0  0  0  0
   -5.6550    2.8770    0.7380 O   0  0  0  0  0  0  0  0  0  0  0  0
   -4.3060    1.1930    0.0170 C   0  0  0  0  0  0  0  0  0  0  0  0
  1  2  1  0
  2  3  2  0
  2 33  1  0
  3  4  1  0
  5  4  1  6
  4 26  1  0
  5  6  1  0
  5 24  1  0
  6  7  1  0
  7  8  1  1
  7 22  1  0
  8  9  1  0
  9 10  1  0
 10 11  2  0
 10 12  1  1
 10 13  1  0
 13 14  1  0
 14 15  2  0
 14 16  1  1
 14 17  1  0
 17 18  1  0
 18 19  2  0
 18 20  1  1
 18 21  1  0
 22 23  1  6
 22 24  1  0
 24 25  1  1
 26 27  1  0
 26 33  2  0
 27 28  2  0
 28 29  1  0
 28 30  1  0
 30 31  1  0
 31 32  2  0
 31 33  1  0
M  CHG  1   2   1
M  END
