
     RDKit          3D

 33 34  0  0  0  0  0  0  0  0999 V2000
   -6.9580    2.1150   -4.0800 O   0  0  0  0  0  0  0  0  0  0  0  0
   -5.7070    1.2230   -4.1400 P   0  0  0  0  0  0  0  0  0  0  0  0
   -5.1640    0.1430   -2.7840 C   0  0  0  0  0  0  0  0  0  0  0  0
   -5.8040   -0.8960   -2.3510 N   0  0  0  0  0  0  0  0  0  0  0  0
   -5.0900   -1.5010   -1.2840 C   0  0  0  0  0  0  0  0  0  0  0  0
   -5.3220   -2.3980   -0.3870 N   0  0  0  0  0  0  0  0  0  0  0  0
   -4.2940   -2.6890    0.4890 O   0  0  0  0  0  0  0  0  0  0  0  0
   -3.6770   -1.5770    1.1030 C   0  0  0  0  0  0  0  0  0  0  0  0
   -3.3430   -0.4840    0.1300 C   0  0  1  0  0  0  0  0  0  0  0  0
   -4.1650    0.7230    0.4830 C   0  0  0  0  0  0  0  0  0  0  0  0
   -3.8890    1.1670    1.8220 O   0  0  0  0  0  0  0  0  0  0  0  0
   -4.5420    2.2690    2.3510 C   0  0  0  0  0  0  0  0  0  0  0  0
   -5.3750    2.8460    1.5990 O   0  0  0  0  0  0  0  0  0  0  0  0
   -4.3420    2.7630    3.6140 O   0  0  0  0  0  0  0  0  0  0  0  0
   -1.9550   -0.3180    0.1780 N   0  0  0  0  0  0  0  0  0  0  0  0
   -1.1890    0.5590   -0.5000 C   0  0  0  0  0  0  0  0  0  0  0  0
   -1.7460    1.3740   -1.3080 O   0  0  0  0  0  0  0  0  0  0  0  0
    0.1310    0.7770   -0.5110 N   0  0  0  0  0  0  0  0  0  0  0  0
    1.4660    0.9480   -0.4770 C   0  0  0  0  0  0  0  0  0  0  0  0
    1.7910    1.9020   -1.2870 O   0  0  0  0  0  0  0  0  0  0  0  0
    2.4290    0.3160    0.2270 N   0  0  0  0  0  0  0  0  0  0  0  0
    3.8070    0.7080    0.0740 C   0  0  0  0  0  0  0  0  0  0  0  0
    4.6020   -0.1660    0.9860 C   0  0  0  0  0  0  0  0  0  0  0  0
    4.4100   -1.9340    0.5410 P   0  0  0  0  0  0  0  0  0  0  0  0
    4.3060   -2.9820    1.8950 O   0  0  0  0  0  0  0  0  0  0  0  0
    5.4960   -2.4690   -0.6710 O   0  0  0  0  0  0  0  0  0  0  0  0
    7.0690   -1.7960   -0.5450 P   0  0  0  0  0  0  0  0  0  0  0  0
    7.5030   -1.6710    1.1260 O   0  0  0  0  0  0  0  0  0  0  0  0
    7.2260   -0.2640   -1.3020 O   0  0  0  0  0  0  0  0  0  0  0  0
    7.9590    0.5130   -0.5410 O   0  0  0  0  0  0  0  0  0  0  0  0
    7.7130    1.7450   -0.8820 O   0  0  0  0  0  0  0  0  0  0  0  0
   -3.7420   -0.8760   -1.2830 C   0  0  2  0  0  0  0  0  0  0  0  0
   -4.0010    0.3040   -2.0550 O   0  0  0  0  0  0  0  0  0  0  0  0
  1  2  2  0
  2  3  1  0
  3  4  2  0
  3 33  1  0
  4  5  1  0
  5  6  2  0
  5 32  1  0
  6  7  1  0
  7  8  1  0
  8  9  1  0
  9 10  1  1
  9 15  1  0
  9 32  1  0
 10 11  1  0
 11 12  1  0
 12 13  2  0
 12 14  1  0
 15 16  1  0
 16 17  2  0
 16 18  1  0
 18 19  1  0
 19 20  2  0
 19 21  1  0
 21 22  1  0
 22 23  1  0
 23 24  1  0
 24 25  1  0
 24 26  1  0
 26 27  1  0
 27 28  1  0
 27 29  1  0
 29 30  1  0
 30 31  1  0
 32 33  1  6
M  END
