
     RDKit          3D

 17 19  0  0  0  0  0  0  0  0999 V2000
   -0.9420   -3.3710    0.2150 O   0  0  0  0  0  0  0  0  0  0  0  0
   -0.4370   -2.2080    0.1520 C   0  0  0  0  0  0  0  0  0  0  0  0
    0.9030   -2.0370    0.2220 N   0  0  0  0  0  0  0  0  0  0  0  0
    1.4690   -0.8230    0.1580 C   0  0  0  0  0  0  0  0  0  0  0  0
    2.8480   -0.6660    0.2310 C   0  0  0  0  0  0  0  0  0  0  0  0
    3.4540    0.5480    0.1700 C   0  0  0  0  0  0  0  0  0  0  0  0
    4.8380    0.7010    0.2440 O   0  0  0  0  0  0  0  0  0  0  0  0
    2.6540    1.6550    0.0310 C   0  0  0  0  0  0  0  0  0  0  0  0
    1.2590    1.5080   -0.0430 C   0  0  0  0  0  0  0  0  0  0  0  0
    0.6480    0.2860    0.0180 C   0  0  0  0  0  0  0  0  0  0  0  0
   -0.7230    0.1810   -0.0590 C   0  0  0  0  0  0  0  0  0  0  0  0
   -1.5420    1.2780   -0.1980 C   0  0  0  0  0  0  0  0  0  0  0  0
   -2.9090    1.0990   -0.2690 C   0  0  0  0  0  0  0  0  0  0  0  0
   -3.4770   -0.1630   -0.2020 C   0  0  0  0  0  0  0  0  0  0  0  0
   -4.8510   -0.2960   -0.2760 O   0  0  0  0  0  0  0  0  0  0  0  0
   -2.6380   -1.2410   -0.0620 C   0  0  0  0  0  0  0  0  0  0  0  0
   -1.2620   -1.1110    0.0120 C   0  0  0  0  0  0  0  0  0  0  0  0
  1  2  2  0
  2  3  1  0
  2 17  1  0
  3  4  1  0
  4  5  2  0
  4 10  1  0
  5  6  1  0
  6  7  1  0
  6  8  2  0
  8  9  1  0
  9 10  2  0
 10 11  1  0
 11 12  2  0
 11 17  1  0
 12 13  1  0
 13 14  2  0
 14 15  1  0
 14 16  1  0
 16 17  2  0
M  END
