
     RDKit          3D

 18 19  0  0  0  0  0  0  0  0999 V2000
    4.2590    1.1100    1.0250 C   0  0  0  0  0  0  0  0  0  0  0  0
    3.0270    0.7590    0.3050 C   0  0  0  0  0  0  0  0  0  0  0  0
    2.2590    1.7880   -0.2090 C   0  0  0  0  0  0  0  0  0  0  0  0
    1.1340    1.4770   -0.8660 N   0  0  0  0  0  0  0  0  0  0  0  0
    0.6900    0.2110   -1.0670 C   0  0  0  0  0  0  0  0  0  0  0  0
   -0.5570   -0.0480   -1.8130 C   0  0  0  0  0  0  0  0  0  0  0  0
   -1.7810    0.0900   -0.9990 C   0  0  0  0  0  0  0  0  0  0  0  0
   -2.5120    1.2680   -1.1840 C   0  0  0  0  0  0  0  0  0  0  0  0
   -3.6630    1.4580   -0.4490 C   0  0  0  0  0  0  0  0  0  0  0  0
   -4.0930    0.5110    0.4530 C   0  0  0  0  0  0  0  0  0  0  0  0
   -5.2560    0.7030    1.1960 O   0  0  0  0  0  0  0  0  0  0  0  0
   -3.3430   -0.6340    0.6040 C   0  0  0  0  0  0  0  0  0  0  0  0
   -3.8180   -1.5610    1.5270 O   0  0  0  0  0  0  0  0  0  0  0  0
   -2.1680   -0.8670   -0.1220 C   0  0  0  0  0  0  0  0  0  0  0  0
   -1.4630   -2.0200    0.0660 O   0  0  0  0  0  0  0  0  0  0  0  0
    1.4610   -0.8080   -0.5530 C   0  0  0  0  0  0  0  0  0  0  0  0
    2.6300   -0.5520    0.1350 C   0  0  0  0  0  0  0  0  0  0  0  0
    3.4040   -1.6770    0.6570 C   0  0  0  0  0  0  0  0  0  0  0  0
  1  2  1  0
  2  3  2  0
  2 17  1  0
  3  4  1  0
  4  5  2  0
  5  6  1  0
  5 16  1  0
  6  7  1  0
  7  8  2  0
  7 14  1  0
  8  9  1  0
  9 10  2  0
 10 11  1  0
 10 12  1  0
 12 13  1  0
 12 14  2  0
 14 15  1  0
 16 17  2  0
 17 18  1  0
M  END
