
     RDKit          3D

 18 19  0  0  0  0  0  0  0  0999 V2000
    2.1860   -3.3420    0.8610 C   0  0  0  0  0  0  0  0  0  0  0  0
    2.8380   -2.0470    0.6750 N   0  0  0  0  0  0  0  0  0  0  0  0
    2.0820   -0.8840    0.3620 C   0  0  0  0  0  0  0  0  0  0  0  0
    0.6940   -0.9710    0.2210 C   0  0  0  0  0  0  0  0  0  0  0  0
   -0.0890    0.1250   -0.0820 C   0  0  0  0  0  0  0  0  0  0  0  0
   -1.5350    0.0310   -0.2260 C   0  0  0  0  0  0  0  0  0  0  0  0
   -2.1920   -0.9000    0.5430 C   0  0  0  0  0  0  0  0  0  0  0  0
   -3.5380   -1.0560    0.4730 C   0  0  0  0  0  0  0  0  0  0  0  0
   -4.3010   -0.2850   -0.3730 C   0  0  0  0  0  0  0  0  0  0  0  0
   -5.6690   -0.4890   -0.4010 O   0  0  0  0  0  0  0  0  0  0  0  0
   -3.6650    0.6540   -1.1540 C   0  0  0  0  0  0  0  0  0  0  0  0
   -2.2830    0.8090   -1.0770 C   0  0  0  0  0  0  0  0  0  0  0  0
    0.5630    1.3350   -0.2460 C   0  0  0  0  0  0  0  0  0  0  0  0
    1.9250    1.4760   -0.1190 C   0  0  0  0  0  0  0  0  0  0  0  0
    2.5320    2.7070   -0.2910 O   0  0  0  0  0  0  0  0  0  0  0  0
    1.8810    3.8940   -0.5960 C   0  0  0  0  0  0  0  0  0  0  0  0
    2.6590    0.3430    0.1870 C   0  0  0  0  0  0  0  0  0  0  0  0
    4.0190    0.5210    0.3060 O   0  0  0  0  0  0  0  0  0  0  0  0
  1  2  1  0
  2  3  1  0
  3  4  2  0
  3 17  1  0
  4  5  1  0
  5  6  1  0
  5 13  2  0
  6  7  2  0
  6 12  1  0
  7  8  1  0
  8  9  2  0
  9 10  1  0
  9 11  1  0
 11 12  2  0
 13 14  1  0
 14 15  1  0
 14 17  2  0
 15 16  1  0
 17 18  1  0
M  END
