
     RDKit          3D

 14 15  0  0  0  0  0  0  0  0999 V2000
   -1.9290    2.5200   -0.9250 O   0  0  0  0  0  0  0  0  0  0  0  0
   -2.3280    1.2800   -0.4750 C   0  0  0  0  0  0  0  0  0  0  0  0
   -1.2040    0.2680   -0.7060 C   0  0  2  0  0  0  0  0  0  0  0  0
   -1.6490   -1.0550   -0.1790 C   0  0  1  0  0  0  0  0  0  0  0  0
   -2.1310   -1.9130   -1.1700 O   0  0  0  0  0  0  0  0  0  0  0  0
   -0.4040   -1.6450    0.4260 C   0  0  2  0  0  0  0  0  0  0  0  0
   -0.7620   -2.2930    1.5970 O   0  0  0  0  0  0  0  0  0  0  0  0
    0.4190   -0.4450    0.7910 C   0  0  1  0  0  0  0  0  0  0  0  0
    1.8940   -0.6550    0.5060 C   0  0  2  0  0  0  0  0  0  0  0  0
    2.6160   -0.9560    1.6540 O   0  0  0  0  0  0  0  0  0  0  0  0
    2.2770    0.7150   -0.0360 C   0  0  1  0  0  0  0  0  0  0  0  0
    3.4480    0.6580   -0.7800 O   0  0  0  0  0  0  0  0  0  0  0  0
    1.0700    1.0170   -0.9000 C   0  0  0  0  0  0  0  0  0  0  0  0
   -0.0190    0.6560   -0.0030 N   0  0  1  0  0  0  0  0  0  0  0  0
  1  2  1  0
  3  2  1  1
  3  4  1  0
  3 14  1  0
  4  5  1  6
  4  6  1  0
  6  7  1  1
  8  6  1  6
  8  9  1  0
  8 14  1  0
  9 10  1  1
  9 11  1  0
 11 12  1  6
 11 13  1  0
 14 13  1  6
M  CHG  1  14   1
M  END
