
     RDKit          3D

 18 19  0  0  0  0  0  0  0  0999 V2000
   -3.8320   -0.5880   -1.9320 C   0  0  0  0  0  0  0  0  0  0  0  0
   -2.5570   -0.2030   -1.2720 C   0  0  0  0  0  0  0  0  0  0  0  0
   -1.3250   -0.3230   -1.8810 C   0  0  0  0  0  0  0  0  0  0  0  0
   -0.1360    0.0310   -1.2790 C   0  0  0  0  0  0  0  0  0  0  0  0
    1.1540    0.0060   -1.6620 N   0  0  0  0  0  0  0  0  0  0  0  0
    1.9090    0.4780   -0.6540 C   0  0  0  0  0  0  0  0  0  0  0  0
    3.3740    0.6050   -0.7160 C   0  0  0  0  0  0  0  0  0  0  0  0
    4.1010   -0.6220   -0.2630 C   0  0  0  0  0  0  0  0  0  0  0  0
    3.8280   -1.0360    1.1480 C   0  0  0  0  0  0  0  0  0  0  0  0
    2.4960   -1.3220    1.3650 O   0  0  0  0  0  0  0  0  0  0  0  0
    1.0790    0.8190    0.4140 C   0  0  0  0  0  0  0  0  0  0  0  0
   -0.1950    0.5320    0.0050 C   0  0  0  0  0  0  0  0  0  0  0  0
   -1.4150    0.6640    0.6400 C   0  0  0  0  0  0  0  0  0  0  0  0
   -1.5160    1.1850    1.9880 C   0  0  0  0  0  0  0  0  0  0  0  0
   -1.6570    2.4010    2.2100 O   0  0  0  0  0  0  0  0  0  0  0  0
   -1.4530    0.3080    3.0520 O   0  0  0  0  0  0  0  0  0  0  0  0
   -2.6020    0.3020    0.0180 C   0  0  0  0  0  0  0  0  0  0  0  0
   -3.8940    0.4600    0.7400 C   0  0  0  0  0  0  0  0  0  0  0  0
  1  2  1  0
  2  3  2  0
  2 17  1  0
  3  4  1  0
  4  5  1  0
  4 12  2  0
  5  6  1  0
  6  7  1  0
  6 11  2  0
  7  8  1  0
  8  9  1  0
  9 10  1  0
 11 12  1  0
 12 13  1  0
 13 14  1  0
 13 17  2  0
 14 15  2  0
 14 16  1  0
 17 18  1  0
M  END
