
     RDKit          3D

 12 12  0  0  0  0  0  0  0  0999 V2000
   -3.1040   -1.0440   -0.2730 O   0  0  0  0  0  0  0  0  0  0  0  0
   -1.9300   -1.4040   -0.2050 C   0  0  0  0  0  0  0  0  0  0  0  0
   -0.7980   -0.5060   -0.0810 C   0  0  0  0  0  0  0  0  0  0  0  0
   -0.8710    0.8470   -0.0240 C   0  0  0  0  0  0  0  0  0  0  0  0
   -2.0780    1.5050   -0.0810 O   0  0  0  0  0  0  0  0  0  0  0  0
    0.2800    1.6460    0.0960 C   0  0  0  0  0  0  0  0  0  0  0  0
    0.0910    3.3850    0.1630 Cl  0  0  0  0  0  0  0  0  0  0  0  0
    1.4850    1.0190    0.1550 C   0  0  0  0  0  0  0  0  0  0  0  0
    1.6120   -0.3420    0.1010 C   0  0  0  0  0  0  0  0  0  0  0  0
    2.8390   -0.9650    0.1610 O   0  0  0  0  0  0  0  0  0  0  0  0
    0.4790   -1.1010   -0.0160 C   0  0  0  0  0  0  0  0  0  0  0  0
    0.6620   -2.8440   -0.0840 Cl  0  0  0  0  0  0  0  0  0  0  0  0
  1  2  2  0
  2  3  1  0
  3  4  2  0
  3 11  1  0
  4  5  1  0
  4  6  1  0
  6  7  1  0
  6  8  2  0
  8  9  1  0
  9 10  1  0
  9 11  2  0
 11 12  1  0
M  END
