
     RDKit          3D

 12 12  0  0  0  0  0  0  0  0999 V2000
    3.0980   -0.0870   -0.2530 C   0  0  0  0  0  0  0  0  0  0  0  0
    2.0970    0.8460    0.0510 O   0  0  0  0  0  0  0  0  0  0  0  0
    0.7680    0.3750    0.0400 C   0  0  0  0  0  0  0  0  0  0  0  0
    0.4850   -0.9370   -0.2560 C   0  0  0  0  0  0  0  0  0  0  0  0
   -0.8070   -1.4070   -0.2690 C   0  0  0  0  0  0  0  0  0  0  0  0
   -1.1570   -3.0860   -0.6500 Cl  0  0  0  0  0  0  0  0  0  0  0  0
   -1.8630   -0.5720    0.0150 C   0  0  0  0  0  0  0  0  0  0  0  0
   -3.1590   -1.0610   -0.0020 O   0  0  0  0  0  0  0  0  0  0  0  0
   -1.5650    0.7420    0.3110 C   0  0  0  0  0  0  0  0  0  0  0  0
   -2.6540    1.5870    0.6010 O   0  0  0  0  0  0  0  0  0  0  0  0
   -0.2780    1.2280    0.3290 C   0  0  0  0  0  0  0  0  0  0  0  0
    0.0330    2.9150    0.7140 Cl  0  0  0  0  0  0  0  0  0  0  0  0
  1  2  1  0
  2  3  1  0
  3  4  2  0
  3 11  1  0
  4  5  1  0
  5  6  1  0
  5  7  2  0
  7  8  1  0
  7  9  1  0
  9 10  1  0
  9 11  2  0
 11 12  1  0
M  END
