
     RDKit          3D

 12 12  0  0  0  0  0  0  0  0999 V2000
   -2.9350    0.3020    0.1450 C   0  0  0  0  0  0  0  0  0  0  0  0
   -1.8510    0.3970   -0.7260 O   0  0  0  0  0  0  0  0  0  0  0  0
   -0.5390    0.1610   -0.4260 C   0  0  0  0  0  0  0  0  0  0  0  0
    0.2620    1.1790    0.0220 C   0  0  0  0  0  0  0  0  0  0  0  0
   -0.2930    2.4360    0.1580 O   0  0  0  0  0  0  0  0  0  0  0  0
    1.6140    0.9520    0.3350 C   0  0  0  0  0  0  0  0  0  0  0  0
    2.1270   -0.3070    0.1870 C   0  0  0  0  0  0  0  0  0  0  0  0
    3.8250   -0.6100    0.5760 Cl  0  0  0  0  0  0  0  0  0  0  0  0
    1.3440   -1.3410   -0.2600 C   0  0  0  0  0  0  0  0  0  0  0  0
    1.8730   -2.6210   -0.4080 O   0  0  0  0  0  0  0  0  0  0  0  0
   -0.0000   -1.0910   -0.5650 C   0  0  0  0  0  0  0  0  0  0  0  0
   -0.9320   -2.4640   -1.1290 Cl  0  0  0  0  0  0  0  0  0  0  0  0
  1  2  1  0
  2  3  1  0
  3  4  2  0
  3 11  1  0
  4  5  1  0
  4  6  1  0
  6  7  2  0
  7  8  1  0
  7  9  1  0
  9 10  1  0
  9 11  2  0
 11 12  1  0
M  END
