
     RDKit          3D

 12 12  0  0  0  0  0  0  0  0999 V2000
    2.8670   -0.1090   -0.0050 C   0  0  0  0  0  0  0  0  0  0  0  0
    1.7640   -0.0720    0.8640 O   0  0  0  0  0  0  0  0  0  0  0  0
    0.4720    0.1940    0.4850 C   0  0  0  0  0  0  0  0  0  0  0  0
   -0.3660   -0.8470    0.1070 C   0  0  0  0  0  0  0  0  0  0  0  0
    0.1610   -2.1250    0.1330 O   0  0  0  0  0  0  0  0  0  0  0  0
   -1.6650   -0.6330   -0.2800 C   0  0  0  0  0  0  0  0  0  0  0  0
   -2.5300   -1.6360   -0.6630 O   0  0  0  0  0  0  0  0  0  0  0  0
   -2.1210    0.6750   -0.2800 C   0  0  0  0  0  0  0  0  0  0  0  0
   -1.3170    1.7440    0.0900 C   0  0  0  0  0  0  0  0  0  0  0  0
   -1.9000    3.3930    0.0870 Cl  0  0  0  0  0  0  0  0  0  0  0  0
   -0.0170    1.4960    0.4740 C   0  0  0  0  0  0  0  0  0  0  0  0
    0.9890    2.8500    0.9390 Cl  0  0  0  0  0  0  0  0  0  0  0  0
  1  2  1  0
  2  3  1  0
  3  4  2  0
  3 11  1  0
  4  5  1  0
  4  6  1  0
  6  7  1  0
  6  8  2  0
  8  9  1  0
  9 10  1  0
  9 11  2  0
 11 12  1  0
M  END
