
     RDKit          3D

 12 12  0  0  0  0  0  0  0  0999 V2000
    2.8290   -1.6110   -0.2680 O   0  0  0  0  0  0  0  0  0  0  0  0
    1.8210   -0.6750   -0.0880 C   0  0  0  0  0  0  0  0  0  0  0  0
    2.1000    0.6530   -0.3590 C   0  0  0  0  0  0  0  0  0  0  0  0
    1.1090    1.5990   -0.1850 C   0  0  0  0  0  0  0  0  0  0  0  0
   -0.1590    1.2800    0.2510 C   0  0  0  0  0  0  0  0  0  0  0  0
   -1.1470    2.2510    0.4210 O   0  0  0  0  0  0  0  0  0  0  0  0
   -0.4030   -0.0710    0.5140 C   0  0  0  0  0  0  0  0  0  0  0  0
   -1.6830   -0.3820    0.9520 O   0  0  0  0  0  0  0  0  0  0  0  0
   -2.6470   -0.6850   -0.0390 C   0  0  0  0  0  0  0  0  0  0  0  0
   -2.2060   -2.0790   -1.0340 Cl  0  0  0  0  0  0  0  0  0  0  0  0
    0.5650   -1.0380    0.3500 C   0  0  0  0  0  0  0  0  0  0  0  0
    0.2230   -2.7210    0.6950 Cl  0  0  0  0  0  0  0  0  0  0  0  0
  1  2  1  0
  2  3  2  0
  2 11  1  0
  3  4  1  0
  4  5  2  0
  5  6  1  0
  5  7  1  0
  7  8  1  0
  7 11  2  0
  8  9  1  0
  9 10  1  0
 11 12  1  0
M  END
