
     RDKit          3D

 12 12  0  0  0  0  0  0  0  0999 V2000
    2.5950    1.0690   -0.9720 O   0  0  0  0  0  0  0  0  0  0  0  0
    1.9860    0.0950   -0.4160 C   0  0  0  0  0  0  0  0  0  0  0  0
    2.7530   -0.9800   -0.0460 O   0  0  0  0  0  0  0  0  0  0  0  0
    0.5550    0.1440   -0.1970 C   0  0  0  0  0  0  0  0  0  0  0  0
   -0.1670    1.2860   -0.6050 C   0  0  0  0  0  0  0  0  0  0  0  0
   -1.5220    1.4120   -0.4350 C   0  0  0  0  0  0  0  0  0  0  0  0
   -2.3340    2.8650   -0.9730 Cl  0  0  0  0  0  0  0  0  0  0  0  0
   -2.2360    0.4000    0.1570 C   0  0  0  0  0  0  0  0  0  0  0  0
   -1.5680   -0.7160    0.5630 C   0  0  0  0  0  0  0  0  0  0  0  0
   -2.4510   -2.0240    1.3200 Cl  0  0  0  0  0  0  0  0  0  0  0  0
   -0.1630   -0.8530    0.3880 C   0  0  0  0  0  0  0  0  0  0  0  0
    0.4130   -2.0140    0.8310 O   0  0  0  0  0  0  0  0  0  0  0  0
  1  2  2  0
  2  3  1  0
  2  4  1  0
  4  5  2  0
  4 11  1  0
  5  6  1  0
  6  7  1  0
  6  8  2  0
  8  9  1  0
  9 10  1  0
  9 11  2  0
 11 12  1  0
M  END
