
     RDKit          3D

 12 12  0  0  0  0  0  0  0  0999 V2000
   -3.3060    0.0110   -0.0610 O   0  0  0  0  0  0  0  0  0  0  0  0
   -1.9320   -0.1410    0.0610 C   0  0  0  0  0  0  0  0  0  0  0  0
   -1.3930   -1.2110    0.7780 C   0  0  0  0  0  0  0  0  0  0  0  0
   -0.0220   -1.3490    0.8920 C   0  0  0  0  0  0  0  0  0  0  0  0
    0.7020   -2.6630    1.7730 Cl  0  0  0  0  0  0  0  0  0  0  0  0
    0.7900   -0.4130    0.2860 C   0  0  0  0  0  0  0  0  0  0  0  0
    2.1530   -0.5550    0.4030 O   0  0  0  0  0  0  0  0  0  0  0  0
    3.0050    0.4020   -0.2160 C   0  0  0  0  0  0  0  0  0  0  0  0
    4.7080    0.0410    0.0510 Cl  0  0  0  0  0  0  0  0  0  0  0  0
    0.2370    0.6490   -0.4250 C   0  0  0  0  0  0  0  0  0  0  0  0
   -1.1270    0.7960   -0.5450 C   0  0  0  0  0  0  0  0  0  0  0  0
   -1.6890    1.8460   -1.2480 O   0  0  0  0  0  0  0  0  0  0  0  0
  1  2  1  0
  2  3  2  0
  2 11  1  0
  3  4  1  0
  4  5  1  0
  4  6  2  0
  6  7  1  0
  6 10  1  0
  7  8  1  0
  8  9  1  0
 10 11  2  0
 11 12  1  0
M  END
