
     RDKit          3D

 10 10  0  0  0  0  0  0  0  0999 V2000
    2.4310    0.4630    0.7190 C   0  0  0  0  0  0  0  0  0  0  0  0
    1.8360   -0.1050   -0.5310 C   0  0  1  0  0  0  0  0  0  0  0  0
    1.0150   -1.3500   -0.2260 C   0  0  0  0  0  0  0  0  0  0  0  0
   -0.2280   -0.9530    0.3970 N   0  0  0  0  0  0  0  0  0  0  0  0
   -0.9440   -0.0140   -0.4220 C   0  0  1  0  0  0  0  0  0  0  0  0
   -1.5090   -0.6620   -1.4960 O   0  0  0  0  0  0  0  0  0  0  0  0
   -2.0690    0.5630    0.4340 C   0  0  0  0  0  0  0  0  0  0  0  0
   -2.8780   -0.4820    0.8260 O   0  0  0  0  0  0  0  0  0  0  0  0
   -0.0780    1.1570   -0.8310 C   0  0  0  0  0  0  0  0  0  0  0  0
    1.1540    0.7990   -1.3040 O   0  0  0  0  0  0  0  0  0  0  0  0
  2  1  1  1
  2  3  1  0
  2 10  1  0
  3  4  1  0
  4  5  1  0
  5  6  1  6
  5  7  1  0
  5  9  1  0
  7  8  1  0
  9 10  1  0
M  CHG  1   4   1
M  END
