
     RDKit          3D

 20 20  0  0  0  0  0  0  0  0999 V2000
    3.4850    3.0410   -0.1040 C   0  0  0  0  0  0  0  0  0  0  0  0
    2.8020    2.1580   -0.9350 O   0  0  0  0  0  0  0  0  0  0  0  0
    2.2400    1.0970   -0.1310 C   0  0  2  0  0  0  0  0  0  0  0  0
    3.0470    0.0180   -0.5910 O   0  0  0  0  0  0  0  0  0  0  0  0
    0.7920    0.9790   -0.4710 C   0  0  0  0  0  0  0  0  0  0  0  0
   -0.0550    0.0270    0.2800 C   0  0  1  0  0  0  0  0  0  0  0  0
   -0.0870    0.2870    1.6530 O   0  0  0  0  0  0  0  0  0  0  0  0
   -1.4950    0.1190   -0.2200 C   0  0  1  0  0  0  0  0  0  0  0  0
   -2.3560   -0.9150    0.2370 N   0  0  0  0  0  0  0  0  0  0  0  0
   -2.1210    1.3820    0.4340 C   0  0  1  0  0  0  0  0  0  0  0  0
   -1.4490    2.5380    0.0920 O   0  0  0  0  0  0  0  0  0  0  0  0
   -3.5440    1.6020   -0.0040 C   0  0  0  0  0  0  0  0  0  0  0  0
   -4.4550    0.6460    0.3190 O   0  0  0  0  0  0  0  0  0  0  0  0
    0.5240   -1.3700    0.1800 C   0  0  2  0  0  0  0  0  0  0  0  0
    0.6040   -1.9080   -1.2010 C   0  0  0  0  0  0  0  0  0  0  0  0
    1.1830   -3.1930   -1.2460 O   0  0  0  0  0  0  0  0  0  0  0  0
   -0.0510   -2.3610    1.1640 C   0  0  0  0  0  0  0  0  0  0  0  0
    0.9960   -2.7940    1.9870 O   0  0  0  0  0  0  0  0  0  0  0  0
    2.1400   -2.4440    1.3240 C   0  0  0  0  0  0  0  0  0  0  0  0
    1.8070   -1.2750    0.7170 O   0  0  0  0  0  0  0  0  0  0  0  0
  1  2  1  0
  2  3  1  0
  3  4  1  6
  3  5  1  0
  5  6  1  0
  6  7  1  1
  6  8  1  0
  6 14  1  0
  8  9  1  1
  8 10  1  0
 10 11  1  6
 10 12  1  0
 12 13  1  0
 14 15  1  6
 14 17  1  0
 14 20  1  0
 15 16  1  0
 17 18  1  0
 18 19  1  0
 19 20  1  0
M  CHG  1   9   1
M  END
