
     RDKit          3D

 10 10  0  0  0  0  0  0  0  0999 V2000
   -0.9810    0.3470    1.4960 N   0  0  0  0  0  0  0  0  0  0  0  0
   -0.5960    0.0540    0.1290 C   0  0  2  0  0  0  0  0  0  0  0  0
   -1.8570    0.2460   -0.7220 C   0  0  0  0  0  0  0  0  0  0  0  0
   -1.5970   -0.0120   -2.0650 O   0  0  0  0  0  0  0  0  0  0  0  0
   -0.1580   -1.3930    0.0600 C   0  0  0  0  0  0  0  0  0  0  0  0
    1.3220   -1.5270    0.2100 C   0  0  0  0  0  0  0  0  0  0  0  0
    1.7980   -0.4170    0.9210 O   0  0  0  0  0  0  0  0  0  0  0  0
    1.8460    0.6390    0.0170 C   0  0  2  0  0  0  0  0  0  0  0  0
    2.5640    1.7110    0.4930 O   0  0  0  0  0  0  0  0  0  0  0  0
    0.4400    0.9990   -0.3920 C   0  0  0  0  0  0  0  0  0  0  0  0
  2  1  1  1
  2  3  1  0
  2  5  1  0
  2 10  1  0
  3  4  1  0
  5  6  1  0
  6  7  1  0
  7  8  1  0
  8  9  1  1
  8 10  1  0
M  CHG  1   1   1
M  END
