
     RDKit          3D

 10 10  0  0  0  0  0  0  0  0999 V2000
    2.9640   -0.9840    0.0710 C   0  0  0  0  0  0  0  0  0  0  0  0
    2.1930    0.0420    0.6600 O   0  0  0  0  0  0  0  0  0  0  0  0
    1.0330    0.1560   -0.0450 C   0  0  2  0  0  0  0  0  0  0  0  0
    0.8360    1.5130   -0.6570 C   0  0  0  0  0  0  0  0  0  0  0  0
   -0.3420    1.7590   -1.2200 O   0  0  0  0  0  0  0  0  0  0  0  0
   -1.4020    0.9710   -1.0700 C   0  0  0  0  0  0  0  0  0  0  0  0
   -1.3150   -0.2230   -0.1980 C   0  0  2  0  0  0  0  0  0  0  0  0
   -2.5540   -0.6400    0.3910 N   0  0  0  0  0  0  0  0  0  0  0  0
   -0.2080   -0.0420    0.8380 C   0  0  1  0  0  0  0  0  0  0  0  0
   -0.0840   -1.1080    1.6820 O   0  0  0  0  0  0  0  0  0  0  0  0
  1  2  1  0
  3  2  1  1
  3  4  1  0
  3  9  1  0
  4  5  1  0
  5  6  1  0
  6  7  1  0
  7  8  1  1
  7  9  1  0
  9 10  1  1
M  CHG  1   8   1
M  END
