
     RDKit          3D

 23 26  0  0  0  0  0  0  0  0999 V2000
   -3.2820   -2.4300    0.5250 C   0  0  0  0  0  0  0  0  0  0  0  0
   -2.4270   -1.2550    0.5860 N   0  0  0  0  0  0  0  0  0  0  0  0
   -1.3430   -0.9870   -0.1610 C   0  0  0  0  0  0  0  0  0  0  0  0
   -0.7910    0.2160    0.1780 C   0  0  0  0  0  0  0  0  0  0  0  0
   -1.5950    0.7040    1.1940 C   0  0  0  0  0  0  0  0  0  0  0  0
   -1.6010    1.8440    1.9680 C   0  0  0  0  0  0  0  0  0  0  0  0
   -2.5620    2.0530    2.9300 C   0  0  0  0  0  0  0  0  0  0  0  0
   -3.5610    1.1350    3.1670 C   0  0  0  0  0  0  0  0  0  0  0  0
   -4.7910    1.4020    4.3990 Cl  0  0  0  0  0  0  0  0  0  0  0  0
   -3.5670   -0.0120    2.3990 C   0  0  0  0  0  0  0  0  0  0  0  0
   -2.5990   -0.2120    1.4360 C   0  0  0  0  0  0  0  0  0  0  0  0
    0.3870    0.8300   -0.4190 C   0  0  1  0  0  0  0  0  0  0  0  0
    1.2290    1.4220    0.6220 C   0  0  0  0  0  0  0  0  0  0  0  0
    1.8990    1.9170    1.4540 N   0  0  0  0  0  0  0  0  0  0  0  0
    1.2280   -0.1040   -1.2480 C   0  0  1  0  0  0  0  0  0  0  0  0
    1.7680    0.6830   -2.4000 C   0  0  0  0  0  0  0  0  0  0  0  0
    3.2500    0.7100   -2.5350 C   0  0  0  0  0  0  0  0  0  0  0  0
    3.8140    0.9590   -1.2270 N   0  0  0  0  0  0  0  0  0  0  0  0
    3.6090   -0.1640   -0.3440 C   0  0  0  0  0  0  0  0  0  0  0  0
    2.2590   -0.7470   -0.3740 C   0  0  0  0  0  0  0  0  0  0  0  0
    0.4430   -1.1870   -1.8160 N   0  0  0  0  0  0  0  0  0  0  0  0
   -0.7020   -1.7490   -1.2190 C   0  0  0  0  0  0  0  0  0  0  0  0
   -1.1850   -2.8690   -1.5610 O   0  0  0  0  0  0  0  0  0  0  0  0
  1  2  1  0
  2  3  1  0
  2 11  1  0
  3  4  2  0
  3 22  1  0
  4  5  1  0
  4 12  1  0
  5  6  2  0
  5 11  1  0
  6  7  1  0
  7  8  2  0
  8  9  1  0
  8 10  1  0
 10 11  2  0
 12 13  1  1
 12 15  1  0
 13 14  3  0
 15 16  1  6
 15 20  1  0
 15 21  1  0
 16 17  1  0
 17 18  1  0
 18 19  1  0
 19 20  1  0
 21 22  1  0
 22 23  2  0
M  END
