
     RDKit          3D

 10 10  0  0  0  0  0  0  0  0999 V2000
    0.6100   -1.4610    0.3480 C   0  0  0  0  0  0  0  0  0  0  0  0
    0.2190   -0.3170   -0.5450 C   0  0  2  0  0  0  0  0  0  0  0  0
    0.2890   -0.7100   -1.8670 O   0  0  0  0  0  0  0  0  0  0  0  0
    0.9490    0.9530   -0.2610 C   0  0  2  0  0  0  0  0  0  0  0  0
    2.2940    0.8150    0.1690 N   0  0  0  0  0  0  0  0  0  0  0  0
    0.0780    1.5980    0.8040 C   0  0  0  0  0  0  0  0  0  0  0  0
   -0.9610    0.7120    1.0520 O   0  0  0  0  0  0  0  0  0  0  0  0
   -1.1930    0.1520   -0.1970 C   0  0  2  0  0  0  0  0  0  0  0  0
   -2.1840   -0.9640   -0.1690 C   0  0  0  0  0  0  0  0  0  0  0  0
   -3.3860   -0.4500    0.3180 O   0  0  0  0  0  0  0  0  0  0  0  0
  2  1  1  1
  2  3  1  0
  2  4  1  0
  2  8  1  0
  4  5  1  1
  4  6  1  0
  6  7  1  0
  7  8  1  0
  8  9  1  1
  9 10  1  0
M  CHG  1   5   1
M  END
