
     RDKit          3D

 10 10  0  0  0  0  0  0  0  0999 V2000
    2.6160   -0.7410   -0.0590 N   0  0  0  0  0  0  0  0  0  0  0  0
    1.3130   -0.5910   -0.7110 C   0  0  0  0  0  0  0  0  0  0  0  0
    0.3400   -0.1560    0.3570 C   0  0  1  0  0  0  0  0  0  0  0  0
    0.8410    1.1700    0.9260 C   0  0  0  0  0  0  0  0  0  0  0  0
   -0.3240    1.6290    1.5600 O   0  0  0  0  0  0  0  0  0  0  0  0
   -1.2510    1.5620    0.5230 C   0  0  0  0  0  0  0  0  0  0  0  0
   -1.0000    0.2400   -0.1890 C   0  0  1  0  0  0  0  0  0  0  0  0
   -1.0020    0.4350   -1.5630 O   0  0  0  0  0  0  0  0  0  0  0  0
   -2.0230   -0.8050    0.2200 C   0  0  0  0  0  0  0  0  0  0  0  0
   -1.6830   -1.9890   -0.4220 O   0  0  0  0  0  0  0  0  0  0  0  0
  1  2  1  0
  3  2  1  6
  3  4  1  0
  3  7  1  0
  4  5  1  0
  5  6  1  0
  6  7  1  0
  7  8  1  6
  7  9  1  0
  9 10  1  0
M  CHG  1   1   1
M  END
