
     RDKit          3D

 19 19  0  0  0  0  0  0  0  0999 V2000
   -4.7310   -0.5300   -0.1350 N   0  0  0  0  0  0  0  0  0  0  0  0
   -3.2990   -0.1480   -0.1870 C   0  0  1  0  0  0  0  0  0  0  0  0
   -3.2480    1.3300   -0.0190 C   0  0  0  0  0  0  0  0  0  0  0  0
   -3.7930    1.7700    1.1810 O   0  0  0  0  0  0  0  0  0  0  0  0
   -2.6310   -0.9390    0.8560 C   0  0  0  0  0  0  0  0  0  0  0  0
   -1.1750   -0.7770    1.0750 C   0  0  2  0  0  0  0  0  0  0  0  0
   -0.7610    0.4760    1.4140 O   0  0  0  0  0  0  0  0  0  0  0  0
   -0.2700   -1.3860    0.0530 C   0  0  1  0  0  0  0  0  0  0  0  0
   -0.7330   -2.6450   -0.3680 O   0  0  0  0  0  0  0  0  0  0  0  0
    0.1370   -0.5580   -1.0920 C   0  0  0  0  0  0  0  0  0  0  0  0
    0.9380    0.6780   -0.8460 C   0  0  2  0  0  0  0  0  0  0  0  0
    1.1060    1.2910   -2.1670 O   0  0  0  0  0  0  0  0  0  0  0  0
    2.3960    0.4050   -0.4980 C   0  0  2  0  0  0  0  0  0  0  0  0
    2.9150   -0.4890   -1.4530 O   0  0  0  0  0  0  0  0  0  0  0  0
    2.6340    0.0280    0.8950 C   0  0  0  0  0  0  0  0  0  0  0  0
    3.7120    0.7970    1.4260 O   0  0  0  0  0  0  0  0  0  0  0  0
    4.8000    0.6490    0.5610 C   0  0  0  0  0  0  0  0  0  0  0  0
    4.4390    1.4010   -0.7090 C   0  0  0  0  0  0  0  0  0  0  0  0
    3.0490    1.6360   -0.7450 O   0  0  0  0  0  0  0  0  0  0  0  0
  2  1  1  1
  2  3  1  0
  2  5  1  0
  3  4  1  0
  5  6  1  0
  6  7  1  6
  6  8  1  0
  8  9  1  6
  8 10  1  0
 10 11  1  0
 11 12  1  6
 11 13  1  0
 13 14  1  6
 13 15  1  0
 13 19  1  0
 15 16  1  0
 16 17  1  0
 17 18  1  0
 18 19  1  0
M  CHG  1   1   1
M  END
