
     RDKit          3D

 38 43  0  0  0  0  0  0  0  0999 V2000
    7.3940    1.2600   -0.6270 C   0  0  0  0  0  0  0  0  0  0  0  0
    8.4370    0.4020    0.0660 C   0  0  0  0  0  0  0  0  0  0  0  0
    8.6250   -0.8310   -0.3900 O   0  0  0  0  0  0  0  0  0  0  0  0
    7.8090   -1.9030   -0.1240 C   0  0  0  0  0  0  0  0  0  0  0  0
    6.4700   -1.3950    0.3520 C   0  0  0  0  0  0  0  0  0  0  0  0
    6.3410   -0.6340    1.4130 O   0  0  0  0  0  0  0  0  0  0  0  0
    5.1050   -0.3060    1.6570 C   0  0  0  0  0  0  0  0  0  0  0  0
    4.8000    0.4910    2.7950 O   0  0  0  0  0  0  0  0  0  0  0  0
    4.9960    1.9030    2.5620 C   0  0  0  0  0  0  0  0  0  0  0  0
    4.3480   -0.8540    0.7080 C   0  0  0  0  0  0  0  0  0  0  0  0
    2.9990   -0.5000    0.2160 C   0  0  0  0  0  0  0  0  0  0  0  0
    1.9760   -1.2130   -0.1670 N   0  0  0  0  0  0  0  0  0  0  0  0
    0.9710   -0.3880   -0.5750 C   0  0  0  0  0  0  0  0  0  0  0  0
   -0.2980   -0.6090   -1.0540 C   0  0  0  0  0  0  0  0  0  0  0  0
   -1.0280    0.5000   -1.3640 C   0  0  0  0  0  0  0  0  0  0  0  0
   -0.5670    1.7750   -1.2220 N   0  0  0  0  0  0  0  0  0  0  0  0
    0.6840    1.9810   -0.7440 C   0  0  0  0  0  0  0  0  0  0  0  0
    1.4710    0.8940   -0.4110 C   0  0  0  0  0  0  0  0  0  0  0  0
    2.7390    0.8500    0.0760 N   0  0  0  0  0  0  0  0  0  0  0  0
   -2.4100    0.1220   -1.7730 C   0  0  2  0  0  0  0  0  0  0  0  0
   -3.2110    0.6870   -0.6400 N   0  0  0  0  0  0  0  0  0  0  0  0
   -4.5580    0.8160   -1.0470 C   0  0  0  0  0  0  0  0  0  0  0  0
   -5.4440   -0.0860   -0.2300 C   0  0  2  0  0  0  0  0  0  0  0  0
   -6.6810   -0.0560   -0.9240 O   0  0  0  0  0  0  0  0  0  0  0  0
   -7.4410    0.9980   -0.4860 C   0  0  0  0  0  0  0  0  0  0  0  0
   -8.5300    1.6210   -1.0960 C   0  0  0  0  0  0  0  0  0  0  0  0
   -9.1150    2.6480   -0.4410 C   0  0  0  0  0  0  0  0  0  0  0  0
   -8.6350    3.0540    0.7900 C   0  0  0  0  0  0  0  0  0  0  0  0
   -7.5430    2.4090    1.3670 C   0  0  0  0  0  0  0  0  0  0  0  0
   -6.9160    1.3520    0.7240 C   0  0  0  0  0  0  0  0  0  0  0  0
   -5.8450    0.5420    1.0310 O   0  0  0  0  0  0  0  0  0  0  0  0
   -2.3960   -1.3630   -1.7860 C   0  0  0  0  0  0  0  0  0  0  0  0
   -1.1250   -1.8530   -1.1520 C   0  0  2  0  0  0  0  0  0  0  0  0
   -1.3180   -2.2920    0.2320 N   0  0  1  0  0  0  0  0  0  0  0  0
   -2.5090   -2.9670    0.5410 C   0  0  0  0  0  0  0  0  0  0  0  0
   -0.2010   -3.1100    0.6130 C   0  0  0  0  0  0  0  0  0  0  0  0
    5.2230   -1.5830   -0.1410 C   0  0  0  0  0  0  0  0  0  0  0  0
    4.7230   -2.5310   -1.5240 Cl  0  0  0  0  0  0  0  0  0  0  0  0
  1  2  1  0
  2  3  1  0
  3  4  1  0
  4  5  1  0
  5  6  1  0
  5 37  2  0
  6  7  1  0
  7  8  1  0
  7 10  2  0
  8  9  1  0
 10 11  1  0
 10 37  1  0
 11 12  2  0
 11 19  1  0
 12 13  1  0
 13 14  2  0
 13 18  1  0
 14 15  1  0
 14 33  1  0
 15 16  2  0
 15 20  1  0
 16 17  1  0
 17 18  2  0
 18 19  1  0
 20 21  1  1
 20 32  1  0
 21 22  1  0
 23 22  1  6
 23 24  1  0
 23 31  1  0
 24 25  1  0
 25 26  2  0
 25 30  1  0
 26 27  1  0
 27 28  2  0
 28 29  1  0
 29 30  2  0
 30 31  1  0
 33 32  1  1
 33 34  1  0
 34 35  1  6
 34 36  1  0
 37 38  1  0
M  CHG  2  21   1  34   1
M  END
