
     RDKit          3D

 38 42  0  0  0  0  0  0  0  0999 V2000
   -8.2450   -2.1450    0.4030 C   0  0  0  0  0  0  0  0  0  0  0  0
   -8.3240   -0.7820   -0.1670 C   0  0  0  0  0  0  0  0  0  0  0  0
   -6.9920   -0.1230   -0.2450 C   0  0  0  0  0  0  0  0  0  0  0  0
   -5.8750   -0.8620   -0.1180 N   0  0  0  0  0  0  0  0  0  0  0  0
   -4.6910   -0.2290   -0.1870 C   0  0  0  0  0  0  0  0  0  0  0  0
   -4.6650    1.1230   -0.3750 C   0  0  0  0  0  0  0  0  0  0  0  0
   -5.8470    1.8520   -0.4940 C   0  0  0  0  0  0  0  0  0  0  0  0
   -5.8020    3.1190   -0.6610 O   0  0  0  0  0  0  0  0  0  0  0  0
   -6.9620    1.1880   -0.4260 O   0  0  0  0  0  0  0  0  0  0  0  0
   -3.3740    1.9180   -0.4820 C   0  0  0  0  0  0  0  0  0  0  0  0
   -2.2760    0.8820   -0.7590 C   0  0  0  0  0  0  0  0  0  0  0  0
   -2.4350   -0.0900    0.3310 N   0  0  2  0  0  0  0  0  0  0  0  0
   -1.2920   -0.3050    1.0720 C   0  0  0  0  0  0  0  0  0  0  0  0
    0.0120   -0.0760    0.3950 C   0  0  0  0  0  0  0  0  0  0  0  0
    0.6350   -0.9130   -0.4410 N   0  0  0  0  0  0  0  0  0  0  0  0
    1.9490   -0.5600   -0.6130 C   0  0  0  0  0  0  0  0  0  0  0  0
    2.9120   -1.3110   -1.4920 C   0  0  2  0  0  0  0  0  0  0  0  0
    2.6620   -2.7680   -1.2080 C   0  0  0  0  0  0  0  0  0  0  0  0
    3.9620   -3.4340   -0.7550 C   0  0  0  0  0  0  0  0  0  0  0  0
    4.5240   -2.7320    0.4480 C   0  0  0  0  0  0  0  0  0  0  0  0
    4.6980   -1.3130    0.1260 N   0  0  0  0  0  0  0  0  0  0  0  0
    4.9940   -0.3560    1.0980 C   0  0  0  0  0  0  0  0  0  0  0  0
    4.8820   -0.6020    2.3330 O   0  0  0  0  0  0  0  0  0  0  0  0
    5.4380    0.9840    0.7250 C   0  0  0  0  0  0  0  0  0  0  0  0
    5.1330    2.0530    1.4080 O   0  0  0  0  0  0  0  0  0  0  0  0
    5.6430    3.1410    0.8960 C   0  0  0  0  0  0  0  0  0  0  0  0
    6.3580    2.7840   -0.2320 C   0  0  0  0  0  0  0  0  0  0  0  0
    6.2340    1.3930   -0.3410 C   0  0  0  0  0  0  0  0  0  0  0  0
    6.9700    0.5620   -1.2990 C   0  0  0  0  0  0  0  0  0  0  0  0
    4.3220   -0.9110   -1.2420 C   0  0  0  0  0  0  0  0  0  0  0  0
    2.1390    0.5250    0.1270 N   0  0  0  0  0  0  0  0  0  0  0  0
    0.9860    0.8660    0.7530 C   0  0  0  0  0  0  0  0  0  0  0  0
    0.7780    2.1180    1.5210 C   0  0  0  0  0  0  0  0  0  0  0  0
   -0.3540    2.5290    1.9870 C   0  0  0  0  0  0  0  0  0  0  0  0
   -0.4810    3.8000    2.7290 C   0  0  0  0  0  0  0  0  0  0  0  0
    0.4990    4.5190    2.8820 O   0  0  0  0  0  0  0  0  0  0  0  0
   -2.0450    4.2430    3.3990 Cl  0  0  0  0  0  0  0  0  0  0  0  0
   -3.4090   -1.0480   -0.0180 C   0  0  0  0  0  0  0  0  0  0  0  0
  1  2  1  0
  2  3  1  0
  3  4  2  0
  3  9  1  0
  4  5  1  0
  5  6  2  0
  5 38  1  0
  6  7  1  0
  6 10  1  0
  7  8  2  0
  7  9  1  0
 10 11  1  0
 11 12  1  0
 12 13  1  6
 12 38  1  0
 13 14  1  0
 14 15  1  0
 14 32  2  0
 15 16  1  0
 17 16  1  1
 16 31  2  0
 17 18  1  0
 17 30  1  0
 18 19  1  0
 19 20  1  0
 20 21  1  0
 21 22  1  0
 21 30  1  0
 22 23  2  0
 22 24  1  0
 24 25  1  0
 24 28  2  0
 25 26  1  0
 26 27  2  0
 27 28  1  0
 28 29  1  0
 31 32  1  0
 32 33  1  0
 33 34  2  3
 34 35  1  0
 35 36  2  0
 35 37  1  0
M  CHG  2   4   1  12   1
M  END
