
     RDKit          3D

 38 42  0  0  0  0  0  0  0  0999 V2000
   -7.5860    2.4440    1.7170 C   0  0  0  0  0  0  0  0  0  0  0  0
   -7.3580    1.6130    0.7390 C   0  0  0  0  0  0  0  0  0  0  0  0
   -6.8590    0.5190    0.2090 C   0  0  0  0  0  0  0  0  0  0  0  0
   -6.8560   -0.0920   -0.9240 C   0  0  0  0  0  0  0  0  0  0  0  0
   -7.5450    0.3880   -2.1750 C   0  0  0  0  0  0  0  0  0  0  0  0
   -8.4560    1.8580   -1.9990 Cl  0  0  0  0  0  0  0  0  0  0  0  0
   -5.8740   -0.2520    1.2250 C   0  0  0  0  0  0  0  0  0  0  0  0
   -4.7800    0.7570    1.5420 C   0  0  0  0  0  0  0  0  0  0  0  0
   -3.8340    0.8640    0.4250 N   0  0  0  0  0  0  0  0  0  0  0  0
   -4.1110    1.6550   -0.6140 C   0  0  0  0  0  0  0  0  0  0  0  0
   -5.0580    2.5230   -0.6360 O   0  0  0  0  0  0  0  0  0  0  0  0
   -3.3600    1.5550   -1.7150 N   0  0  0  0  0  0  0  0  0  0  0  0
   -2.3450    0.6760   -1.7840 C   0  0  0  0  0  0  0  0  0  0  0  0
   -1.5940    0.5850   -2.8900 N   0  0  0  0  0  0  0  0  0  0  0  0
   -0.5770   -0.2460   -2.9990 C   0  0  0  0  0  0  0  0  0  0  0  0
   -0.2710   -1.0460   -1.9170 C   0  0  0  0  0  0  0  0  0  0  0  0
   -0.9880   -1.0140   -0.7350 C   0  0  0  0  0  0  0  0  0  0  0  0
   -0.5470   -1.7430    0.4770 C   0  0  0  0  0  0  0  0  0  0  0  0
    0.8500   -1.3420    0.8210 N   0  0  2  0  0  0  0  0  0  0  0  0
    1.3060   -0.2040    0.0590 C   0  0  0  0  0  0  0  0  0  0  0  0
    2.2700    0.7170    0.7130 C   0  0  0  0  0  0  0  0  0  0  0  0
    2.4690    0.4060    2.1470 C   0  0  0  0  0  0  0  0  0  0  0  0
    3.4110   -0.7870    2.2200 C   0  0  2  0  0  0  0  0  0  0  0  0
    4.5510   -0.4340    1.3240 C   0  0  0  0  0  0  0  0  0  0  0  0
    5.0000   -1.1730    0.2680 N   0  0  0  0  0  0  0  0  0  0  0  0
    6.0160   -0.5020   -0.2940 C   0  0  0  0  0  0  0  0  0  0  0  0
    6.1700    0.6020    0.4130 C   0  0  0  0  0  0  0  0  0  0  0  0
    5.2670    0.6200    1.3900 O   0  0  0  0  0  0  0  0  0  0  0  0
    7.1110    1.8050    0.3970 C   0  0  0  0  0  0  0  0  0  0  0  0
    8.1060    1.6420   -0.5330 O   0  0  0  0  0  0  0  0  0  0  0  0
    8.4920    0.3000   -0.6120 C   0  0  0  0  0  0  0  0  0  0  0  0
    7.9640   -0.3850   -1.6900 O   0  0  0  0  0  0  0  0  0  0  0  0
    6.7640   -1.0040   -1.4720 C   0  0  0  0  0  0  0  0  0  0  0  0
    2.8190   -2.1100    2.0520 C   0  0  0  0  0  0  0  0  0  0  0  0
    1.8190   -2.3510    0.9450 C   0  0  0  0  0  0  0  0  0  0  0  0
   -2.0790   -0.1300   -0.6760 C   0  0  0  0  0  0  0  0  0  0  0  0
   -2.7960   -0.0530    0.4110 C   0  0  0  0  0  0  0  0  0  0  0  0
   -2.6700   -0.7150    1.4320 O   0  0  0  0  0  0  0  0  0  0  0  0
  1  2  2  0
  2  3  1  0
  3  4  2  3
  3  7  1  0
  4  5  1  0
  5  6  1  0
  7  8  1  0
  8  9  1  0
  9 10  1  0
  9 37  1  0
 10 11  2  0
 10 12  1  0
 12 13  1  0
 13 14  2  0
 13 36  1  0
 14 15  1  0
 15 16  2  0
 16 17  1  0
 17 18  1  0
 17 36  2  0
 19 18  1  6
 19 20  1  0
 19 35  1  0
 20 21  1  0
 21 22  1  0
 22 23  1  0
 23 24  1  6
 23 34  1  0
 24 25  2  0
 24 28  1  0
 25 26  1  0
 26 27  2  0
 26 33  1  0
 27 28  1  0
 27 29  1  0
 29 30  1  0
 30 31  1  0
 31 32  1  0
 32 33  1  0
 34 35  1  0
 36 37  1  0
 37 38  2  0
M  CHG  2  19   1  25   1
M  END
