
     RDKit          3D

 38 42  0  0  0  0  0  0  0  0999 V2000
    7.8330    2.2600    1.4360 C   0  0  0  0  0  0  0  0  0  0  0  0
    7.1240    2.9830    0.5080 O   0  0  0  0  0  0  0  0  0  0  0  0
    6.1730    2.2770   -0.1910 C   0  0  2  0  0  0  0  0  0  0  0  0
    6.5010    2.1920   -1.6700 C   0  0  0  0  0  0  0  0  0  0  0  0
    4.7570    2.7750    0.0110 C   0  0  0  0  0  0  0  0  0  0  0  0
    3.8790    2.0190   -0.7730 O   0  0  0  0  0  0  0  0  0  0  0  0
    3.6550    0.6630   -0.6750 C   0  0  0  0  0  0  0  0  0  0  0  0
    4.2840    0.0150    0.2220 O   0  0  0  0  0  0  0  0  0  0  0  0
    2.7370   -0.0390   -1.5580 C   0  0  0  0  0  0  0  0  0  0  0  0
    1.5440   -0.4910   -0.8920 N   0  0  0  0  0  0  0  0  0  0  0  0
    0.4550    0.2190   -0.8080 C   0  0  0  0  0  0  0  0  0  0  0  0
    0.3700    1.4000   -1.2580 O   0  0  0  0  0  0  0  0  0  0  0  0
   -0.7440   -0.2970   -0.1880 C   0  0  0  0  0  0  0  0  0  0  0  0
   -1.8400    0.6460   -0.1980 C   0  0  0  0  0  0  0  0  0  0  0  0
   -3.1270    0.5830    0.2560 N   0  0  2  0  0  0  0  0  0  0  0  0
   -4.0670   -0.0740   -0.6590 C   0  0  0  0  0  0  0  0  0  0  0  0
   -4.5540    0.8220   -1.7410 C   0  0  0  0  0  0  0  0  0  0  0  0
   -5.3640    1.9150   -1.2110 N   0  0  0  0  0  0  0  0  0  0  0  0
   -4.8780    3.1120   -1.8770 C   0  0  0  0  0  0  0  0  0  0  0  0
   -4.9920    4.1950   -0.9540 N   0  0  0  0  0  0  0  0  0  0  0  0
   -5.3440    3.6650    0.3240 C   0  0  0  0  0  0  0  0  0  0  0  0
   -5.0360    2.1570    0.1820 C   0  0  1  0  0  0  0  0  0  0  0  0
   -5.8520    1.3760    1.1560 C   0  0  0  0  0  0  0  0  0  0  0  0
   -3.5770    2.0280    0.3700 C   0  0  0  0  0  0  0  0  0  0  0  0
   -0.6490   -1.5560    0.2940 C   0  0  0  0  0  0  0  0  0  0  0  0
   -1.7740   -2.1080    0.8840 C   0  0  0  0  0  0  0  0  0  0  0  0
   -1.7000   -3.3920    1.3640 C   0  0  0  0  0  0  0  0  0  0  0  0
   -0.5640   -4.1310    1.2770 C   0  0  0  0  0  0  0  0  0  0  0  0
   -0.5330   -5.4290    1.7830 C   0  0  0  0  0  0  0  0  0  0  0  0
    0.6150   -6.1580    1.6960 C   0  0  0  0  0  0  0  0  0  0  0  0
    0.6360   -7.7870    2.3340 Cl  0  0  0  0  0  0  0  0  0  0  0  0
    1.7330   -5.6030    1.1100 C   0  0  0  0  0  0  0  0  0  0  0  0
    2.9870   -6.3670    1.0080 C   0  0  0  0  0  0  0  0  0  0  0  0
    1.7120   -4.3070    0.6020 C   0  0  0  0  0  0  0  0  0  0  0  0
    0.5670   -3.5540    0.6760 C   0  0  0  0  0  0  0  0  0  0  0  0
    0.5110   -2.2770    0.1910 N   0  0  0  0  0  0  0  0  0  0  0  0
    1.5870   -1.7640   -0.3860 C   0  0  0  0  0  0  0  0  0  0  0  0
    2.6610   -2.3650   -0.5070 O   0  0  0  0  0  0  0  0  0  0  0  0
  1  2  1  0
  2  3  1  0
  3  4  1  6
  3  5  1  0
  5  6  1  0
  6  7  1  0
  7  8  2  0
  7  9  1  0
  9 10  1  0
 10 11  1  0
 10 37  1  0
 11 12  2  0
 11 13  1  0
 13 14  1  0
 13 25  2  0
 15 14  1  6
 15 16  1  0
 15 24  1  0
 16 17  1  0
 17 18  1  0
 18 19  1  0
 18 22  1  0
 19 20  1  0
 20 21  1  0
 21 22  1  0
 22 23  1  1
 22 24  1  0
 25 26  1  0
 25 36  1  0
 26 27  2  0
 27 28  1  0
 28 29  2  0
 28 35  1  0
 29 30  1  0
 30 31  1  0
 30 32  2  0
 32 33  1  0
 32 34  1  0
 34 35  2  0
 35 36  1  0
 36 37  1  0
 37 38  2  0
M  CHG  2  15   1  20   1
M  END
