
     RDKit          3D

 38 42  0  0  0  0  0  0  0  0999 V2000
   -7.6960   -3.0090   -0.2250 C   0  0  0  0  0  0  0  0  0  0  0  0
   -7.7630   -1.6190    0.2470 N   0  0  2  0  0  0  0  0  0  0  0  0
   -9.0380   -1.1080   -0.1720 C   0  0  0  0  0  0  0  0  0  0  0  0
   -9.2670    0.2710    0.3770 C   0  0  0  0  0  0  0  0  0  0  0  0
   -7.9980    0.7840    0.9870 C   0  0  0  0  0  0  0  0  0  0  0  0
   -6.7920    0.5650    0.1160 C   0  0  1  0  0  0  0  0  0  0  0  0
   -5.5830    1.0520    0.8290 C   0  0  0  0  0  0  0  0  0  0  0  0
   -5.7300    1.5000    1.9940 O   0  0  0  0  0  0  0  0  0  0  0  0
   -4.2920    1.0280    0.2480 N   0  0  0  0  0  0  0  0  0  0  0  0
   -3.8570    0.5760   -1.0570 C   0  0  0  0  0  0  0  0  0  0  0  0
   -2.5540   -0.1290   -0.6490 C   0  0  0  0  0  0  0  0  0  0  0  0
   -1.9540    0.8970    0.1550 N   0  0  2  0  0  0  0  0  0  0  0  0
   -1.0600    0.4220    1.1440 C   0  0  0  0  0  0  0  0  0  0  0  0
    0.1870   -0.2660    0.7990 C   0  0  0  0  0  0  0  0  0  0  0  0
    1.1040    0.4250    0.0890 O   0  0  0  0  0  0  0  0  0  0  0  0
    1.2220    0.9250   -1.1540 C   0  0  0  0  0  0  0  0  0  0  0  0
    0.3080    0.7640   -1.9750 O   0  0  0  0  0  0  0  0  0  0  0  0
    2.4350    1.6740   -1.5700 C   0  0  0  0  0  0  0  0  0  0  0  0
    3.3830    1.7620   -0.4900 N   0  0  0  0  0  0  0  0  0  0  0  0
    3.4550    2.7170    0.4200 N   0  0  0  0  0  0  0  0  0  0  0  0
    4.4810    2.4490    1.2720 C   0  0  0  0  0  0  0  0  0  0  0  0
    5.0630    1.2680    0.8570 C   0  0  0  0  0  0  0  0  0  0  0  0
    6.1280    0.4940    1.3080 C   0  0  0  0  0  0  0  0  0  0  0  0
    6.5000   -0.6710    0.6850 C   0  0  0  0  0  0  0  0  0  0  0  0
    7.5550   -1.4730    1.1040 O   0  0  0  0  0  0  0  0  0  0  0  0
    8.8150   -1.2250    0.5770 C   0  0  0  0  0  0  0  0  0  0  0  0
    9.2670   -1.8440   -0.5800 C   0  0  0  0  0  0  0  0  0  0  0  0
   10.5390   -1.5570   -1.0630 C   0  0  0  0  0  0  0  0  0  0  0  0
   11.3770   -0.6620   -0.4170 C   0  0  0  0  0  0  0  0  0  0  0  0
   12.6330   -0.3900   -0.9080 O   0  0  0  0  0  0  0  0  0  0  0  0
   10.9280   -0.0550    0.7230 C   0  0  0  0  0  0  0  0  0  0  0  0
   11.9610    1.0790    1.5630 Cl  0  0  0  0  0  0  0  0  0  0  0  0
    9.6720   -0.3330    1.2070 C   0  0  0  0  0  0  0  0  0  0  0  0
    5.7790   -1.0660   -0.4220 C   0  0  0  0  0  0  0  0  0  0  0  0
    4.7140   -0.3120   -0.8910 C   0  0  0  0  0  0  0  0  0  0  0  0
    4.3510    0.8560   -0.2560 C   0  0  0  0  0  0  0  0  0  0  0  0
   -3.0920    1.4850    0.9130 C   0  0  0  0  0  0  0  0  0  0  0  0
   -6.6550   -0.8670   -0.3190 C   0  0  0  0  0  0  0  0  0  0  0  0
  2  1  1  6
  2  3  1  0
  2 38  1  0
  3  4  1  0
  4  5  1  0
  5  6  1  0
  6  7  1  1
  6 38  1  0
  7  8  2  0
  7  9  1  0
  9 10  1  0
  9 37  1  0
 10 11  1  0
 11 12  1  0
 12 13  1  1
 12 37  1  0
 13 14  1  0
 14 15  1  0
 15 16  1  0
 16 17  2  0
 16 18  1  0
 18 19  1  0
 19 20  1  0
 19 36  1  0
 20 21  2  0
 21 22  1  0
 22 23  2  0
 22 36  1  0
 23 24  1  0
 24 25  1  0
 24 34  2  0
 25 26  1  0
 26 27  2  0
 26 33  1  0
 27 28  1  0
 28 29  2  0
 29 30  1  0
 29 31  1  0
 31 32  1  0
 31 33  2  0
 34 35  1  0
 35 36  2  0
M  CHG  2   2   1  12   1
M  END
