
     RDKit          3D

 37 42  0  0  0  0  0  0  0  0999 V2000
    9.2810   -1.1910    1.5340 C   0  0  0  0  0  0  0  0  0  0  0  0
    8.5090   -0.0670    1.0910 N   0  0  0  0  0  0  0  0  0  0  0  0
    7.4540    0.3170    1.9870 C   0  0  0  0  0  0  0  0  0  0  0  0
    6.3310   -0.6870    2.0280 C   0  0  0  0  0  0  0  0  0  0  0  0
    5.7640   -0.8120    0.6630 C   0  0  0  0  0  0  0  0  0  0  0  0
    6.2550   -1.7430   -0.2380 C   0  0  0  0  0  0  0  0  0  0  0  0
    5.7070   -1.8360   -1.4990 C   0  0  0  0  0  0  0  0  0  0  0  0
    4.6800   -1.0010   -1.8400 C   0  0  0  0  0  0  0  0  0  0  0  0
    4.1830   -0.0730   -0.9560 C   0  0  0  0  0  0  0  0  0  0  0  0
    3.1440    0.7500   -1.3460 O   0  0  0  0  0  0  0  0  0  0  0  0
    1.8490    0.3520   -1.1340 C   0  0  0  0  0  0  0  0  0  0  0  0
    1.5990   -0.8710   -0.5310 C   0  0  0  0  0  0  0  0  0  0  0  0
    0.2810   -1.2210   -0.3420 C   0  0  0  0  0  0  0  0  0  0  0  0
   -0.7560   -0.3910   -0.7350 C   0  0  0  0  0  0  0  0  0  0  0  0
   -0.4970    0.8380   -1.3420 C   0  0  0  0  0  0  0  0  0  0  0  0
    0.8160    1.1890   -1.5310 C   0  0  0  0  0  0  0  0  0  0  0  0
    1.0580    2.4170   -2.1370 O   0  0  0  0  0  0  0  0  0  0  0  0
    1.1830    3.5420   -1.2730 C   0  0  0  0  0  0  0  0  0  0  0  0
    1.4210    4.7080   -1.9810 O   0  0  0  0  0  0  0  0  0  0  0  0
   -1.5580    1.6810   -1.7410 O   0  0  0  0  0  0  0  0  0  0  0  0
   -2.9000    1.2860   -1.5310 C   0  0  0  0  0  0  0  0  0  0  0  0
   -4.0620    1.7660   -1.7450 N   0  0  0  0  0  0  0  0  0  0  0  0
   -5.0740    0.9080   -1.3040 N   0  0  0  0  0  0  0  0  0  0  0  0
   -6.4460    1.3810   -1.4650 C   0  0  0  0  0  0  0  0  0  0  0  0
   -7.4360    0.4280   -0.8680 C   0  0  0  0  0  0  0  0  0  0  0  0
   -7.5660    0.4870    0.5520 N   0  0  1  0  0  0  0  0  0  0  0  0
   -8.0260   -0.8180    0.9980 C   0  0  0  0  0  0  0  0  0  0  0  0
   -6.4020    0.8730    1.2780 C   0  0  0  0  0  0  0  0  0  0  0  0
   -5.5190   -0.2780    1.6860 C   0  0  0  0  0  0  0  0  0  0  0  0
   -4.6730   -0.6270    0.5860 N   0  0  0  0  0  0  0  0  0  0  0  0
   -3.7310   -1.6340    1.0460 C   0  0  0  0  0  0  0  0  0  0  0  0
   -3.9150   -2.1340    2.1720 O   0  0  0  0  0  0  0  0  0  0  0  0
   -2.5650   -2.0470    0.1580 C   0  0  0  0  0  0  0  0  0  0  0  0
   -2.1320   -0.8010   -0.5220 C   0  0  0  0  0  0  0  0  0  0  0  0
   -3.0550    0.0180   -0.9150 C   0  0  0  0  0  0  0  0  0  0  0  0
   -4.5190   -0.2680   -0.7770 C   0  0  2  0  0  0  0  0  0  0  0  0
    4.7300    0.0260    0.3140 C   0  0  0  0  0  0  0  0  0  0  0  0
  1  2  1  0
  2  3  1  0
  3  4  1  0
  4  5  1  0
  5  6  2  0
  5 37  1  0
  6  7  1  0
  7  8  2  0
  8  9  1  0
  9 10  1  0
  9 37  2  0
 10 11  1  0
 11 12  2  0
 11 16  1  0
 12 13  1  0
 13 14  2  0
 14 15  1  0
 14 34  1  0
 15 16  2  0
 15 20  1  0
 16 17  1  0
 17 18  1  0
 18 19  1  0
 20 21  1  0
 21 22  2  0
 21 35  1  0
 22 23  1  0
 23 24  1  0
 36 23  1  1
 24 25  1  0
 25 26  1  0
 26 27  1  1
 26 28  1  0
 28 29  1  0
 29 30  1  0
 30 31  1  0
 30 36  1  0
 31 32  2  0
 31 33  1  0
 33 34  1  0
 34 35  2  0
 35 36  1  0
M  CHG  2   2   1  26   1
M  END
