
     RDKit          3D

 47 50  0  0  0  0  0  0  0  0999 V2000
   -6.1400    4.1990    1.8500 C   0  0  0  0  0  0  0  0  0  0  0  0
   -6.4910    4.5400    0.4110 C   0  0  0  0  0  0  0  0  0  0  0  0
   -6.6810    3.2420   -0.3870 C   0  0  0  0  0  0  0  0  0  0  0  0
   -5.4980    2.4590   -0.3740 C   0  0  0  0  0  0  0  0  0  0  0  0
   -4.6080    2.1820   -1.3910 C   0  0  0  0  0  0  0  0  0  0  0  0
   -3.5520    1.3300   -0.9210 C   0  0  0  0  0  0  0  0  0  0  0  0
   -2.4930    0.6730   -1.1350 C   0  0  0  0  0  0  0  0  0  0  0  0
   -1.7350    0.5010   -2.3350 C   0  0  0  0  0  0  0  0  0  0  0  0
   -2.1030    0.9520   -3.4420 O   0  0  0  0  0  0  0  0  0  0  0  0
   -0.4740   -0.1920   -2.4370 N   0  0  0  0  0  0  0  0  0  0  0  0
    0.2250   -0.3800   -3.6420 C   0  0  0  0  0  0  0  0  0  0  0  0
   -0.4880   -0.5790   -4.8320 C   0  0  0  0  0  0  0  0  0  0  0  0
    0.2340   -0.9410   -5.9860 C   0  0  0  0  0  0  0  0  0  0  0  0
    1.5910   -1.0980   -5.9640 C   0  0  0  0  0  0  0  0  0  0  0  0
    2.2760   -0.8900   -4.7560 C   0  0  0  0  0  0  0  0  0  0  0  0
    1.5900   -0.5310   -3.6070 C   0  0  0  0  0  0  0  0  0  0  0  0
    2.3150   -0.1730   -2.4080 C   0  0  0  0  0  0  0  0  0  0  0  0
    1.7730    0.3490   -1.3790 O   0  0  0  0  0  0  0  0  0  0  0  0
    3.7310   -0.3640   -2.2400 N   0  0  0  0  0  0  0  0  0  0  0  0
    4.4510    0.0140   -1.0820 C   0  0  0  0  0  0  0  0  0  0  0  0
    4.1330    1.0340   -0.2200 C   0  0  0  0  0  0  0  0  0  0  0  0
    4.8900    1.3320    0.9190 C   0  0  0  0  0  0  0  0  0  0  0  0
    5.9990    0.5880    1.2080 C   0  0  0  0  0  0  0  0  0  0  0  0
    6.3450   -0.4330    0.3780 C   0  0  0  0  0  0  0  0  0  0  0  0
    5.5940   -0.7260   -0.7520 C   0  0  0  0  0  0  0  0  0  0  0  0
    7.5660   -1.2080    0.7530 C   0  0  2  0  0  0  0  0  0  0  0  0
    7.2890   -2.0370    1.8900 N   0  0  0  0  0  0  0  0  0  0  0  0
    7.3860   -3.4350    1.5110 C   0  0  0  0  0  0  0  0  0  0  0  0
    8.6180   -0.1630    1.0740 C   0  0  0  0  0  0  0  0  0  0  0  0
    8.2380    0.6260    2.2750 C   0  0  0  0  0  0  0  0  0  0  0  0
    6.7900    0.9400    2.4300 C   0  0  0  0  0  0  0  0  0  0  0  0
   -2.0110   -0.0960    0.0860 C   0  0  0  0  0  0  0  0  0  0  0  0
   -1.0250   -0.7860    0.0920 O   0  0  0  0  0  0  0  0  0  0  0  0
   -2.7400   -0.0120    1.2720 O   0  0  0  0  0  0  0  0  0  0  0  0
   -2.3650   -0.7030    2.4550 C   0  0  1  0  0  0  0  0  0  0  0  0
   -1.9940    0.2380    3.5820 C   0  0  0  0  0  0  0  0  0  0  0  0
   -3.3470   -1.7080    2.8720 C   0  0  0  0  0  0  0  0  0  0  0  0
   -3.7060   -1.7890    4.2160 C   0  0  0  0  0  0  0  0  0  0  0  0
   -4.6140   -2.7090    4.6710 C   0  0  0  0  0  0  0  0  0  0  0  0
   -5.2100   -3.5970    3.7940 C   0  0  0  0  0  0  0  0  0  0  0  0
   -4.8660   -3.5290    2.4580 C   0  0  0  0  0  0  0  0  0  0  0  0
   -3.9390   -2.5920    1.9940 C   0  0  0  0  0  0  0  0  0  0  0  0
   -3.5880   -2.5150    0.6610 O   0  0  0  0  0  0  0  0  0  0  0  0
   -4.1040   -3.3400   -0.3480 C   0  0  0  0  0  0  0  0  0  0  0  0
   -4.8710    2.8500   -2.6090 C   0  0  0  0  0  0  0  0  0  0  0  0
   -4.2480    2.8570   -3.9340 C   0  0  0  0  0  0  0  0  0  0  0  0
   -5.9130    3.6720   -2.6100 O   0  0  0  0  0  0  0  0  0  0  0  0
  1  2  1  0
  2  3  1  0
  3  4  1  0
  4  5  2  3
  5  6  1  0
  5 45  1  0
  6  7  2  3
  7  8  1  0
  7 32  1  0
  8  9  2  0
  8 10  1  0
 10 11  1  0
 11 12  2  0
 11 16  1  0
 12 13  1  0
 13 14  2  0
 14 15  1  0
 15 16  2  0
 16 17  1  0
 17 18  2  0
 17 19  1  0
 19 20  1  0
 20 21  2  0
 20 25  1  0
 21 22  1  0
 22 23  2  0
 23 24  1  0
 23 31  1  0
 24 25  2  0
 24 26  1  0
 26 27  1  1
 26 29  1  0
 27 28  1  0
 29 30  1  0
 30 31  1  0
 32 33  2  0
 32 34  1  0
 34 35  1  0
 35 36  1  1
 35 37  1  0
 37 38  2  0
 37 42  1  0
 38 39  1  0
 39 40  2  0
 40 41  1  0
 41 42  2  0
 42 43  1  0
 43 44  1  0
 45 46  1  0
 45 47  2  0
M  CHG  1  27   1
M  END
