
     RDKit          3D

 49 53  0  0  0  0  0  0  0  0999 V2000
   -5.4200    1.4260   -4.2950 C   0  0  0  0  0  0  0  0  0  0  0  0
   -5.8770    0.1320   -3.6390 C   0  0  1  0  0  0  0  0  0  0  0  0
   -7.0560    0.4630   -2.7490 C   0  0  0  0  0  0  0  0  0  0  0  0
   -6.3610   -0.8130   -4.7020 C   0  0  0  0  0  0  0  0  0  0  0  0
   -4.7960   -0.4680   -2.8440 N   0  0  0  0  0  0  0  0  0  0  0  0
   -4.2320    0.2420   -1.7780 C   0  0  0  0  0  0  0  0  0  0  0  0
   -4.6460    1.4170   -1.4870 O   0  0  0  0  0  0  0  0  0  0  0  0
   -3.1220   -0.3640   -0.9500 C   0  0  2  0  0  0  0  0  0  0  0  0
   -3.4050   -1.7510   -0.5600 C   0  0  0  0  0  0  0  0  0  0  0  0
   -3.8770   -2.0290    0.8230 C   0  0  2  0  0  0  0  0  0  0  0  0
   -5.1540   -2.8500    0.8590 C   0  0  0  0  0  0  0  0  0  0  0  0
   -6.3970   -2.0400    0.9000 C   0  0  0  0  0  0  0  0  0  0  0  0
   -6.3680   -1.0490    2.0150 C   0  0  0  0  0  0  0  0  0  0  0  0
   -5.1950   -0.1180    1.7920 C   0  0  0  0  0  0  0  0  0  0  0  0
   -3.9130   -0.8550    1.7260 C   0  0  2  0  0  0  0  0  0  0  0  0
   -2.7350    0.0400    1.4070 C   0  0  0  0  0  0  0  0  0  0  0  0
   -2.6710    0.5400    0.0890 N   0  0  1  0  0  0  0  0  0  0  0  0
   -1.3800    1.0390   -0.2340 C   0  0  0  0  0  0  0  0  0  0  0  0
   -0.7210    2.0480    0.5960 C   0  0  1  0  0  0  0  0  0  0  0  0
   -1.4190    3.2110    0.8120 O   0  0  0  0  0  0  0  0  0  0  0  0
    0.0860    1.5310    1.7510 C   0  0  2  0  0  0  0  0  0  0  0  0
    1.0230    2.5890    2.2910 C   0  0  0  0  0  0  0  0  0  0  0  0
    1.8310    2.1530    3.4550 C   0  0  0  0  0  0  0  0  0  0  0  0
    3.1370    1.7240    3.3970 C   0  0  0  0  0  0  0  0  0  0  0  0
    3.8310    1.3180    4.5250 C   0  0  0  0  0  0  0  0  0  0  0  0
    3.2400    1.3270    5.7580 C   0  0  0  0  0  0  0  0  0  0  0  0
    1.9300    1.7590    5.8090 C   0  0  0  0  0  0  0  0  0  0  0  0
    1.2280    2.1620    4.7170 C   0  0  0  0  0  0  0  0  0  0  0  0
    0.7970    0.3330    1.4230 N   0  0  0  0  0  0  0  0  0  0  0  0
    1.9370    0.3290    0.5960 C   0  0  0  0  0  0  0  0  0  0  0  0
    2.3900    1.3850    0.1160 O   0  0  0  0  0  0  0  0  0  0  0  0
    2.6340   -0.9280    0.2720 C   0  0  2  0  0  0  0  0  0  0  0  0
    2.5990   -2.0040    1.2810 C   0  0  0  0  0  0  0  0  0  0  0  0
    3.1570   -1.7330    2.5940 C   0  0  0  0  0  0  0  0  0  0  0  0
    4.5660   -1.8340    2.8370 N   0  0  0  0  0  0  0  0  0  0  0  0
    2.4280   -1.4040    3.5550 O   0  0  0  0  0  0  0  0  0  0  0  0
    4.0220   -0.6340   -0.0920 N   0  0  0  0  0  0  0  0  0  0  0  0
    4.5770   -0.8730   -1.3590 C   0  0  0  0  0  0  0  0  0  0  0  0
    3.8030   -1.3740   -2.2310 O   0  0  0  0  0  0  0  0  0  0  0  0
    5.9660   -0.5690   -1.6770 C   0  0  0  0  0  0  0  0  0  0  0  0
    6.8630   -0.0280   -0.7860 C   0  0  0  0  0  0  0  0  0  0  0  0
    8.1920    0.2420   -1.1330 C   0  0  0  0  0  0  0  0  0  0  0  0
    8.6390   -0.0350   -2.4080 C   0  0  0  0  0  0  0  0  0  0  0  0
    9.9470    0.2230   -2.7730 C   0  0  0  0  0  0  0  0  0  0  0  0
   10.3920   -0.0580   -4.0530 C   0  0  0  0  0  0  0  0  0  0  0  0
    9.4750   -0.6000   -4.9290 C   0  0  0  0  0  0  0  0  0  0  0  0
    8.1690   -0.8570   -4.5650 C   0  0  0  0  0  0  0  0  0  0  0  0
    7.7210   -0.5760   -3.2830 C   0  0  0  0  0  0  0  0  0  0  0  0
    6.4430   -0.8290   -2.9240 N   0  0  0  0  0  0  0  0  0  0  0  0
  2  1  1  6
  2  3  1  0
  2  4  1  0
  2  5  1  0
  5  6  1  0
  6  7  2  0
  8  6  1  1
  8  9  1  0
  8 17  1  0
 10  9  1  6
 10 11  1  0
 10 15  1  0
 11 12  1  0
 12 13  1  0
 13 14  1  0
 15 14  1  6
 15 16  1  0
 16 17  1  0
 17 18  1  6
 18 19  1  0
 19 20  1  1
 19 21  1  0
 21 22  1  6
 21 29  1  0
 22 23  1  0
 23 24  2  0
 23 28  1  0
 24 25  1  0
 25 26  2  0
 26 27  1  0
 27 28  2  0
 29 30  1  0
 30 31  2  0
 30 32  1  0
 32 33  1  1
 32 37  1  0
 33 34  1  0
 34 35  1  0
 34 36  2  0
 37 38  1  0
 38 39  2  0
 38 40  1  0
 40 41  2  0
 40 49  1  0
 41 42  1  0
 42 43  2  0
 43 44  1  0
 43 48  1  0
 44 45  2  0
 45 46  1  0
 46 47  2  0
 47 48  1  0
 48 49  2  0
M  CHG  1  17   1
M  END
