
     RDKit          3D

 47 52  0  0  0  0  0  0  0  0999 V2000
    5.2120    3.5480   -0.1630 C   0  0  0  0  0  0  0  0  0  0  0  0
    4.0580    2.6500    0.1740 C   0  0  2  0  0  0  0  0  0  0  0  0
    4.2310    1.8000    1.2820 N   0  0  0  0  0  0  0  0  0  0  0  0
    5.2930    1.6620    2.1830 C   0  0  0  0  0  0  0  0  0  0  0  0
    4.9270    1.3960    3.3960 O   0  0  0  0  0  0  0  0  0  0  0  0
    6.7150    1.7610    2.0200 C   0  0  1  0  0  0  0  0  0  0  0  0
    7.4670    0.5440    2.6580 C   0  0  0  0  0  0  0  0  0  0  0  0
    7.5280    0.8850    1.2400 C   0  0  1  0  0  0  0  0  0  0  0  0
    6.9970    0.0860    0.1200 C   0  0  0  0  0  0  0  0  0  0  0  0
    5.9060   -0.8670    0.3540 C   0  0  0  0  0  0  0  0  0  0  0  0
    5.0000   -1.1230   -0.6550 O   0  0  0  0  0  0  0  0  0  0  0  0
    4.9770   -0.9360   -2.0200 C   0  0  0  0  0  0  0  0  0  0  0  0
    5.1440   -2.0230   -2.8610 C   0  0  0  0  0  0  0  0  0  0  0  0
    5.1460   -1.9600   -4.2400 C   0  0  0  0  0  0  0  0  0  0  0  0
    4.9730   -0.7390   -4.8350 C   0  0  0  0  0  0  0  0  0  0  0  0
    4.8040    0.3530   -3.9960 C   0  0  0  0  0  0  0  0  0  0  0  0
    4.7970    0.3070   -2.6210 C   0  0  0  0  0  0  0  0  0  0  0  0
    4.6110    1.4680   -1.9140 O   0  0  0  0  0  0  0  0  0  0  0  0
    3.6250    1.9790   -1.0870 C   0  0  1  0  0  0  0  0  0  0  0  0
    2.4070    1.1460   -0.9890 C   0  0  0  0  0  0  0  0  0  0  0  0
    2.3950    0.1100   -1.6820 O   0  0  0  0  0  0  0  0  0  0  0  0
    1.3020    1.4480   -0.1880 N   0  0  0  0  0  0  0  0  0  0  0  0
    0.0900    0.7580    0.0110 C   0  0  0  0  0  0  0  0  0  0  0  0
    0.0750   -0.5780    0.6420 C   0  0  2  0  0  0  0  0  0  0  0  0
    0.8390   -1.6810   -0.0290 C   0  0  0  0  0  0  0  0  0  0  0  0
    0.3660   -3.0150    0.5530 C   0  0  0  0  0  0  0  0  0  0  0  0
   -0.1660   -2.8660    1.9630 C   0  0  0  0  0  0  0  0  0  0  0  0
   -1.3140   -1.8690    1.9890 C   0  0  0  0  0  0  0  0  0  0  0  0
   -1.2880   -1.0650    0.7570 N   0  0  1  0  0  0  0  0  0  0  0  0
   -2.3120   -0.1030    0.8480 C   0  0  0  0  0  0  0  0  0  0  0  0
   -3.6170   -0.7610    0.4660 C   0  0  0  0  0  0  0  0  0  0  0  0
   -3.5770   -1.9660    0.1590 O   0  0  0  0  0  0  0  0  0  0  0  0
   -4.8220   -0.0150    0.4620 N   0  0  0  0  0  0  0  0  0  0  0  0
   -6.0500   -0.6500    0.0890 C   0  0  1  0  0  0  0  0  0  0  0  0
   -7.0740   -0.5480    1.1740 C   0  0  0  0  0  0  0  0  0  0  0  0
   -7.8610   -1.6080    1.5350 C   0  0  0  0  0  0  0  0  0  0  0  0
   -8.7900   -1.4520    2.5470 C   0  0  0  0  0  0  0  0  0  0  0  0
   -8.9620   -0.2520    3.2230 C   0  0  0  0  0  0  0  0  0  0  0  0
   -8.1440    0.7950    2.8260 C   0  0  0  0  0  0  0  0  0  0  0  0
   -7.2120    0.6660    1.8210 C   0  0  0  0  0  0  0  0  0  0  0  0
   -6.5910   -0.1090   -1.1850 C   0  0  0  0  0  0  0  0  0  0  0  0
   -7.8160   -0.5780   -1.6050 C   0  0  0  0  0  0  0  0  0  0  0  0
   -8.4080   -0.1520   -2.7670 C   0  0  0  0  0  0  0  0  0  0  0  0
   -7.7220    0.7860   -3.5230 C   0  0  0  0  0  0  0  0  0  0  0  0
   -6.5040    1.2480   -3.0980 C   0  0  0  0  0  0  0  0  0  0  0  0
   -5.9040    0.8130   -1.9160 C   0  0  0  0  0  0  0  0  0  0  0  0
   -4.6780    1.3220   -1.5530 O   0  0  0  0  0  0  0  0  0  0  0  0
  2  1  1  6
  2  3  1  0
  2 19  1  0
  3  4  1  0
  4  5  2  0
  4  6  1  0
  6  7  1  1
  6  8  1  0
  8  7  1  1
  8  9  1  0
  9 10  1  0
 10 11  1  0
 11 12  1  0
 12 13  2  0
 12 17  1  0
 13 14  1  0
 14 15  2  0
 15 16  1  0
 16 17  2  0
 17 18  1  0
 18 19  1  0
 19 20  1  1
 20 21  2  0
 20 22  1  0
 22 23  1  0
 24 23  1  6
 24 25  1  0
 24 29  1  0
 25 26  1  0
 26 27  1  0
 27 28  1  0
 28 29  1  0
 29 30  1  1
 30 31  1  0
 31 32  2  0
 31 33  1  0
 34 33  1  1
 34 35  1  0
 34 41  1  0
 35 36  2  0
 35 40  1  0
 36 37  1  0
 37 38  2  0
 38 39  1  0
 39 40  2  0
 41 42  2  0
 41 46  1  0
 42 43  1  0
 43 44  2  0
 44 45  1  0
 45 46  2  0
 46 47  1  0
M  CHG  1  29   1
M  END
