
     RDKit          3D

 47 51  0  0  0  0  0  0  0  0999 V2000
   -2.4940   -6.0110   -4.2620 C   0  0  0  0  0  0  0  0  0  0  0  0
   -2.2700   -4.7810   -3.5690 O   0  0  0  0  0  0  0  0  0  0  0  0
   -1.9300   -4.7190   -2.2450 C   0  0  0  0  0  0  0  0  0  0  0  0
   -1.8150   -5.8260   -1.6120 O   0  0  0  0  0  0  0  0  0  0  0  0
   -1.6760   -3.4990   -1.4490 C   0  0  0  0  0  0  0  0  0  0  0  0
   -1.7290   -2.3050   -2.3670 C   0  0  0  0  0  0  0  0  0  0  0  0
   -1.5110   -1.0150   -1.8030 C   0  0  0  0  0  0  0  0  0  0  0  0
   -0.2570   -0.6620   -1.8810 O   0  0  0  0  0  0  0  0  0  0  0  0
   -2.3340    0.0090   -1.1640 C   0  0  0  0  0  0  0  0  0  0  0  0
   -3.5850   -0.1840   -0.9500 C   0  0  0  0  0  0  0  0  0  0  0  0
   -4.4350   -1.3800   -1.2830 C   0  0  0  0  0  0  0  0  0  0  0  0
   -5.1740   -1.8400   -0.0140 C   0  0  2  0  0  0  0  0  0  0  0  0
   -6.0170   -3.0640   -0.3530 C   0  0  0  0  0  0  0  0  0  0  0  0
   -6.1450   -0.7520    0.4050 C   0  0  0  0  0  0  0  0  0  0  0  0
   -4.2660   -2.1870    1.1100 C   0  0  0  0  0  0  0  0  0  0  0  0
   -4.3250    0.7970   -0.3020 O   0  0  0  0  0  0  0  0  0  0  0  0
   -3.7570    1.9730    0.1220 C   0  0  0  0  0  0  0  0  0  0  0  0
   -4.7300    2.9080    0.7980 C   0  0  0  0  0  0  0  0  0  0  0  0
   -2.4980    2.2680   -0.0640 C   0  0  0  0  0  0  0  0  0  0  0  0
   -1.8960    3.5180    0.4540 C   0  0  0  0  0  0  0  0  0  0  0  0
   -0.8170    4.0790    0.0660 N   0  0  0  0  0  0  0  0  0  0  0  0
   -0.4700    5.2960    0.7700 C   0  0  0  0  0  0  0  0  0  0  0  0
   -1.3400    5.2630    1.9470 C   0  0  0  0  0  0  0  0  0  0  0  0
   -1.5920    5.8520    3.1350 N   0  0  0  0  0  0  0  0  0  0  0  0
   -2.6210    5.2650    3.6350 N   0  0  0  0  0  0  0  0  0  0  0  0
   -3.0690    4.2850    2.8040 C   0  0  0  0  0  0  0  0  0  0  0  0
   -2.2710    4.2500    1.7030 C   0  0  0  0  0  0  0  0  0  0  0  0
   -1.6750    1.3630   -0.8950 C   0  0  1  0  0  0  0  0  0  0  0  0
   -0.2940    1.1340   -0.4300 C   0  0  0  0  0  0  0  0  0  0  0  0
    0.8240    1.4340   -1.0430 C   0  0  0  0  0  0  0  0  0  0  0  0
    0.8810    2.0860   -2.3840 C   0  0  0  0  0  0  0  0  0  0  0  0
    2.1610    1.1620   -0.4610 C   0  0  0  0  0  0  0  0  0  0  0  0
    2.1950    0.6410    0.9170 C   0  0  2  0  0  0  0  0  0  0  0  0
    3.5190   -0.0650    1.0830 C   0  0  0  0  0  0  0  0  0  0  0  0
    3.4930   -1.2690    1.3650 O   0  0  0  0  0  0  0  0  0  0  0  0
    4.7300    0.6180    0.9210 N   0  0  0  0  0  0  0  0  0  0  0  0
    6.0330    0.0830    1.0450 C   0  0  0  0  0  0  0  0  0  0  0  0
    7.1190    0.9200    0.7650 C   0  0  0  0  0  0  0  0  0  0  0  0
    8.4150    0.5100    0.8540 C   0  0  0  0  0  0  0  0  0  0  0  0
    9.5570    1.4000    0.5560 C   0  0  0  0  0  0  0  0  0  0  0  0
    8.6560   -0.7930    1.2400 C   0  0  0  0  0  0  0  0  0  0  0  0
    7.6300   -1.6650    1.5290 C   0  0  0  0  0  0  0  0  0  0  0  0
    7.9700   -3.0440    1.9370 C   0  0  0  0  0  0  0  0  0  0  0  0
    6.3290   -1.1980    1.4230 C   0  0  0  0  0  0  0  0  0  0  0  0
    1.0550   -0.3080    1.1560 C   0  0  0  0  0  0  0  0  0  0  0  0
   -0.1810    0.4780    0.8940 C   0  0  0  0  0  0  0  0  0  0  0  0
   -1.1030    0.6040    1.7260 O   0  0  0  0  0  0  0  0  0  0  0  0
  1  2  1  0
  2  3  1  0
  3  4  2  0
  3  5  1  0
  5  6  1  0
  6  7  1  0
  7  8  2  0
  7  9  1  0
  9 10  2  0
  9 28  1  0
 10 11  1  0
 10 16  1  0
 11 12  1  0
 12 13  1  6
 12 14  1  0
 12 15  1  0
 16 17  1  0
 17 18  1  0
 17 19  2  0
 19 20  1  0
 19 28  1  0
 20 21  2  0
 20 27  1  0
 21 22  1  0
 22 23  1  0
 23 24  1  0
 23 27  2  0
 24 25  1  0
 25 26  2  0
 26 27  1  0
 28 29  1  1
 29 30  2  0
 29 46  1  0
 30 31  1  0
 30 32  1  0
 32 33  1  0
 33 34  1  6
 33 45  1  0
 34 35  2  0
 34 36  1  0
 36 37  1  0
 37 38  2  0
 37 44  1  0
 38 39  1  0
 39 40  1  0
 39 41  2  0
 41 42  1  0
 42 43  1  0
 42 44  2  0
 45 46  1  0
 46 47  2  0
M  CHG  1  21   1
M  END
