
     RDKit          3D

 48 54  0  0  0  0  0  0  0  0999 V2000
   -3.4750    2.2510    3.4840 C   0  0  0  0  0  0  0  0  0  0  0  0
   -4.1910    2.4430    2.1560 C   0  0  0  0  0  0  0  0  0  0  0  0
   -3.6300    3.4550    1.3260 N   0  0  1  0  0  0  0  0  0  0  0  0
   -2.6820    4.2520    2.1490 C   0  0  0  0  0  0  0  0  0  0  0  0
   -2.8330    2.9670    0.1980 C   0  0  2  0  0  0  0  0  0  0  0  0
   -3.5740    2.8060   -1.0800 C   0  0  0  0  0  0  0  0  0  0  0  0
   -4.5990    1.9320   -1.1490 O   0  0  0  0  0  0  0  0  0  0  0  0
   -5.8640    1.8410   -0.6920 C   0  0  0  0  0  0  0  0  0  0  0  0
   -6.3520    2.7540   -0.0210 O   0  0  0  0  0  0  0  0  0  0  0  0
   -6.6430    0.6180   -1.0190 C   0  0  0  0  0  0  0  0  0  0  0  0
   -6.1070   -0.4090   -1.7590 C   0  0  0  0  0  0  0  0  0  0  0  0
   -6.8510   -1.5390   -2.0570 C   0  0  0  0  0  0  0  0  0  0  0  0
   -8.1580   -1.6830   -1.6280 C   0  0  0  0  0  0  0  0  0  0  0  0
   -8.8820   -2.8260   -1.9400 C   0  0  0  0  0  0  0  0  0  0  0  0
  -10.1990   -2.9650   -1.5040 C   0  0  0  0  0  0  0  0  0  0  0  0
  -10.7420   -1.9380   -0.7620 C   0  0  0  0  0  0  0  0  0  0  0  0
  -10.0010   -0.8060   -0.4620 C   0  0  0  0  0  0  0  0  0  0  0  0
   -8.6970   -0.6530   -0.8860 C   0  0  0  0  0  0  0  0  0  0  0  0
   -7.9430    0.4630   -0.5990 C   0  0  0  0  0  0  0  0  0  0  0  0
   -1.9390    1.8630    0.6310 C   0  0  0  0  0  0  0  0  0  0  0  0
   -1.0670    1.2770   -0.3870 C   0  0  0  0  0  0  0  0  0  0  0  0
   -1.0540    1.6000   -1.5930 O   0  0  0  0  0  0  0  0  0  0  0  0
   -0.1690    0.2450    0.0760 N   0  0  0  0  0  0  0  0  0  0  0  0
   -0.0330    0.0160    1.4900 C   0  0  0  0  0  0  0  0  0  0  0  0
    1.1560   -0.8650    1.7510 C   0  0  0  0  0  0  0  0  0  0  0  0
    2.3200   -0.4770    0.8160 C   0  0  0  0  0  0  0  0  0  0  0  0
    1.8860   -0.8760   -0.5570 C   0  0  0  0  0  0  0  0  0  0  0  0
    2.7040   -1.5880   -1.3830 C   0  0  0  0  0  0  0  0  0  0  0  0
    4.0630   -1.8240   -1.0200 N   0  0  0  0  0  0  0  0  0  0  0  0
    4.8450   -2.8180   -1.6250 C   0  0  0  0  0  0  0  0  0  0  0  0
    4.3460   -3.5890   -2.5170 O   0  0  0  0  0  0  0  0  0  0  0  0
    6.2530   -3.0190   -1.2800 C   0  0  0  0  0  0  0  0  0  0  0  0
    6.9360   -4.0280   -1.9100 C   0  0  0  0  0  0  0  0  0  0  0  0
    8.2780   -4.3180   -1.6840 C   0  0  0  0  0  0  0  0  0  0  0  0
    8.9090   -3.4940   -0.7490 C   0  0  0  0  0  0  0  0  0  0  0  0
    8.2410   -2.4840   -0.1140 C   0  0  0  0  0  0  0  0  0  0  0  0
    6.9000   -2.2340   -0.3730 C   0  0  0  0  0  0  0  0  0  0  0  0
    6.5280   -1.1650    0.4210 O   0  0  0  0  0  0  0  0  0  0  0  0
    7.7470   -0.4840    0.7880 C   0  0  2  0  0  0  0  0  0  0  0  0
    7.6150    0.2460    2.0760 C   0  0  0  0  0  0  0  0  0  0  0  0
    8.3950    1.5170    1.8880 C   0  0  0  0  0  0  0  0  0  0  0  0
    8.7570    1.6250    0.4370 C   0  0  0  0  0  0  0  0  0  0  0  0
    8.0410    0.5230   -0.2810 C   0  0  0  0  0  0  0  0  0  0  0  0
    8.6770   -1.5590    0.8330 O   0  0  0  0  0  0  0  0  0  0  0  0
    2.1570   -1.9490   -2.6070 C   0  0  0  0  0  0  0  0  0  0  0  0
    0.8420   -1.5830   -2.9380 C   0  0  0  0  0  0  0  0  0  0  0  0
    0.0650   -0.8650   -2.0730 C   0  0  0  0  0  0  0  0  0  0  0  0
    0.5830   -0.5010   -0.8620 C   0  0  0  0  0  0  0  0  0  0  0  0
  1  2  1  0
  2  3  1  0
  3  4  1  1
  3  5  1  0
  5  6  1  6
  5 20  1  0
  6  7  1  0
  7  8  1  0
  8  9  2  0
  8 10  1  0
 10 11  2  0
 10 19  1  0
 11 12  1  0
 12 13  2  0
 13 14  1  0
 13 18  1  0
 14 15  2  0
 15 16  1  0
 16 17  2  0
 17 18  1  0
 18 19  2  0
 20 21  1  0
 21 22  2  0
 21 23  1  0
 23 24  1  0
 23 48  1  0
 24 25  1  0
 25 26  1  0
 26 27  1  0
 27 28  2  0
 27 48  1  0
 28 29  1  0
 28 45  1  0
 29 30  1  0
 30 31  2  0
 30 32  1  0
 32 33  2  0
 32 37  1  0
 33 34  1  0
 34 35  2  0
 35 36  1  0
 36 37  2  0
 36 44  1  0
 37 38  1  0
 38 39  1  0
 39 40  1  1
 39 43  1  0
 39 44  1  0
 40 41  1  0
 41 42  1  0
 42 43  1  0
 45 46  2  0
 46 47  1  0
 47 48  2  0
M  CHG  1   3   1
M  END
