
     RDKit          3D

 48 53  0  0  0  0  0  0  0  0999 V2000
    5.8890   -1.4470    3.2260 C   0  0  0  0  0  0  0  0  0  0  0  0
    6.3670   -0.7260    2.1090 O   0  0  0  0  0  0  0  0  0  0  0  0
    5.6700    0.3930    1.6870 C   0  0  0  0  0  0  0  0  0  0  0  0
    4.5330    0.7960    2.3440 C   0  0  0  0  0  0  0  0  0  0  0  0
    3.8460    1.9060    1.9230 C   0  0  0  0  0  0  0  0  0  0  0  0
    2.7020    2.3060    2.5870 O   0  0  0  0  0  0  0  0  0  0  0  0
    1.4280    1.9180    2.2290 C   0  0  0  0  0  0  0  0  0  0  0  0
    0.3920    2.4260    3.0070 C   0  0  0  0  0  0  0  0  0  0  0  0
   -0.8970    2.0850    2.7090 C   0  0  0  0  0  0  0  0  0  0  0  0
   -1.1750    1.2530    1.6580 C   0  0  0  0  0  0  0  0  0  0  0  0
   -2.5810    0.9070    1.3460 C   0  0  0  0  0  0  0  0  0  0  0  0
   -3.5870    1.8160    1.5920 C   0  0  0  0  0  0  0  0  0  0  0  0
   -4.9040    1.5300    1.3100 C   0  0  0  0  0  0  0  0  0  0  0  0
   -5.2740    0.3100    0.7640 C   0  0  0  0  0  0  0  0  0  0  0  0
   -6.6770    0.0310    0.4730 C   0  0  0  0  0  0  0  0  0  0  0  0
   -7.5180    1.0520    0.0990 C   0  0  0  0  0  0  0  0  0  0  0  0
   -8.8780    0.7940   -0.1810 C   0  0  0  0  0  0  0  0  0  0  0  0
   -9.4140   -0.4660   -0.0950 C   0  0  0  0  0  0  0  0  0  0  0  0
  -10.7430   -0.7120   -0.3580 N   0  0  1  0  0  0  0  0  0  0  0  0
  -11.4440    0.4990   -0.6900 C   0  0  0  0  0  0  0  0  0  0  0  0
  -11.2720    0.6170   -2.1860 C   0  0  0  0  0  0  0  0  0  0  0  0
  -10.7590   -0.7580   -2.6410 C   0  0  0  0  0  0  0  0  0  0  0  0
  -11.1190   -1.5610   -1.4400 C   0  0  2  0  0  0  0  0  0  0  0  0
  -12.6620   -1.6110   -1.4080 C   0  0  0  0  0  0  0  0  0  0  0  0
  -10.6700   -2.9630   -1.4350 C   0  0  0  0  0  0  0  0  0  0  0  0
   -8.5280   -1.4740    0.2870 C   0  0  0  0  0  0  0  0  0  0  0  0
   -7.2220   -1.2210    0.5550 C   0  0  0  0  0  0  0  0  0  0  0  0
   -4.2650   -0.5970    0.5200 C   0  0  0  0  0  0  0  0  0  0  0  0
   -2.9300   -0.3090    0.8050 C   0  0  0  0  0  0  0  0  0  0  0  0
   -0.1390    0.7590    0.8990 C   0  0  0  0  0  0  0  0  0  0  0  0
    1.1950    1.0850    1.1720 C   0  0  0  0  0  0  0  0  0  0  0  0
    4.3170    2.6020    0.8350 C   0  0  0  0  0  0  0  0  0  0  0  0
    5.4850    2.1890    0.1600 C   0  0  0  0  0  0  0  0  0  0  0  0
    6.1740    1.0860    0.5730 C   0  0  0  0  0  0  0  0  0  0  0  0
    7.3570    0.6030   -0.0220 N   0  0  0  0  0  0  0  0  0  0  0  0
    7.9810    1.0990   -1.1870 C   0  0  0  0  0  0  0  0  0  0  0  0
    7.4430    2.0820   -1.7940 O   0  0  0  0  0  0  0  0  0  0  0  0
    9.1930    0.5420   -1.7130 N   0  0  0  0  0  0  0  0  0  0  0  0
    9.7500    1.1150   -2.9240 C   0  0  0  0  0  0  0  0  0  0  0  0
   11.1680    1.4760   -2.6270 C   0  0  0  0  0  0  0  0  0  0  0  0
   11.7220    2.3910   -3.2840 O   0  0  0  0  0  0  0  0  0  0  0  0
   11.8680    0.7930   -1.6200 O   0  0  0  0  0  0  0  0  0  0  0  0
   11.2280    0.0600   -0.6200 C   0  0  2  0  0  0  0  0  0  0  0  0
   12.1040   -0.9810    0.0110 C   0  0  0  0  0  0  0  0  0  0  0  0
   12.5950   -1.9510   -0.9640 C   0  0  0  0  0  0  0  0  0  0  0  0
   13.4630   -3.1070   -0.5400 C   0  0  0  0  0  0  0  0  0  0  0  0
   12.3130   -1.8460   -2.1390 O   0  0  0  0  0  0  0  0  0  0  0  0
    9.9210   -0.5450   -1.1260 C   0  0  0  0  0  0  0  0  0  0  0  0
  1  2  1  0
  2  3  1  0
  3  4  2  0
  3 34  1  0
  4  5  1  0
  5  6  1  0
  5 32  2  0
  6  7  1  0
  7  8  2  0
  7 31  1  0
  8  9  1  0
  9 10  2  0
 10 11  1  0
 10 30  1  0
 11 12  2  0
 11 29  1  0
 12 13  1  0
 13 14  2  0
 14 15  1  0
 14 28  1  0
 15 16  2  0
 15 27  1  0
 16 17  1  0
 17 18  2  0
 19 18  1  6
 18 26  1  0
 19 20  1  0
 19 23  1  0
 20 21  1  0
 21 22  1  0
 22 23  1  0
 23 24  1  6
 23 25  1  0
 26 27  2  0
 28 29  2  0
 30 31  2  0
 32 33  1  0
 33 34  2  0
 34 35  1  0
 35 36  1  0
 36 37  2  0
 36 38  1  0
 38 39  1  0
 38 48  1  0
 39 40  1  0
 40 41  2  0
 40 42  1  0
 42 43  1  0
 43 44  1  6
 43 48  1  0
 44 45  1  0
 45 46  1  0
 45 47  2  0
M  CHG  1  19   1
M  END
