
     RDKit          3D

 47 52  0  0  0  0  0  0  0  0999 V2000
   -8.6500    3.8240    1.1380 C   0  0  0  0  0  0  0  0  0  0  0  0
   -7.8610    3.3580   -0.0190 C   0  0  0  0  0  0  0  0  0  0  0  0
   -8.3490    3.3300   -1.3070 C   0  0  0  0  0  0  0  0  0  0  0  0
   -7.5380    2.8760   -2.3330 C   0  0  0  0  0  0  0  0  0  0  0  0
   -6.2440    2.4490   -2.0960 C   0  0  0  0  0  0  0  0  0  0  0  0
   -5.7520    2.4760   -0.8120 C   0  0  0  0  0  0  0  0  0  0  0  0
   -4.3500    2.0290   -0.5140 C   0  0  1  0  0  0  0  0  0  0  0  0
   -3.6820    3.1240    0.2420 C   0  0  0  0  0  0  0  0  0  0  0  0
   -2.5910    3.7970   -0.4880 C   0  0  0  0  0  0  0  0  0  0  0  0
   -2.8350    4.9820   -0.8970 O   0  0  0  0  0  0  0  0  0  0  0  0
   -1.4020    3.2440   -0.7320 O   0  0  0  0  0  0  0  0  0  0  0  0
   -0.9090    2.2540   -1.5610 C   0  0  0  0  0  0  0  0  0  0  0  0
    0.1620    1.4340   -0.9360 C   0  0  0  0  0  0  0  0  0  0  0  0
    0.8740    2.1050   -0.0910 O   0  0  0  0  0  0  0  0  0  0  0  0
    0.5100    0.0930   -1.1180 N   0  0  0  0  0  0  0  0  0  0  0  0
    1.9050   -0.2210   -1.3900 C   0  0  0  0  0  0  0  0  0  0  0  0
    2.8850   -0.0570   -0.3440 C   0  0  0  0  0  0  0  0  0  0  0  0
    2.6800    0.1040    0.9840 C   0  0  0  0  0  0  0  0  0  0  0  0
    3.7300    0.2850    1.8670 C   0  0  0  0  0  0  0  0  0  0  0  0
    5.0590    0.3110    1.4300 C   0  0  0  0  0  0  0  0  0  0  0  0
    5.2870    0.1490    0.0830 C   0  0  0  0  0  0  0  0  0  0  0  0
    6.5920    0.1850   -0.4670 N   0  0  0  0  0  0  0  0  0  0  0  0
    7.7200    0.7730    0.1600 C   0  0  0  0  0  0  0  0  0  0  0  0
    7.6520    1.3290    1.2670 O   0  0  0  0  0  0  0  0  0  0  0  0
    8.9830    0.7230   -0.5130 N   0  0  0  0  0  0  0  0  0  0  0  0
   10.1210    1.3260    0.1230 C   0  0  2  0  0  0  0  0  0  0  0  0
   11.2290    1.8990   -0.6830 C   0  0  0  0  0  0  0  0  0  0  0  0
   11.4630    0.6280    0.0800 C   0  0  0  0  0  0  0  0  0  0  0  0
    4.2300   -0.0280   -0.7570 C   0  0  0  0  0  0  0  0  0  0  0  0
   -0.4150   -0.9950   -1.1730 C   0  0  0  0  0  0  0  0  0  0  0  0
   -1.3490   -1.3030   -0.0620 C   0  0  2  0  0  0  0  0  0  0  0  0
   -0.9460   -0.8120    1.2780 C   0  0  0  0  0  0  0  0  0  0  0  0
   -1.6970   -2.7530   -0.0600 C   0  0  0  0  0  0  0  0  0  0  0  0
   -0.8010   -3.8480    0.0610 C   0  0  0  0  0  0  0  0  0  0  0  0
   -1.3710   -5.1380   -0.0910 C   0  0  0  0  0  0  0  0  0  0  0  0
   -0.6730   -6.2980   -0.0190 C   0  0  0  0  0  0  0  0  0  0  0  0
    0.6750   -6.2240    0.2190 C   0  0  0  0  0  0  0  0  0  0  0  0
    1.2920   -5.0020    0.3770 C   0  0  0  0  0  0  0  0  0  0  0  0
    0.5480   -3.8400    0.2960 C   0  0  0  0  0  0  0  0  0  0  0  0
    1.4720   -2.8010    0.4980 O   0  0  0  0  0  0  0  0  0  0  0  0
    2.5970   -3.2720    1.2120 C   0  0  0  0  0  0  0  0  0  0  0  0
    2.7490   -4.6730    0.6500 C   0  0  0  0  0  0  0  0  0  0  0  0
   -2.7340   -0.6510   -0.4260 C   0  0  0  0  0  0  0  0  0  0  0  0
   -3.2820    0.0950    0.6420 N   0  0  0  0  0  0  0  0  0  0  0  0
   -4.5070    0.7720    0.3030 C   0  0  2  0  0  0  0  0  0  0  0  0
   -5.5220   -0.1740   -0.3250 C   0  0  0  0  0  0  0  0  0  0  0  0
   -6.5790    2.9320    0.1990 C   0  0  0  0  0  0  0  0  0  0  0  0
  1  2  1  0
  2  3  2  0
  2 47  1  0
  3  4  1  0
  4  5  2  0
  5  6  1  0
  7  6  1  1
  6 47  2  0
  7  8  1  0
  7 45  1  0
  8  9  1  0
  9 10  2  0
  9 11  1  0
 11 12  1  0
 12 13  1  0
 13 14  2  0
 13 15  1  0
 15 16  1  0
 15 30  1  0
 16 17  1  0
 17 18  2  0
 17 29  1  0
 18 19  1  0
 19 20  2  0
 20 21  1  0
 21 22  1  0
 21 29  2  0
 22 23  1  0
 23 24  2  0
 23 25  1  0
 26 25  1  6
 26 27  1  0
 26 28  1  0
 27 28  1  0
 30 31  1  0
 31 32  1  1
 31 33  1  0
 31 43  1  0
 33 34  1  0
 34 35  2  0
 34 39  1  0
 35 36  1  0
 36 37  2  0
 37 38  1  0
 38 39  2  0
 38 42  1  0
 39 40  1  0
 40 41  1  0
 41 42  1  0
 43 44  1  0
 44 45  1  0
 45 46  1  6
M  CHG  1  44   1
M  END
