
     RDKit          3D

 48 52  0  0  0  0  0  0  0  0999 V2000
   -8.5460    3.3370   -4.8440 C   0  0  0  0  0  0  0  0  0  0  0  0
   -7.6830    2.8950   -3.7000 C   0  0  0  0  0  0  0  0  0  0  0  0
   -6.4790    3.5160   -3.4460 C   0  0  0  0  0  0  0  0  0  0  0  0
   -5.6830    3.0970   -2.3900 C   0  0  0  0  0  0  0  0  0  0  0  0
   -6.0360    2.0610   -1.5470 C   0  0  0  0  0  0  0  0  0  0  0  0
   -5.2510    1.6070   -0.4680 N   0  0  0  0  0  0  0  0  0  0  0  0
   -5.0660    0.2600    0.0480 C   0  0  0  0  0  0  0  0  0  0  0  0
   -5.5980   -0.7350   -0.4570 O   0  0  0  0  0  0  0  0  0  0  0  0
   -4.1600    0.3120    1.2260 C   0  0  0  0  0  0  0  0  0  0  0  0
   -4.0760   -0.3260    2.3230 C   0  0  0  0  0  0  0  0  0  0  0  0
   -4.7220   -1.3640    3.0190 C   0  0  0  0  0  0  0  0  0  0  0  0
   -4.1030   -1.6800    4.2010 O   0  0  0  0  0  0  0  0  0  0  0  0
   -5.8210   -2.1770    2.8670 N   0  0  0  0  0  0  0  0  0  0  0  0
   -6.0670   -3.2500    3.9040 C   0  0  0  0  0  0  0  0  0  0  0  0
   -6.8430   -2.1460    1.8750 C   0  0  0  0  0  0  0  0  0  0  0  0
   -3.3090    1.5120    0.7930 C   0  0  2  0  0  0  0  0  0  0  0  0
   -2.3130    2.0050    1.7050 C   0  0  0  0  0  0  0  0  0  0  0  0
   -1.1760    1.0820    1.9930 C   0  0  0  0  0  0  0  0  0  0  0  0
   -0.3750    0.7430    0.7230 C   0  0  0  0  0  0  0  0  0  0  0  0
    0.7030   -0.2190    1.0720 C   0  0  0  0  0  0  0  0  0  0  0  0
    0.7260   -0.7090    2.2360 O   0  0  0  0  0  0  0  0  0  0  0  0
    1.6980   -0.6090    0.1520 N   0  0  0  0  0  0  0  0  0  0  0  0
    1.7400   -0.0220   -1.1740 C   0  0  0  0  0  0  0  0  0  0  0  0
    3.1280    0.5510   -1.4080 C   0  0  0  0  0  0  0  0  0  0  0  0
    4.1890   -0.1540   -0.6710 C   0  0  0  0  0  0  0  0  0  0  0  0
    5.3260    0.4020   -0.3820 C   0  0  0  0  0  0  0  0  0  0  0  0
    5.7720    1.7310   -0.6850 C   0  0  0  0  0  0  0  0  0  0  0  0
    6.9780    1.8910   -1.3760 C   0  0  0  0  0  0  0  0  0  0  0  0
    7.5220    3.1190   -1.6630 C   0  0  0  0  0  0  0  0  0  0  0  0
    6.8460    4.2650   -1.2500 C   0  0  0  0  0  0  0  0  0  0  0  0
    5.6610    4.1420   -0.5710 C   0  0  0  0  0  0  0  0  0  0  0  0
    5.0250    5.3400   -0.1680 N   0  0  0  0  0  0  0  0  0  0  0  0
    5.1410    2.8820   -0.2970 C   0  0  0  0  0  0  0  0  0  0  0  0
    3.9210   -1.5770   -0.2400 C   0  0  2  0  0  0  0  0  0  0  0  0
    4.9860   -1.9410    0.6120 O   0  0  0  0  0  0  0  0  0  0  0  0
    3.9620   -2.4980   -1.4110 C   0  0  0  0  0  0  0  0  0  0  0  0
    3.7060   -3.9380   -1.0890 C   0  0  0  0  0  0  0  0  0  0  0  0
    4.6740   -4.5310   -0.1580 C   0  0  0  0  0  0  0  0  0  0  0  0
    5.8510   -5.0960   -0.6710 C   0  0  0  0  0  0  0  0  0  0  0  0
    6.7540   -5.6470    0.1880 C   0  0  0  0  0  0  0  0  0  0  0  0
    6.5500   -5.6700    1.5490 C   0  0  0  0  0  0  0  0  0  0  0  0
    5.4070   -5.1250    2.0790 C   0  0  0  0  0  0  0  0  0  0  0  0
    4.4800   -4.5590    1.2010 C   0  0  0  0  0  0  0  0  0  0  0  0
    2.6600   -1.6240    0.5320 C   0  0  0  0  0  0  0  0  0  0  0  0
   -4.4340    2.4220    0.4100 C   0  0  0  0  0  0  0  0  0  0  0  0
   -4.6160    3.5840    0.7590 O   0  0  0  0  0  0  0  0  0  0  0  0
   -7.2640    1.4470   -1.8240 C   0  0  0  0  0  0  0  0  0  0  0  0
   -8.0560    1.8600   -2.8730 C   0  0  0  0  0  0  0  0  0  0  0  0
  1  2  1  0
  2  3  2  0
  2 48  1  0
  3  4  1  0
  4  5  2  0
  5  6  1  0
  5 47  1  0
  6  7  1  0
  6 45  1  0
  7  8  2  0
  7  9  1  0
  9 10  2  3
  9 16  1  0
 10 11  1  0
 11 12  2  0
 11 13  1  0
 13 14  1  0
 13 15  1  0
 16 17  1  1
 16 45  1  0
 17 18  1  0
 18 19  1  0
 19 20  1  0
 20 21  2  0
 20 22  1  0
 22 23  1  0
 22 44  1  0
 23 24  1  0
 24 25  1  0
 25 26  2  3
 25 34  1  0
 26 27  1  0
 27 28  2  0
 27 33  1  0
 28 29  1  0
 29 30  2  0
 30 31  1  0
 31 32  1  0
 31 33  2  0
 34 35  1  1
 34 36  1  0
 34 44  1  0
 36 37  1  0
 37 38  1  0
 38 39  2  0
 38 43  1  0
 39 40  1  0
 40 41  2  0
 41 42  1  0
 42 43  2  0
 45 46  2  0
 47 48  2  0
M  CHG  1  32   1
M  END
