
     RDKit          3D

 13 13  0  0  0  0  0  0  0  0999 V2000
    1.9830    2.0640   -0.6050 C   0  0  0  0  0  0  0  0  0  0  0  0
    2.5380    0.7060   -0.3170 C   0  0  0  0  0  0  0  0  0  0  0  0
    3.7640    0.5700    0.1490 C   0  0  0  0  0  0  0  0  0  0  0  0
    4.2950   -0.6680    0.4210 O   0  0  0  0  0  0  0  0  0  0  0  0
    3.6230   -1.8830    0.2420 C   0  0  0  0  0  0  0  0  0  0  0  0
    2.2510   -1.6890   -0.2820 C   0  0  0  0  0  0  0  0  0  0  0  0
    1.7450   -0.4950   -0.5420 C   0  0  0  0  0  0  0  0  0  0  0  0
    0.4570   -0.3130   -1.0340 O   0  0  0  0  0  0  0  0  0  0  0  0
   -0.5880   -0.2440   -0.0950 C   0  0  0  0  0  0  0  0  0  0  0  0
   -1.7940   -0.0610   -0.7720 O   0  0  0  0  0  0  0  0  0  0  0  0
   -2.8650    0.0140    0.1070 C   0  0  2  0  0  0  0  0  0  0  0  0
   -3.8940   -1.0490   -0.1530 C   0  0  0  0  0  0  0  0  0  0  0  0
   -3.5600    1.3580    0.0420 C   0  0  0  0  0  0  0  0  0  0  0  0
  1  2  1  0
  2  3  2  0
  2  7  1  0
  3  4  1  0
  4  5  1  0
  5  6  1  0
  6  7  2  0
  7  8  1  0
  8  9  1  0
  9 10  1  0
 10 11  1  0
 11 12  1  6
 11 13  1  0
M  END
