
     RDKit          3D

 13 12  0  0  0  0  0  0  0  0999 V2000
   -1.4980   -2.2030    0.8270 C   0  0  0  0  0  0  0  0  0  0  0  0
   -2.3110   -1.2170    0.5860 C   0  0  0  0  0  0  0  0  0  0  0  0
   -1.9820    0.1100    0.1080 C   0  0  0  0  0  0  0  0  0  0  0  0
   -3.0220    0.9660   -0.0400 C   0  0  0  0  0  0  0  0  0  0  0  0
   -2.7990    2.3420   -0.5200 C   0  0  0  0  0  0  0  0  0  0  0  0
   -0.6240    0.5960   -0.2050 C   0  0  0  0  0  0  0  0  0  0  0  0
    0.0470   -0.0970   -1.3360 C   0  0  0  0  0  0  0  0  0  0  0  0
    1.4410    0.4190   -1.6060 C   0  0  0  0  0  0  0  0  0  0  0  0
    2.3070    0.2790   -0.5260 O   0  0  0  0  0  0  0  0  0  0  0  0
    2.6620   -0.8970    0.0790 C   0  0  0  0  0  0  0  0  0  0  0  0
    2.1710   -1.9660   -0.3660 O   0  0  0  0  0  0  0  0  0  0  0  0
    3.5930   -1.0040    1.2350 C   0  0  0  0  0  0  0  0  0  0  0  0
    4.0670    0.2400    1.6340 O   0  0  0  0  0  0  0  0  0  0  0  0
  1  2  2  0
  2  3  1  0
  3  4  2  3
  3  6  1  0
  4  5  1  0
  6  7  1  0
  7  8  1  0
  8  9  1  0
  9 10  1  0
 10 11  2  0
 10 12  1  0
 12 13  1  0
M  END
