
     RDKit          3D

 13 13  0  0  0  0  0  0  0  0999 V2000
   -4.3700    0.5760   -0.3600 C   0  0  0  0  0  0  0  0  0  0  0  0
   -3.1360    0.9430    0.4380 C   0  0  0  0  0  0  0  0  0  0  0  0
   -2.7200   -0.0880    1.2630 O   0  0  0  0  0  0  0  0  0  0  0  0
   -2.4030   -1.2320    0.5800 C   0  0  0  0  0  0  0  0  0  0  0  0
   -1.2840   -1.0400   -0.4200 C   0  0  0  0  0  0  0  0  0  0  0  0
   -0.0090   -0.5750    0.2710 C   0  0  0  0  0  0  0  0  0  0  0  0
    0.9830   -0.4160   -0.7000 O   0  0  0  0  0  0  0  0  0  0  0  0
    2.2780   -0.0060   -0.4570 C   0  0  0  0  0  0  0  0  0  0  0  0
    3.3010   -0.7280   -0.8810 C   0  0  0  0  0  0  0  0  0  0  0  0
    4.7280   -0.3620   -0.6650 C   0  0  0  0  0  0  0  0  0  0  0  0
    4.8620    0.8460    0.0460 O   0  0  0  0  0  0  0  0  0  0  0  0
    3.8160    1.6270    0.5050 C   0  0  0  0  0  0  0  0  0  0  0  0
    2.5790    1.2240    0.2670 C   0  0  0  0  0  0  0  0  0  0  0  0
  1  2  1  0
  2  3  1  0
  3  4  1  0
  4  5  1  0
  5  6  1  0
  6  7  1  0
  7  8  1  0
  8  9  2  0
  8 13  1  0
  9 10  1  0
 10 11  1  0
 11 12  1  0
 12 13  2  0
M  END
