
     RDKit          3D

 13 12  0  0  0  0  0  0  0  0999 V2000
   -3.0010    2.0270    0.3960 C   0  0  0  0  0  0  0  0  0  0  0  0
   -2.6500    0.6260    0.8090 C   0  0  0  0  0  0  0  0  0  0  0  0
   -1.6520   -0.0140   -0.1650 C   0  0  1  0  0  0  0  0  0  0  0  0
   -2.3180   -0.0290   -1.5200 C   0  0  0  0  0  0  0  0  0  0  0  0
   -0.5410    0.7870   -0.1720 O   0  0  0  0  0  0  0  0  0  0  0  0
   -1.4210   -1.4100    0.3110 C   0  0  0  0  0  0  0  0  0  0  0  0
   -0.4680   -2.2060   -0.5160 C   0  0  0  0  0  0  0  0  0  0  0  0
    0.9100   -1.6380   -0.6130 C   0  0  0  0  0  0  0  0  0  0  0  0
    1.5110   -1.5400    0.7520 C   0  0  0  0  0  0  0  0  0  0  0  0
    2.7850   -1.0310    0.8010 O   0  0  0  0  0  0  0  0  0  0  0  0
    2.9390    0.2410    0.3130 C   0  0  0  0  0  0  0  0  0  0  0  0
    4.2520    0.6360    0.4170 O   0  0  0  0  0  0  0  0  0  0  0  0
    4.4620    1.9280   -0.0670 C   0  0  0  0  0  0  0  0  0  0  0  0
  1  2  1  0
  2  3  1  0
  3  4  1  6
  3  5  1  0
  3  6  1  0
  6  7  1  0
  7  8  1  0
  8  9  1  0
  9 10  1  0
 10 11  1  0
 11 12  1  0
 12 13  1  0
M  END
