
     RDKit          3D

 13 12  0  0  0  0  0  0  0  0999 V2000
   -3.7890   -0.7220   -1.7090 C   0  0  0  0  0  0  0  0  0  0  0  0
   -3.0520   -1.5420   -2.4290 C   0  0  0  0  0  0  0  0  0  0  0  0
   -1.6130   -1.4180   -2.3920 C   0  0  0  0  0  0  0  0  0  0  0  0
   -0.8800   -2.2350   -3.1080 C   0  0  0  0  0  0  0  0  0  0  0  0
   -0.9870   -0.3990   -1.5460 C   0  0  0  0  0  0  0  0  0  0  0  0
    0.5130   -0.4700   -1.4780 C   0  0  2  0  0  0  0  0  0  0  0  0
    0.8360   -1.7340   -0.9360 O   0  0  0  0  0  0  0  0  0  0  0  0
    1.0130    0.5480   -0.4450 C   0  0  0  0  0  0  0  0  0  0  0  0
    0.3770    0.3870    0.7560 O   0  0  0  0  0  0  0  0  0  0  0  0
    0.7540    1.2530    1.7650 C   0  0  0  0  0  0  0  0  0  0  0  0
    2.1910    1.0610    2.0900 C   0  0  0  0  0  0  0  0  0  0  0  0
    2.6580    1.8920    3.1020 O   0  0  0  0  0  0  0  0  0  0  0  0
    2.0040    1.7490    4.2940 C   0  0  0  0  0  0  0  0  0  0  0  0
  1  2  2  0
  2  3  1  0
  3  4  2  0
  3  5  1  0
  5  6  1  0
  6  7  1  1
  6  8  1  0
  8  9  1  0
  9 10  1  0
 10 11  1  0
 11 12  1  0
 12 13  1  0
M  END
