
     RDKit          3D

 13 12  0  0  0  0  0  0  0  0999 V2000
   -4.2770    0.5300    0.6980 C   0  0  0  0  0  0  0  0  0  0  0  0
   -2.8840    1.0160    0.3890 C   0  0  0  0  0  0  0  0  0  0  0  0
   -2.4990    1.9490    1.0600 O   0  0  0  0  0  0  0  0  0  0  0  0
   -2.1370    0.3260   -0.6760 C   0  0  0  0  0  0  0  0  0  0  0  0
   -1.6800   -0.9940   -0.1150 C   0  0  0  0  0  0  0  0  0  0  0  0
   -0.8160   -0.8030    1.0770 C   0  0  0  0  0  0  0  0  0  0  0  0
    0.4060    0.0020    0.7430 C   0  0  0  0  0  0  0  0  0  0  0  0
    1.1910   -0.6820   -0.3280 C   0  0  0  0  0  0  0  0  0  0  0  0
    2.4280    0.1190   -0.5960 C   0  0  0  0  0  0  0  0  0  0  0  0
    3.5990   -0.4790   -0.4090 C   0  0  0  0  0  0  0  0  0  0  0  0
    4.8230    0.2570   -0.6550 C   0  0  0  0  0  0  0  0  0  0  0  0
    5.9370   -0.3410   -0.4650 O   0  0  0  0  0  0  0  0  0  0  0  0
    4.8800    1.5660   -1.0830 O   0  0  0  0  0  0  0  0  0  0  0  0
  1  2  1  0
  2  3  2  0
  2  4  1  0
  4  5  1  0
  5  6  1  0
  6  7  1  0
  7  8  1  0
  8  9  1  0
  9 10  2  3
 10 11  1  0
 11 12  2  0
 11 13  1  0
M  END
