
     RDKit          3D

 14 14  0  0  0  0  0  0  0  0999 V2000
    4.4930    0.4960    0.0480 C   0  0  0  0  0  0  0  0  0  0  0  0
    4.0080   -0.0410   -1.2910 C   0  0  0  0  0  0  0  0  0  0  0  0
    2.9130   -0.9230   -1.1490 O   0  0  0  0  0  0  0  0  0  0  0  0
    1.7100   -0.5280   -0.5770 C   0  0  0  0  0  0  0  0  0  0  0  0
    1.6500    0.6660   -0.1880 O   0  0  0  0  0  0  0  0  0  0  0  0
    0.5640   -1.4760   -0.4370 C   0  0  0  0  0  0  0  0  0  0  0  0
   -0.5850   -0.8800    0.1520 N   0  0  0  0  0  0  0  0  0  0  0  0
   -1.2710    0.2290   -0.5390 C   0  0  0  0  0  0  0  0  0  0  0  0
   -0.7830    0.6600   -1.7880 C   0  0  0  0  0  0  0  0  0  0  0  0
   -1.9200    1.9940   -2.2310 S   0  0  0  0  0  0  0  0  0  0  0  0
   -2.9420    1.8680   -0.7290 C   0  0  0  0  0  0  0  0  0  0  0  0
   -2.3430    0.8400   -0.0290 C   0  0  0  0  0  0  0  0  0  0  0  0
   -2.9860    0.4720    1.3210 C   0  0  0  0  0  0  0  0  0  0  0  0
   -3.7790   -0.7750    1.1440 C   0  0  0  0  0  0  0  0  0  0  0  0
  1  2  1  0
  2  3  1  0
  3  4  1  0
  4  5  2  0
  4  6  1  0
  6  7  1  0
  7  8  1  0
  8  9  2  0
  8 12  1  0
  9 10  1  0
 10 11  1  0
 11 12  2  0
 12 13  1  0
 13 14  1  0
M  END
