
     RDKit          3D

 14 14  0  0  0  0  0  0  0  0999 V2000
    4.8430   -0.3730   -0.4860 C   0  0  0  0  0  0  0  0  0  0  0  0
    4.0220    0.8770   -0.4560 C   0  0  0  0  0  0  0  0  0  0  0  0
    3.4090    1.1300    0.7470 O   0  0  0  0  0  0  0  0  0  0  0  0
    2.5330    0.1620    1.1740 C   0  0  0  0  0  0  0  0  0  0  0  0
    1.4050   -0.0720    0.2360 C   0  0  0  0  0  0  0  0  0  0  0  0
    0.2380    0.3840    0.0390 N   0  0  0  0  0  0  0  0  0  0  0  0
   -0.5930    0.0160   -0.8660 C   0  0  0  0  0  0  0  0  0  0  0  0
   -1.9930    0.5720   -1.0810 C   0  0  0  0  0  0  0  0  0  0  0  0
   -3.0160   -0.1920   -0.3130 C   0  0  2  0  0  0  0  0  0  0  0  0
   -4.3620    0.4380   -0.5960 C   0  0  0  0  0  0  0  0  0  0  0  0
   -2.7890   -0.0990    1.1780 C   0  0  0  0  0  0  0  0  0  0  0  0
   -3.0610   -1.5460   -0.6600 O   0  0  0  0  0  0  0  0  0  0  0  0
   -0.1670   -0.9940   -1.7260 C   0  0  0  0  0  0  0  0  0  0  0  0
    1.5070   -1.3390   -1.1020 S   0  0  0  0  0  0  0  0  0  0  0  0
  1  2  1  0
  2  3  1  0
  3  4  1  0
  4  5  1  0
  5  6  2  0
  5 14  1  0
  6  7  1  0
  7  8  1  0
  7 13  2  0
  8  9  1  0
  9 10  1  1
  9 11  1  0
  9 12  1  0
 13 14  1  0
M  END
