
     RDKit          3D

 14 14  0  0  0  0  0  0  0  0999 V2000
   -2.1700    2.3540    1.0280 C   0  0  0  0  0  0  0  0  0  0  0  0
   -1.7280    1.0410    0.5120 C   0  0  0  0  0  0  0  0  0  0  0  0
   -2.5210   -0.0500    0.7410 C   0  0  0  0  0  0  0  0  0  0  0  0
   -2.1150   -1.2650    0.2650 C   0  0  0  0  0  0  0  0  0  0  0  0
   -2.9350   -2.5060    0.4780 C   0  0  0  0  0  0  0  0  0  0  0  0
   -0.9300   -1.3650   -0.4270 C   0  0  0  0  0  0  0  0  0  0  0  0
   -0.0970   -0.2760   -0.6780 C   0  0  0  0  0  0  0  0  0  0  0  0
    1.1100   -0.4330   -1.4100 N   0  0  0  0  0  0  0  0  0  0  0  0
    2.1020    0.5830   -1.5430 C   0  0  0  0  0  0  0  0  0  0  0  0
    2.8160    0.9650   -0.2870 C   0  0  0  0  0  0  0  0  0  0  0  0
    3.6800   -0.4080    0.4410 S   0  0  2  0  0  0  0  0  0  0  0  0
    4.9940    0.0530    0.9900 O   0  0  0  0  0  0  0  0  0  0  0  0
    3.9200   -1.5070   -0.5440 O   0  0  0  0  0  0  0  0  0  0  0  0
   -0.5220    0.9420   -0.1920 C   0  0  0  0  0  0  0  0  0  0  0  0
  1  2  1  0
  2  3  2  0
  2 14  1  0
  3  4  1  0
  4  5  1  0
  4  6  2  0
  6  7  1  0
  7  8  1  0
  7 14  2  0
  8  9  1  0
  9 10  1  0
 11 10  1  6
 11 12  2  0
 11 13  2  0
M  END
