
     RDKit          3D

 14 13  0  0  0  0  0  0  0  0999 V2000
   -3.9840   -2.0540   -1.3880 C   0  0  0  0  0  0  0  0  0  0  0  0
   -2.6950   -1.4280   -1.0330 C   0  0  0  0  0  0  0  0  0  0  0  0
   -2.5120   -0.2370   -0.5050 C   0  0  0  0  0  0  0  0  0  0  0  0
   -3.6140    0.7030   -0.1660 C   0  0  0  0  0  0  0  0  0  0  0  0
   -3.7010    1.0640    1.2830 C   0  0  0  0  0  0  0  0  0  0  0  0
   -1.1250    0.2950   -0.2460 C   0  0  0  0  0  0  0  0  0  0  0  0
   -0.1270   -0.6360   -0.6580 N   0  0  0  0  0  0  0  0  0  0  0  0
    1.1750   -0.0450   -0.5050 C   0  0  0  0  0  0  0  0  0  0  0  0
    1.5170    0.1260    0.9330 C   0  0  0  0  0  0  0  0  0  0  0  0
    3.1420    0.8770    0.9820 S   0  0  2  0  0  0  0  0  0  0  0  0
    3.6490    0.9740    2.3940 O   0  0  0  0  0  0  0  0  0  0  0  0
    3.1220    2.2040    0.3110 O   0  0  0  0  0  0  0  0  0  0  0  0
    4.2730   -0.2170    0.1210 C   0  0  0  0  0  0  0  0  0  0  0  0
    5.6470    0.3990    0.1260 C   0  0  0  0  0  0  0  0  0  0  0  0
  1  2  1  0
  2  3  2  3
  3  4  1  0
  3  6  1  0
  4  5  1  0
  6  7  1  0
  7  8  1  0
  8  9  1  0
 10  9  1  1
 10 11  2  0
 10 12  2  0
 10 13  1  0
 13 14  1  0
M  END
