
     RDKit          3D

 14 14  0  0  0  0  0  0  0  0999 V2000
    4.0770    1.1940    1.3690 C   0  0  0  0  0  0  0  0  0  0  0  0
    2.7800    1.1880    0.5890 C   0  0  0  0  0  0  0  0  0  0  0  0
    2.4620   -0.2280    0.1230 C   0  0  0  0  0  0  0  0  0  0  0  0
    1.1800   -0.1730   -0.6370 C   0  0  0  0  0  0  0  0  0  0  0  0
    0.7510   -1.4530   -1.1430 N   0  0  0  0  0  0  0  0  0  0  0  0
   -0.7220   -1.2960   -1.9980 S   0  0  1  0  0  0  0  0  0  0  0  0
   -0.5170   -0.3170   -3.1190 O   0  0  0  0  0  0  0  0  0  0  0  0
   -1.1060   -2.6280   -2.6000 O   0  0  0  0  0  0  0  0  0  0  0  0
   -2.0210   -0.7160   -1.0050 C   0  0  0  0  0  0  0  0  0  0  0  0
   -2.2190    0.6460   -0.9180 C   0  0  0  0  0  0  0  0  0  0  0  0
   -3.2150    1.2280   -0.1630 C   0  0  0  0  0  0  0  0  0  0  0  0
   -4.0640    0.4080    0.5460 C   0  0  0  0  0  0  0  0  0  0  0  0
   -3.8790   -0.9750    0.4700 C   0  0  0  0  0  0  0  0  0  0  0  0
   -2.8740   -1.5320   -0.2930 C   0  0  0  0  0  0  0  0  0  0  0  0
  1  2  1  0
  2  3  1  0
  3  4  1  0
  4  5  1  0
  6  5  1  1
  6  7  2  0
  6  8  2  0
  6  9  1  0
  9 10  2  0
  9 14  1  0
 10 11  1  0
 11 12  2  0
 12 13  1  0
 13 14  2  0
M  END
