
     RDKit          3D

 14 14  0  0  0  0  0  0  0  0999 V2000
    5.0950   -0.1690    1.0750 C   0  0  0  0  0  0  0  0  0  0  0  0
    3.6700    0.1460    1.3480 C   0  0  0  0  0  0  0  0  0  0  0  0
    2.6810   -0.3170    0.5870 C   0  0  0  0  0  0  0  0  0  0  0  0
    3.0610   -1.1820   -0.5750 C   0  0  0  0  0  0  0  0  0  0  0  0
    1.2590    0.0110    0.8780 C   0  0  0  0  0  0  0  0  0  0  0  0
    0.5330    0.8610   -0.4940 S   0  0  1  0  0  0  0  0  0  0  0  0
    1.3370    2.1090   -0.7290 O   0  0  0  0  0  0  0  0  0  0  0  0
    0.6900   -0.0000   -1.7070 O   0  0  0  0  0  0  0  0  0  0  0  0
   -1.0820    1.2810   -0.2680 N   0  0  0  0  0  0  0  0  0  0  0  0
   -1.9950    0.2160   -0.0710 C   0  0  1  0  0  0  0  0  0  0  0  0
   -2.6660    0.4070    1.2740 C   0  0  0  0  0  0  0  0  0  0  0  0
   -4.0970    0.0160    1.1240 C   0  0  0  0  0  0  0  0  0  0  0  0
   -4.2110   -0.5680   -0.2700 C   0  0  0  0  0  0  0  0  0  0  0  0
   -3.1470    0.2160   -1.0240 C   0  0  0  0  0  0  0  0  0  0  0  0
  1  2  1  0
  2  3  2  3
  3  4  1  0
  3  5  1  0
  6  5  1  1
  6  7  2  0
  6  8  2  0
  6  9  1  0
 10  9  1  6
 10 11  1  0
 10 14  1  0
 11 12  1  0
 12 13  1  0
 13 14  1  0
M  END
