
     RDKit          3D

 26 25  0  0  0  0  0  0  0  0999 V2000
    1.9850    3.7570   -0.1820 C   0  0  0  0  0  0  0  0  0  0  0  0
    2.1080    2.9510   -1.2230 O   0  0  0  0  0  0  0  0  0  0  0  0
    2.9600    1.9500   -1.3820 C   0  0  0  0  0  0  0  0  0  0  0  0
    2.9380    0.8320   -0.3680 C   0  0  2  0  0  0  0  0  0  0  0  0
    1.6510    0.3870   -0.2180 O   0  0  0  0  0  0  0  0  0  0  0  0
    1.4780   -0.8840   -0.7400 C   0  0  0  0  0  0  0  0  0  0  0  0
    0.0000   -1.3230   -0.5530 C   0  0  0  0  0  0  0  0  0  0  0  0
   -0.8090   -0.4850   -1.1800 O   0  0  0  0  0  0  0  0  0  0  0  0
   -2.1160   -0.5600   -1.3620 C   0  0  0  0  0  0  0  0  0  0  0  0
   -3.0560   -0.6720   -0.2080 C   0  0  2  0  0  0  0  0  0  0  0  0
   -2.7830    0.3650    0.8050 C   0  0  0  0  0  0  0  0  0  0  0  0
   -2.9980    1.6750    0.2220 N   0  0  0  0  0  0  0  0  0  0  0  0
   -2.8090    2.8800    0.9530 C   0  0  0  0  0  0  0  0  0  0  0  0
   -3.0300    4.1330    0.3450 N   0  0  0  0  0  0  0  0  0  0  0  0
   -2.4450    2.8030    2.1410 O   0  0  0  0  0  0  0  0  0  0  0  0
   -2.9860   -2.1070    0.3140 C   0  0  0  0  0  0  0  0  0  0  0  0
   -3.4540   -3.2930   -0.9750 S   0  0  0  0  0  0  0  0  0  0  0  0
   -5.1890   -3.1560   -1.4460 C   0  0  0  0  0  0  0  0  0  0  0  0
   -4.3920   -0.5420   -0.6570 O   0  0  0  0  0  0  0  0  0  0  0  0
   -5.2880   -0.5420    0.3590 C   0  0  0  0  0  0  0  0  0  0  0  0
    3.7110    1.0550    0.8270 C   0  0  0  0  0  0  0  0  0  0  0  0
    3.5800    2.2120    1.6330 O   0  0  0  0  0  0  0  0  0  0  0  0
    4.6050    0.2090    1.2820 C   0  0  0  0  0  0  0  0  0  0  0  0
    4.9430   -1.0280    0.6850 C   0  0  0  0  0  0  0  0  0  0  0  0
    5.8850   -1.8000    1.2590 C   0  0  0  0  0  0  0  0  0  0  0  0
    6.2450   -3.0340    0.6930 N   0  0  0  0  0  0  0  0  0  0  0  0
  1  2  1  0
  2  3  1  0
  4  3  1  1
  4  5  1  0
  4 21  1  0
  5  6  1  0
  6  7  1  0
  7  8  1  0
  8  9  1  0
 10  9  1  6
 10 11  1  0
 10 16  1  0
 10 19  1  0
 11 12  1  0
 12 13  1  0
 13 14  1  0
 13 15  2  0
 16 17  1  0
 17 18  1  0
 19 20  1  0
 21 22  1  0
 21 23  2  3
 23 24  1  0
 24 25  2  3
 25 26  1  0
M  CHG  1  26   1
M  END
