
     RDKit          3D

 14 13  0  0  0  0  0  0  0  0999 V2000
    5.7820   -0.4470   -0.1360 C   0  0  0  0  0  0  0  0  0  0  0  0
    4.3340   -0.7360    0.0140 C   0  0  0  0  0  0  0  0  0  0  0  0
    3.4300    0.2040    0.2140 C   0  0  0  0  0  0  0  0  0  0  0  0
    3.7570    1.6340    0.3100 C   0  0  0  0  0  0  0  0  0  0  0  0
    2.0730   -0.1930    0.3430 N   0  0  0  0  0  0  0  0  0  0  0  0
    1.1940    0.0670   -0.7640 C   0  0  0  0  0  0  0  0  0  0  0  0
   -0.2170   -0.3960   -0.5140 C   0  0  0  0  0  0  0  0  0  0  0  0
   -0.8550    0.2590    0.6660 C   0  0  0  0  0  0  0  0  0  0  0  0
   -2.5120   -0.4030    0.8150 S   0  0  2  0  0  0  0  0  0  0  0  0
   -3.2060    0.1390    2.0090 O   0  0  0  0  0  0  0  0  0  0  0  0
   -2.3500   -1.9030    0.9520 O   0  0  0  0  0  0  0  0  0  0  0  0
   -3.3600   -0.0100   -0.6910 C   0  0  0  0  0  0  0  0  0  0  0  0
   -4.7840   -0.5220   -0.6870 C   0  0  0  0  0  0  0  0  0  0  0  0
   -5.6050    0.0560    0.4270 C   0  0  0  0  0  0  0  0  0  0  0  0
  1  2  1  0
  2  3  2  3
  3  4  1  0
  3  5  1  0
  5  6  1  0
  6  7  1  0
  7  8  1  0
  9  8  1  6
  9 10  2  0
  9 11  2  0
  9 12  1  0
 12 13  1  0
 13 14  1  0
M  END
