
     RDKit          3D

 12 12  0  0  0  0  0  0  0  0999 V2000
   -2.1060   -2.7590   -0.2830 O   0  0  0  0  0  0  0  0  0  0  0  0
   -1.8540   -1.5380   -0.2700 C   0  0  0  0  0  0  0  0  0  0  0  0
   -0.7310   -1.0810   -0.8480 N   0  0  0  0  0  0  0  0  0  0  0  0
   -0.4670    0.2440   -0.8270 C   0  0  0  0  0  0  0  0  0  0  0  0
    1.0130    0.9430   -1.5680 S   0  0  0  0  0  0  0  0  0  0  0  0
    2.3250    0.9400   -0.2910 C   0  0  0  0  0  0  0  0  0  0  0  0
    2.7230   -0.7880    0.0760 S   0  0  0  0  0  0  0  0  0  0  0  0
    3.9400   -0.9090    1.2570 O   0  0  0  0  0  0  0  0  0  0  0  0
   -1.3610    1.0730   -0.2140 N   0  0  0  0  0  0  0  0  0  0  0  0
   -2.4820    0.6340    0.3650 C   0  0  0  0  0  0  0  0  0  0  0  0
   -3.3230    1.3730    0.9370 O   0  0  0  0  0  0  0  0  0  0  0  0
   -2.7330   -0.6940    0.3370 N   0  0  0  0  0  0  0  0  0  0  0  0
  1  2  2  0
  2  3  1  0
  2 12  1  0
  3  4  2  0
  4  5  1  0
  4  9  1  0
  5  6  1  0
  6  7  1  0
  7  8  1  0
  9 10  1  0
 10 11  2  0
 10 12  1  0
M  END
