
     RDKit          3D

 13 13  0  0  0  0  0  0  0  0999 V2000
   -3.7590   -0.7000   -0.3680 N   0  0  0  0  0  0  0  0  0  0  0  0
   -3.3540    0.6080    0.0010 C   0  0  0  0  0  0  0  0  0  0  0  0
   -4.2110    1.5060    0.2070 O   0  0  0  0  0  0  0  0  0  0  0  0
   -1.9460    0.9610    0.1550 C   0  0  0  0  0  0  0  0  0  0  0  0
   -1.0460   -0.1420   -0.1050 N   0  0  0  0  0  0  0  0  0  0  0  0
    0.3630   -0.0340   -0.0170 C   0  0  0  0  0  0  0  0  0  0  0  0
    0.8390    1.0840    0.3040 O   0  0  0  0  0  0  0  0  0  0  0  0
    1.2340   -1.0860   -0.2640 O   0  0  0  0  0  0  0  0  0  0  0  0
    2.6440   -0.8920   -0.1530 C   0  0  0  0  0  0  0  0  0  0  0  0
    3.1650    0.1920    0.1620 N   0  0  0  0  0  0  0  0  0  0  0  0
    4.4810    0.4420    0.2850 N   0  0  0  0  0  0  0  0  0  0  0  0
    5.4660   -0.7660   -0.5650 S   0  0  0  0  0  0  0  0  0  0  0  0
    3.8370   -2.2020   -0.4570 S   0  0  0  0  0  0  0  0  0  0  0  0
  1  2  1  0
  2  3  2  0
  2  4  1  0
  4  5  1  0
  5  6  1  0
  6  7  2  0
  6  8  1  0
  8  9  1  0
  9 10  2  0
  9 13  1  0
 10 11  1  0
 11 12  1  0
 12 13  1  0
M  END
