
     RDKit          3D

 20 22  0  0  0  0  0  0  0  0999 V2000
    5.2600    1.2180   -0.1180 N   0  0  0  0  0  0  0  0  0  0  0  0
    3.8910    0.8570   -0.1040 C   0  0  0  0  0  0  0  0  0  0  0  0
    2.9030    1.7410    0.3120 C   0  0  0  0  0  0  0  0  0  0  0  0
    1.6120    1.3670    0.3150 N   0  0  0  0  0  0  0  0  0  0  0  0
    1.1890    0.1500   -0.0720 C   0  0  0  0  0  0  0  0  0  0  0  0
   -0.2180   -0.2260   -0.0590 C   0  0  0  0  0  0  0  0  0  0  0  0
   -0.6470   -1.4640   -0.4520 C   0  0  0  0  0  0  0  0  0  0  0  0
   -2.0210   -1.7440   -0.4080 C   0  0  0  0  0  0  0  0  0  0  0  0
   -2.9280   -0.7990    0.0210 C   0  0  0  0  0  0  0  0  0  0  0  0
   -4.2870   -1.0630    0.0690 C   0  0  0  0  0  0  0  0  0  0  0  0
   -4.9600   -2.7660   -0.4630 Br  0  0  0  0  0  0  0  0  0  0  0  0
   -5.1950   -0.1150    0.5000 C   0  0  0  0  0  0  0  0  0  0  0  0
   -4.6890    1.1100    0.8800 C   0  0  0  0  0  0  0  0  0  0  0  0
   -5.9430    2.4340    1.4800 Br  0  0  0  0  0  0  0  0  0  0  0  0
   -3.3270    1.3850    0.8360 C   0  0  0  0  0  0  0  0  0  0  0  0
   -2.4310    0.4300    0.4040 C   0  0  0  0  0  0  0  0  0  0  0  0
   -1.1070    0.6900    0.3580 N   0  0  0  0  0  0  0  0  0  0  0  0
    2.1470   -0.7150   -0.4780 N   0  0  0  0  0  0  0  0  0  0  0  0
    3.4500   -0.3900   -0.4990 C   0  0  0  0  0  0  0  0  0  0  0  0
    4.4520   -1.3310   -0.9370 N   0  0  0  0  0  0  0  0  0  0  0  0
  1  2  1  0
  2  3  2  0
  2 19  1  0
  3  4  1  0
  4  5  2  0
  5  6  1  0
  5 18  1  0
  6  7  2  0
  6 17  1  0
  7  8  1  0
  8  9  2  0
  9 10  1  0
  9 16  1  0
 10 11  1  0
 10 12  2  0
 12 13  1  0
 13 14  1  0
 13 15  2  0
 15 16  1  0
 16 17  2  0
 18 19  2  0
 19 20  1  0
M  END
