
     RDKit          3D

 13 13  0  0  0  0  0  0  0  0999 V2000
    3.1610    1.6070    0.7050 O   0  0  0  0  0  0  0  0  0  0  0  0
    3.1840    0.5180    0.0760 C   0  0  0  0  0  0  0  0  0  0  0  0
    4.3680   -0.2210    0.0520 O   0  0  0  0  0  0  0  0  0  0  0  0
    2.0040    0.0670   -0.5940 N   0  0  0  0  0  0  0  0  0  0  0  0
    0.8850    0.8520   -0.5210 N   0  0  0  0  0  0  0  0  0  0  0  0
   -0.2970    0.4930   -0.2410 C   0  0  0  0  0  0  0  0  0  0  0  0
   -1.5860    1.6380   -0.1980 S   0  0  0  0  0  0  0  0  0  0  0  0
   -3.0750    0.9110    0.2020 C   0  0  0  0  0  0  0  0  0  0  0  0
   -4.4370    1.7970    0.3030 S   0  0  0  0  0  0  0  0  0  0  0  0
   -3.0310   -0.4000    0.4170 N   0  0  0  0  0  0  0  0  0  0  0  0
   -1.9570   -1.1530    0.3470 N   0  0  0  0  0  0  0  0  0  0  0  0
   -0.7190   -0.7870    0.0550 C   0  0  0  0  0  0  0  0  0  0  0  0
    0.2120   -1.6660    0.0330 O   0  0  0  0  0  0  0  0  0  0  0  0
  1  2  2  0
  2  3  1  0
  2  4  1  0
  4  5  1  0
  5  6  2  3
  6  7  1  0
  6 12  1  0
  7  8  1  0
  8  9  2  0
  8 10  1  0
 10 11  1  0
 11 12  1  0
 12 13  2  0
M  END
