
     RDKit          3D

 13 13  0  0  0  0  0  0  0  0999 V2000
    4.3720    0.7140   -0.3590 C   0  0  0  0  0  0  0  0  0  0  0  0
    3.0660   -0.0050   -0.2480 C   0  0  0  0  0  0  0  0  0  0  0  0
    3.0550   -1.2340    0.0420 O   0  0  0  0  0  0  0  0  0  0  0  0
    1.8750    0.6900   -0.4660 N   0  0  0  0  0  0  0  0  0  0  0  0
    0.6630   -0.0450   -0.3460 C   0  0  0  0  0  0  0  0  0  0  0  0
    0.2400   -1.1370   -0.1070 N   0  0  0  0  0  0  0  0  0  0  0  0
   -1.0200   -1.4420   -0.0920 N   0  0  0  0  0  0  0  0  0  0  0  0
   -1.9070   -0.7440   -0.2960 C   0  0  0  0  0  0  0  0  0  0  0  0
   -3.6650   -0.6730   -0.3940 S   0  0  2  0  0  0  0  0  0  0  0  0
   -4.2980   -0.2820    1.1670 N   0  0  0  0  0  0  0  0  0  0  0  0
   -4.1120   -2.0080   -0.8700 O   0  0  0  0  0  0  0  0  0  0  0  0
   -4.0830    0.4290   -1.3530 O   0  0  0  0  0  0  0  0  0  0  0  0
   -0.9240    0.8730   -0.6340 S   0  0  0  0  0  0  0  0  0  0  0  0
  1  2  1  0
  2  3  2  0
  2  4  1  0
  4  5  1  0
  5  6  2  0
  5 13  1  0
  6  7  1  0
  7  8  2  0
  8  9  1  0
  8 13  1  0
  9 10  1  1
  9 11  2  0
  9 12  2  0
M  END
