
     RDKit          3D

 13 13  0  0  0  0  0  0  0  0999 V2000
    2.4600   -0.2010    1.4930 O   0  0  0  0  0  0  0  0  0  0  0  0
    2.4890   -0.5430    0.3010 C   0  0  0  0  0  0  0  0  0  0  0  0
    4.0590   -1.0950   -0.4350 S   0  0  0  0  0  0  0  0  0  0  0  0
    1.3180   -0.5020   -0.4660 N   0  0  0  0  0  0  0  0  0  0  0  0
    0.0420   -0.1220   -0.1140 N   0  0  0  0  0  0  0  0  0  0  0  0
   -0.3920    0.3080    1.0750 C   0  0  0  0  0  0  0  0  0  0  0  0
    0.3710    0.4150    2.0520 O   0  0  0  0  0  0  0  0  0  0  0  0
   -1.6980    0.6540    1.2860 N   0  0  0  0  0  0  0  0  0  0  0  0
   -2.6160    0.5840    0.3220 C   0  0  0  0  0  0  0  0  0  0  0  0
   -3.8320    0.9080    0.5240 O   0  0  0  0  0  0  0  0  0  0  0  0
   -2.2050    0.1590   -0.8670 N   0  0  0  0  0  0  0  0  0  0  0  0
   -0.9290   -0.1800   -1.0760 C   0  0  0  0  0  0  0  0  0  0  0  0
   -0.4960   -0.6970   -2.5760 S   0  0  0  0  0  0  0  0  0  0  0  0
  1  2  2  0
  2  3  1  0
  2  4  1  0
  4  5  1  0
  5  6  1  0
  5 12  1  0
  6  7  2  0
  6  8  1  0
  8  9  1  0
  9 10  2  0
  9 11  1  0
 11 12  1  0
 12 13  2  0
M  END
