
     RDKit          3D

 21 22  0  0  0  0  0  0  0  0999 V2000
    4.8420    2.6540    0.0190 C   0  0  0  0  0  0  0  0  0  0  0  0
    4.8460    1.3750    0.8430 C   0  0  0  0  0  0  0  0  0  0  0  0
    3.6140    0.7060    0.6550 O   0  0  0  0  0  0  0  0  0  0  0  0
    2.4010    1.2790    0.9770 C   0  0  0  0  0  0  0  0  0  0  0  0
    2.5130    2.4720    1.4610 O   0  0  0  0  0  0  0  0  0  0  0  0
    1.0960    0.6920    0.8270 C   0  0  0  0  0  0  0  0  0  0  0  0
    0.9050   -0.4980    0.3520 C   0  0  0  0  0  0  0  0  0  0  0  0
    2.1370   -1.2380   -0.0330 C   0  0  0  0  0  0  0  0  0  0  0  0
    1.8500   -2.6210   -0.5920 C   0  0  1  0  0  0  0  0  0  0  0  0
    3.0450   -3.2820   -0.7490 O   0  0  0  0  0  0  0  0  0  0  0  0
    1.0350   -3.3670    0.4360 C   0  0  0  0  0  0  0  0  0  0  0  0
   -0.2750   -3.3110   -0.0040 O   0  0  0  0  0  0  0  0  0  0  0  0
   -0.9470   -2.2920    0.6690 C   0  0  0  0  0  0  0  0  0  0  0  0
   -0.5150   -0.9330    0.2560 C   0  0  0  0  0  0  0  0  0  0  0  0
   -1.3520   -0.0870   -0.2350 C   0  0  0  0  0  0  0  0  0  0  0  0
   -0.8800    1.1760   -0.6500 O   0  0  0  0  0  0  0  0  0  0  0  0
   -2.7890   -0.2680   -0.4280 C   0  0  0  0  0  0  0  0  0  0  0  0
   -3.6200    0.7460    0.3390 C   0  0  2  0  0  0  0  0  0  0  0  0
   -5.0920    0.4930    0.0900 C   0  0  0  0  0  0  0  0  0  0  0  0
   -5.0920    1.7100   -0.8210 C   0  0  0  0  0  0  0  0  0  0  0  0
   -3.7560    2.0860   -0.2710 C   0  0  0  0  0  0  0  0  0  0  0  0
  1  2  1  0
  2  3  1  0
  3  4  1  0
  4  5  2  0
  4  6  1  0
  6  7  2  3
  7  8  1  0
  7 14  1  0
  8  9  1  0
  9 10  1  1
  9 11  1  0
 11 12  1  0
 12 13  1  0
 13 14  1  0
 14 15  2  3
 15 16  1  0
 15 17  1  0
 18 17  1  6
 18 19  1  0
 18 21  1  0
 19 20  1  0
 20 21  1  0
M  END
