
     RDKit          3D

 21 23  0  0  0  0  0  0  0  0999 V2000
   -4.5890   -1.8450    0.0270 C   0  0  0  0  0  0  0  0  0  0  0  0
   -3.9830   -0.4840    0.0480 C   0  0  0  0  0  0  0  0  0  0  0  0
   -4.7320    0.6570    0.3150 C   0  0  0  0  0  0  0  0  0  0  0  0
   -6.0980    0.4710    0.5670 O   0  0  0  0  0  0  0  0  0  0  0  0
   -4.1690    1.9160    0.3340 C   0  0  0  0  0  0  0  0  0  0  0  0
   -2.8290    2.0680    0.0850 C   0  0  0  0  0  0  0  0  0  0  0  0
   -2.0600    0.9670   -0.1820 C   0  0  0  0  0  0  0  0  0  0  0  0
   -2.6300   -0.2790   -0.1980 C   0  0  0  0  0  0  0  0  0  0  0  0
   -1.7760   -1.4250   -0.4870 C   0  0  0  0  0  0  0  0  0  0  0  0
   -2.3420   -2.4910   -0.8440 O   0  0  0  0  0  0  0  0  0  0  0  0
   -0.3180   -1.2650   -0.3430 C   0  0  0  0  0  0  0  0  0  0  0  0
    0.1020    0.0420   -0.9360 C   0  0  2  0  0  0  0  0  0  0  0  0
    1.5030    0.4080   -0.5730 C   0  0  0  0  0  0  0  0  0  0  0  0
    2.0530    1.6790   -0.7370 C   0  0  0  0  0  0  0  0  0  0  0  0
    3.3570    1.6410   -0.2960 C   0  0  0  0  0  0  0  0  0  0  0  0
    3.5610    0.3460    0.1230 C   0  0  0  0  0  0  0  0  0  0  0  0
    4.8610   -0.1210    0.6790 C   0  0  0  0  0  0  0  0  0  0  0  0
    5.6960   -0.6230   -0.4700 C   0  0  0  0  0  0  0  0  0  0  0  0
    6.9110   -1.0600    0.0480 O   0  0  0  0  0  0  0  0  0  0  0  0
    2.4520   -0.3220   -0.0610 O   0  0  0  0  0  0  0  0  0  0  0  0
   -0.7120    1.1110   -0.4340 O   0  0  0  0  0  0  0  0  0  0  0  0
  1  2  1  0
  2  3  2  0
  2  8  1  0
  3  4  1  0
  3  5  1  0
  5  6  2  0
  6  7  1  0
  7  8  2  0
  7 21  1  0
  8  9  1  0
  9 10  2  0
  9 11  1  0
 11 12  1  0
 12 13  1  1
 12 21  1  0
 13 14  2  0
 13 20  1  0
 14 15  1  0
 15 16  2  0
 16 17  1  0
 16 20  1  0
 17 18  1  0
 18 19  1  0
M  END
