
     RDKit          3D

 21 23  0  0  0  0  0  0  0  0999 V2000
    5.8830    0.1050    1.2000 C   0  0  0  0  0  0  0  0  0  0  0  0
    4.5350    0.0020    1.6170 O   0  0  0  0  0  0  0  0  0  0  0  0
    3.5140    0.0840    0.6740 C   0  0  0  0  0  0  0  0  0  0  0  0
    3.7950    0.2650   -0.6540 C   0  0  0  0  0  0  0  0  0  0  0  0
    2.7990    0.3550   -1.6450 C   0  0  0  0  0  0  0  0  0  0  0  0
    3.1560    0.5330   -2.9530 O   0  0  0  0  0  0  0  0  0  0  0  0
    1.5020    0.2510   -1.2070 C   0  0  0  0  0  0  0  0  0  0  0  0
    1.1390    0.0660    0.1310 C   0  0  0  0  0  0  0  0  0  0  0  0
    2.1930   -0.0120    1.0400 C   0  0  0  0  0  0  0  0  0  0  0  0
   -0.1760   -0.0380    0.5460 O   0  0  0  0  0  0  0  0  0  0  0  0
   -1.2020    0.2950   -0.3450 C   0  0  2  0  0  0  0  0  0  0  0  0
   -2.5410   -0.0180    0.1720 C   0  0  0  0  0  0  0  0  0  0  0  0
   -2.8640    0.3520    1.4550 C   0  0  0  0  0  0  0  0  0  0  0  0
   -4.1070    0.0760    1.9860 C   0  0  0  0  0  0  0  0  0  0  0  0
   -5.0770   -0.5800    1.2590 C   0  0  0  0  0  0  0  0  0  0  0  0
   -6.3370   -0.8640    1.7860 O   0  0  0  0  0  0  0  0  0  0  0  0
   -4.7620   -0.9560   -0.0290 C   0  0  0  0  0  0  0  0  0  0  0  0
   -3.4930   -0.6710   -0.5620 C   0  0  0  0  0  0  0  0  0  0  0  0
   -0.9050   -0.3250   -1.6890 C   0  0  0  0  0  0  0  0  0  0  0  0
    0.3790    0.3450   -2.1330 C   0  0  0  0  0  0  0  0  0  0  0  0
    0.4940    0.9400   -3.2040 O   0  0  0  0  0  0  0  0  0  0  0  0
  1  2  1  0
  2  3  1  0
  3  4  2  0
  3  9  1  0
  4  5  1  0
  5  6  1  0
  5  7  2  0
  7  8  1  0
  7 20  1  0
  8  9  2  0
  8 10  1  0
 10 11  1  0
 11 12  1  1
 11 19  1  0
 12 13  2  0
 12 18  1  0
 13 14  1  0
 14 15  2  0
 15 16  1  0
 15 17  1  0
 17 18  2  0
 19 20  1  0
 20 21  2  0
M  END
