
     RDKit          3D

 21 23  0  0  0  0  0  0  0  0999 V2000
   -4.7680    0.3280   -1.8040 C   0  0  0  0  0  0  0  0  0  0  0  0
   -3.6630   -0.0560   -0.8680 C   0  0  1  0  0  0  0  0  0  0  0  0
   -2.3000    0.3100   -1.4020 C   0  0  0  0  0  0  0  0  0  0  0  0
   -1.2940   -0.0730   -0.3670 C   0  0  0  0  0  0  0  0  0  0  0  0
    0.0520   -0.2290   -0.7140 C   0  0  0  0  0  0  0  0  0  0  0  0
    0.9900   -0.5800    0.2220 C   0  0  0  0  0  0  0  0  0  0  0  0
    2.3480   -0.7390   -0.1200 O   0  0  0  0  0  0  0  0  0  0  0  0
    3.2360    0.3370   -0.0570 C   0  0  0  0  0  0  0  0  0  0  0  0
    2.7480    1.4320    0.3190 O   0  0  0  0  0  0  0  0  0  0  0  0
    4.6460    0.1940   -0.4070 C   0  0  0  0  0  0  0  0  0  0  0  0
    5.5470    1.2360   -0.3540 C   0  0  0  0  0  0  0  0  0  0  0  0
    6.7790    0.7410   -0.7500 C   0  0  0  0  0  0  0  0  0  0  0  0
    6.5660   -0.5860   -1.0250 C   0  0  0  0  0  0  0  0  0  0  0  0
    5.3010   -0.8500   -0.8070 O   0  0  0  0  0  0  0  0  0  0  0  0
    0.6440   -0.7940    1.5450 C   0  0  0  0  0  0  0  0  0  0  0  0
    1.6240   -1.1500    2.4700 O   0  0  0  0  0  0  0  0  0  0  0  0
   -0.6780   -0.6460    1.9100 C   0  0  0  0  0  0  0  0  0  0  0  0
   -1.6080   -0.2930    0.9580 C   0  0  0  0  0  0  0  0  0  0  0  0
   -3.0130   -0.1610    1.4690 C   0  0  2  0  0  0  0  0  0  0  0  0
   -3.5340   -1.4430    1.5570 O   0  0  0  0  0  0  0  0  0  0  0  0
   -3.7960    0.6490    0.4820 C   0  0  0  0  0  0  0  0  0  0  0  0
  2  1  1  6
  2  3  1  0
  2 21  1  0
  3  4  1  0
  4  5  2  0
  4 18  1  0
  5  6  1  0
  6  7  1  0
  6 15  2  0
  7  8  1  0
  8  9  2  0
  8 10  1  0
 10 11  2  0
 10 14  1  0
 11 12  1  0
 12 13  2  0
 13 14  1  0
 15 16  1  0
 15 17  1  0
 17 18  2  0
 18 19  1  0
 19 20  1  6
 19 21  1  0
M  END
