
     RDKit          3D

 24 26  0  0  0  0  0  0  0  0999 V2000
   -2.2810    3.2230   -0.6730 C   0  0  0  0  0  0  0  0  0  0  0  0
   -1.9890    2.4010    0.5360 C   0  0  1  0  0  0  0  0  0  0  0  0
   -3.0920    2.7820    1.4710 O   0  0  0  0  0  0  0  0  0  0  0  0
   -2.2380    0.9650    0.3530 C   0  0  0  0  0  0  0  0  0  0  0  0
   -1.3350    0.0590    0.1730 C   0  0  0  0  0  0  0  0  0  0  0  0
    0.0370    0.1360    0.0830 N   0  0  0  0  0  0  0  0  0  0  0  0
    0.9160    1.2030    0.1040 C   0  0  0  0  0  0  0  0  0  0  0  0
    0.6300    2.3770    0.1880 O   0  0  0  0  0  0  0  0  0  0  0  0
    2.4060    0.9160    0.0160 C   0  0  0  0  0  0  0  0  0  0  0  0
    2.7490   -0.8460   -0.1050 S   0  0  0  0  0  0  0  0  0  0  0  0
    4.5210   -1.0430   -0.2000 C   0  0  0  0  0  0  0  0  0  0  0  0
    5.1120   -2.2570   -0.3000 N   0  0  0  0  0  0  0  0  0  0  0  0
    6.4030   -2.0220   -0.3470 N   0  0  0  0  0  0  0  0  0  0  0  0
    6.6650   -0.7110   -0.2810 C   0  0  0  0  0  0  0  0  0  0  0  0
    7.7740   -0.1150   -0.2980 O   0  0  0  0  0  0  0  0  0  0  0  0
    5.4840   -0.1000   -0.1890 N   0  0  0  0  0  0  0  0  0  0  0  0
   -1.8400   -1.3720    0.0490 C   0  0  0  0  0  0  0  0  0  0  0  0
   -1.4110   -2.5270    0.4310 C   0  0  0  0  0  0  0  0  0  0  0  0
   -2.3370   -3.5860    0.0320 C   0  0  0  0  0  0  0  0  0  0  0  0
   -3.3510   -2.9880   -0.6170 C   0  0  0  0  0  0  0  0  0  0  0  0
   -3.1340   -1.5650   -0.6740 C   0  0  1  0  0  0  0  0  0  0  0  0
   -4.1070   -0.7020   -0.0300 N   0  0  0  0  0  0  0  0  0  0  0  0
   -3.6880    0.6250    0.2620 C   0  0  0  0  0  0  0  0  0  0  0  0
   -4.5650    1.4950    0.4390 O   0  0  0  0  0  0  0  0  0  0  0  0
  2  1  1  6
  2  3  1  0
  2  4  1  0
  4  5  2  0
  4 23  1  0
  5  6  1  0
  5 17  1  0
  6  7  1  0
  7  8  2  0
  7  9  1  0
  9 10  1  0
 10 11  1  0
 11 12  2  0
 11 16  1  0
 12 13  1  0
 13 14  1  0
 14 15  2  0
 14 16  1  0
 17 18  2  0
 17 21  1  0
 18 19  1  0
 19 20  2  0
 20 21  1  0
 21 22  1  1
 22 23  1  0
 23 24  2  0
M  END
