
     RDKit          3D

 21 23  0  0  0  0  0  0  0  0999 V2000
    4.9470    0.5050    1.1000 C   0  0  0  0  0  0  0  0  0  0  0  0
    4.7400   -0.3420    0.1330 C   0  0  0  0  0  0  0  0  0  0  0  0
    5.5560   -1.5150   -0.1980 C   0  0  0  0  0  0  0  0  0  0  0  0
    4.6860   -2.4310   -0.7280 O   0  0  0  0  0  0  0  0  0  0  0  0
    3.5990   -1.7920   -1.2440 C   0  0  0  0  0  0  0  0  0  0  0  0
    3.6550   -0.3240   -0.8490 C   0  0  1  0  0  0  0  0  0  0  0  0
    2.3510    0.1290   -0.3020 C   0  0  0  0  0  0  0  0  0  0  0  0
    2.2470    0.4280    0.8910 O   0  0  0  0  0  0  0  0  0  0  0  0
    1.2530    0.2140   -1.1330 O   0  0  0  0  0  0  0  0  0  0  0  0
    0.0080    0.6280   -0.6850 C   0  0  0  0  0  0  0  0  0  0  0  0
   -0.8650   -0.3280   -0.2120 C   0  0  0  0  0  0  0  0  0  0  0  0
   -2.0980    0.0490    0.2360 C   0  0  0  0  0  0  0  0  0  0  0  0
   -2.4740    1.3620    0.2180 C   0  0  0  0  0  0  0  0  0  0  0  0
   -1.5970    2.3180   -0.2570 C   0  0  0  0  0  0  0  0  0  0  0  0
   -0.3520    1.9690   -0.7130 C   0  0  0  0  0  0  0  0  0  0  0  0
    0.5710    2.9120   -1.2050 O   0  0  0  0  0  0  0  0  0  0  0  0
   -3.8220    1.7260    0.7180 C   0  0  0  0  0  0  0  0  0  0  0  0
   -4.7790    0.7690    0.6090 O   0  0  0  0  0  0  0  0  0  0  0  0
   -4.4160   -0.4670    0.1660 C   0  0  2  0  0  0  0  0  0  0  0  0
   -5.4410   -1.5010    0.5580 C   0  0  0  0  0  0  0  0  0  0  0  0
   -3.0750   -0.9330    0.7500 C   0  0  0  0  0  0  0  0  0  0  0  0
  1  2  2  0
  2  3  1  0
  2  6  1  0
  3  4  1  0
  4  5  1  0
  5  6  1  0
  6  7  1  1
  7  8  2  0
  7  9  1  0
  9 10  1  0
 10 11  2  0
 10 15  1  0
 11 12  1  0
 12 13  2  0
 12 21  1  0
 13 14  1  0
 13 17  1  0
 14 15  2  0
 15 16  1  0
 17 18  1  0
 18 19  1  0
 19 20  1  1
 19 21  1  0
M  END
