
     RDKit          3D

 20 22  0  0  0  0  0  0  0  0999 V2000
   -4.6420    1.5120   -0.0430 C   0  0  0  0  0  0  0  0  0  0  0  0
   -3.5080    0.5540    0.2670 C   0  0  2  0  0  0  0  0  0  0  0  0
   -3.7640   -0.1690    1.4320 O   0  0  0  0  0  0  0  0  0  0  0  0
   -2.2580    1.3700    0.4610 C   0  0  0  0  0  0  0  0  0  0  0  0
   -1.1640    0.8720   -0.2750 O   0  0  0  0  0  0  0  0  0  0  0  0
   -0.9620   -0.4550   -0.5530 C   0  0  0  0  0  0  0  0  0  0  0  0
   -2.1200   -1.1740   -0.8730 C   0  0  0  0  0  0  0  0  0  0  0  0
   -2.0320   -2.5030   -1.1650 C   0  0  0  0  0  0  0  0  0  0  0  0
   -0.8120   -3.1420   -1.1480 C   0  0  0  0  0  0  0  0  0  0  0  0
   -0.7090   -4.5130   -1.4480 O   0  0  0  0  0  0  0  0  0  0  0  0
    0.3060   -2.4150   -0.8310 C   0  0  0  0  0  0  0  0  0  0  0  0
    0.2690   -1.0440   -0.5220 C   0  0  0  0  0  0  0  0  0  0  0  0
    1.4100   -0.4090   -0.2230 O   0  0  0  0  0  0  0  0  0  0  0  0
    1.7850    0.8670    0.1200 C   0  0  2  0  0  0  0  0  0  0  0  0
    2.7260    1.3690   -0.9350 C   0  0  0  0  0  0  0  0  0  0  0  0
    4.1340    0.9020   -0.7900 C   0  0  0  0  0  0  0  0  0  0  0  0
    4.6860    1.0140    0.5900 C   0  0  0  0  0  0  0  0  0  0  0  0
    3.7810    0.2890    1.5300 C   0  0  0  0  0  0  0  0  0  0  0  0
    2.3870    0.8300    1.4980 C   0  0  0  0  0  0  0  0  0  0  0  0
   -3.3960   -0.4250   -0.8730 C   0  0  0  0  0  0  0  0  0  0  0  0
  2  1  1  6
  2  3  1  0
  2  4  1  0
  2 20  1  0
  4  5  1  0
  5  6  1  0
  6  7  2  0
  6 12  1  0
  7  8  1  0
  7 20  1  0
  8  9  2  0
  9 10  1  0
  9 11  1  0
 11 12  2  0
 12 13  1  0
 14 13  1  6
 14 15  1  0
 14 19  1  0
 15 16  1  0
 16 17  1  0
 17 18  1  0
 18 19  1  0
M  END
