
     RDKit          3D

 21 23  0  0  0  0  0  0  0  0999 V2000
    6.4860   -1.9050    0.2510 C   0  0  0  0  0  0  0  0  0  0  0  0
    6.3260   -0.5090    0.1880 O   0  0  0  0  0  0  0  0  0  0  0  0
    5.0730    0.0670    0.2230 C   0  0  0  0  0  0  0  0  0  0  0  0
    4.9070    1.4440    0.1610 C   0  0  0  0  0  0  0  0  0  0  0  0
    3.6660    2.0350    0.1940 C   0  0  0  0  0  0  0  0  0  0  0  0
    2.5660    1.2360    0.2920 C   0  0  0  0  0  0  0  0  0  0  0  0
    2.7230   -0.1410    0.3550 C   0  0  0  0  0  0  0  0  0  0  0  0
    3.9580   -0.7490    0.3220 C   0  0  0  0  0  0  0  0  0  0  0  0
    1.5940   -0.9070    0.4530 O   0  0  0  0  0  0  0  0  0  0  0  0
    0.2980   -0.4940    0.1160 C   0  0  0  0  0  0  0  0  0  0  0  0
    0.1490    0.9780   -0.0760 C   0  0  1  0  0  0  0  0  0  0  0  0
   -1.1150    1.4860    0.6690 C   0  0  0  0  0  0  0  0  0  0  0  0
   -2.2110    0.8720    0.3680 O   0  0  0  0  0  0  0  0  0  0  0  0
   -3.3160    0.2520    0.0640 C   0  0  0  0  0  0  0  0  0  0  0  0
   -3.4180   -1.0710    0.0880 C   0  0  0  0  0  0  0  0  0  0  0  0
   -4.6070   -1.8150   -0.2360 C   0  0  0  0  0  0  0  0  0  0  0  0
   -5.7780   -1.0120   -0.6180 C   0  0  0  0  0  0  0  0  0  0  0  0
   -5.6080    0.4530   -0.6270 C   0  0  0  0  0  0  0  0  0  0  0  0
   -4.4950    1.0760   -0.3210 C   0  0  0  0  0  0  0  0  0  0  0  0
   -4.4430    2.4600   -0.3630 O   0  0  0  0  0  0  0  0  0  0  0  0
    1.2800    1.7210    0.3340 O   0  0  0  0  0  0  0  0  0  0  0  0
  1  2  1  0
  2  3  1  0
  3  4  2  0
  3  8  1  0
  4  5  1  0
  5  6  2  0
  6  7  1  0
  6 21  1  0
  7  8  2  0
  7  9  1  0
  9 10  1  0
 10 11  1  0
 11 12  1  1
 11 21  1  0
 12 13  1  0
 13 14  1  0
 14 15  2  0
 14 19  1  0
 15 16  1  0
 16 17  1  0
 17 18  1  0
 18 19  2  0
 19 20  1  0
M  END
