
     RDKit          3D

 28 31  0  0  0  0  0  0  0  0999 V2000
    6.0720    2.7540    1.6890 C   0  0  0  0  0  0  0  0  0  0  0  0
    4.7340    2.4790    1.4450 O   0  0  0  0  0  0  0  0  0  0  0  0
    4.6190    1.2660    0.7960 C   0  0  0  0  0  0  0  0  0  0  0  0
    3.2020    0.8920    0.4940 C   0  0  0  0  0  0  0  0  0  0  0  0
    3.1710   -0.4010   -0.1920 N   0  0  0  0  0  0  0  0  0  0  0  0
    1.9280   -0.9500   -0.5740 C   0  0  0  0  0  0  0  0  0  0  0  0
    0.7840   -0.2110   -0.2670 C   0  0  0  0  0  0  0  0  0  0  0  0
   -0.4300   -0.7050   -0.6170 C   0  0  0  0  0  0  0  0  0  0  0  0
   -1.6210    0.0210   -0.3220 N   0  0  0  0  0  0  0  0  0  0  0  0
   -2.6390   -0.4330    0.4260 C   0  0  0  0  0  0  0  0  0  0  0  0
   -3.6130    0.5400    0.4940 C   0  0  0  0  0  0  0  0  0  0  0  0
   -3.1200    1.5910   -0.2520 C   0  0  0  0  0  0  0  0  0  0  0  0
   -3.6170    2.8430   -0.5660 C   0  0  0  0  0  0  0  0  0  0  0  0
   -2.9340    3.7520   -1.3460 C   0  0  0  0  0  0  0  0  0  0  0  0
   -1.6790    3.4070   -1.8510 C   0  0  0  0  0  0  0  0  0  0  0  0
   -1.1650    2.1680   -1.5520 C   0  0  0  0  0  0  0  0  0  0  0  0
   -1.8640    1.2680   -0.7670 C   0  0  0  0  0  0  0  0  0  0  0  0
   -4.8400    0.3160    1.2460 C   0  0  0  0  0  0  0  0  0  0  0  0
   -5.5930    1.2950    1.4700 O   0  0  0  0  0  0  0  0  0  0  0  0
   -5.2440   -1.0150    1.7620 C   0  0  0  0  0  0  0  0  0  0  0  0
   -4.3780   -2.0810    1.1130 C   0  0  0  0  0  0  0  0  0  0  0  0
   -2.9070   -1.7150    1.1600 C   0  0  0  0  0  0  0  0  0  0  0  0
   -0.5560   -1.9130   -1.2650 C   0  0  0  0  0  0  0  0  0  0  0  0
    0.5820   -2.6110   -1.5500 C   0  0  0  0  0  0  0  0  0  0  0  0
    1.8800   -2.1660   -1.2200 C   0  0  0  0  0  0  0  0  0  0  0  0
    3.0150   -2.9870   -1.5700 C   0  0  0  0  0  0  0  0  0  0  0  0
    2.7800   -4.2180   -2.2380 N   0  0  0  0  0  0  0  0  0  0  0  0
    4.1780   -2.6890   -1.3270 O   0  0  0  0  0  0  0  0  0  0  0  0
  1  2  1  0
  2  3  1  0
  3  4  1  0
  4  5  1  0
  5  6  1  0
  6  7  2  0
  6 25  1  0
  7  8  1  0
  8  9  1  0
  8 23  2  0
  9 10  1  0
  9 17  1  0
 10 11  2  0
 10 22  1  0
 11 12  1  0
 11 18  1  0
 12 13  2  0
 12 17  1  0
 13 14  1  0
 14 15  2  0
 15 16  1  0
 16 17  2  0
 18 19  2  0
 18 20  1  0
 20 21  1  0
 21 22  1  0
 23 24  1  0
 24 25  2  0
 25 26  1  0
 26 27  1  0
 26 28  2  0
M  END
