
     RDKit          3D

 26 28  0  0  0  0  0  0  0  0999 V2000
   -5.7460    1.9950   -1.7240 C   0  0  0  0  0  0  0  0  0  0  0  0
   -5.0300    1.3580   -0.5950 C   0  0  0  0  0  0  0  0  0  0  0  0
   -5.5860    0.9170    0.5470 N   0  0  0  0  0  0  0  0  0  0  0  0
   -4.6490    0.3950    1.3520 C   0  0  0  0  0  0  0  0  0  0  0  0
   -4.8220   -0.1800    2.6500 N   0  0  0  0  0  0  0  0  0  0  0  0
   -3.4810    0.5050    0.7130 N   0  0  0  0  0  0  0  0  0  0  0  0
   -3.6700    1.0890   -0.4820 C   0  0  0  0  0  0  0  0  0  0  0  0
   -2.6550    1.4260   -1.5320 C   0  0  0  0  0  0  0  0  0  0  0  0
   -1.3310    0.9920   -1.1020 N   0  0  0  0  0  0  0  0  0  0  0  0
   -1.0150   -0.3760   -0.9350 C   0  0  0  0  0  0  0  0  0  0  0  0
   -2.0010   -1.3230   -1.2610 C   0  0  0  0  0  0  0  0  0  0  0  0
   -1.6900   -2.6480   -1.1130 C   0  0  0  0  0  0  0  0  0  0  0  0
   -2.5540   -3.5450   -1.3970 O   0  0  0  0  0  0  0  0  0  0  0  0
   -0.4760   -2.9980   -0.6710 N   0  0  0  0  0  0  0  0  0  0  0  0
    0.4820   -2.1230   -0.3530 C   0  0  0  0  0  0  0  0  0  0  0  0
    1.7210   -2.5180    0.1010 C   0  0  0  0  0  0  0  0  0  0  0  0
    2.0150   -3.9670    0.2450 C   0  0  0  0  0  0  0  0  0  0  0  0
    2.6800   -1.5830    0.4180 C   0  0  0  0  0  0  0  0  0  0  0  0
    2.4600   -0.2300    0.3030 C   0  0  0  0  0  0  0  0  0  0  0  0
    3.4610    0.7280    0.6350 N   0  0  0  0  0  0  0  0  0  0  0  0
    4.7450    0.2700    1.1050 C   0  0  0  0  0  0  0  0  0  0  0  0
    5.6790    1.4090    1.3950 C   0  0  0  0  0  0  0  0  0  0  0  0
    5.8900    2.1940    0.1230 C   0  0  0  0  0  0  0  0  0  0  0  0
    6.7700    3.2730    0.3730 O   0  0  0  0  0  0  0  0  0  0  0  0
    1.2070    0.1690   -0.1560 C   0  0  0  0  0  0  0  0  0  0  0  0
    0.2310   -0.7500   -0.4800 C   0  0  0  0  0  0  0  0  0  0  0  0
  1  2  1  0
  2  3  1  0
  2  7  2  0
  3  4  1  0
  4  5  1  0
  4  6  2  0
  6  7  1  0
  7  8  1  0
  8  9  1  0
  9 10  1  0
 10 11  2  0
 10 26  1  0
 11 12  1  0
 12 13  2  0
 12 14  1  0
 14 15  1  0
 15 16  2  0
 15 26  1  0
 16 17  1  0
 16 18  1  0
 18 19  2  0
 19 20  1  0
 19 25  1  0
 20 21  1  0
 21 22  1  0
 22 23  1  0
 23 24  1  0
 25 26  2  0
M  CHG  1   6   1
M  END
