
     RDKit          3D

 27 29  0  0  0  0  0  0  0  0999 V2000
   -3.9930   -0.1630    2.1540 C   0  0  0  0  0  0  0  0  0  0  0  0
   -3.2950    0.6590    1.4340 C   0  0  0  0  0  0  0  0  0  0  0  0
   -3.0980    2.0620    1.9120 C   0  0  0  0  0  0  0  0  0  0  0  0
   -2.6580    0.3370    0.1860 N   0  0  0  0  0  0  0  0  0  0  0  0
   -1.2860    0.1340    0.0720 C   0  0  0  0  0  0  0  0  0  0  0  0
   -0.3860    0.2330    1.2510 C   0  0  0  0  0  0  0  0  0  0  0  0
   -0.9670   -0.1480   -1.2100 C   0  0  0  0  0  0  0  0  0  0  0  0
    0.3330   -0.4310   -1.8140 C   0  0  0  0  0  0  0  0  0  0  0  0
    0.3710   -0.6820   -3.0840 O   0  0  0  0  0  0  0  0  0  0  0  0
    1.5740   -0.4670   -1.1840 N   0  0  0  0  0  0  0  0  0  0  0  0
    2.8140   -0.7580   -1.8720 C   0  0  0  0  0  0  0  0  0  0  0  0
    3.0470   -1.0440   -3.1800 C   0  0  0  0  0  0  0  0  0  0  0  0
    4.4100   -1.2490   -3.3570 C   0  0  0  0  0  0  0  0  0  0  0  0
    4.9410   -1.0780   -2.1450 N   0  0  0  0  0  0  0  0  0  0  0  0
    4.0250   -0.7880   -1.2530 N   0  0  0  0  0  0  0  0  0  0  0  0
    4.2420   -0.5410    0.1470 C   0  0  0  0  0  0  0  0  0  0  0  0
    3.7710   -1.4610    1.0590 C   0  0  0  0  0  0  0  0  0  0  0  0
    3.9420   -1.2910    2.4170 C   0  0  0  0  0  0  0  0  0  0  0  0
    4.6100   -0.1520    2.8170 C   0  0  0  0  0  0  0  0  0  0  0  0
    4.7840    0.0220    4.2020 O   0  0  0  0  0  0  0  0  0  0  0  0
    5.0910    0.7850    1.9200 C   0  0  0  0  0  0  0  0  0  0  0  0
    4.9080    0.5940    0.5630 C   0  0  0  0  0  0  0  0  0  0  0  0
   -2.1560   -0.1230   -1.9110 C   0  0  0  0  0  0  0  0  0  0  0  0
   -2.2800   -0.3680   -3.3000 N   0  0  0  0  0  0  0  0  0  0  0  0
   -3.2000    0.1850   -1.0070 C   0  0  0  0  0  0  0  0  0  0  0  0
   -4.5900    0.2870   -1.5040 C   0  0  0  0  0  0  0  0  0  0  0  0
   -5.5210    0.6300   -0.4860 N   0  0  0  0  0  0  0  0  0  0  0  0
  1  2  2  0
  2  3  1  0
  2  4  1  0
  4  5  1  0
  4 25  1  0
  5  6  1  0
  5  7  2  0
  7  8  1  0
  7 23  1  0
  8  9  2  0
  8 10  1  0
 10 11  1  0
 11 12  2  0
 11 15  1  0
 12 13  1  0
 13 14  2  0
 14 15  1  0
 15 16  1  0
 16 17  2  0
 16 22  1  0
 17 18  1  0
 18 19  2  0
 19 20  1  0
 19 21  1  0
 21 22  2  0
 23 24  1  0
 23 25  2  0
 25 26  1  0
 26 27  1  0
M  CHG  1  27   1
M  END
