
     RDKit          3D

 27 29  0  0  0  0  0  0  0  0999 V2000
   -4.0650   -1.8420    2.6670 C   0  0  0  0  0  0  0  0  0  0  0  0
   -3.7990   -0.6240    1.8600 C   0  0  0  0  0  0  0  0  0  0  0  0
   -4.8970    0.1730    1.5490 C   0  0  0  0  0  0  0  0  0  0  0  0
   -4.6810    1.3040    0.8040 C   0  0  0  0  0  0  0  0  0  0  0  0
   -3.4020    1.6430    0.3730 C   0  0  0  0  0  0  0  0  0  0  0  0
   -3.2810    2.8950   -0.4390 C   0  0  0  0  0  0  0  0  0  0  0  0
   -2.3390    0.8380    0.6950 C   0  0  0  0  0  0  0  0  0  0  0  0
   -0.9710    1.2260    0.2220 C   0  0  0  0  0  0  0  0  0  0  0  0
   -0.7990    0.9310   -1.2490 C   0  0  0  0  0  0  0  0  0  0  0  0
   -0.9650   -0.4890   -1.5900 C   0  0  0  0  0  0  0  0  0  0  0  0
   -2.1520   -0.9360   -2.1400 N   0  0  0  0  0  0  0  0  0  0  0  0
   -2.0260   -2.2210   -2.3190 N   0  0  0  0  0  0  0  0  0  0  0  0
   -0.8280   -2.6440   -1.9200 C   0  0  0  0  0  0  0  0  0  0  0  0
   -0.3140   -3.9570   -1.9490 N   0  0  0  0  0  0  0  0  0  0  0  0
   -0.1080   -1.5250   -1.4360 C   0  0  0  0  0  0  0  0  0  0  0  0
    1.2390   -1.5890   -0.9130 C   0  0  0  0  0  0  0  0  0  0  0  0
    1.8200   -2.7580   -0.8750 O   0  0  0  0  0  0  0  0  0  0  0  0
    2.0510   -0.5660   -0.4240 N   0  0  0  0  0  0  0  0  0  0  0  0
    3.3930   -0.7640    0.0790 C   0  0  0  0  0  0  0  0  0  0  0  0
    4.1600   -1.8820    0.1900 C   0  0  0  0  0  0  0  0  0  0  0  0
    5.3730   -1.5740    0.7340 N   0  0  0  0  0  0  0  0  0  0  0  0
    5.3530   -0.2740    0.9560 N   0  0  0  0  0  0  0  0  0  0  0  0
    4.1740    0.2590    0.5740 C   0  0  0  0  0  0  0  0  0  0  0  0
    3.8110    1.7000    0.6810 C   0  0  0  0  0  0  0  0  0  0  0  0
    3.9060    2.3480   -0.6900 C   0  0  0  0  0  0  0  0  0  0  0  0
    5.2480    2.1760   -1.0860 O   0  0  0  0  0  0  0  0  0  0  0  0
   -2.5410   -0.2970    1.4400 C   0  0  0  0  0  0  0  0  0  0  0  0
  1  2  1  0
  2  3  2  0
  2 27  1  0
  3  4  1  0
  4  5  2  0
  5  6  1  0
  5  7  1  0
  7  8  1  0
  7 27  2  0
  8  9  1  0
  9 10  1  0
 10 11  1  0
 10 15  2  0
 11 12  1  0
 12 13  2  0
 13 14  1  0
 13 15  1  0
 15 16  1  0
 16 17  2  0
 16 18  1  0
 18 19  1  0
 19 20  2  0
 19 23  1  0
 20 21  1  0
 21 22  1  0
 22 23  2  0
 23 24  1  0
 24 25  1  0
 25 26  1  0
M  CHG  1  22   1
M  END
