
     RDKit          3D

 27 29  0  0  0  0  0  0  0  0999 V2000
   -5.1290   -2.3850    0.7970 C   0  0  0  0  0  0  0  0  0  0  0  0
   -4.4640   -1.0250    0.5530 C   0  0  1  0  0  0  0  0  0  0  0  0
   -3.3990   -1.2140   -0.4130 N   0  0  0  0  0  0  0  0  0  0  0  0
   -2.0160   -0.9110   -0.1030 C   0  0  0  0  0  0  0  0  0  0  0  0
   -1.7780   -0.4780    1.0420 O   0  0  0  0  0  0  0  0  0  0  0  0
   -0.9950   -1.0920   -1.0310 N   0  0  0  0  0  0  0  0  0  0  0  0
    0.3690   -0.8400   -0.8320 C   0  0  0  0  0  0  0  0  0  0  0  0
    0.9560   -0.5360    0.3550 C   0  0  0  0  0  0  0  0  0  0  0  0
    2.3370   -0.2780    0.4960 C   0  0  0  0  0  0  0  0  0  0  0  0
    3.1690   -0.3210   -0.5690 C   0  0  0  0  0  0  0  0  0  0  0  0
    4.5580   -0.0980   -0.5760 N   0  0  0  0  0  0  0  0  0  0  0  0
    5.4020    0.0730    0.5440 C   0  0  0  0  0  0  0  0  0  0  0  0
    4.8760    0.0230    1.6930 O   0  0  0  0  0  0  0  0  0  0  0  0
    6.8590    0.3060    0.4370 C   0  0  0  0  0  0  0  0  0  0  0  0
    7.5220    0.3790   -0.6800 C   0  0  0  0  0  0  0  0  0  0  0  0
    8.9700    0.6130   -0.7190 C   0  0  0  0  0  0  0  0  0  0  0  0
    9.5000    0.7400    0.6120 N   0  0  0  0  0  0  0  0  0  0  0  0
    2.5760   -0.6330   -1.8010 C   0  0  0  0  0  0  0  0  0  0  0  0
    1.2330   -0.8840   -1.9410 C   0  0  0  0  0  0  0  0  0  0  0  0
   -5.5270   -0.1290    0.0410 C   0  0  0  0  0  0  0  0  0  0  0  0
   -6.0630   -0.2140   -1.2130 C   0  0  0  0  0  0  0  0  0  0  0  0
   -7.0090    0.7490   -1.3600 C   0  0  0  0  0  0  0  0  0  0  0  0
   -7.0580    1.4460   -0.1640 C   0  0  0  0  0  0  0  0  0  0  0  0
   -6.1530    0.8940    0.6650 N   0  0  0  0  0  0  0  0  0  0  0  0
   -6.1610    1.5570    1.8810 N   0  0  0  0  0  0  0  0  0  0  0  0
   -7.0230    2.5160    1.8990 C   0  0  0  0  0  0  0  0  0  0  0  0
   -7.6940    2.5480    0.5830 C   0  0  0  0  0  0  0  0  0  0  0  0
  2  1  1  6
  2  3  1  0
  2 20  1  0
  3  4  1  0
  4  5  2  0
  4  6  1  0
  6  7  1  0
  7  8  2  0
  7 19  1  0
  8  9  1  0
  9 10  2  0
 10 11  1  0
 10 18  1  0
 11 12  1  0
 12 13  2  0
 12 14  1  0
 14 15  2  3
 15 16  1  0
 16 17  1  0
 18 19  2  0
 20 21  2  0
 20 24  1  0
 21 22  1  0
 22 23  2  0
 23 24  1  0
 23 27  1  0
 24 25  1  0
 25 26  2  0
 26 27  1  0
M  CHG  1  17   1
M  END
