
     RDKit          3D

 29 32  0  0  0  0  0  0  0  0999 V2000
   -1.9660   -1.9080   -2.8160 N   0  0  0  0  0  0  0  0  0  0  0  0
   -1.5280   -1.2700   -1.9070 C   0  0  0  0  0  0  0  0  0  0  0  0
   -0.9700   -0.4930   -0.8000 C   0  0  1  0  0  0  0  0  0  0  0  0
   -1.7770    0.6130   -0.4770 N   0  0  0  0  0  0  0  0  0  0  0  0
   -1.9830    0.8190    0.8980 C   0  0  0  0  0  0  0  0  0  0  0  0
   -3.1680    1.7430    1.2650 C   0  0  0  0  0  0  0  0  0  0  0  0
   -4.1980    1.4940    0.3340 N   0  0  0  0  0  0  0  0  0  0  0  0
   -5.4070    0.8070    0.4660 C   0  0  0  0  0  0  0  0  0  0  0  0
   -5.5940   -0.1390    1.4130 C   0  0  0  0  0  0  0  0  0  0  0  0
   -6.9270   -0.6260    1.3820 C   0  0  0  0  0  0  0  0  0  0  0  0
   -7.4450   -0.0130    0.1070 C   0  0  0  0  0  0  0  0  0  0  0  0
   -6.6160    0.8810   -0.3010 C   0  0  0  0  0  0  0  0  0  0  0  0
   -3.8520    1.8450   -1.0840 C   0  0  0  0  0  0  0  0  0  0  0  0
   -2.8570    0.7040   -1.3660 C   0  0  0  0  0  0  0  0  0  0  0  0
   -0.7080   -1.4410    0.3330 C   0  0  0  0  0  0  0  0  0  0  0  0
    0.1360   -2.6390   -0.0950 C   0  0  0  0  0  0  0  0  0  0  0  0
    1.1560   -2.2150   -1.1460 C   0  0  0  0  0  0  0  0  0  0  0  0
    1.4810   -0.8090   -0.9690 C   0  0  2  0  0  0  0  0  0  0  0  0
    2.2790   -0.2890    0.0860 N   0  0  0  0  0  0  0  0  0  0  0  0
    3.2650   -1.1520    0.7180 C   0  0  0  0  0  0  0  0  0  0  0  0
    3.3400   -2.3090    0.5760 O   0  0  0  0  0  0  0  0  0  0  0  0
    4.2530   -0.3720    1.6330 C   0  0  0  0  0  0  0  0  0  0  0  0
    5.3200   -0.4920    0.5500 O   0  0  0  0  0  0  0  0  0  0  0  0
    6.4370    0.2680    0.5220 C   0  0  0  0  0  0  0  0  0  0  0  0
    7.6740   -0.1650    0.2570 C   0  0  0  0  0  0  0  0  0  0  0  0
    8.6150    1.0340    0.2850 C   0  0  0  0  0  0  0  0  0  0  0  0
    7.6850    2.1270    0.6230 C   0  0  0  0  0  0  0  0  0  0  0  0
    6.5410    1.6670    0.7280 C   0  0  0  0  0  0  0  0  0  0  0  0
    0.3650    0.0900   -1.3490 C   0  0  0  0  0  0  0  0  0  0  0  0
  1  2  3  0
  3  2  1  6
  3  4  1  0
  3 15  1  0
  3 29  1  0
  4  5  1  0
  4 14  1  0
  5  6  1  0
  6  7  1  0
  7  8  1  0
  7 13  1  0
  8  9  2  0
  8 12  1  0
  9 10  1  0
 10 11  1  0
 11 12  2  0
 13 14  1  0
 15 16  1  0
 16 17  1  0
 17 18  1  0
 18 19  1  1
 18 29  1  0
 19 20  1  0
 20 21  2  0
 20 22  1  0
 22 23  1  0
 23 24  1  0
 24 25  2  0
 24 28  1  0
 25 26  1  0
 26 27  1  0
 27 28  2  0
M  END
