
     RDKit          3D

 29 33  0  0  0  0  0  0  0  0999 V2000
   -5.5400   -3.5780    1.3140 C   0  0  0  0  0  0  0  0  0  0  0  0
   -4.3260   -2.8090    0.9400 C   0  0  0  0  0  0  0  0  0  0  0  0
   -4.2660   -1.4230    0.7590 C   0  0  0  0  0  0  0  0  0  0  0  0
   -2.9700   -1.0970    0.4180 C   0  0  0  0  0  0  0  0  0  0  0  0
   -2.4630    0.2410    0.1400 C   0  0  0  0  0  0  0  0  0  0  0  0
   -3.3110    1.3300    0.2050 C   0  0  0  0  0  0  0  0  0  0  0  0
   -2.8460    2.6050   -0.0560 C   0  0  0  0  0  0  0  0  0  0  0  0
   -1.5240    2.7860   -0.3850 C   0  0  0  0  0  0  0  0  0  0  0  0
   -0.6810    1.6810   -0.4480 C   0  0  0  0  0  0  0  0  0  0  0  0
   -1.1210    0.4060   -0.1920 C   0  0  0  0  0  0  0  0  0  0  0  0
   -0.2780   -0.6820   -0.2550 O   0  0  0  0  0  0  0  0  0  0  0  0
    1.0470   -0.7210   -0.5180 C   0  0  0  0  0  0  0  0  0  0  0  0
    1.5100   -1.3930   -1.6300 C   0  0  0  0  0  0  0  0  0  0  0  0
    2.8590   -1.4760   -1.9630 C   0  0  0  0  0  0  0  0  0  0  0  0
    3.7910   -0.8490   -1.1330 C   0  0  0  0  0  0  0  0  0  0  0  0
    3.3450   -0.1750   -0.0200 C   0  0  0  0  0  0  0  0  0  0  0  0
    2.0020   -0.1130    0.2800 C   0  0  0  0  0  0  0  0  0  0  0  0
    1.5960    0.6170    1.5070 C   0  0  0  0  0  0  0  0  0  0  0  0
    4.3280    0.4880    0.8580 C   0  0  1  0  0  0  0  0  0  0  0  0
    4.8680   -0.4370    1.7350 O   0  0  0  0  0  0  0  0  0  0  0  0
    5.4630    0.9680   -0.0570 C   0  0  0  0  0  0  0  0  0  0  0  0
    6.1370   -0.3030   -0.5570 C   0  0  0  0  0  0  0  0  0  0  0  0
    5.2140   -0.9640   -1.5280 C   0  0  0  0  0  0  0  0  0  0  0  0
   -1.2810    4.2370   -0.6170 C   0  0  0  0  0  0  0  0  0  0  0  0
   -2.6360    4.8380   -0.8070 C   0  0  0  0  0  0  0  0  0  0  0  0
   -3.5590    3.9280   -0.0500 C   0  0  0  0  0  0  0  0  0  0  0  0
   -2.2870   -2.2050    0.3930 O   0  0  0  0  0  0  0  0  0  0  0  0
   -3.0400   -3.2400    0.6930 C   0  0  0  0  0  0  0  0  0  0  0  0
   -2.6350   -4.6740    0.7720 C   0  0  0  0  0  0  0  0  0  0  0  0
  1  2  1  0
  2  3  1  0
  2 28  2  0
  3  4  2  0
  4  5  1  0
  4 27  1  0
  5  6  2  0
  5 10  1  0
  6  7  1  0
  7  8  2  0
  7 26  1  0
  8  9  1  0
  8 24  1  0
  9 10  2  0
 10 11  1  0
 11 12  1  0
 12 13  2  0
 12 17  1  0
 13 14  1  0
 14 15  2  0
 15 16  1  0
 15 23  1  0
 16 17  2  0
 16 19  1  0
 17 18  1  0
 19 20  1  1
 19 21  1  0
 21 22  1  0
 22 23  1  0
 24 25  1  0
 25 26  1  0
 27 28  1  0
 28 29  1  0
M  END
