
     RDKit          3D

 29 32  0  0  0  0  0  0  0  0999 V2000
   -3.6110   -4.5070   -1.2770 C   0  0  0  0  0  0  0  0  0  0  0  0
   -3.0690   -3.8060   -0.0400 C   0  0  0  0  0  0  0  0  0  0  0  0
   -3.2460   -2.3590   -0.0920 C   0  0  0  0  0  0  0  0  0  0  0  0
   -2.2790   -1.4560   -0.1480 C   0  0  0  0  0  0  0  0  0  0  0  0
   -0.9070   -1.7750   -0.1700 C   0  0  0  0  0  0  0  0  0  0  0  0
   -0.4640   -2.9730   -0.0710 O   0  0  0  0  0  0  0  0  0  0  0  0
    0.2070   -0.8400   -0.3080 C   0  0  0  0  0  0  0  0  0  0  0  0
    0.0710    0.1730   -1.2240 C   0  0  0  0  0  0  0  0  0  0  0  0
    1.1360    1.0160   -1.4470 C   0  0  0  0  0  0  0  0  0  0  0  0
    2.3440    0.8910   -0.7890 C   0  0  0  0  0  0  0  0  0  0  0  0
    3.3880    1.7600   -1.0530 C   0  0  0  0  0  0  0  0  0  0  0  0
    4.6030    1.6400   -0.4060 C   0  0  0  0  0  0  0  0  0  0  0  0
    4.7560    0.6450    0.5010 C   0  0  0  0  0  0  0  0  0  0  0  0
    3.6950   -0.2330    0.7650 C   0  0  0  0  0  0  0  0  0  0  0  0
    2.4760   -0.1460    0.1440 C   0  0  0  0  0  0  0  0  0  0  0  0
    1.4040   -0.9890    0.3660 C   0  0  0  0  0  0  0  0  0  0  0  0
    1.5940   -2.0530    1.3940 C   0  0  0  0  0  0  0  0  0  0  0  0
    6.1290    0.6640    1.0950 C   0  0  0  0  0  0  0  0  0  0  0  0
    6.9440    1.4580    0.0870 C   0  0  0  0  0  0  0  0  0  0  0  0
    5.8870    2.3910   -0.4590 C   0  0  0  0  0  0  0  0  0  0  0  0
   -2.8040   -0.0610   -0.1180 C   0  0  0  0  0  0  0  0  0  0  0  0
   -2.1830    0.8100    0.6020 C   0  0  0  0  0  0  0  0  0  0  0  0
   -2.5390    2.2320    0.7620 C   0  0  1  0  0  0  0  0  0  0  0  0
   -2.8240    2.5950    2.2040 C   0  0  0  0  0  0  0  0  0  0  0  0
   -1.4100    3.1450    0.3030 C   0  0  0  0  0  0  0  0  0  0  0  0
   -4.0640    0.2010   -0.9090 C   0  0  1  0  0  0  0  0  0  0  0  0
   -3.9650   -0.2660   -2.2210 O   0  0  0  0  0  0  0  0  0  0  0  0
   -5.0990   -0.6700   -0.2360 C   0  0  0  0  0  0  0  0  0  0  0  0
   -4.5980   -1.9460   -0.0800 O   0  0  0  0  0  0  0  0  0  0  0  0
  1  2  1  0
  2  3  1  0
  3  4  2  0
  3 29  1  0
  4  5  1  0
  4 21  1  0
  5  6  2  0
  5  7  1  0
  7  8  2  0
  7 16  1  0
  8  9  1  0
  9 10  2  0
 10 11  1  0
 10 15  1  0
 11 12  2  0
 12 13  1  0
 12 20  1  0
 13 14  2  0
 13 18  1  0
 14 15  1  0
 15 16  2  0
 16 17  1  0
 18 19  1  0
 19 20  1  0
 21 22  2  3
 21 26  1  0
 22 23  1  0
 23 24  1  1
 23 25  1  0
 26 27  1  6
 26 28  1  0
 28 29  1  0
M  END
