
     RDKit          3D

 29 32  0  0  0  0  0  0  0  0999 V2000
   -4.4150   -2.8950   -0.3120 C   0  0  0  0  0  0  0  0  0  0  0  0
   -3.2160   -2.0630    0.0330 C   0  0  0  0  0  0  0  0  0  0  0  0
   -2.5090   -2.2490    1.1960 C   0  0  0  0  0  0  0  0  0  0  0  0
   -1.4160   -1.4360    1.4330 C   0  0  0  0  0  0  0  0  0  0  0  0
   -0.6260   -1.5980    2.6710 C   0  0  0  0  0  0  0  0  0  0  0  0
   -1.0200   -0.4580    0.5480 C   0  0  0  0  0  0  0  0  0  0  0  0
    0.1890    0.4370    0.8260 C   0  0  1  0  0  0  0  0  0  0  0  0
    1.3950   -0.1430    0.3340 C   0  0  0  0  0  0  0  0  0  0  0  0
    2.4900   -0.4380    1.0240 C   0  0  0  0  0  0  0  0  0  0  0  0
    2.6210   -0.2110    2.3810 O   0  0  0  0  0  0  0  0  0  0  0  0
    3.5160   -1.0210    0.1900 C   0  0  0  0  0  0  0  0  0  0  0  0
    4.7880   -1.4770    0.4430 C   0  0  0  0  0  0  0  0  0  0  0  0
    5.5840   -2.0060   -0.5730 C   0  0  0  0  0  0  0  0  0  0  0  0
    5.1000   -2.0810   -1.8590 C   0  0  0  0  0  0  0  0  0  0  0  0
    3.8240   -1.6240   -2.1100 C   0  0  0  0  0  0  0  0  0  0  0  0
    3.0420   -1.1020   -1.1020 C   0  0  0  0  0  0  0  0  0  0  0  0
    1.6980   -0.5500   -1.0310 C   0  0  0  0  0  0  0  0  0  0  0  0
    0.9740   -0.4790   -2.0750 O   0  0  0  0  0  0  0  0  0  0  0  0
   -0.2530    1.7790    0.5440 C   0  0  0  0  0  0  0  0  0  0  0  0
   -1.5160    2.0780    1.1280 C   0  0  0  0  0  0  0  0  0  0  0  0
   -2.1240    3.2840    0.9870 C   0  0  0  0  0  0  0  0  0  0  0  0
   -1.5190    4.2790    0.2540 C   0  0  0  0  0  0  0  0  0  0  0  0
   -2.1480    5.4990    0.1190 O   0  0  0  0  0  0  0  0  0  0  0  0
   -0.3140    3.9940   -0.3020 C   0  0  0  0  0  0  0  0  0  0  0  0
    0.3380    2.7500   -0.1700 C   0  0  0  0  0  0  0  0  0  0  0  0
    1.6380    2.5160   -0.7860 C   0  0  0  0  0  0  0  0  0  0  0  0
   -1.7430   -0.2870   -0.6150 C   0  0  0  0  0  0  0  0  0  0  0  0
   -2.8510   -1.0930   -0.8810 C   0  0  0  0  0  0  0  0  0  0  0  0
   -3.6260   -0.9090   -2.1280 C   0  0  0  0  0  0  0  0  0  0  0  0
  1  2  1  0
  2  3  2  0
  2 28  1  0
  3  4  1  0
  4  5  1  0
  4  6  2  0
  7  6  1  6
  6 27  1  0
  7  8  1  0
  7 19  1  0
  8  9  2  0
  8 17  1  0
  9 10  1  0
  9 11  1  0
 11 12  2  0
 11 16  1  0
 12 13  1  0
 13 14  2  0
 14 15  1  0
 15 16  2  0
 16 17  1  0
 17 18  2  0
 19 20  2  0
 19 25  1  0
 20 21  1  0
 21 22  2  0
 22 23  1  0
 22 24  1  0
 24 25  2  0
 25 26  1  0
 27 28  2  0
 28 29  1  0
M  END
