
     RDKit          3D

 29 32  0  0  0  0  0  0  0  0999 V2000
    6.9320    1.2540    1.3580 C   0  0  0  0  0  0  0  0  0  0  0  0
    7.1480    0.0560    0.5000 C   0  0  0  0  0  0  0  0  0  0  0  0
    6.0450   -0.9380    0.5310 C   0  0  0  0  0  0  0  0  0  0  0  0
    4.7030   -0.5240    0.0140 C   0  0  1  0  0  0  0  0  0  0  0  0
    3.7890   -1.7120    0.1680 C   0  0  0  0  0  0  0  0  0  0  0  0
    2.3840   -1.4910    0.4880 C   0  0  0  0  0  0  0  0  0  0  0  0
    1.7750   -0.1700    0.1970 C   0  0  2  0  0  0  0  0  0  0  0  0
    0.8250   -0.3040   -0.8910 N   0  0  0  0  0  0  0  0  0  0  0  0
    1.1940   -0.5400   -2.1620 C   0  0  0  0  0  0  0  0  0  0  0  0
    2.4280   -0.6570   -2.4610 O   0  0  0  0  0  0  0  0  0  0  0  0
    0.3130   -0.6640   -3.1670 N   0  0  0  0  0  0  0  0  0  0  0  0
   -1.0080   -0.5620   -2.9780 C   0  0  0  0  0  0  0  0  0  0  0  0
   -1.8990   -0.6830   -4.0490 C   0  0  0  0  0  0  0  0  0  0  0  0
   -3.2300   -0.5520   -3.7640 C   0  0  0  0  0  0  0  0  0  0  0  0
   -3.6520   -0.3180   -2.5110 N   0  0  0  0  0  0  0  0  0  0  0  0
   -2.7990   -0.1970   -1.4540 C   0  0  0  0  0  0  0  0  0  0  0  0
   -3.3220   -0.0000   -0.1650 N   0  0  0  0  0  0  0  0  0  0  0  0
   -3.3740   -1.1600    0.6780 C   0  0  0  0  0  0  0  0  0  0  0  0
   -4.8030   -1.7030    0.6310 C   0  0  0  0  0  0  0  0  0  0  0  0
   -5.7760   -0.5580    0.4400 C   0  0  0  0  0  0  0  0  0  0  0  0
   -5.6860    0.4790    1.5060 C   0  0  1  0  0  0  0  0  0  0  0  0
   -5.7560   -0.1250    2.8910 C   0  0  0  0  0  0  0  0  0  0  0  0
   -4.5150    1.3930    1.4310 C   0  0  0  0  0  0  0  0  0  0  0  0
   -3.7460    1.3470    0.1430 C   0  0  0  0  0  0  0  0  0  0  0  0
   -1.4550   -0.3190   -1.6880 C   0  0  0  0  0  0  0  0  0  0  0  0
   -0.5120   -0.1970   -0.6810 C   0  0  0  0  0  0  0  0  0  0  0  0
   -0.8990    0.0270    0.4930 O   0  0  0  0  0  0  0  0  0  0  0  0
    2.7560    0.9230   -0.0570 C   0  0  0  0  0  0  0  0  0  0  0  0
    4.0810    0.6590    0.6800 C   0  0  0  0  0  0  0  0  0  0  0  0
  1  2  1  0
  2  3  1  0
  4  3  1  1
  4  5  1  0
  4 29  1  0
  5  6  1  0
  6  7  1  0
  7  8  1  6
  7 28  1  0
  8  9  1  0
  8 26  1  0
  9 10  2  0
  9 11  1  0
 11 12  1  0
 12 13  2  0
 12 25  1  0
 13 14  1  0
 14 15  2  0
 15 16  1  0
 16 17  1  0
 16 25  2  0
 17 18  1  0
 17 24  1  0
 18 19  1  0
 19 20  1  0
 20 21  1  0
 21 22  1  1
 21 23  1  0
 23 24  1  0
 25 26  1  0
 26 27  2  0
 28 29  1  0
M  END
