
     RDKit          3D

 29 32  0  0  0  0  0  0  0  0999 V2000
    0.1670    2.4560    1.8090 C   0  0  0  0  0  0  0  0  0  0  0  0
    0.5890    1.0310    1.8510 C   0  0  0  0  0  0  0  0  0  0  0  0
    0.9480    0.4330    0.6010 N   0  0  0  0  0  0  0  0  0  0  0  0
   -0.0260   -0.2100   -0.2080 C   0  0  0  0  0  0  0  0  0  0  0  0
    0.3720   -0.9080   -1.2150 O   0  0  0  0  0  0  0  0  0  0  0  0
   -1.4820   -0.1270    0.0230 C   0  0  0  0  0  0  0  0  0  0  0  0
   -2.2140   -1.3470   -0.5250 C   0  0  0  0  0  0  0  0  0  0  0  0
   -3.6410   -1.1130   -0.2630 N   0  0  0  0  0  0  0  0  0  0  0  0
   -4.2620   -1.4320    0.8840 C   0  0  0  0  0  0  0  0  0  0  0  0
   -3.6400   -2.0910    2.0520 C   0  0  0  0  0  0  0  0  0  0  0  0
   -5.5780   -1.0510    0.8000 C   0  0  0  0  0  0  0  0  0  0  0  0
   -6.6270   -1.1690    1.8120 C   0  0  0  0  0  0  0  0  0  0  0  0
   -7.4500   -1.2710    2.5890 N   0  0  0  0  0  0  0  0  0  0  0  0
   -5.7240   -0.4950   -0.4480 C   0  0  0  0  0  0  0  0  0  0  0  0
   -4.5020   -0.5280   -1.1300 C   0  0  0  0  0  0  0  0  0  0  0  0
   -4.6710    0.0770   -2.4830 C   0  0  0  0  0  0  0  0  0  0  0  0
   -6.1420   -0.2430   -2.7310 C   0  0  0  0  0  0  0  0  0  0  0  0
   -6.7210    0.1520   -1.3740 C   0  0  0  0  0  0  0  0  0  0  0  0
    2.3060    0.4090    0.1260 C   0  0  0  0  0  0  0  0  0  0  0  0
    2.5860    1.1480   -1.0160 C   0  0  0  0  0  0  0  0  0  0  0  0
    3.8790    1.1140   -1.4660 C   0  0  0  0  0  0  0  0  0  0  0  0
    4.8750    0.3910   -0.8410 C   0  0  0  0  0  0  0  0  0  0  0  0
    4.5600   -0.3230    0.2790 C   0  0  0  0  0  0  0  0  0  0  0  0
    3.2600   -0.3430    0.8080 C   0  0  0  0  0  0  0  0  0  0  0  0
    5.4460   -1.0920    1.0150 O   0  0  0  0  0  0  0  0  0  0  0  0
    6.8520   -0.9510    1.2120 C   0  0  0  0  0  0  0  0  0  0  0  0
    7.2160    0.4370    0.6630 C   0  0  0  0  0  0  0  0  0  0  0  0
    7.3470    0.4130   -0.7550 N   0  0  0  0  0  0  0  0  0  0  0  0
    6.1700    0.4830   -1.5310 C   0  0  0  0  0  0  0  0  0  0  0  0
  1  2  1  0
  2  3  1  0
  3  4  1  0
  3 19  1  0
  4  5  2  0
  4  6  1  0
  6  7  1  0
  7  8  1  0
  8  9  1  0
  8 15  1  0
  9 10  1  0
  9 11  2  0
 11 12  1  0
 11 14  1  0
 12 13  3  0
 14 15  2  0
 14 18  1  0
 15 16  1  0
 16 17  1  0
 17 18  1  0
 19 20  2  0
 19 24  1  0
 20 21  1  0
 21 22  2  0
 22 23  1  0
 22 29  1  0
 23 24  2  0
 23 25  1  0
 25 26  1  0
 26 27  1  0
 27 28  1  0
 28 29  1  0
M  END
