
     RDKit          3D

 29 32  0  0  0  0  0  0  0  0999 V2000
   -5.6250    1.0710    2.0040 C   0  0  0  0  0  0  0  0  0  0  0  0
   -5.4600    1.7840    0.9220 C   0  0  0  0  0  0  0  0  0  0  0  0
   -6.1800    3.0610    0.6770 C   0  0  0  0  0  0  0  0  0  0  0  0
   -5.8560    3.4550   -0.5130 C   0  0  0  0  0  0  0  0  0  0  0  0
   -4.9430    2.5340   -1.1300 C   0  0  0  0  0  0  0  0  0  0  0  0
   -4.6770    1.4900   -0.2640 C   0  0  0  0  0  0  0  0  0  0  0  0
   -3.8800    0.3620   -0.6490 C   0  0  0  0  0  0  0  0  0  0  0  0
   -3.6290    0.3320   -1.9550 O   0  0  0  0  0  0  0  0  0  0  0  0
   -3.2980   -0.7120    0.0010 N   0  0  0  0  0  0  0  0  0  0  0  0
   -2.8470   -1.8920   -0.8010 C   0  0  0  0  0  0  0  0  0  0  0  0
   -1.3410   -1.8330   -0.8810 C   0  0  0  0  0  0  0  0  0  0  0  0
   -0.7850   -1.1590    0.2420 N   0  0  0  0  0  0  0  0  0  0  0  0
    0.3760   -0.3760    0.1770 C   0  0  0  0  0  0  0  0  0  0  0  0
    0.1770    0.9680    0.2060 N   0  0  0  0  0  0  0  0  0  0  0  0
    1.1480    1.8660    0.1890 C   0  0  0  0  0  0  0  0  0  0  0  0
    0.8810    3.1110    0.2180 O   0  0  0  0  0  0  0  0  0  0  0  0
    2.4270    1.4370    0.1420 N   0  0  0  0  0  0  0  0  0  0  0  0
    2.6740    0.1300    0.1130 C   0  0  0  0  0  0  0  0  0  0  0  0
    1.6640   -0.8580    0.1260 C   0  0  0  0  0  0  0  0  0  0  0  0
    1.9920   -2.2780    0.0550 C   0  0  0  0  0  0  0  0  0  0  0  0
    2.0020   -2.9000   -1.3090 C   0  0  0  0  0  0  0  0  0  0  0  0
    3.0200   -2.2830   -2.2550 C   0  0  0  0  0  0  0  0  0  0  0  0
    4.0650   -0.2890    0.1360 C   0  0  0  0  0  0  0  0  0  0  0  0
    5.0770    0.5760    0.1910 C   0  0  0  0  0  0  0  0  0  0  0  0
    6.4910    0.0670    0.2030 C   0  0  0  0  0  0  0  0  0  0  0  0
    4.8340    2.0090    0.2870 C   0  0  0  0  0  0  0  0  0  0  0  0
    3.4390    2.4660    0.0800 C   0  0  0  0  0  0  0  0  0  0  0  0
   -1.4690   -1.2750    1.5520 C   0  0  0  0  0  0  0  0  0  0  0  0
   -2.9140   -0.7900    1.3840 C   0  0  0  0  0  0  0  0  0  0  0  0
  1  2  2  0
  2  3  1  0
  2  6  1  0
  3  4  2  0
  4  5  1  0
  5  6  2  0
  6  7  1  0
  7  8  2  0
  7  9  1  0
  9 10  1  0
  9 29  1  0
 10 11  1  0
 11 12  1  0
 12 13  1  0
 12 28  1  0
 13 14  2  0
 13 19  1  0
 14 15  1  0
 15 16  2  0
 15 17  1  0
 17 18  1  0
 17 27  1  0
 18 19  2  0
 18 23  1  0
 19 20  1  0
 20 21  1  0
 21 22  1  0
 23 24  2  0
 24 25  1  0
 24 26  1  0
 26 27  1  0
 28 29  1  0
M  END
