
     RDKit          3D

 47 52  0  0  0  0  0  0  0  0999 V2000
   -7.0020   -4.3480   -0.3630 C   0  0  0  0  0  0  0  0  0  0  0  0
   -5.8850   -3.9410    0.5280 C   0  0  0  0  0  0  0  0  0  0  0  0
   -5.7840   -4.4350    1.8130 C   0  0  0  0  0  0  0  0  0  0  0  0
   -4.7370   -4.0420    2.6230 C   0  0  0  0  0  0  0  0  0  0  0  0
   -3.7920   -3.1470    2.1260 C   0  0  0  0  0  0  0  0  0  0  0  0
   -3.8700   -2.6390    0.8480 C   0  0  0  0  0  0  0  0  0  0  0  0
   -2.8520   -1.6930    0.3340 C   0  0  1  0  0  0  0  0  0  0  0  0
   -2.1990   -2.1940   -0.9350 C   0  0  0  0  0  0  0  0  0  0  0  0
   -1.0860   -3.1160   -0.7140 C   0  0  0  0  0  0  0  0  0  0  0  0
   -1.2450   -4.0560    0.1350 O   0  0  0  0  0  0  0  0  0  0  0  0
    0.1330   -3.0530   -1.3560 O   0  0  0  0  0  0  0  0  0  0  0  0
    0.8440   -1.8630   -1.6460 C   0  0  0  0  0  0  0  0  0  0  0  0
    1.1610   -1.1970   -0.3760 C   0  0  0  0  0  0  0  0  0  0  0  0
    1.3730   -1.9420    0.6160 O   0  0  0  0  0  0  0  0  0  0  0  0
    1.2500    0.2060   -0.1580 N   0  0  0  0  0  0  0  0  0  0  0  0
    2.0100    0.6240    1.0030 C   0  0  0  0  0  0  0  0  0  0  0  0
    3.4240    0.8480    0.5280 C   0  0  0  0  0  0  0  0  0  0  0  0
    3.8430    2.0970    0.1300 C   0  0  0  0  0  0  0  0  0  0  0  0
    5.1340    2.2680   -0.2970 C   0  0  0  0  0  0  0  0  0  0  0  0
    6.0390    1.2050   -0.3380 C   0  0  0  0  0  0  0  0  0  0  0  0
    5.6380   -0.0410    0.0550 C   0  0  0  0  0  0  0  0  0  0  0  0
    6.4700   -1.1870    0.0780 N   0  0  0  0  0  0  0  0  0  0  0  0
    7.8700   -1.1130   -0.0480 C   0  0  0  0  0  0  0  0  0  0  0  0
    8.5300   -0.0680   -0.1830 O   0  0  0  0  0  0  0  0  0  0  0  0
    8.6480   -2.3330   -0.0240 N   0  0  0  0  0  0  0  0  0  0  0  0
   10.0870   -2.2630   -0.1530 C   0  0  1  0  0  0  0  0  0  0  0  0
   10.9310   -3.1840    0.6570 C   0  0  0  0  0  0  0  0  0  0  0  0
   10.7770   -3.3830   -0.8450 C   0  0  0  0  0  0  0  0  0  0  0  0
    4.3040   -0.1790    0.4870 C   0  0  0  0  0  0  0  0  0  0  0  0
    0.6690    1.2050   -0.9900 C   0  0  0  0  0  0  0  0  0  0  0  0
   -0.7200    1.6810   -0.5760 C   0  0  2  0  0  0  0  0  0  0  0  0
   -1.5270    1.6820   -1.8570 C   0  0  0  0  0  0  0  0  0  0  0  0
   -0.5570    3.1130   -0.1290 C   0  0  0  0  0  0  0  0  0  0  0  0
   -1.7630    3.7980    0.3300 C   0  0  0  0  0  0  0  0  0  0  0  0
   -1.9850    3.8420    1.7070 C   0  0  0  0  0  0  0  0  0  0  0  0
   -3.1010    4.4490    2.2430 C   0  0  0  0  0  0  0  0  0  0  0  0
   -4.0350    5.0350    1.4150 C   0  0  0  0  0  0  0  0  0  0  0  0
   -3.8360    5.0020    0.0720 C   0  0  0  0  0  0  0  0  0  0  0  0
   -2.7070    4.3880   -0.4670 C   0  0  0  0  0  0  0  0  0  0  0  0
   -2.7870    4.5220   -1.8490 O   0  0  0  0  0  0  0  0  0  0  0  0
   -4.1450    4.7150   -2.2220 C   0  0  0  0  0  0  0  0  0  0  0  0
   -4.6320    5.5320   -1.0470 C   0  0  0  0  0  0  0  0  0  0  0  0
   -1.3140    0.8060    0.4910 C   0  0  0  0  0  0  0  0  0  0  0  0
   -2.7170    0.7750    0.5980 N   0  0  0  0  0  0  0  0  0  0  0  0
   -3.4270   -0.3280    0.0300 C   0  0  2  0  0  0  0  0  0  0  0  0
   -4.8160   -0.2910    0.6490 C   0  0  0  0  0  0  0  0  0  0  0  0
   -4.9330   -3.0620    0.0780 C   0  0  0  0  0  0  0  0  0  0  0  0
  1  2  1  0
  2  3  2  0
  2 47  1  0
  3  4  1  0
  4  5  2  0
  5  6  1  0
  7  6  1  6
  6 47  2  0
  7  8  1  0
  7 45  1  0
  8  9  1  0
  9 10  2  0
  9 11  1  0
 11 12  1  0
 12 13  1  0
 13 14  2  0
 13 15  1  0
 15 16  1  0
 15 30  1  0
 16 17  1  0
 17 18  2  0
 17 29  1  0
 18 19  1  0
 19 20  2  0
 20 21  1  0
 21 22  1  0
 21 29  2  0
 22 23  1  0
 23 24  2  0
 23 25  1  0
 26 25  1  1
 26 27  1  0
 26 28  1  0
 27 28  1  0
 30 31  1  0
 31 32  1  6
 31 33  1  0
 31 43  1  0
 33 34  1  0
 34 35  2  0
 34 39  1  0
 35 36  1  0
 36 37  2  0
 37 38  1  0
 38 39  2  0
 38 42  1  0
 39 40  1  0
 40 41  1  0
 41 42  1  0
 43 44  1  0
 44 45  1  0
 45 46  1  1
M  CHG  1  44   1
M  END
