
     RDKit          3D

 47 51  0  0  0  0  0  0  0  0999 V2000
    7.8730   -3.2380    0.5370 C   0  0  0  0  0  0  0  0  0  0  0  0
    6.6080   -2.5150    0.9030 C   0  0  0  0  0  0  0  0  0  0  0  0
    5.5210   -3.2010    1.4150 C   0  0  0  0  0  0  0  0  0  0  0  0
    4.3520   -2.5300    1.7560 C   0  0  0  0  0  0  0  0  0  0  0  0
    4.2180   -1.1700    1.6050 C   0  0  0  0  0  0  0  0  0  0  0  0
    2.9770   -0.5080    1.9880 C   0  0  0  0  0  0  0  0  0  0  0  0
    2.0080   -0.2840    0.9760 N   0  0  2  0  0  0  0  0  0  0  0  0
    1.6840   -1.4180    0.1450 C   0  0  0  0  0  0  0  0  0  0  0  0
    1.3710   -1.0640   -1.2440 C   0  0  0  0  0  0  0  0  0  0  0  0
    0.1080   -0.3280   -1.5460 C   0  0  2  0  0  0  0  0  0  0  0  0
    0.0420    1.0810   -1.0340 C   0  0  0  0  0  0  0  0  0  0  0  0
   -0.9840    1.9790   -1.2540 C   0  0  0  0  0  0  0  0  0  0  0  0
   -0.9260    3.2570   -0.7280 C   0  0  0  0  0  0  0  0  0  0  0  0
    0.1750    3.6460    0.0320 C   0  0  0  0  0  0  0  0  0  0  0  0
    1.2250    2.8100    0.2900 C   0  0  0  0  0  0  0  0  0  0  0  0
    1.1380    1.5410   -0.2500 C   0  0  0  0  0  0  0  0  0  0  0  0
    2.4110    0.8420    0.1640 C   0  0  0  0  0  0  0  0  0  0  0  0
   -1.8370    4.2840   -0.8340 O   0  0  0  0  0  0  0  0  0  0  0  0
   -2.5650    4.9900   -1.7450 C   0  0  0  0  0  0  0  0  0  0  0  0
   -4.0430    5.1490   -1.3280 C   0  0  1  0  0  0  0  0  0  0  0  0
   -4.8830    5.2670   -2.4010 O   0  0  0  0  0  0  0  0  0  0  0  0
   -4.3780    4.0960   -0.3310 C   0  0  0  0  0  0  0  0  0  0  0  0
   -5.7410    3.7360   -0.1720 N   0  0  1  0  0  0  0  0  0  0  0  0
   -6.5700    4.9120    0.1600 C   0  0  0  0  0  0  0  0  0  0  0  0
   -6.3400    2.9470   -1.1800 C   0  0  0  0  0  0  0  0  0  0  0  0
   -5.4220    2.2070   -2.0810 C   0  0  0  0  0  0  0  0  0  0  0  0
   -4.7560    1.1030   -1.8150 C   0  0  0  0  0  0  0  0  0  0  0  0
   -4.7690    0.3350   -0.5390 C   0  0  0  0  0  0  0  0  0  0  0  0
   -3.4410    0.2400   -0.1310 O   0  0  0  0  0  0  0  0  0  0  0  0
   -3.0490   -1.0820    0.0610 C   0  0  2  0  0  0  0  0  0  0  0  0
   -3.6580   -1.6720    1.2910 C   0  0  0  0  0  0  0  0  0  0  0  0
   -3.2720   -3.0980    1.5420 C   0  0  0  0  0  0  0  0  0  0  0  0
   -2.2000   -3.4070    2.3510 C   0  0  0  0  0  0  0  0  0  0  0  0
   -1.8170   -4.7040    2.6000 C   0  0  0  0  0  0  0  0  0  0  0  0
   -2.5510   -5.7200    2.0040 C   0  0  0  0  0  0  0  0  0  0  0  0
   -2.2100   -7.0350    2.2210 O   0  0  0  0  0  0  0  0  0  0  0  0
   -3.6240   -5.4390    1.1930 C   0  0  0  0  0  0  0  0  0  0  0  0
   -3.9750   -4.1340    0.9690 C   0  0  0  0  0  0  0  0  0  0  0  0
   -1.5410   -1.2300    0.0280 C   0  0  0  0  0  0  0  0  0  0  0  0
   -1.0000   -1.1980   -1.2830 N   0  0  2  0  0  0  0  0  0  0  0  0
   -0.7470   -2.5140   -1.7760 C   0  0  0  0  0  0  0  0  0  0  0  0
    5.3030   -0.4880    1.0940 C   0  0  0  0  0  0  0  0  0  0  0  0
    6.4860   -1.1530    0.7470 C   0  0  0  0  0  0  0  0  0  0  0  0
    7.6510   -0.4050    0.2070 C   0  0  1  0  0  0  0  0  0  0  0  0
    7.9730   -0.7760   -1.2330 C   0  0  0  0  0  0  0  0  0  0  0  0
    7.2970    1.0870    0.2200 C   0  0  0  0  0  0  0  0  0  0  0  0
    8.7790   -0.5370    1.0190 O   0  0  0  0  0  0  0  0  0  0  0  0
  1  2  1  0
  2  3  2  0
  2 43  1  0
  3  4  1  0
  4  5  2  0
  5  6  1  0
  5 42  1  0
  7  6  1  1
  7  8  1  0
  7 17  1  0
  8  9  1  0
 10  9  1  1
 10 11  1  0
 10 40  1  0
 11 12  2  0
 11 16  1  0
 12 13  1  0
 13 14  2  0
 13 18  1  0
 14 15  1  0
 15 16  2  0
 16 17  1  0
 18 19  1  0
 19 20  1  0
 20 21  1  6
 20 22  1  0
 22 23  1  0
 23 24  1  6
 23 25  1  0
 25 26  1  0
 26 27  2  0
 27 28  1  0
 28 29  1  0
 29 30  1  0
 30 31  1  1
 30 39  1  0
 31 32  1  0
 32 33  2  0
 32 38  1  0
 33 34  1  0
 34 35  2  0
 35 36  1  0
 35 37  1  0
 37 38  2  0
 39 40  1  0
 40 41  1  1
 42 43  2  0
 43 44  1  0
 44 45  1  6
 44 46  1  0
 44 47  1  0
M  CHG  3   7   1  23   1  40   1
M  END
