
     RDKit          3D

 48 54  0  0  0  0  0  0  0  0999 V2000
   -2.6710   -3.5970   -1.6750 C   0  0  0  0  0  0  0  0  0  0  0  0
   -2.4690   -2.3250   -0.8390 C   0  0  0  0  0  0  0  0  0  0  0  0
   -3.3590   -1.2870   -1.2370 N   0  0  1  0  0  0  0  0  0  0  0  0
   -4.7190   -1.6930   -0.9480 C   0  0  0  0  0  0  0  0  0  0  0  0
   -3.0660    0.0250   -0.7960 C   0  0  2  0  0  0  0  0  0  0  0  0
   -3.7500    1.1380   -1.5200 C   0  0  0  0  0  0  0  0  0  0  0  0
   -5.1320    1.0450   -1.4020 O   0  0  0  0  0  0  0  0  0  0  0  0
   -5.7820    1.1790   -0.2070 C   0  0  0  0  0  0  0  0  0  0  0  0
   -5.1690    1.4030    0.8590 O   0  0  0  0  0  0  0  0  0  0  0  0
   -7.2590    1.0620   -0.1190 C   0  0  0  0  0  0  0  0  0  0  0  0
   -7.9990    0.8200   -1.2500 C   0  0  0  0  0  0  0  0  0  0  0  0
   -9.3840    0.6990   -1.1890 C   0  0  0  0  0  0  0  0  0  0  0  0
  -10.0390    0.8210    0.0150 C   0  0  0  0  0  0  0  0  0  0  0  0
  -11.4160    0.7070    0.1130 C   0  0  0  0  0  0  0  0  0  0  0  0
  -12.0960    0.8260    1.3040 C   0  0  0  0  0  0  0  0  0  0  0  0
  -11.3330    1.0690    2.4240 C   0  0  0  0  0  0  0  0  0  0  0  0
   -9.9640    1.1860    2.3560 C   0  0  0  0  0  0  0  0  0  0  0  0
   -9.3080    1.0630    1.1520 C   0  0  0  0  0  0  0  0  0  0  0  0
   -7.9130    1.1840    1.0830 C   0  0  0  0  0  0  0  0  0  0  0  0
   -1.5840    0.3180   -0.5800 C   0  0  0  0  0  0  0  0  0  0  0  0
   -0.7840    0.1450   -1.7860 C   0  0  0  0  0  0  0  0  0  0  0  0
   -1.3160   -0.3110   -2.8780 O   0  0  0  0  0  0  0  0  0  0  0  0
    0.5810    0.4170   -1.9170 N   0  0  0  0  0  0  0  0  0  0  0  0
    1.3630   -0.2540   -2.9930 C   0  0  0  0  0  0  0  0  0  0  0  0
    2.7320   -0.5610   -2.5270 C   0  0  0  0  0  0  0  0  0  0  0  0
    2.9790   -0.4580   -1.0320 C   0  0  0  0  0  0  0  0  0  0  0  0
    2.5220    0.8250   -0.4890 C   0  0  0  0  0  0  0  0  0  0  0  0
    3.2050    1.6080    0.4190 C   0  0  0  0  0  0  0  0  0  0  0  0
    4.4420    1.1810    0.9540 N   0  0  0  0  0  0  0  0  0  0  0  0
    5.2510    1.8090    1.9010 C   0  0  0  0  0  0  0  0  0  0  0  0
    4.8450    2.9150    2.3680 O   0  0  0  0  0  0  0  0  0  0  0  0
    6.5100    1.2470    2.3530 C   0  0  0  0  0  0  0  0  0  0  0  0
    7.1930    1.9820    3.3390 C   0  0  0  0  0  0  0  0  0  0  0  0
    8.3920    1.5510    3.8660 C   0  0  0  0  0  0  0  0  0  0  0  0
    8.9510    0.3680    3.4240 C   0  0  0  0  0  0  0  0  0  0  0  0
    8.3010   -0.3660    2.4610 C   0  0  0  0  0  0  0  0  0  0  0  0
    7.0830    0.0860    1.9360 C   0  0  0  0  0  0  0  0  0  0  0  0
    6.6490   -0.8440    0.9830 O   0  0  0  0  0  0  0  0  0  0  0  0
    7.8580   -1.4860    0.5820 C   0  0  2  0  0  0  0  0  0  0  0  0
    8.6550   -0.6470   -0.3610 C   0  0  0  0  0  0  0  0  0  0  0  0
    8.4850   -1.2470   -1.7210 C   0  0  0  0  0  0  0  0  0  0  0  0
    7.9190   -2.6270   -1.5430 C   0  0  0  0  0  0  0  0  0  0  0  0
    7.6550   -2.8030   -0.0750 C   0  0  0  0  0  0  0  0  0  0  0  0
    8.5940   -1.5770    1.8170 O   0  0  0  0  0  0  0  0  0  0  0  0
    2.6270    2.7940    0.7780 C   0  0  0  0  0  0  0  0  0  0  0  0
    1.3910    3.2430    0.2740 C   0  0  0  0  0  0  0  0  0  0  0  0
    0.7230    2.4390   -0.6360 C   0  0  0  0  0  0  0  0  0  0  0  0
    1.2850    1.2510   -1.0040 C   0  0  0  0  0  0  0  0  0  0  0  0
  1  2  1  0
  2  3  1  0
  3  4  1  1
  3  5  1  0
  5  6  1  6
  5 20  1  0
  6  7  1  0
  7  8  1  0
  8  9  2  0
  8 10  1  0
 10 11  2  0
 10 19  1  0
 11 12  1  0
 12 13  2  0
 13 14  1  0
 13 18  1  0
 14 15  2  0
 15 16  1  0
 16 17  2  0
 17 18  1  0
 18 19  2  0
 20 21  1  0
 21 22  2  0
 21 23  1  0
 23 24  1  0
 23 48  1  0
 24 25  1  0
 25 26  1  0
 26 27  1  0
 27 28  2  0
 27 48  1  0
 28 29  1  0
 28 45  1  0
 29 30  1  0
 30 31  2  0
 30 32  1  0
 32 33  2  0
 32 37  1  0
 33 34  1  0
 34 35  2  0
 35 36  1  0
 36 37  2  0
 36 44  1  0
 37 38  1  0
 38 39  1  0
 39 40  1  6
 39 43  1  0
 39 44  1  0
 40 41  1  0
 41 42  1  0
 42 43  1  0
 45 46  2  0
 46 47  1  0
 47 48  2  0
M  CHG  1   3   1
M  END
