
     RDKit          3D

 47 51  0  0  0  0  0  0  0  0999 V2000
   13.0990    0.7690    2.1330 C   0  0  0  0  0  0  0  0  0  0  0  0
   11.9760    1.0610    1.3430 O   0  0  0  0  0  0  0  0  0  0  0  0
   12.1010    1.0750   -0.0270 C   0  0  0  0  0  0  0  0  0  0  0  0
   13.3270    0.8030   -0.6390 C   0  0  0  0  0  0  0  0  0  0  0  0
   13.4470    0.8180   -2.0030 C   0  0  0  0  0  0  0  0  0  0  0  0
   12.3350    1.1060   -2.7580 C   0  0  0  0  0  0  0  0  0  0  0  0
   11.1090    1.3780   -2.1460 C   0  0  0  0  0  0  0  0  0  0  0  0
   10.9800    1.3650   -0.7750 C   0  0  0  0  0  0  0  0  0  0  0  0
    9.7070    1.6480   -0.1280 C   0  0  0  0  0  0  0  0  0  0  0  0
    9.6510    2.5130    0.9430 C   0  0  0  0  0  0  0  0  0  0  0  0
    8.4360    2.7840    1.5700 C   0  0  0  0  0  0  0  0  0  0  0  0
    7.2700    2.1860    1.1240 C   0  0  0  0  0  0  0  0  0  0  0  0
    7.3080    1.3170    0.0530 C   0  0  0  0  0  0  0  0  0  0  0  0
    6.0370    0.6610   -0.4320 C   0  0  0  0  0  0  0  0  0  0  0  0
    5.9110   -0.6000    0.3530 C   0  0  2  0  0  0  0  0  0  0  0  0
    7.1530   -1.4500    0.0630 C   0  0  0  0  0  0  0  0  0  0  0  0
    4.7600   -1.4110    0.0340 N   0  0  1  0  0  0  0  0  0  0  0  0
    3.9680   -1.5670    1.2260 C   0  0  0  0  0  0  0  0  0  0  0  0
    2.6520   -0.9060    0.9260 C   0  0  0  0  0  0  0  0  0  0  0  0
    2.4990   -1.1530   -0.5660 C   0  0  1  0  0  0  0  0  0  0  0  0
    1.5630   -0.1670   -1.1590 C   0  0  0  0  0  0  0  0  0  0  0  0
    0.2670   -0.2770   -0.5390 N   0  0  0  0  0  0  0  0  0  0  0  0
   -0.4570   -1.4840   -0.6190 C   0  0  0  0  0  0  0  0  0  0  0  0
    0.0360   -2.4630   -1.2360 O   0  0  0  0  0  0  0  0  0  0  0  0
   -1.7890   -1.6040    0.0170 C   0  0  0  0  0  0  0  0  0  0  0  0
   -2.4870   -0.6400    0.7040 C   0  0  0  0  0  0  0  0  0  0  0  0
   -3.6890   -1.2100    1.1170 C   0  0  0  0  0  0  0  0  0  0  0  0
   -3.6410   -2.5010    0.6470 C   0  0  0  0  0  0  0  0  0  0  0  0
   -4.7160   -3.5480    0.8290 C   0  0  0  0  0  0  0  0  0  0  0  0
   -5.2590   -3.7440   -0.4140 O   0  0  0  0  0  0  0  0  0  0  0  0
   -5.8220   -2.6440   -1.0220 C   0  0  0  0  0  0  0  0  0  0  0  0
   -6.9840   -2.1650   -0.2620 C   0  0  0  0  0  0  0  0  0  0  0  0
   -7.3950   -2.7530    0.7560 O   0  0  0  0  0  0  0  0  0  0  0  0
   -7.6670   -0.9850   -0.7040 N   0  0  0  0  0  0  0  0  0  0  0  0
   -8.8280   -0.4760    0.0220 C   0  0  1  0  0  0  0  0  0  0  0  0
   -8.5930    0.9150    0.5000 C   0  0  0  0  0  0  0  0  0  0  0  0
   -9.8420    1.4390    1.1690 C   0  0  2  0  0  0  0  0  0  0  0  0
   -9.5590    2.8720    1.5900 C   0  0  0  0  0  0  0  0  0  0  0  0
  -10.1620    0.6800    2.4510 C   0  0  0  0  0  0  0  0  0  0  0  0
  -11.0540    1.3650    0.2960 C   0  0  0  0  0  0  0  0  0  0  0  0
  -10.8360    0.6560   -0.9980 C   0  0  1  0  0  0  0  0  0  0  0  0
  -12.2110    0.2470   -1.5290 C   0  0  0  0  0  0  0  0  0  0  0  0
  -10.2170    1.5470   -2.0580 C   0  0  0  0  0  0  0  0  0  0  0  0
  -10.0240   -0.6010   -0.8820 C   0  0  0  0  0  0  0  0  0  0  0  0
   -2.5200   -2.6760    0.0170 O   0  0  0  0  0  0  0  0  0  0  0  0
    3.9370   -0.9120   -1.0180 C   0  0  0  0  0  0  0  0  0  0  0  0
    8.5180    1.0750   -0.5370 C   0  0  0  0  0  0  0  0  0  0  0  0
  1  2  1  0
  2  3  1  0
  3  4  2  0
  3  8  1  0
  4  5  1  0
  5  6  2  0
  6  7  1  0
  7  8  2  0
  8  9  1  0
  9 10  2  0
  9 47  1  0
 10 11  1  0
 11 12  2  0
 12 13  1  0
 13 14  1  0
 13 47  2  0
 14 15  1  0
 15 16  1  6
 15 17  1  0
 17 18  1  1
 17 46  1  0
 18 19  1  0
 19 20  1  0
 20 21  1  6
 20 46  1  0
 21 22  1  0
 22 23  1  0
 23 24  2  0
 23 25  1  0
 25 26  2  0
 25 45  1  0
 26 27  1  0
 27 28  2  0
 28 29  1  0
 28 45  1  0
 29 30  1  0
 30 31  1  0
 31 32  1  0
 32 33  2  0
 32 34  1  0
 35 34  1  6
 35 36  1  0
 35 44  1  0
 36 37  1  0
 37 38  1  1
 37 39  1  0
 37 40  1  0
 40 41  1  0
 41 42  1  6
 41 43  1  0
 41 44  1  0
M  CHG  1  17   1
M  END
