
     RDKit          3D

 47 51  0  0  0  0  0  0  0  0999 V2000
   -0.4580   -0.2750    4.2600 C   0  0  0  0  0  0  0  0  0  0  0  0
   -0.2670   -1.3010    3.3490 O   0  0  0  0  0  0  0  0  0  0  0  0
   -1.1330   -2.3750    3.2060 C   0  0  0  0  0  0  0  0  0  0  0  0
   -2.1450   -2.3240    4.0080 O   0  0  0  0  0  0  0  0  0  0  0  0
   -0.9970   -3.4880    2.2870 C   0  0  0  0  0  0  0  0  0  0  0  0
   -1.7290   -3.4880    0.9910 C   0  0  0  0  0  0  0  0  0  0  0  0
   -1.4750   -2.4560    0.0330 C   0  0  0  0  0  0  0  0  0  0  0  0
   -0.3040   -2.6230   -0.5680 O   0  0  0  0  0  0  0  0  0  0  0  0
   -2.1760   -1.2780   -0.4470 C   0  0  0  0  0  0  0  0  0  0  0  0
   -3.3560   -0.9770    0.0290 C   0  0  0  0  0  0  0  0  0  0  0  0
   -4.1130   -1.7300    1.1080 C   0  0  0  0  0  0  0  0  0  0  0  0
   -5.3070   -2.4170    0.4940 C   0  0  2  0  0  0  0  0  0  0  0  0
   -6.2560   -1.4140   -0.1550 C   0  0  0  0  0  0  0  0  0  0  0  0
   -6.0340   -3.2130    1.5430 C   0  0  0  0  0  0  0  0  0  0  0  0
   -4.9120   -3.3620   -0.6160 C   0  0  0  0  0  0  0  0  0  0  0  0
   -4.0550    0.1020   -0.4840 O   0  0  0  0  0  0  0  0  0  0  0  0
   -3.5470    0.8990   -1.5290 C   0  0  0  0  0  0  0  0  0  0  0  0
   -4.4340    2.0170   -1.9450 C   0  0  0  0  0  0  0  0  0  0  0  0
   -2.3880    0.6680   -2.0490 C   0  0  0  0  0  0  0  0  0  0  0  0
   -1.8000    1.3910   -3.1710 C   0  0  0  0  0  0  0  0  0  0  0  0
   -0.5430    1.2840   -3.5300 N   0  0  0  0  0  0  0  0  0  0  0  0
   -0.1860    2.0870   -4.6590 C   0  0  0  0  0  0  0  0  0  0  0  0
   -1.4760    2.5420   -5.2120 C   0  0  0  0  0  0  0  0  0  0  0  0
   -2.0570    3.1570   -6.2480 N   0  0  0  0  0  0  0  0  0  0  0  0
   -3.3550    3.2200   -6.0080 N   0  0  0  0  0  0  0  0  0  0  0  0
   -3.5850    2.6270   -4.7940 C   0  0  0  0  0  0  0  0  0  0  0  0
   -2.4060    2.1720   -4.2360 C   0  0  0  0  0  0  0  0  0  0  0  0
   -1.4910   -0.2890   -1.3540 C   0  0  1  0  0  0  0  0  0  0  0  0
   -0.2760    0.2740   -0.7670 C   0  0  0  0  0  0  0  0  0  0  0  0
   -0.1320    1.4960   -0.2300 C   0  0  0  0  0  0  0  0  0  0  0  0
   -1.2110    2.4680   -0.1420 C   0  0  0  0  0  0  0  0  0  0  0  0
    1.1940    1.9030    0.3270 C   0  0  0  0  0  0  0  0  0  0  0  0
    1.9460    0.8520    1.0410 C   0  0  2  0  0  0  0  0  0  0  0  0
    3.4160    1.1970    1.0030 C   0  0  0  0  0  0  0  0  0  0  0  0
    3.7720    2.2870    0.4900 O   0  0  0  0  0  0  0  0  0  0  0  0
    4.3860    0.3250    1.5270 N   0  0  0  0  0  0  0  0  0  0  0  0
    5.7710    0.6410    1.4990 C   0  0  0  0  0  0  0  0  0  0  0  0
    6.7020   -0.4230    1.4560 C   0  0  0  0  0  0  0  0  0  0  0  0
    8.0540   -0.1780    1.4380 C   0  0  0  0  0  0  0  0  0  0  0  0
    9.0520   -1.2750    1.3870 C   0  0  0  0  0  0  0  0  0  0  0  0
    8.5410    1.1350    1.4650 C   0  0  0  0  0  0  0  0  0  0  0  0
    7.6590    2.1980    1.5090 C   0  0  0  0  0  0  0  0  0  0  0  0
    8.1330    3.6110    1.5580 C   0  0  0  0  0  0  0  0  0  0  0  0
    6.3150    1.8840    1.5240 C   0  0  0  0  0  0  0  0  0  0  0  0
    1.8340   -0.5320    0.4920 C   0  0  0  0  0  0  0  0  0  0  0  0
    1.0250   -0.4370   -0.7500 C   0  0  0  0  0  0  0  0  0  0  0  0
    1.4850   -0.9750   -1.7710 O   0  0  0  0  0  0  0  0  0  0  0  0
  1  2  1  0
  2  3  1  0
  3  4  2  0
  3  5  1  0
  5  6  1  0
  6  7  1  0
  7  8  2  0
  7  9  1  0
  9 10  2  0
  9 28  1  0
 10 11  1  0
 10 16  1  0
 11 12  1  0
 12 13  1  6
 12 14  1  0
 12 15  1  0
 16 17  1  0
 17 18  1  0
 17 19  2  0
 19 20  1  0
 19 28  1  0
 20 21  2  0
 20 27  1  0
 21 22  1  0
 22 23  1  0
 23 24  1  0
 23 27  2  0
 24 25  1  0
 25 26  2  0
 26 27  1  0
 28 29  1  1
 29 30  2  0
 29 46  1  0
 30 31  1  0
 30 32  1  0
 32 33  1  0
 33 34  1  6
 33 45  1  0
 34 35  2  0
 34 36  1  0
 36 37  1  0
 37 38  2  0
 37 44  1  0
 38 39  1  0
 39 40  1  0
 39 41  2  0
 41 42  1  0
 42 43  1  0
 42 44  2  0
 45 46  1  0
 46 47  2  0
M  CHG  1  21   1
M  END
