
     RDKit          3D

 47 50  0  0  0  0  0  0  0  0999 V2000
   -7.0530   -5.5240    0.7460 C   0  0  0  0  0  0  0  0  0  0  0  0
   -6.6420   -6.3130   -0.4610 C   0  0  0  0  0  0  0  0  0  0  0  0
   -6.5620   -5.3830   -1.7110 C   0  0  0  0  0  0  0  0  0  0  0  0
   -5.5850   -4.3900   -1.4510 C   0  0  0  0  0  0  0  0  0  0  0  0
   -4.3880   -4.0570   -2.0820 C   0  0  0  0  0  0  0  0  0  0  0  0
   -3.7570   -2.9680   -1.4310 C   0  0  0  0  0  0  0  0  0  0  0  0
   -2.7900   -2.1410   -1.2990 C   0  0  0  0  0  0  0  0  0  0  0  0
   -1.5920   -2.0380   -2.0660 C   0  0  0  0  0  0  0  0  0  0  0  0
   -1.3660   -2.7990   -3.0010 O   0  0  0  0  0  0  0  0  0  0  0  0
   -0.5190   -1.0750   -1.8710 N   0  0  0  0  0  0  0  0  0  0  0  0
    0.6280   -1.0190   -2.7070 C   0  0  0  0  0  0  0  0  0  0  0  0
    0.5900   -1.4750   -4.0260 C   0  0  0  0  0  0  0  0  0  0  0  0
    1.6540   -1.3620   -4.9170 C   0  0  0  0  0  0  0  0  0  0  0  0
    2.7890   -0.7750   -4.4750 C   0  0  0  0  0  0  0  0  0  0  0  0
    2.8590   -0.3070   -3.1620 C   0  0  0  0  0  0  0  0  0  0  0  0
    1.7770   -0.4310   -2.2770 C   0  0  0  0  0  0  0  0  0  0  0  0
    2.0030    0.0120   -0.9150 C   0  0  0  0  0  0  0  0  0  0  0  0
    1.1130   -0.1850   -0.0480 O   0  0  0  0  0  0  0  0  0  0  0  0
    3.1550    0.6550   -0.4530 N   0  0  0  0  0  0  0  0  0  0  0  0
    3.5040    1.1050    0.8310 C   0  0  0  0  0  0  0  0  0  0  0  0
    2.8540    0.7660    1.9880 C   0  0  0  0  0  0  0  0  0  0  0  0
    3.2610    1.2090    3.2610 C   0  0  0  0  0  0  0  0  0  0  0  0
    4.3610    2.0230    3.3610 C   0  0  0  0  0  0  0  0  0  0  0  0
    5.0380    2.3860    2.1980 C   0  0  0  0  0  0  0  0  0  0  0  0
    4.6130    1.9380    1.0050 C   0  0  0  0  0  0  0  0  0  0  0  0
    6.2020    3.2700    2.4400 C   0  0  2  0  0  0  0  0  0  0  0  0
    6.8850    3.6500    1.2400 N   0  0  0  0  0  0  0  0  0  0  0  0
    7.9170    4.6220    1.6210 C   0  0  0  0  0  0  0  0  0  0  0  0
    7.0550    2.6070    3.4620 C   0  0  0  0  0  0  0  0  0  0  0  0
    6.3520    2.4600    4.7730 C   0  0  0  0  0  0  0  0  0  0  0  0
    4.8420    2.4890    4.6900 C   0  0  0  0  0  0  0  0  0  0  0  0
   -3.0300   -1.1250   -0.1920 C   0  0  0  0  0  0  0  0  0  0  0  0
   -4.1250   -1.1950    0.4420 O   0  0  0  0  0  0  0  0  0  0  0  0
   -2.1900   -0.1370    0.1870 O   0  0  0  0  0  0  0  0  0  0  0  0
   -2.5370    0.7890    1.2250 C   0  0  1  0  0  0  0  0  0  0  0  0
   -1.7350    0.4340    2.4530 C   0  0  0  0  0  0  0  0  0  0  0  0
   -2.4790    2.1880    0.8460 C   0  0  0  0  0  0  0  0  0  0  0  0
   -2.0970    3.1490    1.7380 C   0  0  0  0  0  0  0  0  0  0  0  0
   -2.0420    4.5100    1.4410 C   0  0  0  0  0  0  0  0  0  0  0  0
   -2.3930    4.9140    0.1730 C   0  0  0  0  0  0  0  0  0  0  0  0
   -2.7850    3.9270   -0.7400 C   0  0  0  0  0  0  0  0  0  0  0  0
   -2.8350    2.5920   -0.4360 C   0  0  0  0  0  0  0  0  0  0  0  0
   -3.2300    1.6460   -1.3790 O   0  0  0  0  0  0  0  0  0  0  0  0
   -3.5880    2.0320   -2.6890 C   0  0  0  0  0  0  0  0  0  0  0  0
   -4.0970   -4.8480   -3.2020 C   0  0  0  0  0  0  0  0  0  0  0  0
   -3.0060   -4.8010   -4.1700 C   0  0  0  0  0  0  0  0  0  0  0  0
   -4.9310   -5.8400   -3.5010 O   0  0  0  0  0  0  0  0  0  0  0  0
  1  2  1  0
  2  3  1  0
  3  4  1  0
  4  5  2  3
  5  6  1  0
  5 45  1  0
  6  7  2  3
  7  8  1  0
  7 32  1  0
  8  9  2  0
  8 10  1  0
 10 11  1  0
 11 12  2  0
 11 16  1  0
 12 13  1  0
 13 14  2  0
 14 15  1  0
 15 16  2  0
 16 17  1  0
 17 18  2  0
 17 19  1  0
 19 20  1  0
 20 21  2  0
 20 25  1  0
 21 22  1  0
 22 23  2  0
 23 24  1  0
 23 31  1  0
 24 25  2  0
 24 26  1  0
 26 27  1  6
 26 29  1  0
 27 28  1  0
 29 30  1  0
 30 31  1  0
 32 33  2  0
 32 34  1  0
 34 35  1  0
 35 36  1  1
 35 37  1  0
 37 38  2  0
 37 42  1  0
 38 39  1  0
 39 40  2  0
 40 41  1  0
 41 42  2  0
 42 43  1  0
 43 44  1  0
 45 46  1  0
 45 47  2  0
M  CHG  1  27   1
M  END
