
     RDKit          3D

 48 52  0  0  0  0  0  0  0  0999 V2000
    9.6690    2.7060    3.9210 C   0  0  0  0  0  0  0  0  0  0  0  0
    8.5280    2.0340    3.2420 C   0  0  0  0  0  0  0  0  0  0  0  0
    7.2680    2.0190    3.8010 C   0  0  0  0  0  0  0  0  0  0  0  0
    6.2530    1.3900    3.1370 C   0  0  0  0  0  0  0  0  0  0  0  0
    6.4080    0.7610    1.9270 C   0  0  0  0  0  0  0  0  0  0  0  0
    5.3710    0.1060    1.2170 N   0  0  0  0  0  0  0  0  0  0  0  0
    5.2530   -0.0190   -0.2290 C   0  0  0  0  0  0  0  0  0  0  0  0
    6.0480    0.4540   -1.0600 O   0  0  0  0  0  0  0  0  0  0  0  0
    4.0500   -0.7810   -0.4770 C   0  0  0  0  0  0  0  0  0  0  0  0
    3.6540   -1.6520   -1.3330 C   0  0  0  0  0  0  0  0  0  0  0  0
    4.1120   -2.3560   -2.4680 C   0  0  0  0  0  0  0  0  0  0  0  0
    3.1550   -3.1350   -2.9890 O   0  0  0  0  0  0  0  0  0  0  0  0
    5.2880   -2.4620   -3.1900 N   0  0  0  0  0  0  0  0  0  0  0  0
    6.5710   -1.8490   -2.9390 C   0  0  0  0  0  0  0  0  0  0  0  0
    5.2200   -3.3340   -4.4180 C   0  0  0  0  0  0  0  0  0  0  0  0
    3.1800   -0.3310    0.7350 C   0  0  2  0  0  0  0  0  0  0  0  0
    2.9890    1.1310    0.5770 C   0  0  0  0  0  0  0  0  0  0  0  0
    2.1540    1.6520    1.7090 C   0  0  0  0  0  0  0  0  0  0  0  0
    0.7930    1.0510    1.8100 C   0  0  0  0  0  0  0  0  0  0  0  0
    0.0120    1.3290    0.6030 C   0  0  0  0  0  0  0  0  0  0  0  0
    0.4730    1.9870   -0.3470 O   0  0  0  0  0  0  0  0  0  0  0  0
   -1.3250    0.8390    0.4890 N   0  0  0  0  0  0  0  0  0  0  0  0
   -1.8410    0.0870    1.5810 C   0  0  0  0  0  0  0  0  0  0  0  0
   -3.1380   -0.5900    1.2030 C   0  0  0  0  0  0  0  0  0  0  0  0
   -4.0770    0.3910    0.6060 C   0  0  0  0  0  0  0  0  0  0  0  0
   -5.3340    0.3750    0.8640 C   0  0  0  0  0  0  0  0  0  0  0  0
   -5.9880   -0.6000    1.7610 C   0  0  0  0  0  0  0  0  0  0  0  0
   -6.8930   -0.1550    2.7100 C   0  0  0  0  0  0  0  0  0  0  0  0
   -7.5350   -1.0270    3.5360 C   0  0  0  0  0  0  0  0  0  0  0  0
   -7.2750   -2.3830    3.4210 C   0  0  0  0  0  0  0  0  0  0  0  0
   -6.3820   -2.8280    2.4850 C   0  0  0  0  0  0  0  0  0  0  0  0
   -6.1280   -4.2210    2.3750 N   0  0  0  0  0  0  0  0  0  0  0  0
   -5.7370   -1.9430    1.6540 C   0  0  0  0  0  0  0  0  0  0  0  0
   -3.5550    1.4320   -0.3380 C   0  0  2  0  0  0  0  0  0  0  0  0
   -3.5650    2.6420    0.3400 O   0  0  0  0  0  0  0  0  0  0  0  0
   -4.3520    1.5520   -1.5870 C   0  0  0  0  0  0  0  0  0  0  0  0
   -4.4340    0.3130   -2.4210 C   0  0  0  0  0  0  0  0  0  0  0  0
   -5.2640    0.6240   -3.6060 C   0  0  0  0  0  0  0  0  0  0  0  0
   -4.6740    1.1080   -4.7580 C   0  0  0  0  0  0  0  0  0  0  0  0
   -5.4000    1.4110   -5.8820 C   0  0  0  0  0  0  0  0  0  0  0  0
   -6.7580    1.2320   -5.8730 C   0  0  0  0  0  0  0  0  0  0  0  0
   -7.3950    0.7500   -4.7460 C   0  0  0  0  0  0  0  0  0  0  0  0
   -6.6280    0.4510   -3.6180 C   0  0  0  0  0  0  0  0  0  0  0  0
   -2.1200    1.1100   -0.6910 C   0  0  0  0  0  0  0  0  0  0  0  0
    4.2420   -0.5700    1.7800 C   0  0  0  0  0  0  0  0  0  0  0  0
    4.1890   -1.1870    2.8610 O   0  0  0  0  0  0  0  0  0  0  0  0
    7.6880    0.7890    1.3830 C   0  0  0  0  0  0  0  0  0  0  0  0
    8.7310    1.4150    2.0280 C   0  0  0  0  0  0  0  0  0  0  0  0
  1  2  1  0
  2  3  2  0
  2 48  1  0
  3  4  1  0
  4  5  2  0
  5  6  1  0
  5 47  1  0
  6  7  1  0
  6 45  1  0
  7  8  2  0
  7  9  1  0
  9 10  2  3
  9 16  1  0
 10 11  1  0
 11 12  2  0
 11 13  1  0
 13 14  1  0
 13 15  1  0
 16 17  1  6
 16 45  1  0
 17 18  1  0
 18 19  1  0
 19 20  1  0
 20 21  2  0
 20 22  1  0
 22 23  1  0
 22 44  1  0
 23 24  1  0
 24 25  1  0
 25 26  2  3
 25 34  1  0
 26 27  1  0
 27 28  2  0
 27 33  1  0
 28 29  1  0
 29 30  2  0
 30 31  1  0
 31 32  1  0
 31 33  2  0
 34 35  1  1
 34 36  1  0
 34 44  1  0
 36 37  1  0
 37 38  1  0
 38 39  2  0
 38 43  1  0
 39 40  1  0
 40 41  2  0
 41 42  1  0
 42 43  2  0
 45 46  2  0
 47 48  2  0
M  CHG  1  32   1
M  END
