
     RDKit          3D

 48 53  0  0  0  0  0  0  0  0999 V2000
    5.8890   -2.9330    3.2680 C   0  0  0  0  0  0  0  0  0  0  0  0
    6.3660   -2.1050    2.2590 O   0  0  0  0  0  0  0  0  0  0  0  0
    5.7450   -2.0220    1.0440 C   0  0  0  0  0  0  0  0  0  0  0  0
    4.6190   -2.7710    0.8050 C   0  0  0  0  0  0  0  0  0  0  0  0
    3.9970   -2.6790   -0.4340 C   0  0  0  0  0  0  0  0  0  0  0  0
    2.8740   -3.4400   -0.6510 O   0  0  0  0  0  0  0  0  0  0  0  0
    1.5680   -3.0490   -0.4500 C   0  0  0  0  0  0  0  0  0  0  0  0
    0.9160   -3.1830    0.7580 C   0  0  0  0  0  0  0  0  0  0  0  0
   -0.4010   -2.7840    0.9330 C   0  0  0  0  0  0  0  0  0  0  0  0
   -1.0990   -2.2360   -0.1140 C   0  0  0  0  0  0  0  0  0  0  0  0
   -2.5000   -1.8170    0.0630 C   0  0  0  0  0  0  0  0  0  0  0  0
   -2.9760   -1.3350    1.2650 C   0  0  0  0  0  0  0  0  0  0  0  0
   -4.3070   -0.9580    1.4090 C   0  0  0  0  0  0  0  0  0  0  0  0
   -5.2050   -1.0480    0.3660 C   0  0  0  0  0  0  0  0  0  0  0  0
   -6.6140   -0.6510    0.5190 C   0  0  0  0  0  0  0  0  0  0  0  0
   -6.9390    0.3760    1.3770 C   0  0  0  0  0  0  0  0  0  0  0  0
   -8.2240    0.8030    1.5880 C   0  0  0  0  0  0  0  0  0  0  0  0
   -9.2550    0.1860    0.9180 C   0  0  0  0  0  0  0  0  0  0  0  0
  -10.6100    0.5840    1.1110 N   0  0  1  0  0  0  0  0  0  0  0  0
  -10.6890    1.6620    2.0910 C   0  0  0  0  0  0  0  0  0  0  0  0
  -12.1960    1.9320    2.0700 C   0  0  0  0  0  0  0  0  0  0  0  0
  -12.4720    1.8460    0.5940 C   0  0  0  0  0  0  0  0  0  0  0  0
  -11.2340    1.1790   -0.0260 C   0  0  2  0  0  0  0  0  0  0  0  0
  -11.6670    0.1960   -1.0940 C   0  0  0  0  0  0  0  0  0  0  0  0
  -10.4340    2.2720   -0.6570 C   0  0  0  0  0  0  0  0  0  0  0  0
   -8.9490   -0.8400    0.0570 C   0  0  0  0  0  0  0  0  0  0  0  0
   -7.6300   -1.2630   -0.1460 C   0  0  0  0  0  0  0  0  0  0  0  0
   -4.7210   -1.5300   -0.8330 C   0  0  0  0  0  0  0  0  0  0  0  0
   -3.4010   -1.9040   -0.9770 C   0  0  0  0  0  0  0  0  0  0  0  0
   -0.4540   -2.0970   -1.3230 C   0  0  0  0  0  0  0  0  0  0  0  0
    0.8530   -2.4910   -1.5030 C   0  0  0  0  0  0  0  0  0  0  0  0
    4.5190   -1.8450   -1.3860 C   0  0  0  0  0  0  0  0  0  0  0  0
    5.6740   -1.0850   -1.1200 C   0  0  0  0  0  0  0  0  0  0  0  0
    6.3050   -1.1570    0.0880 C   0  0  0  0  0  0  0  0  0  0  0  0
    7.4730   -0.4450    0.4290 N   0  0  0  0  0  0  0  0  0  0  0  0
    8.1120    0.4820   -0.3980 C   0  0  0  0  0  0  0  0  0  0  0  0
    7.7020    0.7810   -1.5380 O   0  0  0  0  0  0  0  0  0  0  0  0
    9.3210    1.1700    0.0310 N   0  0  0  0  0  0  0  0  0  0  0  0
    9.9190    0.9040    1.3260 C   0  0  0  0  0  0  0  0  0  0  0  0
   11.3660    1.3000    1.1960 C   0  0  0  0  0  0  0  0  0  0  0  0
   11.9890    1.6410    2.2270 O   0  0  0  0  0  0  0  0  0  0  0  0
   12.0140    1.2980   -0.0140 O   0  0  0  0  0  0  0  0  0  0  0  0
   11.3190    1.6320   -1.2220 C   0  0  2  0  0  0  0  0  0  0  0  0
   12.1370    2.6620   -1.9740 C   0  0  0  0  0  0  0  0  0  0  0  0
   11.5470    3.0930   -3.2450 C   0  0  0  0  0  0  0  0  0  0  0  0
   12.2670    4.1150   -4.0510 C   0  0  0  0  0  0  0  0  0  0  0  0
   10.4920    2.6190   -3.6230 O   0  0  0  0  0  0  0  0  0  0  0  0
    9.9620    2.1520   -0.8170 C   0  0  0  0  0  0  0  0  0  0  0  0
  1  2  1  0
  2  3  1  0
  3  4  2  0
  3 34  1  0
  4  5  1  0
  5  6  1  0
  5 32  2  0
  6  7  1  0
  7  8  2  0
  7 31  1  0
  8  9  1  0
  9 10  2  0
 10 11  1  0
 10 30  1  0
 11 12  2  0
 11 29  1  0
 12 13  1  0
 13 14  2  0
 14 15  1  0
 14 28  1  0
 15 16  2  0
 15 27  1  0
 16 17  1  0
 17 18  2  0
 19 18  1  6
 18 26  1  0
 19 20  1  0
 19 23  1  0
 20 21  1  0
 21 22  1  0
 22 23  1  0
 23 24  1  6
 23 25  1  0
 26 27  2  0
 28 29  2  0
 30 31  2  0
 32 33  1  0
 33 34  2  0
 34 35  1  0
 35 36  1  0
 36 37  2  0
 36 38  1  0
 38 39  1  0
 38 48  1  0
 39 40  1  0
 40 41  2  0
 40 42  1  0
 42 43  1  0
 43 44  1  1
 43 48  1  0
 44 45  1  0
 45 46  1  0
 45 47  2  0
M  CHG  1  19   1
M  END
