
     RDKit          3D

 49 53  0  0  0  0  0  0  0  0999 V2000
   -4.5780   -4.3780   -1.4990 C   0  0  0  0  0  0  0  0  0  0  0  0
   -4.6110   -4.1920    0.0060 C   0  0  2  0  0  0  0  0  0  0  0  0
   -3.3290   -4.6830    0.6330 C   0  0  0  0  0  0  0  0  0  0  0  0
   -5.7440   -5.0210    0.5470 C   0  0  0  0  0  0  0  0  0  0  0  0
   -4.8830   -2.7890    0.3390 N   0  0  0  0  0  0  0  0  0  0  0  0
   -4.0410   -1.7250   -0.0510 C   0  0  0  0  0  0  0  0  0  0  0  0
   -3.0080   -1.9970   -0.7120 O   0  0  0  0  0  0  0  0  0  0  0  0
   -4.2970   -0.2990    0.2690 C   0  0  2  0  0  0  0  0  0  0  0  0
   -5.6040    0.1230   -0.4200 C   0  0  0  0  0  0  0  0  0  0  0  0
   -6.0940    1.3630    0.2890 C   0  0  2  0  0  0  0  0  0  0  0  0
   -7.1510    2.0720   -0.4950 C   0  0  0  0  0  0  0  0  0  0  0  0
   -6.6390    3.2310   -1.3150 C   0  0  0  0  0  0  0  0  0  0  0  0
   -5.9030    4.2380   -0.4940 C   0  0  0  0  0  0  0  0  0  0  0  0
   -5.1390    3.6730    0.6440 C   0  0  0  0  0  0  0  0  0  0  0  0
   -4.8910    2.2100    0.5900 C   0  0  2  0  0  0  0  0  0  0  0  0
   -3.7430    1.9200   -0.3590 C   0  0  0  0  0  0  0  0  0  0  0  0
   -3.2630    0.5660   -0.2230 N   0  0  1  0  0  0  0  0  0  0  0  0
   -2.0780    0.6080    0.6150 C   0  0  0  0  0  0  0  0  0  0  0  0
   -0.8310    0.8490   -0.1960 C   0  0  1  0  0  0  0  0  0  0  0  0
   -0.8560    2.0420   -0.9130 O   0  0  0  0  0  0  0  0  0  0  0  0
    0.4050    0.6590    0.5940 C   0  0  2  0  0  0  0  0  0  0  0  0
    0.6350    1.6750    1.6890 C   0  0  0  0  0  0  0  0  0  0  0  0
    0.7530    3.0540    1.2570 C   0  0  0  0  0  0  0  0  0  0  0  0
    1.9710    3.5870    0.8960 C   0  0  0  0  0  0  0  0  0  0  0  0
    2.0860    4.9040    0.4920 C   0  0  0  0  0  0  0  0  0  0  0  0
    0.9710    5.7120    0.4440 C   0  0  0  0  0  0  0  0  0  0  0  0
   -0.2620    5.2020    0.8000 C   0  0  0  0  0  0  0  0  0  0  0  0
   -0.3510    3.8660    1.2050 C   0  0  0  0  0  0  0  0  0  0  0  0
    1.5680    0.6410   -0.3140 N   0  0  0  0  0  0  0  0  0  0  0  0
    2.5970   -0.3070   -0.2560 C   0  0  0  0  0  0  0  0  0  0  0  0
    2.5430   -1.2050    0.6360 O   0  0  0  0  0  0  0  0  0  0  0  0
    3.7450   -0.3120   -1.1770 C   0  0  2  0  0  0  0  0  0  0  0  0
    3.3870   -0.6600   -2.6080 C   0  0  0  0  0  0  0  0  0  0  0  0
    2.4080    0.2440   -3.2320 C   0  0  0  0  0  0  0  0  0  0  0  0
    2.7230    1.4860   -3.8470 N   0  0  0  0  0  0  0  0  0  0  0  0
    1.1690   -0.0800   -3.2400 O   0  0  0  0  0  0  0  0  0  0  0  0
    4.7690   -1.2570   -0.7020 N   0  0  0  0  0  0  0  0  0  0  0  0
    6.0700   -0.8630   -0.3960 C   0  0  0  0  0  0  0  0  0  0  0  0
    6.3310    0.3840   -0.5580 O   0  0  0  0  0  0  0  0  0  0  0  0
    7.1290   -1.7310    0.0810 C   0  0  0  0  0  0  0  0  0  0  0  0
    6.9400   -3.0770    0.3030 C   0  0  0  0  0  0  0  0  0  0  0  0
    8.0070   -3.8430    0.7700 C   0  0  0  0  0  0  0  0  0  0  0  0
    9.2490   -3.3030    1.0190 C   0  0  0  0  0  0  0  0  0  0  0  0
   10.3300   -4.0490    1.4870 C   0  0  0  0  0  0  0  0  0  0  0  0
   11.5590   -3.4540    1.7240 C   0  0  0  0  0  0  0  0  0  0  0  0
   11.7130   -2.1020    1.4910 C   0  0  0  0  0  0  0  0  0  0  0  0
   10.6290   -1.3900    1.0280 C   0  0  0  0  0  0  0  0  0  0  0  0
    9.3940   -1.9490    0.7830 C   0  0  0  0  0  0  0  0  0  0  0  0
    8.3500   -1.2190    0.3300 N   0  0  0  0  0  0  0  0  0  0  0  0
  2  1  1  6
  2  3  1  0
  2  4  1  0
  2  5  1  0
  5  6  1  0
  6  7  2  0
  8  6  1  6
  8  9  1  0
  8 17  1  0
 10  9  1  6
 10 11  1  0
 10 15  1  0
 11 12  1  0
 12 13  1  0
 13 14  1  0
 15 14  1  6
 15 16  1  0
 16 17  1  0
 17 18  1  1
 18 19  1  0
 19 20  1  1
 19 21  1  0
 21 22  1  1
 21 29  1  0
 22 23  1  0
 23 24  2  0
 23 28  1  0
 24 25  1  0
 25 26  2  0
 26 27  1  0
 27 28  2  0
 29 30  1  0
 30 31  2  0
 30 32  1  0
 32 33  1  6
 32 37  1  0
 33 34  1  0
 34 35  1  0
 34 36  2  0
 37 38  1  0
 38 39  2  0
 38 40  1  0
 40 41  2  0
 40 49  1  0
 41 42  1  0
 42 43  2  0
 43 44  1  0
 43 48  1  0
 44 45  2  0
 45 46  1  0
 46 47  2  0
 47 48  1  0
 48 49  2  0
M  CHG  1  17   1
M  END
