
     RDKit          3D

 47 51  0  0  0  0  0  0  0  0999 V2000
    8.5480   -2.2010    0.5000 C   0  0  0  0  0  0  0  0  0  0  0  0
    7.3840   -1.3050    0.3340 C   0  0  0  0  0  0  0  0  0  0  0  0
    6.1010   -1.8510    0.3320 C   0  0  0  0  0  0  0  0  0  0  0  0
    4.9940   -1.0500    0.1810 C   0  0  0  0  0  0  0  0  0  0  0  0
    5.1060    0.3010    0.0270 C   0  0  0  0  0  0  0  0  0  0  0  0
    3.9850    1.2360   -0.1470 C   0  0  0  0  0  0  0  0  0  0  0  0
    2.6970    0.6250   -0.2730 N   0  0  2  0  0  0  0  0  0  0  0  0
    1.8650    1.5530   -1.0550 C   0  0  0  0  0  0  0  0  0  0  0  0
    0.7080    0.7620   -1.5790 C   0  0  0  0  0  0  0  0  0  0  0  0
   -0.3990    0.6700   -0.5200 C   0  0  2  0  0  0  0  0  0  0  0  0
   -0.2160   -0.5820    0.3100 C   0  0  0  0  0  0  0  0  0  0  0  0
   -1.0290   -1.6750    0.4600 C   0  0  0  0  0  0  0  0  0  0  0  0
   -0.6300   -2.7160    1.2910 C   0  0  0  0  0  0  0  0  0  0  0  0
    0.6100   -2.6280    1.9670 C   0  0  0  0  0  0  0  0  0  0  0  0
    1.4530   -1.5590    1.8460 C   0  0  0  0  0  0  0  0  0  0  0  0
    1.0240   -0.5640    1.0250 C   0  0  0  0  0  0  0  0  0  0  0  0
    2.0920    0.5180    1.0210 C   0  0  0  0  0  0  0  0  0  0  0  0
   -1.2680   -3.8930    1.5930 O   0  0  0  0  0  0  0  0  0  0  0  0
   -1.8560   -4.9730    0.9750 C   0  0  0  0  0  0  0  0  0  0  0  0
   -2.9590   -4.6380    0.0090 C   0  0  1  0  0  0  0  0  0  0  0  0
   -3.5630   -5.7760   -0.5170 O   0  0  0  0  0  0  0  0  0  0  0  0
   -4.0290   -3.8980    0.7990 C   0  0  0  0  0  0  0  0  0  0  0  0
   -5.1550   -3.5440   -0.0060 N   0  0  1  0  0  0  0  0  0  0  0  0
   -6.3230   -4.2400    0.4990 C   0  0  0  0  0  0  0  0  0  0  0  0
   -5.4210   -2.1100    0.1660 C   0  0  0  0  0  0  0  0  0  0  0  0
   -5.8760   -1.5080   -1.1130 C   0  0  0  0  0  0  0  0  0  0  0  0
   -5.9570   -0.2060   -1.3130 C   0  0  0  0  0  0  0  0  0  0  0  0
   -5.6120    0.8030   -0.3060 C   0  0  0  0  0  0  0  0  0  0  0  0
   -4.8780    1.8560   -0.8510 O   0  0  0  0  0  0  0  0  0  0  0  0
   -3.6370    1.9960   -0.2030 C   0  0  2  0  0  0  0  0  0  0  0  0
   -3.0500    3.2950   -0.6490 C   0  0  0  0  0  0  0  0  0  0  0  0
   -4.0310    4.3730   -0.2440 C   0  0  0  0  0  0  0  0  0  0  0  0
   -5.0410    4.7710   -1.0940 C   0  0  0  0  0  0  0  0  0  0  0  0
   -5.9530    5.7480   -0.7610 C   0  0  0  0  0  0  0  0  0  0  0  0
   -5.8710    6.3610    0.4610 C   0  0  0  0  0  0  0  0  0  0  0  0
   -6.7790    7.3630    0.8490 O   0  0  0  0  0  0  0  0  0  0  0  0
   -4.8670    5.9730    1.3230 C   0  0  0  0  0  0  0  0  0  0  0  0
   -3.9540    4.9940    0.9840 C   0  0  0  0  0  0  0  0  0  0  0  0
   -2.7860    0.7890   -0.3590 C   0  0  0  0  0  0  0  0  0  0  0  0
   -1.5910    0.9700   -1.1750 N   0  0  2  0  0  0  0  0  0  0  0  0
   -1.7520    0.3020   -2.4630 C   0  0  0  0  0  0  0  0  0  0  0  0
    6.3780    0.8300    0.0310 C   0  0  0  0  0  0  0  0  0  0  0  0
    7.5250    0.0490    0.1820 C   0  0  0  0  0  0  0  0  0  0  0  0
    8.8780    0.6630    0.1770 C   0  0  2  0  0  0  0  0  0  0  0  0
    9.7070    0.2310   -1.0080 C   0  0  0  0  0  0  0  0  0  0  0  0
    9.6110    0.5140    1.4790 C   0  0  0  0  0  0  0  0  0  0  0  0
    8.6860    2.0580    0.0050 O   0  0  0  0  0  0  0  0  0  0  0  0
  1  2  1  0
  2  3  2  0
  2 43  1  0
  3  4  1  0
  4  5  2  0
  5  6  1  0
  5 42  1  0
  7  6  1  1
  7  8  1  0
  7 17  1  0
  8  9  1  0
 10  9  1  6
 10 11  1  0
 10 40  1  0
 11 12  2  0
 11 16  1  0
 12 13  1  0
 13 14  2  0
 13 18  1  0
 14 15  1  0
 15 16  2  0
 16 17  1  0
 18 19  1  0
 19 20  1  0
 20 21  1  1
 20 22  1  0
 22 23  1  0
 23 24  1  1
 23 25  1  0
 25 26  1  0
 26 27  2  0
 27 28  1  0
 28 29  1  0
 29 30  1  0
 30 31  1  6
 30 39  1  0
 31 32  1  0
 32 33  2  0
 32 38  1  0
 33 34  1  0
 34 35  2  0
 35 36  1  0
 35 37  1  0
 37 38  2  0
 39 40  1  0
 40 41  1  6
 42 43  2  0
 43 44  1  0
 44 45  1  6
 44 46  1  0
 44 47  1  0
M  CHG  3   7   1  23   1  40   1
M  END
