
     RDKit          3D

 37 42  0  0  0  0  0  0  0  0999 V2000
   -6.0760    2.1210    2.3390 C   0  0  0  0  0  0  0  0  0  0  0  0
   -5.6420    1.0930    1.3920 N   0  0  0  0  0  0  0  0  0  0  0  0
   -6.5360    1.0800    0.2710 C   0  0  0  0  0  0  0  0  0  0  0  0
   -5.9620    0.3850   -0.9240 C   0  0  0  0  0  0  0  0  0  0  0  0
   -5.6260   -1.0340   -0.6550 C   0  0  0  0  0  0  0  0  0  0  0  0
   -6.5730   -2.0070   -0.8700 C   0  0  0  0  0  0  0  0  0  0  0  0
   -6.2720   -3.3300   -0.6230 C   0  0  0  0  0  0  0  0  0  0  0  0
   -5.0040   -3.6530   -0.1570 C   0  0  0  0  0  0  0  0  0  0  0  0
   -4.0440   -2.6920    0.0640 C   0  0  0  0  0  0  0  0  0  0  0  0
   -2.8190   -3.0490    0.5190 O   0  0  0  0  0  0  0  0  0  0  0  0
   -1.7190   -2.2700    0.7480 C   0  0  0  0  0  0  0  0  0  0  0  0
   -1.1400   -2.1430    2.0070 C   0  0  0  0  0  0  0  0  0  0  0  0
   -0.0100   -1.3280    2.1790 C   0  0  0  0  0  0  0  0  0  0  0  0
    0.5210   -0.6580    1.1030 C   0  0  0  0  0  0  0  0  0  0  0  0
   -0.0470   -0.7740   -0.1640 C   0  0  0  0  0  0  0  0  0  0  0  0
   -1.1580   -1.5830   -0.3030 C   0  0  0  0  0  0  0  0  0  0  0  0
   -1.7150   -1.6970   -1.5490 O   0  0  0  0  0  0  0  0  0  0  0  0
   -1.2530   -2.7260   -2.4070 C   0  0  0  0  0  0  0  0  0  0  0  0
   -1.4440   -3.9910   -1.8580 O   0  0  0  0  0  0  0  0  0  0  0  0
    0.5140   -0.0790   -1.2450 O   0  0  0  0  0  0  0  0  0  0  0  0
    1.6520    0.7460   -1.0800 C   0  0  0  0  0  0  0  0  0  0  0  0
    2.4060    1.4850   -1.7850 N   0  0  0  0  0  0  0  0  0  0  0  0
    3.4320    2.0680   -1.0390 N   0  0  0  0  0  0  0  0  0  0  0  0
    4.3900    2.8900   -1.7510 C   0  0  0  0  0  0  0  0  0  0  0  0
    5.7600    2.7750   -1.0550 C   0  0  0  0  0  0  0  0  0  0  0  0
    6.3250    1.5270   -1.4370 N   0  0  1  0  0  0  0  0  0  0  0  0
    7.7860    1.7270   -1.4890 C   0  0  0  0  0  0  0  0  0  0  0  0
    6.0760    0.3990   -0.6370 C   0  0  0  0  0  0  0  0  0  0  0  0
    5.6870    0.6350    0.7910 C   0  0  0  0  0  0  0  0  0  0  0  0
    4.3270    0.9710    0.9870 N   0  0  0  0  0  0  0  0  0  0  0  0
    3.9020    0.3860    2.2450 C   0  0  0  0  0  0  0  0  0  0  0  0
    4.7330   -0.0640    3.0260 O   0  0  0  0  0  0  0  0  0  0  0  0
    2.4350    0.3330    2.5830 C   0  0  0  0  0  0  0  0  0  0  0  0
    1.6840    0.1840    1.3060 C   0  0  0  0  0  0  0  0  0  0  0  0
    2.1370    0.7930    0.2580 C   0  0  0  0  0  0  0  0  0  0  0  0
    3.3050    1.6980    0.3170 C   0  0  2  0  0  0  0  0  0  0  0  0
   -4.3520   -1.3770   -0.1850 C   0  0  0  0  0  0  0  0  0  0  0  0
  1  2  1  0
  2  3  1  0
  3  4  1  0
  4  5  1  0
  5  6  2  0
  5 37  1  0
  6  7  1  0
  7  8  2  0
  8  9  1  0
  9 10  1  0
  9 37  2  0
 10 11  1  0
 11 12  2  0
 11 16  1  0
 12 13  1  0
 13 14  2  0
 14 15  1  0
 14 34  1  0
 15 16  2  0
 15 20  1  0
 16 17  1  0
 17 18  1  0
 18 19  1  0
 20 21  1  0
 21 22  2  0
 21 35  1  0
 22 23  1  0
 23 24  1  0
 36 23  1  6
 24 25  1  0
 25 26  1  0
 26 27  1  1
 26 28  1  0
 28 29  1  0
 29 30  1  0
 30 31  1  0
 30 36  1  0
 31 32  2  0
 31 33  1  0
 33 34  1  0
 34 35  2  0
 35 36  1  0
M  CHG  2   2   1  26   1
M  END
