
     RDKit          3D

 38 42  0  0  0  0  0  0  0  0999 V2000
    6.4800   -3.6780    1.8660 C   0  0  0  0  0  0  0  0  0  0  0  0
    6.9880   -2.3960    1.5510 O   0  0  0  0  0  0  0  0  0  0  0  0
    6.3030   -1.9010    0.4110 C   0  0  2  0  0  0  0  0  0  0  0  0
    7.3840   -1.7000   -0.6300 C   0  0  0  0  0  0  0  0  0  0  0  0
    5.7150   -0.5950    0.8380 C   0  0  0  0  0  0  0  0  0  0  0  0
    4.9130    0.0350   -0.1620 O   0  0  0  0  0  0  0  0  0  0  0  0
    3.8050   -0.5770   -0.6750 C   0  0  0  0  0  0  0  0  0  0  0  0
    3.5320   -1.7330   -0.2250 O   0  0  0  0  0  0  0  0  0  0  0  0
    2.9630    0.0680   -1.7010 C   0  0  0  0  0  0  0  0  0  0  0  0
    1.7250    0.5780   -1.0960 N   0  0  0  0  0  0  0  0  0  0  0  0
    0.6910   -0.2210   -0.9310 C   0  0  0  0  0  0  0  0  0  0  0  0
    0.7610   -1.4180   -1.2870 O   0  0  0  0  0  0  0  0  0  0  0  0
   -0.5410    0.2090   -0.3540 C   0  0  0  0  0  0  0  0  0  0  0  0
   -1.5410   -0.8230   -0.2800 C   0  0  0  0  0  0  0  0  0  0  0  0
   -2.8210   -0.8590    0.1900 N   0  0  2  0  0  0  0  0  0  0  0  0
   -2.9100   -1.7460    1.3780 C   0  0  0  0  0  0  0  0  0  0  0  0
   -3.7030   -2.9830    1.1350 C   0  0  0  0  0  0  0  0  0  0  0  0
   -5.0630   -2.6770    0.7220 N   0  0  0  0  0  0  0  0  0  0  0  0
   -5.7000   -3.8600    0.2340 C   0  0  0  0  0  0  0  0  0  0  0  0
   -5.5910   -3.7530   -1.2030 N   0  0  0  0  0  0  0  0  0  0  0  0
   -5.8860   -2.3530   -1.4370 C   0  0  0  0  0  0  0  0  0  0  0  0
   -5.0420   -1.7060   -0.3680 C   0  0  1  0  0  0  0  0  0  0  0  0
   -5.6060   -0.4370    0.1880 C   0  0  0  0  0  0  0  0  0  0  0  0
   -3.6450   -1.5370   -0.8910 C   0  0  0  0  0  0  0  0  0  0  0  0
   -0.6010    1.5110    0.0260 C   0  0  0  0  0  0  0  0  0  0  0  0
   -1.7440    2.0350    0.5890 C   0  0  0  0  0  0  0  0  0  0  0  0
   -1.8550    3.3360    0.9750 C   0  0  0  0  0  0  0  0  0  0  0  0
   -0.7780    4.1670    0.7950 C   0  0  0  0  0  0  0  0  0  0  0  0
   -0.8500    5.4920    1.1550 C   0  0  0  0  0  0  0  0  0  0  0  0
    0.2150    6.3390    0.9680 C   0  0  0  0  0  0  0  0  0  0  0  0
    0.0650    8.0330    1.4460 Cl  0  0  0  0  0  0  0  0  0  0  0  0
    1.3680    5.8570    0.4140 C   0  0  0  0  0  0  0  0  0  0  0  0
    2.5320    6.7260    0.1890 C   0  0  0  0  0  0  0  0  0  0  0  0
    1.4660    4.5100    0.0390 C   0  0  0  0  0  0  0  0  0  0  0  0
    0.4080    3.6530    0.2220 C   0  0  0  0  0  0  0  0  0  0  0  0
    0.4900    2.3480   -0.1530 N   0  0  0  0  0  0  0  0  0  0  0  0
    1.6080    1.8660   -0.7010 C   0  0  0  0  0  0  0  0  0  0  0  0
    2.6190    2.5490   -0.8890 O   0  0  0  0  0  0  0  0  0  0  0  0
  1  2  1  0
  2  3  1  0
  3  4  1  6
  3  5  1  0
  5  6  1  0
  6  7  1  0
  7  8  2  0
  7  9  1  0
  9 10  1  0
 10 11  1  0
 10 37  1  0
 11 12  2  0
 11 13  1  0
 13 14  1  0
 13 25  2  0
 15 14  1  6
 15 16  1  0
 15 24  1  0
 16 17  1  0
 17 18  1  0
 18 19  1  0
 18 22  1  0
 19 20  1  0
 20 21  1  0
 21 22  1  0
 22 23  1  1
 22 24  1  0
 25 26  1  0
 25 36  1  0
 26 27  2  0
 27 28  1  0
 28 29  2  0
 28 35  1  0
 29 30  1  0
 30 31  1  0
 30 32  2  0
 32 33  1  0
 32 34  1  0
 34 35  2  0
 35 36  1  0
 36 37  1  0
 37 38  2  0
M  CHG  2  15   1  20   1
M  END
