
     RDKit          3D

 38 42  0  0  0  0  0  0  0  0999 V2000
    8.9180    1.3440   -0.6450 C   0  0  0  0  0  0  0  0  0  0  0  0
    8.4450    0.0150   -0.1110 C   0  0  0  0  0  0  0  0  0  0  0  0
    7.0940    0.2380    0.4970 C   0  0  0  0  0  0  0  0  0  0  0  0
    5.9730    0.1050   -0.2340 N   0  0  0  0  0  0  0  0  0  0  0  0
    4.7580    0.3190    0.3650 C   0  0  0  0  0  0  0  0  0  0  0  0
    4.7230    0.6630    1.6940 C   0  0  0  0  0  0  0  0  0  0  0  0
    5.8910    0.7840    2.3830 C   0  0  0  0  0  0  0  0  0  0  0  0
    5.9620    1.0950    3.5970 O   0  0  0  0  0  0  0  0  0  0  0  0
    7.0650    0.5690    1.7720 O   0  0  0  0  0  0  0  0  0  0  0  0
    3.4160    0.8780    2.3180 C   0  0  0  0  0  0  0  0  0  0  0  0
    2.5470   -0.2700    1.8070 C   0  0  0  0  0  0  0  0  0  0  0  0
    2.3470   -0.1800    0.3820 N   0  0  2  0  0  0  0  0  0  0  0  0
    1.7830   -1.3990   -0.1150 C   0  0  0  0  0  0  0  0  0  0  0  0
    0.4140   -1.3460   -0.6100 C   0  0  0  0  0  0  0  0  0  0  0  0
   -0.4120   -0.2870   -0.6710 N   0  0  0  0  0  0  0  0  0  0  0  0
   -1.6080   -0.6360   -1.1970 C   0  0  0  0  0  0  0  0  0  0  0  0
   -2.7850    0.2600   -1.4310 C   0  0  2  0  0  0  0  0  0  0  0  0
   -2.3110    1.3760   -2.3290 C   0  0  0  0  0  0  0  0  0  0  0  0
   -3.2600    2.5320   -2.4340 C   0  0  0  0  0  0  0  0  0  0  0  0
   -3.7580    3.0360   -1.1010 C   0  0  0  0  0  0  0  0  0  0  0  0
   -4.1890    1.8660   -0.3220 N   0  0  0  0  0  0  0  0  0  0  0  0
   -5.5020    1.7350    0.1290 C   0  0  0  0  0  0  0  0  0  0  0  0
   -6.3090    2.6660   -0.1520 O   0  0  0  0  0  0  0  0  0  0  0  0
   -5.9770    0.6060    0.8870 C   0  0  0  0  0  0  0  0  0  0  0  0
   -5.3650   -0.4730    1.3020 O   0  0  0  0  0  0  0  0  0  0  0  0
   -6.1390   -1.2670    1.9640 C   0  0  0  0  0  0  0  0  0  0  0  0
   -7.4000   -0.7180    2.0280 C   0  0  0  0  0  0  0  0  0  0  0  0
   -7.2940    0.4720    1.3430 C   0  0  0  0  0  0  0  0  0  0  0  0
   -8.3810    1.4590    1.1150 C   0  0  0  0  0  0  0  0  0  0  0  0
   -3.1510    0.8980   -0.0840 C   0  0  0  0  0  0  0  0  0  0  0  0
   -1.4910   -1.9390   -1.4570 N   0  0  0  0  0  0  0  0  0  0  0  0
   -0.3010   -2.4480   -1.1320 C   0  0  0  0  0  0  0  0  0  0  0  0
    0.2610   -3.7800   -1.2330 C   0  0  0  0  0  0  0  0  0  0  0  0
   -0.2250   -4.8780   -1.6680 C   0  0  0  0  0  0  0  0  0  0  0  0
   -1.5010   -5.2050   -2.2160 C   0  0  0  0  0  0  0  0  0  0  0  0
   -1.7520   -6.4310   -2.5920 O   0  0  0  0  0  0  0  0  0  0  0  0
   -2.7750   -4.0350   -2.4180 Cl  0  0  0  0  0  0  0  0  0  0  0  0
    3.4900    0.1960   -0.3870 C   0  0  0  0  0  0  0  0  0  0  0  0
  1  2  1  0
  2  3  1  0
  3  4  2  0
  3  9  1  0
  4  5  1  0
  5  6  2  0
  5 38  1  0
  6  7  1  0
  6 10  1  0
  7  8  2  0
  7  9  1  0
 10 11  1  0
 11 12  1  0
 12 13  1  6
 12 38  1  0
 13 14  1  0
 14 15  1  0
 14 32  2  0
 15 16  1  0
 17 16  1  1
 16 31  2  0
 17 18  1  0
 17 30  1  0
 18 19  1  0
 19 20  1  0
 20 21  1  0
 21 22  1  0
 21 30  1  0
 22 23  2  0
 22 24  1  0
 24 25  1  0
 24 28  2  0
 25 26  1  0
 26 27  2  0
 27 28  1  0
 28 29  1  0
 31 32  1  0
 32 33  1  0
 33 34  2  3
 34 35  1  0
 35 36  2  0
 35 37  1  0
M  CHG  2   4   1  12   1
M  END
