
     RDKit          3D

 38 42  0  0  0  0  0  0  0  0999 V2000
    9.6480    2.0940    0.7510 C   0  0  0  0  0  0  0  0  0  0  0  0
   10.4000    0.9330    0.2530 N   0  0  0  0  0  0  0  0  0  0  0  0
    9.8480   -0.2160    0.8950 C   0  0  0  0  0  0  0  0  0  0  0  0
    8.5740   -0.7010    0.3510 C   0  0  0  0  0  0  0  0  0  0  0  0
    8.0910   -0.4380   -0.9100 C   0  0  0  0  0  0  0  0  0  0  0  0
    6.8630   -0.9420   -1.3360 C   0  0  0  0  0  0  0  0  0  0  0  0
    6.0720   -1.7260   -0.5190 C   0  0  0  0  0  0  0  0  0  0  0  0
    4.8440   -2.2500   -0.9040 O   0  0  0  0  0  0  0  0  0  0  0  0
    3.6530   -1.5860   -0.7600 C   0  0  0  0  0  0  0  0  0  0  0  0
    3.1830   -0.8650   -1.8310 C   0  0  0  0  0  0  0  0  0  0  0  0
    2.0180   -0.1970   -1.7350 C   0  0  0  0  0  0  0  0  0  0  0  0
    1.2180   -0.1990   -0.5370 C   0  0  0  0  0  0  0  0  0  0  0  0
    0.0830    0.5050   -0.5850 O   0  0  0  0  0  0  0  0  0  0  0  0
   -1.2410    0.3420   -0.4270 C   0  0  0  0  0  0  0  0  0  0  0  0
   -1.9800   -0.0460   -1.5470 N   0  0  0  0  0  0  0  0  0  0  0  0
   -3.2670   -0.2210   -1.4720 N   0  0  0  0  0  0  0  0  0  0  0  0
   -3.9520   -0.0400   -0.3300 C   0  0  0  0  0  0  0  0  0  0  0  0
   -5.3500   -0.2830   -0.3390 N   0  0  0  0  0  0  0  0  0  0  0  0
   -6.1860    0.6830   -0.3610 C   0  0  0  0  0  0  0  0  0  0  0  0
   -5.5140    1.9990   -0.3720 C   0  0  0  0  0  0  0  0  0  0  0  0
   -4.3640    2.0360   -0.8690 O   0  0  0  0  0  0  0  0  0  0  0  0
   -6.0980    3.1520    0.1330 O   0  0  0  0  0  0  0  0  0  0  0  0
   -7.4040    3.5370    0.4330 C   0  0  0  0  0  0  0  0  0  0  0  0
   -8.3570    2.4320    0.7450 C   0  0  0  0  0  0  0  0  0  0  0  0
   -8.6850    1.5270   -0.4120 C   0  0  0  0  0  0  0  0  0  0  0  0
   -7.6410    0.4490   -0.3930 C   0  0  0  0  0  0  0  0  0  0  0  0
   -8.1100   -0.7660   -0.4010 C   0  0  0  0  0  0  0  0  0  0  0  0
   -7.2190   -1.9320   -0.3810 C   0  0  0  0  0  0  0  0  0  0  0  0
   -5.7690   -1.6720   -0.2940 C   0  0  2  0  0  0  0  0  0  0  0  0
   -5.2640   -2.2040    1.0640 C   0  0  0  0  0  0  0  0  0  0  0  0
   -3.2710    0.3300    0.7390 N   0  0  0  0  0  0  0  0  0  0  0  0
   -1.9210    0.5350    0.7440 C   0  0  0  0  0  0  0  0  0  0  0  0
   -1.3650    0.8990    1.8220 O   0  0  0  0  0  0  0  0  0  0  0  0
    1.6950   -0.9130    0.5050 C   0  0  0  0  0  0  0  0  0  0  0  0
    0.9020   -1.0950    2.0630 Cl  0  0  0  0  0  0  0  0  0  0  0  0
    2.8980   -1.5950    0.3890 C   0  0  0  0  0  0  0  0  0  0  0  0
    6.5700   -1.9890    0.7590 C   0  0  0  0  0  0  0  0  0  0  0  0
    7.7790   -1.4910    1.1730 C   0  0  0  0  0  0  0  0  0  0  0  0
  1  2  1  0
  2  3  1  0
  3  4  1  0
  4  5  2  0
  4 38  1  0
  5  6  1  0
  6  7  2  0
  7  8  1  0
  7 37  1  0
  8  9  1  0
  9 10  2  0
  9 36  1  0
 10 11  1  0
 11 12  2  0
 12 13  1  0
 12 34  1  0
 13 14  1  0
 14 15  2  0
 14 32  1  0
 15 16  1  0
 16 17  2  0
 17 18  1  0
 17 31  1  0
 18 19  2  0
 18 29  1  0
 19 20  1  0
 19 26  1  0
 20 21  2  0
 20 22  1  0
 22 23  1  0
 23 24  1  0
 24 25  1  0
 25 26  1  0
 26 27  2  0
 27 28  1  0
 28 29  1  0
 29 30  1  1
 31 32  1  0
 32 33  2  0
 34 35  1  0
 34 36  2  0
 37 38  2  0
M  CHG  2   2   1  18   1
M  END
