
     RDKit          3D

 38 42  0  0  0  0  0  0  0  0999 V2000
    8.1510   -1.5490    1.7030 C   0  0  0  0  0  0  0  0  0  0  0  0
    8.4500   -0.3780    1.0020 O   0  0  0  0  0  0  0  0  0  0  0  0
    7.2290    0.1490    0.5510 C   0  0  0  0  0  0  0  0  0  0  0  0
    7.5340    1.3930   -0.1970 C   0  0  0  0  0  0  0  0  0  0  0  0
    8.8260    1.8610   -0.3500 C   0  0  0  0  0  0  0  0  0  0  0  0
    9.1480    3.0110   -1.0350 C   0  0  0  0  0  0  0  0  0  0  0  0
    8.1110    3.7360   -1.6030 C   0  0  0  0  0  0  0  0  0  0  0  0
    8.4670    5.2100   -2.4880 Cl  0  0  0  0  0  0  0  0  0  0  0  0
    6.8480    3.2530   -1.4370 C   0  0  0  0  0  0  0  0  0  0  0  0
    6.5440    2.1180   -0.7590 N   0  0  0  0  0  0  0  0  0  0  0  0
    5.1870    1.7100   -0.6520 C   0  0  0  0  0  0  0  0  0  0  0  0
    4.7020    0.6090   -1.3240 C   0  0  0  0  0  0  0  0  0  0  0  0
    3.3430    0.2650   -1.1700 C   0  0  0  0  0  0  0  0  0  0  0  0
    2.5400    1.0150   -0.3700 C   0  0  0  0  0  0  0  0  0  0  0  0
    1.1380    0.6890   -0.1890 C   0  0  0  0  0  0  0  0  0  0  0  0
    0.4090    1.4210    0.5620 O   0  0  0  0  0  0  0  0  0  0  0  0
    0.5190   -0.4120   -0.8070 N   0  0  0  0  0  0  0  0  0  0  0  0
   -0.8320   -0.8020   -0.6950 C   0  0  0  0  0  0  0  0  0  0  0  0
   -1.2080   -2.0420   -1.2130 C   0  0  0  0  0  0  0  0  0  0  0  0
   -2.4890   -2.5360   -1.1830 C   0  0  0  0  0  0  0  0  0  0  0  0
   -3.4800   -1.7850   -0.6130 C   0  0  0  0  0  0  0  0  0  0  0  0
   -4.7960   -2.1640   -0.5200 O   0  0  0  0  0  0  0  0  0  0  0  0
   -5.4030   -3.3280   -0.9510 C   0  0  1  0  0  0  0  0  0  0  0  0
   -6.1380   -4.0670    0.1520 C   0  0  0  0  0  0  0  0  0  0  0  0
   -7.2070   -4.8300   -0.5960 C   0  0  0  0  0  0  0  0  0  0  0  0
   -7.1130   -4.4310   -1.9900 N   0  0  0  0  0  0  0  0  0  0  0  0
   -6.5580   -3.0700   -1.9160 C   0  0  0  0  0  0  0  0  0  0  0  0
   -3.1390   -0.5360   -0.0820 C   0  0  0  0  0  0  0  0  0  0  0  0
   -4.1790    0.2830    0.5300 C   0  0  0  0  0  0  0  0  0  0  0  0
   -5.3780   -0.0930    0.5990 O   0  0  0  0  0  0  0  0  0  0  0  0
   -3.8530    1.5050    1.0520 O   0  0  0  0  0  0  0  0  0  0  0  0
   -4.7760    2.3730    1.6630 C   0  0  0  0  0  0  0  0  0  0  0  0
   -4.0290    3.6110    2.1090 C   0  0  1  0  0  0  0  0  0  0  0  0
   -4.7430    4.7060    2.7860 C   0  0  0  0  0  0  0  0  0  0  0  0
   -3.8840    3.8280    3.6220 C   0  0  0  0  0  0  0  0  0  0  0  0
   -1.8390   -0.0710   -0.1310 C   0  0  0  0  0  0  0  0  0  0  0  0
    3.0580    2.0740    0.2620 N   0  0  0  0  0  0  0  0  0  0  0  0
    4.3440    2.4060    0.1210 N   0  0  0  0  0  0  0  0  0  0  0  0
  1  2  1  0
  2  3  1  0
  3  4  1  0
  4  5  2  0
  4 10  1  0
  5  6  1  0
  6  7  2  0
  7  8  1  0
  7  9  1  0
  9 10  2  0
 10 11  1  0
 11 12  2  0
 11 38  1  0
 12 13  1  0
 13 14  2  0
 14 15  1  0
 14 37  1  0
 15 16  2  0
 15 17  1  0
 17 18  1  0
 18 19  2  0
 18 36  1  0
 19 20  1  0
 20 21  2  0
 21 22  1  0
 21 28  1  0
 23 22  1  1
 23 24  1  0
 23 27  1  0
 24 25  1  0
 25 26  1  0
 26 27  1  0
 28 29  1  0
 28 36  2  0
 29 30  2  0
 29 31  1  0
 31 32  1  0
 33 32  1  1
 33 34  1  0
 33 35  1  0
 34 35  1  0
 37 38  2  0
M  CHG  2  10   1  26   1
M  END
