
     RDKit          3D

 38 41  0  0  0  0  0  0  0  0999 V2000
    4.1170    1.3450   -3.7010 C   0  0  0  0  0  0  0  0  0  0  0  0
    3.4430    0.7550   -2.4790 C   0  0  2  0  0  0  0  0  0  0  0  0
    2.1680    0.0710   -2.9700 C   0  0  0  0  0  0  0  0  0  0  0  0
    3.0820    1.8710   -1.5040 C   0  0  0  0  0  0  0  0  0  0  0  0
    2.4450    1.3670   -0.3210 N   0  0  0  0  0  0  0  0  0  0  0  0
    1.2160    2.0400    0.0210 C   0  0  0  0  0  0  0  0  0  0  0  0
    0.1470    1.0200    0.3160 C   0  0  1  0  0  0  0  0  0  0  0  0
    0.5500    0.2370    1.3830 O   0  0  0  0  0  0  0  0  0  0  0  0
   -1.2390    1.5890    0.4510 C   0  0  2  0  0  0  0  0  0  0  0  0
   -1.3730    2.4750    1.6440 C   0  0  0  0  0  0  0  0  0  0  0  0
   -1.1430    1.8950    2.9490 C   0  0  0  0  0  0  0  0  0  0  0  0
    0.0920    1.9540    3.5410 C   0  0  0  0  0  0  0  0  0  0  0  0
    0.3380    1.3930    4.8040 C   0  0  0  0  0  0  0  0  0  0  0  0
   -0.6630    0.7630    5.4890 C   0  0  0  0  0  0  0  0  0  0  0  0
   -1.9050    0.6900    4.9240 C   0  0  0  0  0  0  0  0  0  0  0  0
   -2.1240    1.2420    3.6930 C   0  0  0  0  0  0  0  0  0  0  0  0
   -2.1940    0.4850    0.4960 N   0  0  0  0  0  0  0  0  0  0  0  0
   -3.2070    0.3010   -0.4440 C   0  0  0  0  0  0  0  0  0  0  0  0
   -3.3500    1.0930   -1.3870 O   0  0  0  0  0  0  0  0  0  0  0  0
   -4.0710   -0.7460   -0.3660 O   0  0  0  0  0  0  0  0  0  0  0  0
   -5.1110   -1.0690   -1.1960 C   0  0  1  0  0  0  0  0  0  0  0  0
   -4.9820   -2.3720   -1.9440 C   0  0  0  0  0  0  0  0  0  0  0  0
   -6.2790   -2.8130   -2.2000 O   0  0  0  0  0  0  0  0  0  0  0  0
   -7.1510   -1.8000   -1.8840 C   0  0  1  0  0  0  0  0  0  0  0  0
   -8.3490   -2.2330   -1.3370 O   0  0  0  0  0  0  0  0  0  0  0  0
   -8.0610   -2.8370   -0.1300 C   0  0  0  0  0  0  0  0  0  0  0  0
   -6.6450   -2.4460    0.2460 C   0  0  0  0  0  0  0  0  0  0  0  0
   -6.4700   -1.2260   -0.6240 C   0  0  1  0  0  0  0  0  0  0  0  0
    3.5350    1.1520    0.9650 S   0  0  1  0  0  0  0  0  0  0  0  0
    4.2680    2.4700    1.1960 O   0  0  0  0  0  0  0  0  0  0  0  0
    2.9260    0.7360    2.2470 O   0  0  0  0  0  0  0  0  0  0  0  0
    4.7780   -0.0170    0.5650 C   0  0  0  0  0  0  0  0  0  0  0  0
    4.5870   -1.3650    0.7620 C   0  0  0  0  0  0  0  0  0  0  0  0
    5.5720   -2.2710    0.4520 C   0  0  0  0  0  0  0  0  0  0  0  0
    6.7940   -1.8960   -0.0670 C   0  0  0  0  0  0  0  0  0  0  0  0
    7.7860   -2.8480   -0.3750 N   0  0  0  0  0  0  0  0  0  0  0  0
    6.9780   -0.5300   -0.2630 C   0  0  0  0  0  0  0  0  0  0  0  0
    5.9980    0.3890    0.0440 C   0  0  0  0  0  0  0  0  0  0  0  0
  2  1  1  6
  2  3  1  0
  2  4  1  0
  4  5  1  0
  5  6  1  0
 29  5  1  6
  6  7  1  0
  7  8  1  1
  7  9  1  0
  9 10  1  1
  9 17  1  0
 10 11  1  0
 11 12  2  0
 11 16  1  0
 12 13  1  0
 13 14  2  0
 14 15  1  0
 15 16  2  0
 17 18  1  0
 18 19  2  0
 18 20  1  0
 21 20  1  1
 21 22  1  0
 21 28  1  0
 22 23  1  0
 24 23  1  1
 24 25  1  0
 24 28  1  0
 25 26  1  0
 26 27  1  0
 28 27  1  1
 29 30  2  0
 29 31  2  0
 29 32  1  0
 32 33  2  0
 32 38  1  0
 33 34  1  0
 34 35  2  0
 35 36  1  0
 35 37  1  0
 37 38  2  0
M  END
