
     RDKit          3D

 14 15  0  0  0  0  0  0  0  0999 V2000
    3.5660    0.7480   -0.3530 C   0  0  0  0  0  0  0  0  0  0  0  0
    2.9770   -0.5480    0.1440 C   0  0  1  0  0  0  0  0  0  0  0  0
    2.2620   -0.2890    1.4040 N   0  0  0  0  0  0  0  0  0  0  0  0
    0.9100   -0.2040    1.0270 C   0  0  0  0  0  0  0  0  0  0  0  0
    0.7340   -0.6530   -0.1980 C   0  0  0  0  0  0  0  0  0  0  0  0
   -0.5740   -0.7020   -0.8980 C   0  0  1  0  0  0  0  0  0  0  0  0
   -0.7910   -2.0710   -1.1780 O   0  0  0  0  0  0  0  0  0  0  0  0
   -1.6320   -0.1770    0.0050 C   0  0  2  0  0  0  0  0  0  0  0  0
   -3.0190   -0.2660   -0.5370 C   0  0  0  0  0  0  0  0  0  0  0  0
   -3.5050    1.0930   -0.4470 N   0  0  0  0  0  0  0  0  0  0  0  0
   -2.5980    1.8220    0.3530 C   0  0  0  0  0  0  0  0  0  0  0  0
   -2.8230    2.8660    1.0530 O   0  0  0  0  0  0  0  0  0  0  0  0
   -1.3740    1.1940    0.2510 O   0  0  0  0  0  0  0  0  0  0  0  0
    1.9800   -1.0600   -0.6890 O   0  0  0  0  0  0  0  0  0  0  0  0
  2  1  1  6
  2  3  1  0
  2 14  1  0
  3  4  1  0
  4  5  2  0
  5  6  1  0
  5 14  1  0
  6  7  1  1
  6  8  1  0
  8  9  1  6
  8 13  1  0
  9 10  1  0
 10 11  1  0
 11 12  2  0
 11 13  1  0
M  END
