
     RDKit          3D

 13 13  0  0  0  0  0  0  0  0999 V2000
    4.7330    0.6680    0.5840 N   0  0  0  0  0  0  0  0  0  0  0  0
    3.3770    0.4230    0.9320 C   0  0  0  0  0  0  0  0  0  0  0  0
    2.4700   -0.0750    0.1090 C   0  0  0  0  0  0  0  0  0  0  0  0
    2.8340   -0.3880   -1.1870 O   0  0  0  0  0  0  0  0  0  0  0  0
    1.1010   -0.2920    0.5570 C   0  0  0  0  0  0  0  0  0  0  0  0
    0.0790    0.4230   -0.1680 N   0  0  0  0  0  0  0  0  0  0  0  0
   -0.0910   -0.0520   -1.5120 C   0  0  0  0  0  0  0  0  0  0  0  0
   -1.4370   -0.6870   -1.7660 C   0  0  0  0  0  0  0  0  0  0  0  0
   -2.4860    0.0930   -1.3660 O   0  0  0  0  0  0  0  0  0  0  0  0
   -2.3760    0.6560   -0.1240 C   0  0  1  0  0  0  0  0  0  0  0  0
   -3.5210    0.1570    0.7680 C   0  0  0  0  0  0  0  0  0  0  0  0
   -3.4890   -1.2280    0.9110 O   0  0  0  0  0  0  0  0  0  0  0  0
   -1.1160    0.3670    0.6120 C   0  0  0  0  0  0  0  0  0  0  0  0
  1  2  1  0
  2  3  2  3
  3  4  1  0
  3  5  1  0
  5  6  1  0
  6  7  1  0
  6 13  1  0
  7  8  1  0
  8  9  1  0
  9 10  1  0
 10 11  1  1
 10 13  1  0
 11 12  1  0
M  END
