
     RDKit          3D

 14 14  0  0  0  0  0  0  0  0999 V2000
   -3.8470   -1.6290   -0.0830 N   0  0  0  0  0  0  0  0  0  0  0  0
   -2.6070   -1.7740    0.0090 C   0  0  0  0  0  0  0  0  0  0  0  0
   -1.7400   -1.1490    0.9550 C   0  0  0  0  0  0  0  0  0  0  0  0
   -2.1690   -0.3210    1.8660 C   0  0  0  0  0  0  0  0  0  0  0  0
   -3.4960    0.0270    2.0020 O   0  0  0  0  0  0  0  0  0  0  0  0
   -0.3530   -1.4120    0.9350 O   0  0  0  0  0  0  0  0  0  0  0  0
    0.5920   -0.3700    0.8720 C   0  0  0  0  0  0  0  0  0  0  0  0
    0.3580    0.4170   -0.3960 C   0  0  2  0  0  0  0  0  0  0  0  0
    0.5130   -0.4550   -1.4730 O   0  0  0  0  0  0  0  0  0  0  0  0
    1.8070   -0.8890   -1.6120 C   0  0  0  0  0  0  0  0  0  0  0  0
    2.8400    0.1900   -1.5730 C   0  0  0  0  0  0  0  0  0  0  0  0
    2.6390    0.9680   -0.4330 O   0  0  0  0  0  0  0  0  0  0  0  0
    1.3530    1.5290   -0.5810 C   0  0  2  0  0  0  0  0  0  0  0  0
    1.1550    2.6570    0.2320 N   0  0  0  0  0  0  0  0  0  0  0  0
  1  2  2  0
  2  3  1  0
  3  4  2  3
  3  6  1  0
  4  5  1  0
  6  7  1  0
  8  7  1  1
  8  9  1  0
  8 13  1  0
  9 10  1  0
 10 11  1  0
 11 12  1  0
 12 13  1  0
 13 14  1  1
M  END
