
     RDKit          3D

 14 14  0  0  0  0  0  0  0  0999 V2000
   -3.5410    2.2620   -0.4640 N   0  0  0  0  0  0  0  0  0  0  0  0
   -2.7850    1.0550   -0.6090 C   0  0  0  0  0  0  0  0  0  0  0  0
   -2.9270    0.3300   -1.6190 O   0  0  0  0  0  0  0  0  0  0  0  0
   -1.8880    0.7070    0.4030 O   0  0  0  0  0  0  0  0  0  0  0  0
   -1.1260   -0.4600    0.3120 C   0  0  2  0  0  0  0  0  0  0  0  0
   -1.4410   -1.3850    1.4580 C   0  0  0  0  0  0  0  0  0  0  0  0
   -0.6880   -2.5530    1.3810 O   0  0  0  0  0  0  0  0  0  0  0  0
    0.3480   -0.1020    0.2580 C   0  0  2  0  0  0  0  0  0  0  0  0
    0.5200    0.7820   -0.9590 C   0  0  0  0  0  0  0  0  0  0  0  0
    1.8580    1.2130   -1.1770 N   0  0  0  0  0  0  0  0  0  0  0  0
    3.0610    0.4980   -0.9720 C   0  0  0  0  0  0  0  0  0  0  0  0
    3.2840   -0.5080   -0.1300 C   0  0  0  0  0  0  0  0  0  0  0  0
    2.3310   -1.1450    0.8160 C   0  0  0  0  0  0  0  0  0  0  0  0
    1.1120   -1.2620    0.1680 O   0  0  0  0  0  0  0  0  0  0  0  0
  1  2  1  0
  2  3  2  0
  2  4  1  0
  4  5  1  0
  5  6  1  1
  5  8  1  0
  6  7  1  0
  8  9  1  6
  8 14  1  0
  9 10  1  0
 10 11  1  0
 11 12  2  0
 12 13  1  0
 13 14  1  0
M  END
