
     RDKit          3D

 14 15  0  0  0  0  0  0  0  0999 V2000
    3.8610    1.9470   -0.1540 O   0  0  0  0  0  0  0  0  0  0  0  0
    3.0010    1.0890    0.1580 C   0  0  0  0  0  0  0  0  0  0  0  0
    3.3600   -0.3520    0.2600 C   0  0  0  0  0  0  0  0  0  0  0  0
    2.3620   -1.0720   -0.4670 O   0  0  0  0  0  0  0  0  0  0  0  0
    1.0430   -0.8040   -0.1450 C   0  0  0  0  0  0  0  0  0  0  0  0
    0.0600   -1.6940   -0.3540 C   0  0  0  0  0  0  0  0  0  0  0  0
   -1.3110   -1.3200    0.0190 C   0  0  0  0  0  0  0  0  0  0  0  0
   -2.1410   -2.2390    0.1470 O   0  0  0  0  0  0  0  0  0  0  0  0
   -1.6590    0.1030    0.2270 C   0  0  2  0  0  0  0  0  0  0  0  0
   -2.9680    0.4240   -0.4580 C   0  0  0  0  0  0  0  0  0  0  0  0
   -3.9830   -0.3580    0.0430 O   0  0  0  0  0  0  0  0  0  0  0  0
   -0.5710    0.9100   -0.2790 N   0  0  0  0  0  0  0  0  0  0  0  0
    0.6280    0.4870    0.4530 C   0  0  2  0  0  0  0  0  0  0  0  0
    1.6630    1.4730    0.4230 N   0  0  0  0  0  0  0  0  0  0  0  0
  1  2  2  0
  2  3  1  0
  2 14  1  0
  3  4  1  0
  4  5  1  0
  5  6  2  0
  5 13  1  0
  6  7  1  0
  7  8  2  0
  7  9  1  0
  9 10  1  6
  9 12  1  0
 10 11  1  0
 13 12  1  6
 13 14  1  0
M  END
