
     RDKit          3D

 13 13  0  0  0  0  0  0  0  0999 V2000
   -4.2480   -0.4450    0.3890 C   0  0  0  0  0  0  0  0  0  0  0  0
   -2.8800   -0.8420    0.2590 O   0  0  0  0  0  0  0  0  0  0  0  0
   -2.1170   -0.4990   -0.8290 C   0  0  0  0  0  0  0  0  0  0  0  0
   -2.6750   -0.3930   -2.1050 N   0  0  0  0  0  0  0  0  0  0  0  0
   -0.7960   -0.2590   -0.6590 C   0  0  0  0  0  0  0  0  0  0  0  0
   -0.1920   -0.3570    0.6240 C   0  0  0  0  0  0  0  0  0  0  0  0
    1.0290   -0.1790    1.0310 C   0  0  0  0  0  0  0  0  0  0  0  0
    1.4170   -0.3390    2.4160 O   0  0  0  0  0  0  0  0  0  0  0  0
    2.8170   -0.5710    2.4490 C   0  0  0  0  0  0  0  0  0  0  0  0
    3.2580    0.2210    1.3500 O   0  0  0  0  0  0  0  0  0  0  0  0
    2.2420    0.1860    0.3540 C   0  0  0  0  0  0  0  0  0  0  0  0
    2.4840    0.4540   -0.9110 C   0  0  0  0  0  0  0  0  0  0  0  0
    3.8340    0.7960   -1.2940 N   0  0  0  0  0  0  0  0  0  0  0  0
  1  2  1  0
  2  3  1  0
  3  4  1  0
  3  5  2  3
  5  6  1  0
  6  7  2  3
  7  8  1  0
  7 11  1  0
  8  9  1  0
  9 10  1  0
 10 11  1  0
 11 12  2  3
 12 13  1  0
M  END
