
     RDKit          3D

 14 15  0  0  0  0  0  0  0  0999 V2000
    3.1800    0.7190   -0.4000 N   0  0  0  0  0  0  0  0  0  0  0  0
    2.4690    0.7640    0.7980 N   0  0  0  0  0  0  0  0  0  0  0  0
    1.3070    0.2260    0.9650 C   0  0  0  0  0  0  0  0  0  0  0  0
    0.7340    0.3610    2.2200 O   0  0  0  0  0  0  0  0  0  0  0  0
    0.6460   -0.4840   -0.1210 C   0  0  1  0  0  0  0  0  0  0  0  0
    1.4220   -0.4780   -1.2650 O   0  0  0  0  0  0  0  0  0  0  0  0
    0.3030   -1.9190    0.1940 C   0  0  0  0  0  0  0  0  0  0  0  0
   -0.9310   -2.1280   -0.6700 C   0  0  0  0  0  0  0  0  0  0  0  0
   -1.1460   -0.9540   -1.3620 O   0  0  0  0  0  0  0  0  0  0  0  0
   -0.7140    0.0430   -0.4760 C   0  0  2  0  0  0  0  0  0  0  0  0
   -0.7250    1.4050   -1.0510 C   0  0  0  0  0  0  0  0  0  0  0  0
   -1.7950    2.1040   -0.2000 C   0  0  0  0  0  0  0  0  0  0  0  0
   -1.7400    1.4250    1.0380 O   0  0  0  0  0  0  0  0  0  0  0  0
   -1.6710    0.0990    0.6600 C   0  0  0  0  0  0  0  0  0  0  0  0
  1  2  1  0
  2  3  2  3
  3  4  1  0
  3  5  1  0
  5  6  1  6
  5  7  1  0
  5 10  1  0
  7  8  1  0
  8  9  1  0
  9 10  1  0
 10 11  1  6
 10 14  1  0
 11 12  1  0
 12 13  1  0
 13 14  1  0
M  END
