
     RDKit          3D

 13 13  0  0  0  0  0  0  0  0999 V2000
   -3.8650    1.1590   -0.4650 C   0  0  0  0  0  0  0  0  0  0  0  0
   -2.5470    1.3400    0.2500 C   0  0  0  0  0  0  0  0  0  0  0  0
   -1.9750    0.0290    0.6540 C   0  0  0  0  0  0  0  0  0  0  0  0
   -0.7900   -0.3440    0.1960 C   0  0  0  0  0  0  0  0  0  0  0  0
    0.0520    0.3290   -0.6480 O   0  0  0  0  0  0  0  0  0  0  0  0
    1.3560   -0.2020   -0.6300 C   0  0  1  0  0  0  0  0  0  0  0  0
    2.3380    0.8560   -0.3290 C   0  0  0  0  0  0  0  0  0  0  0  0
    1.9510    2.0280   -0.1340 O   0  0  0  0  0  0  0  0  0  0  0  0
    3.6780    0.5310   -0.2670 O   0  0  0  0  0  0  0  0  0  0  0  0
    4.5930    1.5360    0.0170 N   0  0  0  0  0  0  0  0  0  0  0  0
    1.3460   -1.1950    0.5220 C   0  0  0  0  0  0  0  0  0  0  0  0
   -0.1060   -1.6280    0.5220 C   0  0  2  0  0  0  0  0  0  0  0  0
   -0.2840   -2.5800   -0.5380 N   0  0  0  0  0  0  0  0  0  0  0  0
  1  2  1  0
  2  3  1  0
  3  4  2  3
  4  5  1  0
  4 12  1  0
  5  6  1  0
  6  7  1  1
  6 11  1  0
  7  8  2  0
  7  9  1  0
  9 10  1  0
 11 12  1  0
 12 13  1  6
M  END
