
     RDKit          3D

 14 14  0  0  0  0  0  0  0  0999 V2000
   -2.4650    2.7010    0.0330 N   0  0  0  0  0  0  0  0  0  0  0  0
   -1.2420    1.9300    0.0180 C   0  0  0  0  0  0  0  0  0  0  0  0
   -1.2570    0.6280    0.0110 C   0  0  0  0  0  0  0  0  0  0  0  0
   -2.5570    0.0310    0.0180 O   0  0  0  0  0  0  0  0  0  0  0  0
   -2.6620   -1.2750   -0.4750 C   0  0  0  0  0  0  0  0  0  0  0  0
   -1.6570   -2.1140    0.3190 C   0  0  0  0  0  0  0  0  0  0  0  0
   -0.3720   -1.6210   -0.0080 O   0  0  0  0  0  0  0  0  0  0  0  0
   -0.1070   -0.2250   -0.0030 C   0  0  0  0  0  0  0  0  0  0  0  0
    1.1120    0.2160   -0.0110 C   0  0  0  0  0  0  0  0  0  0  0  0
    1.4510    1.5390   -0.0070 O   0  0  0  0  0  0  0  0  0  0  0  0
    2.2870   -0.7220   -0.0250 C   0  0  2  0  0  0  0  0  0  0  0  0
    3.0470   -0.4320    1.1800 N   0  0  0  0  0  0  0  0  0  0  0  0
    3.1600   -0.5130   -1.1800 C   0  0  0  0  0  0  0  0  0  0  0  0
    4.3150   -0.1580   -1.0780 O   0  0  0  0  0  0  0  0  0  0  0  0
  1  2  1  0
  2  3  2  3
  3  4  1  0
  3  8  1  0
  4  5  1  0
  5  6  1  0
  6  7  1  0
  7  8  1  0
  8  9  2  3
  9 10  1  0
  9 11  1  0
 11 12  1  1
 11 13  1  0
 13 14  2  0
M  END
