
     RDKit          3D

 14 15  0  0  0  0  0  0  0  0999 V2000
    3.8660    2.0210   -0.2670 O   0  0  0  0  0  0  0  0  0  0  0  0
    2.9760    1.1360   -0.1230 C   0  0  0  0  0  0  0  0  0  0  0  0
    1.7020    1.4770   -0.3870 N   0  0  0  0  0  0  0  0  0  0  0  0
    0.7600    0.5510   -0.2370 C   0  0  0  0  0  0  0  0  0  0  0  0
    1.0340   -0.7320    0.1740 C   0  0  0  0  0  0  0  0  0  0  0  0
    2.3530   -1.0490    0.4370 C   0  0  0  0  0  0  0  0  0  0  0  0
    2.6630   -2.2000    0.8150 O   0  0  0  0  0  0  0  0  0  0  0  0
    3.3080   -0.1120    0.2860 N   0  0  0  0  0  0  0  0  0  0  0  0
   -0.0290   -1.7200    0.3270 C   0  0  0  0  0  0  0  0  0  0  0  0
   -1.2900   -1.2790    0.4210 O   0  0  0  0  0  0  0  0  0  0  0  0
   -1.5670    0.0290    0.3530 C   0  0  2  0  0  0  0  0  0  0  0  0
   -2.9730    0.2150   -0.2280 C   0  0  0  0  0  0  0  0  0  0  0  0
   -3.9270   -0.4000    0.5570 O   0  0  0  0  0  0  0  0  0  0  0  0
   -0.6650    0.8630   -0.5110 C   0  0  0  0  0  0  0  0  0  0  0  0
  1  2  2  0
  2  3  1  0
  2  8  1  0
  3  4  1  0
  4  5  2  0
  4 14  1  0
  5  6  1  0
  5  9  1  0
  6  7  2  0
  6  8  1  0
  9 10  1  0
 10 11  1  0
 11 12  1  6
 11 14  1  0
 12 13  1  0
M  END
