
     RDKit          3D

 14 14  0  0  0  0  0  0  0  0999 V2000
    3.5050   -0.1000    0.8420 C   0  0  0  0  0  0  0  0  0  0  0  0
    2.2780   -0.3840    0.0070 C   0  0  1  0  0  0  0  0  0  0  0  0
    1.7540   -1.6330    0.4310 O   0  0  0  0  0  0  0  0  0  0  0  0
    0.4440   -1.9820    0.2440 C   0  0  0  0  0  0  0  0  0  0  0  0
    0.1280   -3.1870    0.3030 O   0  0  0  0  0  0  0  0  0  0  0  0
   -0.5620   -0.9090   -0.0220 C   0  0  0  0  0  0  0  0  0  0  0  0
   -1.8020   -1.3000   -0.1940 C   0  0  0  0  0  0  0  0  0  0  0  0
   -2.1110   -2.7170   -0.1160 N   0  0  0  0  0  0  0  0  0  0  0  0
   -2.8920   -0.4580   -0.4530 N   0  0  0  0  0  0  0  0  0  0  0  0
   -0.0640    0.4360   -0.0620 C   0  0  0  0  0  0  0  0  0  0  0  0
   -0.8280    1.4810   -0.2860 C   0  0  0  0  0  0  0  0  0  0  0  0
   -0.2270    2.8630   -0.3120 C   0  0  0  0  0  0  0  0  0  0  0  0
   -0.8320    3.6260    0.6760 O   0  0  0  0  0  0  0  0  0  0  0  0
    1.3180    0.6240    0.1530 O   0  0  0  0  0  0  0  0  0  0  0  0
  2  1  1  1
  2  3  1  0
  2 14  1  0
  3  4  1  0
  4  5  2  0
  4  6  1  0
  6  7  2  3
  6 10  1  0
  7  8  1  0
  7  9  1  0
 10 11  2  3
 10 14  1  0
 11 12  1  0
 12 13  1  0
M  END
