
     RDKit          3D

 14 15  0  0  0  0  0  0  0  0999 V2000
   -2.9830    1.8180   -0.7840 N   0  0  0  0  0  0  0  0  0  0  0  0
   -2.2470    0.8920   -0.3000 C   0  0  0  0  0  0  0  0  0  0  0  0
   -2.6950   -0.4070   -0.3360 O   0  0  0  0  0  0  0  0  0  0  0  0
   -1.8000   -1.4820   -0.2950 C   0  0  0  0  0  0  0  0  0  0  0  0
   -0.6710   -1.2180    0.6500 C   0  0  0  0  0  0  0  0  0  0  0  0
    0.0270    0.0840    0.3240 C   0  0  2  0  0  0  0  0  0  0  0  0
    0.7370    0.0220   -1.0160 C   0  0  0  0  0  0  0  0  0  0  0  0
    1.9890   -0.8330   -0.9460 C   0  0  0  0  0  0  0  0  0  0  0  0
    2.8530   -0.2880    0.0770 N   0  0  0  0  0  0  0  0  0  0  0  0
    2.3010    0.4950    1.1130 C   0  0  0  0  0  0  0  0  0  0  0  0
    2.9900    1.3160    1.7960 O   0  0  0  0  0  0  0  0  0  0  0  0
    0.9410    0.3390    1.3760 O   0  0  0  0  0  0  0  0  0  0  0  0
   -0.9460    1.2220    0.2820 C   0  0  2  0  0  0  0  0  0  0  0  0
   -1.1530    1.7330    1.5700 O   0  0  0  0  0  0  0  0  0  0  0  0
  1  2  2  0
  2  3  1  0
  2 13  1  0
  3  4  1  0
  4  5  1  0
  6  5  1  1
  6  7  1  0
  6 12  1  0
  6 13  1  0
  7  8  1  0
  8  9  1  0
  9 10  1  0
 10 11  2  0
 10 12  1  0
 13 14  1  1
M  END
