
     RDKit          3D

 16 18  0  0  0  0  0  0  0  0999 V2000
    3.7360    0.2050   -0.8540 C   0  0  0  0  0  0  0  0  0  0  0  0
    2.9200    0.1570    0.3830 C   0  0  0  0  0  0  0  0  0  0  0  0
    3.4790    0.0340    1.5770 C   0  0  0  0  0  0  0  0  0  0  0  0
    2.4400    0.0150    2.6120 C   0  0  0  0  0  0  0  0  0  0  0  0
    1.1950    0.1500    1.7900 C   0  0  0  0  0  0  0  0  0  0  0  0
    1.4720    0.2320    0.5120 C   0  0  0  0  0  0  0  0  0  0  0  0
    0.5140    0.3670   -0.6410 C   0  0  1  0  0  0  0  0  0  0  0  0
    0.6380   -0.7940   -1.5040 N   0  0  0  0  0  0  0  0  0  0  0  0
   -0.2020   -0.5680   -2.6700 C   0  0  0  0  0  0  0  0  0  0  0  0
   -1.6690   -0.6430   -2.2960 C   0  0  0  0  0  0  0  0  0  0  0  0
   -1.8750   -0.2080   -0.9250 N   0  0  0  0  0  0  0  0  0  0  0  0
   -3.0750   -0.3680   -0.0890 C   0  0  0  0  0  0  0  0  0  0  0  0
   -2.9060    0.8170    0.8190 C   0  0  1  0  0  0  0  0  0  0  0  0
   -3.4560    0.5660    2.2020 C   0  0  0  0  0  0  0  0  0  0  0  0
   -1.4900    1.0410    0.8130 N   0  0  0  0  0  0  0  0  0  0  0  0
   -0.8940    0.4740   -0.1550 C   0  0  0  0  0  0  0  0  0  0  0  0
  1  2  1  0
  2  3  2  0
  2  6  1  0
  3  4  1  0
  4  5  1  0
  5  6  2  0
  7  6  1  1
  7  8  1  0
  7 16  1  0
  8  9  1  0
  9 10  1  0
 10 11  1  0
 11 12  1  0
 11 16  1  0
 12 13  1  0
 13 14  1  1
 13 15  1  0
 15 16  2  0
M  CHG  1   8   1
M  END
