
     RDKit          3D

 16 18  0  0  0  0  0  0  0  0999 V2000
    3.7160    0.4590   -1.5560 C   0  0  0  0  0  0  0  0  0  0  0  0
    2.5180    0.3630   -1.1090 N   0  0  0  0  0  0  0  0  0  0  0  0
    2.4870    0.2030    0.2940 C   0  0  0  0  0  0  0  0  0  0  0  0
    1.2640    0.0590    1.1650 C   0  0  2  0  0  0  0  0  0  0  0  0
    0.4630   -1.1370    0.7710 C   0  0  0  0  0  0  0  0  0  0  0  0
   -0.8200   -0.8940    0.2650 N   0  0  0  0  0  0  0  0  0  0  0  0
   -1.4070   -1.8040   -0.6100 C   0  0  0  0  0  0  0  0  0  0  0  0
   -2.8880   -1.6510   -0.7370 C   0  0  0  0  0  0  0  0  0  0  0  0
   -3.3820   -0.2700   -0.9050 C   0  0  0  0  0  0  0  0  0  0  0  0
   -2.3430    0.7930   -0.9950 C   0  0  0  0  0  0  0  0  0  0  0  0
   -1.7660    1.1850    0.3550 C   0  0  2  0  0  0  0  0  0  0  0  0
   -0.3040    1.5520    0.0870 C   0  0  0  0  0  0  0  0  0  0  0  0
    0.5580    1.3040    1.1840 N   0  0  0  0  0  0  0  0  0  0  0  0
   -1.6920   -0.1430    1.1140 C   0  0  0  0  0  0  0  0  0  0  0  0
    3.7220    0.2000    0.7450 C   0  0  0  0  0  0  0  0  0  0  0  0
    4.6290    0.3650   -0.4100 C   0  0  0  0  0  0  0  0  0  0  0  0
  1  2  2  0
  1 16  1  0
  2  3  1  0
  4  3  1  6
  3 15  2  0
  4  5  1  0
  4 13  1  0
  5  6  1  0
  6  7  1  0
  6 14  1  0
  7  8  1  0
  8  9  1  0
  9 10  1  0
 11 10  1  6
 11 12  1  0
 11 14  1  0
 12 13  1  0
 15 16  1  0
M  CHG  1  13   1
M  END
