
     RDKit          3D

 20 20  0  0  0  0  0  0  0  0999 V2000
    7.0080   -0.2960    1.0960 C   0  0  0  0  0  0  0  0  0  0  0  0
    5.8450   -0.4090    0.0970 C   0  0  0  0  0  0  0  0  0  0  0  0
    5.4050    0.9570   -0.3020 C   0  0  0  0  0  0  0  0  0  0  0  0
    4.2820    0.9460   -1.2880 C   0  0  0  0  0  0  0  0  0  0  0  0
    3.0840    0.2440   -0.6700 C   0  0  0  0  0  0  0  0  0  0  0  0
    1.9710    0.2720   -1.6950 C   0  0  0  0  0  0  0  0  0  0  0  0
    0.7650   -0.4140   -1.1710 C   0  0  0  0  0  0  0  0  0  0  0  0
    0.2330    0.2310    0.0740 C   0  0  0  0  0  0  0  0  0  0  0  0
   -0.9570   -0.5380    0.4620 N   0  0  0  0  0  0  0  0  0  0  0  0
   -2.1020    0.3530    0.3370 C   0  0  2  0  0  0  0  0  0  0  0  0
   -2.9390    0.3210    1.5630 C   0  0  0  0  0  0  0  0  0  0  0  0
   -4.1270   -0.2590    1.6450 C   0  0  0  0  0  0  0  0  0  0  0  0
   -4.9300   -0.2610    2.9100 C   0  0  0  0  0  0  0  0  0  0  0  0
   -6.1570    0.3880    2.6430 O   0  0  0  0  0  0  0  0  0  0  0  0
   -4.6520   -0.9220    0.4200 C   0  0  1  0  0  0  0  0  0  0  0  0
   -5.9990   -1.2040    0.5030 O   0  0  0  0  0  0  0  0  0  0  0  0
   -4.3450    0.0380   -0.7360 C   0  0  2  0  0  0  0  0  0  0  0  0
   -4.9540   -0.3460   -1.9050 O   0  0  0  0  0  0  0  0  0  0  0  0
   -2.8380    0.0010   -0.9080 C   0  0  1  0  0  0  0  0  0  0  0  0
   -2.4900    0.8550   -1.9370 O   0  0  0  0  0  0  0  0  0  0  0  0
  1  2  1  0
  2  3  1  0
  3  4  1  0
  4  5  1  0
  5  6  1  0
  6  7  1  0
  7  8  1  0
  8  9  1  0
 10  9  1  1
 10 11  1  0
 10 19  1  0
 11 12  2  0
 12 13  1  0
 12 15  1  0
 13 14  1  0
 15 16  1  1
 15 17  1  0
 17 18  1  6
 17 19  1  0
 19 20  1  6
M  CHG  1   9   1
M  END
