
     RDKit          3D

 16 19  0  0  0  0  0  0  0  0999 V2000
   -1.9780    2.8580    0.2920 C   0  0  0  0  0  0  0  0  0  0  0  0
   -2.4160    1.4790    0.8050 C   0  0  1  0  0  0  0  0  0  0  0  0
   -2.2960    0.3780   -0.1290 C   0  0  2  0  0  0  0  0  0  0  0  0
   -3.0210   -0.9270   -0.0460 C   0  0  0  0  0  0  0  0  0  0  0  0
   -2.0930   -2.0610   -0.0110 N   0  0  0  0  0  0  0  0  0  0  0  0
   -1.1000   -1.9930   -1.0350 C   0  0  0  0  0  0  0  0  0  0  0  0
    0.3140   -1.8420   -0.5290 C   0  0  0  0  0  0  0  0  0  0  0  0
    0.6010   -0.5600    0.0280 N   0  0  0  0  0  0  0  0  0  0  0  0
   -0.0500    0.4130    0.7130 C   0  0  0  0  0  0  0  0  0  0  0  0
    0.7900    1.4110    0.9600 N   0  0  0  0  0  0  0  0  0  0  0  0
    2.0070    1.0990    0.4350 C   0  0  0  0  0  0  0  0  0  0  0  0
    1.8690   -0.1430   -0.1460 C   0  0  0  0  0  0  0  0  0  0  0  0
    3.2020   -0.5250   -0.7410 C   0  0  0  0  0  0  0  0  0  0  0  0
    4.1680    0.2790    0.1410 C   0  0  0  0  0  0  0  0  0  0  0  0
    3.4020    1.5790    0.2530 C   0  0  0  0  0  0  0  0  0  0  0  0
   -1.4510    0.4660    1.1640 C   0  0  1  0  0  0  0  0  0  0  0  0
  2  1  1  6
  2  3  1  0
  2 16  1  0
  3  4  1  1
  3 16  1  0
  4  5  1  0
  5  6  1  0
  6  7  1  0
  7  8  1  0
  8  9  1  0
  8 12  1  0
  9 10  2  0
 16  9  1  6
 10 11  1  0
 11 12  2  0
 11 15  1  0
 12 13  1  0
 13 14  1  0
 14 15  1  0
M  CHG  1   5   1
M  END
