
     RDKit          3D

 16 18  0  0  0  0  0  0  0  0999 V2000
    4.1110   -0.5640    0.3870 C   0  0  0  0  0  0  0  0  0  0  0  0
    2.9790    0.0740    0.0870 C   0  0  0  0  0  0  0  0  0  0  0  0
    2.7770    1.5050   -0.0910 C   0  0  0  0  0  0  0  0  0  0  0  0
    3.6980    2.4110    0.0170 N   0  0  0  0  0  0  0  0  0  0  0  0
    1.3730    1.6620   -0.4020 C   0  0  0  0  0  0  0  0  0  0  0  0
    0.7500    0.5040   -0.4230 C   0  0  0  0  0  0  0  0  0  0  0  0
   -0.7010    0.2350   -0.7040 C   0  0  2  0  0  0  0  0  0  0  0  0
   -1.5560    1.1090    0.1530 C   0  0  1  0  0  0  0  0  0  0  0  0
   -1.7080    2.5100   -0.3840 C   0  0  0  0  0  0  0  0  0  0  0  0
   -2.9220    0.4200    0.2720 C   0  0  0  0  0  0  0  0  0  0  0  0
   -2.6920   -0.7430    1.2130 C   0  0  0  0  0  0  0  0  0  0  0  0
   -1.4700   -1.4960    0.7800 C   0  0  0  0  0  0  0  0  0  0  0  0
   -1.0200   -1.1380   -0.5440 N   0  0  2  0  0  0  0  0  0  0  0  0
    0.0480   -2.0380   -0.9250 C   0  0  0  0  0  0  0  0  0  0  0  0
    1.2700   -1.8910   -0.0860 C   0  0  0  0  0  0  0  0  0  0  0  0
    1.6910   -0.5060   -0.1290 N   0  0  0  0  0  0  0  0  0  0  0  0
  1  2  2  0
  2  3  1  0
  2 16  1  0
  3  4  2  0
  3  5  1  0
  5  6  2  0
  7  6  1  1
  6 16  1  0
  7  8  1  0
  7 13  1  0
  8  9  1  6
  8 10  1  0
 10 11  1  0
 11 12  1  0
 13 12  1  1
 13 14  1  0
 14 15  1  0
 15 16  1  0
M  CHG  1  13   1
M  END
