
     RDKit          3D

 16 18  0  0  0  0  0  0  0  0999 V2000
    4.6760    0.0710    0.5550 C   0  0  0  0  0  0  0  0  0  0  0  0
    3.4440   -0.3580    0.3060 C   0  0  0  0  0  0  0  0  0  0  0  0
    2.8840   -1.6900    0.6220 C   0  0  0  0  0  0  0  0  0  0  0  0
    1.4770   -1.8920    0.2290 C   0  0  0  0  0  0  0  0  0  0  0  0
    0.8010   -0.7690   -0.4180 C   0  0  0  0  0  0  0  0  0  0  0  0
   -0.5770   -0.9630   -0.8040 N   0  0  0  0  0  0  0  0  0  0  0  0
   -1.3700    0.1380   -1.1420 N   0  0  0  0  0  0  0  0  0  0  0  0
   -2.5110    0.3200   -0.5730 C   0  0  0  0  0  0  0  0  0  0  0  0
   -3.4590    1.4350   -0.8240 C   0  0  0  0  0  0  0  0  0  0  0  0
   -4.7010    1.1050   -0.0110 C   0  0  0  0  0  0  0  0  0  0  0  0
   -4.6000   -0.3920    0.1470 C   0  0  0  0  0  0  0  0  0  0  0  0
   -3.1140   -0.5590    0.4610 C   0  0  0  0  0  0  0  0  0  0  0  0
    1.3230    0.3820   -0.6780 N   0  0  0  0  0  0  0  0  0  0  0  0
    2.6690    0.6920   -0.3470 C   0  0  0  0  0  0  0  0  0  0  0  0
    3.4400    1.7690   -0.4960 C   0  0  0  0  0  0  0  0  0  0  0  0
    4.7660    1.4570    0.0630 C   0  0  0  0  0  0  0  0  0  0  0  0
  1  2  2  0
  1 16  1  0
  2  3  1  0
  2 14  1  0
  3  4  1  0
  4  5  1  0
  5  6  1  0
  5 13  2  0
  6  7  1  0
  7  8  2  3
  8  9  1  0
  8 12  1  0
  9 10  1  0
 10 11  1  0
 11 12  1  0
 13 14  1  0
 14 15  2  0
 15 16  1  0
M  CHG  1  13   1
M  END
