
     RDKit          3D

 13 13  0  0  0  0  0  0  0  0999 V2000
   -2.3680    0.8800    1.0480 O   0  0  0  0  0  0  0  0  0  0  0  0
   -2.2690    1.0140   -0.3380 C   0  0  0  0  0  0  0  0  0  0  0  0
   -0.8720    0.5410   -0.7160 C   0  0  1  0  0  0  0  0  0  0  0  0
    0.1430    1.3390   -0.0630 N   0  0  0  0  0  0  0  0  0  0  0  0
    1.3950    0.8460    0.3460 C   0  0  0  0  0  0  0  0  0  0  0  0
    2.4370    1.5680    0.4980 N   0  0  0  0  0  0  0  0  0  0  0  0
    2.4770    2.9060    0.2870 O   0  0  0  0  0  0  0  0  0  0  0  0
    1.5020   -0.6260    0.6180 C   0  0  2  0  0  0  0  0  0  0  0  0
    2.7950   -1.0630    0.6910 O   0  0  0  0  0  0  0  0  0  0  0  0
    0.6860   -1.3070   -0.4610 C   0  0  1  0  0  0  0  0  0  0  0  0
    0.8500   -2.6710   -0.4910 O   0  0  0  0  0  0  0  0  0  0  0  0
   -0.7480   -0.8820   -0.2270 C   0  0  2  0  0  0  0  0  0  0  0  0
   -1.6570   -1.7330   -0.8240 O   0  0  0  0  0  0  0  0  0  0  0  0
  1  2  1  0
  3  2  1  1
  3  4  1  0
  3 12  1  0
  4  5  1  0
  5  6  2  3
  5  8  1  0
  6  7  1  0
  8  9  1  6
  8 10  1  0
 10 11  1  1
 10 12  1  0
 12 13  1  6
M  END
