
     RDKit          3D

 22 23  0  0  0  0  0  0  0  0999 V2000
   -1.6890   -0.1320    2.3960 N   0  0  0  0  0  0  0  0  0  0  0  0
   -1.1150   -0.8860    1.3380 C   0  0  2  0  0  0  0  0  0  0  0  0
    0.0610   -1.6360    2.0170 C   0  0  0  0  0  0  0  0  0  0  0  0
    1.2010   -0.9270    1.7630 O   0  0  0  0  0  0  0  0  0  0  0  0
    0.8600    0.2100    1.0290 C   0  0  1  0  0  0  0  0  0  0  0  0
    2.0000    0.5710    0.1450 C   0  0  0  0  0  0  0  0  0  0  0  0
    2.3730   -0.5080   -0.8220 C   0  0  0  0  0  0  0  0  0  0  0  0
    3.4340   -0.2150   -1.6560 O   0  0  0  0  0  0  0  0  0  0  0  0
    4.5990    0.0330   -0.9570 C   0  0  0  0  0  0  0  0  0  0  0  0
    5.7180    0.3030   -1.9770 C   0  0  0  0  0  0  0  0  0  0  0  0
    5.3200    1.4100   -2.7170 O   0  0  0  0  0  0  0  0  0  0  0  0
   -0.3630   -0.1820    0.2910 C   0  0  2  0  0  0  0  0  0  0  0  0
   -1.0010    0.8810   -0.5260 C   0  0  2  0  0  0  0  0  0  0  0  0
   -1.1850    2.1920    0.1660 C   0  0  0  0  0  0  0  0  0  0  0  0
   -1.7690    3.1290   -0.6840 O   0  0  0  0  0  0  0  0  0  0  0  0
   -2.1800    0.3700   -1.2860 C   0  0  2  0  0  0  0  0  0  0  0  0
   -3.5230    0.8080   -0.8170 C   0  0  0  0  0  0  0  0  0  0  0  0
   -4.4620    0.2620   -1.7260 O   0  0  0  0  0  0  0  0  0  0  0  0
   -2.0570   -1.0230   -1.3410 O   0  0  0  0  0  0  0  0  0  0  0  0
   -2.7510   -1.7200   -0.4070 C   0  0  0  0  0  0  0  0  0  0  0  0
   -2.0300   -1.9730    0.8640 C   0  0  2  0  0  0  0  0  0  0  0  0
   -2.9940   -2.1570    1.8840 O   0  0  0  0  0  0  0  0  0  0  0  0
  2  1  1  1
  2  3  1  0
  2 12  1  0
  2 21  1  0
  3  4  1  0
  4  5  1  0
  5  6  1  6
 12  5  1  1
  6  7  1  0
  7  8  1  0
  8  9  1  0
  9 10  1  0
 10 11  1  0
 12 13  1  0
 13 14  1  1
 13 16  1  0
 14 15  1  0
 16 17  1  1
 16 19  1  0
 17 18  1  0
 19 20  1  0
 20 21  1  0
 21 22  1  1
M  CHG  1   1   1
M  END
