
     RDKit          3D

 22 22  0  0  0  0  0  0  0  0999 V2000
    5.0950   -0.7510    0.4210 C   0  0  0  0  0  0  0  0  0  0  0  0
    3.9460   -1.3610    0.8640 O   0  0  0  0  0  0  0  0  0  0  0  0
    3.0590   -1.6490   -0.1350 C   0  0  0  0  0  0  0  0  0  0  0  0
    2.3600   -0.5350   -0.8200 C   0  0  0  0  0  0  0  0  0  0  0  0
    1.4090    0.2780    0.0010 C   0  0  2  0  0  0  0  0  0  0  0  0
    2.1410    0.9370    1.1480 C   0  0  0  0  0  0  0  0  0  0  0  0
    3.1530    1.7890    0.7580 O   0  0  0  0  0  0  0  0  0  0  0  0
    0.3320   -0.5800    0.6260 C   0  0  0  0  0  0  0  0  0  0  0  0
   -0.4470   -1.4330   -0.2930 C   0  0  2  0  0  0  0  0  0  0  0  0
   -1.0860   -0.8220   -1.3390 O   0  0  0  0  0  0  0  0  0  0  0  0
   -1.4860   -2.2450    0.4430 C   0  0  1  0  0  0  0  0  0  0  0  0
   -0.8880   -3.1170    1.3230 O   0  0  0  0  0  0  0  0  0  0  0  0
   -2.5080   -1.4120    1.1630 C   0  0  2  0  0  0  0  0  0  0  0  0
   -3.2260   -2.3190    1.9830 O   0  0  0  0  0  0  0  0  0  0  0  0
   -3.5230   -0.7630    0.2600 C   0  0  0  0  0  0  0  0  0  0  0  0
   -3.6420    0.7250    0.4400 C   0  0  0  0  0  0  0  0  0  0  0  0
   -2.4770    1.4220    0.2470 O   0  0  0  0  0  0  0  0  0  0  0  0
   -2.5180    2.4080   -0.7090 C   0  0  0  0  0  0  0  0  0  0  0  0
   -1.1300    2.6570   -1.2570 C   0  0  2  0  0  0  0  0  0  0  0  0
   -0.9710    2.0370   -2.4980 O   0  0  0  0  0  0  0  0  0  0  0  0
   -0.0400    2.2140   -0.2730 C   0  0  0  0  0  0  0  0  0  0  0  0
    0.8380    1.2870   -0.8850 N   0  0  0  0  0  0  0  0  0  0  0  0
  1  2  1  0
  2  3  1  0
  3  4  1  0
  5  4  1  6
  5  6  1  0
  5  8  1  0
  5 22  1  0
  6  7  1  0
  8  9  1  0
  9 10  1  6
  9 11  1  0
 11 12  1  1
 11 13  1  0
 13 14  1  1
 13 15  1  0
 15 16  1  0
 16 17  1  0
 17 18  1  0
 18 19  1  0
 19 20  1  6
 19 21  1  0
 21 22  1  0
M  CHG  1  22   1
M  END
