
     RDKit          3D

 22 23  0  0  0  0  0  0  0  0999 V2000
    1.0150   -1.5590    2.5550 N   0  0  0  0  0  0  0  0  0  0  0  0
   -0.2350   -0.9850    2.0360 C   0  0  2  0  0  0  0  0  0  0  0  0
   -1.1990   -2.0960    1.6350 C   0  0  1  0  0  0  0  0  0  0  0  0
   -2.1250   -2.3750    2.6280 O   0  0  0  0  0  0  0  0  0  0  0  0
   -1.7800   -1.8820    0.2840 C   0  0  0  0  0  0  0  0  0  0  0  0
   -2.2400   -0.4390    0.0360 C   0  0  2  0  0  0  0  0  0  0  0  0
   -3.3650   -0.1930    1.0100 C   0  0  0  0  0  0  0  0  0  0  0  0
   -4.3680   -1.1200    0.8860 O   0  0  0  0  0  0  0  0  0  0  0  0
   -2.6030   -0.3990   -1.2690 O   0  0  0  0  0  0  0  0  0  0  0  0
   -3.0980    0.7290   -1.8090 C   0  0  0  0  0  0  0  0  0  0  0  0
   -3.4480    0.5450   -3.2940 C   0  0  0  0  0  0  0  0  0  0  0  0
   -2.2960    0.1850   -4.0110 O   0  0  0  0  0  0  0  0  0  0  0  0
   -1.1320    0.5410    0.2940 C   0  0  0  0  0  0  0  0  0  0  0  0
    0.0820   -0.2020    0.8220 C   0  0  1  0  0  0  0  0  0  0  0  0
    1.1870    0.6270    0.9180 O   0  0  0  0  0  0  0  0  0  0  0  0
    2.2060    0.3710    0.0640 C   0  0  1  0  0  0  0  0  0  0  0  0
    2.4540    1.6270   -0.7860 C   0  0  0  0  0  0  0  0  0  0  0  0
    3.6430    1.5390   -1.4870 O   0  0  0  0  0  0  0  0  0  0  0  0
    4.7540    1.5850   -0.6800 C   0  0  0  0  0  0  0  0  0  0  0  0
    4.4520    1.2920    0.7510 C   0  0  1  0  0  0  0  0  0  0  0  0
    4.0540    2.3760    1.4960 O   0  0  0  0  0  0  0  0  0  0  0  0
    3.4860    0.1240    0.8240 C   0  0  0  0  0  0  0  0  0  0  0  0
  2  1  1  6
  2  3  1  0
  2 14  1  0
  3  4  1  1
  3  5  1  0
  5  6  1  0
  6  7  1  1
  6  9  1  0
  6 13  1  0
  7  8  1  0
  9 10  1  0
 10 11  1  0
 11 12  1  0
 13 14  1  0
 14 15  1  1
 16 15  1  1
 16 17  1  0
 16 22  1  0
 17 18  1  0
 18 19  1  0
 19 20  1  0
 20 21  1  6
 20 22  1  0
M  CHG  1   1   1
M  END
