
     RDKit          3D

 23 23  0  0  0  0  0  0  0  0999 V2000
   -1.7150    1.5610    1.9910 C   0  0  0  0  0  0  0  0  0  0  0  0
   -1.7940    0.3960    0.9610 C   0  0  2  0  0  0  0  0  0  0  0  0
   -2.8820   -0.4770    1.4410 C   0  0  1  0  0  0  0  0  0  0  0  0
   -4.1560    0.2230    1.3220 N   0  0  0  0  0  0  0  0  0  0  0  0
   -2.9120   -1.8890    0.9940 C   0  0  0  0  0  0  0  0  0  0  0  0
   -3.0110   -2.1560   -0.4600 C   0  0  0  0  0  0  0  0  0  0  0  0
   -3.0500   -3.5650   -0.6600 O   0  0  0  0  0  0  0  0  0  0  0  0
   -0.5320   -0.1710    0.9780 O   0  0  0  0  0  0  0  0  0  0  0  0
    0.3100    0.6810    0.2860 C   0  0  1  0  0  0  0  0  0  0  0  0
    1.3660   -0.0810   -0.2190 O   0  0  0  0  0  0  0  0  0  0  0  0
    2.6000    0.3760    0.1680 C   0  0  2  0  0  0  0  0  0  0  0  0
    3.4400    0.8560   -0.9950 C   0  0  0  0  0  0  0  0  0  0  0  0
    3.7140   -0.2140   -2.0060 C   0  0  0  0  0  0  0  0  0  0  0  0
    4.4850    0.2570   -3.0660 O   0  0  0  0  0  0  0  0  0  0  0  0
    3.3600   -0.6120    1.0280 C   0  0  1  0  0  0  0  0  0  0  0  0
    4.5920   -0.0350    1.3530 O   0  0  0  0  0  0  0  0  0  0  0  0
    2.5720   -0.8100    2.3030 C   0  0  0  0  0  0  0  0  0  0  0  0
    3.2700   -1.6370    3.1990 O   0  0  0  0  0  0  0  0  0  0  0  0
   -0.5320    1.2420   -0.8070 C   0  0  1  0  0  0  0  0  0  0  0  0
   -0.2210    0.5860   -2.1220 C   0  0  0  0  0  0  0  0  0  0  0  0
   -1.0020    1.0900   -3.1550 O   0  0  0  0  0  0  0  0  0  0  0  0
   -1.9530    1.0690   -0.3510 C   0  0  2  0  0  0  0  0  0  0  0  0
   -2.5810    2.3410   -0.2050 O   0  0  0  0  0  0  0  0  0  0  0  0
  2  1  1  1
  2  3  1  0
  2  8  1  0
  2 22  1  0
  3  4  1  6
  3  5  1  0
  5  6  1  0
  6  7  1  0
  8  9  1  0
  9 10  1  6
  9 19  1  0
 10 11  1  0
 11 12  1  6
 11 15  1  0
 12 13  1  0
 13 14  1  0
 15 16  1  1
 15 17  1  0
 17 18  1  0
 19 20  1  6
 19 22  1  0
 20 21  1  0
 22 23  1  1
M  CHG  1   4   1
M  END
