
     RDKit          3D

 22 22  0  0  0  0  0  0  0  0999 V2000
    2.9790   -1.3990    1.2060 C   0  0  0  0  0  0  0  0  0  0  0  0
    2.4020   -1.5180   -0.1580 C   0  0  2  0  0  0  0  0  0  0  0  0
    2.1360   -0.2760   -0.9130 C   0  0  0  0  0  0  0  0  0  0  0  0
    1.9150    0.9930   -0.2080 C   0  0  1  0  0  0  0  0  0  0  0  0
    1.6920    0.9290    1.1540 O   0  0  0  0  0  0  0  0  0  0  0  0
    3.2320    1.8030   -0.3300 C   0  0  0  0  0  0  0  0  0  0  0  0
    2.9340    3.0490    0.2680 O   0  0  0  0  0  0  0  0  0  0  0  0
    0.9090    1.9270   -0.7880 C   0  0  0  0  0  0  0  0  0  0  0  0
   -0.4590    1.4470   -1.0320 C   0  0  2  0  0  0  0  0  0  0  0  0
   -1.0840    2.4950   -1.7720 O   0  0  0  0  0  0  0  0  0  0  0  0
   -1.2920    1.2870    0.1930 C   0  0  0  0  0  0  0  0  0  0  0  0
   -2.4940    0.4390    0.0910 C   0  0  1  0  0  0  0  0  0  0  0  0
   -3.5710    1.1310    0.8350 N   0  0  0  0  0  0  0  0  0  0  0  0
   -3.0530    0.1840   -1.2620 C   0  0  0  0  0  0  0  0  0  0  0  0
   -3.4210    1.3600   -1.9020 O   0  0  0  0  0  0  0  0  0  0  0  0
   -2.3460   -0.8860    0.8590 C   0  0  2  0  0  0  0  0  0  0  0  0
   -1.7990   -0.6250    2.0920 O   0  0  0  0  0  0  0  0  0  0  0  0
   -1.6810   -1.9540    0.0710 C   0  0  0  0  0  0  0  0  0  0  0  0
   -0.9180   -2.8330    0.8230 O   0  0  0  0  0  0  0  0  0  0  0  0
    0.3720   -2.3940    1.0410 C   0  0  0  0  0  0  0  0  0  0  0  0
    1.2190   -2.4910   -0.1780 C   0  0  2  0  0  0  0  0  0  0  0  0
    1.6780   -3.8270   -0.2520 O   0  0  0  0  0  0  0  0  0  0  0  0
  2  1  1  1
  2  3  1  0
  2 21  1  0
  3  4  1  0
  4  5  1  1
  4  6  1  0
  4  8  1  0
  6  7  1  0
  8  9  1  0
  9 10  1  6
  9 11  1  0
 11 12  1  0
 12 13  1  1
 12 14  1  0
 12 16  1  0
 14 15  1  0
 16 17  1  1
 16 18  1  0
 18 19  1  0
 19 20  1  0
 20 21  1  0
 21 22  1  1
M  CHG  1  13   1
M  END
