
     RDKit          3D

 22 22  0  0  0  0  0  0  0  0999 V2000
   -1.8370    3.5810    1.4220 N   0  0  0  0  0  0  0  0  0  0  0  0
   -1.5650    2.1460    1.2280 C   0  0  0  0  0  0  0  0  0  0  0  0
   -1.4720    1.9130   -0.2940 C   0  0  1  0  0  0  0  0  0  0  0  0
   -0.3860    2.7820   -0.6510 O   0  0  0  0  0  0  0  0  0  0  0  0
   -1.1270    0.5180   -0.6500 C   0  0  2  0  0  0  0  0  0  0  0  0
   -2.1760   -0.5140   -0.6550 C   0  0  0  0  0  0  0  0  0  0  0  0
   -2.9250   -0.8090    0.5840 C   0  0  2  0  0  0  0  0  0  0  0  0
   -2.0700   -1.2170    1.6410 O   0  0  0  0  0  0  0  0  0  0  0  0
   -3.7280   -2.1060    0.3170 C   0  0  0  0  0  0  0  0  0  0  0  0
   -4.6870   -1.9580   -0.8210 C   0  0  0  0  0  0  0  0  0  0  0  0
   -5.4090   -3.1640   -1.0120 O   0  0  0  0  0  0  0  0  0  0  0  0
   -0.0450    0.1030    0.0870 O   0  0  0  0  0  0  0  0  0  0  0  0
    1.1230   -0.1220   -0.6380 C   0  0  2  0  0  0  0  0  0  0  0  0
    1.5130   -1.5790   -0.6480 C   0  0  0  0  0  0  0  0  0  0  0  0
    2.9500   -1.6800   -1.1190 C   0  0  2  0  0  0  0  0  0  0  0  0
    3.3210   -2.9860   -1.3930 O   0  0  0  0  0  0  0  0  0  0  0  0
    3.7670   -1.1060    0.0500 C   0  0  0  0  0  0  0  0  0  0  0  0
    3.5370    0.3680   -0.0280 C   0  0  2  0  0  0  0  0  0  0  0  0
    4.2840    0.8250   -1.1420 O   0  0  0  0  0  0  0  0  0  0  0  0
    4.2270    1.0160    1.1800 C   0  0  0  0  0  0  0  0  0  0  0  0
    5.5660    0.6120    1.2590 O   0  0  0  0  0  0  0  0  0  0  0  0
    2.1370    0.8160   -0.1120 C   0  0  0  0  0  0  0  0  0  0  0  0
  1  2  1  0
  2  3  1  0
  3  4  1  1
  3  5  1  0
  5  6  1  1
  5 12  1  0
  6  7  1  0
  7  8  1  1
  7  9  1  0
  9 10  1  0
 10 11  1  0
 13 12  1  1
 13 14  1  0
 13 22  1  0
 14 15  1  0
 15 16  1  1
 15 17  1  0
 17 18  1  0
 18 19  1  6
 18 20  1  0
 18 22  1  0
 20 21  1  0
M  CHG  1   1   1
M  END
