
     RDKit          3D

 23 24  0  0  0  0  0  0  0  0999 V2000
   -2.5080    0.9870    4.2870 O   0  0  0  0  0  0  0  0  0  0  0  0
   -2.4890    0.9670    2.8930 C   0  0  0  0  0  0  0  0  0  0  0  0
   -1.7280   -0.2430    2.3800 C   0  0  0  0  0  0  0  0  0  0  0  0
   -1.6830   -0.3010    0.8930 C   0  0  2  0  0  0  0  0  0  0  0  0
   -1.0360    0.8620    0.3030 N   0  0  0  0  0  0  0  0  0  0  0  0
    0.0590    0.4760   -0.5220 C   0  0  1  0  0  0  0  0  0  0  0  0
    0.0110    1.1120   -1.9100 C   0  0  1  0  0  0  0  0  0  0  0  0
    0.3870    2.4610   -1.7060 O   0  0  0  0  0  0  0  0  0  0  0  0
    1.0000    0.4020   -2.7690 C   0  0  0  0  0  0  0  0  0  0  0  0
    2.2250   -0.0120   -2.0260 C   0  0  0  0  0  0  0  0  0  0  0  0
    2.4260    0.2140   -0.7650 C   0  0  0  0  0  0  0  0  0  0  0  0
    3.6500   -0.2240   -0.1160 C   0  0  0  0  0  0  0  0  0  0  0  0
    3.9250   -0.0120    1.2260 O   0  0  0  0  0  0  0  0  0  0  0  0
    4.5960   -0.8730   -0.8180 C   0  0  0  0  0  0  0  0  0  0  0  0
    5.7810   -1.2970   -0.1890 O   0  0  0  0  0  0  0  0  0  0  0  0
    4.3950   -1.1180   -2.1470 O   0  0  0  0  0  0  0  0  0  0  0  0
    3.2490   -0.7260   -2.8220 C   0  0  0  0  0  0  0  0  0  0  0  0
    1.4150    0.9240    0.0430 C   0  0  2  0  0  0  0  0  0  0  0  0
    1.5260    0.6850    1.3900 O   0  0  0  0  0  0  0  0  0  0  0  0
   -3.0500   -0.3960    0.2540 C   0  0  1  0  0  0  0  0  0  0  0  0
   -2.8460   -0.5490   -1.1380 O   0  0  0  0  0  0  0  0  0  0  0  0
   -3.7010   -1.6730    0.7310 C   0  0  0  0  0  0  0  0  0  0  0  0
   -2.8280   -2.7230    0.4490 O   0  0  0  0  0  0  0  0  0  0  0  0
  1  2  1  0
  2  3  1  0
  4  3  1  1
  4  5  1  0
  4 20  1  0
  6  5  1  1
  6  7  1  0
  6 18  1  0
  7  8  1  1
  7  9  1  0
  9 10  1  0
 10 11  2  0
 10 17  1  0
 11 12  1  0
 11 18  1  0
 12 13  1  0
 12 14  2  0
 14 15  1  0
 14 16  1  0
 16 17  1  0
 18 19  1  1
 20 21  1  6
 20 22  1  0
 22 23  1  0
M  CHG  1   5   1
M  END
