
     RDKit          3D

 19 20  0  0  0  0  0  0  0  0999 V2000
   -0.3820   -0.9640    1.1900 O   0  0  0  0  0  0  0  0  0  0  0  0
   -0.5710   -1.2330   -0.1490 C   0  0  1  0  0  0  0  0  0  0  0  0
   -0.8630    0.0200   -0.9370 C   0  0  0  0  0  0  0  0  0  0  0  0
   -1.9860    0.6490   -0.5170 O   0  0  0  0  0  0  0  0  0  0  0  0
   -3.1750   -0.0190   -0.5900 C   0  0  1  0  0  0  0  0  0  0  0  0
   -3.7620   -0.0450    0.8080 C   0  0  0  0  0  0  0  0  0  0  0  0
   -3.7800    1.3070    1.2240 O   0  0  0  0  0  0  0  0  0  0  0  0
   -4.6100    2.0520    0.3860 C   0  0  0  0  0  0  0  0  0  0  0  0
   -4.2440    2.0240   -0.9340 O   0  0  0  0  0  0  0  0  0  0  0  0
   -4.2130    0.7190   -1.4240 C   0  0  0  0  0  0  0  0  0  0  0  0
    0.6040   -1.9380   -0.7760 C   0  0  0  0  0  0  0  0  0  0  0  0
    1.8720   -1.1400   -0.6920 C   0  0  2  0  0  0  0  0  0  0  0  0
    2.9350   -1.8220   -1.2800 O   0  0  0  0  0  0  0  0  0  0  0  0
    2.2580   -0.8520    0.6370 O   0  0  0  0  0  0  0  0  0  0  0  0
    3.4250   -0.1150    0.8030 C   0  0  0  0  0  0  0  0  0  0  0  0
    4.6760   -0.5290    0.5990 C   0  0  0  0  0  0  0  0  0  0  0  0
    5.6350    0.5690    0.8910 C   0  0  0  0  0  0  0  0  0  0  0  0
    4.7590    1.6720    1.2920 C   0  0  0  0  0  0  0  0  0  0  0  0
    3.5100    1.2750    1.2390 C   0  0  0  0  0  0  0  0  0  0  0  0
  2  1  1  1
  2  3  1  0
  2 11  1  0
  3  4  1  0
  5  4  1  1
  5  6  1  0
  5 10  1  0
  6  7  1  0
  7  8  1  0
  8  9  1  0
  9 10  1  0
 11 12  1  0
 12 13  1  1
 12 14  1  0
 14 15  1  0
 15 16  2  0
 15 19  1  0
 16 17  1  0
 17 18  1  0
 18 19  2  0
M  END
