
     RDKit          3D

 19 20  0  0  0  0  0  0  0  0999 V2000
   -4.5120    1.7410    0.8710 C   0  0  0  0  0  0  0  0  0  0  0  0
   -3.1870    2.2080    0.9440 O   0  0  0  0  0  0  0  0  0  0  0  0
   -2.3690    1.2700    0.2210 C   0  0  0  0  0  0  0  0  0  0  0  0
   -2.5240    0.0970    0.8330 O   0  0  0  0  0  0  0  0  0  0  0  0
   -1.9580   -1.0590    0.4640 C   0  0  0  0  0  0  0  0  0  0  0  0
   -0.4580   -1.1670    0.3760 C   0  0  1  0  0  0  0  0  0  0  0  0
    0.0360   -0.7400    1.5890 O   0  0  0  0  0  0  0  0  0  0  0  0
   -0.2050   -2.7120    0.4180 C   0  0  0  0  0  0  0  0  0  0  0  0
   -0.6240   -3.3320   -0.7240 O   0  0  0  0  0  0  0  0  0  0  0  0
    0.1940   -0.5780   -0.7810 C   0  0  0  0  0  0  0  0  0  0  0  0
    1.6860   -0.6750   -0.9260 C   0  0  1  0  0  0  0  0  0  0  0  0
    2.0220    0.0070   -2.2370 C   0  0  0  0  0  0  0  0  0  0  0  0
    1.6010   -0.3770   -3.3490 O   0  0  0  0  0  0  0  0  0  0  0  0
    2.8380    1.0840   -2.0230 O   0  0  0  0  0  0  0  0  0  0  0  0
    3.1300    1.2260   -0.6780 C   0  0  0  0  0  0  0  0  0  0  0  0
    3.8160    1.9880    0.1480 C   0  0  0  0  0  0  0  0  0  0  0  0
    3.6140    1.4690    1.4890 C   0  0  0  0  0  0  0  0  0  0  0  0
    2.7450    0.2970    1.3100 C   0  0  0  0  0  0  0  0  0  0  0  0
    2.4290    0.1410    0.0390 C   0  0  0  0  0  0  0  0  0  0  0  0
  1  2  1  0
  2  3  1  0
  3  4  1  0
  4  5  1  0
  5  6  1  0
  6  7  1  1
  6  8  1  0
  6 10  1  0
  8  9  1  0
 11 10  1  1
 11 12  1  0
 11 19  1  0
 12 13  2  0
 12 14  1  0
 14 15  1  0
 15 16  2  0
 15 19  1  0
 16 17  1  0
 17 18  1  0
 18 19  2  0
M  END
