
     RDKit          3D

 19 20  0  0  0  0  0  0  0  0999 V2000
   -0.3330    1.2260   -2.2540 O   0  0  0  0  0  0  0  0  0  0  0  0
   -1.4080    0.6920   -1.7180 C   0  0  0  0  0  0  0  0  0  0  0  0
   -2.4610    0.4460   -2.5360 O   0  0  0  0  0  0  0  0  0  0  0  0
   -1.2810    0.4480   -0.3090 C   0  0  0  0  0  0  0  0  0  0  0  0
   -2.1700   -0.0480    0.4740 C   0  0  0  0  0  0  0  0  0  0  0  0
   -3.5340   -0.5220    0.3240 C   0  0  0  0  0  0  0  0  0  0  0  0
   -4.2480   -1.0380    1.3660 C   0  0  0  0  0  0  0  0  0  0  0  0
   -5.5830   -1.4300    0.9000 C   0  0  0  0  0  0  0  0  0  0  0  0
   -5.7100   -0.8350   -0.3190 O   0  0  0  0  0  0  0  0  0  0  0  0
   -4.4500   -0.5400   -0.8260 C   0  0  0  0  0  0  0  0  0  0  0  0
    0.0530    0.8180    0.3120 C   0  0  0  0  0  0  0  0  0  0  0  0
    0.2030    0.6240    1.5180 O   0  0  0  0  0  0  0  0  0  0  0  0
    1.0510    1.3480   -0.4410 O   0  0  0  0  0  0  0  0  0  0  0  0
    2.3160    1.7210    0.0450 C   0  0  0  0  0  0  0  0  0  0  0  0
    3.0710    0.5660    0.6560 C   0  0  1  0  0  0  0  0  0  0  0  0
    3.3730   -0.4110   -0.4640 C   0  0  0  0  0  0  0  0  0  0  0  0
    4.9050   -0.4340   -0.4840 C   0  0  0  0  0  0  0  0  0  0  0  0
    5.1940   -0.0330    0.9670 C   0  0  0  0  0  0  0  0  0  0  0  0
    4.3010    1.0490    1.1000 O   0  0  0  0  0  0  0  0  0  0  0  0
  1  2  2  0
  2  3  1  0
  2  4  1  0
  4  5  2  3
  4 11  1  0
  5  6  1  0
  6  7  2  0
  6 10  1  0
  7  8  1  0
  8  9  1  0
  9 10  1  0
 11 12  2  0
 11 13  1  0
 13 14  1  0
 15 14  1  6
 15 16  1  0
 15 19  1  0
 16 17  1  0
 17 18  1  0
 18 19  1  0
M  END
