
     RDKit          3D

 19 20  0  0  0  0  0  0  0  0999 V2000
    1.6260    1.7950   -0.5980 O   0  0  0  0  0  0  0  0  0  0  0  0
    2.1540    0.7010   -0.3380 C   0  0  0  0  0  0  0  0  0  0  0  0
    1.6670   -0.1140    0.6150 O   0  0  0  0  0  0  0  0  0  0  0  0
    0.6310   -0.0910    1.4820 C   0  0  0  0  0  0  0  0  0  0  0  0
   -0.7710   -0.0950    0.9930 C   0  0  2  0  0  0  0  0  0  0  0  0
   -1.1030    1.1090    0.1770 C   0  0  0  0  0  0  0  0  0  0  0  0
   -2.6210    1.3460    0.3000 C   0  0  0  0  0  0  0  0  0  0  0  0
   -3.3090    0.0170    0.2080 C   0  0  1  0  0  0  0  0  0  0  0  0
   -3.1000   -0.7450    1.5230 C   0  0  0  0  0  0  0  0  0  0  0  0
   -1.7810   -0.2830    2.1410 C   0  0  0  0  0  0  0  0  0  0  0  0
   -4.6910    0.1680    0.0370 O   0  0  0  0  0  0  0  0  0  0  0  0
   -5.0790   -0.9000   -0.7660 C   0  0  0  0  0  0  0  0  0  0  0  0
   -3.8930   -0.9460   -1.7390 C   0  0  0  0  0  0  0  0  0  0  0  0
   -2.8410   -0.6820   -0.8660 O   0  0  0  0  0  0  0  0  0  0  0  0
    3.3600    0.2960   -1.1120 C   0  0  1  0  0  0  0  0  0  0  0  0
    3.7010    1.2740   -2.0440 O   0  0  0  0  0  0  0  0  0  0  0  0
    4.5400    0.1210   -0.1750 C   0  0  0  0  0  0  0  0  0  0  0  0
    5.7740   -0.2860   -0.9140 C   0  0  0  0  0  0  0  0  0  0  0  0
    6.8060   -0.4270    0.0010 O   0  0  0  0  0  0  0  0  0  0  0  0
  1  2  2  0
  2  3  1  0
  2 15  1  0
  3  4  1  0
  5  4  1  1
  5  6  1  0
  5 10  1  0
  6  7  1  0
  8  7  1  1
  8  9  1  0
  8 11  1  0
  8 14  1  0
  9 10  1  0
 11 12  1  0
 12 13  1  0
 13 14  1  0
 15 16  1  6
 15 17  1  0
 17 18  1  0
 18 19  1  0
M  END
