
     RDKit          3D

 23 24  0  0  0  0  0  0  0  0999 V2000
    2.3280    1.2740    0.0970 O   0  0  0  0  0  0  0  0  0  0  0  0
    1.9230    0.2500   -0.5030 C   0  0  0  0  0  0  0  0  0  0  0  0
    2.7530   -0.7800   -0.9830 N   0  0  0  0  0  0  0  0  0  0  0  0
    4.1560   -0.7650   -0.8280 C   0  0  0  0  0  0  0  0  0  0  0  0
    4.9110   -1.6720   -1.5970 C   0  0  0  0  0  0  0  0  0  0  0  0
    6.2700   -1.7340   -1.4970 C   0  0  0  0  0  0  0  0  0  0  0  0
    6.9520   -0.8860   -0.6170 C   0  0  0  0  0  0  0  0  0  0  0  0
    8.6910   -0.9300   -0.4560 Cl  0  0  0  0  0  0  0  0  0  0  0  0
    6.2440    0.0070    0.1440 C   0  0  0  0  0  0  0  0  0  0  0  0
    4.8690    0.0460    0.0210 C   0  0  0  0  0  0  0  0  0  0  0  0
    0.5270    0.2000   -0.6690 O   0  0  0  0  0  0  0  0  0  0  0  0
   -0.2680    1.2070   -0.1980 N   0  0  0  0  0  0  0  0  0  0  0  0
   -1.5080    0.9730    0.0140 C   0  0  0  0  0  0  0  0  0  0  0  0
   -2.0480   -0.2950   -0.2320 N   0  0  0  0  0  0  0  0  0  0  0  0
   -3.2580   -0.7010    0.4310 C   0  0  2  0  0  0  0  0  0  0  0  0
   -3.8620   -1.9410   -0.1930 C   0  0  0  0  0  0  0  0  0  0  0  0
   -4.1800   -1.7280   -1.5330 O   0  0  0  0  0  0  0  0  0  0  0  0
   -4.2100    0.4680    0.3920 C   0  0  1  0  0  0  0  0  0  0  0  0
   -5.4840    0.1470    0.7780 O   0  0  0  0  0  0  0  0  0  0  0  0
   -3.5820    1.5610    1.2390 C   0  0  2  0  0  0  0  0  0  0  0  0
   -4.4890    2.5590    1.5330 O   0  0  0  0  0  0  0  0  0  0  0  0
   -2.3700    2.0620    0.5230 C   0  0  1  0  0  0  0  0  0  0  0  0
   -1.5670    2.8700    1.3540 O   0  0  0  0  0  0  0  0  0  0  0  0
  1  2  2  0
  2  3  1  0
  2 11  1  0
  3  4  1  0
  4  5  2  0
  4 10  1  0
  5  6  1  0
  6  7  2  0
  7  8  1  0
  7  9  1  0
  9 10  2  0
 11 12  1  0
 12 13  2  3
 13 14  1  0
 13 22  1  0
 14 15  1  0
 15 16  1  6
 15 18  1  0
 16 17  1  0
 18 19  1  1
 18 20  1  0
 20 21  1  6
 20 22  1  0
 22 23  1  1
M  END
