
     RDKit          3D

 19 20  0  0  0  0  0  0  0  0999 V2000
    5.4000    1.0290   -0.8100 C   0  0  0  0  0  0  0  0  0  0  0  0
    4.8170    0.0200   -1.5530 O   0  0  0  0  0  0  0  0  0  0  0  0
    4.5020   -1.0400   -0.7590 C   0  0  0  0  0  0  0  0  0  0  0  0
    3.5380   -0.6660    0.3160 C   0  0  0  0  0  0  0  0  0  0  0  0
    2.2950   -0.1460   -0.2870 C   0  0  0  0  0  0  0  0  0  0  0  0
    2.1720   -0.0710   -1.5250 O   0  0  0  0  0  0  0  0  0  0  0  0
    1.2630    0.2610    0.5120 O   0  0  0  0  0  0  0  0  0  0  0  0
    0.0770    0.7580   -0.0390 C   0  0  2  0  0  0  0  0  0  0  0  0
    0.2900    1.8930   -0.8200 O   0  0  0  0  0  0  0  0  0  0  0  0
   -0.8480    1.0970    1.1090 C   0  0  0  0  0  0  0  0  0  0  0  0
   -2.2440    0.8750    0.6500 C   0  0  2  0  0  0  0  0  0  0  0  0
   -3.0940    0.1790    1.7140 C   0  0  0  0  0  0  0  0  0  0  0  0
   -4.4910    0.0710    1.1520 C   0  0  0  0  0  0  0  0  0  0  0  0
   -4.5310   -0.4330   -0.2580 C   0  0  0  0  0  0  0  0  0  0  0  0
   -3.1990   -0.7320   -0.8340 C   0  0  0  0  0  0  0  0  0  0  0  0
   -3.0550   -1.6870   -1.8560 O   0  0  0  0  0  0  0  0  0  0  0  0
   -2.0800   -0.1380   -0.4370 C   0  0  0  0  0  0  0  0  0  0  0  0
   -0.6790   -0.2400   -0.8240 C   0  0  0  0  0  0  0  0  0  0  0  0
   -0.2660   -1.0580   -1.6820 O   0  0  0  0  0  0  0  0  0  0  0  0
  1  2  1  0
  2  3  1  0
  3  4  1  0
  4  5  1  0
  5  6  2  0
  5  7  1  0
  7  8  1  0
  8  9  1  6
  8 10  1  0
  8 18  1  0
 11 10  1  1
 11 12  1  0
 11 17  1  0
 12 13  1  0
 13 14  1  0
 14 15  1  0
 15 16  1  0
 15 17  2  0
 17 18  1  0
 18 19  2  0
M  END
