
     RDKit          3D

 20 22  0  0  0  0  0  0  0  0999 V2000
    4.5370   -0.5490   -2.9180 C   0  0  0  0  0  0  0  0  0  0  0  0
    3.9880   -0.3040   -1.5050 C   0  0  0  0  0  0  0  0  0  0  0  0
    2.4950   -0.1340   -1.7030 C   0  0  0  0  0  0  0  0  0  0  0  0
    1.7590    0.1020   -0.4180 C   0  0  1  0  0  0  0  0  0  0  0  0
    2.2280    1.3470    0.2970 C   0  0  0  0  0  0  0  0  0  0  0  0
    0.3060    0.0720   -0.6340 C   0  0  0  0  0  0  0  0  0  0  0  0
   -0.2300    0.1380   -1.8490 N   0  0  0  0  0  0  0  0  0  0  0  0
   -1.5380    0.1340   -2.1500 C   0  0  0  0  0  0  0  0  0  0  0  0
   -1.9560    0.2160   -3.3500 N   0  0  0  0  0  0  0  0  0  0  0  0
   -2.4010    0.0490   -1.0590 C   0  0  0  0  0  0  0  0  0  0  0  0
   -1.9580   -0.0250    0.2410 C   0  0  0  0  0  0  0  0  0  0  0  0
   -0.5860   -0.0130    0.4470 C   0  0  0  0  0  0  0  0  0  0  0  0
   -0.4000   -0.1000    1.7640 N   0  0  0  0  0  0  0  0  0  0  0  0
   -1.5860   -0.1670    2.4120 C   0  0  0  0  0  0  0  0  0  0  0  0
   -1.9920   -0.2720    3.7260 C   0  0  0  0  0  0  0  0  0  0  0  0
   -3.3110   -0.3270    4.0870 C   0  0  0  0  0  0  0  0  0  0  0  0
   -3.6800   -0.4330    5.4290 O   0  0  0  0  0  0  0  0  0  0  0  0
   -4.3110   -0.2800    3.1480 C   0  0  0  0  0  0  0  0  0  0  0  0
   -3.9240   -0.1740    1.8120 C   0  0  0  0  0  0  0  0  0  0  0  0
   -2.5990   -0.1210    1.4730 C   0  0  0  0  0  0  0  0  0  0  0  0
  1  2  1  0
  2  3  1  0
  3  4  1  0
  4  5  1  6
  4  6  1  0
  6  7  1  0
  6 12  2  0
  7  8  1  0
  8  9  2  0
  8 10  1  0
 10 11  2  0
 11 12  1  0
 11 20  1  0
 12 13  1  0
 13 14  1  0
 14 15  2  0
 14 20  1  0
 15 16  1  0
 16 17  1  0
 16 18  2  0
 18 19  1  0
 19 20  2  0
M  CHG  1   9   1
M  END
