
     RDKit          3D

 21 23  0  0  0  0  0  0  0  0999 V2000
   -4.5710    1.0380   -1.0310 C   0  0  0  0  0  0  0  0  0  0  0  0
   -4.1480    0.6450    0.3550 C   0  0  1  0  0  0  0  0  0  0  0  0
   -4.3110    1.7630    1.1820 O   0  0  0  0  0  0  0  0  0  0  0  0
   -4.9870   -0.4780    0.9140 C   0  0  0  0  0  0  0  0  0  0  0  0
   -6.8390    0.1220    0.9700 Br  0  0  0  0  0  0  0  0  0  0  0  0
   -2.7110    0.3210    0.3420 C   0  0  0  0  0  0  0  0  0  0  0  0
   -1.7400    1.2320   -0.0260 C   0  0  0  0  0  0  0  0  0  0  0  0
   -0.5160    0.6370    0.0640 C   0  0  0  0  0  0  0  0  0  0  0  0
    0.7470    1.1090   -0.1880 C   0  0  0  0  0  0  0  0  0  0  0  0
    1.8210    0.2820   -0.0120 C   0  0  0  0  0  0  0  0  0  0  0  0
    3.0880    0.7890   -0.2760 C   0  0  0  0  0  0  0  0  0  0  0  0
    4.1740   -0.0430   -0.0990 C   0  0  0  0  0  0  0  0  0  0  0  0
    5.5100    0.4050   -0.3500 C   0  0  0  0  0  0  0  0  0  0  0  0
    5.7860    1.5850   -0.7480 N   0  0  0  0  0  0  0  0  0  0  0  0
    3.9980   -1.3580    0.3340 C   0  0  0  0  0  0  0  0  0  0  0  0
    5.1390   -2.1880    0.5060 N   0  0  0  0  0  0  0  0  0  0  0  0
    2.7230   -1.8170    0.5830 C   0  0  0  0  0  0  0  0  0  0  0  0
    1.6180   -1.0050    0.4140 C   0  0  0  0  0  0  0  0  0  0  0  0
    0.3440   -1.5030    0.6760 C   0  0  0  0  0  0  0  0  0  0  0  0
   -0.7490   -0.6510    0.4930 C   0  0  0  0  0  0  0  0  0  0  0  0
   -2.0680   -0.8140    0.6520 N   0  0  0  0  0  0  0  0  0  0  0  0
  2  1  1  6
  2  3  1  0
  2  4  1  0
  2  6  1  0
  4  5  1  0
  6  7  2  0
  6 21  1  0
  7  8  1  0
  8  9  2  0
  8 20  1  0
  9 10  1  0
 10 11  2  0
 10 18  1  0
 11 12  1  0
 12 13  1  0
 12 15  2  0
 13 14  2  0
 15 16  1  0
 15 17  1  0
 17 18  2  0
 18 19  1  0
 19 20  2  0
 20 21  1  0
M  END
