
     RDKit          3D

 21 23  0  0  0  0  0  0  0  0999 V2000
   -1.0150   -2.4480    1.5540 C   0  0  0  0  0  0  0  0  0  0  0  0
   -0.1750   -1.4130    0.8700 C   0  0  0  0  0  0  0  0  0  0  0  0
    1.1490   -1.2010    1.1240 C   0  0  0  0  0  0  0  0  0  0  0  0
    1.5730   -0.1820    0.2610 C   0  0  0  0  0  0  0  0  0  0  0  0
    2.9130    0.3590    0.2310 C   0  0  0  0  0  0  0  0  0  0  0  0
    3.7410    0.0860    1.3280 C   0  0  0  0  0  0  0  0  0  0  0  0
    5.0280    0.5890    1.4340 C   0  0  0  0  0  0  0  0  0  0  0  0
    5.5210    1.3880    0.4310 C   0  0  0  0  0  0  0  0  0  0  0  0
    4.6990    1.6430   -0.6310 C   0  0  0  0  0  0  0  0  0  0  0  0
    5.1360    2.3710   -1.5540 O   0  0  0  0  0  0  0  0  0  0  0  0
    3.4270    1.1250   -0.7030 N   0  0  0  0  0  0  0  0  0  0  0  0
    0.4410    0.1400   -0.4490 C   0  0  0  0  0  0  0  0  0  0  0  0
    0.3710    1.2950   -1.4070 C   0  0  0  0  0  0  0  0  0  0  0  0
   -0.6360   -0.5930   -0.1040 N   0  0  0  0  0  0  0  0  0  0  0  0
   -1.9730   -0.4640   -0.5430 C   0  0  0  0  0  0  0  0  0  0  0  0
   -2.9940   -0.6380    0.3230 C   0  0  0  0  0  0  0  0  0  0  0  0
   -4.2480   -0.4570   -0.4040 C   0  0  1  0  0  0  0  0  0  0  0  0
   -5.0080    0.6240    0.1970 N   0  0  0  0  0  0  0  0  0  0  0  0
   -3.8860   -0.2080   -1.7900 C   0  0  0  0  0  0  0  0  0  0  0  0
   -2.5310   -0.2150   -1.8350 C   0  0  0  0  0  0  0  0  0  0  0  0
   -1.6040   -0.0310   -3.5110 Br  0  0  0  0  0  0  0  0  0  0  0  0
  1  2  1  0
  2  3  2  0
  2 14  1  0
  3  4  1  0
  4  5  1  0
  4 12  2  0
  5  6  2  0
  5 11  1  0
  6  7  1  0
  7  8  2  0
  8  9  1  0
  9 10  2  0
  9 11  1  0
 12 13  1  0
 12 14  1  0
 14 15  1  0
 15 16  2  0
 15 20  1  0
 16 17  1  0
 17 18  1  1
 17 19  1  0
 19 20  2  0
 20 21  1  0
M  CHG  1  18   1
M  END
