
     RDKit          3D

 13 13  0  0  0  0  0  0  0  0999 V2000
   -3.7380    1.7050    1.1720 C   0  0  0  0  0  0  0  0  0  0  0  0
   -2.4040    1.3720    0.6700 C   0  0  0  0  0  0  0  0  0  0  0  0
   -2.0300    0.2090    0.1750 C   0  0  0  0  0  0  0  0  0  0  0  0
   -2.8530   -0.9870    0.0250 C   0  0  0  0  0  0  0  0  0  0  0  0
   -4.1050   -1.1300    0.0430 N   0  0  0  0  0  0  0  0  0  0  0  0
   -1.8480   -2.0940   -0.1650 C   0  0  0  0  0  0  0  0  0  0  0  0
   -0.8320   -1.3640   -1.0630 C   0  0  0  0  0  0  0  0  0  0  0  0
   -0.6620   -0.0980   -0.3170 C   0  0  0  0  0  0  0  0  0  0  0  0
    0.3780    0.6550   -0.0770 C   0  0  0  0  0  0  0  0  0  0  0  0
    1.7180    0.4940   -0.4720 N   0  0  0  0  0  0  0  0  0  0  0  0
    2.5260   -0.6730   -0.2570 C   0  0  0  0  0  0  0  0  0  0  0  0
    3.9770   -0.3050   -0.6030 C   0  0  0  0  0  0  0  0  0  0  0  0
    4.4020    0.8220    0.3170 C   0  0  0  0  0  0  0  0  0  0  0  0
  1  2  1  0
  2  3  2  3
  3  4  1  0
  3  8  1  0
  4  5  2  0
  4  6  1  0
  6  7  1  0
  7  8  1  0
  8  9  2  3
  9 10  1  0
 10 11  1  0
 11 12  1  0
 12 13  1  0
M  END
