
     RDKit          3D

 22 24  0  0  0  0  0  0  0  0999 V2000
    5.5480    1.7740   -2.7470 O   0  0  0  0  0  0  0  0  0  0  0  0
    4.6370    1.2430   -2.0500 C   0  0  0  0  0  0  0  0  0  0  0  0
    4.0400    1.9380   -1.0170 C   0  0  0  0  0  0  0  0  0  0  0  0
    3.0400    1.3210   -0.2700 C   0  0  0  0  0  0  0  0  0  0  0  0
    2.6380    0.0650   -0.5270 N   0  0  0  0  0  0  0  0  0  0  0  0
    1.6160   -0.5820    0.2280 C   0  0  2  0  0  0  0  0  0  0  0  0
    0.5510    0.2650    0.5100 O   0  0  0  0  0  0  0  0  0  0  0  0
   -0.1700   -0.2860    1.5340 C   0  0  1  0  0  0  0  0  0  0  0  0
   -1.3310   -1.0980    1.0410 C   0  0  0  0  0  0  0  0  0  0  0  0
   -2.2870   -0.3850    0.2660 N   0  0  2  0  0  0  0  0  0  0  0  0
   -1.8560   -0.2140   -1.1300 C   0  0  0  0  0  0  0  0  0  0  0  0
   -3.0450    0.1920   -1.9610 C   0  0  0  0  0  0  0  0  0  0  0  0
   -4.2690    0.4340   -1.1050 C   0  0  0  0  0  0  0  0  0  0  0  0
   -3.9770    1.2870    0.0920 C   0  0  0  0  0  0  0  0  0  0  0  0
   -2.7150    0.8660    0.8230 C   0  0  0  0  0  0  0  0  0  0  0  0
    0.7520   -1.2270    2.2880 C   0  0  2  0  0  0  0  0  0  0  0  0
    0.7740   -0.9410    3.6480 O   0  0  0  0  0  0  0  0  0  0  0  0
    2.0830   -0.9470    1.6290 C   0  0  1  0  0  0  0  0  0  0  0  0
    2.9130   -2.0460    1.6260 O   0  0  0  0  0  0  0  0  0  0  0  0
    3.2400   -0.5850   -1.5400 C   0  0  0  0  0  0  0  0  0  0  0  0
    2.8860   -1.7580   -1.8030 O   0  0  0  0  0  0  0  0  0  0  0  0
    4.2170   -0.0060   -2.2830 N   0  0  0  0  0  0  0  0  0  0  0  0
  1  2  2  0
  2  3  1  0
  2 22  1  0
  3  4  2  0
  4  5  1  0
  6  5  1  6
  5 20  1  0
  6  7  1  0
  6 18  1  0
  7  8  1  0
  8  9  1  6
  8 16  1  0
 10  9  1  1
 10 11  1  0
 10 15  1  0
 11 12  1  0
 12 13  1  0
 13 14  1  0
 14 15  1  0
 16 17  1  1
 16 18  1  0
 18 19  1  6
 20 21  2  0
 20 22  1  0
M  CHG  1  10   1
M  END
