
     RDKit          3D

 20 22  0  0  0  0  0  0  0  0999 V2000
   -4.4870   -1.4430    0.2630 C   0  0  0  0  0  0  0  0  0  0  0  0
   -4.1030   -0.4680   -0.8020 C   0  0  0  0  0  0  0  0  0  0  0  0
   -2.9770    0.4160   -0.4110 C   0  0  0  0  0  0  0  0  0  0  0  0
   -3.2100    1.7390   -0.0720 C   0  0  0  0  0  0  0  0  0  0  0  0
   -2.1550    2.5520    0.2840 C   0  0  0  0  0  0  0  0  0  0  0  0
   -2.5710    4.3640    0.7380 Br  0  0  0  0  0  0  0  0  0  0  0  0
   -0.8490    2.0760    0.3120 C   0  0  0  0  0  0  0  0  0  0  0  0
   -0.6430    0.7610   -0.0280 C   0  0  0  0  0  0  0  0  0  0  0  0
   -1.7000   -0.0650   -0.3870 C   0  0  0  0  0  0  0  0  0  0  0  0
   -1.4790   -1.3510   -0.7150 N   0  0  0  0  0  0  0  0  0  0  0  0
   -0.2420   -1.8810   -0.7080 C   0  0  0  0  0  0  0  0  0  0  0  0
   -0.0520   -3.0900   -1.0190 O   0  0  0  0  0  0  0  0  0  0  0  0
    0.8460   -1.1080   -0.3600 C   0  0  0  0  0  0  0  0  0  0  0  0
    2.1740   -1.3870   -0.2690 N   0  0  0  0  0  0  0  0  0  0  0  0
    2.7820   -0.2770    0.1150 C   0  0  0  0  0  0  0  0  0  0  0  0
    4.2470   -0.1440    0.3360 C   0  0  0  0  0  0  0  0  0  0  0  0
    4.9350   -1.3870    0.0810 N   0  0  0  0  0  0  0  0  0  0  0  0
    1.8600    0.7650    0.2860 C   0  0  0  0  0  0  0  0  0  0  0  0
    2.2030    2.1190    0.7040 C   0  0  0  0  0  0  0  0  0  0  0  0
    0.6280    0.2260   -0.0180 C   0  0  0  0  0  0  0  0  0  0  0  0
  1  2  1  0
  2  3  1  0
  3  4  2  0
  3  9  1  0
  4  5  1  0
  5  6  1  0
  5  7  2  0
  7  8  1  0
  8  9  2  0
  8 20  1  0
  9 10  1  0
 10 11  1  0
 11 12  2  0
 11 13  1  0
 13 14  1  0
 13 20  2  0
 14 15  1  0
 15 16  1  0
 15 18  2  0
 16 17  1  0
 18 19  1  0
 18 20  1  0
M  CHG  1  17   1
M  END
