
     RDKit          3D

 21 22  0  0  0  0  0  0  0  0999 V2000
    4.2810    1.2940   -1.5050 C   0  0  0  0  0  0  0  0  0  0  0  0
    3.3810    0.3780   -1.1370 C   0  0  0  0  0  0  0  0  0  0  0  0
    3.5740   -0.5520   -0.0230 C   0  0  0  0  0  0  0  0  0  0  0  0
    2.5750   -0.4460    1.0920 C   0  0  0  0  0  0  0  0  0  0  0  0
    1.2080   -0.6760    0.6830 N   0  0  0  0  0  0  0  0  0  0  0  0
    0.3600    0.2850    0.2890 C   0  0  0  0  0  0  0  0  0  0  0  0
   -0.9380   -0.0270   -0.0960 C   0  0  0  0  0  0  0  0  0  0  0  0
   -1.4250   -1.3350   -0.0930 C   0  0  0  0  0  0  0  0  0  0  0  0
   -2.8100   -1.5340   -0.5070 C   0  0  0  0  0  0  0  0  0  0  0  0
   -3.3200   -2.8510   -0.5300 N   0  0  0  0  0  0  0  0  0  0  0  0
   -0.5360   -2.2940    0.3130 C   0  0  0  0  0  0  0  0  0  0  0  0
   -0.9650   -3.6550    0.3420 N   0  0  0  0  0  0  0  0  0  0  0  0
    0.7510   -1.9570    0.6910 C   0  0  0  0  0  0  0  0  0  0  0  0
    1.5010   -2.9110    1.0520 O   0  0  0  0  0  0  0  0  0  0  0  0
   -1.8560    1.0450   -0.5340 C   0  0  0  0  0  0  0  0  0  0  0  0
   -1.5870    2.3310    0.1600 C   0  0  0  0  0  0  0  0  0  0  0  0
   -2.5610    3.2010    0.2670 C   0  0  0  0  0  0  0  0  0  0  0  0
   -4.3050    2.8170   -0.4600 Br  0  0  0  0  0  0  0  0  0  0  0  0
   -0.2790    2.6150    0.7020 C   0  0  0  0  0  0  0  0  0  0  0  0
   -0.0370    3.5900    1.5040 C   0  0  0  0  0  0  0  0  0  0  0  0
    0.8390    1.6910    0.2810 C   0  0  0  0  0  0  0  0  0  0  0  0
  1  2  2  0
  2  3  1  0
  3  4  1  0
  4  5  1  0
  5  6  1  0
  5 13  1  0
  6  7  2  0
  6 21  1  0
  7  8  1  0
  7 15  1  0
  8  9  1  0
  8 11  2  0
  9 10  1  0
 11 12  1  0
 11 13  1  0
 13 14  2  0
 15 16  1  0
 16 17  2  3
 16 19  1  0
 17 18  1  0
 19 20  2  0
 19 21  1  0
M  CHG  1  10   1
M  END
