
     RDKit          3D

 21 23  0  0  0  0  0  0  0  0999 V2000
   -5.5220   -0.1480   -4.1580 N   0  0  0  0  0  0  0  0  0  0  0  0
   -4.8990   -0.3810   -3.1890 C   0  0  0  0  0  0  0  0  0  0  0  0
   -4.1460   -0.6850   -2.0300 C   0  0  0  0  0  0  0  0  0  0  0  0
   -2.8050   -0.3820   -1.9620 C   0  0  0  0  0  0  0  0  0  0  0  0
   -2.0900   -0.6840   -0.8250 C   0  0  0  0  0  0  0  0  0  0  0  0
   -0.6670   -0.3950   -0.6770 C   0  0  0  0  0  0  0  0  0  0  0  0
    0.1210   -0.4420   -1.8000 C   0  0  0  0  0  0  0  0  0  0  0  0
    1.4700   -0.1650   -1.6580 C   0  0  0  0  0  0  0  0  0  0  0  0
    2.0420    0.1520   -0.4400 C   0  0  0  0  0  0  0  0  0  0  0  0
    1.2420    0.1970    0.6800 C   0  0  0  0  0  0  0  0  0  0  0  0
   -0.0960   -0.0790    0.5330 C   0  0  0  0  0  0  0  0  0  0  0  0
    2.1330    0.5610    1.8110 C   0  0  0  0  0  0  0  0  0  0  0  0
    3.2080    1.3260    1.0680 C   0  0  1  0  0  0  0  0  0  0  0  0
    4.4650    1.4920    1.8470 C   0  0  0  0  0  0  0  0  0  0  0  0
    5.4620    2.0720    0.9380 N   0  0  0  0  0  0  0  0  0  0  0  0
    3.3680    0.4650   -0.0680 O   0  0  0  0  0  0  0  0  0  0  0  0
   -2.7600   -1.2940    0.2310 C   0  0  0  0  0  0  0  0  0  0  0  0
   -4.0970   -1.5990    0.1700 C   0  0  0  0  0  0  0  0  0  0  0  0
   -4.7380   -2.2200    1.2710 N   0  0  0  0  0  0  0  0  0  0  0  0
   -4.7840   -1.2900   -0.9680 C   0  0  0  0  0  0  0  0  0  0  0  0
   -6.6550   -1.6900   -1.1180 Br  0  0  0  0  0  0  0  0  0  0  0  0
  1  2  3  0
  2  3  1  0
  3  4  2  0
  3 20  1  0
  4  5  1  0
  5  6  1  0
  5 17  2  0
  6  7  2  0
  6 11  1  0
  7  8  1  0
  8  9  2  0
  9 10  1  0
  9 16  1  0
 10 11  2  0
 10 12  1  0
 12 13  1  0
 13 14  1  1
 13 16  1  0
 14 15  1  0
 17 18  1  0
 18 19  1  0
 18 20  2  0
 20 21  1  0
M  CHG  1  15   1
M  END
