
     RDKit          3D

 21 23  0  0  0  0  0  0  0  0999 V2000
   -1.2820    0.1330   -1.6030 O   0  0  0  0  0  0  0  0  0  0  0  0
   -1.1460   -0.7550   -0.7530 C   0  0  0  0  0  0  0  0  0  0  0  0
    0.0840   -0.8130   -0.0150 N   0  0  0  0  0  0  0  0  0  0  0  0
    1.1230    0.0810   -0.2130 N   0  0  0  0  0  0  0  0  0  0  0  0
    1.0250    1.4840   -0.4360 C   0  0  0  0  0  0  0  0  0  0  0  0
   -0.0120    2.1780   -0.5370 O   0  0  0  0  0  0  0  0  0  0  0  0
    2.3860    2.0060   -0.5340 C   0  0  0  0  0  0  0  0  0  0  0  0
    3.2480    1.0500   -0.3930 C   0  0  0  0  0  0  0  0  0  0  0  0
    4.7340    0.9040   -0.3830 C   0  0  0  0  0  0  0  0  0  0  0  0
    5.1540    0.0140    0.7830 C   0  0  0  0  0  0  0  0  0  0  0  0
    4.3660   -1.1740    0.8960 N   0  0  0  0  0  0  0  0  0  0  0  0
    2.9700   -0.8030    1.0930 C   0  0  0  0  0  0  0  0  0  0  0  0
    2.5040   -0.2400   -0.2280 C   0  0  1  0  0  0  0  0  0  0  0  0
    2.7860   -1.1120   -1.2810 O   0  0  0  0  0  0  0  0  0  0  0  0
   -2.1330   -1.6610   -0.5170 O   0  0  0  0  0  0  0  0  0  0  0  0
   -3.3660   -1.7340   -1.1360 C   0  0  0  0  0  0  0  0  0  0  0  0
   -4.2830   -0.5800   -0.9800 C   0  0  1  0  0  0  0  0  0  0  0  0
   -4.4660   -0.2170    0.5000 C   0  0  0  0  0  0  0  0  0  0  0  0
   -5.1770    1.1300    0.3470 C   0  0  0  0  0  0  0  0  0  0  0  0
   -4.5490    1.6370   -0.9300 C   0  0  0  0  0  0  0  0  0  0  0  0
   -3.8030    0.6230   -1.4710 O   0  0  0  0  0  0  0  0  0  0  0  0
  1  2  2  0
  2  3  1  0
  2 15  1  0
  3  4  1  0
  4  5  1  0
  4 13  1  0
  5  6  2  0
  5  7  1  0
  7  8  2  0
  8  9  1  0
  8 13  1  0
  9 10  1  0
 10 11  1  0
 11 12  1  0
 12 13  1  0
 13 14  1  6
 15 16  1  0
 17 16  1  1
 17 18  1  0
 17 21  1  0
 18 19  1  0
 19 20  1  0
 20 21  1  0
M  CHG  1  11   1
M  END
