
     RDKit          3D

 21 22  0  0  0  0  0  0  0  0999 V2000
    5.1960   -2.1310   -2.8280 C   0  0  0  0  0  0  0  0  0  0  0  0
    4.1510   -2.2400   -2.5080 C   0  0  0  0  0  0  0  0  0  0  0  0
    2.7570   -2.4040   -2.0980 C   0  0  0  0  0  0  0  0  0  0  0  0
    2.3880   -1.2750   -1.2550 N   0  0  0  0  0  0  0  0  0  0  0  0
    1.0860   -1.2150   -0.7490 C   0  0  0  0  0  0  0  0  0  0  0  0
    0.2760   -2.1220   -1.0420 O   0  0  0  0  0  0  0  0  0  0  0  0
    0.5750   -0.1110    0.1480 C   0  0  2  0  0  0  0  0  0  0  0  0
    1.3260   -0.3890    1.4740 C   0  0  0  0  0  0  0  0  0  0  0  0
    0.4810   -1.5510    1.9910 C   0  0  0  0  0  0  0  0  0  0  0  0
   -0.9180   -1.1080    1.6600 C   0  0  0  0  0  0  0  0  0  0  0  0
   -0.7930   -0.3190    0.4890 N   0  0  1  0  0  0  0  0  0  0  0  0
   -1.6250    0.8520    0.4510 C   0  0  1  0  0  0  0  0  0  0  0  0
   -1.3240    1.9340    1.4090 C   0  0  0  0  0  0  0  0  0  0  0  0
   -2.6140    2.6560    1.7470 C   0  0  0  0  0  0  0  0  0  0  0  0
   -3.0740    2.5080    2.8870 O   0  0  0  0  0  0  0  0  0  0  0  0
   -3.2620    3.4620    0.8070 O   0  0  0  0  0  0  0  0  0  0  0  0
   -3.5200    3.1840   -0.5640 C   0  0  0  0  0  0  0  0  0  0  0  0
   -4.5180    3.7500   -1.0610 O   0  0  0  0  0  0  0  0  0  0  0  0
   -2.7100    2.3180   -1.3610 N   0  0  0  0  0  0  0  0  0  0  0  0
   -1.7180    1.3860   -0.9190 C   0  0  0  0  0  0  0  0  0  0  0  0
   -0.9130    1.0500   -1.8160 O   0  0  0  0  0  0  0  0  0  0  0  0
  1  2  3  0
  2  3  1  0
  3  4  1  0
  4  5  1  0
  5  6  2  0
  7  5  1  6
  7  8  1  0
  7 11  1  0
  8  9  1  0
  9 10  1  0
 11 10  1  1
 11 12  1  0
 12 13  1  1
 12 20  1  0
 13 14  1  0
 14 15  2  0
 14 16  1  0
 16 17  1  0
 17 18  2  0
 17 19  1  0
 19 20  1  0
 20 21  2  0
M  CHG  1  11   1
M  END
