
     RDKit          3D

 18 19  0  0  0  0  0  0  0  0999 V2000
    3.3300    1.4450    1.1740 O   0  0  0  0  0  0  0  0  0  0  0  0
    3.2750    0.5350    0.3320 C   0  0  0  0  0  0  0  0  0  0  0  0
    4.3630   -0.4360    0.1720 C   0  0  0  0  0  0  0  0  0  0  0  0
    5.4590   -0.1140    1.1630 C   0  0  0  0  0  0  0  0  0  0  0  0
    6.5280   -0.9860    1.0790 O   0  0  0  0  0  0  0  0  0  0  0  0
    2.1120    0.4440   -0.4980 N   0  0  0  0  0  0  0  0  0  0  0  0
    1.0470    1.3840   -0.3500 C   0  0  0  0  0  0  0  0  0  0  0  0
   -0.1380    1.2340   -1.2030 C   0  0  0  0  0  0  0  0  0  0  0  0
   -0.9400    0.0220   -1.0630 C   0  0  0  0  0  0  0  0  0  0  0  0
   -2.1560    0.0290   -0.4810 C   0  0  0  0  0  0  0  0  0  0  0  0
   -2.9860    1.0890    0.1310 C   0  0  0  0  0  0  0  0  0  0  0  0
   -3.7810    0.4370    1.2440 C   0  0  0  0  0  0  0  0  0  0  0  0
   -4.7350   -0.5320    0.5850 C   0  0  0  0  0  0  0  0  0  0  0  0
   -4.0030   -1.6960    0.0150 C   0  0  0  0  0  0  0  0  0  0  0  0
   -2.6670   -1.3150   -0.5390 C   0  0  0  0  0  0  0  0  0  0  0  0
   -1.8350   -2.0920   -1.1150 N   0  0  0  0  0  0  0  0  0  0  0  0
   -0.6770   -1.3310   -1.4980 C   0  0  0  0  0  0  0  0  0  0  0  0
    0.3030   -1.8420   -2.0880 O   0  0  0  0  0  0  0  0  0  0  0  0
  1  2  2  0
  2  3  1  0
  2  6  1  0
  3  4  1  0
  4  5  1  0
  6  7  1  0
  7  8  1  0
  8  9  1  0
  9 10  2  0
  9 17  1  0
 10 11  1  0
 10 15  1  0
 11 12  1  0
 12 13  1  0
 13 14  1  0
 14 15  1  0
 15 16  2  0
 16 17  1  0
 17 18  2  0
M  END
