
     RDKit          3D

 22 23  0  0  0  0  0  0  0  0999 V2000
    5.6390    1.0610   -2.0260 C   0  0  0  0  0  0  0  0  0  0  0  0
    5.2200   -0.1180   -1.3150 O   0  0  0  0  0  0  0  0  0  0  0  0
    4.1560   -0.1690   -0.4650 C   0  0  0  0  0  0  0  0  0  0  0  0
    3.5960    0.9020   -0.3710 O   0  0  0  0  0  0  0  0  0  0  0  0
    3.3280   -0.8140    0.3920 N   0  0  1  0  0  0  0  0  0  0  0  0
    2.9650   -0.1180    1.6700 C   0  0  0  0  0  0  0  0  0  0  0  0
    2.1320    1.0820    1.5270 C   0  0  0  0  0  0  0  0  0  0  0  0
    1.0200    1.0210    0.5200 C   0  0  0  0  0  0  0  0  0  0  0  0
    0.9410   -0.2690   -0.2080 C   0  0  2  0  0  0  0  0  0  0  0  0
    0.7620    0.0810   -1.5760 O   0  0  0  0  0  0  0  0  0  0  0  0
   -0.3950   -0.9480    0.1470 C   0  0  0  0  0  0  0  0  0  0  0  0
   -1.5410   -0.1250   -0.2290 C   0  0  0  0  0  0  0  0  0  0  0  0
   -1.4650    1.0000   -0.7760 O   0  0  0  0  0  0  0  0  0  0  0  0
   -2.8420   -0.6220    0.0370 N   0  0  0  0  0  0  0  0  0  0  0  0
   -4.0480    0.1100   -0.2940 C   0  0  2  0  0  0  0  0  0  0  0  0
   -4.9280    0.3180    0.9220 C   0  0  0  0  0  0  0  0  0  0  0  0
   -6.2760    0.4510    0.3090 C   0  0  0  0  0  0  0  0  0  0  0  0
   -7.2970    1.0460    0.7280 O   0  0  0  0  0  0  0  0  0  0  0  0
   -6.2410   -0.2550   -0.9320 N   0  0  0  0  0  0  0  0  0  0  0  0
   -4.9120   -0.7540   -1.1400 C   0  0  0  0  0  0  0  0  0  0  0  0
   -4.6070   -1.7160   -1.8870 O   0  0  0  0  0  0  0  0  0  0  0  0
    2.0490   -1.2180   -0.1090 C   0  0  0  0  0  0  0  0  0  0  0  0
  1  2  1  0
  2  3  1  0
  3  4  2  0
  5  3  1  6
  5  6  1  0
  5 22  1  0
  6  7  1  0
  7  8  1  0
  8  9  1  0
  9 10  1  6
  9 11  1  0
  9 22  1  0
 11 12  1  0
 12 13  2  0
 12 14  1  0
 15 14  1  1
 15 16  1  0
 15 20  1  0
 16 17  1  0
 17 18  2  0
 17 19  1  0
 19 20  1  0
 20 21  2  0
M  CHG  1   5   1
M  END
