
     RDKit          3D

 22 23  0  0  0  0  0  0  0  0999 V2000
   -3.8020    2.6770   -0.2270 C   0  0  0  0  0  0  0  0  0  0  0  0
   -3.9950    1.3170   -0.4560 O   0  0  0  0  0  0  0  0  0  0  0  0
   -3.3840    0.5610    0.5470 C   0  0  1  0  0  0  0  0  0  0  0  0
   -4.4120   -0.3240    1.2270 C   0  0  0  0  0  0  0  0  0  0  0  0
   -5.2810   -0.9010    0.2220 N   0  0  0  0  0  0  0  0  0  0  0  0
   -4.8680   -1.6860   -0.8780 C   0  0  0  0  0  0  0  0  0  0  0  0
   -5.7740   -2.1170   -1.6070 O   0  0  0  0  0  0  0  0  0  0  0  0
   -3.5540   -2.0520   -1.2670 N   0  0  0  0  0  0  0  0  0  0  0  0
   -2.7730   -0.8460   -1.4430 C   0  0  0  0  0  0  0  0  0  0  0  0
   -2.3470   -0.3410   -0.0800 C   0  0  1  0  0  0  0  0  0  0  0  0
   -1.0440    0.3120   -0.1480 N   0  0  0  0  0  0  0  0  0  0  0  0
    0.0950   -0.1760    0.5500 C   0  0  0  0  0  0  0  0  0  0  0  0
   -0.0650   -1.2150    1.2420 O   0  0  0  0  0  0  0  0  0  0  0  0
    1.3950    0.4690    0.4870 C   0  0  0  0  0  0  0  0  0  0  0  0
    1.5640    1.5040   -0.2000 O   0  0  0  0  0  0  0  0  0  0  0  0
    2.4700   -0.0420    1.1810 O   0  0  0  0  0  0  0  0  0  0  0  0
    3.7680    0.5000    1.1890 C   0  0  0  0  0  0  0  0  0  0  0  0
    4.3590    0.5160   -0.1790 C   0  0  1  0  0  0  0  0  0  0  0  0
    5.8120    0.9570   -0.1560 C   0  0  0  0  0  0  0  0  0  0  0  0
    6.6140   -0.3130   -0.2800 C   0  0  0  0  0  0  0  0  0  0  0  0
    5.5280   -1.3750   -0.1350 C   0  0  0  0  0  0  0  0  0  0  0  0
    4.4550   -0.7530   -0.7460 O   0  0  0  0  0  0  0  0  0  0  0  0
  1  2  1  0
  3  2  1  6
  3  4  1  0
  3 10  1  0
  4  5  1  0
  5  6  1  0
  6  7  2  0
  6  8  1  0
  8  9  1  0
  9 10  1  0
 10 11  1  6
 11 12  1  0
 12 13  2  0
 12 14  1  0
 14 15  2  0
 14 16  1  0
 16 17  1  0
 18 17  1  1
 18 19  1  0
 18 22  1  0
 19 20  1  0
 20 21  1  0
 21 22  1  0
M  CHG  1   8   1
M  END
