
     RDKit          3D

 22 24  0  0  0  0  0  0  0  0999 V2000
    7.0080    0.8510    0.8620 O   0  0  0  0  0  0  0  0  0  0  0  0
    5.7610    0.7290    0.6060 C   0  0  0  0  0  0  0  0  0  0  0  0
    5.1720    1.4200   -0.4340 C   0  0  0  0  0  0  0  0  0  0  0  0
    3.8210    1.2640   -0.6810 C   0  0  0  0  0  0  0  0  0  0  0  0
    3.0600    0.4370    0.0870 N   0  0  0  0  0  0  0  0  0  0  0  0
    1.6620    0.2500   -0.1380 C   0  0  2  0  0  0  0  0  0  0  0  0
    0.8750    0.5070    0.9740 O   0  0  0  0  0  0  0  0  0  0  0  0
   -0.3300   -0.1300    0.7820 C   0  0  1  0  0  0  0  0  0  0  0  0
   -1.2100    0.5470   -0.2260 C   0  0  0  0  0  0  0  0  0  0  0  0
   -2.4670   -0.0890   -0.4410 N   0  0  1  0  0  0  0  0  0  0  0  0
   -3.0590   -0.6720    0.7260 C   0  0  0  0  0  0  0  0  0  0  0  0
   -4.5770   -0.6070    0.5400 C   0  0  0  0  0  0  0  0  0  0  0  0
   -5.0540    0.6850    0.5920 O   0  0  0  0  0  0  0  0  0  0  0  0
   -4.1720    1.5870   -0.0000 C   0  0  0  0  0  0  0  0  0  0  0  0
   -3.4140    0.8550   -1.0610 C   0  0  0  0  0  0  0  0  0  0  0  0
    0.0610   -1.4930    0.2180 C   0  0  2  0  0  0  0  0  0  0  0  0
    0.2730   -2.4110    1.2160 O   0  0  0  0  0  0  0  0  0  0  0  0
    1.3060   -1.1520   -0.5620 C   0  0  1  0  0  0  0  0  0  0  0  0
    0.9600   -1.1360   -1.9130 O   0  0  0  0  0  0  0  0  0  0  0  0
    3.6750   -0.2150    1.0870 C   0  0  0  0  0  0  0  0  0  0  0  0
    2.9750   -0.9810    1.8020 O   0  0  0  0  0  0  0  0  0  0  0  0
    4.9910   -0.0830    1.3540 N   0  0  0  0  0  0  0  0  0  0  0  0
  1  2  2  0
  2  3  1  0
  2 22  1  0
  3  4  2  0
  4  5  1  0
  6  5  1  1
  5 20  1  0
  6  7  1  0
  6 18  1  0
  7  8  1  0
  8  9  1  6
  8 16  1  0
 10  9  1  1
 10 11  1  0
 10 15  1  0
 11 12  1  0
 12 13  1  0
 13 14  1  0
 14 15  1  0
 16 17  1  1
 16 18  1  0
 18 19  1  6
 20 21  2  0
 20 22  1  0
M  CHG  1  10   1
M  END
