
     RDKit          3D

 22 23  0  0  0  0  0  0  0  0999 V2000
   -4.8810    1.2960    0.2680 C   0  0  0  0  0  0  0  0  0  0  0  0
   -3.4870    1.1030    0.6930 N   0  0  0  0  0  0  0  0  0  0  0  0
   -3.3010   -0.2900    0.9100 C   0  0  0  0  0  0  0  0  0  0  0  0
   -1.8400   -0.6980    0.7290 C   0  0  0  0  0  0  0  0  0  0  0  0
   -1.1810   -1.2390    1.7240 C   0  0  0  0  0  0  0  0  0  0  0  0
    0.1390   -1.7060    1.8530 N   0  0  0  0  0  0  0  0  0  0  0  0
    1.1190   -2.1300    0.9640 C   0  0  0  0  0  0  0  0  0  0  0  0
    1.5190   -3.3780    1.0820 O   0  0  0  0  0  0  0  0  0  0  0  0
    1.8030   -1.4840   -0.0770 N   0  0  0  0  0  0  0  0  0  0  0  0
    2.4040   -0.1830   -0.1380 C   0  0  2  0  0  0  0  0  0  0  0  0
    3.8600   -0.4220    0.3350 C   0  0  0  0  0  0  0  0  0  0  0  0
    4.1270    0.8520    1.1060 C   0  0  0  0  0  0  0  0  0  0  0  0
    2.9360    1.0010    1.8090 O   0  0  0  0  0  0  0  0  0  0  0  0
    1.9540    0.8190    0.8440 C   0  0  0  0  0  0  0  0  0  0  0  0
    2.5420    0.3100   -1.5340 C   0  0  0  0  0  0  0  0  0  0  0  0
    3.3820    1.2600   -1.6880 O   0  0  0  0  0  0  0  0  0  0  0  0
    1.8150   -0.2350   -2.5330 O   0  0  0  0  0  0  0  0  0  0  0  0
    0.4810   -0.1670   -2.8890 C   0  0  0  0  0  0  0  0  0  0  0  0
   -0.3100   -1.3850   -2.5910 C   0  0  0  0  0  0  0  0  0  0  0  0
   -0.3230   -2.3130   -3.4120 O   0  0  0  0  0  0  0  0  0  0  0  0
   -1.0460   -1.5340   -1.4170 O   0  0  0  0  0  0  0  0  0  0  0  0
   -1.3280   -0.3980   -0.6200 C   0  0  0  0  0  0  0  0  0  0  0  0
  1  2  1  0
  2  3  1  0
  3  4  1  0
  4  5  2  0
  4 22  1  0
  5  6  1  0
  6  7  1  0
  7  8  2  0
  7  9  1  0
  9 10  1  0
 10 11  1  1
 10 14  1  0
 10 15  1  0
 11 12  1  0
 12 13  1  0
 13 14  1  0
 15 16  2  0
 15 17  1  0
 17 18  1  0
 18 19  1  0
 19 20  2  0
 19 21  1  0
 21 22  1  0
M  CHG  1   2   1
M  END
