
     RDKit          3D

 22 23  0  0  0  0  0  0  0  0999 V2000
    5.7110    2.5960    1.0150 C   0  0  0  0  0  0  0  0  0  0  0  0
    4.9290    1.6920    0.2810 O   0  0  0  0  0  0  0  0  0  0  0  0
    4.0800    0.7850    0.8980 C   0  0  0  0  0  0  0  0  0  0  0  0
    4.0260    0.7910    2.1370 O   0  0  0  0  0  0  0  0  0  0  0  0
    3.2790   -0.1450    0.0900 C   0  0  0  0  0  0  0  0  0  0  0  0
    3.3730   -0.1080   -1.1630 O   0  0  0  0  0  0  0  0  0  0  0  0
    2.4140   -1.0700    0.6920 N   0  0  0  0  0  0  0  0  0  0  0  0
    1.5970   -2.0130   -0.0270 C   0  0  1  0  0  0  0  0  0  0  0  0
    1.8220   -3.4160    0.3960 C   0  0  0  0  0  0  0  0  0  0  0  0
    2.8560   -3.9040    0.8980 O   0  0  0  0  0  0  0  0  0  0  0  0
    0.6230   -4.1310    0.1240 N   0  0  0  0  0  0  0  0  0  0  0  0
   -0.4240   -3.1880   -0.2210 C   0  0  0  0  0  0  0  0  0  0  0  0
    0.1190   -1.8340    0.2400 C   0  0  2  0  0  0  0  0  0  0  0  0
   -0.4400   -0.7190   -0.5970 C   0  0  0  0  0  0  0  0  0  0  0  0
   -1.8920   -0.5100   -0.3640 C   0  0  0  0  0  0  0  0  0  0  0  0
   -2.4390   -1.2390    0.4470 O   0  0  0  0  0  0  0  0  0  0  0  0
   -2.6730    0.5400   -1.0780 C   0  0  2  0  0  0  0  0  0  0  0  0
   -2.1390    1.8960   -0.8090 C   0  0  0  0  0  0  0  0  0  0  0  0
   -3.0560    2.8510   -0.2920 N   0  0  0  0  0  0  0  0  0  0  0  0
   -4.1680    2.2430    0.4040 C   0  0  0  0  0  0  0  0  0  0  0  0
   -4.8410    1.4790   -0.5500 O   0  0  0  0  0  0  0  0  0  0  0  0
   -4.1280    0.3510   -0.8310 C   0  0  0  0  0  0  0  0  0  0  0  0
  1  2  1  0
  2  3  1  0
  3  4  2  0
  3  5  1  0
  5  6  2  0
  5  7  1  0
  8  7  1  1
  8  9  1  0
  8 13  1  0
  9 10  2  0
  9 11  1  0
 11 12  1  0
 12 13  1  0
 13 14  1  6
 14 15  1  0
 15 16  2  0
 17 15  1  1
 17 18  1  0
 17 22  1  0
 18 19  1  0
 19 20  1  0
 20 21  1  0
 21 22  1  0
M  CHG  1  19   1
M  END
