
     RDKit          3D

 21 22  0  0  0  0  0  0  0  0999 V2000
   -1.9330    1.6870    0.4560 C   0  0  0  0  0  0  0  0  0  0  0  0
   -2.1310    0.1980    0.1420 C   0  0  2  0  0  0  0  0  0  0  0  0
   -3.0020    0.1500   -1.0900 C   0  0  0  0  0  0  0  0  0  0  0  0
   -2.8930   -0.3590    1.2890 C   0  0  0  0  0  0  0  0  0  0  0  0
   -3.4070    0.3330    2.2020 O   0  0  0  0  0  0  0  0  0  0  0  0
   -3.0240   -1.7820    1.3130 N   0  0  0  0  0  0  0  0  0  0  0  0
   -2.0090   -2.4810    0.5990 C   0  0  0  0  0  0  0  0  0  0  0  0
   -2.2090   -3.6440    0.1880 O   0  0  0  0  0  0  0  0  0  0  0  0
   -0.7350   -1.7740    0.3750 C   0  0  0  0  0  0  0  0  0  0  0  0
   -0.8520   -0.4150   -0.0460 N   0  0  1  0  0  0  0  0  0  0  0  0
   -0.3840   -0.3350   -1.4140 C   0  0  0  0  0  0  0  0  0  0  0  0
    0.9490    0.4020   -1.5010 C   0  0  2  0  0  0  0  0  0  0  0  0
    2.0140   -0.3900   -0.7840 C   0  0  0  0  0  0  0  0  0  0  0  0
    3.2490    0.3960   -0.4980 C   0  0  2  0  0  0  0  0  0  0  0  0
    3.9630   -0.0950    0.7170 C   0  0  0  0  0  0  0  0  0  0  0  0
    4.3080    0.7330    1.8090 N   0  0  0  0  0  0  0  0  0  0  0  0
    4.2770   -1.3110    0.7760 O   0  0  0  0  0  0  0  0  0  0  0  0
    3.0230    1.7780   -0.3000 O   0  0  0  0  0  0  0  0  0  0  0  0
    1.7200    2.2140   -0.1310 C   0  0  0  0  0  0  0  0  0  0  0  0
    1.3800    3.0530    0.7750 O   0  0  0  0  0  0  0  0  0  0  0  0
    0.7800    1.6890   -1.0060 O   0  0  0  0  0  0  0  0  0  0  0  0
  2  1  1  1
  2  3  1  0
  2  4  1  0
  2 10  1  0
  4  5  2  0
  4  6  1  0
  6  7  1  0
  7  8  2  0
  7  9  1  0
  9 10  1  0
 10 11  1  6
 12 11  1  1
 12 13  1  0
 12 21  1  0
 13 14  1  0
 14 15  1  1
 14 18  1  0
 15 16  1  0
 15 17  2  0
 18 19  1  0
 19 20  2  0
 19 21  1  0
M  CHG  1  10   1
M  END
