
     RDKit          3D

 14 14  0  0  0  0  0  0  0  0999 V2000
    4.7900   -0.6050   -0.4860 C   0  0  0  0  0  0  0  0  0  0  0  0
    4.0590    0.6770   -0.2530 C   0  0  0  0  0  0  0  0  0  0  0  0
    3.5230    0.8210    1.0110 O   0  0  0  0  0  0  0  0  0  0  0  0
    2.5950   -0.1490    1.3430 C   0  0  0  0  0  0  0  0  0  0  0  0
    1.4190   -0.1530    0.4090 C   0  0  0  0  0  0  0  0  0  0  0  0
    0.3910    0.3740    0.3280 N   0  0  0  0  0  0  0  0  0  0  0  0
   -0.5440    0.2450   -0.5880 C   0  0  0  0  0  0  0  0  0  0  0  0
   -1.8350    1.0000   -0.5590 C   0  0  0  0  0  0  0  0  0  0  0  0
   -2.9050    0.2550    0.1950 C   0  0  2  0  0  0  0  0  0  0  0  0
   -3.2150   -1.0900   -0.4020 C   0  0  0  0  0  0  0  0  0  0  0  0
   -4.1690    1.0880    0.1130 C   0  0  0  0  0  0  0  0  0  0  0  0
   -2.5920    0.1030    1.5320 O   0  0  0  0  0  0  0  0  0  0  0  0
   -0.2430   -0.6440   -1.5810 C   0  0  0  0  0  0  0  0  0  0  0  0
    1.4130   -1.2340   -1.0910 S   0  0  0  0  0  0  0  0  0  0  0  0
  1  2  1  0
  2  3  1  0
  3  4  1  0
  4  5  1  0
  5  6  2  0
  5 14  1  0
  6  7  1  0
  7  8  1  0
  7 13  2  0
  8  9  1  0
  9 10  1  6
  9 11  1  0
  9 12  1  0
 13 14  1  0
M  END
