
     RDKit          3D

 14 13  0  0  0  0  0  0  0  0999 V2000
   -3.8920    1.9050   -0.8330 C   0  0  0  0  0  0  0  0  0  0  0  0
   -2.6840    1.0900   -0.5850 C   0  0  0  0  0  0  0  0  0  0  0  0
   -2.6880   -0.1720   -0.2530 C   0  0  0  0  0  0  0  0  0  0  0  0
   -3.9360   -0.9320   -0.0910 C   0  0  0  0  0  0  0  0  0  0  0  0
   -4.0410   -1.4650    1.3230 C   0  0  0  0  0  0  0  0  0  0  0  0
   -1.4020   -0.8840   -0.0310 C   0  0  0  0  0  0  0  0  0  0  0  0
   -0.2620   -0.0320   -0.2710 N   0  0  0  0  0  0  0  0  0  0  0  0
    0.9790   -0.6550    0.0950 C   0  0  0  0  0  0  0  0  0  0  0  0
    2.1870    0.1750   -0.2260 C   0  0  0  0  0  0  0  0  0  0  0  0
    3.6360   -0.6930    0.3340 S   0  0  1  0  0  0  0  0  0  0  0  0
    3.4710   -0.8700    1.8340 O   0  0  0  0  0  0  0  0  0  0  0  0
    3.6560   -2.0610   -0.2860 O   0  0  0  0  0  0  0  0  0  0  0  0
    5.1140    0.1940   -0.0180 C   0  0  0  0  0  0  0  0  0  0  0  0
    5.0910    1.5450    0.6640 C   0  0  0  0  0  0  0  0  0  0  0  0
  1  2  1  0
  2  3  2  3
  3  4  1  0
  3  6  1  0
  4  5  1  0
  6  7  1  0
  7  8  1  0
  8  9  1  0
 10  9  1  6
 10 11  2  0
 10 12  2  0
 10 13  1  0
 13 14  1  0
M  END
