
     RDKit          3D

 14 14  0  0  0  0  0  0  0  0999 V2000
   -2.5100    0.5300    1.3170 C   0  0  0  0  0  0  0  0  0  0  0  0
   -2.0990    0.4860   -0.1440 C   0  0  2  0  0  0  0  0  0  0  0  0
   -2.7110    1.5910   -0.9510 C   0  0  0  0  0  0  0  0  0  0  0  0
   -2.7570   -0.8100   -0.6650 C   0  0  0  0  0  0  0  0  0  0  0  0
   -0.6440    0.4770   -0.3360 C   0  0  0  0  0  0  0  0  0  0  0  0
    0.1420   -0.6320    0.1000 C   0  0  0  0  0  0  0  0  0  0  0  0
   -0.3060   -1.8450    0.0330 O   0  0  0  0  0  0  0  0  0  0  0  0
    1.4050   -0.5080    0.6350 N   0  0  0  0  0  0  0  0  0  0  0  0
    2.3820   -1.4950    1.0620 C   0  0  0  0  0  0  0  0  0  0  0  0
    3.4710   -1.3540   -0.0010 C   0  0  0  0  0  0  0  0  0  0  0  0
    3.5220   -2.2400   -0.9210 O   0  0  0  0  0  0  0  0  0  0  0  0
    4.4020   -0.2490   -0.0120 C   0  0  0  0  0  0  0  0  0  0  0  0
    4.7320    0.9260    0.7140 C   0  0  0  0  0  0  0  0  0  0  0  0
    5.7710    0.6430   -0.6920 S   0  0  0  0  0  0  0  0  0  0  0  0
  2  1  1  1
  2  3  1  0
  2  4  1  0
  2  5  1  0
  5  6  1  0
  6  7  2  0
  6  8  1  0
  8  9  1  0
  9 10  1  0
 10 11  2  0
 10 12  1  0
 12 13  2  0
 12 14  1  0
 13 14  1  0
M  END
