
     RDKit          3D

 14 14  0  0  0  0  0  0  0  0999 V2000
   -3.3360    2.4270   -1.0920 C   0  0  0  0  0  0  0  0  0  0  0  0
   -2.4210    1.3800   -0.5660 C   0  0  0  0  0  0  0  0  0  0  0  0
   -2.9480    0.3040    0.1160 C   0  0  0  0  0  0  0  0  0  0  0  0
   -2.0970   -0.6880    0.6150 C   0  0  0  0  0  0  0  0  0  0  0  0
   -2.6580   -1.8500    1.3520 C   0  0  0  0  0  0  0  0  0  0  0  0
   -0.7320   -0.5840    0.4220 C   0  0  0  0  0  0  0  0  0  0  0  0
   -0.1890    0.4910   -0.2610 C   0  0  0  0  0  0  0  0  0  0  0  0
    1.2270    0.6050   -0.4640 N   0  0  0  0  0  0  0  0  0  0  0  0
    2.1030   -0.4100    0.0470 C   0  0  0  0  0  0  0  0  0  0  0  0
    3.5360   -0.0560   -0.2990 C   0  0  0  0  0  0  0  0  0  0  0  0
    4.6210   -1.3120    0.3330 S   0  0  2  0  0  0  0  0  0  0  0  0
    5.8940   -0.7140    0.8730 O   0  0  0  0  0  0  0  0  0  0  0  0
    4.9820   -2.3080   -0.7360 O   0  0  0  0  0  0  0  0  0  0  0  0
   -1.0610    1.4430   -0.7350 C   0  0  0  0  0  0  0  0  0  0  0  0
  1  2  1  0
  2  3  2  0
  2 14  1  0
  3  4  1  0
  4  5  1  0
  4  6  2  0
  6  7  1  0
  7  8  1  0
  7 14  2  0
  8  9  1  0
  9 10  1  0
 11 10  1  6
 11 12  2  0
 11 13  2  0
M  END
