
     RDKit          3D

 39 41  0  0  0  0  0  0  0  0999 V2000
   -4.0560   -3.7040    2.2630 C   0  0  0  0  0  0  0  0  0  0  0  0
   -4.4810   -2.4390    2.0550 O   0  0  0  0  0  0  0  0  0  0  0  0
   -3.6530   -1.1580    2.1770 P   0  0  0  0  0  0  0  0  0  0  0  0
   -3.2910   -1.6430    3.7850 O   0  0  0  0  0  0  0  0  0  0  0  0
   -4.9830   -0.2690    1.9320 O   0  0  0  0  0  0  0  0  0  0  0  0
   -2.5000   -1.5830    0.9410 C   0  0  1  0  0  0  0  0  0  0  0  0
   -1.9120   -2.7690    1.6250 O   0  0  0  0  0  0  0  0  0  0  0  0
   -3.0480   -2.2160   -0.2830 C   0  0  0  0  0  0  0  0  0  0  0  0
   -4.3730   -2.0740   -0.6350 C   0  0  0  0  0  0  0  0  0  0  0  0
   -4.9760   -2.6020   -1.7640 C   0  0  0  0  0  0  0  0  0  0  0  0
   -4.1180   -3.3400   -2.5900 C   0  0  0  0  0  0  0  0  0  0  0  0
   -2.8010   -3.5330   -2.3290 C   0  0  0  0  0  0  0  0  0  0  0  0
   -2.2730   -2.9560   -1.1550 C   0  0  0  0  0  0  0  0  0  0  0  0
   -1.2570   -0.8140    0.7470 C   0  0  1  0  0  0  0  0  0  0  0  0
    0.1740   -1.7550    0.1910 S   0  0  0  0  0  0  0  0  0  0  0  0
    0.9690   -0.4430   -0.6170 C   0  0  0  0  0  0  0  0  0  0  0  0
    2.2310   -0.4230   -1.3400 C   0  0  0  0  0  0  0  0  0  0  0  0
    3.4930   -0.1890   -0.7230 C   0  0  0  0  0  0  0  0  0  0  0  0
    4.1560   -1.0290    0.1370 O   0  0  0  0  0  0  0  0  0  0  0  0
    5.6980   -0.3140    0.2160 P   0  0  0  0  0  0  0  0  0  0  0  0
    5.1960    0.7280    1.1830 O   0  0  0  0  0  0  0  0  0  0  0  0
    6.1080    0.7260   -0.9830 O   0  0  0  0  0  0  0  0  0  0  0  0
    6.7970   -0.8530    1.2780 O   0  0  0  0  0  0  0  0  0  0  0  0
    8.2980   -1.2410    0.6900 P   0  0  0  0  0  0  0  0  0  0  0  0
    8.4900   -2.4940   -0.3390 O   0  0  0  0  0  0  0  0  0  0  0  0
    8.2220   -0.2050   -0.4310 O   0  0  0  0  0  0  0  0  0  0  0  0
    9.6430   -0.4950    1.3080 O   0  0  0  0  0  0  0  0  0  0  0  0
    0.0910    0.6140   -0.5980 C   0  0  0  0  0  0  0  0  0  0  0  0
    0.6470    1.8740   -1.2310 C   0  0  0  0  0  0  0  0  0  0  0  0
   -1.1570    0.4000   -0.0650 N   0  0  0  0  0  0  0  0  0  0  0  0
   -2.3980    1.1930   -0.1790 C   0  0  0  0  0  0  0  0  0  0  0  0
   -2.3250    2.6490   -0.2970 C   0  0  0  0  0  0  0  0  0  0  0  0
   -1.7580    3.3350   -1.3080 C   0  0  0  0  0  0  0  0  0  0  0  0
   -1.7320    4.6780   -1.3690 N   0  0  0  0  0  0  0  0  0  0  0  0
   -2.3130    5.3930   -0.3670 C   0  0  0  0  0  0  0  0  0  0  0  0
   -2.2160    6.8860   -0.2980 C   0  0  0  0  0  0  0  0  0  0  0  0
   -2.8960    4.7450    0.6470 N   0  0  0  0  0  0  0  0  0  0  0  0
   -2.9210    3.4170    0.7150 C   0  0  0  0  0  0  0  0  0  0  0  0
   -3.6020    2.7570    1.8140 N   0  0  0  0  0  0  0  0  0  0  0  0
  1  2  1  0
  2  3  1  0
  3  4  1  0
  3  5  1  0
  3  6  1  0
  6  7  1  1
  6  8  1  0
  6 14  1  0
  8  9  2  0
  8 13  1  0
  9 10  1  0
 10 11  2  0
 11 12  1  0
 12 13  2  0
 14 15  1  6
 14 30  1  0
 15 16  1  0
 16 17  1  0
 16 28  2  0
 17 18  1  0
 18 19  1  0
 19 20  1  0
 20 21  1  0
 20 22  1  0
 20 23  1  0
 23 24  1  0
 24 25  1  0
 24 26  1  0
 24 27  1  0
 28 29  1  0
 28 30  1  0
 30 31  1  0
 31 32  1  0
 32 33  2  0
 32 38  1  0
 33 34  1  0
 34 35  2  0
 35 36  1  0
 35 37  1  0
 37 38  2  0
 38 39  1  0
M  END
