
     RDKit          3D

 34 35  0  0  0  0  0  0  0  0999 V2000
   -0.2400   -2.9100   -1.4430 C   0  0  0  0  0  0  0  0  0  0  0  0
   -1.4140   -2.0510   -1.6790 N   0  0  0  0  0  0  0  0  0  0  0  0
   -1.2160   -0.6380   -1.5240 C   0  0  0  0  0  0  0  0  0  0  0  0
   -0.3830   -0.2270   -0.3380 C   0  0  2  0  0  0  0  0  0  0  0  0
    0.9550   -0.4190   -0.6560 O   0  0  0  0  0  0  0  0  0  0  0  0
    1.8560    0.6110   -0.8200 C   0  0  0  0  0  0  0  0  0  0  0  0
    1.3700    1.7570   -0.6570 O   0  0  0  0  0  0  0  0  0  0  0  0
    3.2870    0.3980   -1.1620 C   0  0  2  0  0  0  0  0  0  0  0  0
    3.9740   -0.4450   -0.0880 C   0  0  0  0  0  0  0  0  0  0  0  0
    3.8790    0.2390    1.1410 O   0  0  0  0  0  0  0  0  0  0  0  0
    4.6380   -0.6720    2.3840 P   0  0  0  0  0  0  0  0  0  0  0  0
    3.4160   -1.6000    3.2000 O   0  0  0  0  0  0  0  0  0  0  0  0
    5.8530   -1.7480    1.7520 O   0  0  0  0  0  0  0  0  0  0  0  0
    4.0050    1.6750   -1.3420 C   0  0  0  0  0  0  0  0  0  0  0  0
    4.5430    1.9270   -2.4400 O   0  0  0  0  0  0  0  0  0  0  0  0
    4.1150    2.6250   -0.3330 O   0  0  0  0  0  0  0  0  0  0  0  0
    4.9940    4.1030   -0.6720 P   0  0  0  0  0  0  0  0  0  0  0  0
    4.1250    5.3970    0.1340 O   0  0  0  0  0  0  0  0  0  0  0  0
    4.8800    4.4180   -2.3790 O   0  0  0  0  0  0  0  0  0  0  0  0
   -0.8350   -0.8040    0.9570 C   0  0  0  0  0  0  0  0  0  0  0  0
   -1.4190    0.2300    1.8940 C   0  0  2  0  0  0  0  0  0  0  0  0
   -2.9100    0.0650    2.0690 C   0  0  0  0  0  0  0  0  0  0  0  0
   -3.6160    0.7970    1.0110 N   0  0  0  0  0  0  0  0  0  0  0  0
   -3.3420    2.2210    1.0200 C   0  0  0  0  0  0  0  0  0  0  0  0
   -1.9000    2.4610    1.0200 C   0  0  0  0  0  0  0  0  0  0  0  0
   -1.4740    3.5770    0.6060 O   0  0  0  0  0  0  0  0  0  0  0  0
   -1.0410    1.4910    1.4610 O   0  0  0  0  0  0  0  0  0  0  0  0
   -4.4770    0.1580    0.0780 C   0  0  0  0  0  0  0  0  0  0  0  0
   -4.6970    0.7910   -1.0010 O   0  0  0  0  0  0  0  0  0  0  0  0
   -5.1170   -1.1440    0.2580 C   0  0  0  0  0  0  0  0  0  0  0  0
   -4.3760   -2.3250   -0.2620 C   0  0  0  0  0  0  0  0  0  0  0  0
   -3.8070   -2.1980   -1.5210 O   0  0  0  0  0  0  0  0  0  0  0  0
   -2.6420   -2.6720   -2.0430 C   0  0  0  0  0  0  0  0  0  0  0  0
   -2.5440   -3.6590   -2.8600 O   0  0  0  0  0  0  0  0  0  0  0  0
  1  2  1  0
  2  3  1  0
  2 33  1  0
  3  4  1  0
  4  5  1  6
  4 20  1  0
  5  6  1  0
  6  7  2  0
  6  8  1  0
  8  9  1  1
  8 14  1  0
  9 10  1  0
 10 11  1  0
 11 12  1  0
 11 13  1  0
 14 15  2  0
 14 16  1  0
 16 17  1  0
 17 18  1  0
 17 19  1  0
 21 20  1  6
 21 22  1  0
 21 27  1  0
 22 23  1  0
 23 24  1  0
 23 28  1  0
 24 25  1  0
 25 26  2  0
 25 27  1  0
 28 29  2  0
 28 30  1  0
 30 31  1  0
 31 32  1  0
 32 33  1  0
 33 34  2  0
M  END
