
     RDKit          3D

 24 27  0  0  0  0  0  0  0  0999 V2000
   -4.8230   -0.6510   -1.3220 C   0  0  0  0  0  0  0  0  0  0  0  0
   -4.0130    0.5370   -0.8300 C   0  0  2  0  0  0  0  0  0  0  0  0
   -4.3880    1.7690   -1.6650 C   0  0  1  0  0  0  0  0  0  0  0  0
   -5.7480    1.9760   -1.4780 F   0  0  0  0  0  0  0  0  0  0  0  0
   -3.6610    2.8460   -1.1590 F   0  0  0  0  0  0  0  0  0  0  0  0
   -2.5320    0.3190   -1.0290 C   0  0  0  0  0  0  0  0  0  0  0  0
   -1.8810    0.4250    0.3290 C   0  0  2  0  0  0  0  0  0  0  0  0
   -0.4280    0.2870    0.3040 C   0  0  0  0  0  0  0  0  0  0  0  0
    0.3830    1.3120    0.7530 C   0  0  0  0  0  0  0  0  0  0  0  0
    1.7120    1.2080    0.7390 N   0  0  0  0  0  0  0  0  0  0  0  0
    2.3230    0.1020    0.2880 C   0  0  0  0  0  0  0  0  0  0  0  0
    3.7980   -0.0030    0.2780 C   0  0  0  0  0  0  0  0  0  0  0  0
    4.5660    1.0430    0.7330 C   0  0  0  0  0  0  0  0  0  0  0  0
    5.9450    1.0040    0.7480 C   0  0  0  0  0  0  0  0  0  0  0  0
    6.5760   -0.1400    0.2820 C   0  0  0  0  0  0  0  0  0  0  0  0
    5.7940   -1.1700   -0.1680 C   0  0  0  0  0  0  0  0  0  0  0  0
    4.4310   -1.0980   -0.1680 N   0  0  0  0  0  0  0  0  0  0  0  0
    7.2480   -1.3480   -0.2100 C   0  0  0  0  0  0  0  0  0  0  0  0
    1.5350   -0.9320   -0.1630 C   0  0  0  0  0  0  0  0  0  0  0  0
    2.1870   -2.0960   -0.6370 N   0  0  0  0  0  0  0  0  0  0  0  0
    0.1910   -0.8160   -0.1450 N   0  0  0  0  0  0  0  0  0  0  0  0
   -2.5620   -0.6190    1.2130 C   0  0  0  0  0  0  0  0  0  0  0  0
   -3.9890   -0.1420    1.3880 C   0  0  0  0  0  0  0  0  0  0  0  0
   -4.3420    0.8380    0.4730 O   0  0  0  0  0  0  0  0  0  0  0  0
  2  1  1  6
  2  3  1  0
  2  6  1  0
  2 24  1  0
  3  4  1  1
  3  5  1  0
  6  7  1  0
  7  8  1  6
  7 22  1  0
  8  9  2  0
  8 21  1  0
  9 10  1  0
 10 11  2  0
 11 12  1  0
 11 19  1  0
 12 13  2  0
 12 17  1  0
 13 14  1  0
 14 15  2  0
 15 16  1  0
 15 18  1  0
 16 17  2  0
 16 18  1  0
 19 20  1  0
 19 21  2  0
 22 23  1  0
 23 24  1  0
M  END
