
     RDKit          3D

  7  7  0  0  0  0  0  0  0  0999 V2000
    1.8230    0.0650   -0.3460 C   0  0  0  0  0  0  0  0  0  0  0  0
    0.7710   -0.1770    0.5980 N   0  0  0  0  0  0  0  0  0  0  0  0
    0.0160    0.9850    0.9560 C   0  0  0  0  0  0  0  0  0  0  0  0
   -0.9620    1.2610   -0.1700 C   0  0  0  0  0  0  0  0  0  0  0  0
   -1.8040    0.2270   -0.4300 O   0  0  0  0  0  0  0  0  0  0  0  0
   -1.2750   -1.0160   -0.4850 C   0  0  0  0  0  0  0  0  0  0  0  0
   -0.0600   -1.2880    0.3020 C   0  0  0  0  0  0  0  0  0  0  0  0
  1  2  1  0
  2  3  1  0
  2  7  1  0
  3  4  1  0
  4  5  1  0
  5  6  1  0
  6  7  1  0
M  END
