
     RDKit          3D

 24 26  0  0  0  0  0  0  0  0999 V2000
    2.0450   -3.1180   -0.3360 C   0  0  0  0  0  0  0  0  0  0  0  0
    1.4840   -1.8210   -0.7020 N   0  0  0  0  0  0  0  0  0  0  0  0
    2.3510   -0.9020   -1.3850 C   0  0  0  0  0  0  0  0  0  0  0  0
    3.1430   -0.0460   -0.4670 C   0  0  0  0  0  0  0  0  0  0  0  0
    4.3080   -0.5490    0.1000 C   0  0  0  0  0  0  0  0  0  0  0  0
    5.0760    0.2030    0.9510 C   0  0  0  0  0  0  0  0  0  0  0  0
    6.2670   -0.3360    1.5200 N   0  0  0  0  0  0  0  0  0  0  0  0
    4.7150    1.4940    1.2760 C   0  0  0  0  0  0  0  0  0  0  0  0
    3.5630    2.0170    0.7260 C   0  0  0  0  0  0  0  0  0  0  0  0
    3.2250    3.2870    1.0570 F   0  0  0  0  0  0  0  0  0  0  0  0
    2.8020    1.2400   -0.1310 C   0  0  0  0  0  0  0  0  0  0  0  0
    0.1360   -1.5660   -0.3510 C   0  0  0  0  0  0  0  0  0  0  0  0
   -0.5600   -2.4270    0.2690 O   0  0  0  0  0  0  0  0  0  0  0  0
   -0.5010   -0.3600   -0.6660 N   0  0  0  0  0  0  0  0  0  0  0  0
   -1.8690   -0.0070   -0.3530 C   0  0  1  0  0  0  0  0  0  0  0  0
   -2.8400   -0.9200   -0.9970 C   0  0  0  0  0  0  0  0  0  0  0  0
   -4.2630   -0.7540   -0.5440 C   0  0  0  0  0  0  0  0  0  0  0  0
   -4.7150    0.5930   -0.4320 N   0  0  0  0  0  0  0  0  0  0  0  0
   -4.2800    1.2460    0.7840 C   0  0  0  0  0  0  0  0  0  0  0  0
   -2.8010    1.4920    0.8050 C   0  0  1  0  0  0  0  0  0  0  0  0
   -2.1180    0.1810    1.1300 C   0  0  0  0  0  0  0  0  0  0  0  0
   -2.1570    1.4520   -0.5370 C   0  0  2  0  0  0  0  0  0  0  0  0
   -2.9510    1.8750   -1.7110 C   0  0  0  0  0  0  0  0  0  0  0  0
   -0.9500    2.1660   -0.4840 F   0  0  0  0  0  0  0  0  0  0  0  0
  1  2  1  0
  2  3  1  0
  2 12  1  0
  3  4  1  0
  4  5  2  0
  4 11  1  0
  5  6  1  0
  6  7  1  0
  6  8  2  0
  8  9  1  0
  9 10  1  0
  9 11  2  0
 12 13  2  0
 12 14  1  0
 15 14  1  1
 15 16  1  0
 15 21  1  0
 15 22  1  0
 16 17  1  0
 17 18  1  0
 18 19  1  0
 20 19  1  6
 20 21  1  0
 20 22  1  0
 22 23  1  6
 22 24  1  0
M  END
