
     RDKit          3D

  8  8  0  0  0  0  0  0  0  0999 V2000
    2.1810   -0.1670    0.3480 C   0  0  0  0  0  0  0  0  0  0  0  0
    0.7170    0.0430    0.2320 C   0  0  2  0  0  0  0  0  0  0  0  0
   -0.0130   -1.1120   -0.2490 N   0  0  0  0  0  0  0  0  0  0  0  0
   -1.4080   -0.9090    0.0550 C   0  0  0  0  0  0  0  0  0  0  0  0
   -1.8500    0.5140   -0.0200 C   0  0  0  0  0  0  0  0  0  0  0  0
   -1.0320    1.2970   -0.9030 O   0  0  0  0  0  0  0  0  0  0  0  0
    0.3440    1.1840   -0.6480 C   0  0  0  0  0  0  0  0  0  0  0  0
    1.1690    1.9760   -1.1220 O   0  0  0  0  0  0  0  0  0  0  0  0
  2  1  1  6
  2  3  1  0
  2  7  1  0
  3  4  1  0
  4  5  1  0
  5  6  1  0
  6  7  1  0
  7  8  2  0
M  END
