
     RDKit          3D

  8  8  0  0  0  0  0  0  0  0999 V2000
   -2.2470   -0.5550    0.0350 C   0  0  0  0  0  0  0  0  0  0  0  0
   -1.3430    0.5150   -0.2510 N   0  0  0  0  0  0  0  0  0  0  0  0
    0.0760    0.3900   -0.0990 C   0  0  0  0  0  0  0  0  0  0  0  0
    0.8030   -0.7080   -0.0210 C   0  0  0  0  0  0  0  0  0  0  0  0
    2.2450   -0.4080    0.1320 C   0  0  0  0  0  0  0  0  0  0  0  0
    2.3030    0.9920    0.1370 O   0  0  0  0  0  0  0  0  0  0  0  0
    1.0170    1.4950    0.0000 C   0  0  0  0  0  0  0  0  0  0  0  0
    0.7150    2.7180   -0.0330 O   0  0  0  0  0  0  0  0  0  0  0  0
  1  2  1  0
  2  3  1  0
  3  4  2  0
  3  7  1  0
  4  5  1  0
  5  6  1  0
  6  7  1  0
  7  8  2  0
M  END
