
     RDKit          3D

  8  8  0  0  0  0  0  0  0  0999 V2000
    1.9550   -0.0130    0.2350 C   0  0  0  0  0  0  0  0  0  0  0  0
    0.6420    0.2270   -0.2620 N   0  0  0  0  0  0  0  0  0  0  0  0
   -0.0250   -0.9860   -0.5830 C   0  0  0  0  0  0  0  0  0  0  0  0
   -1.4250   -1.1030   -0.0940 C   0  0  0  0  0  0  0  0  0  0  0  0
   -2.1310    0.1050   -0.4040 O   0  0  0  0  0  0  0  0  0  0  0  0
   -1.4560    1.3030   -0.2080 C   0  0  0  0  0  0  0  0  0  0  0  0
   -1.9540    2.4080   -0.5470 O   0  0  0  0  0  0  0  0  0  0  0  0
   -0.1160    1.2020    0.4250 C   0  0  0  0  0  0  0  0  0  0  0  0
  1  2  1  0
  2  3  1  0
  2  8  1  0
  3  4  1  0
  4  5  1  0
  5  6  1  0
  6  7  2  0
  6  8  1  0
M  END
