
     RDKit          3D

  8  8  0  0  0  0  0  0  0  0999 V2000
    2.7000   -0.6630   -0.5920 O   0  0  0  0  0  0  0  0  0  0  0  0
    1.3960   -0.3740   -0.2320 C   0  0  0  0  0  0  0  0  0  0  0  0
    1.0870    0.8680   -0.4080 N   0  0  0  0  0  0  0  0  0  0  0  0
   -0.1470    1.5910   -0.1670 C   0  0  0  0  0  0  0  0  0  0  0  0
   -1.0820    0.6430    0.5530 C   0  0  0  0  0  0  0  0  0  0  0  0
   -1.4790   -0.4690   -0.3480 C   0  0  0  0  0  0  0  0  0  0  0  0
   -0.6760   -1.5660   -0.3410 O   0  0  0  0  0  0  0  0  0  0  0  0
    0.5280   -1.4340    0.2870 C   0  0  0  0  0  0  0  0  0  0  0  0
  1  2  1  0
  2  3  2  0
  2  8  1  0
  3  4  1  0
  4  5  1  0
  5  6  1  0
  6  7  1  0
  7  8  1  0
M  END
