
     RDKit          3D

 34 37  0  0  0  0  0  0  0  0999 V2000
   -5.5230   -2.6400   -2.0010 O   0  0  0  0  0  0  0  0  0  0  0  0
   -4.2840   -2.6590   -2.0900 C   0  0  0  0  0  0  0  0  0  0  0  0
   -3.3220   -3.1780   -1.0690 C   0  0  0  0  0  0  0  0  0  0  0  0
   -2.3450   -2.0720   -0.6810 C   0  0  2  0  0  0  0  0  0  0  0  0
   -3.1250   -0.9630   -0.0340 C   0  0  0  0  0  0  0  0  0  0  0  0
   -4.0110   -1.2340    1.0280 C   0  0  0  0  0  0  0  0  0  0  0  0
   -4.7520   -0.2470    1.6380 C   0  0  0  0  0  0  0  0  0  0  0  0
   -4.6330    1.0490    1.2090 C   0  0  0  0  0  0  0  0  0  0  0  0
   -5.3800    2.0810    1.8040 C   0  0  0  0  0  0  0  0  0  0  0  0
   -5.2190    3.3580    1.3190 C   0  0  0  0  0  0  0  0  0  0  0  0
   -4.3570    3.6280    0.2870 C   0  0  0  0  0  0  0  0  0  0  0  0
   -3.6240    2.5840   -0.2890 C   0  0  0  0  0  0  0  0  0  0  0  0
   -3.7530    1.2930    0.1610 C   0  0  0  0  0  0  0  0  0  0  0  0
   -3.0380    0.3130   -0.4240 N   0  0  0  0  0  0  0  0  0  0  0  0
   -1.6700   -1.5800   -1.8880 C   0  0  0  0  0  0  0  0  0  0  0  0
   -0.3290   -1.0910   -2.0120 C   0  0  0  0  0  0  0  0  0  0  0  0
    0.2450   -0.7630   -2.9580 O   0  0  0  0  0  0  0  0  0  0  0  0
    0.5280   -1.0010   -0.5410 N   0  0  0  0  0  0  0  0  0  0  0  0
    1.7850   -0.6490   -1.1440 C   0  0  0  0  0  0  0  0  0  0  0  0
    2.1890   -0.4790   -2.2570 O   0  0  0  0  0  0  0  0  0  0  0  0
    2.7530   -0.4920   -0.0280 N   0  0  0  0  0  0  0  0  0  0  0  0
    4.1050   -0.2990   -0.2270 C   0  0  0  0  0  0  0  0  0  0  0  0
    4.7720   -0.7390   -1.3420 C   0  0  0  0  0  0  0  0  0  0  0  0
    6.1620   -0.6700   -1.4750 C   0  0  0  0  0  0  0  0  0  0  0  0
    6.8830   -0.1330   -0.4300 C   0  0  0  0  0  0  0  0  0  0  0  0
    8.2160   -0.0610   -0.5530 F   0  0  0  0  0  0  0  0  0  0  0  0
    6.2270    0.3150    0.6960 C   0  0  0  0  0  0  0  0  0  0  0  0
    4.8680    0.2460    0.8170 C   0  0  0  0  0  0  0  0  0  0  0  0
    4.1620    0.6880    1.9270 O   0  0  0  0  0  0  0  0  0  0  0  0
    4.6260    1.2920    3.0770 C   0  0  0  0  0  0  0  0  0  0  0  0
    5.2660    2.6600    2.8650 C   0  0  0  0  0  0  0  0  0  0  0  0
    5.7050    3.1650    4.0860 F   0  0  0  0  0  0  0  0  0  0  0  0
   -2.3450   -1.6490   -3.0640 C   0  0  0  0  0  0  0  0  0  0  0  0
   -3.6160   -2.1470   -3.2700 N   0  0  0  0  0  0  0  0  0  0  0  0
  1  2  2  0
  2  3  1  0
  2 34  1  0
  3  4  1  0
  4  5  1  6
  4 15  1  0
  5  6  2  0
  5 14  1  0
  6  7  1  0
  7  8  2  0
  8  9  1  0
  8 13  1  0
  9 10  2  0
 10 11  1  0
 11 12  2  0
 12 13  1  0
 13 14  2  0
 15 16  1  0
 15 33  2  0
 16 17  2  0
 16 18  1  0
 18 19  1  0
 19 20  2  0
 19 21  1  0
 21 22  1  0
 22 23  2  0
 22 28  1  0
 23 24  1  0
 24 25  2  0
 25 26  1  0
 25 27  1  0
 27 28  2  0
 28 29  1  0
 29 30  1  0
 30 31  1  0
 31 32  1  0
 33 34  1  0
M  END
