
     RDKit          3D

 34 37  0  0  0  0  0  0  0  0999 V2000
    7.1040   -1.1830   -2.6260 C   0  0  0  0  0  0  0  0  0  0  0  0
    6.5150   -0.5870   -1.3890 C   0  0  0  0  0  0  0  0  0  0  0  0
    5.7340    0.5520   -1.4200 C   0  0  0  0  0  0  0  0  0  0  0  0
    5.1770    1.1240   -0.2950 C   0  0  0  0  0  0  0  0  0  0  0  0
    5.4060    0.5320    0.9420 C   0  0  0  0  0  0  0  0  0  0  0  0
    6.1850   -0.6060    0.9800 C   0  0  0  0  0  0  0  0  0  0  0  0
    6.7410   -1.1770   -0.1440 C   0  0  0  0  0  0  0  0  0  0  0  0
    7.5690   -2.4030   -0.0220 C   0  0  0  0  0  0  0  0  0  0  0  0
    8.9180   -2.1400   -0.1360 F   0  0  0  0  0  0  0  0  0  0  0  0
    4.7000    1.3350    1.9970 C   0  0  0  0  0  0  0  0  0  0  0  0
    3.7430    2.1640    1.1490 C   0  0  2  0  0  0  0  0  0  0  0  0
    2.4640    1.4500    1.0610 C   0  0  0  0  0  0  0  0  0  0  0  0
    1.7740    1.2640    2.0850 O   0  0  0  0  0  0  0  0  0  0  0  0
    1.9580    0.9460   -0.1680 N   0  0  0  0  0  0  0  0  0  0  0  0
    0.7270    0.2560   -0.2640 C   0  0  0  0  0  0  0  0  0  0  0  0
   -0.4790    1.0500    0.1780 C   0  0  2  0  0  0  0  0  0  0  0  0
   -1.6410    0.1740    0.0040 C   0  0  0  0  0  0  0  0  0  0  0  0
   -2.7110    0.4200   -0.7110 C   0  0  0  0  0  0  0  0  0  0  0  0
   -3.7600   -0.5360   -0.7810 N   0  0  0  0  0  0  0  0  0  0  0  0
   -5.0950   -0.1980   -0.3330 C   0  0  0  0  0  0  0  0  0  0  0  0
   -5.2900    0.9420    0.1100 O   0  0  0  0  0  0  0  0  0  0  0  0
   -6.1130   -1.1700   -0.4160 N   0  0  0  0  0  0  0  0  0  0  0  0
   -7.4390   -0.9780   -0.0060 C   0  0  0  0  0  0  0  0  0  0  0  0
   -7.8160    0.0430    0.8100 C   0  0  0  0  0  0  0  0  0  0  0  0
   -9.1760    0.1630    1.1440 C   0  0  0  0  0  0  0  0  0  0  0  0
  -10.1020   -0.7290    0.6590 C   0  0  0  0  0  0  0  0  0  0  0  0
  -11.4200   -0.5760    1.0090 F   0  0  0  0  0  0  0  0  0  0  0  0
   -9.7010   -1.7560   -0.1650 C   0  0  0  0  0  0  0  0  0  0  0  0
   -8.3770   -1.8910   -0.5040 C   0  0  0  0  0  0  0  0  0  0  0  0
   -2.7690    1.6960   -1.4150 C   0  0  0  0  0  0  0  0  0  0  0  0
   -1.8010    2.5390   -1.3320 N   0  0  0  0  0  0  0  0  0  0  0  0
   -0.6400    2.3000   -0.5710 C   0  0  0  0  0  0  0  0  0  0  0  0
    0.2960    3.1930   -0.5340 O   0  0  0  0  0  0  0  0  0  0  0  0
    4.3660    2.2630   -0.1210 O   0  0  0  0  0  0  0  0  0  0  0  0
  1  2  1  0
  2  3  2  0
  2  7  1  0
  3  4  1  0
  4  5  2  0
  4 34  1  0
  5  6  1  0
  5 10  1  0
  6  7  2  0
  7  8  1  0
  8  9  1  0
 10 11  1  0
 11 12  1  6
 11 34  1  0
 12 13  2  0
 12 14  1  0
 14 15  1  0
 16 15  1  6
 16 17  1  0
 16 32  1  0
 17 18  2  0
 18 19  1  0
 18 30  1  0
 19 20  1  0
 20 21  2  0
 20 22  1  0
 22 23  1  0
 23 24  2  0
 23 29  1  0
 24 25  1  0
 25 26  2  0
 26 27  1  0
 26 28  1  0
 28 29  2  0
 30 31  2  0
 31 32  1  0
 32 33  2  0
M  END
