
     RDKit          3D

 35 38  0  0  0  0  0  0  0  0999 V2000
   -4.6180   -4.2910   -0.6100 C   0  0  0  0  0  0  0  0  0  0  0  0
   -4.2590   -3.1160   -1.5130 C   0  0  0  0  0  0  0  0  0  0  0  0
   -3.0840   -2.5450   -1.3830 C   0  0  0  0  0  0  0  0  0  0  0  0
   -2.6820   -1.4450   -2.1900 N   0  0  0  0  0  0  0  0  0  0  0  0
   -1.3990   -0.8660   -2.0780 C   0  0  0  0  0  0  0  0  0  0  0  0
   -0.9820    0.0840   -1.3520 C   0  0  0  0  0  0  0  0  0  0  0  0
    0.4530    0.4850   -1.4480 C   0  0  0  0  0  0  0  0  0  0  0  0
    0.8810    1.4440   -0.7190 O   0  0  0  0  0  0  0  0  0  0  0  0
    1.3300   -0.1530   -2.3040 N   0  0  0  0  0  0  0  0  0  0  0  0
    2.7310    0.2940   -2.3490 C   0  0  0  0  0  0  0  0  0  0  0  0
    3.3880   -0.2540   -1.1370 C   0  0  0  0  0  0  0  0  0  0  0  0
    3.6660   -1.6160   -1.1440 C   0  0  0  0  0  0  0  0  0  0  0  0
    4.2830   -2.1880   -0.0550 C   0  0  0  0  0  0  0  0  0  0  0  0
    4.6070   -1.3710    1.0230 C   0  0  0  0  0  0  0  0  0  0  0  0
    4.3330   -0.0240    1.0310 C   0  0  0  0  0  0  0  0  0  0  0  0
    4.6920    0.8300    2.1950 C   0  0  0  0  0  0  0  0  0  0  0  0
    5.9420    1.4960    1.8880 N   0  0  0  0  0  0  0  0  0  0  0  0
    7.0260    0.5490    1.9310 C   0  0  2  0  0  0  0  0  0  0  0  0
    8.2880    0.8100    1.1870 C   0  0  0  0  0  0  0  0  0  0  0  0
    7.2950   -0.1940    0.6700 C   0  0  0  0  0  0  0  0  0  0  0  0
    3.7070    0.5500   -0.0780 C   0  0  0  0  0  0  0  0  0  0  0  0
   -1.7340    0.8740   -0.4050 C   0  0  0  0  0  0  0  0  0  0  0  0
   -1.0620    1.7990    0.2260 O   0  0  0  0  0  0  0  0  0  0  0  0
   -3.0910    0.7130   -0.1360 N   0  0  0  0  0  0  0  0  0  0  0  0
   -3.8110    1.5110    0.8260 C   0  0  0  0  0  0  0  0  0  0  0  0
   -5.1870    1.6090    0.6880 C   0  0  0  0  0  0  0  0  0  0  0  0
   -5.9260    2.3330    1.5880 C   0  0  0  0  0  0  0  0  0  0  0  0
   -5.2820    2.9630    2.6320 C   0  0  0  0  0  0  0  0  0  0  0  0
   -3.9240    2.8940    2.8080 C   0  0  0  0  0  0  0  0  0  0  0  0
   -3.2220    3.5640    3.9230 C   0  0  0  0  0  0  0  0  0  0  0  0
   -3.2030    2.1450    1.8690 C   0  0  0  0  0  0  0  0  0  0  0  0
   -3.6390   -1.0090   -3.1460 C   0  0  0  0  0  0  0  0  0  0  0  0
   -4.8160   -1.5540   -3.3010 C   0  0  0  0  0  0  0  0  0  0  0  0
   -5.9530   -0.8960   -4.5680 S   0  0  0  0  0  0  0  0  0  0  0  0
   -5.2620   -2.6840   -2.4890 C   0  0  0  0  0  0  0  0  0  0  0  0
  1  2  1  0
  2  3  2  0
  2 35  1  0
  3  4  1  0
  4  5  1  0
  4 32  1  0
  5  6  2  3
  6  7  1  0
  6 22  1  0
  7  8  2  0
  7  9  1  0
  9 10  1  0
 10 11  1  0
 11 12  2  0
 11 21  1  0
 12 13  1  0
 13 14  2  0
 14 15  1  0
 15 16  1  0
 15 21  2  0
 16 17  1  0
 18 17  1  6
 18 19  1  0
 18 20  1  0
 19 20  1  0
 22 23  2  0
 22 24  1  0
 24 25  1  0
 25 26  2  0
 25 31  1  0
 26 27  1  0
 27 28  2  0
 28 29  1  0
 29 30  1  0
 29 31  2  0
 32 33  2  0
 33 34  1  0
 33 35  1  0
M  CHG  1  17   1
M  END
