
     RDKit          3D

 35 39  0  0  0  0  0  0  0  0999 V2000
    9.9130   -3.2860   -0.5180 C   0  0  0  0  0  0  0  0  0  0  0  0
    8.5850   -2.7980   -0.5610 O   0  0  0  0  0  0  0  0  0  0  0  0
    8.2920   -1.5000   -0.1410 C   0  0  0  0  0  0  0  0  0  0  0  0
    9.2980   -0.6870    0.3190 C   0  0  0  0  0  0  0  0  0  0  0  0
    8.9780    0.5880    0.7260 C   0  0  0  0  0  0  0  0  0  0  0  0
    7.6800    1.0300    0.6710 C   0  0  0  0  0  0  0  0  0  0  0  0
    7.4170    2.4200    1.1290 C   0  0  0  0  0  0  0  0  0  0  0  0
    6.6350    0.2230    0.2080 C   0  0  0  0  0  0  0  0  0  0  0  0
    5.3510    0.7900    0.2010 N   0  0  0  0  0  0  0  0  0  0  0  0
    4.1410    0.1850   -0.2210 C   0  0  0  0  0  0  0  0  0  0  0  0
    4.1980   -1.0000   -0.6410 O   0  0  0  0  0  0  0  0  0  0  0  0
    2.8390    0.8820   -0.1850 C   0  0  0  0  0  0  0  0  0  0  0  0
    2.6600    2.2030    0.0880 C   0  0  0  0  0  0  0  0  0  0  0  0
    1.3940    2.7840    0.1050 C   0  0  0  0  0  0  0  0  0  0  0  0
    0.3040    1.9720   -0.1670 C   0  0  0  0  0  0  0  0  0  0  0  0
    0.4300    0.6390   -0.4450 C   0  0  0  0  0  0  0  0  0  0  0  0
   -0.7170   -0.1500   -0.6900 N   0  0  0  0  0  0  0  0  0  0  0  0
   -2.0230    0.1070   -0.2010 C   0  0  0  0  0  0  0  0  0  0  0  0
   -3.1480   -0.3610   -0.8930 C   0  0  0  0  0  0  0  0  0  0  0  0
   -4.4260   -0.1530   -0.4250 C   0  0  0  0  0  0  0  0  0  0  0  0
   -4.6590    0.5280    0.7500 C   0  0  0  0  0  0  0  0  0  0  0  0
   -5.9870    0.7370    1.2210 N   0  0  0  0  0  0  0  0  0  0  0  0
   -7.0620    0.2040    0.4020 C   0  0  0  0  0  0  0  0  0  0  0  0
   -7.5100   -0.9960    0.6610 C   0  0  0  0  0  0  0  0  0  0  0  0
   -8.5510   -1.7340    0.0050 C   0  0  0  0  0  0  0  0  0  0  0  0
   -9.0800   -2.9620    0.1940 C   0  0  0  0  0  0  0  0  0  0  0  0
  -10.0960   -3.2150   -0.7340 N   0  0  0  0  0  0  0  0  0  0  0  0
  -10.1630   -2.0490   -1.5200 C   0  0  0  0  0  0  0  0  0  0  0  0
   -9.2680   -1.1560   -1.1150 C   0  0  0  0  0  0  0  0  0  0  0  0
   -8.8440    0.4870   -1.6710 S   0  0  0  0  0  0  0  0  0  0  0  0
   -7.5230    1.1260   -0.6550 C   0  0  0  0  0  0  0  0  0  0  0  0
   -3.5580    0.9910    1.4370 C   0  0  0  0  0  0  0  0  0  0  0  0
   -2.2540    0.7820    0.9680 C   0  0  0  0  0  0  0  0  0  0  0  0
    1.7130    0.1100   -0.4500 C   0  0  0  0  0  0  0  0  0  0  0  0
    6.9740   -1.0280   -0.1880 C   0  0  0  0  0  0  0  0  0  0  0  0
  1  2  1  0
  2  3  1  0
  3  4  2  0
  3 35  1  0
  4  5  1  0
  5  6  2  0
  6  7  1  0
  6  8  1  0
  8  9  1  0
  8 35  2  0
  9 10  1  0
 10 11  2  0
 10 12  1  0
 12 13  2  0
 12 34  1  0
 13 14  1  0
 14 15  2  0
 15 16  1  0
 16 17  1  0
 16 34  2  0
 17 18  1  0
 18 19  2  0
 18 33  1  0
 19 20  1  0
 20 21  2  0
 21 22  1  0
 21 32  1  0
 22 23  1  0
 23 24  2  0
 23 31  1  0
 24 25  1  0
 25 26  2  0
 25 29  1  0
 26 27  1  0
 27 28  1  0
 28 29  2  0
 29 30  1  0
 30 31  1  0
 32 33  2  0
M  CHG  1  27   1
M  END
