
     RDKit          3D

 34 37  0  0  0  0  0  0  0  0999 V2000
   -0.8740    1.8870    3.1910 C   0  0  0  0  0  0  0  0  0  0  0  0
   -1.3020    0.4510    3.0770 C   0  0  0  0  0  0  0  0  0  0  0  0
   -0.6090   -0.4470    2.1860 C   0  0  0  0  0  0  0  0  0  0  0  0
   -0.5460   -0.2990    0.7240 C   0  0  1  0  0  0  0  0  0  0  0  0
   -1.9680   -0.3840    0.2230 N   0  0  0  0  0  0  0  0  0  0  0  0
   -2.3090   -0.8920   -1.0490 C   0  0  0  0  0  0  0  0  0  0  0  0
   -1.4360   -1.2910   -1.8330 O   0  0  0  0  0  0  0  0  0  0  0  0
   -3.7720   -0.9040   -1.3410 C   0  0  0  0  0  0  0  0  0  0  0  0
   -4.6120   -1.9400   -0.9610 C   0  0  0  0  0  0  0  0  0  0  0  0
   -5.8750   -1.6110   -1.3870 C   0  0  0  0  0  0  0  0  0  0  0  0
   -5.7720   -0.3840   -2.0130 C   0  0  0  0  0  0  0  0  0  0  0  0
   -4.4910   -0.0200   -1.9520 O   0  0  0  0  0  0  0  0  0  0  0  0
   -6.9690    0.0090   -2.4590 C   0  0  0  0  0  0  0  0  0  0  0  0
   -7.9330   -1.0440   -2.0980 C   0  0  0  0  0  0  0  0  0  0  0  0
   -9.1500   -1.0880   -2.3230 O   0  0  0  0  0  0  0  0  0  0  0  0
   -7.1090   -2.0510   -1.4060 C   0  0  0  0  0  0  0  0  0  0  0  0
   -7.5970   -3.2130   -0.8990 F   0  0  0  0  0  0  0  0  0  0  0  0
   -0.0500    1.0030    0.2620 C   0  0  0  0  0  0  0  0  0  0  0  0
   -0.8890    2.0640    0.0970 C   0  0  0  0  0  0  0  0  0  0  0  0
   -0.4840    3.2120   -0.5660 C   0  0  0  0  0  0  0  0  0  0  0  0
   -1.3560    4.2620   -0.7100 F   0  0  0  0  0  0  0  0  0  0  0  0
    0.7770    3.2980   -1.0730 C   0  0  0  0  0  0  0  0  0  0  0  0
    1.6580    2.2340   -0.9190 C   0  0  0  0  0  0  0  0  0  0  0  0
    1.2480    1.1120   -0.2610 C   0  0  0  0  0  0  0  0  0  0  0  0
    2.1510    0.0780    0.0610 N   0  0  0  0  0  0  0  0  0  0  0  0
    3.5280    0.0470   -0.2120 C   0  0  0  0  0  0  0  0  0  0  0  0
    4.1330    0.9350   -0.8220 O   0  0  0  0  0  0  0  0  0  0  0  0
    4.2940   -1.0890    0.2620 N   0  0  0  0  0  0  0  0  0  0  0  0
    5.6730   -1.1720    0.0720 C   0  0  0  0  0  0  0  0  0  0  0  0
    6.3280   -0.8740   -1.0790 C   0  0  0  0  0  0  0  0  0  0  0  0
    7.7280   -0.9410   -1.0870 C   0  0  0  0  0  0  0  0  0  0  0  0
    8.4420   -1.2840    0.0020 N   0  0  0  0  0  0  0  0  0  0  0  0
    7.8120   -1.5820    1.1420 C   0  0  0  0  0  0  0  0  0  0  0  0
    6.4240   -1.5280    1.1880 C   0  0  0  0  0  0  0  0  0  0  0  0
  1  2  1  0
  2  3  1  0
  4  3  1  1
  4  5  1  0
  4 18  1  0
  5  6  1  0
  6  7  2  0
  6  8  1  0
  8  9  2  0
  8 12  1  0
  9 10  1  0
 10 11  1  0
 10 16  2  0
 11 12  1  0
 11 13  2  0
 13 14  1  0
 14 15  2  0
 14 16  1  0
 16 17  1  0
 18 19  2  0
 18 24  1  0
 19 20  1  0
 20 21  1  0
 20 22  2  0
 22 23  1  0
 23 24  2  0
 24 25  1  0
 25 26  1  0
 26 27  2  0
 26 28  1  0
 28 29  1  0
 29 30  2  0
 29 34  1  0
 30 31  1  0
 31 32  2  0
 32 33  1  0
 33 34  2  0
M  END
