
     RDKit          3D

 34 37  0  0  0  0  0  0  0  0999 V2000
   -2.6620    5.0370   -0.4770 C   0  0  0  0  0  0  0  0  0  0  0  0
   -3.0020    3.6160   -0.7540 N   0  0  0  0  0  0  0  0  0  0  0  0
   -2.1870    2.6610   -0.1260 C   0  0  0  0  0  0  0  0  0  0  0  0
   -1.2490    3.1050    0.6140 O   0  0  0  0  0  0  0  0  0  0  0  0
   -2.3600    1.2370   -0.2760 C   0  0  0  0  0  0  0  0  0  0  0  0
   -1.5470    0.3950    0.3580 C   0  0  0  0  0  0  0  0  0  0  0  0
   -0.4370    0.7010    1.2390 C   0  0  0  0  0  0  0  0  0  0  0  0
    0.8550    0.2300    0.6710 N   0  0  0  0  0  0  0  0  0  0  0  0
    2.0480    0.4290    1.3630 C   0  0  0  0  0  0  0  0  0  0  0  0
    3.1910   -0.1760    1.2190 C   0  0  0  0  0  0  0  0  0  0  0  0
    4.2450    0.3410    2.1710 C   0  0  0  0  0  0  0  0  0  0  0  0
    5.5730   -0.3020    1.9760 C   0  0  0  0  0  0  0  0  0  0  0  0
    6.2000    0.0560    0.7310 N   0  0  0  0  0  0  0  0  0  0  0  0
    6.0540   -0.2220   -0.6560 C   0  0  0  0  0  0  0  0  0  0  0  0
    7.1100   -0.1190   -1.3160 O   0  0  0  0  0  0  0  0  0  0  0  0
    4.9080   -0.6130   -1.5070 C   0  0  0  0  0  0  0  0  0  0  0  0
    4.1230   -1.7000   -0.8680 C   0  0  0  0  0  0  0  0  0  0  0  0
    3.2290   -1.2050    0.2050 C   0  0  0  0  0  0  0  0  0  0  0  0
    2.1750   -1.9050    0.2410 O   0  0  0  0  0  0  0  0  0  0  0  0
   -1.8190   -1.0580    0.1400 C   0  0  0  0  0  0  0  0  0  0  0  0
   -1.0110   -1.9690    0.8180 C   0  0  0  0  0  0  0  0  0  0  0  0
   -1.2170   -3.3470    0.6920 C   0  0  0  0  0  0  0  0  0  0  0  0
   -0.3910   -4.2600    1.3840 N   0  0  0  0  0  0  0  0  0  0  0  0
   -0.6270   -5.6750    1.2320 C   0  0  2  0  0  0  0  0  0  0  0  0
    0.2580   -6.4330    1.9710 F   0  0  0  0  0  0  0  0  0  0  0  0
   -0.4260   -6.0260   -0.0960 F   0  0  0  0  0  0  0  0  0  0  0  0
   -2.2380   -3.7670   -0.1170 C   0  0  0  0  0  0  0  0  0  0  0  0
   -3.0550   -2.8870   -0.8010 C   0  0  0  0  0  0  0  0  0  0  0  0
   -2.8290   -1.5340   -0.6590 C   0  0  0  0  0  0  0  0  0  0  0  0
   -3.6780   -0.5800   -1.3750 C   0  0  0  0  0  0  0  0  0  0  0  0
   -3.3690    0.7170   -1.0770 O   0  0  0  0  0  0  0  0  0  0  0  0
   -4.1000    3.3250   -1.6100 C   0  0  2  0  0  0  0  0  0  0  0  0
   -4.5300    4.3310   -2.6350 C   0  0  0  0  0  0  0  0  0  0  0  0
   -5.3180    4.1940   -1.3370 C   0  0  0  0  0  0  0  0  0  0  0  0
  1  2  1  0
  2  3  1  0
 32  2  1  1
  3  4  2  0
  3  5  1  0
  5  6  2  0
  5 31  1  0
  6  7  1  0
  6 20  1  0
  7  8  1  0
  8  9  1  0
  9 10  2  3
 10 11  1  0
 10 18  1  0
 11 12  1  0
 12 13  1  0
 13 14  1  0
 14 15  2  0
 14 16  1  0
 16 17  1  0
 17 18  1  0
 18 19  2  0
 20 21  2  0
 20 29  1  0
 21 22  1  0
 22 23  1  0
 22 27  2  0
 23 24  1  0
 24 25  1  1
 24 26  1  0
 27 28  1  0
 28 29  2  0
 29 30  1  0
 30 31  1  0
 32 33  1  0
 32 34  1  0
 33 34  1  0
M  END
