
     RDKit          3D

 19 19  0  0  0  0  0  0  0  0999 V2000
    5.2740   -1.9400    0.2900 C   0  0  0  0  0  0  0  0  0  0  0  0
    4.9640   -0.5700    0.0210 N   0  0  0  0  0  0  0  0  0  0  0  0
    3.5640   -0.2060   -0.0980 C   0  0  0  0  0  0  0  0  0  0  0  0
    2.7050   -1.1040    0.0390 O   0  0  0  0  0  0  0  0  0  0  0  0
    3.1650    1.1670   -0.3690 C   0  0  0  0  0  0  0  0  0  0  0  0
    1.7010    1.3980   -0.2540 C   0  0  0  0  0  0  0  0  0  0  0  0
    1.1250    1.1290    1.3810 S   0  0  1  0  0  0  0  0  0  0  0  0
    1.3830   -0.2080    1.9520 O   0  0  0  0  0  0  0  0  0  0  0  0
    1.7640    2.2210    2.2420 O   0  0  0  0  0  0  0  0  0  0  0  0
   -0.6400    1.4750    1.3680 C   0  0  0  0  0  0  0  0  0  0  0  0
   -1.3700    0.5950    0.4300 C   0  0  0  0  0  0  0  0  0  0  0  0
   -0.7560   -0.2820   -0.2210 O   0  0  0  0  0  0  0  0  0  0  0  0
   -2.7610    0.6970    0.2260 N   0  0  0  0  0  0  0  0  0  0  0  0
   -3.4950   -0.0920   -0.6360 N   0  0  0  0  0  0  0  0  0  0  0  0
   -4.7200   -0.7880   -0.2240 C   0  0  0  0  0  0  0  0  0  0  0  0
   -4.9240   -0.9350    1.0030 N   0  0  0  0  0  0  0  0  0  0  0  0
   -6.3910   -1.7650    1.4790 S   0  0  0  0  0  0  0  0  0  0  0  0
   -7.2990   -1.4500   -0.4740 S   0  0  0  0  0  0  0  0  0  0  0  0
   -5.6470   -1.2990   -1.2300 C   0  0  0  0  0  0  0  0  0  0  0  0
  1  2  1  0
  2  3  1  0
  3  4  2  0
  3  5  1  0
  5  6  1  0
  7  6  1  6
  7  8  2  0
  7  9  2  0
  7 10  1  0
 10 11  1  0
 11 12  2  0
 11 13  1  0
 13 14  1  0
 14 15  1  0
 15 16  2  0
 15 19  1  0
 16 17  1  0
 17 18  1  0
 18 19  1  0
M  END
