
     RDKit          3D

 19 20  0  0  0  0  0  0  0  0999 V2000
   -5.2390    0.2060    0.8210 N   0  0  0  0  0  0  0  0  0  0  0  0
   -4.4390    0.4330   -0.2610 C   0  0  0  0  0  0  0  0  0  0  0  0
   -4.3900   -0.4060   -1.2670 O   0  0  0  0  0  0  0  0  0  0  0  0
   -3.5550    1.5970   -0.4430 C   0  0  0  0  0  0  0  0  0  0  0  0
   -2.4620    1.3530    0.4300 O   0  0  0  0  0  0  0  0  0  0  0  0
   -1.1210    1.4860   -0.6590 S   0  0  2  0  0  0  0  0  0  0  0  0
   -0.4700    2.7620   -0.5780 O   0  0  0  0  0  0  0  0  0  0  0  0
   -1.6710    1.2490   -2.0800 O   0  0  0  0  0  0  0  0  0  0  0  0
   -0.0930    0.0530   -0.2830 C   0  0  0  0  0  0  0  0  0  0  0  0
   -0.3910   -1.2610   -0.3410 C   0  0  0  0  0  0  0  0  0  0  0  0
    0.7080   -1.9850   -0.0230 N   0  0  0  0  0  0  0  0  0  0  0  0
    1.7110   -1.1500    0.2290 C   0  0  0  0  0  0  0  0  0  0  0  0
    3.1110   -1.5290    0.6460 C   0  0  0  0  0  0  0  0  0  0  0  0
    4.1150   -1.7650    0.9400 N   0  0  0  0  0  0  0  0  0  0  0  0
    5.3310   -1.5770    0.7610 N   0  0  0  0  0  0  0  0  0  0  0  0
    5.7410   -0.8440   -0.0680 C   0  0  0  0  0  0  0  0  0  0  0  0
    7.2900   -0.2050   -0.7520 S   0  0  0  0  0  0  0  0  0  0  0  0
    4.1190   -0.2670   -0.7690 S   0  0  0  0  0  0  0  0  0  0  0  0
    1.2080    0.1630    0.0770 C   0  0  0  0  0  0  0  0  0  0  0  0
  1  2  1  0
  2  3  2  0
  2  4  1  0
  4  5  1  0
  6  5  1  1
  6  7  2  0
  6  8  2  0
  6  9  1  0
  9 10  2  0
  9 19  1  0
 10 11  1  0
 11 12  1  0
 12 13  1  0
 12 19  2  0
 13 14  2  0
 13 18  1  0
 14 15  1  0
 15 16  2  0
 16 17  1  0
 16 18  1  0
M  END
