
     RDKit          3D

 19 20  0  0  0  0  0  0  0  0999 V2000
   -6.3380    0.4170   -1.1860 O   0  0  0  0  0  0  0  0  0  0  0  0
   -5.2410   -0.0330   -0.7020 C   0  0  0  0  0  0  0  0  0  0  0  0
   -4.5300   -1.1530   -1.3840 C   0  0  0  0  0  0  0  0  0  0  0  0
   -2.7980   -0.5650   -1.5420 S   0  0  0  0  0  0  0  0  0  0  0  0
   -2.4020    0.2130    0.0160 C   0  0  0  0  0  0  0  0  0  0  0  0
   -1.0030    0.3480    0.3920 C   0  0  0  0  0  0  0  0  0  0  0  0
   -0.6790    0.8980    1.4950 O   0  0  0  0  0  0  0  0  0  0  0  0
   -0.0120   -0.1420   -0.4890 N   0  0  0  0  0  0  0  0  0  0  0  0
    1.3610    0.0320   -0.0400 C   0  0  0  0  0  0  0  0  0  0  0  0
    1.8670    0.5360    0.9890 N   0  0  0  0  0  0  0  0  0  0  0  0
    3.1310    0.6160    1.2470 C   0  0  0  0  0  0  0  0  0  0  0  0
    3.8740    1.3570    2.7580 S   0  0  0  0  0  0  0  0  0  0  0  0
    3.9940    0.0680    0.2430 C   0  0  0  0  0  0  0  0  0  0  0  0
    5.4150   -0.0200    0.1820 C   0  0  0  0  0  0  0  0  0  0  0  0
    6.1660    0.4120    1.0900 O   0  0  0  0  0  0  0  0  0  0  0  0
    6.0510   -0.6030   -0.9100 O   0  0  0  0  0  0  0  0  0  0  0  0
    2.7610   -0.4910   -0.9510 S   0  0  0  0  0  0  0  0  0  0  0  0
   -3.3620    0.6360    0.7680 N   0  0  0  0  0  0  0  0  0  0  0  0
   -4.7170    0.5470    0.4810 N   0  0  0  0  0  0  0  0  0  0  0  0
  1  2  2  0
  2  3  1  0
  2 19  1  0
  3  4  1  0
  4  5  1  0
  5  6  1  0
  5 18  2  0
  6  7  2  0
  6  8  1  0
  8  9  1  0
  9 10  2  0
  9 17  1  0
 10 11  1  0
 11 12  1  0
 11 13  2  0
 13 14  1  0
 13 17  1  0
 14 15  2  0
 14 16  1  0
 18 19  1  0
M  END
