
     RDKit          3D

 19 20  0  0  0  0  0  0  0  0999 V2000
    2.8600   -4.3870    0.2310 N   0  0  0  0  0  0  0  0  0  0  0  0
    1.2330   -3.9640    0.6270 S   0  0  2  0  0  0  0  0  0  0  0  0
    0.7830   -4.9000    1.7100 O   0  0  0  0  0  0  0  0  0  0  0  0
    0.3120   -4.1330   -0.5500 O   0  0  0  0  0  0  0  0  0  0  0  0
    1.2260   -2.3610    1.2590 C   0  0  0  0  0  0  0  0  0  0  0  0
    1.3330   -1.8380    2.3350 N   0  0  0  0  0  0  0  0  0  0  0  0
    1.2900   -0.5710    2.5620 N   0  0  0  0  0  0  0  0  0  0  0  0
    1.1330    0.2780    1.7040 C   0  0  0  0  0  0  0  0  0  0  0  0
    1.0390    1.6830    1.5450 N   0  0  0  0  0  0  0  0  0  0  0  0
    0.7950    2.4560    0.0410 S   0  0  1  0  0  0  0  0  0  0  0  0
    0.8030    3.9620    0.2850 O   0  0  0  0  0  0  0  0  0  0  0  0
    1.9660    2.2030   -0.8910 O   0  0  0  0  0  0  0  0  0  0  0  0
   -0.7020    2.0020   -0.6820 C   0  0  0  0  0  0  0  0  0  0  0  0
   -1.8660    2.5910   -0.1860 C   0  0  0  0  0  0  0  0  0  0  0  0
   -3.0890    2.2990   -0.7150 C   0  0  0  0  0  0  0  0  0  0  0  0
   -3.1620    1.4040   -1.7560 C   0  0  0  0  0  0  0  0  0  0  0  0
   -2.0170    0.8230   -2.2450 C   0  0  0  0  0  0  0  0  0  0  0  0
   -0.7650    1.1170   -1.7100 C   0  0  0  0  0  0  0  0  0  0  0  0
    1.0050   -0.8560    0.1960 S   0  0  0  0  0  0  0  0  0  0  0  0
  2  1  1  6
  2  3  2  0
  2  4  2  0
  2  5  1  0
  5  6  2  0
  5 19  1  0
  6  7  1  0
  7  8  2  0
  8  9  1  0
  8 19  1  0
 10  9  1  1
 10 11  2  0
 10 12  2  0
 10 13  1  0
 13 14  2  0
 13 18  1  0
 14 15  1  0
 15 16  2  0
 16 17  1  0
 17 18  2  0
M  END
