
     RDKit          3D

 19 19  0  0  0  0  0  0  0  0999 V2000
   -4.2240    0.7300   -0.8110 O   0  0  0  0  0  0  0  0  0  0  0  0
   -4.7750    0.0450    0.0990 C   0  0  0  0  0  0  0  0  0  0  0  0
   -5.9230    0.6000    0.6950 O   0  0  0  0  0  0  0  0  0  0  0  0
   -4.2520   -1.2120    0.4860 N   0  0  0  0  0  0  0  0  0  0  0  0
   -3.0690   -1.7070   -0.1620 C   0  0  0  0  0  0  0  0  0  0  0  0
   -1.9310   -0.8160    0.1240 C   0  0  0  0  0  0  0  0  0  0  0  0
   -0.8410   -1.1490   -0.4690 O   0  0  0  0  0  0  0  0  0  0  0  0
   -2.0060    0.3010    0.9670 N   0  0  0  0  0  0  0  0  0  0  0  0
   -0.8740    1.1170    1.1870 N   0  0  0  0  0  0  0  0  0  0  0  0
   -0.2230    1.6210    0.0310 C   0  0  0  0  0  0  0  0  0  0  0  0
   -0.6030    1.3780   -1.1540 O   0  0  0  0  0  0  0  0  0  0  0  0
    0.9720    2.4820    0.2210 C   0  0  0  0  0  0  0  0  0  0  0  0
    2.3950    1.3920    0.3480 S   0  0  0  0  0  0  0  0  0  0  0  0
    2.6370    0.5470   -1.2320 C   0  0  0  0  0  0  0  0  0  0  0  0
    3.8330   -0.3700   -1.0720 C   0  0  0  0  0  0  0  0  0  0  0  0
    4.8730   -0.3490   -1.7560 N   0  0  0  0  0  0  0  0  0  0  0  0
    6.1190   -1.4820   -1.4110 S   0  0  0  0  0  0  0  0  0  0  0  0
    5.6530   -1.9810    0.3040 C   0  0  0  0  0  0  0  0  0  0  0  0
    3.8750   -1.6430    0.1620 S   0  0  0  0  0  0  0  0  0  0  0  0
  1  2  2  0
  2  3  1  0
  2  4  1  0
  4  5  1  0
  5  6  1  0
  6  7  2  0
  6  8  1  0
  8  9  1  0
  9 10  1  0
 10 11  2  0
 10 12  1  0
 12 13  1  0
 13 14  1  0
 14 15  1  0
 15 16  2  0
 15 19  1  0
 16 17  1  0
 17 18  1  0
 18 19  1  0
M  END
