
     RDKit          3D

 19 20  0  0  0  0  0  0  0  0999 V2000
    3.6310    2.2020   -0.5430 C   0  0  0  0  0  0  0  0  0  0  0  0
    2.3210    1.2180    0.2190 S   0  0  0  0  0  0  0  0  0  0  0  0
    2.6720   -0.5040   -0.0760 C   0  0  0  0  0  0  0  0  0  0  0  0
    3.7170   -1.0190   -0.7510 N   0  0  0  0  0  0  0  0  0  0  0  0
    3.6580   -2.3280   -0.7720 N   0  0  0  0  0  0  0  0  0  0  0  0
    2.5650   -2.7030   -0.1060 C   0  0  0  0  0  0  0  0  0  0  0  0
    1.9200   -1.5700    0.3460 C   0  0  0  0  0  0  0  0  0  0  0  0
    0.4460   -1.5690    1.2690 S   0  0  2  0  0  0  0  0  0  0  0  0
    0.6220   -0.9110    2.6060 O   0  0  0  0  0  0  0  0  0  0  0  0
   -0.0480   -2.9720    1.4680 O   0  0  0  0  0  0  0  0  0  0  0  0
   -0.8080   -0.6970    0.4230 N   0  0  0  0  0  0  0  0  0  0  0  0
   -2.0490   -0.4220    1.0140 C   0  0  0  0  0  0  0  0  0  0  0  0
   -2.2660   -0.8240    2.2080 O   0  0  0  0  0  0  0  0  0  0  0  0
   -3.1470    0.3000    0.3740 C   0  0  0  0  0  0  0  0  0  0  0  0
   -3.2590    0.8590   -0.8720 C   0  0  0  0  0  0  0  0  0  0  0  0
   -4.3520    1.4570   -1.2210 N   0  0  0  0  0  0  0  0  0  0  0  0
   -5.3850    1.5350   -0.3660 C   0  0  0  0  0  0  0  0  0  0  0  0
   -6.5530    2.0470   -0.4300 O   0  0  0  0  0  0  0  0  0  0  0  0
   -4.7160    0.6580    1.0900 S   0  0  0  0  0  0  0  0  0  0  0  0
  1  2  1  0
  2  3  1  0
  3  4  1  0
  3  7  2  0
  4  5  1  0
  5  6  2  0
  6  7  1  0
  7  8  1  0
  8  9  2  0
  8 10  2  0
  8 11  1  6
 11 12  1  0
 12 13  2  0
 12 14  1  0
 14 15  2  0
 14 19  1  0
 15 16  1  0
 16 17  1  0
 17 18  2  0
 17 19  1  0
M  END
