
     RDKit          3D

 19 19  0  0  0  0  0  0  0  0999 V2000
   -5.5300   -3.0160   -0.8080 C   0  0  0  0  0  0  0  0  0  0  0  0
   -4.1490   -2.6710   -0.5950 N   0  0  0  0  0  0  0  0  0  0  0  0
   -3.8120   -1.4680   -0.0040 N   0  0  0  0  0  0  0  0  0  0  0  0
   -2.6310   -0.9610   -0.0210 C   0  0  0  0  0  0  0  0  0  0  0  0
   -1.1730   -1.5250   -0.7110 S   0  0  0  0  0  0  0  0  0  0  0  0
    0.0990   -0.3330   -0.3270 C   0  0  0  0  0  0  0  0  0  0  0  0
    1.3660   -0.6520   -0.8520 N   0  0  0  0  0  0  0  0  0  0  0  0
    2.6190   -0.2810   -0.1860 C   0  0  0  0  0  0  0  0  0  0  0  0
    2.5540    0.2420    0.8950 O   0  0  0  0  0  0  0  0  0  0  0  0
    3.6590   -0.6670   -1.0450 N   0  0  0  0  0  0  0  0  0  0  0  0
    4.9640   -0.1790    0.0130 C   0  0  0  0  0  0  0  0  0  0  0  0
    4.6380    0.2760    1.0400 O   0  0  0  0  0  0  0  0  0  0  0  0
    6.4980   -0.5110   -0.7670 S   0  0  0  0  0  0  0  0  0  0  0  0
   -0.3390    0.6590    0.3490 C   0  0  0  0  0  0  0  0  0  0  0  0
    0.2020    1.9690    0.7260 C   0  0  0  0  0  0  0  0  0  0  0  0
    1.3050    2.4050    0.3620 O   0  0  0  0  0  0  0  0  0  0  0  0
   -0.5120    2.8520    1.5530 O   0  0  0  0  0  0  0  0  0  0  0  0
    0.0230    4.1110    1.9100 C   0  0  0  0  0  0  0  0  0  0  0  0
   -2.1370    0.4180    0.6570 S   0  0  0  0  0  0  0  0  0  0  0  0
  1  2  1  0
  2  3  1  0
  3  4  2  3
  4  5  1  0
  4 19  1  0
  5  6  1  0
  6  7  1  0
  6 14  2  0
  7  8  1  0
  8  9  2  0
  8 10  1  0
 10 11  1  0
 11 12  2  0
 11 13  1  0
 14 15  1  0
 14 19  1  0
 15 16  2  0
 15 17  1  0
 17 18  1  0
M  END
