
     RDKit          3D

 28 31  0  0  0  0  0  0  0  0999 V2000
    4.5090   -2.8090   -0.0900 C   0  0  0  0  0  0  0  0  0  0  0  0
    3.9740   -1.4230    0.2770 C   0  0  0  0  0  0  0  0  0  0  0  0
    2.5150   -1.2960   -0.1700 C   0  0  2  0  0  0  0  0  0  0  0  0
    2.6030   -1.4710   -1.5680 O   0  0  0  0  0  0  0  0  0  0  0  0
    1.9140   -0.0770    0.3200 C   0  0  1  0  0  0  0  0  0  0  0  0
    2.7250    1.0500   -0.3030 C   0  0  2  0  0  0  0  0  0  0  0  0
    2.4840    2.2030    0.4980 O   0  0  0  0  0  0  0  0  0  0  0  0
    2.2160    1.3920   -1.6740 C   0  0  0  0  0  0  0  0  0  0  0  0
    0.9170    2.0680   -1.4200 C   0  0  0  0  0  0  0  0  0  0  0  0
    0.1190    1.6230   -0.2520 C   0  0  1  0  0  0  0  0  0  0  0  0
   -1.3020    1.5380   -0.6570 C   0  0  2  0  0  0  0  0  0  0  0  0
   -2.2770    2.4060   -0.0220 C   0  0  0  0  0  0  0  0  0  0  0  0
   -2.1480    3.8760   -0.1740 C   0  0  0  0  0  0  0  0  0  0  0  0
   -1.0120    4.6200    0.3730 C   0  0  0  0  0  0  0  0  0  0  0  0
   -0.9100    4.4710    1.7610 O   0  0  0  0  0  0  0  0  0  0  0  0
   -1.5750    0.0750   -0.7090 C   0  0  1  0  0  0  0  0  0  0  0  0
   -3.0130   -0.2460   -0.6200 C   0  0  0  0  0  0  0  0  0  0  0  0
   -3.4940    0.1320   -2.0080 C   0  0  0  0  0  0  0  0  0  0  0  0
   -2.3310    0.5120   -2.7250 O   0  0  0  0  0  0  0  0  0  0  0  0
   -1.3730   -0.3870   -2.1630 C   0  0  0  0  0  0  0  0  0  0  0  0
   -0.6380   -0.6500    0.2310 C   0  0  1  0  0  0  0  0  0  0  0  0
   -1.5060   -0.8260    1.4960 C   0  0  0  0  0  0  0  0  0  0  0  0
   -0.6880   -1.4220    2.6300 C   0  0  0  0  0  0  0  0  0  0  0  0
    0.0040   -2.6670    2.2120 C   0  0  0  0  0  0  0  0  0  0  0  0
   -0.5200   -3.1110    0.8930 C   0  0  1  0  0  0  0  0  0  0  0  0
   -1.7940   -3.8810    1.0880 C   0  0  0  0  0  0  0  0  0  0  0  0
   -0.5400   -2.0640   -0.1930 C   0  0  0  0  0  0  0  0  0  0  0  0
    0.4970    0.2530    0.3760 C   0  0  1  0  0  0  0  0  0  0  0  0
  1  2  1  0
  2  3  1  0
  3  4  1  6
  5  3  1  6
  5  6  1  0
  5 28  1  0
  6  7  1  1
  6  8  1  0
  8  9  1  0
 10  9  1  6
 10 11  1  0
 10 28  1  0
 11 12  1  1
 11 16  1  0
 12 13  1  0
 13 14  1  0
 14 15  1  0
 16 17  1  1
 16 20  1  0
 16 21  1  0
 17 18  1  0
 18 19  1  0
 19 20  1  0
 21 22  1  1
 21 27  1  0
 28 21  1  6
 22 23  1  0
 23 24  1  0
 24 25  1  0
 25 26  1  1
 25 27  1  0
M  END
