
     RDKit          3D

 12 13  0  0  0  0  0  0  0  0999 V2000
    4.0270    0.7960   -0.3440 O   0  0  0  0  0  0  0  0  0  0  0  0
    2.7010    0.3340   -0.3810 C   0  0  0  0  0  0  0  0  0  0  0  0
    2.4450   -0.9320   -0.8290 C   0  0  0  0  0  0  0  0  0  0  0  0
    1.1270   -1.4060   -0.8700 C   0  0  0  0  0  0  0  0  0  0  0  0
    0.0870   -0.6080   -0.4640 C   0  0  0  0  0  0  0  0  0  0  0  0
    0.3460    0.6650   -0.0140 C   0  0  0  0  0  0  0  0  0  0  0  0
    1.6490    1.1230    0.0240 C   0  0  0  0  0  0  0  0  0  0  0  0
   -0.8220    1.4790    0.4110 C   0  0  0  0  0  0  0  0  0  0  0  0
   -1.8440    0.7110    1.1890 C   0  0  0  0  0  0  0  0  0  0  0  0
   -2.0200   -0.7140    0.7620 C   0  0  0  0  0  0  0  0  0  0  0  0
   -1.3020   -1.0840   -0.4990 C   0  0  1  0  0  0  0  0  0  0  0  0
   -1.9540   -0.5150   -1.5920 O   0  0  0  0  0  0  0  0  0  0  0  0
  1  2  1  0
  2  3  2  0
  2  7  1  0
  3  4  1  0
  4  5  2  0
  5  6  1  0
  5 11  1  0
  6  7  2  0
  6  8  1  0
  8  9  1  0
  9 10  1  0
 10 11  1  0
 11 12  1  6
M  END
