
     RDKit          3D

 12 13  0  0  0  0  0  0  0  0999 V2000
   -2.6880    0.4280    1.5200 C   0  0  0  0  0  0  0  0  0  0  0  0
   -2.2730    0.3840    0.0420 C   0  0  1  0  0  0  0  0  0  0  0  0
   -2.9290   -0.7920   -0.6360 C   0  0  0  0  0  0  0  0  0  0  0  0
   -2.6470    1.5530   -0.5420 O   0  0  0  0  0  0  0  0  0  0  0  0
   -0.7940    0.1620    0.0070 C   0  0  0  0  0  0  0  0  0  0  0  0
    0.1420    1.1320   -0.3560 C   0  0  0  0  0  0  0  0  0  0  0  0
    1.3920    0.5620   -0.2580 C   0  0  0  0  0  0  0  0  0  0  0  0
    1.1900   -0.7340    0.1520 C   0  0  0  0  0  0  0  0  0  0  0  0
   -0.1210   -0.8800    0.2820 O   0  0  0  0  0  0  0  0  0  0  0  0
    2.4970   -1.4020    0.2770 C   0  0  0  0  0  0  0  0  0  0  0  0
    3.4720   -0.5130   -0.4270 C   0  0  0  0  0  0  0  0  0  0  0  0
    2.8550    0.8370   -0.4130 C   0  0  0  0  0  0  0  0  0  0  0  0
  2  1  1  1
  2  3  1  0
  2  4  1  0
  2  5  1  0
  5  6  2  0
  5  9  1  0
  6  7  1  0
  7  8  2  0
  7 12  1  0
  8  9  1  0
  8 10  1  0
 10 11  1  0
 11 12  1  0
M  END
