
     RDKit          3D

 12 13  0  0  0  0  0  0  0  0999 V2000
   -2.7120    1.3250    0.0580 C   0  0  0  0  0  0  0  0  0  0  0  0
   -1.6550    0.2600    0.2510 C   0  0  1  0  0  0  0  0  0  0  0  0
   -2.2890   -1.0280    0.7180 C   0  0  0  0  0  0  0  0  0  0  0  0
   -0.8710    0.0840   -1.0210 C   0  0  0  0  0  0  0  0  0  0  0  0
    0.5310   -0.0910   -0.5810 C   0  0  0  0  0  0  0  0  0  0  0  0
    1.6540   -0.5090   -1.2640 C   0  0  0  0  0  0  0  0  0  0  0  0
    2.8930   -0.5960   -0.6200 C   0  0  0  0  0  0  0  0  0  0  0  0
    2.9710   -0.2550    0.7150 C   0  0  0  0  0  0  0  0  0  0  0  0
    4.2130   -0.3420    1.3620 O   0  0  0  0  0  0  0  0  0  0  0  0
    1.8340    0.1540    1.3560 C   0  0  0  0  0  0  0  0  0  0  0  0
    0.5950    0.2520    0.7520 C   0  0  0  0  0  0  0  0  0  0  0  0
   -0.6850    0.6360    1.1860 O   0  0  0  0  0  0  0  0  0  0  0  0
  2  1  1  6
  2  3  1  0
  2  4  1  0
  2 12  1  0
  4  5  1  0
  5  6  2  0
  5 11  1  0
  6  7  1  0
  7  8  2  0
  8  9  1  0
  8 10  1  0
 10 11  2  0
 11 12  1  0
M  END
