
     RDKit          3D

 12 13  0  0  0  0  0  0  0  0999 V2000
   -0.0710   -0.0070    1.6320 O   0  0  0  0  0  0  0  0  0  0  0  0
    0.1020   -0.0490    0.2510 C   0  0  2  0  0  0  0  0  0  0  0  0
    1.5270    0.0720    0.0030 C   0  0  0  0  0  0  0  0  0  0  0  0
    2.2820   -0.5430   -0.9570 C   0  0  0  0  0  0  0  0  0  0  0  0
    3.5820   -0.1040   -0.7880 C   0  0  0  0  0  0  0  0  0  0  0  0
    3.5370    0.7640    0.2840 C   0  0  0  0  0  0  0  0  0  0  0  0
    2.3280    0.8320    0.7070 O   0  0  0  0  0  0  0  0  0  0  0  0
   -0.6040    1.2000   -0.2900 C   0  0  0  0  0  0  0  0  0  0  0  0
   -1.9440    1.2440    0.4160 C   0  0  0  0  0  0  0  0  0  0  0  0
   -2.7430    0.0750   -0.1290 C   0  0  0  0  0  0  0  0  0  0  0  0
   -2.0180   -1.2040    0.2210 C   0  0  0  0  0  0  0  0  0  0  0  0
   -0.5970   -1.2280   -0.2920 C   0  0  0  0  0  0  0  0  0  0  0  0
  2  1  1  1
  2  3  1  0
  2  8  1  0
  2 12  1  0
  3  4  2  0
  3  7  1  0
  4  5  1  0
  5  6  2  0
  6  7  1  0
  8  9  1  0
  9 10  1  0
 10 11  1  0
 11 12  1  0
M  END
