
     RDKit          3D

 12 13  0  0  0  0  0  0  0  0999 V2000
   -2.8460   -2.1140   -0.2400 O   0  0  0  0  0  0  0  0  0  0  0  0
   -2.1260   -0.9210   -0.2280 C   0  0  0  0  0  0  0  0  0  0  0  0
   -2.7500    0.3010   -0.2030 C   0  0  0  0  0  0  0  0  0  0  0  0
   -2.0180    1.4640   -0.2000 C   0  0  0  0  0  0  0  0  0  0  0  0
   -0.6400    1.4420   -0.2200 C   0  0  0  0  0  0  0  0  0  0  0  0
    0.0080    0.2150   -0.2460 C   0  0  0  0  0  0  0  0  0  0  0  0
    1.4710    0.1500   -0.1930 C   0  0  0  0  0  0  0  0  0  0  0  0
    2.2040   -1.0160   -0.0530 C   0  0  0  0  0  0  0  0  0  0  0  0
    3.5330   -0.6020   -0.0030 C   0  0  0  0  0  0  0  0  0  0  0  0
    3.5460    0.6940   -0.1080 O   0  0  0  0  0  0  0  0  0  0  0  0
    2.3410    1.1990   -0.2260 C   0  0  0  0  0  0  0  0  0  0  0  0
   -0.7400   -0.9290   -0.2510 C   0  0  0  0  0  0  0  0  0  0  0  0
  1  2  1  0
  2  3  2  0
  2 12  1  0
  3  4  1  0
  4  5  2  0
  5  6  1  0
  6  7  1  0
  6 12  2  0
  7  8  1  0
  7 11  2  0
  8  9  2  0
  9 10  1  0
 10 11  1  0
M  END
