
     RDKit          3D

 22 22  0  0  0  0  0  0  0  0999 V2000
   -2.1820   -1.8340   -0.7350 C   0  0  0  0  0  0  0  0  0  0  0  0
   -2.4710   -0.5840    0.0060 C   0  0  1  0  0  0  0  0  0  0  0  0
   -1.4840   -0.0090    0.9250 C   0  0  0  0  0  0  0  0  0  0  0  0
   -0.2400    0.3830    0.4010 N   0  0  0  0  0  0  0  0  0  0  0  0
    0.7100   -0.5170   -0.1230 C   0  0  0  0  0  0  0  0  0  0  0  0
    0.5790   -1.7540   -0.1700 O   0  0  0  0  0  0  0  0  0  0  0  0
    2.0010    0.0380   -0.6770 C   0  0  1  0  0  0  0  0  0  0  0  0
    1.9670    1.4330   -0.6170 O   0  0  0  0  0  0  0  0  0  0  0  0
    3.1180   -0.5290    0.1500 C   0  0  2  0  0  0  0  0  0  0  0  0
    3.0510   -2.0340    0.0970 C   0  0  0  0  0  0  0  0  0  0  0  0
    2.9500   -0.1580    1.4970 O   0  0  0  0  0  0  0  0  0  0  0  0
    4.4850   -0.1300   -0.3400 C   0  0  0  0  0  0  0  0  0  0  0  0
    4.7170    1.3180   -0.3490 C   0  0  0  0  0  0  0  0  0  0  0  0
    5.2940    1.9570    0.7670 N   0  0  0  0  0  0  0  0  0  0  0  0
    4.3990    1.9900   -1.3610 O   0  0  0  0  0  0  0  0  0  0  0  0
   -2.9170    0.4770   -1.0070 C   0  0  0  0  0  0  0  0  0  0  0  0
   -3.9810    1.2920   -0.3590 C   0  0  1  0  0  0  0  0  0  0  0  0
   -4.4580    2.2090   -1.2870 O   0  0  0  0  0  0  0  0  0  0  0  0
   -5.0460    0.2830    0.0310 C   0  0  0  0  0  0  0  0  0  0  0  0
   -4.0270   -0.8870    0.8950 S   0  0  2  0  0  0  0  0  0  0  0  0
   -3.8780   -0.4190    2.3020 O   0  0  0  0  0  0  0  0  0  0  0  0
   -4.4830   -2.2780    0.7560 O   0  0  0  0  0  0  0  0  0  0  0  0
  2  1  1  6
  2  3  1  0
  2 16  1  0
  2 20  1  0
  3  4  1  0
  4  5  1  0
  5  6  2  0
  5  7  1  0
  7  8  1  1
  7  9  1  0
  9 10  1  1
  9 11  1  0
  9 12  1  0
 12 13  1  0
 13 14  1  0
 13 15  2  0
 16 17  1  0
 17 18  1  6
 17 19  1  0
 20 19  1  6
 20 21  2  0
 20 22  2  0
M  END
