
     RDKit          3D

 21 23  0  0  0  0  0  0  0  0999 V2000
    4.1390    2.6530    0.2440 C   0  0  0  0  0  0  0  0  0  0  0  0
    3.9100    1.2180    0.4530 C   0  0  0  0  0  0  0  0  0  0  0  0
    2.6600    0.6410    0.2370 C   0  0  0  0  0  0  0  0  0  0  0  0
    2.4500   -0.6720    0.4280 N   0  0  0  0  0  0  0  0  0  0  0  0
    1.1920   -1.3240    0.2250 C   0  0  2  0  0  0  0  0  0  0  0  0
    1.2260   -1.9930   -1.1310 C   0  0  0  0  0  0  0  0  0  0  0  0
    0.1230   -1.2160   -1.8610 C   0  0  1  0  0  0  0  0  0  0  0  0
   -0.4460   -2.0500   -2.8080 O   0  0  0  0  0  0  0  0  0  0  0  0
   -0.8070   -0.9350   -0.7000 C   0  0  2  0  0  0  0  0  0  0  0  0
   -1.8090    0.1430   -1.0310 C   0  0  0  0  0  0  0  0  0  0  0  0
   -2.5810    0.5540    0.1000 N   0  0  1  0  0  0  0  0  0  0  0  0
   -3.4740    1.6110   -0.2520 C   0  0  0  0  0  0  0  0  0  0  0  0
   -4.8640    1.1990    0.1620 C   0  0  0  0  0  0  0  0  0  0  0  0
   -4.5970    0.1550    1.2210 C   0  0  0  0  0  0  0  0  0  0  0  0
   -3.3370   -0.5040    0.7050 C   0  0  0  0  0  0  0  0  0  0  0  0
    0.1000   -0.5050    0.2680 O   0  0  0  0  0  0  0  0  0  0  0  0
    3.4910   -1.4280    0.8380 C   0  0  0  0  0  0  0  0  0  0  0  0
    3.3220   -2.6710    1.0270 O   0  0  0  0  0  0  0  0  0  0  0  0
    4.7090   -0.9400    1.0620 N   0  0  0  0  0  0  0  0  0  0  0  0
    4.9150    0.3760    0.8690 C   0  0  0  0  0  0  0  0  0  0  0  0
    6.0490    0.8970    1.0650 O   0  0  0  0  0  0  0  0  0  0  0  0
  1  2  1  0
  2  3  2  0
  2 20  1  0
  3  4  1  0
  5  4  1  6
  4 17  1  0
  5  6  1  0
  5 16  1  0
  6  7  1  0
  7  8  1  6
  7  9  1  0
  9 10  1  6
  9 16  1  0
 11 10  1  6
 11 12  1  0
 11 15  1  0
 12 13  1  0
 13 14  1  0
 14 15  1  0
 17 18  2  0
 17 19  1  0
 19 20  1  0
 20 21  2  0
M  CHG  1  11   1
M  END
