
     RDKit          3D

 44 47  0  0  0  0  0  0  0  0999 V2000
  -10.6480    2.7040   -0.7310 C   0  0  0  0  0  0  0  0  0  0  0  0
   -9.7360    1.8100    0.4840 S   0  0  0  0  0  0  0  0  0  0  0  0
  -10.6940    1.0780    1.4130 O   0  0  0  0  0  0  0  0  0  0  0  0
   -8.5020    0.7040   -0.0520 C   0  0  0  0  0  0  0  0  0  0  0  0
   -7.3370    1.2710   -0.8470 C   0  0  1  0  0  0  0  0  0  0  0  0
   -7.8770    1.9080   -2.0990 C   0  0  0  0  0  0  0  0  0  0  0  0
   -8.5640    1.0000   -2.8900 O   0  0  0  0  0  0  0  0  0  0  0  0
   -6.5450    2.2180   -0.0070 C   0  0  0  0  0  0  0  0  0  0  0  0
   -5.1620    2.5370   -0.5020 C   0  0  0  0  0  0  0  0  0  0  0  0
   -4.5080    1.2610   -0.8630 N   0  0  0  0  0  0  0  0  0  0  0  0
   -3.3100    0.8890   -0.2150 C   0  0  0  0  0  0  0  0  0  0  0  0
   -2.8150    1.6790    0.6540 O   0  0  0  0  0  0  0  0  0  0  0  0
   -2.6520   -0.3280   -0.5020 N   0  0  0  0  0  0  0  0  0  0  0  0
   -1.4560   -0.8230    0.0690 C   0  0  0  0  0  0  0  0  0  0  0  0
   -0.7950   -0.1580    1.0640 C   0  0  0  0  0  0  0  0  0  0  0  0
    0.3850   -0.6360    1.6600 C   0  0  0  0  0  0  0  0  0  0  0  0
    0.9550   -1.8080    1.2770 C   0  0  0  0  0  0  0  0  0  0  0  0
    2.1960   -2.3650    1.7300 C   0  0  0  0  0  0  0  0  0  0  0  0
    2.2460   -3.6610    1.6240 O   0  0  0  0  0  0  0  0  0  0  0  0
    3.3290   -1.7330    2.2540 N   0  0  0  0  0  0  0  0  0  0  0  0
    4.3220   -2.7370    2.7170 C   0  0  0  0  0  0  0  0  0  0  0  0
    5.2100   -3.1710    1.6320 C   0  0  0  0  0  0  0  0  0  0  0  0
    4.5460   -3.7590    0.5290 O   0  0  0  0  0  0  0  0  0  0  0  0
    3.5930   -0.3320    2.3850 C   0  0  1  0  0  0  0  0  0  0  0  0
    3.5610    0.0910    3.8550 C   0  0  0  0  0  0  0  0  0  0  0  0
    4.8110    0.7900    4.2790 C   0  0  0  0  0  0  0  0  0  0  0  0
    6.0910    0.2520    3.7420 C   0  0  0  0  0  0  0  0  0  0  0  0
    6.0690    0.2910    2.2440 C   0  0  0  0  0  0  0  0  0  0  0  0
    4.6920    0.3530    1.6720 C   0  0  1  0  0  0  0  0  0  0  0  0
    4.5690    0.5630    0.2130 C   0  0  0  0  0  0  0  0  0  0  0  0
    4.4370   -0.6070   -0.6920 C   0  0  0  0  0  0  0  0  0  0  0  0
    4.3280   -0.1640   -2.1540 C   0  0  0  0  0  0  0  0  0  0  0  0
    5.5320    0.4680   -2.6920 C   0  0  0  0  0  0  0  0  0  0  0  0
    6.7140    0.6620   -2.1580 C   0  0  0  0  0  0  0  0  0  0  0  0
    7.6130    1.3690   -3.1380 C   0  0  0  0  0  0  0  0  0  0  0  0
    6.7300    1.5290   -4.2970 C   0  0  0  0  0  0  0  0  0  0  0  0
    5.5600    1.0240   -4.0520 C   0  0  0  0  0  0  0  0  0  0  0  0
    0.2610   -2.4860    0.2470 C   0  0  0  0  0  0  0  0  0  0  0  0
   -0.9030   -2.0220   -0.3440 C   0  0  0  0  0  0  0  0  0  0  0  0
   -1.4990   -2.8390   -1.4080 C   0  0  0  0  0  0  0  0  0  0  0  0
   -0.8320   -4.0770   -1.7580 N   0  0  0  0  0  0  0  0  0  0  0  0
   -2.5120   -2.6070   -2.0560 O   0  0  0  0  0  0  0  0  0  0  0  0
   -5.2070    0.5200   -1.8730 C   0  0  0  0  0  0  0  0  0  0  0  0
   -6.5110    0.0770   -1.2680 C   0  0  0  0  0  0  0  0  0  0  0  0
  2  1  1  6
  2  3  2  0
  2  4  1  0
  5  4  1  1
  5  6  1  0
  5  8  1  0
  5 44  1  0
  6  7  1  0
  8  9  1  0
  9 10  1  0
 10 11  1  0
 10 43  1  0
 11 12  2  0
 11 13  1  0
 13 14  1  0
 14 15  2  0
 14 39  1  0
 15 16  1  0
 16 17  2  0
 17 18  1  0
 17 38  1  0
 18 19  2  0
 18 20  1  0
 20 21  1  0
 24 20  1  1
 21 22  1  0
 22 23  1  0
 24 25  1  0
 24 29  1  0
 25 26  1  0
 26 27  1  0
 27 28  1  0
 28 29  1  0
 29 30  1  6
 30 31  1  0
 31 32  1  0
 32 33  1  0
 33 34  2  0
 33 37  1  0
 34 35  1  0
 35 36  1  0
 36 37  2  0
 38 39  2  0
 39 40  1  0
 40 41  1  0
 40 42  2  0
 43 44  1  0
M  END
