
     RDKit          3D

 44 47  0  0  0  0  0  0  0  0999 V2000
    3.9100    3.4660    1.9280 C   0  0  0  0  0  0  0  0  0  0  0  0
    3.8000    2.2840    0.9420 C   0  0  1  0  0  0  0  0  0  0  0  0
    4.6860    2.4820   -0.2350 C   0  0  1  0  0  0  0  0  0  0  0  0
    4.4980    3.6940   -1.0960 C   0  0  0  0  0  0  0  0  0  0  0  0
    5.6780    3.6080   -0.1890 C   0  0  0  0  0  0  0  0  0  0  0  0
    4.1120    1.0600    1.6480 N   0  0  0  0  0  0  0  0  0  0  0  0
    5.3800    0.9660    2.3890 C   0  0  0  0  0  0  0  0  0  0  0  0
    6.3550    0.1800    1.6370 C   0  0  0  0  0  0  0  0  0  0  0  0
    6.0720   -0.5480    0.5250 C   0  0  0  0  0  0  0  0  0  0  0  0
    6.9860   -1.3600   -0.1160 C   0  0  0  0  0  0  0  0  0  0  0  0
    6.6490   -2.0860   -1.2480 O   0  0  0  0  0  0  0  0  0  0  0  0
    8.2800   -1.4830    0.3530 C   0  0  0  0  0  0  0  0  0  0  0  0
    8.5860   -0.7540    1.4780 C   0  0  0  0  0  0  0  0  0  0  0  0
    7.6760    0.0530    2.1140 C   0  0  0  0  0  0  0  0  0  0  0  0
    8.0350    0.7580    3.2330 O   0  0  0  0  0  0  0  0  0  0  0  0
    3.2200    0.0100    1.7900 C   0  0  0  0  0  0  0  0  0  0  0  0
    3.6190   -0.9580    2.5590 O   0  0  0  0  0  0  0  0  0  0  0  0
    1.9230   -0.1730    1.2180 C   0  0  0  0  0  0  0  0  0  0  0  0
    1.0280   -1.0530    1.8660 C   0  0  0  0  0  0  0  0  0  0  0  0
   -0.2130   -1.3880    1.3870 C   0  0  0  0  0  0  0  0  0  0  0  0
   -0.6300   -0.8460    0.2080 C   0  0  0  0  0  0  0  0  0  0  0  0
   -1.9290   -1.1470   -0.3140 N   0  0  0  0  0  0  0  0  0  0  0  0
   -2.9690   -0.2780    0.0900 C   0  0  0  0  0  0  0  0  0  0  0  0
   -2.7430    0.6410    0.9110 O   0  0  0  0  0  0  0  0  0  0  0  0
   -4.3400   -0.4270   -0.4450 C   0  0  0  0  0  0  0  0  0  0  0  0
   -5.2740    0.5180    0.3250 C   0  0  0  0  0  0  0  0  0  0  0  0
   -4.6790    2.2010    0.1410 S   0  0  0  0  0  0  0  0  0  0  0  0
   -5.8060    3.3030    1.0470 C   0  0  0  0  0  0  0  0  0  0  0  0
   -7.1190    3.3270    0.3660 C   0  0  0  0  0  0  0  0  0  0  0  0
   -7.3290    4.2500   -0.4750 O   0  0  0  0  0  0  0  0  0  0  0  0
   -8.1490    2.3660    0.6110 N   0  0  0  0  0  0  0  0  0  0  0  0
   -9.3950    2.4850   -0.1160 C   0  0  0  0  0  0  0  0  0  0  0  0
   -9.1410    2.3810   -1.5620 C   0  0  0  0  0  0  0  0  0  0  0  0
  -10.2190    2.4760   -2.4870 N   0  0  0  0  0  0  0  0  0  0  0  0
   -7.9720    2.2080   -1.9870 O   0  0  0  0  0  0  0  0  0  0  0  0
   -2.1180   -2.2860   -1.1650 C   0  0  1  0  0  0  0  0  0  0  0  0
   -1.3800   -2.1270   -2.4680 C   0  0  0  0  0  0  0  0  0  0  0  0
   -0.0500   -2.8180   -2.3690 C   0  0  0  0  0  0  0  0  0  0  0  0
   -0.3440   -4.3220   -2.4620 C   0  0  0  0  0  0  0  0  0  0  0  0
   -1.5400   -4.6430   -1.6120 C   0  0  1  0  0  0  0  0  0  0  0  0
   -1.3130   -5.9690   -0.9090 C   0  0  0  0  0  0  0  0  0  0  0  0
   -1.7070   -3.5990   -0.5320 C   0  0  0  0  0  0  0  0  0  0  0  0
    0.2050    0.0210   -0.4710 C   0  0  0  0  0  0  0  0  0  0  0  0
    1.4550    0.3430    0.0310 C   0  0  0  0  0  0  0  0  0  0  0  0
  2  1  1  1
  2  3  1  0
  2  6  1  0
  3  4  1  6
  3  5  1  0
  4  5  1  0
  6  7  1  0
  6 16  1  0
  7  8  1  0
  8  9  2  0
  8 14  1  0
  9 10  1  0
 10 11  1  0
 10 12  2  0
 12 13  1  0
 13 14  2  0
 14 15  1  0
 16 17  2  0
 16 18  1  0
 18 19  2  0
 18 44  1  0
 19 20  1  0
 20 21  2  0
 21 22  1  0
 21 43  1  0
 22 23  1  0
 36 22  1  1
 23 24  2  0
 23 25  1  0
 25 26  1  0
 26 27  1  0
 27 28  1  0
 28 29  1  0
 29 30  2  0
 29 31  1  0
 31 32  1  0
 32 33  1  0
 33 34  1  0
 33 35  2  0
 36 37  1  0
 36 42  1  0
 37 38  1  0
 38 39  1  0
 39 40  1  0
 40 41  1  1
 40 42  1  0
 43 44  2  0
M  END
