
     RDKit          3D

 44 47  0  0  0  0  0  0  0  0999 V2000
   12.4920   -3.0120   -0.5850 C   0  0  0  0  0  0  0  0  0  0  0  0
   11.1040   -2.6630   -0.6000 O   0  0  0  0  0  0  0  0  0  0  0  0
   10.6810   -1.3990   -0.1960 C   0  0  0  0  0  0  0  0  0  0  0  0
   11.5470   -0.5850    0.1780 O   0  0  0  0  0  0  0  0  0  0  0  0
    9.2860   -1.0050   -0.1970 C   0  0  0  0  0  0  0  0  0  0  0  0
    8.2520   -1.8330   -0.5900 C   0  0  0  0  0  0  0  0  0  0  0  0
    6.9380   -1.4020   -0.5780 C   0  0  0  0  0  0  0  0  0  0  0  0
    6.6180   -0.1020   -0.1630 C   0  0  0  0  0  0  0  0  0  0  0  0
    5.2020    0.3230   -0.1640 C   0  0  0  0  0  0  0  0  0  0  0  0
    4.3160   -0.5500   -0.2290 O   0  0  0  0  0  0  0  0  0  0  0  0
    4.8410    1.6820   -0.0950 N   0  0  0  0  0  0  0  0  0  0  0  0
    3.5220    2.2170   -0.0840 C   0  0  0  0  0  0  0  0  0  0  0  0
    3.3880    3.5890   -0.3320 C   0  0  0  0  0  0  0  0  0  0  0  0
    2.1820    4.1860   -0.3380 C   0  0  0  0  0  0  0  0  0  0  0  0
    1.0380    3.4270   -0.0920 C   0  0  0  0  0  0  0  0  0  0  0  0
    1.1400    2.0950    0.1510 C   0  0  0  0  0  0  0  0  0  0  0  0
   -0.0240    1.2760    0.3760 N   0  0  0  0  0  0  0  0  0  0  0  0
   -1.2900    1.5860   -0.0950 C   0  0  0  0  0  0  0  0  0  0  0  0
   -1.4810    2.6380   -0.7650 O   0  0  0  0  0  0  0  0  0  0  0  0
   -2.4870    0.6780    0.1820 C   0  0  2  0  0  0  0  0  0  0  0  0
   -3.4780    1.5330    0.5030 N   0  0  0  0  0  0  0  0  0  0  0  0
   -4.8640    1.4150    0.6260 C   0  0  1  0  0  0  0  0  0  0  0  0
   -5.4740    0.8990   -0.6070 C   0  0  2  0  0  0  0  0  0  0  0  0
   -5.1600    1.8800   -1.7480 C   0  0  0  0  0  0  0  0  0  0  0  0
   -6.8990    0.5750   -0.7220 C   0  0  0  0  0  0  0  0  0  0  0  0
   -5.2860    1.1150    1.9680 C   0  0  2  0  0  0  0  0  0  0  0  0
   -6.7190    0.9840    2.3170 C   0  0  0  0  0  0  0  0  0  0  0  0
   -7.3880    2.3390    2.2790 C   0  0  0  0  0  0  0  0  0  0  0  0
   -6.2220    3.1550    3.4300 S   0  0  0  0  0  0  0  0  0  0  0  0
   -6.0830    4.6150    3.1270 O   0  0  0  0  0  0  0  0  0  0  0  0
   -4.7790    2.1800    2.9270 C   0  0  0  0  0  0  0  0  0  0  0  0
   -1.9950   -0.5280    0.8550 C   0  0  1  0  0  0  0  0  0  0  0  0
   -2.9920   -1.5790    1.2670 C   0  0  0  0  0  0  0  0  0  0  0  0
   -2.2610   -2.9270    1.3220 C   0  0  0  0  0  0  0  0  0  0  0  0
   -2.1330   -3.5030   -0.0770 C   0  0  0  0  0  0  0  0  0  0  0  0
   -1.8940   -2.2910   -0.9600 C   0  0  2  0  0  0  0  0  0  0  0  0
   -1.1020   -2.7170   -2.1470 C   0  0  0  0  0  0  0  0  0  0  0  0
   -1.7780   -3.7460   -2.9620 C   0  0  0  0  0  0  0  0  0  0  0  0
   -1.1340   -4.2390   -4.1190 N   0  0  0  0  0  0  0  0  0  0  0  0
   -2.9010   -4.1930   -2.6570 O   0  0  0  0  0  0  0  0  0  0  0  0
   -1.0710   -1.3200   -0.1350 C   0  0  0  0  0  0  0  0  0  0  0  0
    2.3860    1.4920    0.1550 C   0  0  0  0  0  0  0  0  0  0  0  0
    7.6400    0.7210    0.2280 C   0  0  0  0  0  0  0  0  0  0  0  0
    8.9430    0.2610    0.2040 C   0  0  0  0  0  0  0  0  0  0  0  0
  1  2  1  0
  2  3  1  0
  3  4  2  0
  3  5  1  0
  5  6  2  0
  5 44  1  0
  6  7  1  0
  7  8  2  0
  8  9  1  0
  8 43  1  0
  9 10  2  0
  9 11  1  0
 11 12  1  0
 12 13  2  0
 12 42  1  0
 13 14  1  0
 14 15  2  0
 15 16  1  0
 16 17  1  0
 16 42  2  0
 17 18  1  0
 18 19  2  0
 18 20  1  0
 20 21  1  1
 20 32  1  0
 22 21  1  1
 22 23  1  0
 22 26  1  0
 23 24  1  6
 23 25  1  0
 26 27  1  6
 26 31  1  0
 27 28  1  0
 29 28  1  6
 29 30  2  0
 29 31  1  0
 32 33  1  6
 32 41  1  0
 33 34  1  0
 34 35  1  0
 35 36  1  0
 36 37  1  6
 36 41  1  0
 37 38  1  0
 38 39  1  0
 38 40  2  0
 43 44  2  0
M  END
