
     RDKit          3D

 44 47  0  0  0  0  0  0  0  0999 V2000
    1.2840   -2.2090    1.4110 C   0  0  0  0  0  0  0  0  0  0  0  0
    1.2940   -0.7150    1.4470 C   0  0  0  0  0  0  0  0  0  0  0  0
    1.4620   -0.1680    0.0900 C   0  0  0  0  0  0  0  0  0  0  0  0
    2.7160   -0.1770   -0.5540 C   0  0  0  0  0  0  0  0  0  0  0  0
    3.9730   -0.7210   -0.0140 C   0  0  0  0  0  0  0  0  0  0  0  0
    3.9800   -1.8460    0.5110 O   0  0  0  0  0  0  0  0  0  0  0  0
    5.1860    0.0080   -0.0690 N   0  0  0  0  0  0  0  0  0  0  0  0
    6.4440   -0.4180    0.4020 C   0  0  0  0  0  0  0  0  0  0  0  0
    6.7070   -1.6110    1.0110 C   0  0  0  0  0  0  0  0  0  0  0  0
    7.9830   -1.9730    1.4550 C   0  0  0  0  0  0  0  0  0  0  0  0
    9.0160   -1.0780    1.2660 C   0  0  0  0  0  0  0  0  0  0  0  0
   10.3760   -1.4460    1.7320 C   0  0  0  0  0  0  0  0  0  0  0  0
    8.7930    0.1360    0.6560 C   0  0  0  0  0  0  0  0  0  0  0  0
    9.9180    1.0740    0.4660 C   0  0  0  0  0  0  0  0  0  0  0  0
    7.5250    0.4470    0.2360 C   0  0  0  0  0  0  0  0  0  0  0  0
    2.5670    0.3930   -1.7880 C   0  0  0  0  0  0  0  0  0  0  0  0
    3.5210    0.5530   -2.8690 C   0  0  0  0  0  0  0  0  0  0  0  0
    3.1040    1.2750   -4.1010 C   0  0  0  0  0  0  0  0  0  0  0  0
    4.6750    0.1160   -2.8220 O   0  0  0  0  0  0  0  0  0  0  0  0
    1.2180    0.7320   -1.8440 C   0  0  0  0  0  0  0  0  0  0  0  0
    0.5690    0.3980   -0.7320 N   0  0  0  0  0  0  0  0  0  0  0  0
   -0.8530    0.6450   -0.4630 C   0  0  1  0  0  0  0  0  0  0  0  0
   -0.9750    1.8100    0.4580 C   0  0  0  0  0  0  0  0  0  0  0  0
   -1.4080    1.1850   -1.8250 C   0  0  0  0  0  0  0  0  0  0  0  0
   -1.6430   -0.5600   -0.1910 C   0  0  0  0  0  0  0  0  0  0  0  0
   -3.0790   -0.4150    0.0810 C   0  0  0  0  0  0  0  0  0  0  0  0
   -4.0310   -0.5870   -0.9320 C   0  0  0  0  0  0  0  0  0  0  0  0
   -5.3840   -0.4650   -0.7200 C   0  0  0  0  0  0  0  0  0  0  0  0
   -6.3250   -0.6460   -1.7900 N   0  0  0  0  0  0  0  0  0  0  0  0
   -7.7420   -0.6800   -1.6360 C   0  0  1  0  0  0  0  0  0  0  0  0
   -8.2410   -1.8170   -0.7970 C   0  0  0  0  0  0  0  0  0  0  0  0
   -9.6350   -1.1460    0.1250 S   0  0  0  0  0  0  0  0  0  0  0  0
   -9.3390   -1.0660    1.6120 O   0  0  0  0  0  0  0  0  0  0  0  0
   -9.6830    0.4870   -0.6380 C   0  0  0  0  0  0  0  0  0  0  0  0
   -8.3290    0.5850   -1.1850 C   0  0  0  0  0  0  0  0  0  0  0  0
   -7.7170    1.6630   -1.2640 O   0  0  0  0  0  0  0  0  0  0  0  0
   -5.8440   -0.1620    0.5390 C   0  0  0  0  0  0  0  0  0  0  0  0
   -4.9400    0.0130    1.5580 C   0  0  0  0  0  0  0  0  0  0  0  0
   -3.5940   -0.1130    1.3200 C   0  0  0  0  0  0  0  0  0  0  0  0
   -2.7160    0.0640    2.3580 O   0  0  0  0  0  0  0  0  0  0  0  0
   -3.1110    0.3670    3.6460 C   0  0  0  0  0  0  0  0  0  0  0  0
   -3.8200    1.6330    3.8760 C   0  0  0  0  0  0  0  0  0  0  0  0
   -4.0820    2.6070    2.8850 N   0  0  0  0  0  0  0  0  0  0  0  0
   -4.2510    1.9160    5.0580 O   0  0  0  0  0  0  0  0  0  0  0  0
  1  2  1  0
  2  3  1  0
  3  4  2  0
  3 21  1  0
  4  5  1  0
  4 16  1  0
  5  6  2  0
  5  7  1  0
  7  8  1  0
  8  9  2  0
  8 15  1  0
  9 10  1  0
 10 11  2  0
 11 12  1  0
 11 13  1  0
 13 14  1  0
 13 15  2  0
 16 17  1  0
 16 20  2  0
 17 18  1  0
 17 19  2  0
 20 21  1  0
 21 22  1  0
 22 23  1  1
 22 24  1  0
 22 25  1  0
 25 26  1  0
 26 27  2  0
 26 39  1  0
 27 28  1  0
 28 29  1  0
 28 37  2  0
 30 29  1  1
 30 31  1  0
 30 35  1  0
 32 31  1  6
 32 33  2  0
 32 34  1  0
 34 35  1  0
 35 36  2  0
 37 38  1  0
 38 39  2  0
 39 40  1  0
 40 41  1  0
 41 42  1  0
 42 43  1  0
 42 44  2  0
M  END
