
     RDKit          3D

 44 47  0  0  0  0  0  0  0  0999 V2000
    9.6880   -1.7900   -0.2980 C   0  0  0  0  0  0  0  0  0  0  0  0
    9.1590   -1.3280    0.9970 C   0  0  2  0  0  0  0  0  0  0  0  0
    8.2180   -2.2150    1.5180 O   0  0  0  0  0  0  0  0  0  0  0  0
    8.5980    0.0540    1.0220 C   0  0  2  0  0  0  0  0  0  0  0  0
    8.0790    0.4610    2.3610 C   0  0  0  0  0  0  0  0  0  0  0  0
    7.6860    0.4260   -0.0760 C   0  0  0  0  0  0  0  0  0  0  0  0
    6.4600   -0.3410   -0.3090 C   0  0  0  0  0  0  0  0  0  0  0  0
    5.3930   -0.4350    0.6860 C   0  0  1  0  0  0  0  0  0  0  0  0
    4.7240    0.8140    1.1390 C   0  0  0  0  0  0  0  0  0  0  0  0
    4.2410    1.5680   -0.0740 C   0  0  0  0  0  0  0  0  0  0  0  0
    2.9730    0.8240   -0.5060 C   0  0  0  0  0  0  0  0  0  0  0  0
    1.7960    1.2700   -0.9550 C   0  0  0  0  0  0  0  0  0  0  0  0
    0.8100    0.4050   -1.2780 C   0  0  0  0  0  0  0  0  0  0  0  0
   -0.5720    0.6790   -1.7970 C   0  0  1  0  0  0  0  0  0  0  0  0
   -0.5180    0.3480   -3.2730 C   0  0  0  0  0  0  0  0  0  0  0  0
   -1.8490    0.1800   -3.9160 C   0  0  0  0  0  0  0  0  0  0  0  0
   -2.9100   -0.3910   -3.0390 C   0  0  0  0  0  0  0  0  0  0  0  0
   -2.2350   -1.1310   -1.9070 C   0  0  0  0  0  0  0  0  0  0  0  0
   -1.5500   -0.1350   -1.1120 N   0  0  0  0  0  0  0  0  0  0  0  0
   -1.7820    0.0800    0.2680 C   0  0  0  0  0  0  0  0  0  0  0  0
   -1.1500    0.9590    0.8800 O   0  0  0  0  0  0  0  0  0  0  0  0
   -2.7520   -0.6950    1.0360 C   0  0  0  0  0  0  0  0  0  0  0  0
   -2.3860   -1.8550    1.6750 C   0  0  0  0  0  0  0  0  0  0  0  0
   -3.2580   -2.6340    2.4180 C   0  0  0  0  0  0  0  0  0  0  0  0
   -2.8160   -3.8540    3.0750 C   0  0  0  0  0  0  0  0  0  0  0  0
   -1.4930   -4.2900    2.9960 N   0  0  0  0  0  0  0  0  0  0  0  0
   -3.6510   -4.5260    3.7260 O   0  0  0  0  0  0  0  0  0  0  0  0
   -4.5600   -2.1860    2.4970 C   0  0  0  0  0  0  0  0  0  0  0  0
   -4.9760   -1.0270    1.8720 C   0  0  0  0  0  0  0  0  0  0  0  0
   -4.0870   -0.2690    1.1390 C   0  0  0  0  0  0  0  0  0  0  0  0
   -4.3900    0.8890    0.4830 O   0  0  0  0  0  0  0  0  0  0  0  0
   -5.6160    1.5580    0.3980 C   0  0  2  0  0  0  0  0  0  0  0  0
   -6.1250    1.6440   -1.0170 C   0  0  0  0  0  0  0  0  0  0  0  0
   -7.4240    2.3540   -1.0710 C   0  0  0  0  0  0  0  0  0  0  0  0
   -7.4730    3.5900   -1.3460 O   0  0  0  0  0  0  0  0  0  0  0  0
   -8.6510    1.6850   -0.8200 N   0  0  0  0  0  0  0  0  0  0  0  0
   -9.8880    2.4280   -0.8880 C   0  0  0  0  0  0  0  0  0  0  0  0
   -8.7180    0.2730   -0.4940 C   0  0  0  0  0  0  0  0  0  0  0  0
   -5.5400    2.9280    0.9570 C   0  0  0  0  0  0  0  0  0  0  0  0
   -4.2900    3.4490    1.4590 N   0  0  0  0  0  0  0  0  0  0  0  0
   -6.5120    3.7070    1.0350 O   0  0  0  0  0  0  0  0  0  0  0  0
    1.5050   -1.1820   -0.9550 S   0  0  0  0  0  0  0  0  0  0  0  0
    3.1230   -0.5480   -0.3920 C   0  0  0  0  0  0  0  0  0  0  0  0
    4.2810   -1.2940    0.0610 C   0  0  0  0  0  0  0  0  0  0  0  0
  2  1  1  6
  2  3  1  0
  2  4  1  0
  4  5  1  1
  4  6  1  0
  6  7  1  0
  8  7  1  6
  8  9  1  0
  8 44  1  0
  9 10  1  0
 10 11  1  0
 11 12  1  0
 11 43  2  0
 12 13  2  0
 14 13  1  1
 13 42  1  0
 14 15  1  0
 14 19  1  0
 15 16  1  0
 16 17  1  0
 17 18  1  0
 18 19  1  0
 19 20  1  0
 20 21  2  0
 20 22  1  0
 22 23  2  0
 22 30  1  0
 23 24  1  0
 24 25  1  0
 24 28  2  0
 25 26  1  0
 25 27  2  0
 28 29  1  0
 29 30  2  0
 30 31  1  0
 31 32  1  0
 32 33  1  6
 32 39  1  0
 33 34  1  0
 34 35  2  0
 34 36  1  0
 36 37  1  0
 36 38  1  0
 39 40  1  0
 39 41  2  0
 42 43  1  0
 43 44  1  0
M  END
