
     RDKit          3D

 44 47  0  0  0  0  0  0  0  0999 V2000
    5.2670    3.9610   -0.4370 C   0  0  0  0  0  0  0  0  0  0  0  0
    4.4470    3.0610   -0.9600 C   0  0  0  0  0  0  0  0  0  0  0  0
    4.9550    1.9190   -1.7400 C   0  0  0  0  0  0  0  0  0  0  0  0
    4.6010    0.6790   -1.1710 O   0  0  0  0  0  0  0  0  0  0  0  0
    3.2900    0.2680   -0.9760 C   0  0  0  0  0  0  0  0  0  0  0  0
    2.4340    1.1420   -1.3720 O   0  0  0  0  0  0  0  0  0  0  0  0
    2.9200   -1.0020   -0.3960 C   0  0  0  0  0  0  0  0  0  0  0  0
    3.8540   -1.8360    0.0150 C   0  0  0  0  0  0  0  0  0  0  0  0
    5.2740   -1.6790   -0.0120 C   0  0  0  0  0  0  0  0  0  0  0  0
    6.0220   -2.6280   -0.7190 C   0  0  0  0  0  0  0  0  0  0  0  0
    7.3990   -2.5920   -0.7580 C   0  0  0  0  0  0  0  0  0  0  0  0
    8.0800   -1.5990   -0.0870 C   0  0  0  0  0  0  0  0  0  0  0  0
    7.3780   -0.6520    0.6160 C   0  0  0  0  0  0  0  0  0  0  0  0
    5.9910   -0.7140    0.6390 C   0  0  0  0  0  0  0  0  0  0  0  0
    8.0760    0.3350    1.2820 O   0  0  0  0  0  0  0  0  0  0  0  0
    9.4480    0.5570    0.9560 C   0  0  0  0  0  0  0  0  0  0  0  0
   10.1180   -0.7820    0.8940 C   0  0  0  0  0  0  0  0  0  0  0  0
    9.4650   -1.5520   -0.1200 O   0  0  0  0  0  0  0  0  0  0  0  0
    1.5360   -1.4300   -0.2300 C   0  0  0  0  0  0  0  0  0  0  0  0
    1.2900   -2.5800    0.3020 O   0  0  0  0  0  0  0  0  0  0  0  0
    0.3860   -0.7100   -0.5960 N   0  0  0  0  0  0  0  0  0  0  0  0
   -0.9620   -1.2340   -0.3830 C   0  0  0  0  0  0  0  0  0  0  0  0
   -1.9710   -0.2270   -0.8840 C   0  0  2  0  0  0  0  0  0  0  0  0
   -1.7700    1.0300   -0.1150 C   0  0  0  0  0  0  0  0  0  0  0  0
   -1.3980    2.1320   -0.6910 C   0  0  0  0  0  0  0  0  0  0  0  0
   -1.1610    3.4500   -0.0650 C   0  0  0  0  0  0  0  0  0  0  0  0
   -1.4640    3.4870    1.3050 N   0  0  0  0  0  0  0  0  0  0  0  0
   -2.7920    3.4600    1.7570 C   0  0  0  0  0  0  0  0  0  0  0  0
   -3.5180    4.7500    1.4740 C   0  0  0  0  0  0  0  0  0  0  0  0
   -3.5890    5.0070    0.0800 N   0  0  0  0  0  0  0  0  0  0  0  0
   -3.3530   -0.6670   -0.7150 C   0  0  0  0  0  0  0  0  0  0  0  0
   -4.1080   -0.6890   -1.7480 O   0  0  0  0  0  0  0  0  0  0  0  0
   -3.9400   -1.0770    0.4980 N   0  0  0  0  0  0  0  0  0  0  0  0
   -5.3160   -1.5020    0.5720 C   0  0  0  0  0  0  0  0  0  0  0  0
   -6.2740   -0.5590    0.8600 C   0  0  0  0  0  0  0  0  0  0  0  0
   -5.8950    0.8780    1.1100 C   0  0  0  0  0  0  0  0  0  0  0  0
   -7.5840   -0.9470    0.9240 C   0  0  0  0  0  0  0  0  0  0  0  0
   -7.9220   -2.2620    0.7030 C   0  0  0  0  0  0  0  0  0  0  0  0
   -6.9920   -3.2340    0.4120 C   0  0  0  0  0  0  0  0  0  0  0  0
   -5.6550   -2.8280    0.3480 C   0  0  0  0  0  0  0  0  0  0  0  0
   -4.6010   -3.8160    0.0410 C   0  0  0  0  0  0  0  0  0  0  0  0
   -4.8510   -4.5470   -1.2610 C   0  0  0  0  0  0  0  0  0  0  0  0
   -6.4880   -5.3440   -1.2430 S   0  0  0  0  0  0  0  0  0  0  0  0
   -7.3840   -4.6600    0.1760 C   0  0  0  0  0  0  0  0  0  0  0  0
  1  2  2  0
  2  3  1  0
  3  4  1  0
  4  5  1  0
  5  6  2  0
  5  7  1  0
  7  8  2  3
  7 19  1  0
  8  9  1  0
  9 10  2  0
  9 14  1  0
 10 11  1  0
 11 12  2  0
 12 13  1  0
 12 18  1  0
 13 14  2  0
 13 15  1  0
 15 16  1  0
 16 17  1  0
 17 18  1  0
 19 20  2  0
 19 21  1  0
 21 22  1  0
 23 22  1  1
 23 24  1  0
 23 31  1  0
 24 25  2  3
 25 26  1  0
 26 27  1  0
 27 28  1  0
 28 29  1  0
 29 30  1  0
 31 32  2  0
 31 33  1  0
 33 34  1  0
 34 35  2  0
 34 40  1  0
 35 36  1  0
 35 37  1  0
 37 38  2  0
 38 39  1  0
 39 40  2  0
 39 44  1  0
 40 41  1  0
 41 42  1  0
 42 43  1  0
 43 44  1  0
M  END
