
     RDKit          3D

 11 11  0  0  0  0  0  0  0  0999 V2000
    0.6160   -1.5100    0.0290 O   0  0  0  0  0  0  0  0  0  0  0  0
    0.1830   -0.3820    0.3630 C   0  0  0  0  0  0  0  0  0  0  0  0
    1.0880    0.5480    0.8030 O   0  0  0  0  0  0  0  0  0  0  0  0
    2.4410    0.3590    0.9080 C   0  0  0  0  0  0  0  0  0  0  0  0
    3.2260    0.0850   -0.3190 C   0  0  0  0  0  0  0  0  0  0  0  0
    2.8840   -1.0420   -1.0300 O   0  0  0  0  0  0  0  0  0  0  0  0
   -1.2610   -0.0980    0.2730 C   0  0  0  0  0  0  0  0  0  0  0  0
   -2.1450   -0.9560   -0.1400 C   0  0  0  0  0  0  0  0  0  0  0  0
   -3.4750   -0.3010   -0.0870 C   0  0  0  0  0  0  0  0  0  0  0  0
   -3.1910    1.0430    0.4160 C   0  0  0  0  0  0  0  0  0  0  0  0
   -1.8950    1.1450    0.6200 C   0  0  0  0  0  0  0  0  0  0  0  0
  1  2  2  0
  2  3  1  0
  2  7  1  0
  3  4  1  0
  4  5  1  0
  5  6  1  0
  7  8  2  0
  7 11  1  0
  8  9  1  0
  9 10  1  0
 10 11  2  0
M  END
