
     RDKit          3D

 10 10  0  0  0  0  0  0  0  0999 V2000
    4.0290   -0.5040    0.6130 C   0  0  0  0  0  0  0  0  0  0  0  0
    2.9890   -0.3050   -0.3240 O   0  0  0  0  0  0  0  0  0  0  0  0
    1.6860   -0.1160    0.0440 C   0  0  0  0  0  0  0  0  0  0  0  0
    1.3920   -0.1190    1.2620 O   0  0  0  0  0  0  0  0  0  0  0  0
    0.6430    0.0880   -0.9920 C   0  0  0  0  0  0  0  0  0  0  0  0
   -0.7010    0.2720   -0.3650 C   0  0  0  0  0  0  0  0  0  0  0  0
   -1.5100    1.3040   -0.4530 C   0  0  0  0  0  0  0  0  0  0  0  0
   -2.7600    1.0650    0.3380 C   0  0  0  0  0  0  0  0  0  0  0  0
   -2.7970   -0.4730    0.2830 C   0  0  0  0  0  0  0  0  0  0  0  0
   -1.3270   -0.7560    0.5010 C   0  0  0  0  0  0  0  0  0  0  0  0
  1  2  1  0
  2  3  1  0
  3  4  2  0
  3  5  1  0
  5  6  1  0
  6  7  2  0
  6 10  1  0
  7  8  1  0
  8  9  1  0
  9 10  1  0
M  END
