
     RDKit          3D

 11 11  0  0  0  0  0  0  0  0999 V2000
    1.2250   -1.5310   -1.3310 O   0  0  0  0  0  0  0  0  0  0  0  0
    1.4010   -0.5120   -0.5810 C   0  0  0  0  0  0  0  0  0  0  0  0
    2.7890   -0.2090   -0.2330 C   0  0  0  0  0  0  0  0  0  0  0  0
    3.5070   -1.4210    0.3470 C   0  0  0  0  0  0  0  0  0  0  0  0
    4.8140   -1.0300    0.6300 O   0  0  0  0  0  0  0  0  0  0  0  0
    0.2820    0.1510   -0.2050 O   0  0  0  0  0  0  0  0  0  0  0  0
   -1.0510   -0.1200   -0.5180 C   0  0  2  0  0  0  0  0  0  0  0  0
   -1.7110    0.9920   -1.2880 C   0  0  0  0  0  0  0  0  0  0  0  0
   -2.9120    1.4600   -0.5230 C   0  0  0  0  0  0  0  0  0  0  0  0
   -2.9700    0.6740    0.7400 C   0  0  0  0  0  0  0  0  0  0  0  0
   -1.8940   -0.3630    0.7120 C   0  0  0  0  0  0  0  0  0  0  0  0
  1  2  2  0
  2  3  1  0
  2  6  1  0
  3  4  1  0
  4  5  1  0
  7  6  1  1
  7  8  1  0
  7 11  1  0
  8  9  1  0
  9 10  1  0
 10 11  1  0
M  END
