
     RDKit          3D

 11 11  0  0  0  0  0  0  0  0999 V2000
    2.9550    0.7230    0.4970 C   0  0  0  0  0  0  0  0  0  0  0  0
    1.6930    0.3940    0.2580 C   0  0  0  0  0  0  0  0  0  0  0  0
    0.7980    1.4500    0.2780 O   0  0  0  0  0  0  0  0  0  0  0  0
    1.2890   -0.9880   -0.0120 C   0  0  0  0  0  0  0  0  0  0  0  0
    2.2980   -1.9310   -0.0060 O   0  0  0  0  0  0  0  0  0  0  0  0
    0.0580   -1.3190   -0.2440 C   0  0  0  0  0  0  0  0  0  0  0  0
   -1.1050   -0.4580   -0.2850 C   0  0  0  0  0  0  0  0  0  0  0  0
   -2.0580   -0.3850   -1.2930 C   0  0  0  0  0  0  0  0  0  0  0  0
   -2.9890    0.5840   -0.8950 C   0  0  0  0  0  0  0  0  0  0  0  0
   -2.5310    1.0330    0.3360 C   0  0  0  0  0  0  0  0  0  0  0  0
   -1.4400    0.3980    0.6410 O   0  0  0  0  0  0  0  0  0  0  0  0
  1  2  2  0
  2  3  1  0
  2  4  1  0
  4  5  1  0
  4  6  2  3
  6  7  1  0
  7  8  2  0
  7 11  1  0
  8  9  1  0
  9 10  2  0
 10 11  1  0
M  END
