
     RDKit          3D

 11 11  0  0  0  0  0  0  0  0999 V2000
   -2.8280   -0.5420   -0.0980 C   0  0  0  0  0  0  0  0  0  0  0  0
   -2.2990    0.6670   -0.0840 O   0  0  0  0  0  0  0  0  0  0  0  0
   -1.2900    1.0850    0.7250 C   0  0  0  0  0  0  0  0  0  0  0  0
    0.0250    0.4320    0.4480 C   0  0  0  0  0  0  0  0  0  0  0  0
    0.2000   -0.9090    0.4760 C   0  0  0  0  0  0  0  0  0  0  0  0
    1.4040   -1.4200    0.0080 C   0  0  0  0  0  0  0  0  0  0  0  0
    1.6730   -2.7750   -0.0260 O   0  0  0  0  0  0  0  0  0  0  0  0
    2.4050   -0.5840   -0.4610 C   0  0  0  0  0  0  0  0  0  0  0  0
    2.2230    0.8050   -0.4710 C   0  0  0  0  0  0  0  0  0  0  0  0
    1.0270    1.3010   -0.0130 C   0  0  0  0  0  0  0  0  0  0  0  0
    0.7230    2.6300    0.0480 O   0  0  0  0  0  0  0  0  0  0  0  0
  1  2  1  0
  2  3  1  0
  3  4  1  0
  4  5  2  0
  4 10  1  0
  5  6  1  0
  6  7  1  0
  6  8  2  0
  8  9  1  0
  9 10  2  0
 10 11  1  0
M  END
