
     RDKit          3D

 17 19  0  0  0  0  0  0  0  0999 V2000
   -4.3450    0.8170    1.3310 C   0  0  0  0  0  0  0  0  0  0  0  0
   -3.4730    0.8950    0.0740 C   0  0  0  0  0  0  0  0  0  0  0  0
   -2.6350   -0.2960   -0.0250 C   0  0  0  0  0  0  0  0  0  0  0  0
   -3.2340   -1.6340   -0.1150 C   0  0  0  0  0  0  0  0  0  0  0  0
   -4.2350   -2.0040    1.3000 Cl  0  0  0  0  0  0  0  0  0  0  0  0
   -1.3040   -0.1670   -0.0330 C   0  0  0  0  0  0  0  0  0  0  0  0
   -0.3270   -1.2660   -0.1270 C   0  0  0  0  0  0  0  0  0  0  0  0
    0.9760   -0.5950   -0.0950 C   0  0  0  0  0  0  0  0  0  0  0  0
    2.2970   -1.0500   -0.1470 C   0  0  0  0  0  0  0  0  0  0  0  0
    3.3610   -0.1870   -0.0970 C   0  0  0  0  0  0  0  0  0  0  0  0
    3.1690    1.1720    0.0050 C   0  0  0  0  0  0  0  0  0  0  0  0
    1.8720    1.6270    0.0570 C   0  0  0  0  0  0  0  0  0  0  0  0
    0.7760    0.7540    0.0070 C   0  0  0  0  0  0  0  0  0  0  0  0
   -0.5900    1.0170    0.0450 O   0  0  0  0  0  0  0  0  0  0  0  0
    4.4310    1.7840    0.0330 O   0  0  0  0  0  0  0  0  0  0  0  0
    5.3870    0.8720   -0.5110 C   0  0  0  0  0  0  0  0  0  0  0  0
    4.7910   -0.3920   -0.1300 N   0  0  0  0  0  0  0  0  0  0  0  0
  1  2  1  0
  2  3  1  0
  3  4  1  0
  3  6  2  3
  4  5  1  0
  6  7  1  0
  6 14  1  0
  7  8  1  0
  8  9  2  0
  8 13  1  0
  9 10  1  0
 10 11  2  0
 10 17  1  0
 11 12  1  0
 11 15  1  0
 12 13  2  0
 13 14  1  0
 15 16  1  0
 16 17  1  0
M  END
