
     RDKit          3D

 10 10  0  0  0  0  0  0  0  0999 V2000
   -3.4770    0.1030   -1.0130 C   0  0  0  0  0  0  0  0  0  0  0  0
   -3.1620   -0.7400   -0.0430 C   0  0  0  0  0  0  0  0  0  0  0  0
   -1.7620   -0.7740    0.4560 C   0  0  0  0  0  0  0  0  0  0  0  0
   -0.9150    0.2100   -0.2830 C   0  0  0  0  0  0  0  0  0  0  0  0
    0.5190    0.2180    0.1860 C   0  0  1  0  0  0  0  0  0  0  0  0
    0.6650    0.5370    1.5140 O   0  0  0  0  0  0  0  0  0  0  0  0
    1.2860   -0.9960   -0.2450 C   0  0  0  0  0  0  0  0  0  0  0  0
    2.7070   -0.5080   -0.5330 C   0  0  0  0  0  0  0  0  0  0  0  0
    2.6830    0.9770   -0.2550 C   0  0  0  0  0  0  0  0  0  0  0  0
    1.2390    1.3100   -0.6190 C   0  0  0  0  0  0  0  0  0  0  0  0
  1  2  2  0
  2  3  1  0
  3  4  1  0
  4  5  1  0
  5  6  1  1
  5  7  1  0
  5 10  1  0
  7  8  1  0
  8  9  1  0
  9 10  1  0
M  END
