
     RDKit          3D

 10 10  0  0  0  0  0  0  0  0999 V2000
    3.3220    0.5990    0.7440 C   0  0  0  0  0  0  0  0  0  0  0  0
    2.3760   -0.3250    0.6630 C   0  0  0  0  0  0  0  0  0  0  0  0
    1.6200   -0.4570   -0.6030 C   0  0  0  0  0  0  0  0  0  0  0  0
    0.1440   -0.2330   -0.4230 C   0  0  1  0  0  0  0  0  0  0  0  0
   -0.4660   -0.3790   -1.6630 O   0  0  0  0  0  0  0  0  0  0  0  0
   -0.4900   -1.2350    0.5190 C   0  0  0  0  0  0  0  0  0  0  0  0
   -1.9820   -1.1400    0.2420 C   0  0  0  0  0  0  0  0  0  0  0  0
   -2.4760    0.2460    0.4450 C   0  0  0  0  0  0  0  0  0  0  0  0
   -1.4480    1.2470    0.8250 C   0  0  0  0  0  0  0  0  0  0  0  0
   -0.1490    1.1370    0.0950 C   0  0  0  0  0  0  0  0  0  0  0  0
  1  2  2  0
  2  3  1  0
  3  4  1  0
  4  5  1  6
  4  6  1  0
  4 10  1  0
  6  7  1  0
  7  8  1  0
  8  9  1  0
  9 10  1  0
M  END
