
     RDKit          3D

 17 19  0  0  0  0  0  0  0  0999 V2000
    4.7720   -0.4380   -0.3200 C   0  0  0  0  0  0  0  0  0  0  0  0
    3.9210    0.7540    0.0150 C   0  0  2  0  0  0  0  0  0  0  0  0
    4.2220    1.1420    1.3240 O   0  0  0  0  0  0  0  0  0  0  0  0
    2.4870    0.4730   -0.1640 C   0  0  0  0  0  0  0  0  0  0  0  0
    1.6340    0.8540   -1.1750 C   0  0  0  0  0  0  0  0  0  0  0  0
    0.3620    0.3570   -0.9230 C   0  0  0  0  0  0  0  0  0  0  0  0
   -0.8330    0.4480   -1.6080 C   0  0  0  0  0  0  0  0  0  0  0  0
   -0.9110    1.3380   -3.1120 Cl  0  0  0  0  0  0  0  0  0  0  0  0
   -1.9710   -0.1760   -1.0880 C   0  0  0  0  0  0  0  0  0  0  0  0
   -1.8580   -0.8650    0.1010 C   0  0  0  0  0  0  0  0  0  0  0  0
   -0.6660   -0.9540    0.7810 C   0  0  0  0  0  0  0  0  0  0  0  0
    0.4770   -0.3330    0.2670 C   0  0  0  0  0  0  0  0  0  0  0  0
    1.7350   -0.2540    0.7000 N   0  0  0  0  0  0  0  0  0  0  0  0
   -3.2050   -1.4280    0.4290 C   0  0  0  0  0  0  0  0  0  0  0  0
   -4.0940   -0.5040   -0.3980 C   0  0  1  0  0  0  0  0  0  0  0  0
   -4.2440    0.8090    0.3560 C   0  0  0  0  0  0  0  0  0  0  0  0
   -3.2830   -0.2640   -1.5300 O   0  0  0  0  0  0  0  0  0  0  0  0
  2  1  1  1
  2  3  1  0
  2  4  1  0
  4  5  2  0
  4 13  1  0
  5  6  1  0
  6  7  2  0
  6 12  1  0
  7  8  1  0
  7  9  1  0
  9 10  2  0
  9 17  1  0
 10 11  1  0
 10 14  1  0
 11 12  2  0
 12 13  1  0
 14 15  1  0
 15 16  1  1
 15 17  1  0
M  END
