
     RDKit          3D

 28 30  0  0  0  0  0  0  0  0999 V2000
    5.8600    1.4510    1.5280 C   0  0  0  0  0  0  0  0  0  0  0  0
    6.0100    0.8730    0.1400 C   0  0  0  0  0  0  0  0  0  0  0  0
    5.8330   -0.6260    0.1360 C   0  0  0  0  0  0  0  0  0  0  0  0
    4.5620   -1.0580    0.6020 N   0  0  0  0  0  0  0  0  0  0  0  0
    3.3180   -0.6970    0.0040 C   0  0  0  0  0  0  0  0  0  0  0  0
    3.3650    0.0440   -0.9900 O   0  0  0  0  0  0  0  0  0  0  0  0
    2.0170   -1.1560    0.5050 C   0  0  2  0  0  0  0  0  0  0  0  0
    1.8130   -2.6380    0.3990 C   0  0  0  0  0  0  0  0  0  0  0  0
    0.9960   -2.9070   -0.8440 C   0  0  0  0  0  0  0  0  0  0  0  0
    0.8530   -1.4980   -1.4380 C   0  0  0  0  0  0  0  0  0  0  0  0
    0.9490   -0.6120   -0.3230 N   0  0  0  0  0  0  0  0  0  0  0  0
    0.1980    0.5350   -0.0290 C   0  0  0  0  0  0  0  0  0  0  0  0
    0.4690    1.2370    1.0090 O   0  0  0  0  0  0  0  0  0  0  0  0
   -0.9170    0.9710   -0.8950 C   0  0  2  0  0  0  0  0  0  0  0  0
   -1.1150    2.3910   -0.7020 N   0  0  0  0  0  0  0  0  0  0  0  0
   -2.1440    0.1700   -0.5490 C   0  0  2  0  0  0  0  0  0  0  0  0
   -3.3260    0.5520   -1.3710 C   0  0  0  0  0  0  0  0  0  0  0  0
   -3.2510    1.3430   -2.4800 C   0  0  0  0  0  0  0  0  0  0  0  0
   -4.4000    1.6550   -3.1680 C   0  0  0  0  0  0  0  0  0  0  0  0
   -5.6530    1.2060   -2.7960 C   0  0  0  0  0  0  0  0  0  0  0  0
   -5.6820    0.4080   -1.6690 C   0  0  0  0  0  0  0  0  0  0  0  0
   -4.5520    0.0800   -0.9620 C   0  0  0  0  0  0  0  0  0  0  0  0
   -2.4560    0.0570    0.8750 C   0  0  0  0  0  0  0  0  0  0  0  0
   -2.7270   -1.2070    1.4320 C   0  0  0  0  0  0  0  0  0  0  0  0
   -3.0320   -1.3840    2.7580 C   0  0  0  0  0  0  0  0  0  0  0  0
   -3.0910   -0.3170    3.6300 C   0  0  0  0  0  0  0  0  0  0  0  0
   -2.8350    0.9170    3.1220 C   0  0  0  0  0  0  0  0  0  0  0  0
   -2.5230    1.0950    1.7660 C   0  0  0  0  0  0  0  0  0  0  0  0
  1  2  1  0
  2  3  1  0
  3  4  1  0
  4  5  1  0
  5  6  2  0
  7  5  1  6
  7  8  1  0
  7 11  1  0
  8  9  1  0
  9 10  1  0
 10 11  1  0
 11 12  1  0
 12 13  2  0
 12 14  1  0
 14 15  1  1
 14 16  1  0
 16 17  1  6
 16 23  1  0
 17 18  2  0
 17 22  1  0
 18 19  1  0
 19 20  2  0
 20 21  1  0
 21 22  2  0
 23 24  2  0
 23 28  1  0
 24 25  1  0
 25 26  2  0
 26 27  1  0
 27 28  2  0
M  CHG  1  15   1
M  END
