
     RDKit          3D

 17 18  0  0  0  0  0  0  0  0999 V2000
    2.7950    3.3290    0.0840 C   0  0  0  0  0  0  0  0  0  0  0  0
    3.5020    2.2820    0.2750 C   0  0  0  0  0  0  0  0  0  0  0  0
    5.2740    2.6760    0.4710 Cl  0  0  0  0  0  0  0  0  0  0  0  0
    3.1410    0.9010    0.3590 C   0  0  0  0  0  0  0  0  0  0  0  0
    4.2250    0.0670    0.5800 C   0  0  0  0  0  0  0  0  0  0  0  0
    1.9240    0.1920    0.2620 C   0  0  0  0  0  0  0  0  0  0  0  0
    0.6750    0.5240    0.0670 C   0  0  0  0  0  0  0  0  0  0  0  0
    0.0850    1.7510   -0.1200 O   0  0  0  0  0  0  0  0  0  0  0  0
   -1.2850    1.7170   -0.2940 C   0  0  0  0  0  0  0  0  0  0  0  0
   -1.5840    0.2560   -0.2080 C   0  0  0  0  0  0  0  0  0  0  0  0
   -0.4670   -0.4220   -0.0030 C   0  0  0  0  0  0  0  0  0  0  0  0
   -0.3800   -1.8770    0.1120 C   0  0  0  0  0  0  0  0  0  0  0  0
    0.7210   -2.3850   -0.1990 O   0  0  0  0  0  0  0  0  0  0  0  0
   -1.3710   -2.8120    0.5270 N   0  0  0  0  0  0  0  0  0  0  0  0
   -2.7840   -2.5040    0.5960 C   0  0  0  0  0  0  0  0  0  0  0  0
   -3.1500   -1.6520   -0.5820 C   0  0  0  0  0  0  0  0  0  0  0  0
   -2.9870   -0.1930   -0.3420 C   0  0  0  0  0  0  0  0  0  0  0  0
  1  2  2  0
  2  3  1  0
  2  4  1  0
  4  5  2  0
  4  6  1  0
  6  7  2  3
  7  8  1  0
  7 11  1  0
  8  9  1  0
  9 10  1  0
 10 11  2  0
 10 17  1  0
 11 12  1  0
 12 13  2  0
 12 14  1  0
 14 15  1  0
 15 16  1  0
 16 17  1  0
M  END
