
     RDKit          3D

 10 10  0  0  0  0  0  0  0  0999 V2000
    4.5910   -0.2550    0.3080 O   0  0  0  0  0  0  0  0  0  0  0  0
    3.4260    0.2030   -0.3050 C   0  0  0  0  0  0  0  0  0  0  0  0
    2.2170   -0.3640    0.4170 C   0  0  0  0  0  0  0  0  0  0  0  0
    0.9280    0.0860   -0.1880 C   0  0  0  0  0  0  0  0  0  0  0  0
   -0.2010   -0.5350    0.6070 C   0  0  0  0  0  0  0  0  0  0  0  0
   -1.5300   -0.1320    0.0620 C   0  0  0  0  0  0  0  0  0  0  0  0
   -2.4660    0.5200    0.7230 C   0  0  0  0  0  0  0  0  0  0  0  0
   -3.6140    0.7160   -0.1780 C   0  0  0  0  0  0  0  0  0  0  0  0
   -3.2140    0.0900   -1.4440 C   0  0  0  0  0  0  0  0  0  0  0  0
   -2.0030   -0.3960   -1.2870 C   0  0  0  0  0  0  0  0  0  0  0  0
  1  2  1  0
  2  3  1  0
  3  4  1  0
  4  5  1  0
  5  6  1  0
  6  7  2  0
  6 10  1  0
  7  8  1  0
  8  9  1  0
  9 10  2  0
M  END
