
     RDKit          3D

 19 20  0  0  0  0  0  0  0  0999 V2000
   -6.3530    0.4980   -1.1080 O   0  0  0  0  0  0  0  0  0  0  0  0
   -5.2330    0.3090   -0.5290 C   0  0  0  0  0  0  0  0  0  0  0  0
   -5.0010    1.0700    0.7240 C   0  0  0  0  0  0  0  0  0  0  0  0
   -3.2840    1.7060    0.6060 S   0  0  0  0  0  0  0  0  0  0  0  0
   -2.3500    0.4300   -0.2090 C   0  0  0  0  0  0  0  0  0  0  0  0
   -0.8790    0.4310   -0.0880 C   0  0  0  0  0  0  0  0  0  0  0  0
   -0.3240    1.3360    0.5880 O   0  0  0  0  0  0  0  0  0  0  0  0
   -0.0870   -0.5390   -0.7010 N   0  0  0  0  0  0  0  0  0  0  0  0
    1.4070   -0.5290   -0.5730 C   0  0  0  0  0  0  0  0  0  0  0  0
    2.3190   -1.1370   -0.9230 N   0  0  0  0  0  0  0  0  0  0  0  0
    3.5930   -0.9340   -0.6770 C   0  0  0  0  0  0  0  0  0  0  0  0
    4.9570   -1.9750   -1.2930 S   0  0  0  0  0  0  0  0  0  0  0  0
    3.8790    0.1440    0.0980 C   0  0  0  0  0  0  0  0  0  0  0  0
    5.0970    0.7570    0.6250 C   0  0  0  0  0  0  0  0  0  0  0  0
    4.9690    1.7860    1.3320 O   0  0  0  0  0  0  0  0  0  0  0  0
    6.3490    0.2790    0.3930 O   0  0  0  0  0  0  0  0  0  0  0  0
    2.1800    0.8060    0.4220 S   0  0  0  0  0  0  0  0  0  0  0  0
   -2.9100   -0.4720   -0.8830 N   0  0  0  0  0  0  0  0  0  0  0  0
   -4.2780   -0.5860   -1.0750 N   0  0  0  0  0  0  0  0  0  0  0  0
  1  2  2  0
  2  3  1  0
  2 19  1  0
  3  4  1  0
  4  5  1  0
  5  6  1  0
  5 18  2  0
  6  7  2  0
  6  8  1  0
  8  9  1  0
  9 10  2  0
  9 17  1  0
 10 11  1  0
 11 12  1  0
 11 13  2  0
 13 14  1  0
 13 17  1  0
 14 15  2  0
 14 16  1  0
 18 19  1  0
M  END
