
     RDKit          3D

 19 20  0  0  0  0  0  0  0  0999 V2000
   -3.6260    3.0350    0.1590 N   0  0  0  0  0  0  0  0  0  0  0  0
   -4.4090    1.8740    0.3510 C   0  0  0  0  0  0  0  0  0  0  0  0
   -5.5660    2.0080    0.8350 O   0  0  0  0  0  0  0  0  0  0  0  0
   -3.8800    0.5320   -0.0080 C   0  0  0  0  0  0  0  0  0  0  0  0
   -2.6000    0.6710   -0.5120 O   0  0  0  0  0  0  0  0  0  0  0  0
   -1.9400   -0.8000   -0.9380 S   0  0  2  0  0  0  0  0  0  0  0  0
   -1.7740   -0.9020   -2.4400 O   0  0  0  0  0  0  0  0  0  0  0  0
   -2.8890   -1.8770   -0.5010 O   0  0  0  0  0  0  0  0  0  0  0  0
   -0.3920   -1.0420   -0.1550 C   0  0  0  0  0  0  0  0  0  0  0  0
   -0.2120   -1.6370    1.0750 C   0  0  0  0  0  0  0  0  0  0  0  0
    1.0870   -1.6400    1.3320 N   0  0  0  0  0  0  0  0  0  0  0  0
    1.7540   -1.0710    0.3210 C   0  0  0  0  0  0  0  0  0  0  0  0
    3.2400   -0.8990    0.2640 C   0  0  0  0  0  0  0  0  0  0  0  0
    4.1890   -1.1110    0.8720 N   0  0  0  0  0  0  0  0  0  0  0  0
    5.4100   -0.8120    0.5100 N   0  0  0  0  0  0  0  0  0  0  0  0
    5.7280   -0.2880   -0.4800 C   0  0  0  0  0  0  0  0  0  0  0  0
    7.1510    0.3220   -1.4270 S   0  0  0  0  0  0  0  0  0  0  0  0
    3.9820   -0.0670   -1.2610 S   0  0  0  0  0  0  0  0  0  0  0  0
    0.8470   -0.6800   -0.6390 C   0  0  0  0  0  0  0  0  0  0  0  0
  1  2  1  0
  2  3  2  0
  2  4  1  0
  4  5  1  0
  6  5  1  6
  6  7  2  0
  6  8  2  0
  6  9  1  0
  9 10  2  0
  9 19  1  0
 10 11  1  0
 11 12  1  0
 12 13  1  0
 12 19  2  0
 13 14  2  0
 13 18  1  0
 14 15  1  0
 15 16  2  0
 16 17  1  0
 16 18  1  0
M  END
