
     RDKit          3D

 19 19  0  0  0  0  0  0  0  0999 V2000
    6.2010    0.3260    0.5980 N   0  0  0  0  0  0  0  0  0  0  0  0
    5.3400    0.6260    1.4280 C   0  0  0  0  0  0  0  0  0  0  0  0
    5.8840    1.6540    2.8250 S   0  0  0  0  0  0  0  0  0  0  0  0
    3.6550    0.1520    1.3760 S   0  0  0  0  0  0  0  0  0  0  0  0
    3.2920   -0.8420   -0.0420 C   0  0  0  0  0  0  0  0  0  0  0  0
    4.2310   -1.2300   -1.0420 S   0  0  0  0  0  0  0  0  0  0  0  0
    1.8400   -1.2930   -0.1540 C   0  0  0  0  0  0  0  0  0  0  0  0
    1.0550   -0.0910   -0.2220 N   0  0  0  0  0  0  0  0  0  0  0  0
   -0.3670   -0.2190   -0.3340 C   0  0  0  0  0  0  0  0  0  0  0  0
   -0.8850   -1.3650   -0.3690 O   0  0  0  0  0  0  0  0  0  0  0  0
   -1.2080    0.8790   -0.4060 O   0  0  0  0  0  0  0  0  0  0  0  0
   -2.5850    0.6670   -0.5130 C   0  0  0  0  0  0  0  0  0  0  0  0
   -3.3330    0.5720    0.6520 C   0  0  0  0  0  0  0  0  0  0  0  0
   -4.6630    0.3660    0.5060 N   0  0  0  0  0  0  0  0  0  0  0  0
   -5.2490    0.2550   -0.7030 C   0  0  0  0  0  0  0  0  0  0  0  0
   -6.4960    0.0630   -0.7890 O   0  0  0  0  0  0  0  0  0  0  0  0
   -4.4940    0.3520   -1.8170 N   0  0  0  0  0  0  0  0  0  0  0  0
   -3.1670    0.5560   -1.7560 C   0  0  0  0  0  0  0  0  0  0  0  0
   -2.4330    0.6510   -2.7750 O   0  0  0  0  0  0  0  0  0  0  0  0
  1  2  2  0
  2  3  1  0
  2  4  1  0
  4  5  1  0
  5  6  2  0
  5  7  1  0
  7  8  1  0
  8  9  1  0
  9 10  2  0
  9 11  1  0
 11 12  1  0
 12 13  2  0
 12 18  1  0
 13 14  1  0
 14 15  1  0
 15 16  2  0
 15 17  1  0
 17 18  1  0
 18 19  2  0
M  END
