
     RDKit          3D

 19 20  0  0  0  0  0  0  0  0999 V2000
   -5.1410    2.0400   -0.7570 O   0  0  0  0  0  0  0  0  0  0  0  0
   -4.0120    1.5810   -0.4720 C   0  0  0  0  0  0  0  0  0  0  0  0
   -3.6980    0.3070   -0.8200 N   0  0  0  0  0  0  0  0  0  0  0  0
   -2.4870   -0.1980   -0.5200 C   0  0  0  0  0  0  0  0  0  0  0  0
   -2.1610   -1.4980   -0.8720 C   0  0  0  0  0  0  0  0  0  0  0  0
   -0.9220   -2.0220   -0.5680 C   0  0  0  0  0  0  0  0  0  0  0  0
   -0.0330   -1.2020    0.0950 C   0  0  0  0  0  0  0  0  0  0  0  0
    1.5720   -1.9020    0.4810 S   0  0  0  0  0  0  0  0  0  0  0  0
    2.7330   -1.6290   -0.8010 N   0  0  0  0  0  0  0  0  0  0  0  0
    4.2240   -1.1240   -0.0760 S   0  0  1  0  0  0  0  0  0  0  0  0
    4.2760   -1.7590    1.3060 O   0  0  0  0  0  0  0  0  0  0  0  0
    5.3560   -1.6090   -0.9360 O   0  0  0  0  0  0  0  0  0  0  0  0
    4.2070    0.6030    0.0490 N   0  0  0  0  0  0  0  0  0  0  0  0
    3.5120    1.0780    1.5880 S   0  0  0  0  0  0  0  0  0  0  0  0
   -0.3600    0.0950    0.4460 C   0  0  0  0  0  0  0  0  0  0  0  0
   -1.5980    0.6240    0.1440 C   0  0  0  0  0  0  0  0  0  0  0  0
   -1.9140    1.8920    0.4880 N   0  0  0  0  0  0  0  0  0  0  0  0
   -3.1250    2.4000    0.1890 C   0  0  0  0  0  0  0  0  0  0  0  0
   -3.4510    3.5840    0.4980 O   0  0  0  0  0  0  0  0  0  0  0  0
  1  2  2  0
  2  3  1  0
  2 18  1  0
  3  4  1  0
  4  5  2  0
  4 16  1  0
  5  6  1  0
  6  7  2  0
  7  8  1  0
  7 15  1  0
  8  9  1  0
 10  9  1  6
 10 11  2  0
 10 12  2  0
 10 13  1  0
 13 14  1  0
 15 16  2  0
 16 17  1  0
 17 18  1  0
 18 19  2  0
M  END
