
     RDKit          3D

 28 31  0  0  0  0  0  0  0  0999 V2000
    4.1890   -2.7410    1.6680 C   0  0  0  0  0  0  0  0  0  0  0  0
    3.2160   -1.5720    1.5020 C   0  0  0  0  0  0  0  0  0  0  0  0
    3.1390   -1.1300    0.0790 C   0  0  2  0  0  0  0  0  0  0  0  0
    4.4940   -0.7510   -0.2160 O   0  0  0  0  0  0  0  0  0  0  0  0
    2.2640    0.0050   -0.2590 C   0  0  1  0  0  0  0  0  0  0  0  0
    2.4220    0.3300   -1.7430 C   0  0  2  0  0  0  0  0  0  0  0  0
    3.6880   -0.0520   -2.1710 O   0  0  0  0  0  0  0  0  0  0  0  0
    2.4560    1.8680   -1.7790 C   0  0  0  0  0  0  0  0  0  0  0  0
    1.0870    2.2480   -1.3990 C   0  0  0  0  0  0  0  0  0  0  0  0
    0.4940    1.6180   -0.2230 C   0  0  1  0  0  0  0  0  0  0  0  0
   -0.9710    1.3780   -0.6120 C   0  0  2  0  0  0  0  0  0  0  0  0
   -1.7540    2.5430   -0.9390 C   0  0  0  0  0  0  0  0  0  0  0  0
   -2.0020    3.6510   -0.0000 C   0  0  0  0  0  0  0  0  0  0  0  0
   -2.8320    4.6900   -0.8240 C   0  0  0  0  0  0  0  0  0  0  0  0
   -3.9900    4.0220   -1.2100 O   0  0  0  0  0  0  0  0  0  0  0  0
   -1.3500    0.3920    0.4120 C   0  0  1  0  0  0  0  0  0  0  0  0
   -1.5170    0.9430    1.7940 C   0  0  0  0  0  0  0  0  0  0  0  0
   -2.9830    0.7310    2.1070 C   0  0  0  0  0  0  0  0  0  0  0  0
   -3.3970   -0.3280    1.2880 O   0  0  0  0  0  0  0  0  0  0  0  0
   -2.6900   -0.1380    0.1160 C   0  0  0  0  0  0  0  0  0  0  0  0
   -0.2030   -0.6740    0.3570 C   0  0  1  0  0  0  0  0  0  0  0  0
   -0.3930   -1.3690    1.6800 C   0  0  0  0  0  0  0  0  0  0  0  0
   -0.2700   -2.8930    1.6310 C   0  0  0  0  0  0  0  0  0  0  0  0
   -1.4030   -3.3070    0.6880 C   0  0  0  0  0  0  0  0  0  0  0  0
   -0.8180   -2.9700   -0.6480 C   0  0  1  0  0  0  0  0  0  0  0  0
   -1.7670   -3.4150   -1.7690 C   0  0  0  0  0  0  0  0  0  0  0  0
   -0.3330   -1.5720   -0.8150 C   0  0  0  0  0  0  0  0  0  0  0  0
    0.9620    0.2820    0.2980 C   0  0  1  0  0  0  0  0  0  0  0  0
  1  2  1  0
  2  3  1  0
  3  4  1  1
  5  3  1  6
  5  6  1  0
  5 28  1  0
  6  7  1  1
  6  8  1  0
  8  9  1  0
 10  9  1  6
 10 11  1  0
 10 28  1  0
 11 12  1  1
 11 16  1  0
 12 13  1  0
 13 14  1  0
 14 15  1  0
 16 17  1  1
 16 20  1  0
 16 21  1  0
 17 18  1  0
 18 19  1  0
 19 20  1  0
 21 22  1  1
 21 27  1  0
 28 21  1  6
 22 23  1  0
 23 24  1  0
 24 25  1  0
 25 26  1  6
 25 27  1  0
M  END
