
     RDKit          3D

 19 19  0  0  0  0  0  0  0  0999 V2000
    5.8520    1.6790   -0.7240 C   0  0  0  0  0  0  0  0  0  0  0  0
    5.1200    1.3950    0.4420 O   0  0  0  0  0  0  0  0  0  0  0  0
    3.8060    0.9360    0.3480 C   0  0  0  0  0  0  0  0  0  0  0  0
    3.0430    0.6440    1.4480 C   0  0  0  0  0  0  0  0  0  0  0  0
    1.7270    0.1840    1.3470 C   0  0  0  0  0  0  0  0  0  0  0  0
    1.1680    0.0180    0.1130 C   0  0  0  0  0  0  0  0  0  0  0  0
   -0.1580   -0.4110   -0.1240 N   0  0  0  0  0  0  0  0  0  0  0  0
   -1.2610   -0.2590    0.7240 C   0  0  0  0  0  0  0  0  0  0  0  0
   -1.1020    0.5650    2.1560 S   0  0  0  0  0  0  0  0  0  0  0  0
   -2.5340   -0.7670    0.3910 N   0  0  0  0  0  0  0  0  0  0  0  0
   -2.7680   -1.4870   -0.7870 C   0  0  0  0  0  0  0  0  0  0  0  0
   -2.0590   -2.5000   -1.1300 N   0  0  0  0  0  0  0  0  0  0  0  0
   -4.1400   -1.0960   -1.9060 S   0  0  0  0  0  0  0  0  0  0  0  0
   -5.0880    0.1940   -1.3460 O   0  0  0  0  0  0  0  0  0  0  0  0
   -6.2570   -0.3820   -0.3070 S   0  0  2  0  0  0  0  0  0  0  0  0
   -7.1430   -1.3500   -1.0740 O   0  0  0  0  0  0  0  0  0  0  0  0
   -7.0780    0.7890    0.1660 O   0  0  0  0  0  0  0  0  0  0  0  0
    1.9910    0.3310   -0.9880 C   0  0  0  0  0  0  0  0  0  0  0  0
    3.2310    0.7620   -0.8500 N   0  0  0  0  0  0  0  0  0  0  0  0
  1  2  1  0
  2  3  1  0
  3  4  2  0
  3 19  1  0
  4  5  1  0
  5  6  2  0
  6  7  1  0
  6 18  1  0
  7  8  1  0
  8  9  2  0
  8 10  1  0
 10 11  1  0
 11 12  2  0
 11 13  1  0
 13 14  1  0
 15 14  1  6
 15 16  2  0
 15 17  2  0
 18 19  2  0
M  END
