
     RDKit          3D

 19 20  0  0  0  0  0  0  0  0999 V2000
    5.7940    0.5560    0.1270 N   0  0  0  0  0  0  0  0  0  0  0  0
    4.4720    1.6480   -0.0540 S   0  0  2  0  0  0  0  0  0  0  0  0
    4.7020    2.3900   -1.3430 O   0  0  0  0  0  0  0  0  0  0  0  0
    4.4200    2.5670    1.1010 O   0  0  0  0  0  0  0  0  0  0  0  0
    2.9560    0.7160   -0.1890 C   0  0  0  0  0  0  0  0  0  0  0  0
    2.1300    0.2690    0.4680 N   0  0  0  0  0  0  0  0  0  0  0  0
    1.0810   -0.3960    0.0330 N   0  0  0  0  0  0  0  0  0  0  0  0
    0.8340   -0.6300   -1.0730 C   0  0  0  0  0  0  0  0  0  0  0  0
   -0.1150   -1.2690   -1.9540 N   0  0  0  0  0  0  0  0  0  0  0  0
   -1.4700   -2.0320   -1.2460 S   0  0  2  0  0  0  0  0  0  0  0  0
   -1.0190   -3.0630   -0.2450 O   0  0  0  0  0  0  0  0  0  0  0  0
   -2.3160   -2.7460   -2.2550 O   0  0  0  0  0  0  0  0  0  0  0  0
   -2.3990   -0.8140   -0.3950 C   0  0  0  0  0  0  0  0  0  0  0  0
   -3.4050   -0.1150   -1.0350 C   0  0  0  0  0  0  0  0  0  0  0  0
   -4.1060    0.8350   -0.3100 C   0  0  0  0  0  0  0  0  0  0  0  0
   -3.8160    1.0890    1.0230 C   0  0  0  0  0  0  0  0  0  0  0  0
   -2.8000    0.3700    1.6380 C   0  0  0  0  0  0  0  0  0  0  0  0
   -2.0970   -0.5790    0.9210 C   0  0  0  0  0  0  0  0  0  0  0  0
    2.3280    0.2070   -1.8990 S   0  0  0  0  0  0  0  0  0  0  0  0
  2  1  1  1
  2  3  2  0
  2  4  2  0
  2  5  1  0
  5  6  2  0
  5 19  1  0
  6  7  1  0
  7  8  2  0
  8  9  1  0
  8 19  1  0
 10  9  1  6
 10 11  2  0
 10 12  2  0
 10 13  1  0
 13 14  2  0
 13 18  1  0
 14 15  1  0
 15 16  2  0
 16 17  1  0
 17 18  2  0
M  END
