
     RDKit          3D

 13 13  0  0  0  0  0  0  0  0999 V2000
    1.6040    1.1270   -1.2660 N   0  0  0  0  0  0  0  0  0  0  0  0
    2.2360   -0.0560   -1.6880 C   0  0  0  0  0  0  0  0  0  0  0  0
    2.7860   -0.1270   -2.8060 O   0  0  0  0  0  0  0  0  0  0  0  0
    2.2550   -1.2310   -0.8070 C   0  0  0  0  0  0  0  0  0  0  0  0
    1.5550   -0.8980    0.4140 N   0  0  0  0  0  0  0  0  0  0  0  0
    0.2120   -0.5150    0.4510 C   0  0  0  0  0  0  0  0  0  0  0  0
   -0.4400   -0.4500   -0.6210 O   0  0  0  0  0  0  0  0  0  0  0  0
   -0.4580   -0.1910    1.6490 O   0  0  0  0  0  0  0  0  0  0  0  0
   -1.8170    0.1880    1.6090 C   0  0  0  0  0  0  0  0  0  0  0  0
   -2.4980    0.2660    0.5860 N   0  0  0  0  0  0  0  0  0  0  0  0
   -3.7900    0.6240    0.5290 N   0  0  0  0  0  0  0  0  0  0  0  0
   -4.3050    1.5030    2.0050 S   0  0  0  0  0  0  0  0  0  0  0  0
   -2.6740    0.6020    3.1300 S   0  0  0  0  0  0  0  0  0  0  0  0
  1  2  1  0
  2  3  2  0
  2  4  1  0
  4  5  1  0
  5  6  1  0
  6  7  2  0
  6  8  1  0
  8  9  1  0
  9 10  2  0
  9 13  1  0
 10 11  1  0
 11 12  1  0
 12 13  1  0
M  END
