
     RDKit          3D

 13 13  0  0  0  0  0  0  0  0999 V2000
   -4.4920   -0.0050   -0.6360 C   0  0  0  0  0  0  0  0  0  0  0  0
   -3.1280   -0.3560   -0.1600 C   0  0  0  0  0  0  0  0  0  0  0  0
   -2.9350   -1.1800    0.7970 O   0  0  0  0  0  0  0  0  0  0  0  0
   -1.9500    0.1910   -0.7240 N   0  0  0  0  0  0  0  0  0  0  0  0
   -0.6510   -0.1870   -0.2210 C   0  0  0  0  0  0  0  0  0  0  0  0
   -0.1020   -0.8720    0.5950 N   0  0  0  0  0  0  0  0  0  0  0  0
    1.1440   -0.9810    0.7860 N   0  0  0  0  0  0  0  0  0  0  0  0
    2.0090   -0.3460    0.1040 C   0  0  0  0  0  0  0  0  0  0  0  0
    3.7240   -0.2160    0.0450 S   0  0  1  0  0  0  0  0  0  0  0  0
    4.2670    1.0450    1.0890 N   0  0  0  0  0  0  0  0  0  0  0  0
    4.3050   -1.5290    0.4870 O   0  0  0  0  0  0  0  0  0  0  0  0
    4.1480    0.0370   -1.3790 O   0  0  0  0  0  0  0  0  0  0  0  0
    0.8740    0.5760   -1.0150 S   0  0  0  0  0  0  0  0  0  0  0  0
  1  2  1  0
  2  3  2  0
  2  4  1  0
  4  5  1  0
  5  6  2  0
  5 13  1  0
  6  7  1  0
  7  8  2  0
  8  9  1  0
  8 13  1  0
  9 10  1  1
  9 11  2  0
  9 12  2  0
M  END
