
     RDKit          3D

 12 12  0  0  0  0  0  0  0  0999 V2000
    3.8750   -0.1020   -0.7900 N   0  0  0  0  0  0  0  0  0  0  0  0
    3.5210   -0.6440    0.3890 O   0  0  0  0  0  0  0  0  0  0  0  0
    2.1890   -0.3330    0.6690 C   0  0  0  0  0  0  0  0  0  0  0  0
    1.1020   -0.9920   -0.6350 S   0  0  0  0  0  0  0  0  0  0  0  0
   -0.5700   -0.5460   -0.1910 C   0  0  0  0  0  0  0  0  0  0  0  0
   -1.3570   -1.3110    0.5630 N   0  0  0  0  0  0  0  0  0  0  0  0
   -2.5970   -0.9900    0.8980 N   0  0  0  0  0  0  0  0  0  0  0  0
   -3.0770    0.1760    0.4450 C   0  0  0  0  0  0  0  0  0  0  0  0
   -4.6080    0.5890    0.8490 S   0  0  0  0  0  0  0  0  0  0  0  0
   -2.3480    1.0110   -0.3240 N   0  0  0  0  0  0  0  0  0  0  0  0
   -1.0840    0.6490   -0.6460 C   0  0  0  0  0  0  0  0  0  0  0  0
   -0.4080    1.4300   -1.3630 O   0  0  0  0  0  0  0  0  0  0  0  0
  1  2  1  0
  2  3  1  0
  3  4  1  0
  4  5  1  0
  5  6  2  0
  5 11  1  0
  6  7  1  0
  7  8  1  0
  8  9  2  0
  8 10  1  0
 10 11  1  0
 11 12  2  0
M  END
