
     RDKit          3D

 13 13  0  0  0  0  0  0  0  0999 V2000
    3.8870   -0.1730   -0.3250 N   0  0  0  0  0  0  0  0  0  0  0  0
    2.6760    0.4940   -0.0140 C   0  0  0  0  0  0  0  0  0  0  0  0
    2.7690    2.0630    0.4360 S   0  0  0  0  0  0  0  0  0  0  0  0
    1.4280   -0.2550   -0.1150 C   0  0  0  0  0  0  0  0  0  0  0  0
    0.2840    0.5480    0.2300 N   0  0  0  0  0  0  0  0  0  0  0  0
   -1.0460   -0.0110    0.1910 C   0  0  0  0  0  0  0  0  0  0  0  0
   -1.1950   -1.2840    0.2220 N   0  0  0  0  0  0  0  0  0  0  0  0
   -2.8980   -1.5610    0.1590 S   0  0  1  0  0  0  0  0  0  0  0  0
   -3.3110   -2.2830   -1.0860 O   0  0  0  0  0  0  0  0  0  0  0  0
   -3.4160   -2.1790    1.4040 O   0  0  0  0  0  0  0  0  0  0  0  0
   -3.3400    0.1090    0.0920 N   0  0  0  0  0  0  0  0  0  0  0  0
   -2.2320    0.7600    0.1190 C   0  0  0  0  0  0  0  0  0  0  0  0
   -2.3010    2.1730    0.0760 O   0  0  0  0  0  0  0  0  0  0  0  0
  1  2  1  0
  2  3  2  0
  2  4  1  0
  4  5  1  0
  5  6  1  0
  6  7  2  0
  6 12  1  0
  8  7  1  1
  8  9  2  0
  8 10  2  0
  8 11  1  0
 11 12  2  0
 12 13  1  0
M  END
