
     RDKit          3D

 12 12  0  0  0  0  0  0  0  0999 V2000
    3.7930   -0.7230   -0.6030 C   0  0  0  0  0  0  0  0  0  0  0  0
    3.0910    0.3460   -0.0140 O   0  0  0  0  0  0  0  0  0  0  0  0
    1.9350    0.1180    0.6960 C   0  0  0  0  0  0  0  0  0  0  0  0
    1.4590   -1.0260    0.8510 O   0  0  0  0  0  0  0  0  0  0  0  0
    1.2600    1.3210    1.2820 C   0  0  0  0  0  0  0  0  0  0  0  0
   -0.0240    1.9450    0.1560 S   0  0  0  0  0  0  0  0  0  0  0  0
   -1.3370    0.7460    0.0500 C   0  0  0  0  0  0  0  0  0  0  0  0
   -1.5130   -0.3810    0.6460 N   0  0  0  0  0  0  0  0  0  0  0  0
   -2.7200   -0.9610    0.2210 N   0  0  0  0  0  0  0  0  0  0  0  0
   -3.4490    0.0810   -0.3590 N   0  0  0  0  0  0  0  0  0  0  0  0
   -4.3180   -0.3160   -1.2940 O   0  0  0  0  0  0  0  0  0  0  0  0
   -2.4670    0.9490   -0.8210 N   0  0  0  0  0  0  0  0  0  0  0  0
  1  2  1  0
  2  3  1  0
  3  4  2  0
  3  5  1  0
  5  6  1  0
  6  7  1  0
  7  8  2  0
  7 12  1  0
  8  9  1  0
  9 10  1  0
 10 11  1  0
 10 12  1  0
M  END
