
     RDKit          3D

 13 13  0  0  0  0  0  0  0  0999 V2000
    3.6990   -0.8630    0.2810 O   0  0  0  0  0  0  0  0  0  0  0  0
    3.3770    0.3280    0.5140 C   0  0  0  0  0  0  0  0  0  0  0  0
    4.3590    1.3080    0.7540 O   0  0  0  0  0  0  0  0  0  0  0  0
    1.9950    0.6430    0.5270 N   0  0  0  0  0  0  0  0  0  0  0  0
    1.0800   -0.3750    0.2820 N   0  0  0  0  0  0  0  0  0  0  0  0
   -0.1880   -0.2170    0.2090 C   0  0  0  0  0  0  0  0  0  0  0  0
   -1.0490    1.2320    0.3860 S   0  0  0  0  0  0  0  0  0  0  0  0
   -2.7450    1.0080    0.2140 C   0  0  0  0  0  0  0  0  0  0  0  0
   -3.8400    2.2140    0.3310 S   0  0  0  0  0  0  0  0  0  0  0  0
   -3.0900   -0.2670   -0.0300 N   0  0  0  0  0  0  0  0  0  0  0  0
   -2.2980   -1.2900   -0.1400 N   0  0  0  0  0  0  0  0  0  0  0  0
   -0.9680   -1.3220   -0.0400 C   0  0  0  0  0  0  0  0  0  0  0  0
   -0.4000   -2.4680   -0.1890 O   0  0  0  0  0  0  0  0  0  0  0  0
  1  2  2  0
  2  3  1  0
  2  4  1  0
  4  5  1  0
  5  6  2  3
  6  7  1  0
  6 12  1  0
  7  8  1  0
  8  9  2  0
  8 10  1  0
 10 11  1  0
 11 12  1  0
 12 13  2  0
M  END
