
     RDKit          3D

 11 11  0  0  0  0  0  0  0  0999 V2000
    0.6830   -0.5800    1.6970 O   0  0  0  0  0  0  0  0  0  0  0  0
    0.2000    0.0820    0.7670 C   0  0  0  0  0  0  0  0  0  0  0  0
    1.0480    0.9380    0.1060 O   0  0  0  0  0  0  0  0  0  0  0  0
    2.3900    1.1310    0.3800 C   0  0  0  0  0  0  0  0  0  0  0  0
    3.2510   -0.0880    0.2560 C   0  0  0  0  0  0  0  0  0  0  0  0
    3.2190   -0.6170   -1.0220 O   0  0  0  0  0  0  0  0  0  0  0  0
   -1.2210   -0.0580    0.4020 C   0  0  0  0  0  0  0  0  0  0  0  0
   -1.8660    0.5800   -0.5600 C   0  0  0  0  0  0  0  0  0  0  0  0
   -3.2780    0.1470   -0.5890 C   0  0  0  0  0  0  0  0  0  0  0  0
   -3.3350   -0.8400    0.5130 C   0  0  0  0  0  0  0  0  0  0  0  0
   -2.1470   -0.9510    1.0770 C   0  0  0  0  0  0  0  0  0  0  0  0
  1  2  2  0
  2  3  1  0
  2  7  1  0
  3  4  1  0
  4  5  1  0
  5  6  1  0
  7  8  2  0
  7 11  1  0
  8  9  1  0
  9 10  1  0
 10 11  2  0
M  END
