
     RDKit          3D

 11 11  0  0  0  0  0  0  0  0999 V2000
   -2.5460   -0.7820    1.7940 O   0  0  0  0  0  0  0  0  0  0  0  0
   -2.5850    0.1670    1.0330 C   0  0  0  0  0  0  0  0  0  0  0  0
   -2.2670    0.0120   -0.4040 C   0  0  0  0  0  0  0  0  0  0  0  0
   -0.7680   -0.0640   -0.6440 C   0  0  2  0  0  0  0  0  0  0  0  0
   -0.5760   -0.2070   -2.0090 O   0  0  0  0  0  0  0  0  0  0  0  0
   -0.2310   -1.3000    0.0290 C   0  0  0  0  0  0  0  0  0  0  0  0
    1.2790   -1.3120   -0.2280 C   0  0  0  0  0  0  0  0  0  0  0  0
    1.8400   -0.1480    0.5870 C   0  0  1  0  0  0  0  0  0  0  0  0
    3.2160   -0.2290    0.5920 O   0  0  0  0  0  0  0  0  0  0  0  0
    1.3570    1.1270   -0.0260 C   0  0  0  0  0  0  0  0  0  0  0  0
   -0.1360    1.1810   -0.0920 C   0  0  0  0  0  0  0  0  0  0  0  0
  1  2  2  0
  2  3  1  0
  3  4  1  0
  4  5  1  6
  4  6  1  0
  4 11  1  0
  6  7  1  0
  7  8  1  0
  8  9  1  6
  8 10  1  0
 10 11  1  0
M  END
