
     RDKit          3D

 16 17  0  0  0  0  0  0  0  0999 V2000
    4.7000   -1.3500    0.2740 N   0  0  0  0  0  0  0  0  0  0  0  0
    4.2030    0.2160   -0.2220 S   0  0  1  0  0  0  0  0  0  0  0  0
    5.0890    1.2530    0.3750 O   0  0  0  0  0  0  0  0  0  0  0  0
    4.2270    0.2600   -1.7230 O   0  0  0  0  0  0  0  0  0  0  0  0
    2.5330    0.4210    0.3640 C   0  0  0  0  0  0  0  0  0  0  0  0
    1.8730    0.7800    1.2470 N   0  0  0  0  0  0  0  0  0  0  0  0
    0.5840    0.7690    1.2990 N   0  0  0  0  0  0  0  0  0  0  0  0
   -0.1270    0.3780    0.4250 C   0  0  0  0  0  0  0  0  0  0  0  0
   -1.5700    0.2060    0.1080 C   0  0  0  0  0  0  0  0  0  0  0  0
   -2.4670    0.5940    1.0710 C   0  0  0  0  0  0  0  0  0  0  0  0
   -3.8480    0.4680    0.8600 C   0  0  0  0  0  0  0  0  0  0  0  0
   -4.3290   -0.0490   -0.3240 C   0  0  0  0  0  0  0  0  0  0  0  0
   -3.4130   -0.4310   -1.2750 C   0  0  0  0  0  0  0  0  0  0  0  0
   -2.0500   -0.3020   -1.0560 C   0  0  0  0  0  0  0  0  0  0  0  0
   -0.8810   -0.7930   -2.2790 Cl  0  0  0  0  0  0  0  0  0  0  0  0
    1.1520   -0.1220   -0.8270 S   0  0  0  0  0  0  0  0  0  0  0  0
  2  1  1  6
  2  3  2  0
  2  4  2  0
  2  5  1  0
  5  6  2  0
  5 16  1  0
  6  7  1  0
  7  8  2  0
  8  9  1  0
  8 16  1  0
  9 10  2  0
  9 14  1  0
 10 11  1  0
 11 12  2  0
 12 13  1  0
 13 14  2  0
 14 15  1  0
M  END
