
     RDKit          3D

 11 11  0  0  0  0  0  0  0  0999 V2000
    2.9910   -1.3820   -0.1140 C   0  0  0  0  0  0  0  0  0  0  0  0
    2.5670   -0.0330   -0.0680 O   0  0  0  0  0  0  0  0  0  0  0  0
    1.2460    0.3490   -0.1430 C   0  0  0  0  0  0  0  0  0  0  0  0
    0.9760    1.7100   -0.0850 C   0  0  0  0  0  0  0  0  0  0  0  0
   -0.3490    2.0890   -0.1600 C   0  0  0  0  0  0  0  0  0  0  0  0
   -0.5760    3.4750   -0.0980 O   0  0  0  0  0  0  0  0  0  0  0  0
   -1.3690    1.1920   -0.2860 C   0  0  0  0  0  0  0  0  0  0  0  0
   -1.0980   -0.1510   -0.3430 C   0  0  0  0  0  0  0  0  0  0  0  0
   -2.2060   -1.1180   -0.4800 C   0  0  0  0  0  0  0  0  0  0  0  0
   -2.7080   -1.5470    0.7430 O   0  0  0  0  0  0  0  0  0  0  0  0
    0.2130   -0.5570   -0.2700 C   0  0  0  0  0  0  0  0  0  0  0  0
  1  2  1  0
  2  3  1  0
  3  4  2  0
  3 11  1  0
  4  5  1  0
  5  6  1  0
  5  7  2  0
  7  8  1  0
  8  9  1  0
  8 11  2  0
  9 10  1  0
M  END
