
     RDKit          3D

 11 11  0  0  0  0  0  0  0  0999 V2000
    1.6200   -1.0630    0.0580 O   0  0  0  0  0  0  0  0  0  0  0  0
    1.5090    0.1700    0.2550 C   0  0  0  0  0  0  0  0  0  0  0  0
    2.7240    0.9990    0.4530 C   0  0  0  0  0  0  0  0  0  0  0  0
    3.9440    0.1190    0.3710 C   0  0  0  0  0  0  0  0  0  0  0  0
    3.9320   -0.8740    1.3370 O   0  0  0  0  0  0  0  0  0  0  0  0
    0.2230    0.7270    0.2800 O   0  0  0  0  0  0  0  0  0  0  0  0
   -0.8880   -0.1170    0.0850 C   0  0  2  0  0  0  0  0  0  0  0  0
   -1.7400    0.4110   -1.0510 C   0  0  0  0  0  0  0  0  0  0  0  0
   -2.9940   -0.4300   -0.8610 C   0  0  0  0  0  0  0  0  0  0  0  0
   -3.2260   -0.2560    0.6380 C   0  0  0  0  0  0  0  0  0  0  0  0
   -1.8470   -0.1010    1.2430 C   0  0  0  0  0  0  0  0  0  0  0  0
  1  2  2  0
  2  3  1  0
  2  6  1  0
  3  4  1  0
  4  5  1  0
  7  6  1  1
  7  8  1  0
  7 11  1  0
  8  9  1  0
  9 10  1  0
 10 11  1  0
M  END
