
     RDKit          3D

 11 11  0  0  0  0  0  0  0  0999 V2000
   -3.3660   -0.0020    0.9260 C   0  0  0  0  0  0  0  0  0  0  0  0
   -2.4480    0.4120    0.0880 C   0  0  0  0  0  0  0  0  0  0  0  0
   -2.8450    1.2610   -0.9580 O   0  0  0  0  0  0  0  0  0  0  0  0
   -1.0720    0.0120    0.2330 C   0  0  0  0  0  0  0  0  0  0  0  0
   -0.6900   -0.8240    1.2590 O   0  0  0  0  0  0  0  0  0  0  0  0
   -0.1650    0.4410   -0.6200 C   0  0  0  0  0  0  0  0  0  0  0  0
    1.2540    0.0490   -0.4960 C   0  0  0  0  0  0  0  0  0  0  0  0
    1.9600    0.0500    0.6910 C   0  0  0  0  0  0  0  0  0  0  0  0
    3.2520   -0.3750    0.4180 C   0  0  0  0  0  0  0  0  0  0  0  0
    3.2630   -0.6160   -0.9340 C   0  0  0  0  0  0  0  0  0  0  0  0
    2.0670   -0.3540   -1.4390 O   0  0  0  0  0  0  0  0  0  0  0  0
  1  2  2  0
  2  3  1  0
  2  4  1  0
  4  5  1  0
  4  6  2  3
  6  7  1  0
  7  8  2  0
  7 11  1  0
  8  9  1  0
  9 10  2  0
 10 11  1  0
M  END
