
     RDKit          3D

 11 11  0  0  0  0  0  0  0  0999 V2000
    2.9600    0.6890    0.4310 C   0  0  0  0  0  0  0  0  0  0  0  0
    2.4050   -0.4860    0.3610 O   0  0  0  0  0  0  0  0  0  0  0  0
    1.2980   -1.1040    0.6630 C   0  0  0  0  0  0  0  0  0  0  0  0
    0.0760   -0.4240    0.1280 C   0  0  0  0  0  0  0  0  0  0  0  0
   -0.5540    0.6110    0.7840 C   0  0  0  0  0  0  0  0  0  0  0  0
   -1.7900    1.0540    0.3390 C   0  0  0  0  0  0  0  0  0  0  0  0
   -2.3680    2.1130    1.0670 O   0  0  0  0  0  0  0  0  0  0  0  0
   -2.4530    0.5260   -0.7390 C   0  0  0  0  0  0  0  0  0  0  0  0
   -1.8100   -0.5260   -1.4160 C   0  0  0  0  0  0  0  0  0  0  0  0
   -0.5890   -0.9680   -0.9810 C   0  0  0  0  0  0  0  0  0  0  0  0
    0.0900   -2.0260   -1.6620 O   0  0  0  0  0  0  0  0  0  0  0  0
  1  2  1  0
  2  3  1  0
  3  4  1  0
  4  5  2  0
  4 10  1  0
  5  6  1  0
  6  7  1  0
  6  8  2  0
  8  9  1  0
  9 10  2  0
 10 11  1  0
M  END
