
     RDKit          3D

 10 10  0  0  0  0  0  0  0  0999 V2000
    4.1890   -0.2880    0.4490 C   0  0  0  0  0  0  0  0  0  0  0  0
    2.9930   -0.7050   -0.1820 O   0  0  0  0  0  0  0  0  0  0  0  0
    1.7550   -0.1540    0.1680 C   0  0  0  0  0  0  0  0  0  0  0  0
    1.8050    0.7200    1.0680 O   0  0  0  0  0  0  0  0  0  0  0  0
    0.5790   -0.6460   -0.5360 C   0  0  0  0  0  0  0  0  0  0  0  0
   -0.7140   -0.0500   -0.1500 C   0  0  0  0  0  0  0  0  0  0  0  0
   -0.9730    0.8730    0.7490 C   0  0  0  0  0  0  0  0  0  0  0  0
   -2.4440    1.1660    0.7940 C   0  0  0  0  0  0  0  0  0  0  0  0
   -3.0450   -0.0750    0.2350 C   0  0  0  0  0  0  0  0  0  0  0  0
   -2.0170   -0.4790   -0.8070 C   0  0  0  0  0  0  0  0  0  0  0  0
  1  2  1  0
  2  3  1  0
  3  4  2  0
  3  5  1  0
  5  6  1  0
  6  7  2  0
  6 10  1  0
  7  8  1  0
  8  9  1  0
  9 10  1  0
M  END
