
     RDKit          3D

 16 17  0  0  0  0  0  0  0  0999 V2000
    4.3620    0.3350    1.1160 C   0  0  0  0  0  0  0  0  0  0  0  0
    3.7490   -0.6510    0.0990 C   0  0  0  0  0  0  0  0  0  0  0  0
    2.7870    0.1650   -1.0480 S   0  0  0  0  0  0  0  0  0  0  0  0
    1.3700   -0.3610   -1.9310 C   0  0  0  0  0  0  0  0  0  0  0  0
    0.2170   -0.4090   -1.0010 C   0  0  0  0  0  0  0  0  0  0  0  0
   -0.0180   -1.1030    0.4970 S   0  0  0  0  0  0  0  0  0  0  0  0
   -1.7700   -0.5900    0.7970 C   0  0  0  0  0  0  0  0  0  0  0  0
   -2.5430   -0.6750    1.9000 C   0  0  0  0  0  0  0  0  0  0  0  0
   -2.2280   -1.3530    2.8920 O   0  0  0  0  0  0  0  0  0  0  0  0
   -3.7810    0.0370    1.8910 N   0  0  0  0  0  0  0  0  0  0  0  0
   -4.0020    0.7210    0.7310 C   0  0  0  0  0  0  0  0  0  0  0  0
   -5.1680    1.4180    0.6990 O   0  0  0  0  0  0  0  0  0  0  0  0
   -3.2320    0.7660   -0.2930 N   0  0  0  0  0  0  0  0  0  0  0  0
   -1.9640    0.0740   -0.3570 C   0  0  0  0  0  0  0  0  0  0  0  0
   -1.0440    0.2070   -1.3030 C   0  0  0  0  0  0  0  0  0  0  0  0
   -1.1890    0.8140   -2.5000 O   0  0  0  0  0  0  0  0  0  0  0  0
  1  2  1  0
  2  3  1  0
  3  4  1  0
  4  5  1  0
  5  6  1  0
  5 15  2  0
  6  7  1  0
  7  8  1  0
  7 14  2  0
  8  9  2  0
  8 10  1  0
 10 11  1  0
 11 12  2  0
 11 13  1  0
 13 14  1  0
 14 15  1  0
 15 16  1  0
M  END
