
     RDKit          3D

 16 17  0  0  0  0  0  0  0  0999 V2000
   -6.5200    1.0020    0.4760 O   0  0  0  0  0  0  0  0  0  0  0  0
   -5.3860    0.5150    0.2290 C   0  0  0  0  0  0  0  0  0  0  0  0
   -5.0430   -0.6700   -0.4560 N   0  0  0  0  0  0  0  0  0  0  0  0
   -3.7000   -0.9610   -0.5920 C   0  0  0  0  0  0  0  0  0  0  0  0
   -3.2630   -2.0070   -1.1930 O   0  0  0  0  0  0  0  0  0  0  0  0
   -2.7940   -0.0110   -0.0110 C   0  0  0  0  0  0  0  0  0  0  0  0
   -1.5410   -0.0290    0.0020 N   0  0  0  0  0  0  0  0  0  0  0  0
   -0.6690    0.9350    0.5900 C   0  0  0  0  0  0  0  0  0  0  0  0
    0.7270    0.5190    0.3670 C   0  0  0  0  0  0  0  0  0  0  0  0
    1.1800   -0.6270   -0.3060 C   0  0  0  0  0  0  0  0  0  0  0  0
    2.4720   -0.8480   -0.4160 C   0  0  0  0  0  0  0  0  0  0  0  0
    3.3800    0.0750    0.1480 C   0  0  0  0  0  0  0  0  0  0  0  0
    4.8300    0.0980    0.1900 C   0  0  0  0  0  0  0  0  0  0  0  0
    5.4000    0.7630   -0.8940 O   0  0  0  0  0  0  0  0  0  0  0  0
    2.2070    1.2660    0.8350 S   0  0  0  0  0  0  0  0  0  0  0  0
   -3.8140    1.2460    0.7140 S   0  0  0  0  0  0  0  0  0  0  0  0
  1  2  2  0
  2  3  1  0
  2 16  1  0
  3  4  1  0
  4  5  2  0
  4  6  1  0
  6  7  2  3
  6 16  1  0
  7  8  1  0
  8  9  1  0
  9 10  2  0
  9 15  1  0
 10 11  1  0
 11 12  2  0
 12 13  1  0
 12 15  1  0
 13 14  1  0
M  END
