
     RDKit          3D

 16 17  0  0  0  0  0  0  0  0999 V2000
    4.3320    1.3860   -0.6280 O   0  0  0  0  0  0  0  0  0  0  0  0
    4.1270    0.0720   -1.0940 C   0  0  0  0  0  0  0  0  0  0  0  0
    3.4800   -0.7730   -0.0250 C   0  0  0  0  0  0  0  0  0  0  0  0
    2.1610   -0.1820    0.3500 C   0  0  0  0  0  0  0  0  0  0  0  0
    1.6340    0.9280   -0.1800 N   0  0  0  0  0  0  0  0  0  0  0  0
    0.4880    1.1250    0.3920 O   0  0  0  0  0  0  0  0  0  0  0  0
    0.2200    0.2070    1.2770 C   0  0  0  0  0  0  0  0  0  0  0  0
   -0.9900    0.0610    2.1580 C   0  0  0  0  0  0  0  0  0  0  0  0
   -2.2510   -0.9330    1.4010 S   0  0  0  0  0  0  0  0  0  0  0  0
   -3.0320   -0.0350   -0.0210 C   0  0  0  0  0  0  0  0  0  0  0  0
   -2.6670    1.2880   -0.2330 C   0  0  0  0  0  0  0  0  0  0  0  0
   -3.6780    1.6840   -1.7330 S   0  0  0  0  0  0  0  0  0  0  0  0
   -4.4420    0.0840   -1.8910 C   0  0  0  0  0  0  0  0  0  0  0  0
   -3.8880   -0.6320   -0.8130 C   0  0  0  0  0  0  0  0  0  0  0  0
   -4.3220   -1.9890   -0.6710 O   0  0  0  0  0  0  0  0  0  0  0  0
    1.2860   -0.6390    1.2600 N   0  0  0  0  0  0  0  0  0  0  0  0
  1  2  1  0
  2  3  1  0
  3  4  1  0
  4  5  2  0
  4 16  1  0
  5  6  1  0
  6  7  1  0
  7  8  1  0
  7 16  2  0
  8  9  1  0
  9 10  1  0
 10 11  2  0
 10 14  1  0
 11 12  1  0
 12 13  1  0
 13 14  2  0
 14 15  1  0
M  END
