
     RDKit          3D

 15 15  0  0  0  0  0  0  0  0999 V2000
    5.4240    0.6690   -0.5450 C   0  0  0  0  0  0  0  0  0  0  0  0
    4.1450   -0.0930   -0.8470 C   0  0  0  0  0  0  0  0  0  0  0  0
    3.0380    0.7630   -0.4110 O   0  0  0  0  0  0  0  0  0  0  0  0
    1.7840    0.3670   -0.5980 C   0  0  0  0  0  0  0  0  0  0  0  0
    1.3440   -0.5940   -1.0880 O   0  0  0  0  0  0  0  0  0  0  0  0
    0.6000    1.4890    0.0020 N   0  0  0  0  0  0  0  0  0  0  0  0
   -0.5070    0.7540   -0.3730 C   0  0  0  0  0  0  0  0  0  0  0  0
   -0.7440   -0.2810   -0.9270 O   0  0  0  0  0  0  0  0  0  0  0  0
   -1.7470    1.4940    0.0720 N   0  0  0  0  0  0  0  0  0  0  0  0
   -3.0350    0.9730   -0.1610 C   0  0  0  0  0  0  0  0  0  0  0  0
   -3.1520   -0.3910    0.4640 C   0  0  0  0  0  0  0  0  0  0  0  0
   -3.4140   -1.5170   -0.1230 C   0  0  0  0  0  0  0  0  0  0  0  0
   -3.4610   -2.9210    0.9350 S   0  0  0  0  0  0  0  0  0  0  0  0
   -3.7840   -2.1330    2.5620 C   0  0  0  0  0  0  0  0  0  0  0  0
   -2.8700   -0.5740    2.2390 S   0  0  0  0  0  0  0  0  0  0  0  0
  1  2  1  0
  2  3  1  0
  3  4  1  0
  4  5  2  0
  4  6  1  0
  6  7  1  0
  7  8  2  0
  7  9  1  0
  9 10  1  0
 10 11  1  0
 11 12  2  0
 11 15  1  0
 12 13  1  0
 13 14  1  0
 14 15  1  0
M  END
