
     RDKit          3D

 16 16  0  0  0  0  0  0  0  0999 V2000
    2.9020   -5.2850    0.3820 C   0  0  0  0  0  0  0  0  0  0  0  0
    2.6210   -3.9560    0.8850 O   0  0  0  0  0  0  0  0  0  0  0  0
    1.9670   -3.0530    0.1310 C   0  0  0  0  0  0  0  0  0  0  0  0
    1.5360   -3.0900   -0.9360 O   0  0  0  0  0  0  0  0  0  0  0  0
    1.7330   -1.5470    0.9820 N   0  0  0  0  0  0  0  0  0  0  0  0
    0.9250   -0.8940   -0.0060 C   0  0  0  0  0  0  0  0  0  0  0  0
    0.7340   -1.2940   -1.1440 O   0  0  0  0  0  0  0  0  0  0  0  0
    0.3350    0.2830    0.5200 N   0  0  0  0  0  0  0  0  0  0  0  0
   -0.6120    1.0390   -0.1970 C   0  0  0  0  0  0  0  0  0  0  0  0
   -1.1010    2.1340    0.3080 C   0  0  0  0  0  0  0  0  0  0  0  0
   -0.6040    2.7460    1.9390 S   0  0  0  0  0  0  0  0  0  0  0  0
   -0.9570    4.5610    1.9730 C   0  0  0  0  0  0  0  0  0  0  0  0
   -2.1640    3.1790   -0.6190 S   0  0  0  0  0  0  0  0  0  0  0  0
   -2.8910    2.2390   -1.9550 C   0  0  0  0  0  0  0  0  0  0  0  0
   -2.0880    1.0350   -2.1790 C   0  0  0  0  0  0  0  0  0  0  0  0
   -1.1290    0.5000   -1.4710 C   0  0  0  0  0  0  0  0  0  0  0  0
  1  2  1  0
  2  3  1  0
  3  4  2  0
  3  5  1  0
  5  6  1  0
  6  7  2  0
  6  8  1  0
  8  9  1  0
  9 10  2  0
  9 16  1  0
 10 11  1  0
 10 13  1  0
 11 12  1  0
 13 14  1  0
 14 15  1  0
 15 16  2  0
M  END
