
     RDKit          3D

 20 22  0  0  0  0  0  0  0  0999 V2000
    5.4020   -1.2840    0.9740 C   0  0  0  0  0  0  0  0  0  0  0  0
    4.1830   -1.1710    0.1070 C   0  0  2  0  0  0  0  0  0  0  0  0
    4.3370   -0.4240   -1.1870 C   0  0  0  0  0  0  0  0  0  0  0  0
    3.4780    0.1360   -0.0570 C   0  0  1  0  0  0  0  0  0  0  0  0
    1.9750    0.1550   -0.2700 C   0  0  2  0  0  0  0  0  0  0  0  0
    1.5470    1.5930   -0.4010 C   0  0  0  0  0  0  0  0  0  0  0  0
    0.0610    1.7300   -0.3120 C   0  0  0  0  0  0  0  0  0  0  0  0
   -0.6020    2.4150   -1.1600 O   0  0  0  0  0  0  0  0  0  0  0  0
   -0.5710    1.0570    0.7650 N   0  0  0  0  0  0  0  0  0  0  0  0
   -1.9410    1.3500    1.1130 C   0  0  0  0  0  0  0  0  0  0  0  0
   -2.9070    0.4780    0.3790 C   0  0  0  0  0  0  0  0  0  0  0  0
   -2.5090   -0.4300   -0.4690 C   0  0  0  0  0  0  0  0  0  0  0  0
   -3.4210   -1.2980   -1.2020 C   0  0  0  0  0  0  0  0  0  0  0  0
   -4.8520   -1.0750   -0.9210 C   0  0  0  0  0  0  0  0  0  0  0  0
   -5.1960   -0.0330    0.0470 C   0  0  0  0  0  0  0  0  0  0  0  0
   -4.3120    0.7180    0.6780 C   0  0  0  0  0  0  0  0  0  0  0  0
   -4.7550    1.6780    1.5760 O   0  0  0  0  0  0  0  0  0  0  0  0
    0.1820    0.0960    1.4830 C   0  0  0  0  0  0  0  0  0  0  0  0
   -0.1090   -0.2240    2.6640 O   0  0  0  0  0  0  0  0  0  0  0  0
    1.3400   -0.5650    0.8630 C   0  0  0  0  0  0  0  0  0  0  0  0
  2  1  1  1
  2  3  1  0
  2  4  1  0
  4  3  1  6
  4  5  1  0
  5  6  1  1
  5 20  1  0
  6  7  1  0
  7  8  2  0
  7  9  1  0
  9 10  1  0
  9 18  1  0
 10 11  1  0
 11 12  2  0
 11 16  1  0
 12 13  1  0
 13 14  1  0
 14 15  1  0
 15 16  2  0
 16 17  1  0
 18 19  2  0
 18 20  1  0
M  END
