
     RDKit          3D

 16 16  0  0  0  0  0  0  0  0999 V2000
    4.4590   -1.8250    1.3860 C   0  0  0  0  0  0  0  0  0  0  0  0
    4.5020   -1.2230   -0.3200 S   0  0  0  0  0  0  0  0  0  0  0  0
    3.0010   -0.3340   -0.7050 C   0  0  0  0  0  0  0  0  0  0  0  0
    2.8970    0.2730   -2.2250 S   0  0  0  0  0  0  0  0  0  0  0  0
    1.9790   -0.1720    0.2480 N   0  0  0  0  0  0  0  0  0  0  0  0
    0.8060    0.5410   -0.1020 N   0  0  0  0  0  0  0  0  0  0  0  0
    0.4450    1.7100    0.6040 C   0  0  0  0  0  0  0  0  0  0  0  0
    1.2370    2.0550    1.5470 O   0  0  0  0  0  0  0  0  0  0  0  0
   -0.7580    2.5380    0.3290 C   0  0  0  0  0  0  0  0  0  0  0  0
   -1.5600    2.0400   -0.7130 O   0  0  0  0  0  0  0  0  0  0  0  0
   -2.1730    0.7970   -0.7210 C   0  0  0  0  0  0  0  0  0  0  0  0
   -2.4460    0.2170    0.4290 C   0  0  0  0  0  0  0  0  0  0  0  0
   -3.0990   -1.1090    0.4930 C   0  0  0  0  0  0  0  0  0  0  0  0
   -3.3750   -1.6390   -0.7720 O   0  0  0  0  0  0  0  0  0  0  0  0
   -3.0910   -1.0360   -1.9770 C   0  0  0  0  0  0  0  0  0  0  0  0
   -2.5060    0.1480   -1.9940 C   0  0  0  0  0  0  0  0  0  0  0  0
  1  2  1  0
  2  3  1  0
  3  4  2  0
  3  5  1  0
  5  6  1  0
  6  7  1  0
  7  8  2  0
  7  9  1  0
  9 10  1  0
 10 11  1  0
 11 12  2  0
 11 16  1  0
 12 13  1  0
 13 14  1  0
 14 15  1  0
 15 16  2  0
M  END
