
     RDKit          3D

 16 17  0  0  0  0  0  0  0  0999 V2000
    4.4060   -0.3390    0.8290 C   0  0  0  0  0  0  0  0  0  0  0  0
    4.0200   -0.9280   -0.4890 C   0  0  0  0  0  0  0  0  0  0  0  0
    2.7360   -1.5110   -0.4820 O   0  0  0  0  0  0  0  0  0  0  0  0
    1.5780   -0.8790   -0.2140 C   0  0  0  0  0  0  0  0  0  0  0  0
    1.5410    0.4600    0.0920 C   0  0  0  0  0  0  0  0  0  0  0  0
    0.3840    1.1320    0.3680 C   0  0  0  0  0  0  0  0  0  0  0  0
   -0.8630    0.4580    0.3510 C   0  0  0  0  0  0  0  0  0  0  0  0
   -2.0350    0.9220    0.5820 N   0  0  0  0  0  0  0  0  0  0  0  0
   -3.1170    0.3630    0.5730 C   0  0  0  0  0  0  0  0  0  0  0  0
   -4.8060    0.6840    0.8340 S   0  0  2  0  0  0  0  0  0  0  0  0
   -5.4920    1.1680   -0.6740 N   0  0  0  0  0  0  0  0  0  0  0  0
   -5.0290    1.7610    1.8250 O   0  0  0  0  0  0  0  0  0  0  0  0
   -5.5320   -0.5600    1.2710 O   0  0  0  0  0  0  0  0  0  0  0  0
   -2.5210   -1.3580    0.1200 S   0  0  0  0  0  0  0  0  0  0  0  0
   -0.7640   -0.8910    0.0360 C   0  0  0  0  0  0  0  0  0  0  0  0
    0.3720   -1.5480   -0.2350 C   0  0  0  0  0  0  0  0  0  0  0  0
  1  2  1  0
  2  3  1  0
  3  4  1  0
  4  5  2  0
  4 16  1  0
  5  6  1  0
  6  7  2  0
  7  8  1  0
  7 15  1  0
  8  9  2  0
  9 10  1  0
  9 14  1  0
 10 11  1  6
 10 12  2  0
 10 13  2  0
 14 15  1  0
 15 16  2  0
M  END
