
     RDKit          3D

 24 26  0  0  0  0  0  0  0  0999 V2000
    6.4250    0.7310   -1.1900 N   0  0  0  0  0  0  0  0  0  0  0  0
    6.9400    0.4400    0.4420 S   0  0  2  0  0  0  0  0  0  0  0  0
    7.3470    1.7620    1.0100 O   0  0  0  0  0  0  0  0  0  0  0  0
    8.1680   -0.4270    0.3780 O   0  0  0  0  0  0  0  0  0  0  0  0
    5.7710   -0.3530    1.3300 O   0  0  0  0  0  0  0  0  0  0  0  0
    4.4180   -0.2870    1.1820 C   0  0  0  0  0  0  0  0  0  0  0  0
    3.6010    0.6170    1.8210 C   0  0  0  0  0  0  0  0  0  0  0  0
    2.2360    0.6670    1.6580 C   0  0  0  0  0  0  0  0  0  0  0  0
    1.5900   -0.2390    0.7980 C   0  0  0  0  0  0  0  0  0  0  0  0
    2.3950   -1.1370    0.1620 C   0  0  0  0  0  0  0  0  0  0  0  0
    3.7880   -1.1740    0.3390 C   0  0  0  0  0  0  0  0  0  0  0  0
    1.3060   -2.0990   -0.8110 S   0  0  2  0  0  0  0  0  0  0  0  0
    1.2640   -3.5170   -0.3690 O   0  0  0  0  0  0  0  0  0  0  0  0
    1.5840   -1.9510   -2.2770 O   0  0  0  0  0  0  0  0  0  0  0  0
   -0.1690   -1.2740   -0.3420 C   0  0  0  0  0  0  0  0  0  0  0  0
   -1.5310   -1.6090   -0.8560 C   0  0  0  0  0  0  0  0  0  0  0  0
   -2.5430   -0.6160   -0.4010 C   0  0  2  0  0  0  0  0  0  0  0  0
   -3.9470   -1.0120   -0.9200 C   0  0  0  0  0  0  0  0  0  0  0  0
   -4.9880   -0.5000    0.0800 C   0  0  0  0  0  0  0  0  0  0  0  0
   -5.0100    0.9940    0.0910 C   0  0  0  0  0  0  0  0  0  0  0  0
   -3.8300    1.5760    0.8340 C   0  0  0  0  0  0  0  0  0  0  0  0
   -2.7500    1.8940   -0.1540 C   0  0  0  0  0  0  0  0  0  0  0  0
   -2.3000    0.7600   -1.0020 C   0  0  0  0  0  0  0  0  0  0  0  0
    0.1830   -0.3390    0.5000 C   0  0  0  0  0  0  0  0  0  0  0  0
  2  1  1  6
  2  3  2  0
  2  4  2  0
  2  5  1  0
  5  6  1  0
  6  7  2  0
  6 11  1  0
  7  8  1  0
  8  9  2  0
  9 10  1  0
  9 24  1  0
 10 11  2  0
 10 12  1  0
 12 13  2  0
 12 14  2  0
 12 15  1  6
 15 16  1  0
 15 24  2  0
 17 16  1  6
 17 18  1  0
 17 23  1  0
 18 19  1  0
 19 20  1  0
 20 21  1  0
 21 22  1  0
 22 23  1  0
M  END
