
     RDKit          3D

 13 14  0  0  0  0  0  0  0  0999 V2000
   -1.8130   -0.0720   -1.9090 N   0  0  0  0  0  0  0  0  0  0  0  0
   -1.8760   -0.8190   -0.6680 C   0  0  0  0  0  0  0  0  0  0  0  0
   -1.3150   -0.0520    0.4870 C   0  0  1  0  0  0  0  0  0  0  0  0
   -2.0890    1.1240    0.6010 O   0  0  0  0  0  0  0  0  0  0  0  0
   -1.5240   -0.8100    1.7790 C   0  0  0  0  0  0  0  0  0  0  0  0
   -0.3330   -2.1590    1.8210 S   0  0  0  0  0  0  0  0  0  0  0  0
    0.9540   -2.0110    0.5960 C   0  0  0  0  0  0  0  0  0  0  0  0
    1.0700   -0.6890   -0.0590 C   0  0  2  0  0  0  0  0  0  0  0  0
    2.3550   -0.1830    0.2580 O   0  0  0  0  0  0  0  0  0  0  0  0
    2.5940    1.0220   -0.3720 C   0  0  0  0  0  0  0  0  0  0  0  0
    1.4580    1.9810   -0.3340 C   0  0  0  0  0  0  0  0  0  0  0  0
    0.2180    1.4250   -0.5410 O   0  0  0  0  0  0  0  0  0  0  0  0
    0.0980    0.3500    0.3660 C   0  0  1  0  0  0  0  0  0  0  0  0
  1  2  1  0
  2  3  1  0
  3  4  1  1
  3  5  1  0
  3 13  1  0
  5  6  1  0
  6  7  1  0
  8  7  1  1
  8  9  1  0
  8 13  1  0
  9 10  1  0
 10 11  1  0
 11 12  1  0
 13 12  1  6
M  END
