
     RDKit          3D

 14 15  0  0  0  0  0  0  0  0999 V2000
    3.4810   -0.7150    0.9840 C   0  0  0  0  0  0  0  0  0  0  0  0
    2.7910    0.0510   -0.0890 C   0  0  2  0  0  0  0  0  0  0  0  0
    2.7150    1.4660    0.1190 O   0  0  0  0  0  0  0  0  0  0  0  0
    1.5120    1.4380   -0.5520 C   0  0  0  0  0  0  0  0  0  0  0  0
    0.8940    2.2570   -1.2510 O   0  0  0  0  0  0  0  0  0  0  0  0
    1.3060    0.0720   -0.0880 C   0  0  2  0  0  0  0  0  0  0  0  0
    0.6350   -0.0150    1.1650 N   0  0  0  0  0  0  0  0  0  0  0  0
   -0.6380    0.6140    1.0960 C   0  0  0  0  0  0  0  0  0  0  0  0
   -1.6080    0.0440    0.1410 C   0  0  2  0  0  0  0  0  0  0  0  0
   -1.8990    0.9480   -0.9060 O   0  0  0  0  0  0  0  0  0  0  0  0
   -2.9570   -0.2220    0.8190 C   0  0  0  0  0  0  0  0  0  0  0  0
   -3.5010    0.9620    1.3140 O   0  0  0  0  0  0  0  0  0  0  0  0
   -1.1960   -1.2460   -0.5060 C   0  0  0  0  0  0  0  0  0  0  0  0
    0.4700   -1.0390   -1.2380 S   0  0  0  0  0  0  0  0  0  0  0  0
  2  1  1  1
  2  3  1  0
  2  6  1  0
  3  4  1  0
  4  5  2  0
  4  6  1  0
  6  7  1  1
  6 14  1  0
  7  8  1  0
  8  9  1  0
  9 10  1  6
  9 11  1  0
  9 13  1  0
 11 12  1  0
 13 14  1  0
M  END
