
     RDKit          3D

 14 15  0  0  0  0  0  0  0  0999 V2000
    3.0630    1.3290    1.6940 O   0  0  0  0  0  0  0  0  0  0  0  0
    3.3240    1.0030    0.5060 C   0  0  0  0  0  0  0  0  0  0  0  0
    3.8580    1.9480   -0.3310 O   0  0  0  0  0  0  0  0  0  0  0  0
    3.0480   -0.3870    0.0440 C   0  0  1  0  0  0  0  0  0  0  0  0
    2.4630   -1.2200    1.1610 C   0  0  0  0  0  0  0  0  0  0  0  0
    1.1150   -0.9530    1.3250 N   0  0  0  0  0  0  0  0  0  0  0  0
    0.3710   -0.8780    0.1600 C   0  0  1  0  0  0  0  0  0  0  0  0
   -0.6660    0.0120    0.1080 O   0  0  0  0  0  0  0  0  0  0  0  0
   -1.8530   -0.5320   -0.3490 C   0  0  2  0  0  0  0  0  0  0  0  0
   -2.4310    0.2830   -1.5020 C   0  0  0  0  0  0  0  0  0  0  0  0
   -2.9190    1.4910   -0.6930 C   0  0  0  0  0  0  0  0  0  0  0  0
   -3.4720    0.9550    0.4350 O   0  0  0  0  0  0  0  0  0  0  0  0
   -2.9050   -0.2570    0.7040 C   0  0  0  0  0  0  0  0  0  0  0  0
    1.6150   -0.4060   -1.1090 S   0  0  0  0  0  0  0  0  0  0  0  0
  1  2  2  0
  2  3  1  0
  4  2  1  1
  4  5  1  0
  4 14  1  0
  5  6  1  0
  6  7  1  0
  7  8  1  1
  7 14  1  0
  9  8  1  1
  9 10  1  0
  9 13  1  0
 10 11  1  0
 11 12  1  0
 12 13  1  0
M  END
