
     RDKit          3D

 24 25  0  0  0  0  0  0  0  0999 V2000
   -6.4750   -1.7950    0.0380 C   0  0  0  0  0  0  0  0  0  0  0  0
   -5.0310   -1.7500    0.2980 C   0  0  0  0  0  0  0  0  0  0  0  0
   -4.3640   -0.6300    0.1520 C   0  0  0  0  0  0  0  0  0  0  0  0
   -5.1310    0.5910   -0.2860 C   0  0  0  0  0  0  0  0  0  0  0  0
   -4.2530    2.0400    0.4230 S   0  0  0  0  0  0  0  0  0  0  0  0
   -2.5420    1.7950    0.0300 C   0  0  0  0  0  0  0  0  0  0  0  0
   -1.7710    2.7040    0.0630 O   0  0  0  0  0  0  0  0  0  0  0  0
   -2.1170    0.4360   -0.3350 C   0  0  1  0  0  0  0  0  0  0  0  0
   -2.3210    0.1960   -1.8330 C   0  0  0  0  0  0  0  0  0  0  0  0
   -0.3470    0.2260   -0.0230 S   0  0  0  0  0  0  0  0  0  0  0  0
    0.5310    1.3030   -1.1860 C   0  0  0  0  0  0  0  0  0  0  0  0
    2.0080    1.2160   -1.0040 C   0  0  0  0  0  0  0  0  0  0  0  0
    2.7000    1.9010   -1.7540 O   0  0  0  0  0  0  0  0  0  0  0  0
    2.5580    0.3840   -0.0150 N   0  0  0  0  0  0  0  0  0  0  0  0
    3.9310    0.2450    0.2230 C   0  0  0  0  0  0  0  0  0  0  0  0
    4.9300    0.8830   -0.4510 C   0  0  0  0  0  0  0  0  0  0  0  0
    6.2900    0.6800   -0.1390 C   0  0  0  0  0  0  0  0  0  0  0  0
    6.6420   -0.1750    0.8650 C   0  0  0  0  0  0  0  0  0  0  0  0
    7.9750   -0.4110    1.2130 O   0  0  0  0  0  0  0  0  0  0  0  0
    5.6480   -0.8290    1.5570 C   0  0  0  0  0  0  0  0  0  0  0  0
    4.3290   -0.6250    1.2460 C   0  0  0  0  0  0  0  0  0  0  0  0
    3.3940   -1.3180    1.9870 O   0  0  0  0  0  0  0  0  0  0  0  0
   -2.9440   -0.5260    0.3950 C   0  0  0  0  0  0  0  0  0  0  0  0
   -2.4420   -1.3030    1.2680 O   0  0  0  0  0  0  0  0  0  0  0  0
  1  2  1  0
  2  3  2  3
  3  4  1  0
  3 23  1  0
  4  5  1  0
  5  6  1  0
  6  7  2  0
  6  8  1  0
  8  9  1  6
  8 10  1  0
  8 23  1  0
 10 11  1  0
 11 12  1  0
 12 13  2  0
 12 14  1  0
 14 15  1  0
 15 16  2  0
 15 21  1  0
 16 17  1  0
 17 18  2  0
 18 19  1  0
 18 20  1  0
 20 21  2  0
 21 22  1  0
 23 24  2  0
M  END
