
     RDKit          3D

 24 26  0  0  0  0  0  0  0  0999 V2000
   -2.1390   -1.6970    0.8660 N   0  0  0  0  0  0  0  0  0  0  0  0
   -2.3460   -0.6600   -0.1170 C   0  0  1  0  0  0  0  0  0  0  0  0
   -1.0950   -0.4960   -0.9390 C   0  0  0  0  0  0  0  0  0  0  0  0
   -0.1050   -1.2100   -0.7030 O   0  0  0  0  0  0  0  0  0  0  0  0
   -1.0480    0.4370   -1.9430 O   0  0  0  0  0  0  0  0  0  0  0  0
    0.0290    0.7010   -2.7730 C   0  0  0  0  0  0  0  0  0  0  0  0
    1.2730    1.2000   -2.1330 C   0  0  0  0  0  0  0  0  0  0  0  0
    1.8610    0.3570   -1.1840 O   0  0  0  0  0  0  0  0  0  0  0  0
    3.0230    0.7640   -0.5510 C   0  0  0  0  0  0  0  0  0  0  0  0
    3.6410    1.9770   -0.8110 C   0  0  0  0  0  0  0  0  0  0  0  0
    4.7810    2.2460   -0.1130 C   0  0  0  0  0  0  0  0  0  0  0  0
    5.3230    1.3890    0.8090 C   0  0  0  0  0  0  0  0  0  0  0  0
    4.7100    0.1420    1.0940 C   0  0  0  0  0  0  0  0  0  0  0  0
    5.1440   -0.7690    1.9680 C   0  0  0  0  0  0  0  0  0  0  0  0
    4.3930   -1.9420    2.1030 C   0  0  0  0  0  0  0  0  0  0  0  0
    3.0460   -1.6750    0.9280 S   0  0  0  0  0  0  0  0  0  0  0  0
    3.5780   -0.0870    0.3770 C   0  0  0  0  0  0  0  0  0  0  0  0
   -3.4360   -1.0570   -1.0590 C   0  0  0  0  0  0  0  0  0  0  0  0
   -4.7670   -1.2570   -0.4220 C   0  0  0  0  0  0  0  0  0  0  0  0
   -4.8830   -0.6690    1.2250 S   0  0  1  0  0  0  0  0  0  0  0  0
   -6.1800    0.1070    1.3460 O   0  0  0  0  0  0  0  0  0  0  0  0
   -5.0210   -1.8380    2.1840 O   0  0  0  0  0  0  0  0  0  0  0  0
   -3.5740    0.4080    1.6910 C   0  0  0  0  0  0  0  0  0  0  0  0
   -2.5970    0.6550    0.5630 C   0  0  0  0  0  0  0  0  0  0  0  0
  2  1  1  1
  2  3  1  0
  2 18  1  0
  2 24  1  0
  3  4  2  0
  3  5  1  0
  5  6  1  0
  6  7  1  0
  7  8  1  0
  8  9  1  0
  9 10  2  0
  9 17  1  0
 10 11  1  0
 11 12  2  0
 12 13  1  0
 13 14  1  0
 13 17  2  0
 14 15  2  0
 15 16  1  0
 16 17  1  0
 18 19  1  0
 20 19  1  6
 20 21  2  0
 20 22  2  0
 20 23  1  0
 23 24  1  0
M  END
