
     RDKit          3D

 14 15  0  0  0  0  0  0  0  0999 V2000
    4.3380    0.9460   -1.3810 C   0  0  0  0  0  0  0  0  0  0  0  0
    3.6380    0.3040   -0.3530 O   0  0  0  0  0  0  0  0  0  0  0  0
    2.2960   -0.0540   -0.4250 C   0  0  0  0  0  0  0  0  0  0  0  0
    1.6970    0.2310   -1.4920 O   0  0  0  0  0  0  0  0  0  0  0  0
    1.5620   -0.7260    0.6470 C   0  0  2  0  0  0  0  0  0  0  0  0
    0.6680   -1.9070    0.3410 C   0  0  0  0  0  0  0  0  0  0  0  0
    0.1460   -0.5930    0.9330 C   0  0  1  0  0  0  0  0  0  0  0  0
   -0.2700   -0.6530    2.2860 O   0  0  0  0  0  0  0  0  0  0  0  0
   -0.8700    0.0640    0.0600 C   0  0  1  0  0  0  0  0  0  0  0  0
   -2.1160   -0.6820    0.1160 N   0  0  0  0  0  0  0  0  0  0  0  0
   -3.1370    0.1370   -0.4740 C   0  0  2  0  0  0  0  0  0  0  0  0
   -2.9430    0.3130   -1.8210 O   0  0  0  0  0  0  0  0  0  0  0  0
   -3.2210    1.4220    0.3050 C   0  0  0  0  0  0  0  0  0  0  0  0
   -1.4570    1.6450    0.7720 S   0  0  0  0  0  0  0  0  0  0  0  0
  1  2  1  0
  2  3  1  0
  3  4  2  0
  5  3  1  6
  5  6  1  0
  5  7  1  0
  6  7  1  0
  7  8  1  1
  7  9  1  0
  9 10  1  1
  9 14  1  0
 10 11  1  0
 11 12  1  6
 11 13  1  0
 13 14  1  0
M  END
