
     RDKit          3D

 19 20  0  0  0  0  0  0  0  0999 V2000
   -1.8020   -1.3190    2.3680 C   0  0  0  0  0  0  0  0  0  0  0  0
   -1.5630   -0.8540    1.1530 C   0  0  0  0  0  0  0  0  0  0  0  0
   -0.3190   -0.9520    0.5650 O   0  0  0  0  0  0  0  0  0  0  0  0
    0.1880   -0.0830   -0.4100 C   0  0  1  0  0  0  0  0  0  0  0  0
    0.9840   -0.9140   -1.3920 C   0  0  0  0  0  0  0  0  0  0  0  0
    2.0820   -1.6200   -0.8120 N   0  0  0  0  0  0  0  0  0  0  0  0
    3.1450   -0.9580   -0.1640 C   0  0  0  0  0  0  0  0  0  0  0  0
    3.1790    0.2910   -0.0640 O   0  0  0  0  0  0  0  0  0  0  0  0
    4.2140   -1.6500    0.4010 O   0  0  0  0  0  0  0  0  0  0  0  0
    5.2880   -1.0380    1.0520 C   0  0  0  0  0  0  0  0  0  0  0  0
    6.0850   -0.0940    0.2110 C   0  0  0  0  0  0  0  0  0  0  0  0
    7.1240    0.4360    1.0070 O   0  0  0  0  0  0  0  0  0  0  0  0
   -0.8460    0.7500   -1.0930 C   0  0  0  0  0  0  0  0  0  0  0  0
   -2.2400    0.2690   -0.9750 C   0  0  2  0  0  0  0  0  0  0  0  0
   -3.2390    1.3890   -1.1830 C   0  0  0  0  0  0  0  0  0  0  0  0
   -4.4960    0.7500   -0.5790 C   0  0  2  0  0  0  0  0  0  0  0  0
   -5.4380    1.7600   -0.1870 N   0  0  0  0  0  0  0  0  0  0  0  0
   -3.8880    0.0610    0.5980 C   0  0  0  0  0  0  0  0  0  0  0  0
   -2.6130   -0.2080    0.3680 C   0  0  0  0  0  0  0  0  0  0  0  0
  1  2  2  0
  2  3  1  0
  2 19  1  0
  3  4  1  0
  4  5  1  6
  4 13  1  0
  5  6  1  0
  6  7  1  0
  7  8  2  0
  7  9  1  0
  9 10  1  0
 10 11  1  0
 11 12  1  0
 14 13  1  1
 14 15  1  0
 14 19  1  0
 15 16  1  0
 16 17  1  1
 16 18  1  0
 18 19  2  0
M  CHG  1  17   1
M  END
