
     RDKit          3D

 19 20  0  0  0  0  0  0  0  0999 V2000
   -3.0290    0.8130    1.7270 C   0  0  0  0  0  0  0  0  0  0  0  0
   -2.4400    1.1380    0.4170 N   0  0  0  0  0  0  0  0  0  0  0  0
   -1.7890    0.0660   -0.2160 C   0  0  2  0  0  0  0  0  0  0  0  0
   -0.3100    0.0860   -0.2940 C   0  0  1  0  0  0  0  0  0  0  0  0
    0.2590    1.2680   -1.0390 C   0  0  0  0  0  0  0  0  0  0  0  0
    1.5460    0.8680   -1.7530 C   0  0  0  0  0  0  0  0  0  0  0  0
    2.2300   -0.0840   -0.8320 C   0  0  0  0  0  0  0  0  0  0  0  0
    3.1190   -0.9390   -1.2130 N   0  0  0  0  0  0  0  0  0  0  0  0
    3.5200   -1.0560   -2.5040 O   0  0  0  0  0  0  0  0  0  0  0  0
    1.9090   -0.0920    0.5950 C   0  0  0  0  0  0  0  0  0  0  0  0
    2.8210   -0.1120    1.5490 C   0  0  0  0  0  0  0  0  0  0  0  0
    4.2700   -0.1270    1.4070 C   0  0  0  0  0  0  0  0  0  0  0  0
    4.7740    1.0330    2.0540 O   0  0  0  0  0  0  0  0  0  0  0  0
    0.4360   -0.0640    0.9920 C   0  0  1  0  0  0  0  0  0  0  0  0
    0.3130    0.9710    1.8730 O   0  0  0  0  0  0  0  0  0  0  0  0
   -2.3390   -0.0770   -1.6480 C   0  0  0  0  0  0  0  0  0  0  0  0
   -3.6540   -0.7700   -1.3680 C   0  0  0  0  0  0  0  0  0  0  0  0
   -3.5520   -1.3920   -0.1580 O   0  0  0  0  0  0  0  0  0  0  0  0
   -2.2920   -1.2440    0.3500 C   0  0  0  0  0  0  0  0  0  0  0  0
  1  2  1  0
  3  2  1  1
  3  4  1  0
  3 16  1  0
  3 19  1  0
  4  5  1  1
  4 14  1  0
  5  6  1  0
  6  7  1  0
  7  8  2  3
  7 10  1  0
  8  9  1  0
 10 11  2  3
 10 14  1  0
 11 12  1  0
 12 13  1  0
 14 15  1  1
 16 17  1  0
 17 18  1  0
 18 19  1  0
M  CHG  1   2   1
M  END
