
     RDKit          3D

 18 18  0  0  0  0  0  0  0  0999 V2000
    1.6730   -0.7860   -0.9270 C   0  0  0  0  0  0  0  0  0  0  0  0
    1.7660    0.2230    0.2010 C   0  0  1  0  0  0  0  0  0  0  0  0
    0.8480   -0.2320    1.2920 C   0  0  0  0  0  0  0  0  0  0  0  0
   -0.5670   -0.3200    0.8270 C   0  0  0  0  0  0  0  0  0  0  0  0
   -1.1550   -1.5130    0.8960 C   0  0  0  0  0  0  0  0  0  0  0  0
   -2.5310   -1.7880    0.4860 C   0  0  0  0  0  0  0  0  0  0  0  0
   -3.2420   -0.5890   -0.0290 C   0  0  0  0  0  0  0  0  0  0  0  0
   -4.5170   -0.7490   -0.4300 C   0  0  0  0  0  0  0  0  0  0  0  0
   -5.0830   -2.0370   -0.3330 N   0  0  0  0  0  0  0  0  0  0  0  0
   -2.5650    0.6920   -0.0870 C   0  0  0  0  0  0  0  0  0  0  0  0
   -3.1930    1.7640   -0.5440 C   0  0  0  0  0  0  0  0  0  0  0  0
   -2.4430    3.0630   -0.5810 C   0  0  0  0  0  0  0  0  0  0  0  0
   -3.1170    3.9840    0.2150 O   0  0  0  0  0  0  0  0  0  0  0  0
   -1.2480    0.7760    0.3460 O   0  0  0  0  0  0  0  0  0  0  0  0
    3.1060    0.3260    0.7110 N   0  0  0  0  0  0  0  0  0  0  0  0
    4.0310   -0.5480    0.0430 C   0  0  0  0  0  0  0  0  0  0  0  0
    5.4650   -0.0760    0.1900 C   0  0  0  0  0  0  0  0  0  0  0  0
    5.6380    1.1960   -0.3480 O   0  0  0  0  0  0  0  0  0  0  0  0
  2  1  1  6
  2  3  1  0
  2 15  1  0
  3  4  1  0
  4  5  2  0
  4 14  1  0
  5  6  1  0
  6  7  1  0
  7  8  2  3
  7 10  1  0
  8  9  1  0
 10 11  2  3
 10 14  1  0
 11 12  1  0
 12 13  1  0
 15 16  1  0
 16 17  1  0
 17 18  1  0
M  CHG  1  15   1
M  END
