
     RDKit          3D

 19 19  0  0  0  0  0  0  0  0999 V2000
   -2.9160    3.8180    0.4290 N   0  0  0  0  0  0  0  0  0  0  0  0
   -3.0840    2.5110    0.3110 C   0  0  0  0  0  0  0  0  0  0  0  0
   -4.3780    2.0630    0.5370 O   0  0  0  0  0  0  0  0  0  0  0  0
   -1.9500    1.7220   -0.0270 C   0  0  0  0  0  0  0  0  0  0  0  0
   -1.9970    0.3930   -0.1770 C   0  0  0  0  0  0  0  0  0  0  0  0
   -0.7630   -0.3330   -0.5270 C   0  0  0  0  0  0  0  0  0  0  0  0
   -0.6570   -1.6280   -0.5880 C   0  0  0  0  0  0  0  0  0  0  0  0
    0.5520   -2.3840   -0.9240 C   0  0  0  0  0  0  0  0  0  0  0  0
    1.7900   -1.6070   -1.1720 C   0  0  0  0  0  0  0  0  0  0  0  0
    2.3010   -0.8560   -0.0590 N   0  0  0  0  0  0  0  0  0  0  0  0
    2.9220    0.3570   -0.5790 C   0  0  0  0  0  0  0  0  0  0  0  0
    2.8450    1.4800    0.4510 C   0  0  0  0  0  0  0  0  0  0  0  0
    3.5760    1.0310    1.6970 C   0  0  0  0  0  0  0  0  0  0  0  0
    3.5010    2.0750    2.6460 O   0  0  0  0  0  0  0  0  0  0  0  0
   -1.8800   -2.3920   -0.3400 C   0  0  0  0  0  0  0  0  0  0  0  0
   -1.8570   -3.7990   -0.3780 O   0  0  0  0  0  0  0  0  0  0  0  0
   -3.0200   -1.8030   -0.0780 C   0  0  0  0  0  0  0  0  0  0  0  0
   -3.2460   -0.3600    0.0010 C   0  0  2  0  0  0  0  0  0  0  0  0
   -4.1340    0.0630   -1.0160 O   0  0  0  0  0  0  0  0  0  0  0  0
  1  2  2  0
  2  3  1  0
  2  4  1  0
  4  5  2  3
  5  6  1  0
  5 18  1  0
  6  7  2  0
  7  8  1  0
  7 15  1  0
  8  9  1  0
  9 10  1  0
 10 11  1  0
 11 12  1  0
 12 13  1  0
 13 14  1  0
 15 16  1  0
 15 17  2  0
 17 18  1  0
 18 19  1  6
M  CHG  1  10   1
M  END
