
     RDKit          3D

 19 19  0  0  0  0  0  0  0  0999 V2000
   -4.5080    2.4850    0.2420 C   0  0  0  0  0  0  0  0  0  0  0  0
   -4.2040    1.1170    0.0580 O   0  0  0  0  0  0  0  0  0  0  0  0
   -2.9490    0.9290    0.6570 C   0  0  0  0  0  0  0  0  0  0  0  0
   -2.5010   -0.5210    0.5220 C   0  0  1  0  0  0  0  0  0  0  0  0
   -3.5130   -1.3450    1.1840 N   0  0  0  0  0  0  0  0  0  0  0  0
   -2.4820   -0.8780   -0.9200 C   0  0  0  0  0  0  0  0  0  0  0  0
   -1.6880   -2.0950   -1.2720 C   0  0  0  0  0  0  0  0  0  0  0  0
   -0.6020   -2.4210   -0.2860 C   0  0  0  0  0  0  0  0  0  0  0  0
   -0.0820   -1.1600    0.3600 C   0  0  1  0  0  0  0  0  0  0  0  0
    0.3980   -0.2300   -0.6220 N   0  0  0  0  0  0  0  0  0  0  0  0
    1.7980    0.0500   -0.5040 C   0  0  2  0  0  0  0  0  0  0  0  0
    2.7040   -1.1260   -0.4950 C   0  0  0  0  0  0  0  0  0  0  0  0
    4.0240   -0.6990   -0.3640 O   0  0  0  0  0  0  0  0  0  0  0  0
    2.0500    1.0780    0.5620 C   0  0  0  0  0  0  0  0  0  0  0  0
    3.4960    1.3780    0.7150 C   0  0  0  0  0  0  0  0  0  0  0  0
    4.1260    1.0430    1.7820 O   0  0  0  0  0  0  0  0  0  0  0  0
    4.2520    2.0240   -0.2550 O   0  0  0  0  0  0  0  0  0  0  0  0
    5.6220    2.2820   -0.0600 C   0  0  0  0  0  0  0  0  0  0  0  0
   -1.1740   -0.6120    1.2280 C   0  0  0  0  0  0  0  0  0  0  0  0
  1  2  1  0
  2  3  1  0
  3  4  1  0
  4  5  1  1
  4  6  1  0
  4 19  1  0
  6  7  1  0
  7  8  1  0
  8  9  1  0
  9 10  1  6
  9 19  1  0
 10 11  1  0
 11 12  1  1
 11 14  1  0
 12 13  1  0
 14 15  1  0
 15 16  2  0
 15 17  1  0
 17 18  1  0
M  CHG  1  10   1
M  END
