
     RDKit          3D

 15 16  0  0  0  0  0  0  0  0999 V2000
    0.0440    1.8670   -0.8690 N   0  0  0  0  0  0  0  0  0  0  0  0
    0.2240    0.6410   -0.0350 C   0  0  2  0  0  0  0  0  0  0  0  0
    1.2890   -0.1200   -0.7150 C   0  0  1  0  0  0  0  0  0  0  0  0
    2.5580    0.7540   -0.7980 C   0  0  0  0  0  0  0  0  0  0  0  0
    3.6630   -0.0140   -1.0810 O   0  0  0  0  0  0  0  0  0  0  0  0
    4.0340   -0.7070    0.0580 C   0  0  0  0  0  0  0  0  0  0  0  0
    2.7510   -1.1180    0.7700 C   0  0  0  0  0  0  0  0  0  0  0  0
    1.7090   -1.2890   -0.1190 O   0  0  0  0  0  0  0  0  0  0  0  0
   -1.1040    0.0180    0.1820 C   0  0  1  0  0  0  0  0  0  0  0  0
   -1.1040   -1.2150    1.0110 C   0  0  0  0  0  0  0  0  0  0  0  0
   -0.4000   -2.2780    0.5240 O   0  0  0  0  0  0  0  0  0  0  0  0
   -2.0580    1.0770    0.7730 C   0  0  0  0  0  0  0  0  0  0  0  0
   -3.3000    1.0300   -0.0840 C   0  0  0  0  0  0  0  0  0  0  0  0
   -3.2130   -0.2880   -0.7100 N   0  0  0  0  0  0  0  0  0  0  0  0
   -1.8260   -0.2910   -1.1170 C   0  0  0  0  0  0  0  0  0  0  0  0
  2  1  1  6
  2  3  1  0
  2  9  1  0
  3  4  1  1
  3  8  1  0
  4  5  1  0
  5  6  1  0
  6  7  1  0
  7  8  1  0
  9 10  1  1
  9 12  1  0
  9 15  1  0
 10 11  1  0
 12 13  1  0
 13 14  1  0
 14 15  1  0
M  CHG  1  14   1
M  END
