
     RDKit          3D

 16 17  0  0  0  0  0  0  0  0999 V2000
    0.7650   -0.0770   -1.7920 C   0  0  0  0  0  0  0  0  0  0  0  0
    1.0670   -0.2750   -0.3440 C   0  0  2  0  0  0  0  0  0  0  0  0
    0.1810   -1.1660    0.4040 C   0  0  2  0  0  0  0  0  0  0  0  0
    0.1820   -2.5220   -0.1900 N   0  0  0  0  0  0  0  0  0  0  0  0
   -1.2290   -0.8160    0.6380 C   0  0  2  0  0  0  0  0  0  0  0  0
   -2.0110   -0.6170   -0.5650 N   0  0  0  0  0  0  0  0  0  0  0  0
   -2.5080    0.6740   -0.8700 C   0  0  0  0  0  0  0  0  0  0  0  0
   -2.8370    0.9220   -2.0530 O   0  0  0  0  0  0  0  0  0  0  0  0
   -2.6140    1.6680    0.2210 C   0  0  0  0  0  0  0  0  0  0  0  0
   -1.6200    1.4990    1.1510 O   0  0  0  0  0  0  0  0  0  0  0  0
   -1.5230    0.2260    1.6720 C   0  0  1  0  0  0  0  0  0  0  0  0
   -2.7800   -0.0110    2.2920 O   0  0  0  0  0  0  0  0  0  0  0  0
    1.2780    1.0670    0.3190 C   0  0  0  0  0  0  0  0  0  0  0  0
    2.7930    1.3040    0.2210 C   0  0  0  0  0  0  0  0  0  0  0  0
    3.2240    0.1620   -0.6550 C   0  0  0  0  0  0  0  0  0  0  0  0
    2.3670   -0.8650   -0.2780 O   0  0  0  0  0  0  0  0  0  0  0  0
  2  1  1  6
  2  3  1  0
  2 13  1  0
  2 16  1  0
  3  4  1  6
  3  5  1  0
  5  6  1  6
  5 11  1  0
  6  7  1  0
  7  8  2  0
  7  9  1  0
  9 10  1  0
 10 11  1  0
 11 12  1  6
 13 14  1  0
 14 15  1  0
 15 16  1  0
M  CHG  1   4   1
M  END
