
     RDKit          3D

 20 21  0  0  0  0  0  0  0  0999 V2000
    1.8950   -1.7390    1.2280 C   0  0  0  0  0  0  0  0  0  0  0  0
    2.4280   -0.4730    0.7630 N   0  0  0  0  0  0  0  0  0  0  0  0
    3.8120   -0.2600    0.5300 C   0  0  0  0  0  0  0  0  0  0  0  0
    4.7990   -0.9480    0.9220 O   0  0  0  0  0  0  0  0  0  0  0  0
    3.8950    0.9690   -0.2950 C   0  0  2  0  0  0  0  0  0  0  0  0
    5.1020    1.6360   -0.1380 O   0  0  0  0  0  0  0  0  0  0  0  0
    2.7340    1.7840    0.2840 C   0  0  2  0  0  0  0  0  0  0  0  0
    3.1210    2.3040    1.4940 O   0  0  0  0  0  0  0  0  0  0  0  0
    1.6450    0.7140    0.4880 C   0  0  1  0  0  0  0  0  0  0  0  0
    0.8350    0.6470   -0.7710 C   0  0  0  0  0  0  0  0  0  0  0  0
   -0.1180   -0.4350   -0.7590 N   0  0  0  0  0  0  0  0  0  0  0  0
   -1.4040   -0.0240   -1.3250 C   0  0  1  0  0  0  0  0  0  0  0  0
   -1.7230   -0.8630   -2.5550 C   0  0  0  0  0  0  0  0  0  0  0  0
   -1.7950   -2.2130   -2.2200 O   0  0  0  0  0  0  0  0  0  0  0  0
   -2.4880   -0.0910   -0.3420 C   0  0  0  0  0  0  0  0  0  0  0  0
   -3.7410   -0.6370   -0.6050 C   0  0  0  0  0  0  0  0  0  0  0  0
   -4.7120   -0.6690    0.3570 C   0  0  0  0  0  0  0  0  0  0  0  0
   -4.5010   -0.1680    1.6210 C   0  0  0  0  0  0  0  0  0  0  0  0
   -3.2660    0.3740    1.8940 C   0  0  0  0  0  0  0  0  0  0  0  0
   -2.2910    0.4050    0.9220 C   0  0  0  0  0  0  0  0  0  0  0  0
  1  2  1  0
  2  3  1  0
  2  9  1  0
  3  4  2  0
  3  5  1  0
  5  6  1  1
  5  7  1  0
  7  8  1  1
  7  9  1  0
  9 10  1  6
 10 11  1  0
 11 12  1  0
 12 13  1  6
 12 15  1  0
 13 14  1  0
 15 16  2  0
 15 20  1  0
 16 17  1  0
 17 18  2  0
 18 19  1  0
 19 20  2  0
M  CHG  1  11   1
M  END
