
     RDKit          3D

 16 17  0  0  0  0  0  0  0  0999 V2000
   -1.3690   -0.2330    2.4120 O   0  0  0  0  0  0  0  0  0  0  0  0
   -1.0760    0.4630    1.4250 C   0  0  0  0  0  0  0  0  0  0  0  0
   -0.4590    1.6880    1.6400 O   0  0  0  0  0  0  0  0  0  0  0  0
   -1.3480    0.0650    0.0120 C   0  0  2  0  0  0  0  0  0  0  0  0
   -0.0310    0.0670   -0.7430 C   0  0  0  0  0  0  0  0  0  0  0  0
    0.8870   -0.8620   -0.1480 N   0  0  0  0  0  0  0  0  0  0  0  0
    2.1120   -0.1610    0.1630 C   0  0  2  0  0  0  0  0  0  0  0  0
    2.6830    0.5180   -1.0890 C   0  0  0  0  0  0  0  0  0  0  0  0
    4.1520    0.5760   -0.6960 C   0  0  0  0  0  0  0  0  0  0  0  0
    4.4170   -0.5110    0.0850 O   0  0  0  0  0  0  0  0  0  0  0  0
    3.2490   -1.0800    0.5090 C   0  0  0  0  0  0  0  0  0  0  0  0
   -2.2920    1.0880   -0.5670 C   0  0  0  0  0  0  0  0  0  0  0  0
   -3.6420    0.3950   -0.3530 C   0  0  2  0  0  0  0  0  0  0  0  0
   -4.0060    0.3980    0.9780 O   0  0  0  0  0  0  0  0  0  0  0  0
   -3.2630   -1.0430   -0.7060 C   0  0  0  0  0  0  0  0  0  0  0  0
   -1.9850   -1.2110   -0.0820 N   0  0  0  0  0  0  0  0  0  0  0  0
  1  2  2  0
  2  3  1  0
  2  4  1  0
  4  5  1  6
  4 12  1  0
  4 16  1  0
  5  6  1  0
  7  6  1  6
  7  8  1  0
  7 11  1  0
  8  9  1  0
  9 10  1  0
 10 11  1  0
 12 13  1  0
 13 14  1  1
 13 15  1  0
 15 16  1  0
M  CHG  1   6   1
M  END
