
     RDKit          3D

 15 17  0  0  0  0  0  0  0  0999 V2000
    3.9020   -1.3640   -1.4280 O   0  0  0  0  0  0  0  0  0  0  0  0
    3.8470   -1.0500   -0.0620 C   0  0  1  0  0  0  0  0  0  0  0  0
    3.6360    0.3770    0.3060 C   0  0  0  0  0  0  0  0  0  0  0  0
    2.5120   -0.5510    0.4910 C   0  0  1  0  0  0  0  0  0  0  0  0
    1.3670   -0.5940   -0.4970 C   0  0  0  0  0  0  0  0  0  0  0  0
    0.1340   -0.1080    0.0920 N   0  0  1  0  0  0  0  0  0  0  0  0
   -0.2260    1.1010   -0.6180 C   0  0  0  0  0  0  0  0  0  0  0  0
   -1.5240    1.6190   -0.0950 C   0  0  2  0  0  0  0  0  0  0  0  0
   -1.6330    1.5750    1.2880 O   0  0  0  0  0  0  0  0  0  0  0  0
   -2.8780    1.0880    1.5970 C   0  0  0  0  0  0  0  0  0  0  0  0
   -3.5720    0.8550    0.4370 O   0  0  0  0  0  0  0  0  0  0  0  0
   -2.6050    0.6390   -0.5120 C   0  0  2  0  0  0  0  0  0  0  0  0
   -2.1260   -0.7520   -0.6420 C   0  0  2  0  0  0  0  0  0  0  0  0
   -3.1500   -1.6110   -0.2000 O   0  0  0  0  0  0  0  0  0  0  0  0
   -0.8880   -1.1010    0.0840 C   0  0  0  0  0  0  0  0  0  0  0  0
  2  1  1  6
  2  3  1  0
  2  4  1  0
  3  4  1  0
  4  5  1  6
  6  5  1  6
  6  7  1  0
  6 15  1  0
  8  7  1  1
  8  9  1  0
  8 12  1  0
  9 10  1  0
 10 11  1  0
 12 11  1  1
 12 13  1  0
 13 14  1  1
 13 15  1  0
M  CHG  1   6   1
M  END
