
     RDKit          3D

 16 17  0  0  0  0  0  0  0  0999 V2000
    2.5360   -0.3850   -1.2430 C   0  0  0  0  0  0  0  0  0  0  0  0
    1.6740    0.0720   -0.0690 C   0  0  1  0  0  0  0  0  0  0  0  0
    2.5400    0.9890    0.7780 C   0  0  0  0  0  0  0  0  0  0  0  0
    3.6890    0.3340    1.3210 N   0  0  0  0  0  0  0  0  0  0  0  0
    0.6120    0.8390   -0.5210 O   0  0  0  0  0  0  0  0  0  0  0  0
   -0.3660    0.8130    0.4730 C   0  0  0  0  0  0  0  0  0  0  0  0
   -1.5200   -0.0040   -0.1180 C   0  0  1  0  0  0  0  0  0  0  0  0
   -2.8360    0.4100    0.5120 C   0  0  0  0  0  0  0  0  0  0  0  0
   -3.6670    0.7040   -0.7200 C   0  0  0  0  0  0  0  0  0  0  0  0
   -2.5630    1.2960   -1.6070 C   0  0  0  0  0  0  0  0  0  0  0  0
   -1.5840    0.3150   -1.4550 O   0  0  0  0  0  0  0  0  0  0  0  0
   -1.2730   -1.4620    0.0300 C   0  0  1  0  0  0  0  0  0  0  0  0
   -1.5190   -2.1810   -1.1600 O   0  0  0  0  0  0  0  0  0  0  0  0
    0.0190   -1.8030    0.5630 N   0  0  0  0  0  0  0  0  0  0  0  0
    1.2490   -1.1280    0.6570 C   0  0  0  0  0  0  0  0  0  0  0  0
    2.1070   -1.5870    1.4520 O   0  0  0  0  0  0  0  0  0  0  0  0
  2  1  1  6
  2  3  1  0
  2  5  1  0
  2 15  1  0
  3  4  1  0
  5  6  1  0
  7  6  1  1
  7  8  1  0
  7 11  1  0
  7 12  1  0
  8  9  1  0
  9 10  1  0
 10 11  1  0
 12 13  1  6
 12 14  1  0
 14 15  1  0
 15 16  2  0
M  CHG  1   4   1
M  END
