
     RDKit          3D

 31 34  0  0  0  0  0  0  0  0999 V2000
    9.5730   -1.2230   -1.2490 C   0  0  0  0  0  0  0  0  0  0  0  0
    8.7430   -0.6520   -0.1620 C   0  0  0  0  0  0  0  0  0  0  0  0
    8.7630   -1.0090    1.1380 N   0  0  0  0  0  0  0  0  0  0  0  0
    7.9000   -0.2930    1.7910 O   0  0  0  0  0  0  0  0  0  0  0  0
    7.2870    0.5430    0.9920 C   0  0  0  0  0  0  0  0  0  0  0  0
    6.2210    1.5420    1.3510 C   0  0  0  0  0  0  0  0  0  0  0  0
    4.9190    0.8210    1.1870 C   0  0  0  0  0  0  0  0  0  0  0  0
    4.1040    0.6800    0.1500 C   0  0  0  0  0  0  0  0  0  0  0  0
    3.0010   -0.0110    0.2560 N   0  0  0  0  0  0  0  0  0  0  0  0
    2.6890   -0.5840    1.4220 C   0  0  0  0  0  0  0  0  0  0  0  0
    1.7090   -1.2980    1.8180 N   0  0  0  0  0  0  0  0  0  0  0  0
    0.7070   -1.5610    0.8170 C   0  0  0  0  0  0  0  0  0  0  0  0
    0.6050   -2.6910    0.2760 O   0  0  0  0  0  0  0  0  0  0  0  0
   -0.2140   -0.5000    0.4130 C   0  0  0  0  0  0  0  0  0  0  0  0
   -0.1750    0.7540    0.9810 C   0  0  0  0  0  0  0  0  0  0  0  0
   -1.0460    1.7520    0.5830 C   0  0  0  0  0  0  0  0  0  0  0  0
   -1.9990    1.5140   -0.4180 C   0  0  0  0  0  0  0  0  0  0  0  0
   -2.8270    2.6890   -0.7900 C   0  0  0  0  0  0  0  0  0  0  0  0
   -2.0510    0.2880   -0.9840 C   0  0  0  0  0  0  0  0  0  0  0  0
   -3.0540   -0.0610   -1.9950 C   0  0  0  0  0  0  0  0  0  0  0  0
   -4.3010   -0.6090   -1.4230 C   0  0  0  0  0  0  0  0  0  0  0  0
   -5.0800    0.1490   -0.5230 N   0  0  0  0  0  0  0  0  0  0  0  0
   -6.2870   -0.4760   -0.0420 C   0  0  0  0  0  0  0  0  0  0  0  0
   -6.6350   -1.7580   -0.4440 C   0  0  0  0  0  0  0  0  0  0  0  0
   -7.8110   -2.2810    0.0640 C   0  0  0  0  0  0  0  0  0  0  0  0
   -8.5860   -1.5970    0.9020 N   0  0  0  0  0  0  0  0  0  0  0  0
   -8.2600   -0.3550    1.2990 C   0  0  0  0  0  0  0  0  0  0  0  0
   -7.0970    0.2160    0.8230 C   0  0  0  0  0  0  0  0  0  0  0  0
   -1.1590   -0.7100   -0.5660 C   0  0  0  0  0  0  0  0  0  0  0  0
    4.1140   -0.0750    2.4430 S   0  0  0  0  0  0  0  0  0  0  0  0
    7.8150    0.3170   -0.2330 N   0  0  0  0  0  0  0  0  0  0  0  0
  1  2  1  0
  2  3  2  0
  2 31  1  0
  3  4  1  0
  4  5  1  0
  5  6  1  0
  5 31  2  0
  6  7  1  0
  7  8  2  0
  7 30  1  0
  8  9  1  0
  9 10  1  0
 10 11  2  3
 10 30  1  0
 11 12  1  0
 12 13  2  0
 12 14  1  0
 14 15  2  0
 14 29  1  0
 15 16  1  0
 16 17  2  0
 17 18  1  0
 17 19  1  0
 19 20  1  0
 19 29  2  0
 20 21  1  0
 21 22  1  0
 22 23  1  0
 23 24  2  0
 23 28  1  0
 24 25  1  0
 25 26  2  0
 26 27  1  0
 27 28  2  0
M  END
