
     RDKit          3D

 31 34  0  0  0  0  0  0  0  0999 V2000
    1.2450    5.4670   -0.5750 C   0  0  0  0  0  0  0  0  0  0  0  0
    2.0140    4.8340    0.5530 C   0  0  0  0  0  0  0  0  0  0  0  0
    2.2840    3.3810    0.3300 C   0  0  0  0  0  0  0  0  0  0  0  0
    1.0280    2.6010    0.1870 C   0  0  0  0  0  0  0  0  0  0  0  0
   -0.1060    3.1060    0.2480 O   0  0  0  0  0  0  0  0  0  0  0  0
    1.1170    1.1830   -0.0340 N   0  0  0  0  0  0  0  0  0  0  0  0
   -0.0570    0.4260   -0.1720 C   0  0  0  0  0  0  0  0  0  0  0  0
   -1.2580    1.0810   -0.0900 N   0  0  0  0  0  0  0  0  0  0  0  0
   -2.4410    0.4720   -0.2060 C   0  0  0  0  0  0  0  0  0  0  0  0
   -2.4980   -0.8890   -0.4200 C   0  0  0  0  0  0  0  0  0  0  0  0
   -1.2830   -1.5560   -0.5040 C   0  0  0  0  0  0  0  0  0  0  0  0
   -0.0600   -0.9140   -0.3820 C   0  0  0  0  0  0  0  0  0  0  0  0
    1.2120   -1.6840   -0.4790 C   0  0  0  0  0  0  0  0  0  0  0  0
    1.1160   -3.0710   -0.7040 C   0  0  0  0  0  0  0  0  0  0  0  0
    2.9160   -3.5420   -0.7430 S   0  0  0  0  0  0  0  0  0  0  0  0
    3.4680   -1.7640   -0.4450 C   0  0  0  0  0  0  0  0  0  0  0  0
    4.8860   -1.4750   -0.3690 C   0  0  0  0  0  0  0  0  0  0  0  0
    5.7730   -2.3760   -0.4950 N   0  0  0  0  0  0  0  0  0  0  0  0
    7.1910   -2.2250   -0.4420 C   0  0  0  0  0  0  0  0  0  0  0  0
    7.6100   -0.9960    0.3310 C   0  0  0  0  0  0  0  0  0  0  0  0
    6.7250    0.1230   -0.0650 C   0  0  0  0  0  0  0  0  0  0  0  0
    7.2190    1.2470   -0.3190 O   0  0  0  0  0  0  0  0  0  0  0  0
    5.3310   -0.1340   -0.1400 N   0  0  0  0  0  0  0  0  0  0  0  0
    2.4300   -1.2500   -0.3840 N   0  0  0  0  0  0  0  0  0  0  0  0
   -3.7610   -1.6110   -0.5540 C   0  0  0  0  0  0  0  0  0  0  0  0
   -4.8930   -0.9410   -0.0110 N   0  0  0  0  0  0  0  0  0  0  0  0
   -5.7010   -1.8750    0.7070 C   0  0  1  0  0  0  0  0  0  0  0  0
   -6.9350   -1.2790    1.3220 C   0  0  0  0  0  0  0  0  0  0  0  0
   -6.0950   -3.0220   -0.1700 C   0  0  0  0  0  0  0  0  0  0  0  0
   -4.6520    0.2640    0.7020 C   0  0  0  0  0  0  0  0  0  0  0  0
   -3.7450    1.1790   -0.1160 C   0  0  0  0  0  0  0  0  0  0  0  0
  1  2  1  0
  2  3  1  0
  3  4  1  0
  4  5  2  0
  4  6  1  0
  6  7  1  0
  7  8  2  0
  7 12  1  0
  8  9  1  0
  9 10  2  0
  9 31  1  0
 10 11  1  0
 10 25  1  0
 11 12  2  0
 12 13  1  0
 13 14  2  0
 13 24  1  0
 14 15  1  0
 15 16  1  0
 16 17  1  0
 16 24  2  0
 17 18  2  0
 17 23  1  0
 18 19  1  0
 19 20  1  0
 20 21  1  0
 21 22  2  0
 21 23  1  0
 25 26  1  0
 26 27  1  0
 26 30  1  0
 27 28  1  6
 27 29  1  0
 30 31  1  0
M  END
