
     RDKit          3D

 31 33  0  0  0  0  0  0  0  0999 V2000
    0.6650    1.4200    0.7150 O   0  0  0  0  0  0  0  0  0  0  0  0
    1.0410    0.9480    1.8120 C   0  0  0  0  0  0  0  0  0  0  0  0
    0.2570    1.2370    3.0720 C   0  0  0  0  0  0  0  0  0  0  0  0
   -0.9350    2.0810    2.7810 C   0  0  0  0  0  0  0  0  0  0  0  0
   -1.8460    1.3510    1.8110 C   0  0  0  0  0  0  0  0  0  0  0  0
   -1.5530    0.2130    1.4040 O   0  0  0  0  0  0  0  0  0  0  0  0
   -3.0260    1.9620    1.3700 N   0  0  0  0  0  0  0  0  0  0  0  0
   -4.0000    1.4610    0.4860 C   0  0  0  0  0  0  0  0  0  0  0  0
   -5.0100    2.3140    0.0140 C   0  0  0  0  0  0  0  0  0  0  0  0
   -5.9840    1.8730   -0.8390 C   0  0  0  0  0  0  0  0  0  0  0  0
   -5.9680    0.5480   -1.2430 C   0  0  0  0  0  0  0  0  0  0  0  0
   -4.9960   -0.3050   -0.7990 C   0  0  0  0  0  0  0  0  0  0  0  0
   -4.0210    0.1680    0.0650 C   0  0  0  0  0  0  0  0  0  0  0  0
   -4.9650   -1.7260   -1.2230 C   0  0  0  0  0  0  0  0  0  0  0  0
   -4.0520   -2.4810   -0.7910 O   0  0  0  0  0  0  0  0  0  0  0  0
   -5.9760   -2.2230   -2.1200 C   0  0  0  0  0  0  0  0  0  0  0  0
   -5.9290   -3.4330   -2.4650 O   0  0  0  0  0  0  0  0  0  0  0  0
   -6.9770   -1.3250   -2.5710 N   0  0  0  0  0  0  0  0  0  0  0  0
   -7.0070    0.0410   -2.1640 C   0  0  0  0  0  0  0  0  0  0  0  0
   -7.9080    0.7890   -2.5890 O   0  0  0  0  0  0  0  0  0  0  0  0
    2.1970    0.1490    1.8590 N   0  0  0  0  0  0  0  0  0  0  0  0
    3.0350   -0.2180    0.7780 C   0  0  0  0  0  0  0  0  0  0  0  0
    2.6760   -0.0120   -0.5250 C   0  0  0  0  0  0  0  0  0  0  0  0
    3.5370   -0.3720   -1.5750 C   0  0  0  0  0  0  0  0  0  0  0  0
    4.7600   -0.9390   -1.3240 C   0  0  0  0  0  0  0  0  0  0  0  0
    5.1490   -1.1580   -0.0240 C   0  0  0  0  0  0  0  0  0  0  0  0
    6.3550   -1.7140    0.2910 O   0  0  0  0  0  0  0  0  0  0  0  0
    7.4080   -2.1330   -0.4860 C   0  0  0  0  0  0  0  0  0  0  0  0
    8.1310   -1.0770   -1.2790 C   0  0  0  0  0  0  0  0  0  0  0  0
    9.1390   -1.7640   -1.9760 F   0  0  0  0  0  0  0  0  0  0  0  0
    4.2660   -0.7880    0.9910 C   0  0  0  0  0  0  0  0  0  0  0  0
  1  2  2  0
  2  3  1  0
  2 21  1  0
  3  4  1  0
  4  5  1  0
  5  6  2  0
  5  7  1  0
  7  8  1  0
  8  9  2  0
  8 13  1  0
  9 10  1  0
 10 11  2  0
 11 12  1  0
 11 19  1  0
 12 13  2  0
 12 14  1  0
 14 15  2  0
 14 16  1  0
 16 17  2  0
 16 18  1  0
 18 19  1  0
 19 20  2  0
 21 22  1  0
 22 23  2  0
 22 31  1  0
 23 24  1  0
 24 25  2  0
 25 26  1  0
 26 27  1  0
 26 31  2  0
 27 28  1  0
 28 29  1  0
 29 30  1  0
M  END
