
     RDKit          3D

 31 34  0  0  0  0  0  0  0  0999 V2000
    5.6350   -2.6810   -0.1880 C   0  0  0  0  0  0  0  0  0  0  0  0
    4.8010   -1.4210   -0.2730 C   0  0  1  0  0  0  0  0  0  0  0  0
    3.8060   -1.5700   -1.4380 C   0  0  0  0  0  0  0  0  0  0  0  0
    3.9690   -1.2580    0.9780 C   0  0  0  0  0  0  0  0  0  0  0  0
    3.1300   -0.0300    0.9520 C   0  0  0  0  0  0  0  0  0  0  0  0
    1.8260   -0.1620    0.6520 N   0  0  0  0  0  0  0  0  0  0  0  0
    1.0010    0.8760    0.5870 C   0  0  0  0  0  0  0  0  0  0  0  0
   -0.4120    0.7360    0.2600 C   0  0  0  0  0  0  0  0  0  0  0  0
   -1.2370    1.7900    0.1980 N   0  0  0  0  0  0  0  0  0  0  0  0
   -2.5380    1.6790   -0.1030 C   0  0  0  0  0  0  0  0  0  0  0  0
   -3.4370    2.8640   -0.1660 C   0  0  0  0  0  0  0  0  0  0  0  0
   -4.7030    2.6950   -0.4680 C   0  0  0  0  0  0  0  0  0  0  0  0
   -5.7620    3.7050   -0.5870 C   0  0  0  0  0  0  0  0  0  0  0  0
   -5.1870    5.3800   -0.2570 S   0  0  0  0  0  0  0  0  0  0  0  0
   -3.4620    5.2930    0.1160 C   0  0  0  0  0  0  0  0  0  0  0  0
   -2.8330    4.1510    0.1210 C   0  0  0  0  0  0  0  0  0  0  0  0
   -3.0190    0.4500   -0.3490 N   0  0  0  0  0  0  0  0  0  0  0  0
   -2.2380   -0.6460   -0.3000 C   0  0  0  0  0  0  0  0  0  0  0  0
   -2.7740   -1.9250   -0.5650 N   0  0  0  0  0  0  0  0  0  0  0  0
   -4.1730   -2.1300   -0.9110 C   0  0  0  0  0  0  0  0  0  0  0  0
   -4.7320   -3.2940   -0.1540 C   0  0  0  0  0  0  0  0  0  0  0  0
   -3.9350   -4.4190   -0.2020 O   0  0  0  0  0  0  0  0  0  0  0  0
   -2.8210   -4.2650   -1.0150 C   0  0  0  0  0  0  0  0  0  0  0  0
   -1.9540   -3.1320   -0.5080 C   0  0  0  0  0  0  0  0  0  0  0  0
   -0.9400   -0.4730    0.0060 N   0  0  0  0  0  0  0  0  0  0  0  0
    1.5450    2.1150    0.8450 C   0  0  0  0  0  0  0  0  0  0  0  0
    2.8820    2.2960    1.1590 C   0  0  0  0  0  0  0  0  0  0  0  0
    3.7090    1.2070    1.2180 C   0  0  0  0  0  0  0  0  0  0  0  0
    5.0730    1.2880    1.5480 N   0  0  0  0  0  0  0  0  0  0  0  0
    5.7640    2.4840    1.7830 C   0  0  0  0  0  0  0  0  0  0  0  0
    5.2680    3.6220    1.7310 O   0  0  0  0  0  0  0  0  0  0  0  0
  2  1  1  1
  2  3  1  0
  2  4  1  0
  4  5  1  0
  5  6  2  0
  5 28  1  0
  6  7  1  0
  7  8  1  0
  7 26  2  0
  8  9  2  0
  8 25  1  0
  9 10  1  0
 10 11  1  0
 10 17  2  0
 11 12  2  0
 11 16  1  0
 12 13  1  0
 13 14  1  0
 14 15  1  0
 15 16  2  0
 17 18  1  0
 18 19  1  0
 18 25  2  0
 19 20  1  0
 19 24  1  0
 20 21  1  0
 21 22  1  0
 22 23  1  0
 23 24  1  0
 26 27  1  0
 27 28  2  0
 28 29  1  0
 29 30  1  0
 30 31  2  0
M  END
