
     RDKit          3D

 31 34  0  0  0  0  0  0  0  0999 V2000
   -5.3270   -0.8750    0.0280 C   0  0  0  0  0  0  0  0  0  0  0  0
   -4.8640   -1.7490    1.1620 C   0  0  0  0  0  0  0  0  0  0  0  0
   -5.6870   -2.0480    2.2270 C   0  0  0  0  0  0  0  0  0  0  0  0
   -5.2490   -2.8510    3.2430 C   0  0  0  0  0  0  0  0  0  0  0  0
   -3.9650   -3.4100    3.2700 C   0  0  0  0  0  0  0  0  0  0  0  0
   -3.1600   -3.0840    2.1770 C   0  0  0  0  0  0  0  0  0  0  0  0
   -3.5820   -2.2830    1.1520 C   0  0  0  0  0  0  0  0  0  0  0  0
   -2.7420   -1.9770    0.0780 N   0  0  0  0  0  0  0  0  0  0  0  0
   -1.4150   -2.4540   -0.1100 C   0  0  0  0  0  0  0  0  0  0  0  0
   -0.4010   -1.6850    0.1240 C   0  0  0  0  0  0  0  0  0  0  0  0
    1.3240   -2.1970   -0.0890 S   0  0  0  0  0  0  0  0  0  0  0  0
    1.8770   -0.4700   -0.3460 C   0  0  0  0  0  0  0  0  0  0  0  0
    2.9210   -0.2100   -1.0010 N   0  0  0  0  0  0  0  0  0  0  0  0
    3.4280    1.0360   -1.2620 O   0  0  0  0  0  0  0  0  0  0  0  0
    4.6230    1.0900   -2.0530 C   0  0  0  0  0  0  0  0  0  0  0  0
    4.2690    0.4390   -3.3390 C   0  0  0  0  0  0  0  0  0  0  0  0
    3.8940    1.0080   -4.5510 C   0  0  0  0  0  0  0  0  0  0  0  0
    3.6780    0.0080   -5.3960 N   0  0  0  0  0  0  0  0  0  0  0  0
    3.8850   -1.1550   -4.8190 N   0  0  0  0  0  0  0  0  0  0  0  0
    4.2590   -0.9330   -3.5260 C   0  0  0  0  0  0  0  0  0  0  0  0
    0.9260    0.3020    0.3120 N   0  0  0  0  0  0  0  0  0  0  0  0
    1.1880    1.6460    0.7210 C   0  0  0  0  0  0  0  0  0  0  0  0
    2.4030    1.9540    1.3220 C   0  0  0  0  0  0  0  0  0  0  0  0
    2.7230    3.2080    1.7730 C   0  0  0  0  0  0  0  0  0  0  0  0
    1.7930    4.2200    1.6230 C   0  0  0  0  0  0  0  0  0  0  0  0
    2.1470    5.5360    2.1530 C   0  0  0  0  0  0  0  0  0  0  0  0
    2.4310    6.5570    2.5460 N   0  0  0  0  0  0  0  0  0  0  0  0
    0.5880    3.9510    1.0330 C   0  0  0  0  0  0  0  0  0  0  0  0
    0.2720    2.6660    0.5770 C   0  0  0  0  0  0  0  0  0  0  0  0
   -0.3060   -0.3370    0.5710 C   0  0  0  0  0  0  0  0  0  0  0  0
   -1.2780    0.2400    1.1640 O   0  0  0  0  0  0  0  0  0  0  0  0
  1  2  1  0
  2  3  2  0
  2  7  1  0
  3  4  1  0
  4  5  2  0
  5  6  1  0
  6  7  2  0
  7  8  1  0
  8  9  1  0
  9 10  2  3
 10 11  1  0
 10 30  1  0
 11 12  1  0
 12 13  2  3
 12 21  1  0
 13 14  1  0
 14 15  1  0
 15 16  1  0
 16 17  1  0
 16 20  2  0
 17 18  2  0
 18 19  1  0
 19 20  1  0
 21 22  1  0
 21 30  1  0
 22 23  2  0
 22 29  1  0
 23 24  1  0
 24 25  2  0
 25 26  1  0
 25 28  1  0
 26 27  3  0
 28 29  2  0
 30 31  2  0
M  END
