
     RDKit          3D

 31 34  0  0  0  0  0  0  0  0999 V2000
   -6.9350    0.0550    2.0820 C   0  0  0  0  0  0  0  0  0  0  0  0
   -6.4560   -1.3480    2.2510 C   0  0  0  0  0  0  0  0  0  0  0  0
   -5.8720   -1.9540    1.0160 C   0  0  0  0  0  0  0  0  0  0  0  0
   -4.7050   -1.2440    0.4690 C   0  0  0  0  0  0  0  0  0  0  0  0
   -3.4810   -1.6570    0.8680 N   0  0  0  0  0  0  0  0  0  0  0  0
   -2.3920   -1.0260    0.4440 C   0  0  0  0  0  0  0  0  0  0  0  0
   -1.0790   -1.4950    0.8930 C   0  0  0  0  0  0  0  0  0  0  0  0
   -1.0010   -2.5660    1.7350 C   0  0  0  0  0  0  0  0  0  0  0  0
    0.2210   -2.9690    2.1280 N   0  0  0  0  0  0  0  0  0  0  0  0
    1.3540   -2.3650    1.7290 C   0  0  0  0  0  0  0  0  0  0  0  0
    1.3210   -1.2650    0.8680 C   0  0  0  0  0  0  0  0  0  0  0  0
    2.5640   -0.7020    0.5120 N   0  0  0  0  0  0  0  0  0  0  0  0
    2.7650    0.3820   -0.3810 C   0  0  0  0  0  0  0  0  0  0  0  0
    1.8190    0.9340   -0.9350 O   0  0  0  0  0  0  0  0  0  0  0  0
    4.1450    0.8770   -0.6650 C   0  0  0  0  0  0  0  0  0  0  0  0
    5.3110    0.4650   -0.2050 C   0  0  0  0  0  0  0  0  0  0  0  0
    6.4570    1.0590   -0.5940 C   0  0  0  0  0  0  0  0  0  0  0  0
    7.8310    0.6730   -0.1320 C   0  0  0  0  0  0  0  0  0  0  0  0
    7.9430   -0.1720    0.7720 O   0  0  0  0  0  0  0  0  0  0  0  0
    8.9860    1.2420   -0.6970 N   0  0  0  0  0  0  0  0  0  0  0  0
   10.3140    0.8780   -0.2610 C   0  0  0  0  0  0  0  0  0  0  0  0
    6.3320    2.1090   -1.4910 C   0  0  0  0  0  0  0  0  0  0  0  0
    4.5240    2.1720   -1.7190 S   0  0  0  0  0  0  0  0  0  0  0  0
    0.0870   -0.8520    0.4650 C   0  0  0  0  0  0  0  0  0  0  0  0
   -2.4860    0.0190   -0.3780 N   0  0  0  0  0  0  0  0  0  0  0  0
   -3.6690    0.4760   -0.8100 C   0  0  0  0  0  0  0  0  0  0  0  0
   -4.8200   -0.1600   -0.3860 C   0  0  0  0  0  0  0  0  0  0  0  0
   -5.8980    0.4760   -0.9770 C   0  0  0  0  0  0  0  0  0  0  0  0
   -5.3660    1.4940   -1.7500 C   0  0  0  0  0  0  0  0  0  0  0  0
   -4.0350    1.4850   -1.6430 N   0  0  0  0  0  0  0  0  0  0  0  0
   -3.0580    2.3580   -2.2660 C   0  0  0  0  0  0  0  0  0  0  0  0
  1  2  1  0
  2  3  1  0
  3  4  1  0
  4  5  2  0
  4 27  1  0
  5  6  1  0
  6  7  1  0
  6 25  2  0
  7  8  2  0
  7 24  1  0
  8  9  1  0
  9 10  2  0
 10 11  1  0
 11 12  1  0
 11 24  2  0
 12 13  1  0
 13 14  2  0
 13 15  1  0
 15 16  2  0
 15 23  1  0
 16 17  1  0
 17 18  1  0
 17 22  2  0
 18 19  2  0
 18 20  1  0
 20 21  1  0
 22 23  1  0
 25 26  1  0
 26 27  2  0
 26 30  1  0
 27 28  1  0
 28 29  2  0
 29 30  1  0
 30 31  1  0
M  END
