
     RDKit          3D

 31 34  0  0  0  0  0  0  0  0999 V2000
   -2.8320    3.7420   -2.1690 C   0  0  0  0  0  0  0  0  0  0  0  0
   -2.8580    2.5680   -1.2790 C   0  0  0  0  0  0  0  0  0  0  0  0
   -3.4690    1.4280   -1.3980 N   0  0  0  0  0  0  0  0  0  0  0  0
   -3.0610    0.5770   -0.2550 N   0  0  0  0  0  0  0  0  0  0  0  0
   -3.6690   -0.6640   -0.3210 C   0  0  0  0  0  0  0  0  0  0  0  0
   -3.7590   -1.2590   -1.6210 C   0  0  0  0  0  0  0  0  0  0  0  0
   -4.5380   -2.3880   -1.9030 C   0  0  0  0  0  0  0  0  0  0  0  0
   -5.2400   -2.9810   -0.9300 C   0  0  0  0  0  0  0  0  0  0  0  0
   -5.1520   -2.3900    0.3590 C   0  0  0  0  0  0  0  0  0  0  0  0
   -4.4970   -1.4090    0.5730 C   0  0  0  0  0  0  0  0  0  0  0  0
   -2.2350    1.2730    0.4190 C   0  0  0  0  0  0  0  0  0  0  0  0
   -1.5070    0.7620    1.6030 N   0  0  0  0  0  0  0  0  0  0  0  0
   -0.0840    1.2480    1.5100 C   0  0  0  0  0  0  0  0  0  0  0  0
    0.3750    0.8290    0.1540 C   0  0  0  0  0  0  0  0  0  0  0  0
    1.5370    1.1930   -0.4700 C   0  0  0  0  0  0  0  0  0  0  0  0
    1.6160    2.2880   -1.4970 C   0  0  0  0  0  0  0  0  0  0  0  0
    2.8140    2.3670   -1.9420 N   0  0  0  0  0  0  0  0  0  0  0  0
    3.4850    1.4310   -1.2920 N   0  0  0  0  0  0  0  0  0  0  0  0
    2.8870    0.7300   -0.4770 C   0  0  0  0  0  0  0  0  0  0  0  0
    3.4680   -0.3860    0.2760 C   0  0  0  0  0  0  0  0  0  0  0  0
    3.2360   -0.6250    1.6470 C   0  0  0  0  0  0  0  0  0  0  0  0
    3.8560   -1.7470    2.4130 C   0  0  0  0  0  0  0  0  0  0  0  0
    4.6410   -2.4000    1.4780 C   0  0  0  0  0  0  0  0  0  0  0  0
    5.6220   -3.8180    2.3470 S   0  0  1  0  0  0  0  0  0  0  0  0
    5.2150   -5.0350    1.6180 O   0  0  0  0  0  0  0  0  0  0  0  0
    7.0340   -3.3980    1.9960 O   0  0  0  0  0  0  0  0  0  0  0  0
    4.9390   -2.3360    0.3100 C   0  0  0  0  0  0  0  0  0  0  0  0
    4.2960   -1.2140   -0.4080 C   0  0  0  0  0  0  0  0  0  0  0  0
   -2.0350    2.5170   -0.0870 C   0  0  0  0  0  0  0  0  0  0  0  0
   -1.2360    3.5390    0.2750 C   0  0  0  0  0  0  0  0  0  0  0  0
   -0.4100    4.5640    0.6490 N   0  0  0  0  0  0  0  0  0  0  0  0
  1  2  1  0
  2  3  2  0
  2 29  1  0
  3  4  1  0
  4  5  1  0
  4 11  1  0
  5  6  2  0
  5 10  1  0
  6  7  1  0
  7  8  2  0
  8  9  1  0
  9 10  2  0
 11 12  1  0
 11 29  2  0
 12 13  1  0
 13 14  1  0
 14 15  1  0
 15 16  2  0
 15 19  1  0
 16 17  1  0
 17 18  1  0
 18 19  2  0
 19 20  1  0
 20 21  2  0
 20 28  1  0
 21 22  1  0
 22 23  2  0
 24 23  1  6
 23 27  1  0
 24 25  2  0
 24 26  2  0
 27 28  2  0
 29 30  1  0
 30 31  3  0
M  END
