
     RDKit          3D

 10 10  0  0  0  0  0  0  0  0999 V2000
    3.9570    0.6010   -0.0020 N   0  0  0  0  0  0  0  0  0  0  0  0
    2.5560    0.7950   -0.0210 C   0  0  0  0  0  0  0  0  0  0  0  0
    2.1210    1.9640    0.0740 O   0  0  0  0  0  0  0  0  0  0  0  0
    1.6400   -0.3060   -0.1440 C   0  0  0  0  0  0  0  0  0  0  0  0
    0.3410   -0.2180   -0.1710 C   0  0  0  0  0  0  0  0  0  0  0  0
   -0.4750   -1.4710   -0.3040 C   0  0  0  0  0  0  0  0  0  0  0  0
   -1.6730   -1.3880    0.6190 C   0  0  0  0  0  0  0  0  0  0  0  0
   -2.4970   -0.1780    0.3710 C   0  0  0  0  0  0  0  0  0  0  0  0
   -1.8160    1.0090   -0.1890 C   0  0  0  0  0  0  0  0  0  0  0  0
   -0.3400    1.0850   -0.0720 C   0  0  0  0  0  0  0  0  0  0  0  0
  1  2  1  0
  2  3  2  0
  2  4  1  0
  4  5  2  3
  5  6  1  0
  5 10  1  0
  6  7  1  0
  7  8  1  0
  8  9  1  0
  9 10  1  0
M  END
