
     RDKit          3D

 11 11  0  0  0  0  0  0  0  0999 V2000
    3.5090   -0.8100    0.8490 C   0  0  0  0  0  0  0  0  0  0  0  0
    3.1380   -0.2520   -0.5160 C   0  0  0  0  0  0  0  0  0  0  0  0
    1.7150   -0.4080   -0.7750 N   0  0  0  0  0  0  0  0  0  0  0  0
    0.7200    0.1730    0.0430 C   0  0  0  0  0  0  0  0  0  0  0  0
    1.0830    0.8530    1.0380 O   0  0  0  0  0  0  0  0  0  0  0  0
   -0.7370    0.0280   -0.2020 C   0  0  2  0  0  0  0  0  0  0  0  0
   -1.0170   -0.7320   -1.3120 O   0  0  0  0  0  0  0  0  0  0  0  0
   -1.4310    1.3540   -0.3460 C   0  0  0  0  0  0  0  0  0  0  0  0
   -2.8920    0.9960   -0.1740 C   0  0  0  0  0  0  0  0  0  0  0  0
   -2.9150   -0.1860    0.7340 C   0  0  0  0  0  0  0  0  0  0  0  0
   -1.4540   -0.5800    0.9810 C   0  0  0  0  0  0  0  0  0  0  0  0
  1  2  1  0
  2  3  1  0
  3  4  1  0
  4  5  2  0
  4  6  1  0
  6  7  1  6
  6  8  1  0
  6 11  1  0
  8  9  1  0
  9 10  1  0
 10 11  1  0
M  END
