
     RDKit          3D

 11 11  0  0  0  0  0  0  0  0999 V2000
    3.9430    0.1260   -1.0970 C   0  0  0  0  0  0  0  0  0  0  0  0
    2.9360    0.2450    0.0050 C   0  0  0  0  0  0  0  0  0  0  0  0
    3.3270    0.5010    1.1790 O   0  0  0  0  0  0  0  0  0  0  0  0
    1.5450    0.0810   -0.2150 N   0  0  0  0  0  0  0  0  0  0  0  0
    0.6250    0.2020    0.8640 C   0  0  0  0  0  0  0  0  0  0  0  0
   -0.8020    0.0080    0.5030 C   0  0  1  0  0  0  0  0  0  0  0  0
   -1.5790    0.1550    1.6460 O   0  0  0  0  0  0  0  0  0  0  0  0
   -1.3110    0.9860   -0.5210 C   0  0  0  0  0  0  0  0  0  0  0  0
   -2.6930    0.4100   -0.8070 C   0  0  0  0  0  0  0  0  0  0  0  0
   -2.5880   -1.0770   -0.5310 C   0  0  0  0  0  0  0  0  0  0  0  0
   -1.1260   -1.3060   -0.1200 C   0  0  0  0  0  0  0  0  0  0  0  0
  1  2  1  0
  2  3  2  0
  2  4  1  0
  4  5  1  0
  5  6  1  0
  6  7  1  1
  6  8  1  0
  6 11  1  0
  8  9  1  0
  9 10  1  0
 10 11  1  0
M  END
