
     RDKit          3D

 11 11  0  0  0  0  0  0  0  0999 V2000
    0.3330    0.3360    1.6470 O   0  0  0  0  0  0  0  0  0  0  0  0
    0.0830    0.3130    0.4250 C   0  0  0  0  0  0  0  0  0  0  0  0
    1.1350    0.3900   -0.5080 N   0  0  0  0  0  0  0  0  0  0  0  0
    2.4950    0.4900   -0.0590 C   0  0  0  0  0  0  0  0  0  0  0  0
    2.9450   -0.6830    0.7570 C   0  0  0  0  0  0  0  0  0  0  0  0
    4.2930   -0.4720    1.1370 O   0  0  0  0  0  0  0  0  0  0  0  0
   -1.3200    0.2060    0.0210 C   0  0  0  0  0  0  0  0  0  0  0  0
   -1.7690    0.1670   -1.2230 C   0  0  0  0  0  0  0  0  0  0  0  0
   -3.2470    0.0550   -1.2570 C   0  0  0  0  0  0  0  0  0  0  0  0
   -3.6020    0.0330    0.1810 C   0  0  0  0  0  0  0  0  0  0  0  0
   -2.4880    0.1200    0.8800 C   0  0  0  0  0  0  0  0  0  0  0  0
  1  2  2  0
  2  3  1  0
  2  7  1  0
  3  4  1  0
  4  5  1  0
  5  6  1  0
  7  8  2  0
  7 11  1  0
  8  9  1  0
  9 10  1  0
 10 11  2  0
M  END
