
     RDKit          3D

 11 11  0  0  0  0  0  0  0  0999 V2000
   -3.2720    1.0020   -1.1510 C   0  0  0  0  0  0  0  0  0  0  0  0
   -2.2930    0.2100   -0.3600 C   0  0  0  0  0  0  0  0  0  0  0  0
   -2.5850   -0.7550    0.5650 C   0  0  0  0  0  0  0  0  0  0  0  0
   -1.3770   -1.2390    1.0650 C   0  0  0  0  0  0  0  0  0  0  0  0
   -0.4010   -0.5270    0.4020 C   0  0  0  0  0  0  0  0  0  0  0  0
    1.0350   -0.6710    0.5800 C   0  0  0  0  0  0  0  0  0  0  0  0
    1.8840    0.0670   -0.1110 C   0  0  0  0  0  0  0  0  0  0  0  0
    3.3280   -0.0570    0.0470 C   0  0  0  0  0  0  0  0  0  0  0  0
    4.2480    0.7150   -0.6740 N   0  0  0  0  0  0  0  0  0  0  0  0
    3.7590   -0.9040    0.8770 O   0  0  0  0  0  0  0  0  0  0  0  0
   -1.0080    0.3170   -0.4280 O   0  0  0  0  0  0  0  0  0  0  0  0
  1  2  1  0
  2  3  2  0
  2 11  1  0
  3  4  1  0
  4  5  2  0
  5  6  1  0
  5 11  1  0
  6  7  2  3
  7  8  1  0
  8  9  1  0
  8 10  2  0
M  END
