
     RDKit          3D

 11 11  0  0  0  0  0  0  0  0999 V2000
    3.8590    0.4620   -0.3870 C   0  0  0  0  0  0  0  0  0  0  0  0
    2.6750    0.2000    0.3690 O   0  0  0  0  0  0  0  0  0  0  0  0
    1.6980   -0.6360   -0.1400 C   0  0  0  0  0  0  0  0  0  0  0  0
    1.9120   -1.1340   -1.2750 O   0  0  0  0  0  0  0  0  0  0  0  0
    0.4900   -0.8900    0.6550 C   0  0  1  0  0  0  0  0  0  0  0  0
    0.5320   -0.1900    1.8930 N   0  0  0  0  0  0  0  0  0  0  0  0
   -0.7100   -0.5850   -0.1890 C   0  0  1  0  0  0  0  0  0  0  0  0
   -2.0150   -0.8050    0.5120 C   0  0  0  0  0  0  0  0  0  0  0  0
   -2.9770    0.2390   -0.0430 C   0  0  0  0  0  0  0  0  0  0  0  0
   -2.2070    0.8800   -1.1790 C   0  0  0  0  0  0  0  0  0  0  0  0
   -0.7970    0.8690   -0.5860 C   0  0  0  0  0  0  0  0  0  0  0  0
  1  2  1  0
  2  3  1  0
  3  4  2  0
  3  5  1  0
  5  6  1  1
  5  7  1  0
  7  8  1  1
  7 11  1  0
  8  9  1  0
  9 10  1  0
 10 11  1  0
M  END
