
     RDKit          3D

 11 11  0  0  0  0  0  0  0  0999 V2000
   -0.5180   -1.1260   -1.2230 O   0  0  0  0  0  0  0  0  0  0  0  0
   -0.1280   -0.4160   -0.2650 C   0  0  0  0  0  0  0  0  0  0  0  0
   -1.1040    0.1500    0.5920 N   0  0  0  0  0  0  0  0  0  0  0  0
   -2.5150    0.0100    0.4910 C   0  0  0  0  0  0  0  0  0  0  0  0
   -3.1700    0.5230   -0.7370 C   0  0  0  0  0  0  0  0  0  0  0  0
   -2.7390   -0.0650   -1.8930 O   0  0  0  0  0  0  0  0  0  0  0  0
    1.3170   -0.1760   -0.0380 C   0  0  0  0  0  0  0  0  0  0  0  0
    1.8710    0.5430    0.9190 C   0  0  0  0  0  0  0  0  0  0  0  0
    3.3090    0.5510    0.8240 C   0  0  0  0  0  0  0  0  0  0  0  0
    3.6430   -0.1860   -0.2230 C   0  0  0  0  0  0  0  0  0  0  0  0
    2.4300   -0.7060   -0.8560 C   0  0  0  0  0  0  0  0  0  0  0  0
  1  2  2  0
  2  3  1  0
  2  7  1  0
  3  4  1  0
  4  5  1  0
  5  6  1  0
  7  8  2  0
  7 11  1  0
  8  9  1  0
  9 10  2  0
 10 11  1  0
M  END
