
     RDKit          3D

 37 39  0  0  0  0  0  0  0  0999 V2000
   -6.3020   -1.9880    1.0980 C   0  0  0  0  0  0  0  0  0  0  0  0
   -5.8210   -0.8950    0.1400 C   0  0  1  0  0  0  0  0  0  0  0  0
   -7.0290   -0.1410   -0.3230 C   0  0  0  0  0  0  0  0  0  0  0  0
   -7.8040    0.5140    0.7930 C   0  0  2  0  0  0  0  0  0  0  0  0
   -8.2680   -0.4170    1.7180 O   0  0  0  0  0  0  0  0  0  0  0  0
   -9.0490    1.1400    0.1520 C   0  0  0  0  0  0  0  0  0  0  0  0
   -8.7010    2.0920   -0.7960 O   0  0  0  0  0  0  0  0  0  0  0  0
   -4.7860   -0.0220    0.7820 C   0  0  0  0  0  0  0  0  0  0  0  0
   -3.5880    0.1590    0.0270 N   0  0  1  0  0  0  0  0  0  0  0  0
   -2.6830   -0.9510    0.0780 C   0  0  0  0  0  0  0  0  0  0  0  0
   -1.2640   -0.4720   -0.2020 C   0  0  0  0  0  0  0  0  0  0  0  0
   -1.0790    0.7420   -0.4260 O   0  0  0  0  0  0  0  0  0  0  0  0
   -0.2070   -1.3930   -0.2030 N   0  0  0  0  0  0  0  0  0  0  0  0
    1.1360   -1.0660   -0.4460 C   0  0  0  0  0  0  0  0  0  0  0  0
    2.0320   -2.1460   -0.5290 C   0  0  0  0  0  0  0  0  0  0  0  0
    3.3770   -1.9680   -0.7550 C   0  0  0  0  0  0  0  0  0  0  0  0
    3.8930   -0.6880   -0.9110 C   0  0  0  0  0  0  0  0  0  0  0  0
    3.0380    0.3730   -0.8330 C   0  0  0  0  0  0  0  0  0  0  0  0
    1.6680    0.1670   -0.6010 C   0  0  0  0  0  0  0  0  0  0  0  0
    3.5570    1.6520   -0.9890 O   0  0  0  0  0  0  0  0  0  0  0  0
    4.8500    1.7810   -1.5990 C   0  0  0  0  0  0  0  0  0  0  0  0
    5.7680    0.8160   -0.8500 C   0  0  1  0  0  0  0  0  0  0  0  0
    7.0820    0.9270   -1.2600 O   0  0  0  0  0  0  0  0  0  0  0  0
    5.6400    1.0730    0.6130 C   0  0  0  0  0  0  0  0  0  0  0  0
    6.5540    0.1620    1.3970 C   0  0  1  0  0  0  0  0  0  0  0  0
    6.2920   -1.1720    1.2070 O   0  0  0  0  0  0  0  0  0  0  0  0
    7.9360    0.5890    1.1050 C   0  0  0  0  0  0  0  0  0  0  0  0
    8.9000   -0.2130    0.7550 C   0  0  0  0  0  0  0  0  0  0  0  0
    8.7460   -1.5700    0.6150 O   0  0  0  0  0  0  0  0  0  0  0  0
    8.2050    1.9620    1.2240 O   0  0  0  0  0  0  0  0  0  0  0  0
    9.1670    2.4050    2.0990 N   0  0  0  0  0  0  0  0  0  0  0  0
    9.6920    3.5500    1.5670 O   0  0  0  0  0  0  0  0  0  0  0  0
    5.2380   -0.4750   -1.1400 O   0  0  0  0  0  0  0  0  0  0  0  0
   -3.9090    0.5150   -1.3560 C   0  0  0  0  0  0  0  0  0  0  0  0
   -4.6150   -0.6750   -1.9190 C   0  0  0  0  0  0  0  0  0  0  0  0
   -4.6100   -0.8640   -3.1590 O   0  0  0  0  0  0  0  0  0  0  0  0
   -5.2420   -1.5060   -1.0010 O   0  0  0  0  0  0  0  0  0  0  0  0
  2  1  1  1
  2  3  1  0
  2  8  1  0
  2 37  1  0
  3  4  1  0
  4  5  1  1
  4  6  1  0
  6  7  1  0
  8  9  1  0
  9 10  1  6
  9 34  1  0
 10 11  1  0
 11 12  2  0
 11 13  1  0
 13 14  1  0
 14 15  2  0
 14 19  1  0
 15 16  1  0
 16 17  2  0
 17 18  1  0
 17 33  1  0
 18 19  2  0
 18 20  1  0
 20 21  1  0
 21 22  1  0
 22 23  1  6
 22 24  1  0
 22 33  1  0
 24 25  1  0
 25 26  1  6
 25 27  1  0
 27 28  2  3
 27 30  1  0
 28 29  1  0
 30 31  1  0
 31 32  1  0
 34 35  1  0
 35 36  2  0
 35 37  1  0
M  CHG  2   9   1  32  -1
M  END
