
     RDKit          3D

 38 41  0  0  0  0  0  0  0  0999 V2000
    1.8650   -1.0230   -1.8610 C   0  0  0  0  0  0  0  0  0  0  0  0
    2.7480   -1.3590   -0.6400 C   0  0  2  0  0  0  0  0  0  0  0  0
    1.8780   -1.5050    0.5680 C   0  0  0  0  0  0  0  0  0  0  0  0
    1.1440   -0.2980    0.9560 C   0  0  0  0  0  0  0  0  0  0  0  0
    1.3890    0.8660    0.3400 N   0  0  0  0  0  0  0  0  0  0  0  0
    0.8050    1.9940    0.6720 N   0  0  0  0  0  0  0  0  0  0  0  0
   -0.0930    2.0590    1.6690 C   0  0  0  0  0  0  0  0  0  0  0  0
   -0.6260    3.1470    1.9610 O   0  0  0  0  0  0  0  0  0  0  0  0
   -0.3780    0.8870    2.3270 C   0  0  0  0  0  0  0  0  0  0  0  0
   -1.3500    0.9260    3.4690 C   0  0  0  0  0  0  0  0  0  0  0  0
   -2.8730    1.7410    2.8930 S   0  0  0  0  0  0  0  0  0  0  0  0
   -3.8250    1.7020    4.0860 O   0  0  0  0  0  0  0  0  0  0  0  0
   -3.5250    0.8320    1.5240 C   0  0  0  0  0  0  0  0  0  0  0  0
   -3.8200    1.3850    0.3600 N   0  0  0  0  0  0  0  0  0  0  0  0
   -4.3060    0.4210   -0.5050 N   0  0  0  0  0  0  0  0  0  0  0  0
   -4.3330   -0.8250    0.1950 C   0  0  2  0  0  0  0  0  0  0  0  0
   -5.5970   -1.4570    0.2340 N   0  0  0  0  0  0  0  0  0  0  0  0
   -6.7040   -0.7820    0.7840 C   0  0  0  0  0  0  0  0  0  0  0  0
   -7.2420    0.3940    0.0550 C   0  0  1  0  0  0  0  0  0  0  0  0
   -7.5900    0.2190   -1.3680 C   0  0  0  0  0  0  0  0  0  0  0  0
   -8.9760   -0.3160   -1.5140 C   0  0  0  0  0  0  0  0  0  0  0  0
   -9.6750    0.0640    0.0930 S   0  0  1  0  0  0  0  0  0  0  0  0
  -10.8720    0.9490   -0.0370 O   0  0  0  0  0  0  0  0  0  0  0  0
   -9.9700   -1.1800    0.8560 O   0  0  0  0  0  0  0  0  0  0  0  0
   -8.3440    0.8900    0.7570 O   0  0  0  0  0  0  0  0  0  0  0  0
   -3.7800   -0.5550    1.4750 N   0  0  0  0  0  0  0  0  0  0  0  0
    0.2340   -0.2470    1.9620 N   0  0  0  0  0  0  0  0  0  0  0  0
    3.7490   -0.3430   -0.4880 N   0  0  0  0  0  0  0  0  0  0  0  0
    5.1340   -0.6020   -0.7630 C   0  0  0  0  0  0  0  0  0  0  0  0
    5.4320   -1.7400   -1.1260 O   0  0  0  0  0  0  0  0  0  0  0  0
    6.0780    0.4380   -0.6100 N   0  0  0  0  0  0  0  0  0  0  0  0
    7.4570    0.3060   -0.8480 C   0  0  0  0  0  0  0  0  0  0  0  0
    8.0690   -0.8530   -1.2100 C   0  0  0  0  0  0  0  0  0  0  0  0
    9.4560   -0.9360   -1.4400 C   0  0  0  0  0  0  0  0  0  0  0  0
   10.2380    0.1850   -1.2980 C   0  0  0  0  0  0  0  0  0  0  0  0
   11.6530    0.1520   -1.5200 N   0  0  0  0  0  0  0  0  0  0  0  0
    9.6180    1.3750   -0.9270 C   0  0  0  0  0  0  0  0  0  0  0  0
    8.2800    1.4300   -0.7120 C   0  0  0  0  0  0  0  0  0  0  0  0
  2  1  1  6
  2  3  1  0
  2 28  1  0
  3  4  1  0
  4  5  2  0
  4 27  1  0
  5  6  1  0
  6  7  1  0
  7  8  2  0
  7  9  1  0
  9 10  1  0
  9 27  2  0
 11 10  1  1
 11 12  2  0
 11 13  1  0
 13 14  2  0
 13 26  1  0
 14 15  1  0
 15 16  1  0
 16 17  1  1
 16 26  1  0
 17 18  1  0
 19 18  1  1
 19 20  1  0
 19 25  1  0
 20 21  1  0
 22 21  1  6
 22 23  2  0
 22 24  2  0
 22 25  1  0
 28 29  1  0
 29 30  2  0
 29 31  1  0
 31 32  1  0
 32 33  2  0
 32 38  1  0
 33 34  1  0
 34 35  2  0
 35 36  1  0
 35 37  1  0
 37 38  2  0
M  END
