
     RDKit          3D

 38 42  0  0  0  0  0  0  0  0999 V2000
   12.2020    1.5860   -0.9420 C   0  0  0  0  0  0  0  0  0  0  0  0
   11.3680    0.6960   -1.7330 N   0  0  0  0  0  0  0  0  0  0  0  0
    9.9930    0.5090   -1.4640 C   0  0  0  0  0  0  0  0  0  0  0  0
    9.2590   -0.3400   -2.2530 C   0  0  0  0  0  0  0  0  0  0  0  0
    7.9030   -0.5150   -1.9770 C   0  0  0  0  0  0  0  0  0  0  0  0
    7.2930    0.1570   -0.9190 C   0  0  0  0  0  0  0  0  0  0  0  0
    5.9240   -0.0810   -0.7160 N   0  0  0  0  0  0  0  0  0  0  0  0
    5.1040    0.5150    0.2730 C   0  0  0  0  0  0  0  0  0  0  0  0
    5.5810    1.3440    1.0800 O   0  0  0  0  0  0  0  0  0  0  0  0
    3.6670    0.1540    0.3510 C   0  0  0  0  0  0  0  0  0  0  0  0
    2.9900   -0.7340   -0.4480 C   0  0  0  0  0  0  0  0  0  0  0  0
    1.7150   -0.7880   -0.0780 N   0  0  0  0  0  0  0  0  0  0  0  0
    1.5480    0.0540    0.9540 C   0  0  0  0  0  0  0  0  0  0  0  0
    0.4220    0.3840    1.7090 N   0  0  0  0  0  0  0  0  0  0  0  0
   -0.6380   -0.2220    1.9230 C   0  0  0  0  0  0  0  0  0  0  0  0
   -1.1240   -1.4630    1.4990 N   0  0  0  0  0  0  0  0  0  0  0  0
   -2.5230   -1.5990    1.4980 C   0  0  0  0  0  0  0  0  0  0  0  0
   -3.1090   -2.6820    1.1400 O   0  0  0  0  0  0  0  0  0  0  0  0
   -3.2740   -0.4430    1.9290 C   0  0  0  0  0  0  0  0  0  0  0  0
   -4.4650    0.0400    1.7420 C   0  0  0  0  0  0  0  0  0  0  0  0
   -5.5450   -0.4860    0.9460 C   0  0  0  0  0  0  0  0  0  0  0  0
   -5.3310   -1.6850    0.2110 N   0  0  0  0  0  0  0  0  0  0  0  0
   -6.7120    0.1310    0.8630 C   0  0  0  0  0  0  0  0  0  0  0  0
   -7.0730    1.3680    1.5170 C   0  0  0  0  0  0  0  0  0  0  0  0
   -6.2690    2.2750    1.7690 O   0  0  0  0  0  0  0  0  0  0  0  0
   -8.4440    1.5400    1.8860 N   0  0  0  0  0  0  0  0  0  0  0  0
   -9.4550    0.8560    1.1450 N   0  0  0  0  0  0  0  0  0  0  0  0
   -8.8940    0.4770   -0.1240 C   0  0  2  0  0  0  0  0  0  0  0  0
   -9.8600   -0.0980   -0.9090 O   0  0  0  0  0  0  0  0  0  0  0  0
   -8.9120   -0.6170   -2.2290 S   0  0  1  0  0  0  0  0  0  0  0  0
   -9.3390   -1.9470   -2.7160 O   0  0  0  0  0  0  0  0  0  0  0  0
   -8.8330    0.4130   -3.2890 O   0  0  0  0  0  0  0  0  0  0  0  0
   -7.3360   -0.8030   -1.3690 C   0  0  0  0  0  0  0  0  0  0  0  0
   -7.7800   -0.5130    0.0440 C   0  0  1  0  0  0  0  0  0  0  0  0
   -1.9890    0.4210    2.9480 S   0  0  0  0  0  0  0  0  0  0  0  0
    2.7640    0.6320    1.2130 N   0  0  0  0  0  0  0  0  0  0  0  0
    8.0730    0.9790   -0.1810 C   0  0  0  0  0  0  0  0  0  0  0  0
    9.4040    1.1480   -0.4550 N   0  0  0  0  0  0  0  0  0  0  0  0
  1  2  1  0
  2  3  1  0
  3  4  2  0
  3 38  1  0
  4  5  1  0
  5  6  2  0
  6  7  1  0
  6 37  1  0
  7  8  1  0
  8  9  2  0
  8 10  1  0
 10 11  2  0
 10 36  1  0
 11 12  1  0
 12 13  1  0
 13 14  1  0
 13 36  2  0
 14 15  2  3
 15 16  1  0
 15 35  1  0
 16 17  1  0
 17 18  2  0
 17 19  1  0
 19 20  2  3
 19 35  1  0
 20 21  1  0
 21 22  1  0
 21 23  2  3
 23 24  1  0
 23 34  1  0
 24 25  2  0
 24 26  1  0
 26 27  1  0
 28 27  1  1
 28 29  1  0
 28 34  1  0
 29 30  1  0
 30 31  2  0
 30 32  2  0
 30 33  1  1
 34 33  1  6
 37 38  2  0
M  CHG  1  36   1
M  END
