
     RDKit          3D

 37 38  0  0  0  0  0  0  0  0999 V2000
   -1.1880    5.7690   -0.0180 C   0  0  0  0  0  0  0  0  0  0  0  0
   -1.3540    4.9630    1.0660 O   0  0  0  0  0  0  0  0  0  0  0  0
   -0.4130    3.9040    1.0480 C   0  0  0  0  0  0  0  0  0  0  0  0
   -0.5190    3.0340   -0.1360 C   0  0  0  0  0  0  0  0  0  0  0  0
    0.4690    1.9530   -0.2100 C   0  0  0  0  0  0  0  0  0  0  0  0
    0.5780    0.9130    0.8220 C   0  0  1  0  0  0  0  0  0  0  0  0
    0.9640    1.4370    2.1930 C   0  0  0  0  0  0  0  0  0  0  0  0
   -0.7710    0.3040    1.0020 C   0  0  0  0  0  0  0  0  0  0  0  0
   -1.2430    0.2460    2.1910 O   0  0  0  0  0  0  0  0  0  0  0  0
   -1.5780   -0.2080    0.0350 O   0  0  0  0  0  0  0  0  0  0  0  0
   -2.8280   -0.7570    0.3160 C   0  0  2  0  0  0  0  0  0  0  0  0
   -2.9190   -2.2270   -0.0340 C   0  0  0  0  0  0  0  0  0  0  0  0
   -4.1720   -2.7680    0.6270 C   0  0  0  0  0  0  0  0  0  0  0  0
   -5.1240   -1.7650    0.7240 O   0  0  0  0  0  0  0  0  0  0  0  0
   -5.1400   -0.9630   -0.4350 C   0  0  1  0  0  0  0  0  0  0  0  0
   -6.4340   -0.1550   -0.3510 C   0  0  0  0  0  0  0  0  0  0  0  0
   -7.5200   -1.1000   -0.3180 N   0  0  0  0  0  0  0  0  0  0  0  0
   -8.3890   -1.0890   -1.1970 O   0  0  0  0  0  0  0  0  0  0  0  0
   -7.5950   -2.0160    0.6890 O   0  0  0  0  0  0  0  0  0  0  0  0
   -3.9660   -0.0090   -0.3420 C   0  0  2  0  0  0  0  0  0  0  0  0
   -3.6110    0.5800   -1.5940 N   0  0  0  0  0  0  0  0  0  0  0  0
    1.5350   -0.2300    0.4910 C   0  0  1  0  0  0  0  0  0  0  0  0
    1.3920   -1.0900    1.5870 O   0  0  0  0  0  0  0  0  0  0  0  0
    1.3120   -0.8710   -0.8330 C   0  0  0  0  0  0  0  0  0  0  0  0
    2.2310   -0.5680   -1.8800 N   0  0  0  0  0  0  0  0  0  0  0  0
    3.1660   -1.3560   -2.5960 C   0  0  0  0  0  0  0  0  0  0  0  0
    2.8450   -1.6160   -3.8530 O   0  0  0  0  0  0  0  0  0  0  0  0
    4.3600   -1.8710   -2.1180 O   0  0  0  0  0  0  0  0  0  0  0  0
    5.5370   -1.2250   -1.7650 C   0  0  0  0  0  0  0  0  0  0  0  0
    6.5380   -2.1040   -1.1250 C   0  0  0  0  0  0  0  0  0  0  0  0
    6.3080   -3.0630   -0.2560 C   0  0  0  0  0  0  0  0  0  0  0  0
    5.1060   -3.4740    0.2580 O   0  0  0  0  0  0  0  0  0  0  0  0
    4.1270   -2.7320    0.9070 C   0  0  0  0  0  0  0  0  0  0  0  0
    4.5570   -1.4570    1.5340 C   0  0  0  0  0  0  0  0  0  0  0  0
    3.8270   -0.3300    1.3660 O   0  0  0  0  0  0  0  0  0  0  0  0
    2.9570    0.2240    0.5190 C   0  0  0  0  0  0  0  0  0  0  0  0
    3.2880    1.1350   -0.2740 O   0  0  0  0  0  0  0  0  0  0  0  0
  1  2  1  0
  2  3  1  0
  3  4  1  0
  4  5  1  0
  5  6  1  0
  6  7  1  1
  6  8  1  0
  6 22  1  0
  8  9  2  0
  8 10  1  0
 11 10  1  6
 11 12  1  0
 11 20  1  0
 12 13  1  0
 13 14  1  0
 14 15  1  0
 15 16  1  1
 15 20  1  0
 16 17  1  0
 17 18  2  0
 17 19  1  0
 20 21  1  6
 22 23  1  1
 22 24  1  0
 22 36  1  0
 24 25  1  0
 25 26  1  0
 26 27  2  0
 26 28  1  0
 28 29  1  0
 29 30  1  0
 30 31  2  0
 31 32  1  0
 32 33  1  0
 33 34  1  0
 34 35  1  0
 35 36  1  0
 36 37  2  0
M  CHG  2  17   1  19  -1
M  END
