
     RDKit          3D

 37 38  0  0  0  0  0  0  0  0999 V2000
   -2.5230    1.6940    1.1060 C   0  0  0  0  0  0  0  0  0  0  0  0
   -2.3330    1.0030   -0.1930 C   0  0  2  0  0  0  0  0  0  0  0  0
   -3.4700    0.1510   -0.6610 C   0  0  0  0  0  0  0  0  0  0  0  0
   -4.7710    0.3540    0.0090 C   0  0  1  0  0  0  0  0  0  0  0  0
   -5.8760    0.5670   -0.8120 O   0  0  0  0  0  0  0  0  0  0  0  0
   -6.6270    1.7030   -0.7410 C   0  0  0  0  0  0  0  0  0  0  0  0
   -6.2720    2.5370    0.0930 O   0  0  0  0  0  0  0  0  0  0  0  0
   -7.8190    1.9950   -1.5830 C   0  0  0  0  0  0  0  0  0  0  0  0
   -9.0280    1.7390   -0.6700 C   0  0  0  0  0  0  0  0  0  0  0  0
  -10.2260    1.9600   -1.3040 O   0  0  0  0  0  0  0  0  0  0  0  0
   -5.1530   -0.7710    0.9790 C   0  0  0  0  0  0  0  0  0  0  0  0
   -4.6330   -2.1090    0.6080 C   0  0  0  0  0  0  0  0  0  0  0  0
   -3.4510   -2.4550    1.2600 O   0  0  0  0  0  0  0  0  0  0  0  0
   -3.0010   -3.6440    0.6950 C   0  0  0  0  0  0  0  0  0  0  0  0
   -1.6650   -4.0690    1.3060 C   0  0  1  0  0  0  0  0  0  0  0  0
   -0.8690   -4.6690    0.3330 O   0  0  0  0  0  0  0  0  0  0  0  0
   -0.9640   -2.8050    1.7510 C   0  0  0  0  0  0  0  0  0  0  0  0
   -0.9820   -1.9080    0.7150 O   0  0  0  0  0  0  0  0  0  0  0  0
   -0.9820   -0.6210    1.0420 N   0  0  1  0  0  0  0  0  0  0  0  0
    0.1630   -0.3150    1.6920 O   0  0  0  0  0  0  0  0  0  0  0  0
   -1.0370    0.1970   -0.1580 C   0  0  2  0  0  0  0  0  0  0  0  0
    0.1570    1.0760   -0.3070 C   0  0  0  0  0  0  0  0  0  0  0  0
    1.3580    0.2790   -0.2940 N   0  0  0  0  0  0  0  0  0  0  0  0
    2.6660    0.8560   -0.3940 C   0  0  0  0  0  0  0  0  0  0  0  0
    2.7760    2.0970   -0.4950 O   0  0  0  0  0  0  0  0  0  0  0  0
    3.8110    0.0230   -0.3750 N   0  0  0  0  0  0  0  0  0  0  0  0
    5.1330    0.5200   -0.4640 C   0  0  0  0  0  0  0  0  0  0  0  0
    5.5920    1.8060   -0.5760 C   0  0  0  0  0  0  0  0  0  0  0  0
    6.9860    1.7090   -0.6240 C   0  0  0  0  0  0  0  0  0  0  0  0
    7.2950    0.3860   -0.5410 C   0  0  0  0  0  0  0  0  0  0  0  0
    8.6620   -0.1640   -0.5570 C   0  0  0  0  0  0  0  0  0  0  0  0
    8.8560   -1.4150   -0.4780 O   0  0  0  0  0  0  0  0  0  0  0  0
    9.7630    0.6700   -0.6580 O   0  0  0  0  0  0  0  0  0  0  0  0
   11.0850    0.2250   -0.6780 C   0  0  0  0  0  0  0  0  0  0  0  0
   11.9650    1.4760   -0.7970 C   0  0  0  0  0  0  0  0  0  0  0  0
   11.6460    2.1580   -1.9810 O   0  0  0  0  0  0  0  0  0  0  0  0
    6.1920   -0.2920   -0.4480 O   0  0  0  0  0  0  0  0  0  0  0  0
  2  1  1  1
  2  3  1  0
  2 21  1  0
  3  4  1  0
  4  5  1  6
  4 11  1  0
  5  6  1  0
  6  7  2  0
  6  8  1  0
  8  9  1  0
  9 10  1  0
 11 12  1  0
 12 13  1  0
 13 14  1  0
 14 15  1  0
 15 16  1  6
 15 17  1  0
 17 18  1  0
 18 19  1  0
 19 20  1  6
 19 21  1  0
 21 22  1  1
 22 23  1  0
 23 24  1  0
 24 25  2  0
 24 26  1  0
 26 27  1  0
 27 28  2  0
 27 37  1  0
 28 29  1  0
 29 30  2  0
 30 31  1  0
 30 37  1  0
 31 32  2  0
 31 33  1  0
 33 34  1  0
 34 35  1  0
 35 36  1  0
M  CHG  2  19   1  20  -1
M  END
