
     RDKit          3D

 38 41  0  0  0  0  0  0  0  0999 V2000
    2.7650    1.9590    0.8600 C   0  0  0  0  0  0  0  0  0  0  0  0
    2.8760    0.7620   -0.0940 C   0  0  1  0  0  0  0  0  0  0  0  0
    4.3710    0.5560   -0.3320 C   0  0  0  0  0  0  0  0  0  0  0  0
    5.5320    1.1830   -0.5200 N   0  0  0  0  0  0  0  0  0  0  0  0
    6.5400    0.3110   -0.6660 C   0  0  0  0  0  0  0  0  0  0  0  0
    7.8920    0.3800   -0.8730 C   0  0  0  0  0  0  0  0  0  0  0  0
    8.4000    1.5260   -0.9660 O   0  0  0  0  0  0  0  0  0  0  0  0
    8.6940   -0.6920   -0.9810 N   0  0  0  0  0  0  0  0  0  0  0  0
   10.1360   -0.5060   -1.2020 C   0  0  0  0  0  0  0  0  0  0  0  0
    8.1400   -1.8870   -0.8810 N   0  0  0  0  0  0  0  0  0  0  0  0
    6.8120   -2.0620   -0.6760 C   0  0  0  0  0  0  0  0  0  0  0  0
    5.9850   -0.9630   -0.5650 C   0  0  0  0  0  0  0  0  0  0  0  0
    4.6090   -0.7840   -0.3530 C   0  0  0  0  0  0  0  0  0  0  0  0
    3.3810   -1.5790   -0.1510 C   0  0  0  0  0  0  0  0  0  0  0  0
    2.4430   -0.5150    0.4860 C   0  0  1  0  0  0  0  0  0  0  0  0
    2.8200   -0.6000    1.9870 C   0  0  0  0  0  0  0  0  0  0  0  0
    1.0480   -0.9780    0.3750 C   0  0  0  0  0  0  0  0  0  0  0  0
    0.0470   -0.1540    0.9330 N   0  0  0  0  0  0  0  0  0  0  0  0
   -0.3790    1.0950    0.4510 C   0  0  0  0  0  0  0  0  0  0  0  0
    0.0580    1.6360   -0.5770 O   0  0  0  0  0  0  0  0  0  0  0  0
   -1.4330    1.8140    1.2530 C   0  0  0  0  0  0  0  0  0  0  0  0
   -2.7490    0.6440    1.6160 S   0  0  0  0  0  0  0  0  0  0  0  0
   -3.6000    0.2370    0.0980 C   0  0  0  0  0  0  0  0  0  0  0  0
   -3.3300    0.6480   -1.1210 N   0  0  0  0  0  0  0  0  0  0  0  0
   -4.2690    0.0690   -2.0090 N   0  0  0  0  0  0  0  0  0  0  0  0
   -5.4540   -0.1750   -1.1570 C   0  0  2  0  0  0  0  0  0  0  0  0
   -6.0740    1.1050   -0.9070 N   0  0  0  0  0  0  0  0  0  0  0  0
   -7.4340    1.4140   -1.1020 C   0  0  0  0  0  0  0  0  0  0  0  0
   -8.2010    0.4960   -1.5310 O   0  0  0  0  0  0  0  0  0  0  0  0
   -7.9780    2.7110   -0.8380 N   0  0  0  0  0  0  0  0  0  0  0  0
   -9.6440    3.0830   -1.0810 S   0  0  1  0  0  0  0  0  0  0  0  0
  -10.4640    1.8270   -0.9310 O   0  0  0  0  0  0  0  0  0  0  0  0
  -10.1350    4.0940   -0.1040 O   0  0  0  0  0  0  0  0  0  0  0  0
   -4.7260   -0.6220    0.0470 N   0  0  0  0  0  0  0  0  0  0  0  0
   -5.1190   -1.6840    0.9050 C   0  0  0  0  0  0  0  0  0  0  0  0
   -5.0070   -3.0190    0.2620 C   0  0  0  0  0  0  0  0  0  0  0  0
   -5.3880   -4.1730    1.0210 N   0  0  0  0  0  0  0  0  0  0  0  0
   -4.5890   -3.0940   -0.9090 O   0  0  0  0  0  0  0  0  0  0  0  0
  2  1  1  1
  2  3  1  0
  2 15  1  0
  3  4  1  0
  3 13  2  0
  4  5  1  0
  5  6  1  0
  5 12  2  0
  6  7  2  0
  6  8  1  0
  8  9  1  0
  8 10  1  0
 10 11  2  0
 11 12  1  0
 12 13  1  0
 13 14  1  0
 14 15  1  0
 15 16  1  1
 15 17  1  0
 17 18  1  0
 18 19  1  0
 19 20  2  0
 19 21  1  0
 21 22  1  0
 22 23  1  0
 23 24  2  0
 23 34  1  0
 24 25  1  0
 25 26  1  0
 26 27  1  1
 26 34  1  0
 27 28  1  0
 28 29  2  0
 28 30  1  0
 31 30  1  1
 31 32  2  0
 31 33  2  0
 34 35  1  0
 35 36  1  0
 36 37  1  0
 36 38  2  0
M  END
