
     RDKit          3D

 38 41  0  0  0  0  0  0  0  0999 V2000
   -4.0450   -7.2520    0.4800 C   0  0  0  0  0  0  0  0  0  0  0  0
   -3.8900   -5.8490   -0.0360 C   0  0  0  0  0  0  0  0  0  0  0  0
   -2.8790   -5.1040   -0.1740 C   0  0  0  0  0  0  0  0  0  0  0  0
   -3.1260   -3.7150   -0.7460 C   0  0  0  0  0  0  0  0  0  0  0  0
   -2.1970   -2.8550   -0.8990 C   0  0  0  0  0  0  0  0  0  0  0  0
   -0.8250   -3.0210   -0.5840 N   0  0  0  0  0  0  0  0  0  0  0  0
   -0.2000   -2.2360    0.4070 C   0  0  0  0  0  0  0  0  0  0  0  0
   -0.9720   -1.3880    0.9850 O   0  0  0  0  0  0  0  0  0  0  0  0
    1.2030   -2.3290    0.7890 C   0  0  0  0  0  0  0  0  0  0  0  0
    1.9610   -3.1600    0.2420 O   0  0  0  0  0  0  0  0  0  0  0  0
    1.7440   -1.4840    1.7800 N   0  0  0  0  0  0  0  0  0  0  0  0
    3.0860   -1.4500    2.2590 C   0  0  0  0  0  0  0  0  0  0  0  0
    4.0550   -2.2290    1.9380 C   0  0  0  0  0  0  0  0  0  0  0  0
    5.3180   -2.0050    2.5490 N   0  0  0  0  0  0  0  0  0  0  0  0
    4.8960   -1.1270    4.0080 S   0  0  0  0  0  0  0  0  0  0  0  0
    5.9190   -0.1260    4.4280 O   0  0  0  0  0  0  0  0  0  0  0  0
    3.4450   -0.3320    3.2370 C   0  0  1  0  0  0  0  0  0  0  0  0
    3.8040    0.7560    2.4240 N   0  0  0  0  0  0  0  0  0  0  0  0
    2.9720    2.2090    2.5210 S   0  0  1  0  0  0  0  0  0  0  0  0
    2.5680    2.5250    3.9300 O   0  0  0  0  0  0  0  0  0  0  0  0
    3.7700    3.3680    1.8960 O   0  0  0  0  0  0  0  0  0  0  0  0
    1.5480    2.0920    1.5440 N   0  0  0  0  0  0  0  0  0  0  0  0
    0.3760    1.9580    2.3480 C   0  0  0  0  0  0  0  0  0  0  0  0
   -2.5370   -1.5190   -1.4620 C   0  0  0  0  0  0  0  0  0  0  0  0
   -1.6860   -0.4690   -1.5900 N   0  0  0  0  0  0  0  0  0  0  0  0
   -2.4190    0.4970   -2.1480 C   0  0  0  0  0  0  0  0  0  0  0  0
   -1.9940    1.8510   -2.4660 C   0  0  0  0  0  0  0  0  0  0  0  0
   -2.8790    2.6990   -3.0360 N   0  0  0  0  0  0  0  0  0  0  0  0
   -2.4490    3.9320   -3.3020 C   0  0  0  0  0  0  0  0  0  0  0  0
   -1.1690    4.3630   -3.0240 C   0  0  0  0  0  0  0  0  0  0  0  0
   -0.2860    3.4500   -2.4310 C   0  0  0  0  0  0  0  0  0  0  0  0
   -0.7390    2.2340   -2.1790 N   0  0  0  0  0  0  0  0  0  0  0  0
    0.9880    4.1510   -2.2190 C   0  0  2  0  0  0  0  0  0  0  0  0
    1.0280    4.7760   -0.9640 O   0  0  0  0  0  0  0  0  0  0  0  0
    0.9560    5.2110   -3.3300 C   0  0  0  0  0  0  0  0  0  0  0  0
   -0.4780    5.6540   -3.2480 C   0  0  0  0  0  0  0  0  0  0  0  0
   -3.6840    0.0470   -2.3570 N   0  0  0  0  0  0  0  0  0  0  0  0
   -3.7490   -1.2180   -1.9220 N   0  0  0  0  0  0  0  0  0  0  0  0
  1  2  1  0
  2  3  2  3
  3  4  1  0
  4  5  2  3
  5  6  1  0
  5 24  1  0
  6  7  1  0
  7  8  2  0
  7  9  1  0
  9 10  2  0
  9 11  1  0
 11 12  1  0
 12 13  2  0
 12 17  1  0
 13 14  1  0
 15 14  1  6
 15 16  2  0
 15 17  1  0
 17 18  1  6
 19 18  1  1
 19 20  2  0
 19 21  2  0
 19 22  1  0
 22 23  1  0
 24 25  2  0
 24 38  1  0
 25 26  1  0
 26 27  1  0
 26 37  2  0
 27 28  2  0
 27 32  1  0
 28 29  1  0
 29 30  2  0
 30 31  1  0
 30 36  1  0
 31 32  2  0
 31 33  1  0
 33 34  1  1
 33 35  1  0
 35 36  1  0
 37 38  1  0
M  END
