
     RDKit          3D

 38 41  0  0  0  0  0  0  0  0999 V2000
    6.8050    1.5690    1.1410 C   0  0  0  0  0  0  0  0  0  0  0  0
    7.3750    0.3090    0.6250 C   0  0  1  0  0  0  0  0  0  0  0  0
    8.1660   -0.3670    1.5540 O   0  0  0  0  0  0  0  0  0  0  0  0
    8.4660   -1.5700    0.9770 C   0  0  0  0  0  0  0  0  0  0  0  0
    7.3320   -1.9460    0.0640 C   0  0  0  0  0  0  0  0  0  0  0  0
    6.3850   -0.7580    0.2320 C   0  0  1  0  0  0  0  0  0  0  0  0
    5.2080   -1.1900    1.4990 S   0  0  0  0  0  0  0  0  0  0  0  0
    3.9800    0.0370    1.8900 C   0  0  0  0  0  0  0  0  0  0  0  0
    3.0020    0.2690    0.8200 C   0  0  0  0  0  0  0  0  0  0  0  0
    3.0660    1.1680   -0.1960 C   0  0  0  0  0  0  0  0  0  0  0  0
    1.8890    0.9860   -0.9370 C   0  0  0  0  0  0  0  0  0  0  0  0
    1.1960   -0.0060   -0.3210 C   0  0  0  0  0  0  0  0  0  0  0  0
   -0.1490   -0.5650   -0.7500 C   0  0  1  0  0  0  0  0  0  0  0  0
   -0.3530   -1.8820   -0.1430 C   0  0  0  0  0  0  0  0  0  0  0  0
   -1.6100   -2.5460   -0.3710 N   0  0  0  0  0  0  0  0  0  0  0  0
   -2.8300   -2.1030    0.1910 C   0  0  0  0  0  0  0  0  0  0  0  0
   -2.8390   -1.0830    0.9760 O   0  0  0  0  0  0  0  0  0  0  0  0
   -4.1050   -2.7080   -0.0470 C   0  0  0  0  0  0  0  0  0  0  0  0
   -5.1500   -2.1960    0.5800 N   0  0  0  0  0  0  0  0  0  0  0  0
   -6.4810   -2.6430    0.4850 N   0  0  0  0  0  0  0  0  0  0  0  0
   -6.9880   -3.7210   -0.3260 C   0  0  0  0  0  0  0  0  0  0  0  0
   -6.2850   -4.9590   -0.1670 N   0  0  0  0  0  0  0  0  0  0  0  0
   -5.0680   -4.9470   -0.8650 N   0  0  0  0  0  0  0  0  0  0  0  0
   -4.1700   -3.8150   -0.9770 C   0  0  0  0  0  0  0  0  0  0  0  0
   -3.4010   -3.8130   -1.9660 O   0  0  0  0  0  0  0  0  0  0  0  0
   -1.2250    0.3340   -0.7450 N   0  0  0  0  0  0  0  0  0  0  0  0
   -1.2410    1.7060   -0.3600 C   0  0  0  0  0  0  0  0  0  0  0  0
   -0.2090    2.2420    0.0530 O   0  0  0  0  0  0  0  0  0  0  0  0
   -2.4150    2.5140   -0.4270 N   0  0  0  0  0  0  0  0  0  0  0  0
   -2.3920    3.9120   -0.0250 C   0  0  0  0  0  0  0  0  0  0  0  0
   -3.7070    4.4810   -0.1930 N   0  0  0  0  0  0  0  0  0  0  0  0
   -4.6700    4.4960    0.7360 C   0  0  0  0  0  0  0  0  0  0  0  0
   -4.6670    4.0470    1.9080 O   0  0  0  0  0  0  0  0  0  0  0  0
   -5.7240    5.1170    0.1660 N   0  0  0  0  0  0  0  0  0  0  0  0
   -5.4140    5.4670   -1.0630 N   0  0  0  0  0  0  0  0  0  0  0  0
   -4.1490    5.0810   -1.3200 C   0  0  0  0  0  0  0  0  0  0  0  0
   -3.2710    5.2630   -2.6780 S   0  0  0  0  0  0  0  0  0  0  0  0
    1.8800   -0.3960    0.6980 O   0  0  0  0  0  0  0  0  0  0  0  0
  2  1  1  1
  2  3  1  0
  2  6  1  0
  3  4  1  0
  4  5  1  0
  5  6  1  0
  6  7  1  1
  7  8  1  0
  8  9  1  0
  9 10  2  0
  9 38  1  0
 10 11  1  0
 11 12  2  0
 12 13  1  0
 12 38  1  0
 13 14  1  1
 13 26  1  0
 14 15  1  0
 15 16  1  0
 16 17  2  0
 16 18  1  0
 18 19  2  0
 18 24  1  0
 19 20  1  0
 20 21  1  0
 21 22  1  0
 22 23  1  0
 23 24  1  0
 24 25  2  0
 26 27  1  0
 27 28  2  0
 27 29  1  0
 29 30  1  0
 30 31  1  0
 31 32  1  0
 31 36  1  0
 32 33  2  0
 32 34  1  0
 34 35  1  0
 35 36  1  0
 36 37  2  0
M  END
