
     RDKit          3D

 10  9  0  0  0  0  0  0  0  0999 V2000
   -1.2780    1.2750    0.1250 C   0  0  0  0  0  0  0  0  0  0  0  0
   -1.7050   -0.0200    0.6020 N   0  0  0  0  0  0  0  0  0  0  0  0
   -3.0620   -0.2050    0.0620 C   0  0  0  0  0  0  0  0  0  0  0  0
   -0.9360   -1.1280    0.1500 C   0  0  0  0  0  0  0  0  0  0  0  0
    0.4480   -1.1340    0.5070 N   0  0  0  0  0  0  0  0  0  0  0  0
    1.0240   -2.2830    0.0120 O   0  0  0  0  0  0  0  0  0  0  0  0
    1.3780    0.2180   -0.2190 P   0  0  0  0  0  0  0  0  0  0  0  0
    2.4860   -0.3110   -1.4270 O   0  0  0  0  0  0  0  0  0  0  0  0
    2.3390    1.1490    1.0720 C   0  0  0  0  0  0  0  0  0  0  0  0
    3.6760    1.2990    0.7060 O   0  0  0  0  0  0  0  0  0  0  0  0
  1  2  1  0
  2  3  1  0
  2  4  1  0
  4  5  1  0
  5  6  1  0
  5  7  1  0
  7  8  1  0
  7  9  1  0
  9 10  1  0
M  END
