
     RDKit          3D

 10 10  0  0  0  0  0  0  0  0999 V2000
    2.4990   -0.1290    0.3940 C   0  0  0  0  0  0  0  0  0  0  0  0
    1.3250   -0.5480   -0.3050 N   0  0  0  0  0  0  0  0  0  0  0  0
    0.2760    0.4220   -0.3870 C   0  0  2  0  0  0  0  0  0  0  0  0
    0.1670    1.0410   -1.6200 O   0  0  0  0  0  0  0  0  0  0  0  0
    0.2660    1.3430    0.6410 O   0  0  0  0  0  0  0  0  0  0  0  0
   -0.9660    1.9070    0.4840 N   0  0  0  0  0  0  0  0  0  0  0  0
   -1.8250    0.7460    0.5950 C   0  0  0  0  0  0  0  0  0  0  0  0
   -1.0320   -0.3190   -0.1410 C   0  0  2  0  0  0  0  0  0  0  0  0
   -0.8320   -1.5460    0.7160 C   0  0  0  0  0  0  0  0  0  0  0  0
   -1.6610   -0.6680   -1.3270 O   0  0  0  0  0  0  0  0  0  0  0  0
  1  2  1  0
  2  3  1  0
  3  4  1  6
  3  5  1  0
  3  8  1  0
  5  6  1  0
  6  7  1  0
  7  8  1  0
  8  9  1  1
  8 10  1  0
M  END
