
     RDKit          3D

 10 10  0  0  0  0  0  0  0  0999 V2000
    2.9520    1.0990    0.5860 O   0  0  0  0  0  0  0  0  0  0  0  0
    1.8590    0.8690   -0.2580 C   0  0  0  0  0  0  0  0  0  0  0  0
    0.9890   -0.0930    0.3350 N   0  0  0  0  0  0  0  0  0  0  0  0
    1.6910   -1.6750    0.6450 P   0  0  0  0  0  0  0  0  0  0  0  0
   -0.3640   -0.0720   -0.0780 C   0  0  2  0  0  0  0  0  0  0  0  0
   -0.6000   -0.4270   -1.3860 O   0  0  0  0  0  0  0  0  0  0  0  0
   -1.0390    1.2510    0.2920 C   0  0  0  0  0  0  0  0  0  0  0  0
   -2.4310    0.8120    0.1360 N   0  0  0  0  0  0  0  0  0  0  0  0
   -2.3550   -0.4400    0.8970 C   0  0  0  0  0  0  0  0  0  0  0  0
   -1.0900   -0.9420    0.7360 O   0  0  0  0  0  0  0  0  0  0  0  0
  1  2  1  0
  2  3  1  0
  3  4  1  0
  3  5  1  0
  5  6  1  6
  5  7  1  0
  5 10  1  0
  7  8  1  0
  8  9  1  0
  9 10  1  0
M  END
