
     RDKit          3D

 10  9  0  0  0  0  0  0  0  0999 V2000
   -0.2980   -1.8390    0.7780 N   0  0  0  0  0  0  0  0  0  0  0  0
   -0.6400   -0.4950    0.5630 C   0  0  0  0  0  0  0  0  0  0  0  0
   -1.8790   -0.1310    0.7640 C   0  0  0  0  0  0  0  0  0  0  0  0
   -3.4990    0.2160    0.6040 P   0  0  0  0  0  0  0  0  0  0  0  0
   -4.1920    0.0080   -0.9960 O   0  0  0  0  0  0  0  0  0  0  0  0
    0.3240    0.4810    0.1230 C   0  0  0  0  0  0  0  0  0  0  0  0
    0.0180    1.8160   -0.1000 O   0  0  0  0  0  0  0  0  0  0  0  0
    1.5690    0.1020   -0.0850 C   0  0  0  0  0  0  0  0  0  0  0  0
    1.9320   -1.2220    0.1220 O   0  0  0  0  0  0  0  0  0  0  0  0
    2.8290    1.2980   -0.6420 P   0  0  0  0  0  0  0  0  0  0  0  0
  1  2  1  0
  2  3  2  0
  2  6  1  0
  3  4  2  0
  4  5  1  0
  6  7  1  0
  6  8  2  3
  8  9  1  0
  8 10  1  0
M  END
