
     RDKit          3D

 25 27  0  0  0  0  0  0  0  0999 V2000
    7.5490   -0.0880    0.8850 C   0  0  0  0  0  0  0  0  0  0  0  0
    6.4080   -0.9230    1.4160 C   0  0  0  0  0  0  0  0  0  0  0  0
    5.4090   -0.9520    0.4420 O   0  0  0  0  0  0  0  0  0  0  0  0
    4.9650    0.3700    0.1710 C   0  0  2  0  0  0  0  0  0  0  0  0
    3.5390    0.3880    0.5300 C   0  0  0  0  0  0  0  0  0  0  0  0
    2.6230    0.7060   -0.3630 C   0  0  0  0  0  0  0  0  0  0  0  0
    1.2280    0.7150    0.0360 N   0  0  0  0  0  0  0  0  0  0  0  0
    0.3170   -0.1060   -0.6750 C   0  0  0  0  0  0  0  0  0  0  0  0
    0.7240   -0.8270   -1.6430 O   0  0  0  0  0  0  0  0  0  0  0  0
   -1.0970   -0.1590   -0.3370 C   0  0  0  0  0  0  0  0  0  0  0  0
   -1.5920    0.0680    0.9300 C   0  0  0  0  0  0  0  0  0  0  0  0
   -2.9650    0.0210    1.2020 C   0  0  0  0  0  0  0  0  0  0  0  0
   -3.8840   -0.2540    0.2150 C   0  0  0  0  0  0  0  0  0  0  0  0
   -5.2850   -0.3140    0.4280 N   0  0  0  0  0  0  0  0  0  0  0  0
   -6.1580    0.6350   -0.2410 C   0  0  0  0  0  0  0  0  0  0  0  0
   -7.5320    0.0290   -0.4320 C   0  0  0  0  0  0  0  0  0  0  0  0
   -8.0020   -0.5500    0.7450 O   0  0  0  0  0  0  0  0  0  0  0  0
   -7.2140   -1.5660    1.1190 O   0  0  0  0  0  0  0  0  0  0  0  0
   -5.8620   -1.2880    1.2900 C   0  0  0  0  0  0  0  0  0  0  0  0
   -5.1560   -1.8670    2.1690 O   0  0  0  0  0  0  0  0  0  0  0  0
   -3.3820   -0.4830   -1.0650 C   0  0  0  0  0  0  0  0  0  0  0  0
   -2.0290   -0.4360   -1.3320 C   0  0  0  0  0  0  0  0  0  0  0  0
    2.9470    0.9960   -1.7450 C   0  0  0  0  0  0  0  0  0  0  0  0
    4.2260    0.9240   -2.0810 C   0  0  0  0  0  0  0  0  0  0  0  0
    5.1810    0.5900   -1.1690 O   0  0  0  0  0  0  0  0  0  0  0  0
  1  2  1  0
  2  3  1  0
  4  3  1  6
  4  5  1  0
  4 25  1  0
  5  6  2  0
  6  7  1  0
  6 23  1  0
  7  8  1  0
  8  9  2  0
  8 10  1  0
 10 11  2  0
 10 22  1  0
 11 12  1  0
 12 13  2  0
 13 14  1  0
 13 21  1  0
 14 15  1  0
 14 19  1  0
 15 16  1  0
 16 17  1  0
 17 18  1  0
 18 19  1  0
 19 20  2  0
 21 22  2  0
 23 24  2  0
 24 25  1  0
M  END
