
     RDKit          3D

 10 11  0  0  0  0  0  0  0  0999 V2000
   -2.6890    0.3120   -0.8680 O   0  0  0  0  0  0  0  0  0  0  0  0
   -1.6380   -0.0230    0.0010 C   0  0  0  0  0  0  0  0  0  0  0  0
   -1.8690   -0.4420    1.2930 C   0  0  0  0  0  0  0  0  0  0  0  0
   -0.6560   -0.6700    1.8190 N   0  0  0  0  0  0  0  0  0  0  0  0
    0.3350   -0.4220    0.9440 C   0  0  0  0  0  0  0  0  0  0  0  0
    1.6750   -0.4720    0.9200 N   0  0  0  0  0  0  0  0  0  0  0  0
    2.1180    0.0460   -0.6990 P   0  0  0  0  0  0  0  0  0  0  0  0
    3.6220    0.5080   -1.3400 O   0  0  0  0  0  0  0  0  0  0  0  0
    0.5220    0.2950   -1.2390 O   0  0  0  0  0  0  0  0  0  0  0  0
   -0.2790    0.0040   -0.2570 C   0  0  0  0  0  0  0  0  0  0  0  0
  1  2  1  0
  2  3  1  0
  2 10  2  0
  3  4  2  0
  4  5  1  0
  5  6  2  0
  5 10  1  0
  6  7  1  0
  7  8  1  0
  7  9  1  0
  9 10  1  0
M  END
