
     RDKit          3D

 10 10  0  0  0  0  0  0  0  0999 V2000
   -3.5410    0.1560    0.0490 C   0  0  0  0  0  0  0  0  0  0  0  0
   -2.1200   -0.0800    0.5580 C   0  0  1  0  0  0  0  0  0  0  0  0
   -1.7690   -1.4440    0.1720 N   0  0  0  0  0  0  0  0  0  0  0  0
   -1.2590    0.8240   -0.0890 O   0  0  0  0  0  0  0  0  0  0  0  0
    0.0860    0.9170    0.1040 C   0  0  0  0  0  0  0  0  0  0  0  0
    0.9150    0.3950   -0.7800 C   0  0  0  0  0  0  0  0  0  0  0  0
    2.3290    0.4580   -0.6370 N   0  0  0  0  0  0  0  0  0  0  0  0
    3.2110    0.3810    0.4920 C   0  0  0  0  0  0  0  0  0  0  0  0
    4.6460    0.0050   -0.6230 P   0  0  0  0  0  0  0  0  0  0  0  0
    3.3140    0.6140   -1.5490 O   0  0  0  0  0  0  0  0  0  0  0  0
  2  1  1  6
  2  3  1  0
  2  4  1  0
  4  5  1  0
  5  6  2  3
  6  7  1  0
  7  8  1  0
  7 10  1  0
  8  9  1  0
  9 10  1  0
M  END
