
     RDKit          3D

 21 22  0  0  0  0  0  0  0  0999 V2000
   -3.3390   -4.3700    0.1570 O   0  0  0  0  0  0  0  0  0  0  0  0
   -2.7430   -3.2590    0.1830 C   0  0  0  0  0  0  0  0  0  0  0  0
   -2.0380   -2.9270    1.3150 C   0  0  0  0  0  0  0  0  0  0  0  0
   -1.3870   -1.7040    1.3340 C   0  0  0  0  0  0  0  0  0  0  0  0
   -1.4220   -0.8500    0.2990 N   0  0  0  0  0  0  0  0  0  0  0  0
   -0.7010    0.4030    0.4320 C   0  0  2  0  0  0  0  0  0  0  0  0
   -1.3950    1.4640   -0.1590 O   0  0  0  0  0  0  0  0  0  0  0  0
   -0.4540    2.4760   -0.1260 C   0  0  2  0  0  0  0  0  0  0  0  0
   -0.8340    3.6870   -0.9190 C   0  0  0  0  0  0  0  0  0  0  0  0
   -2.0090    4.2380   -0.4510 O   0  0  0  0  0  0  0  0  0  0  0  0
    0.7290    1.8170   -0.8200 C   0  0  1  0  0  0  0  0  0  0  0  0
    1.8840    2.4350   -0.3580 O   0  0  0  0  0  0  0  0  0  0  0  0
    0.6050    0.3940   -0.3180 C   0  0  1  0  0  0  0  0  0  0  0  0
    1.6080    0.1650    0.5730 O   0  0  0  0  0  0  0  0  0  0  0  0
    2.6090   -1.0970    0.3090 P   0  0  0  0  0  0  0  0  0  0  0  0
    2.7060   -1.4040    1.8130 O   0  0  0  0  0  0  0  0  0  0  0  0
    4.3050   -0.8210    0.3750 O   0  0  0  0  0  0  0  0  0  0  0  0
    2.0760   -2.5520   -0.1210 O   0  0  0  0  0  0  0  0  0  0  0  0
   -2.1100   -1.1950   -0.7840 C   0  0  0  0  0  0  0  0  0  0  0  0
   -2.1620   -0.4210   -1.7650 O   0  0  0  0  0  0  0  0  0  0  0  0
   -2.7630   -2.3930   -0.8340 N   0  0  0  0  0  0  0  0  0  0  0  0
  1  2  2  0
  2  3  1  0
  2 21  1  0
  3  4  2  0
  4  5  1  0
  6  5  1  6
  5 19  1  0
  6  7  1  0
  6 13  1  0
  7  8  1  0
  8  9  1  6
  8 11  1  0
  9 10  1  0
 11 12  1  1
 11 13  1  0
 13 14  1  1
 14 15  1  0
 15 16  1  0
 15 17  1  0
 15 18  1  0
 19 20  2  0
 19 21  1  0
M  END
