
     RDKit          3D

 27 28  0  0  0  0  0  0  0  0999 V2000
   -0.5650    5.7000    0.2360 C   0  0  0  0  0  0  0  0  0  0  0  0
   -1.3250    4.8090    1.1980 C   0  0  0  0  0  0  0  0  0  0  0  0
   -1.1460    3.4080    0.7480 C   0  0  0  0  0  0  0  0  0  0  0  0
   -0.6240    2.4990    1.5010 N   0  0  0  0  0  0  0  0  0  0  0  0
   -0.4880    1.1780    0.9920 C   0  0  0  0  0  0  0  0  0  0  0  0
    0.7740    0.7770    0.7130 C   0  0  0  0  0  0  0  0  0  0  0  0
    1.8720    1.6950    0.9440 C   0  0  0  0  0  0  0  0  0  0  0  0
    3.0440    1.4130    0.7190 O   0  0  0  0  0  0  0  0  0  0  0  0
    1.6140    2.9720    1.4490 O   0  0  0  0  0  0  0  0  0  0  0  0
    2.6940    3.8530    1.6680 C   0  0  0  0  0  0  0  0  0  0  0  0
    1.0030   -0.5510    0.1950 C   0  0  0  0  0  0  0  0  0  0  0  0
    2.1930   -1.0650   -0.1200 C   0  0  0  0  0  0  0  0  0  0  0  0
    2.2910   -2.4300   -0.6380 C   0  0  0  0  0  0  0  0  0  0  0  0
    3.4560   -2.9220   -0.9420 C   0  0  0  0  0  0  0  0  0  0  0  0
    3.5690   -4.6360   -1.5920 P   0  0  0  0  0  0  0  0  0  0  0  0
    3.5100   -5.7710   -0.2860 O   0  0  0  0  0  0  0  0  0  0  0  0
    5.0150   -4.7980   -2.5290 O   0  0  0  0  0  0  0  0  0  0  0  0
   -0.1240   -1.3770    0.0030 O   0  0  0  0  0  0  0  0  0  0  0  0
   -1.4090   -0.8020   -0.1070 C   0  0  1  0  0  0  0  0  0  0  0  0
   -1.6120   -0.3700   -1.5290 C   0  0  0  0  0  0  0  0  0  0  0  0
   -3.0410   -0.5740   -1.9890 C   0  0  0  0  0  0  0  0  0  0  0  0
   -3.3320   -2.0070   -2.0720 N   0  0  0  0  0  0  0  0  0  0  0  0
   -2.5740   -2.7040   -1.0570 C   0  0  0  0  0  0  0  0  0  0  0  0
   -2.4190   -1.8680    0.2100 C   0  0  1  0  0  0  0  0  0  0  0  0
   -1.8990   -2.8270    1.2780 C   0  0  0  0  0  0  0  0  0  0  0  0
   -3.6240   -1.3630    0.6550 O   0  0  0  0  0  0  0  0  0  0  0  0
   -1.5170    0.3200    0.7760 O   0  0  0  0  0  0  0  0  0  0  0  0
  1  2  1  0
  2  3  1  0
  3  4  2  3
  4  5  1  0
  5  6  2  0
  5 27  1  0
  6  7  1  0
  6 11  1  0
  7  8  2  0
  7  9  1  0
  9 10  1  0
 11 12  2  3
 11 18  1  0
 12 13  1  0
 13 14  2  3
 14 15  1  0
 15 16  1  0
 15 17  1  0
 18 19  1  0
 19 20  1  6
 19 24  1  0
 19 27  1  0
 20 21  1  0
 21 22  1  0
 22 23  1  0
 23 24  1  0
 24 25  1  1
 24 26  1  0
M  END
