
     RDKit          3D

 16 16  0  0  0  0  0  0  0  0999 V2000
    0.6640   -0.4420   -1.8460 O   0  0  0  0  0  0  0  0  0  0  0  0
    0.7020   -0.5410   -0.6110 C   0  0  0  0  0  0  0  0  0  0  0  0
   -0.4500   -0.4460    0.1280 O   0  0  0  0  0  0  0  0  0  0  0  0
   -1.7140   -0.2350   -0.4600 C   0  0  2  0  0  0  0  0  0  0  0  0
   -2.2440    1.0820    0.0090 C   0  0  0  0  0  0  0  0  0  0  0  0
   -1.5320    2.0320    0.2530 O   0  0  0  0  0  0  0  0  0  0  0  0
   -3.7210    1.1960    0.1750 C   0  0  0  0  0  0  0  0  0  0  0  0
   -4.0980    0.2640    1.1290 O   0  0  0  0  0  0  0  0  0  0  0  0
   -3.7710   -0.9800    0.7780 O   0  0  0  0  0  0  0  0  0  0  0  0
   -2.7010   -1.2750   -0.0670 C   0  0  0  0  0  0  0  0  0  0  0  0
   -2.6200   -2.4640   -0.4730 O   0  0  0  0  0  0  0  0  0  0  0  0
    1.9890   -0.7630    0.0700 C   0  0  2  0  0  0  0  0  0  0  0  0
    1.8070   -0.8450    1.4550 O   0  0  0  0  0  0  0  0  0  0  0  0
    2.9770    0.3440   -0.2360 C   0  0  0  0  0  0  0  0  0  0  0  0
    4.1810    0.0510    0.3830 O   0  0  0  0  0  0  0  0  0  0  0  0
    5.0450    1.0210    0.1150 O   0  0  0  0  0  0  0  0  0  0  0  0
  1  2  2  0
  2  3  1  0
  2 12  1  0
  4  3  1  1
  4  5  1  0
  4 10  1  0
  5  6  2  0
  5  7  1  0
  7  8  1  0
  8  9  1  0
  9 10  1  0
 10 11  2  0
 12 13  1  1
 12 14  1  0
 14 15  1  0
 15 16  1  0
M  END
