
     RDKit          3D

 28 30  0  0  0  0  0  0  0  0999 V2000
    3.4250   -3.8110   -0.7120 C   0  0  0  0  0  0  0  0  0  0  0  0
    2.5750   -2.7360   -0.3340 N   0  0  0  0  0  0  0  0  0  0  0  0
    2.8160   -1.8750    0.7670 C   0  0  0  0  0  0  0  0  0  0  0  0
    3.8380   -2.0330    1.4970 O   0  0  0  0  0  0  0  0  0  0  0  0
    1.9080   -0.8400    1.0480 N   0  0  0  0  0  0  0  0  0  0  0  0
    1.3020   -0.1390   -0.1780 C   0  0  2  0  0  0  0  0  0  0  0  0
    2.2400    0.2310   -0.9790 O   0  0  0  0  0  0  0  0  0  0  0  0
    3.2710    0.9620   -1.1120 C   0  0  0  0  0  0  0  0  0  0  0  0
    3.4050    2.4210   -0.9740 C   0  0  0  0  0  0  0  0  0  0  0  0
    4.7620    2.7930   -1.2300 O   0  0  0  0  0  0  0  0  0  0  0  0
    4.9100    4.0710   -1.1150 O   0  0  0  0  0  0  0  0  0  0  0  0
    0.4290    0.7680    0.2830 O   0  0  0  0  0  0  0  0  0  0  0  0
    0.3270    2.0290   -0.1430 C   0  0  0  0  0  0  0  0  0  0  0  0
   -1.0220    2.7060    0.0620 C   0  0  0  0  0  0  0  0  0  0  0  0
   -1.6990    2.2460    1.1610 O   0  0  0  0  0  0  0  0  0  0  0  0
   -3.0660    2.5150    0.9490 C   0  0  0  0  0  0  0  0  0  0  0  0
   -3.8510    1.9290    2.0820 C   0  0  0  0  0  0  0  0  0  0  0  0
   -4.1490    0.4450    1.8430 C   0  0  0  0  0  0  0  0  0  0  0  0
   -2.8630   -0.3530    1.8610 C   0  0  0  0  0  0  0  0  0  0  0  0
   -2.5020   -0.9940    0.5860 C   0  0  0  0  0  0  0  0  0  0  0  0
   -1.9070   -0.5170   -0.4990 C   0  0  0  0  0  0  0  0  0  0  0  0
   -0.7730   -1.4610   -0.8060 C   0  0  0  0  0  0  0  0  0  0  0  0
    0.4910   -1.3470   -0.6950 C   0  0  0  0  0  0  0  0  0  0  0  0
    1.3760   -2.4510   -1.0780 C   0  0  0  0  0  0  0  0  0  0  0  0
    1.0550   -3.1530   -2.0870 O   0  0  0  0  0  0  0  0  0  0  0  0
   -1.3330   -2.7950   -1.2590 C   0  0  0  0  0  0  0  0  0  0  0  0
   -2.7110   -3.0840   -0.7520 C   0  0  0  0  0  0  0  0  0  0  0  0
   -2.8430   -2.4000    0.4800 O   0  0  0  0  0  0  0  0  0  0  0  0
  1  2  1  0
  2  3  1  0
  2 24  1  0
  3  4  2  0
  3  5  1  0
  5  6  1  0
  6  7  1  6
  6 12  1  0
  6 23  1  0
  7  8  1  0
  8  9  1  0
  9 10  1  0
 10 11  1  0
 12 13  1  0
 13 14  1  0
 14 15  1  0
 15 16  1  0
 16 17  1  0
 17 18  1  0
 18 19  1  0
 19 20  1  0
 20 21  2  0
 20 28  1  0
 21 22  1  0
 22 23  2  0
 22 26  1  0
 23 24  1  0
 24 25  2  0
 26 27  1  0
 27 28  1  0
M  END
