
     RDKit          3D

 16 16  0  0  0  0  0  0  0  0999 V2000
   -3.4740   -1.3690    0.3330 O   0  0  0  0  0  0  0  0  0  0  0  0
   -2.4890   -1.8740   -0.2660 C   0  0  0  0  0  0  0  0  0  0  0  0
   -2.3980   -3.2610   -0.4950 O   0  0  0  0  0  0  0  0  0  0  0  0
   -1.4990   -1.0030   -0.6880 O   0  0  0  0  0  0  0  0  0  0  0  0
   -1.5850    0.3560   -0.4640 C   0  0  2  0  0  0  0  0  0  0  0  0
   -0.4260    0.9510   -1.0150 O   0  0  0  0  0  0  0  0  0  0  0  0
    0.5850    0.4020   -0.3760 O   0  0  0  0  0  0  0  0  0  0  0  0
    1.5840    1.3530   -0.1540 C   0  0  0  0  0  0  0  0  0  0  0  0
    2.7010    0.6070    0.5900 C   0  0  0  0  0  0  0  0  0  0  0  0
    3.1340   -0.5110   -0.3520 C   0  0  0  0  0  0  0  0  0  0  0  0
    4.1500   -1.2080    0.2960 O   0  0  0  0  0  0  0  0  0  0  0  0
   -1.5550    0.7360    1.0150 C   0  0  0  0  0  0  0  0  0  0  0  0
   -2.0780    2.0280    0.9470 O   0  0  0  0  0  0  0  0  0  0  0  0
   -3.0920    1.9720    0.0560 O   0  0  0  0  0  0  0  0  0  0  0  0
   -2.8160    1.0050   -0.9000 C   0  0  0  0  0  0  0  0  0  0  0  0
   -3.5100    0.7750   -1.9110 O   0  0  0  0  0  0  0  0  0  0  0  0
  1  2  2  0
  2  3  1  0
  2  4  1  0
  5  4  1  1
  5  6  1  0
  5 12  1  0
  5 15  1  0
  6  7  1  0
  7  8  1  0
  8  9  1  0
  9 10  1  0
 10 11  1  0
 12 13  1  0
 13 14  1  0
 14 15  1  0
 15 16  2  0
M  END
