
     RDKit          3D

 28 29  0  0  0  0  0  0  0  0999 V2000
   -5.5350    0.3450    1.1390 C   0  0  0  0  0  0  0  0  0  0  0  0
   -4.1390    0.7850    0.6500 C   0  0  1  0  0  0  0  0  0  0  0  0
   -4.3760    1.5060   -0.6440 C   0  0  0  0  0  0  0  0  0  0  0  0
   -4.4570    0.6170   -1.8300 C   0  0  0  0  0  0  0  0  0  0  0  0
   -4.4170    1.2510   -2.9470 O   0  0  0  0  0  0  0  0  0  0  0  0
   -4.5640   -0.7240   -1.8590 O   0  0  0  0  0  0  0  0  0  0  0  0
   -3.8440   -1.7340   -1.3240 C   0  0  0  0  0  0  0  0  0  0  0  0
   -4.5070   -2.6680   -0.7450 O   0  0  0  0  0  0  0  0  0  0  0  0
   -2.4430   -1.8940   -1.3210 N   0  0  0  0  0  0  0  0  0  0  0  0
   -1.4720   -0.8210   -1.2940 C   0  0  0  0  0  0  0  0  0  0  0  0
   -0.3510   -1.0930   -0.3430 C   0  0  2  0  0  0  0  0  0  0  0  0
    0.5510   -2.1680   -0.9790 C   0  0  0  0  0  0  0  0  0  0  0  0
   -0.7450   -1.6160    0.9990 C   0  0  0  0  0  0  0  0  0  0  0  0
   -1.2440   -0.6680    1.9920 C   0  0  0  0  0  0  0  0  0  0  0  0
   -1.2700    0.7600    1.6020 N   0  0  0  0  0  0  0  0  0  0  0  0
   -0.2580    1.1940    0.6460 C   0  0  0  0  0  0  0  0  0  0  0  0
    0.4920    0.0920   -0.0300 C   0  0  2  0  0  0  0  0  0  0  0  0
    1.1660    0.6200   -1.0910 O   0  0  0  0  0  0  0  0  0  0  0  0
    2.5310    0.6100   -1.0410 C   0  0  0  0  0  0  0  0  0  0  0  0
    3.1330    1.3650    0.0850 C   0  0  0  0  0  0  0  0  0  0  0  0
    4.6430    1.3380    0.1000 C   0  0  0  0  0  0  0  0  0  0  0  0
    5.2290   -0.0270    0.2150 C   0  0  0  0  0  0  0  0  0  0  0  0
    7.0920    0.1920    0.2250 P   0  0  0  0  0  0  0  0  0  0  0  0
    7.7940   -0.9090   -0.9050 O   0  0  0  0  0  0  0  0  0  0  0  0
    7.7250   -0.0240    1.8100 O   0  0  0  0  0  0  0  0  0  0  0  0
   -2.2660    1.5760    2.1510 C   0  0  0  0  0  0  0  0  0  0  0  0
   -2.2490    2.4570    3.1070 O   0  0  0  0  0  0  0  0  0  0  0  0
   -3.5860    1.5210    1.6540 O   0  0  0  0  0  0  0  0  0  0  0  0
  2  1  1  1
  2  3  1  0
  2 28  1  0
  3  4  1  0
  4  5  2  0
  4  6  1  0
  6  7  1  0
  7  8  2  0
  7  9  1  0
  9 10  1  0
 10 11  1  0
 11 12  1  6
 11 13  1  0
 11 17  1  0
 13 14  1  0
 14 15  1  0
 15 16  1  0
 15 26  1  0
 16 17  1  0
 17 18  1  6
 18 19  1  0
 19 20  1  0
 20 21  1  0
 21 22  1  0
 22 23  1  0
 23 24  1  0
 23 25  1  0
 26 27  2  0
 26 28  1  0
M  END
