
     RDKit          3D

 28 31  0  0  0  0  0  0  0  0999 V2000
   -2.0840   -3.6360   -0.6430 C   0  0  0  0  0  0  0  0  0  0  0  0
   -0.7070   -3.4320    0.1560 C   0  0  1  0  0  0  0  0  0  0  0  0
    0.2180   -4.0900   -0.6560 N   0  0  0  0  0  0  0  0  0  0  0  0
    1.3290   -3.6200   -1.0260 C   0  0  0  0  0  0  0  0  0  0  0  0
    1.7920   -2.2890   -0.6400 C   0  0  0  0  0  0  0  0  0  0  0  0
    0.9850   -1.5160    0.1110 C   0  0  0  0  0  0  0  0  0  0  0  0
    1.2910   -0.2320    0.6430 C   0  0  0  0  0  0  0  0  0  0  0  0
    0.5480    0.3580    1.4650 O   0  0  0  0  0  0  0  0  0  0  0  0
    2.4710    0.4670    0.2800 N   0  0  0  0  0  0  0  0  0  0  0  0
    3.6330    0.3170   -0.5370 C   0  0  0  0  0  0  0  0  0  0  0  0
    4.2520    1.6190   -0.0830 C   0  0  1  0  0  0  0  0  0  0  0  0
    4.2770    2.6530   -0.9770 O   0  0  0  0  0  0  0  0  0  0  0  0
    3.0820    3.0870   -1.1800 O   0  0  0  0  0  0  0  0  0  0  0  0
    2.3110    2.9320   -0.0560 C   0  0  0  0  0  0  0  0  0  0  0  0
    2.9950    1.7930    0.6760 C   0  0  1  0  0  0  0  0  0  0  0  0
   -0.4530   -1.9660   -0.0210 C   0  0  0  0  0  0  0  0  0  0  0  0
   -1.3100   -1.0080    0.0330 C   0  0  0  0  0  0  0  0  0  0  0  0
   -0.9420    0.3320   -0.2370 C   0  0  0  0  0  0  0  0  0  0  0  0
   -1.8380    1.3080   -0.0940 C   0  0  0  0  0  0  0  0  0  0  0  0
   -1.5700    2.7410   -0.3500 C   0  0  2  0  0  0  0  0  0  0  0  0
   -1.0800    3.3310    0.8090 O   0  0  0  0  0  0  0  0  0  0  0  0
   -3.1670    3.6180   -0.8080 P   0  0  0  0  0  0  0  0  0  0  0  0
   -2.8230    5.3110   -0.9910 O   0  0  0  0  0  0  0  0  0  0  0  0
   -2.6730   -1.3060    0.3980 O   0  0  0  0  0  0  0  0  0  0  0  0
   -3.0290   -2.0270    1.5760 C   0  0  0  0  0  0  0  0  0  0  0  0
   -2.0900   -2.9700    2.1220 C   0  0  0  0  0  0  0  0  0  0  0  0
   -2.1480   -3.1770    3.3520 O   0  0  0  0  0  0  0  0  0  0  0  0
   -1.0780   -3.7200    1.4370 O   0  0  0  0  0  0  0  0  0  0  0  0
  2  1  1  6
  2  3  1  0
  2 16  1  0
  2 28  1  0
  3  4  2  0
  4  5  1  0
  5  6  2  0
  6  7  1  0
  6 16  1  0
  7  8  2  0
  7  9  1  0
  9 10  1  0
  9 15  1  0
 11 10  1  6
 11 12  1  0
 11 15  1  0
 12 13  1  0
 13 14  1  0
 15 14  1  6
 16 17  2  0
 17 18  1  0
 17 24  1  0
 18 19  2  3
 19 20  1  0
 20 21  1  1
 20 22  1  0
 22 23  1  0
 24 25  1  0
 25 26  1  0
 26 27  2  0
 26 28  1  0
M  END
