
     RDKit          3D

 21 22  0  0  0  0  0  0  0  0999 V2000
    5.9780   -1.2690    1.3400 O   0  0  0  0  0  0  0  0  0  0  0  0
    4.8070   -0.9260    0.9830 C   0  0  0  0  0  0  0  0  0  0  0  0
    3.9000   -1.9230    0.7410 C   0  0  0  0  0  0  0  0  0  0  0  0
    2.6350   -1.5720    0.3550 C   0  0  0  0  0  0  0  0  0  0  0  0
    2.2410   -0.2750    0.2020 N   0  0  0  0  0  0  0  0  0  0  0  0
    0.9200   -0.0170   -0.1980 C   0  0  2  0  0  0  0  0  0  0  0  0
    0.6700    1.2000   -0.7790 O   0  0  0  0  0  0  0  0  0  0  0  0
   -0.7040    1.1640   -1.0070 C   0  0  2  0  0  0  0  0  0  0  0  0
   -1.3090    2.5510   -1.0090 C   0  0  0  0  0  0  0  0  0  0  0  0
   -0.7220    3.3190   -2.0140 O   0  0  0  0  0  0  0  0  0  0  0  0
   -1.3140    0.2670    0.0240 C   0  0  1  0  0  0  0  0  0  0  0  0
   -1.6160   -0.9370   -0.5540 O   0  0  0  0  0  0  0  0  0  0  0  0
   -3.1490   -1.3730   -0.2300 P   0  0  0  0  0  0  0  0  0  0  0  0
   -4.3500   -0.2570   -0.2180 O   0  0  0  0  0  0  0  0  0  0  0  0
   -3.5220   -3.0160   -0.1220 O   0  0  0  0  0  0  0  0  0  0  0  0
   -2.8990   -1.3700    1.2780 O   0  0  0  0  0  0  0  0  0  0  0  0
   -0.0990   -0.0120    0.9250 C   0  0  2  0  0  0  0  0  0  0  0  0
    0.0890    1.0080    1.8250 O   0  0  0  0  0  0  0  0  0  0  0  0
    3.1610    0.6650    0.4490 C   0  0  0  0  0  0  0  0  0  0  0  0
    2.8430    1.8660    0.3210 O   0  0  0  0  0  0  0  0  0  0  0  0
    4.4190    0.3360    0.8320 N   0  0  0  0  0  0  0  0  0  0  0  0
  1  2  2  0
  2  3  1  0
  2 21  1  0
  3  4  2  0
  4  5  1  0
  6  5  1  1
  5 19  1  0
  6  7  1  0
  6 17  1  0
  7  8  1  0
  8  9  1  1
  8 11  1  0
  9 10  1  0
 11 12  1  6
 11 17  1  0
 12 13  1  0
 13 14  1  0
 13 15  1  0
 13 16  1  0
 17 18  1  1
 19 20  2  0
 19 21  1  0
M  END
