
     RDKit          3D

 16 16  0  0  0  0  0  0  0  0999 V2000
    1.2580   -1.1880    0.5100 O   0  0  0  0  0  0  0  0  0  0  0  0
    1.5900   -0.2450   -0.2480 C   0  0  0  0  0  0  0  0  0  0  0  0
    2.9350    0.3770   -0.0670 C   0  0  0  0  0  0  0  0  0  0  0  0
    3.5910   -0.2470    0.9650 O   0  0  0  0  0  0  0  0  0  0  0  0
    4.7780    0.2770    1.1500 O   0  0  0  0  0  0  0  0  0  0  0  0
    4.7410    1.5800    0.9350 O   0  0  0  0  0  0  0  0  0  0  0  0
    0.6930    0.1560   -1.1990 O   0  0  0  0  0  0  0  0  0  0  0  0
   -0.5790   -0.3370   -1.4600 C   0  0  0  0  0  0  0  0  0  0  0  0
   -1.5850   -0.2220   -0.3690 C   0  0  2  0  0  0  0  0  0  0  0  0
   -1.8730    1.2260   -0.0120 C   0  0  0  0  0  0  0  0  0  0  0  0
   -0.7120    1.7290    0.5810 O   0  0  0  0  0  0  0  0  0  0  0  0
   -1.2810   -0.8710    0.8080 O   0  0  0  0  0  0  0  0  0  0  0  0
   -2.4920   -1.3310    1.3250 C   0  0  0  0  0  0  0  0  0  0  0  0
   -3.1500   -1.8200    0.0630 C   0  0  0  0  0  0  0  0  0  0  0  0
   -3.8570   -2.8520   -0.0930 O   0  0  0  0  0  0  0  0  0  0  0  0
   -2.7810   -0.8530   -0.8640 O   0  0  0  0  0  0  0  0  0  0  0  0
  1  2  2  0
  2  3  1  0
  2  7  1  0
  3  4  1  0
  4  5  1  0
  5  6  1  0
  7  8  1  0
  9  8  1  6
  9 10  1  0
  9 12  1  0
  9 16  1  0
 10 11  1  0
 12 13  1  0
 13 14  1  0
 14 15  2  0
 14 16  1  0
M  END
