
     RDKit          3D

 27 30  0  0  0  0  0  0  0  0999 V2000
   -4.9170    1.6080   -2.1540 C   0  0  0  0  0  0  0  0  0  0  0  0
   -3.8820    1.3760   -1.1770 N   0  0  0  0  0  0  0  0  0  0  0  0
   -2.5130    1.1050   -1.4530 C   0  0  0  0  0  0  0  0  0  0  0  0
   -1.8530    1.3930   -2.4720 O   0  0  0  0  0  0  0  0  0  0  0  0
   -2.0460    0.3760   -0.2030 C   0  0  2  0  0  0  0  0  0  0  0  0
   -0.6000    0.4780   -0.0510 C   0  0  0  0  0  0  0  0  0  0  0  0
    0.1750   -0.5810   -0.0090 C   0  0  0  0  0  0  0  0  0  0  0  0
    1.6170   -0.4350    0.1440 C   0  0  0  0  0  0  0  0  0  0  0  0
    2.2320    0.7190    0.2510 C   0  0  0  0  0  0  0  0  0  0  0  0
    3.6980    0.8000    0.4040 C   0  0  0  0  0  0  0  0  0  0  0  0
    4.3330    1.9440    0.5130 C   0  0  0  0  0  0  0  0  0  0  0  0
    5.7780    1.9920    0.6620 C   0  0  0  0  0  0  0  0  0  0  0  0
    6.4780    0.8800    0.6900 C   0  0  0  0  0  0  0  0  0  0  0  0
    5.8300   -0.4310    0.5730 C   0  0  0  0  0  0  0  0  0  0  0  0
    4.4440   -0.3600    0.4350 O   0  0  0  0  0  0  0  0  0  0  0  0
    2.3490   -1.6390    0.1730 O   0  0  0  0  0  0  0  0  0  0  0  0
    1.8050   -2.7240   -0.5430 C   0  0  0  0  0  0  0  0  0  0  0  0
    0.4310   -3.0890   -0.0690 C   0  0  0  0  0  0  0  0  0  0  0  0
   -0.4040   -1.8980   -0.1170 N   0  0  0  0  0  0  0  0  0  0  0  0
   -1.8100   -2.0250   -0.2690 C   0  0  0  0  0  0  0  0  0  0  0  0
   -2.3120   -3.1910   -0.3630 O   0  0  0  0  0  0  0  0  0  0  0  0
   -2.5790   -0.9010   -0.3090 O   0  0  0  0  0  0  0  0  0  0  0  0
   -2.7240    1.1580    0.7470 O   0  0  0  0  0  0  0  0  0  0  0  0
   -4.0020    1.3680    0.2650 C   0  0  2  0  0  0  0  0  0  0  0  0
   -5.1150    0.0570    0.9020 P   0  0  0  0  0  0  0  0  0  0  0  0
   -4.2330   -1.2000    1.7320 O   0  0  0  0  0  0  0  0  0  0  0  0
   -6.2130    0.7480    2.0550 O   0  0  0  0  0  0  0  0  0  0  0  0
  1  2  1  0
  2  3  1  0
  2 24  1  0
  3  4  2  0
  3  5  1  0
  5  6  1  0
  5 22  1  6
  5 23  1  0
  6  7  2  0
  7  8  1  0
  7 19  1  0
  8  9  2  3
  8 16  1  0
  9 10  1  0
 10 11  2  0
 10 15  1  0
 11 12  1  0
 12 13  2  0
 13 14  1  0
 14 15  1  0
 16 17  1  0
 17 18  1  0
 18 19  1  0
 19 20  1  0
 20 21  2  0
 20 22  1  0
 23 24  1  0
 24 25  1  6
 25 26  1  0
 25 27  1  0
M  END
