
     RDKit          3D

 23 24  0  0  0  0  0  0  0  0999 V2000
   -5.1300    1.9130   -0.5070 C   0  0  0  0  0  0  0  0  0  0  0  0
   -4.9920    1.6490    1.0200 C   0  0  0  0  0  0  0  0  0  0  0  0
   -4.2940    0.3770    1.0130 O   0  0  0  0  0  0  0  0  0  0  0  0
   -3.0380    0.3210    0.5070 C   0  0  0  0  0  0  0  0  0  0  0  0
   -2.3920    1.3150    0.1290 O   0  0  0  0  0  0  0  0  0  0  0  0
   -2.3970   -1.0640    0.3890 C   0  0  2  0  0  0  0  0  0  0  0  0
   -1.1380   -1.0100   -0.3540 C   0  0  0  0  0  0  0  0  0  0  0  0
   -1.1260   -1.5700   -1.5200 O   0  0  0  0  0  0  0  0  0  0  0  0
    0.0580   -0.4110    0.0450 N   0  0  0  0  0  0  0  0  0  0  0  0
    0.5400    0.8010   -0.6560 C   0  0  0  0  0  0  0  0  0  0  0  0
    1.9160    0.3730   -0.9400 C   0  0  1  0  0  0  0  0  0  0  0  0
    2.7870    1.3290   -1.3480 O   0  0  0  0  0  0  0  0  0  0  0  0
    2.3320   -0.1060    0.5620 C   0  0  2  0  0  0  0  0  0  0  0  0
    3.4800   -0.8730    0.2100 O   0  0  0  0  0  0  0  0  0  0  0  0
    4.6690   -0.2710    0.3150 C   0  0  0  0  0  0  0  0  0  0  0  0
    4.7360    0.9310    0.7780 O   0  0  0  0  0  0  0  0  0  0  0  0
    5.9660   -0.8910   -0.1520 C   0  0  0  0  0  0  0  0  0  0  0  0
    6.7510    0.2030   -0.4420 O   0  0  0  0  0  0  0  0  0  0  0  0
    7.1830    0.8420    0.6300 O   0  0  0  0  0  0  0  0  0  0  0  0
    1.1240   -0.8450    0.8950 C   0  0  0  0  0  0  0  0  0  0  0  0
    0.9910   -1.7900    1.7680 O   0  0  0  0  0  0  0  0  0  0  0  0
   -3.4170   -2.1140   -0.1230 C   0  0  0  0  0  0  0  0  0  0  0  0
   -2.8510   -2.1520    1.2180 C   0  0  0  0  0  0  0  0  0  0  0  0
  1  2  1  0
  2  3  1  0
  3  4  1  0
  4  5  2  0
  6  4  1  1
  6  7  1  0
  6 22  1  0
  6 23  1  0
  7  8  2  0
  7  9  1  0
  9 10  1  0
  9 20  1  0
 10 11  1  0
 11 12  1  1
 11 13  1  0
 13 14  1  6
 13 20  1  0
 14 15  1  0
 15 16  2  0
 15 17  1  0
 17 18  1  0
 18 19  1  0
 20 21  2  0
 22 23  1  0
M  END
