
     RDKit          3D

 23 23  0  0  0  0  0  0  0  0999 V2000
   -3.0680    1.0470    3.7430 C   0  0  0  0  0  0  0  0  0  0  0  0
   -2.6570    0.2550    2.7310 C   0  0  0  0  0  0  0  0  0  0  0  0
   -3.6730   -0.5520    2.1310 C   0  0  0  0  0  0  0  0  0  0  0  0
   -3.5110   -1.3620    1.2110 O   0  0  0  0  0  0  0  0  0  0  0  0
   -5.0040   -0.4330    2.6180 O   0  0  0  0  0  0  0  0  0  0  0  0
   -1.2510    0.3060    2.4460 C   0  0  0  0  0  0  0  0  0  0  0  0
   -0.5320    1.0760    3.2700 O   0  0  0  0  0  0  0  0  0  0  0  0
   -0.4520   -0.2800    1.4840 N   0  0  0  0  0  0  0  0  0  0  0  0
    1.0120   -0.1280    1.6210 C   0  0  0  0  0  0  0  0  0  0  0  0
    1.5320    1.0830    0.9320 C   0  0  0  0  0  0  0  0  0  0  0  0
    1.3150    1.0920   -0.4110 O   0  0  0  0  0  0  0  0  0  0  0  0
    1.9470    0.1370   -1.1580 C   0  0  0  0  0  0  0  0  0  0  0  0
    1.5250    0.3450   -2.6090 C   0  0  1  0  0  0  0  0  0  0  0  0
    2.2640    1.6110   -3.0680 C   0  0  0  0  0  0  0  0  0  0  0  0
    3.6330    0.9780   -3.3560 C   0  0  0  0  0  0  0  0  0  0  0  0
    3.3990   -0.3850   -3.3210 O   0  0  0  0  0  0  0  0  0  0  0  0
    2.1220   -0.5900   -3.4530 O   0  0  0  0  0  0  0  0  0  0  0  0
   -0.8740   -0.9160    0.3270 C   0  0  0  0  0  0  0  0  0  0  0  0
   -1.4690   -0.2120   -0.6230 C   0  0  0  0  0  0  0  0  0  0  0  0
   -1.9170   -0.7820   -1.8060 O   0  0  0  0  0  0  0  0  0  0  0  0
   -0.6810   -2.3400    0.0890 C   0  0  0  0  0  0  0  0  0  0  0  0
   -1.0680   -2.8660   -0.9770 O   0  0  0  0  0  0  0  0  0  0  0  0
   -0.0680   -3.1730    1.0210 O   0  0  0  0  0  0  0  0  0  0  0  0
  1  2  2  0
  2  3  1  0
  2  6  1  0
  3  4  2  0
  3  5  1  0
  6  7  2  0
  6  8  1  0
  8  9  1  0
  8 18  1  0
  9 10  1  0
 10 11  1  0
 11 12  1  0
 13 12  1  1
 13 14  1  0
 13 17  1  0
 14 15  1  0
 15 16  1  0
 16 17  1  0
 18 19  2  3
 18 21  1  0
 19 20  1  0
 21 22  2  0
 21 23  1  0
M  END
