
     RDKit          3D

 23 24  0  0  0  0  0  0  0  0999 V2000
   -2.8800    1.9730    2.7560 O   0  0  0  0  0  0  0  0  0  0  0  0
   -3.4520    1.3290    1.7830 C   0  0  0  0  0  0  0  0  0  0  0  0
   -3.4100   -0.1340    1.8170 C   0  0  0  0  0  0  0  0  0  0  0  0
   -3.2110   -0.6490    0.4060 C   0  0  2  0  0  0  0  0  0  0  0  0
   -4.4710   -0.7020   -0.3890 C   0  0  0  0  0  0  0  0  0  0  0  0
   -5.3560    0.5040   -0.1690 C   0  0  0  0  0  0  0  0  0  0  0  0
   -4.6490    1.8140   -0.3320 C   0  0  0  0  0  0  0  0  0  0  0  0
   -4.0670    2.2130    0.9130 O   0  0  0  0  0  0  0  0  0  0  0  0
   -2.7070   -1.9480    0.4590 O   0  0  0  0  0  0  0  0  0  0  0  0
   -2.0250   -2.0120   -0.7520 C   0  0  0  0  0  0  0  0  0  0  0  0
   -1.2480   -0.6670   -0.6430 C   0  0  2  0  0  0  0  0  0  0  0  0
   -0.1550   -0.9100    0.3460 C   0  0  0  0  0  0  0  0  0  0  0  0
   -0.2820   -1.7300    1.2150 O   0  0  0  0  0  0  0  0  0  0  0  0
    1.0810   -0.1110    0.1400 C   0  0  0  0  0  0  0  0  0  0  0  0
    2.2360   -0.9130    0.0010 O   0  0  0  0  0  0  0  0  0  0  0  0
    3.4980   -0.2540   -0.1380 C   0  0  0  0  0  0  0  0  0  0  0  0
    3.5140    0.9580    0.0060 O   0  0  0  0  0  0  0  0  0  0  0  0
    4.7010   -0.9890   -0.4020 N   0  0  0  0  0  0  0  0  0  0  0  0
    5.9750   -0.4750   -0.4020 C   0  0  0  0  0  0  0  0  0  0  0  0
    6.0970    0.9790   -0.9050 C   0  0  0  0  0  0  0  0  0  0  0  0
    7.4820    1.1720   -0.8920 O   0  0  0  0  0  0  0  0  0  0  0  0
    7.9030    2.0130   -0.0470 O   0  0  0  0  0  0  0  0  0  0  0  0
   -2.2400    0.1450   -0.1980 O   0  0  0  0  0  0  0  0  0  0  0  0
  1  2  2  0
  2  3  1  0
  2  8  1  0
  4  3  1  1
  4  5  1  0
  4  9  1  0
  4 23  1  0
  5  6  1  0
  6  7  1  0
  7  8  1  0
  9 10  1  0
 10 11  1  0
 11 12  1  1
 11 23  1  0
 12 13  2  0
 12 14  1  0
 14 15  1  0
 15 16  1  0
 16 17  2  0
 16 18  1  0
 18 19  1  0
 19 20  1  0
 20 21  1  0
 21 22  1  0
M  END
