
     RDKit          3D

 23 23  0  0  0  0  0  0  0  0999 V2000
    6.8940    0.9380   -0.9470 C   0  0  0  0  0  0  0  0  0  0  0  0
    6.1610   -0.1080   -1.5710 O   0  0  0  0  0  0  0  0  0  0  0  0
    5.0650   -0.6240   -0.9080 C   0  0  0  0  0  0  0  0  0  0  0  0
    4.7550   -0.1580    0.2130 O   0  0  0  0  0  0  0  0  0  0  0  0
    4.3370   -1.6700   -1.5400 N   0  0  0  0  0  0  0  0  0  0  0  0
    3.1970   -2.2040   -0.8450 C   0  0  0  0  0  0  0  0  0  0  0  0
    2.1740   -1.1390   -0.5950 C   0  0  0  0  0  0  0  0  0  0  0  0
    2.3130    0.0450   -0.9510 O   0  0  0  0  0  0  0  0  0  0  0  0
    1.0090   -1.4810    0.0660 O   0  0  0  0  0  0  0  0  0  0  0  0
    0.0210   -0.4580    0.3080 C   0  0  2  0  0  0  0  0  0  0  0  0
   -0.1040   -0.2230    1.6940 O   0  0  0  0  0  0  0  0  0  0  0  0
    0.2330    0.9850    2.3010 C   0  0  0  0  0  0  0  0  0  0  0  0
    0.6670    1.8900    1.5480 O   0  0  0  0  0  0  0  0  0  0  0  0
    0.1130    1.2160    3.6490 O   0  0  0  0  0  0  0  0  0  0  0  0
   -1.2140   -0.9080   -0.3640 C   0  0  0  0  0  0  0  0  0  0  0  0
   -1.2010   -1.9860   -0.9870 O   0  0  0  0  0  0  0  0  0  0  0  0
   -2.4580   -0.1000   -0.3130 C   0  0  2  0  0  0  0  0  0  0  0  0
   -2.1750    1.3220   -0.6460 C   0  0  0  0  0  0  0  0  0  0  0  0
   -3.0500   -0.2910    1.0830 C   0  0  0  0  0  0  0  0  0  0  0  0
   -4.3170    0.5320    1.1270 C   0  0  0  0  0  0  0  0  0  0  0  0
   -5.2380    0.3120   -0.0110 C   0  0  0  0  0  0  0  0  0  0  0  0
   -4.5690   -0.0690   -1.3000 C   0  0  0  0  0  0  0  0  0  0  0  0
   -3.3810   -0.7210   -1.1590 O   0  0  0  0  0  0  0  0  0  0  0  0
  1  2  1  0
  2  3  1  0
  3  4  2  0
  3  5  1  0
  5  6  1  0
  6  7  1  0
  7  8  2  0
  7  9  1  0
 10  9  1  1
 10 11  1  0
 10 15  1  0
 11 12  1  0
 12 13  2  0
 12 14  1  0
 15 16  2  0
 15 17  1  0
 17 18  1  6
 17 19  1  0
 17 23  1  0
 19 20  1  0
 20 21  1  0
 21 22  1  0
 22 23  1  0
M  END
