
     RDKit          3D

 25 26  0  0  0  0  0  0  0  0999 V2000
    7.6310    0.6900    0.5060 O   0  0  0  0  0  0  0  0  0  0  0  0
    6.4010    0.6410    0.2390 C   0  0  0  0  0  0  0  0  0  0  0  0
    6.0280    0.0740   -0.9560 C   0  0  0  0  0  0  0  0  0  0  0  0
    4.6840   -0.0100   -1.2570 C   0  0  0  0  0  0  0  0  0  0  0  0
    3.7470    0.4400   -0.3880 N   0  0  0  0  0  0  0  0  0  0  0  0
    2.3940    0.1340   -0.7460 C   0  0  2  0  0  0  0  0  0  0  0  0
    1.4360    1.0080   -0.2700 O   0  0  0  0  0  0  0  0  0  0  0  0
    0.3010    0.3170   -0.2000 C   0  0  2  0  0  0  0  0  0  0  0  0
   -0.6480    0.7150    0.8990 C   0  0  0  0  0  0  0  0  0  0  0  0
   -1.5640   -0.3350    1.0050 O   0  0  0  0  0  0  0  0  0  0  0  0
   -3.0050    0.1840    0.4670 P   0  0  0  0  0  0  0  0  0  0  0  0
   -3.4170    0.8750    1.6960 O   0  0  0  0  0  0  0  0  0  0  0  0
   -3.0990    1.4360   -0.5880 O   0  0  0  0  0  0  0  0  0  0  0  0
   -4.2920   -0.8730    0.5430 O   0  0  0  0  0  0  0  0  0  0  0  0
   -5.6130   -0.2690   -0.1190 P   0  0  0  0  0  0  0  0  0  0  0  0
   -6.4080   -1.1410   -1.3500 O   0  0  0  0  0  0  0  0  0  0  0  0
   -6.4970   -1.0120    0.8890 O   0  0  0  0  0  0  0  0  0  0  0  0
   -6.1640    1.2140    0.2430 O   0  0  0  0  0  0  0  0  0  0  0  0
    0.5270   -1.1680   -0.1740 C   0  0  1  0  0  0  0  0  0  0  0  0
    0.3010   -1.6590   -1.4810 O   0  0  0  0  0  0  0  0  0  0  0  0
    2.0130   -1.1770    0.0090 C   0  0  1  0  0  0  0  0  0  0  0  0
    2.6750   -2.2450   -0.5250 O   0  0  0  0  0  0  0  0  0  0  0  0
    4.1260    0.9780    0.7470 C   0  0  0  0  0  0  0  0  0  0  0  0
    3.2780    1.3850    1.5630 O   0  0  0  0  0  0  0  0  0  0  0  0
    5.4630    1.1010    1.0720 N   0  0  0  0  0  0  0  0  0  0  0  0
  1  2  2  0
  2  3  1  0
  2 25  1  0
  3  4  2  0
  4  5  1  0
  6  5  1  1
  5 23  1  0
  6  7  1  0
  6 21  1  0
  7  8  1  0
  8  9  1  1
  8 19  1  0
  9 10  1  0
 10 11  1  0
 11 12  1  0
 11 13  1  0
 11 14  1  0
 14 15  1  0
 15 16  1  0
 15 17  1  0
 15 18  1  0
 19 20  1  6
 19 21  1  0
 21 22  1  6
 23 24  2  0
 23 25  1  0
M  END
