
     RDKit          3D

 23 22  0  0  0  0  0  0  0  0999 V2000
   -1.5840   -2.3280    1.9160 C   0  0  0  0  0  0  0  0  0  0  0  0
   -2.1520   -1.2090    2.2740 C   0  0  0  0  0  0  0  0  0  0  0  0
   -2.8510   -1.2210    3.6040 C   0  0  0  0  0  0  0  0  0  0  0  0
   -3.4280   -0.1980    4.0350 O   0  0  0  0  0  0  0  0  0  0  0  0
   -2.8790   -2.3580    4.3930 O   0  0  0  0  0  0  0  0  0  0  0  0
   -2.1980   -0.0010    1.5200 C   0  0  0  0  0  0  0  0  0  0  0  0
   -2.8040    0.9910    2.1390 O   0  0  0  0  0  0  0  0  0  0  0  0
   -1.7310    0.3490    0.2540 N   0  0  0  0  0  0  0  0  0  0  0  0
   -1.1160   -0.4750   -0.7330 C   0  0  0  0  0  0  0  0  0  0  0  0
    0.3340   -0.6320   -0.6760 C   0  0  0  0  0  0  0  0  0  0  0  0
    1.0230   -0.1850    0.2480 O   0  0  0  0  0  0  0  0  0  0  0  0
    0.9370   -1.3120   -1.7150 O   0  0  0  0  0  0  0  0  0  0  0  0
    2.2110   -1.5580   -1.8590 O   0  0  0  0  0  0  0  0  0  0  0  0
    3.0830   -0.5220   -1.6840 C   0  0  1  0  0  0  0  0  0  0  0  0
    4.1060   -0.9200   -0.6270 C   0  0  0  0  0  0  0  0  0  0  0  0
    3.8800   -0.1870   -2.9290 C   0  0  0  0  0  0  0  0  0  0  0  0
    4.6490   -1.2380   -3.3920 O   0  0  0  0  0  0  0  0  0  0  0  0
   -1.8690    1.7360   -0.1600 C   0  0  0  0  0  0  0  0  0  0  0  0
   -1.2810    2.6710    0.5070 C   0  0  0  0  0  0  0  0  0  0  0  0
   -0.4410    2.5120    1.7040 C   0  0  0  0  0  0  0  0  0  0  0  0
   -2.6870    2.0090   -1.3230 C   0  0  0  0  0  0  0  0  0  0  0  0
   -2.8270    3.2240   -1.7040 O   0  0  0  0  0  0  0  0  0  0  0  0
   -3.3420    1.0490   -2.0700 O   0  0  0  0  0  0  0  0  0  0  0  0
  1  2  2  0
  2  3  1  0
  2  6  1  0
  3  4  2  0
  3  5  1  0
  6  7  2  0
  6  8  1  0
  8  9  1  0
  8 18  1  0
  9 10  1  0
 10 11  2  0
 10 12  1  0
 12 13  1  0
 13 14  1  0
 14 15  1  1
 14 16  1  0
 16 17  1  0
 18 19  2  3
 18 21  1  0
 19 20  1  0
 21 22  2  0
 21 23  1  0
M  END
