
     RDKit          3D

 23 24  0  0  0  0  0  0  0  0999 V2000
    3.6620   -0.9070    2.3270 O   0  0  0  0  0  0  0  0  0  0  0  0
    2.5320   -0.6840    1.7660 C   0  0  0  0  0  0  0  0  0  0  0  0
    1.3840   -0.1910    2.5690 C   0  0  0  0  0  0  0  0  0  0  0  0
    0.1890   -0.0770    1.8910 O   0  0  0  0  0  0  0  0  0  0  0  0
   -0.5790   -0.9960    1.2740 C   0  0  0  0  0  0  0  0  0  0  0  0
   -0.3590   -2.3430    1.1660 C   0  0  0  0  0  0  0  0  0  0  0  0
   -1.3500   -2.9050    0.4800 O   0  0  0  0  0  0  0  0  0  0  0  0
   -2.2290   -1.9690    0.1250 C   0  0  0  0  0  0  0  0  0  0  0  0
   -1.7610   -0.7650    0.6150 C   0  0  0  0  0  0  0  0  0  0  0  0
   -2.3840    0.4620    0.4630 O   0  0  0  0  0  0  0  0  0  0  0  0
   -3.5980    0.6080   -0.2310 C   0  0  2  0  0  0  0  0  0  0  0  0
   -3.4310    1.5430   -1.4330 C   0  0  0  0  0  0  0  0  0  0  0  0
   -4.6810    1.5290   -2.1050 O   0  0  0  0  0  0  0  0  0  0  0  0
   -5.8280    1.6570   -1.3520 C   0  0  0  0  0  0  0  0  0  0  0  0
   -6.9020    2.1480   -1.8310 O   0  0  0  0  0  0  0  0  0  0  0  0
   -5.8010    1.2050    0.0630 C   0  0  0  0  0  0  0  0  0  0  0  0
   -4.5220    1.2470    0.6100 O   0  0  0  0  0  0  0  0  0  0  0  0
    2.5000   -0.9430    0.3770 N   0  0  0  0  0  0  0  0  0  0  0  0
    3.6630   -1.4270   -0.3410 C   0  0  0  0  0  0  0  0  0  0  0  0
    4.8380   -0.5100   -0.2800 C   0  0  0  0  0  0  0  0  0  0  0  0
    4.5560    0.8540   -0.8600 C   0  0  0  0  0  0  0  0  0  0  0  0
    4.1890    0.7800   -2.1960 O   0  0  0  0  0  0  0  0  0  0  0  0
    3.9570    1.9740   -2.6520 O   0  0  0  0  0  0  0  0  0  0  0  0
  1  2  2  0
  2  3  1  0
  2 18  1  0
  3  4  1  0
  4  5  1  0
  5  6  2  0
  5  9  1  0
  6  7  1  0
  7  8  1  0
  8  9  2  0
  9 10  1  0
 11 10  1  1
 11 12  1  0
 11 17  1  0
 12 13  1  0
 13 14  1  0
 14 15  2  0
 14 16  1  0
 16 17  1  0
 18 19  1  0
 19 20  1  0
 20 21  1  0
 21 22  1  0
 22 23  1  0
M  END
