
     RDKit          3D

 23 23  0  0  0  0  0  0  0  0999 V2000
   -2.2650    3.3280    0.7490 C   0  0  0  0  0  0  0  0  0  0  0  0
   -1.0550    3.0430   -0.0800 C   0  0  0  0  0  0  0  0  0  0  0  0
   -0.9640    1.7200   -0.5350 O   0  0  0  0  0  0  0  0  0  0  0  0
   -0.9030    0.6180    0.3340 C   0  0  0  0  0  0  0  0  0  0  0  0
   -0.9310    0.8340    1.5730 O   0  0  0  0  0  0  0  0  0  0  0  0
   -0.8140   -0.7100   -0.2960 C   0  0  2  0  0  0  0  0  0  0  0  0
   -0.8410   -1.7640    0.6120 O   0  0  0  0  0  0  0  0  0  0  0  0
    0.3450   -0.8880   -1.2510 C   0  0  0  0  0  0  0  0  0  0  0  0
    1.5920   -1.0150   -0.7180 O   0  0  0  0  0  0  0  0  0  0  0  0
    2.3220   -0.1500    0.0230 C   0  0  0  0  0  0  0  0  0  0  0  0
    1.8320    0.9690    0.2970 O   0  0  0  0  0  0  0  0  0  0  0  0
    3.6820   -0.4840    0.5220 C   0  0  0  0  0  0  0  0  0  0  0  0
    4.3760   -1.6390    0.3290 C   0  0  0  0  0  0  0  0  0  0  0  0
    5.5310   -1.4960    0.9460 O   0  0  0  0  0  0  0  0  0  0  0  0
    5.6300   -0.3390    1.5190 C   0  0  0  0  0  0  0  0  0  0  0  0
    4.4650    0.3570    1.2780 C   0  0  0  0  0  0  0  0  0  0  0  0
    4.1490    1.6200    1.7010 O   0  0  0  0  0  0  0  0  0  0  0  0
    4.5180    2.7210    1.0480 O   0  0  0  0  0  0  0  0  0  0  0  0
   -2.0840   -0.8080   -1.1320 C   0  0  0  0  0  0  0  0  0  0  0  0
   -2.1880    0.0930   -2.0000 O   0  0  0  0  0  0  0  0  0  0  0  0
   -3.0560   -1.7900   -0.9710 N   0  0  0  0  0  0  0  0  0  0  0  0
   -4.2180   -1.7110   -1.8840 C   0  0  0  0  0  0  0  0  0  0  0  0
   -2.9840   -2.8500    0.0140 C   0  0  0  0  0  0  0  0  0  0  0  0
  1  2  1  0
  2  3  1  0
  3  4  1  0
  4  5  2  0
  4  6  1  0
  6  7  1  1
  6  8  1  0
  6 19  1  0
  8  9  1  0
  9 10  1  0
 10 11  2  0
 10 12  1  0
 12 13  2  0
 12 16  1  0
 13 14  1  0
 14 15  1  0
 15 16  2  0
 16 17  1  0
 17 18  1  0
 19 20  2  0
 19 21  1  0
 21 22  1  0
 21 23  1  0
M  END
