
     RDKit          3D

 22 22  0  0  0  0  0  0  0  0999 V2000
    0.8600    4.3280   -0.5340 C   0  0  0  0  0  0  0  0  0  0  0  0
    0.2670    3.0260   -1.0870 C   0  0  0  0  0  0  0  0  0  0  0  0
    1.2000    1.9000   -0.8220 C   0  0  0  0  0  0  0  0  0  0  0  0
    0.8940    0.8500   -0.1130 C   0  0  0  0  0  0  0  0  0  0  0  0
    1.8400   -0.1720    0.0890 N   0  0  0  0  0  0  0  0  0  0  0  0
    2.4530   -0.9170   -0.9990 C   0  0  0  0  0  0  0  0  0  0  0  0
    3.4110   -1.9280   -0.4180 C   0  0  0  0  0  0  0  0  0  0  0  0
    2.6630   -2.7730    0.4080 O   0  0  0  0  0  0  0  0  0  0  0  0
    3.7390   -3.9470    1.0910 P   0  0  0  0  0  0  0  0  0  0  0  0
    4.6330   -3.2060    2.3660 O   0  0  0  0  0  0  0  0  0  0  0  0
    4.8660   -4.5530   -0.0710 O   0  0  0  0  0  0  0  0  0  0  0  0
   -0.3540    0.7260    0.4470 O   0  0  0  0  0  0  0  0  0  0  0  0
   -1.4230    0.1590   -0.2670 C   0  0  0  0  0  0  0  0  0  0  0  0
   -2.6720    0.1530    0.5990 C   0  0  2  0  0  0  0  0  0  0  0  0
   -2.3970   -0.4210    1.9420 C   0  0  0  0  0  0  0  0  0  0  0  0
   -2.0580   -1.7640    1.9970 O   0  0  0  0  0  0  0  0  0  0  0  0
   -2.7950   -2.8450    1.6090 C   0  0  0  0  0  0  0  0  0  0  0  0
   -3.9410   -2.6610    1.1350 O   0  0  0  0  0  0  0  0  0  0  0  0
   -3.6990   -0.4010   -0.1110 O   0  0  0  0  0  0  0  0  0  0  0  0
   -4.0050    0.5660   -1.0630 C   0  0  0  0  0  0  0  0  0  0  0  0
   -3.6760    1.8870   -0.3940 C   0  0  0  0  0  0  0  0  0  0  0  0
   -3.0450    1.4880    0.7610 O   0  0  0  0  0  0  0  0  0  0  0  0
  1  2  1  0
  2  3  1  0
  3  4  2  3
  4  5  1  0
  4 12  1  0
  5  6  1  0
  6  7  1  0
  7  8  1  0
  8  9  1  0
  9 10  1  0
  9 11  1  0
 12 13  1  0
 14 13  1  6
 14 15  1  0
 14 19  1  0
 14 22  1  0
 15 16  1  0
 16 17  1  0
 17 18  2  0
 19 20  1  0
 20 21  1  0
 21 22  1  0
M  END
