
     RDKit          3D

 23 24  0  0  0  0  0  0  0  0999 V2000
   -0.4220   -2.7650    0.4100 O   0  0  0  0  0  0  0  0  0  0  0  0
   -0.1820   -2.6370    1.6340 C   0  0  0  0  0  0  0  0  0  0  0  0
    0.3220   -3.7210    2.3080 O   0  0  0  0  0  0  0  0  0  0  0  0
   -0.4540   -1.3300    2.2820 C   0  0  0  0  0  0  0  0  0  0  0  0
   -0.9970   -0.3800    1.2470 N   0  0  0  0  0  0  0  0  0  0  0  0
   -0.0120    0.3480    0.5940 C   0  0  0  0  0  0  0  0  0  0  0  0
   -0.2020    1.2240   -0.2400 O   0  0  0  0  0  0  0  0  0  0  0  0
    1.3430    0.0800    0.8970 O   0  0  0  0  0  0  0  0  0  0  0  0
    2.3230    0.7850    0.2670 O   0  0  0  0  0  0  0  0  0  0  0  0
    3.2120   -0.1040   -0.3790 C   0  0  0  0  0  0  0  0  0  0  0  0
    4.2560    0.7730   -1.0430 C   0  0  2  0  0  0  0  0  0  0  0  0
    5.3240    0.0210   -1.8040 C   0  0  0  0  0  0  0  0  0  0  0  0
    5.9420   -0.2470   -0.5750 O   0  0  0  0  0  0  0  0  0  0  0  0
    5.4700    1.0030   -0.1460 C   0  0  0  0  0  0  0  0  0  0  0  0
   -2.3690   -0.3050    1.1410 C   0  0  0  0  0  0  0  0  0  0  0  0
   -3.0110   -0.9720    2.1100 O   0  0  0  0  0  0  0  0  0  0  0  0
   -3.2990    0.3110    0.2540 C   0  0  0  0  0  0  0  0  0  0  0  0
   -4.6210    0.2540    0.5720 C   0  0  0  0  0  0  0  0  0  0  0  0
   -5.7490    0.8500   -0.2380 C   0  0  0  0  0  0  0  0  0  0  0  0
   -5.5220    2.2170   -0.3740 O   0  0  0  0  0  0  0  0  0  0  0  0
   -4.6060    2.5670   -1.2630 O   0  0  0  0  0  0  0  0  0  0  0  0
   -3.4660    1.8870   -1.6780 C   0  0  0  0  0  0  0  0  0  0  0  0
   -2.8610    0.8670   -1.0130 C   0  0  0  0  0  0  0  0  0  0  0  0
  1  2  2  0
  2  3  1  0
  2  4  1  0
  4  5  1  0
  5  6  1  0
  5 15  1  0
  6  7  2  0
  6  8  1  0
  8  9  1  0
  9 10  1  0
 11 10  1  1
 11 12  1  0
 11 14  1  0
 12 13  1  0
 13 14  1  0
 15 16  2  0
 15 17  1  0
 17 18  2  0
 17 23  1  0
 18 19  1  0
 19 20  1  0
 20 21  1  0
 21 22  1  0
 22 23  2  0
M  END
