
     RDKit          3D

 16 16  0  0  0  0  0  0  0  0999 V2000
    5.7720   -1.7980   -0.9370 O   0  0  0  0  0  0  0  0  0  0  0  0
    4.3470   -1.2180   -1.1260 P   0  0  0  0  0  0  0  0  0  0  0  0
    3.3470   -0.9000    0.2380 O   0  0  0  0  0  0  0  0  0  0  0  0
    2.0090   -0.7330   -0.2110 C   0  0  0  0  0  0  0  0  0  0  0  0
    1.1130   -0.4540    0.9670 C   0  0  0  0  0  0  0  0  0  0  0  0
   -0.1960   -0.2770    0.7420 O   0  0  0  0  0  0  0  0  0  0  0  0
   -0.6100    0.7190   -0.0440 C   0  0  1  0  0  0  0  0  0  0  0  0
   -2.1170    0.9110   -0.0730 C   0  0  0  0  0  0  0  0  0  0  0  0
   -2.8870   -0.1170   -0.5140 O   0  0  0  0  0  0  0  0  0  0  0  0
   -2.9940   -1.3420    0.0590 C   0  0  0  0  0  0  0  0  0  0  0  0
   -2.3480   -1.5840    1.0880 O   0  0  0  0  0  0  0  0  0  0  0  0
   -3.7960   -2.3760   -0.4340 O   0  0  0  0  0  0  0  0  0  0  0  0
   -0.0530    2.0460    0.4190 C   0  0  0  0  0  0  0  0  0  0  0  0
    0.6690    2.4780   -0.6920 O   0  0  0  0  0  0  0  0  0  0  0  0
    0.1290    1.8710   -1.7270 O   0  0  0  0  0  0  0  0  0  0  0  0
   -0.1100    0.6390   -1.3450 O   0  0  0  0  0  0  0  0  0  0  0  0
  1  2  2  0
  2  3  1  0
  3  4  1  0
  4  5  1  0
  5  6  1  0
  6  7  1  0
  7  8  1  6
  7 13  1  0
  7 16  1  0
  8  9  1  0
  9 10  1  0
 10 11  2  0
 10 12  1  0
 13 14  1  0
 14 15  1  0
 15 16  1  0
M  END
