
     RDKit          3D

 28 28  0  0  0  0  0  0  0  0999 V2000
   -7.7140    1.3930    3.4380 C   0  0  0  0  0  0  0  0  0  0  0  0
   -7.7050    0.2050    2.7110 O   0  0  0  0  0  0  0  0  0  0  0  0
   -6.7490   -0.2120    1.8170 C   0  0  0  0  0  0  0  0  0  0  0  0
   -5.6290    0.5060    1.5020 C   0  0  0  0  0  0  0  0  0  0  0  0
   -4.6960    0.0190    0.5800 C   0  0  0  0  0  0  0  0  0  0  0  0
   -4.8680   -1.1970   -0.0420 C   0  0  0  0  0  0  0  0  0  0  0  0
   -3.9180   -1.7350   -1.0060 C   0  0  0  0  0  0  0  0  0  0  0  0
   -4.1850   -2.8490   -1.5500 O   0  0  0  0  0  0  0  0  0  0  0  0
   -2.7130   -1.1040   -1.3830 N   0  0  0  0  0  0  0  0  0  0  0  0
   -1.8470   -1.7460   -2.3600 C   0  0  0  0  0  0  0  0  0  0  0  0
   -0.6170   -0.9320   -2.6360 C   0  0  0  0  0  0  0  0  0  0  0  0
    0.2130   -0.6970   -1.4930 N   0  0  0  0  0  0  0  0  0  0  0  0
    1.3360    0.0940   -1.8810 C   0  0  2  0  0  0  0  0  0  0  0  0
    2.2390   -0.5660   -2.9050 C   0  0  0  0  0  0  0  0  0  0  0  0
    2.2220    0.4530   -0.7030 C   0  0  0  0  0  0  0  0  0  0  0  0
    3.3790    1.2710   -1.1220 C   0  0  0  0  0  0  0  0  0  0  0  0
    3.1620    2.3640   -1.7050 O   0  0  0  0  0  0  0  0  0  0  0  0
    4.7220    0.8870   -0.9010 N   0  0  0  0  0  0  0  0  0  0  0  0
    5.8310    1.7440   -1.3250 C   0  0  0  0  0  0  0  0  0  0  0  0
    5.0570   -0.3640   -0.2600 C   0  0  0  0  0  0  0  0  0  0  0  0
    5.2000   -0.2330    1.5720 P   0  0  0  0  0  0  0  0  0  0  0  0
    3.7720   -0.7990    2.3290 O   0  0  0  0  0  0  0  0  0  0  0  0
    5.5420    1.3900    2.1330 O   0  0  0  0  0  0  0  0  0  0  0  0
    6.7310    1.7350    2.7110 C   0  0  0  0  0  0  0  0  0  0  0  0
    7.6270    0.8380    2.8460 O   0  0  0  0  0  0  0  0  0  0  0  0
    7.0020    3.0090    3.1550 O   0  0  0  0  0  0  0  0  0  0  0  0
   -6.0030   -1.9010    0.2930 C   0  0  0  0  0  0  0  0  0  0  0  0
   -6.9330   -1.4370    1.1980 C   0  0  0  0  0  0  0  0  0  0  0  0
  1  2  1  0
  2  3  1  0
  3  4  2  0
  3 28  1  0
  4  5  1  0
  5  6  2  0
  6  7  1  0
  6 27  1  0
  7  8  2  0
  7  9  1  0
  9 10  1  0
 10 11  1  0
 11 12  1  0
 12 13  1  0
 13 14  1  6
 13 15  1  0
 15 16  1  0
 16 17  2  0
 16 18  1  0
 18 19  1  0
 18 20  1  0
 20 21  1  0
 21 22  1  0
 21 23  1  0
 23 24  1  0
 24 25  2  0
 24 26  1  0
 27 28  2  0
M  END
