
     RDKit          3D

 21 22  0  0  0  0  0  0  0  0999 V2000
    5.9100    1.7460   -0.1090 N   0  0  0  0  0  0  0  0  0  0  0  0
    4.7230    1.2390   -0.2050 C   0  0  0  0  0  0  0  0  0  0  0  0
    4.2190    0.3800    0.7510 C   0  0  0  0  0  0  0  0  0  0  0  0
    2.9620   -0.1170    0.5880 C   0  0  0  0  0  0  0  0  0  0  0  0
    2.1990    0.2010   -0.4710 N   0  0  0  0  0  0  0  0  0  0  0  0
    0.8870   -0.3580   -0.5790 C   0  0  1  0  0  0  0  0  0  0  0  0
    0.7040   -1.3610    0.3350 O   0  0  0  0  0  0  0  0  0  0  0  0
   -0.6260   -1.4720    0.6350 C   0  0  2  0  0  0  0  0  0  0  0  0
   -1.2220   -2.7660    0.1060 C   0  0  0  0  0  0  0  0  0  0  0  0
   -0.5480   -3.8340    0.6800 O   0  0  0  0  0  0  0  0  0  0  0  0
   -1.3390   -0.2680    0.1230 C   0  0  1  0  0  0  0  0  0  0  0  0
   -2.2010    0.2790    1.0360 O   0  0  0  0  0  0  0  0  0  0  0  0
   -3.7160    0.5500    0.5820 P   0  0  0  0  0  0  0  0  0  0  0  0
   -4.9940    0.0780    1.5630 O   0  0  0  0  0  0  0  0  0  0  0  0
   -3.7710    1.9670    1.1270 O   0  0  0  0  0  0  0  0  0  0  0  0
   -4.0630    1.0960   -0.9690 O   0  0  0  0  0  0  0  0  0  0  0  0
   -0.2010    0.6640   -0.2430 C   0  0  2  0  0  0  0  0  0  0  0  0
   -0.5090    1.3980   -1.3910 O   0  0  0  0  0  0  0  0  0  0  0  0
    2.6810    1.0320   -1.4010 C   0  0  0  0  0  0  0  0  0  0  0  0
    1.9710    1.3350   -2.3970 O   0  0  0  0  0  0  0  0  0  0  0  0
    3.9140    1.5270   -1.2510 N   0  0  0  0  0  0  0  0  0  0  0  0
  1  2  2  0
  2  3  1  0
  2 21  1  0
  3  4  2  0
  4  5  1  0
  6  5  1  1
  5 19  1  0
  6  7  1  0
  6 17  1  0
  7  8  1  0
  8  9  1  6
  8 11  1  0
  9 10  1  0
 11 12  1  1
 11 17  1  0
 12 13  1  0
 13 14  1  0
 13 15  1  0
 13 16  1  0
 17 18  1  6
 19 20  2  0
 19 21  1  0
M  END
