
     RDKit          3D

 15 15  0  0  0  0  0  0  0  0999 V2000
   -0.2730   -1.2470   -0.2960 O   0  0  0  0  0  0  0  0  0  0  0  0
   -0.5860   -0.3270   -1.0940 C   0  0  0  0  0  0  0  0  0  0  0  0
    0.2170   -0.0830   -2.1780 O   0  0  0  0  0  0  0  0  0  0  0  0
    1.3960   -0.7960   -2.4840 C   0  0  0  0  0  0  0  0  0  0  0  0
    2.4240   -0.6900   -1.3780 C   0  0  0  0  0  0  0  0  0  0  0  0
    2.7910    0.6350   -1.1510 O   0  0  0  0  0  0  0  0  0  0  0  0
    3.9550    0.7390    0.1050 P   0  0  0  0  0  0  0  0  0  0  0  0
    4.7410   -0.8080    0.3320 O   0  0  0  0  0  0  0  0  0  0  0  0
    3.2900    1.2130    1.6170 O   0  0  0  0  0  0  0  0  0  0  0  0
   -1.7450    0.3910   -0.8130 O   0  0  0  0  0  0  0  0  0  0  0  0
   -2.5490    0.1290    0.2950 C   0  0  1  0  0  0  0  0  0  0  0  0
   -2.7060    1.3250    1.2090 C   0  0  0  0  0  0  0  0  0  0  0  0
   -3.9050    1.0550    1.8450 O   0  0  0  0  0  0  0  0  0  0  0  0
   -4.4940   -0.0180    1.2180 C   0  0  0  0  0  0  0  0  0  0  0  0
   -3.8890   -0.1170   -0.0540 O   0  0  0  0  0  0  0  0  0  0  0  0
  1  2  2  0
  2  3  1  0
  2 10  1  0
  3  4  1  0
  4  5  1  0
  5  6  1  0
  6  7  1  0
  7  8  1  0
  7  9  1  0
 11 10  1  6
 11 12  1  0
 11 15  1  0
 12 13  1  0
 13 14  1  0
 14 15  1  0
M  END
