
     RDKit          3D

 28 28  0  0  0  0  0  0  0  0999 V2000
   -5.2650    2.6600    4.7380 C   0  0  0  0  0  0  0  0  0  0  0  0
   -5.4960    1.7510    3.7840 C   0  0  0  0  0  0  0  0  0  0  0  0
   -5.2030    0.9410    2.8260 C   0  0  0  0  0  0  0  0  0  0  0  0
   -6.0470    0.2210    2.0800 C   0  0  0  0  0  0  0  0  0  0  0  0
   -3.7430    0.6490    2.3830 C   0  0  0  0  0  0  0  0  0  0  0  0
   -2.8080    1.1870    3.0310 O   0  0  0  0  0  0  0  0  0  0  0  0
   -3.4550   -0.1630    1.2920 N   0  0  0  0  0  0  0  0  0  0  0  0
   -2.1200   -0.4540    0.8280 C   0  0  0  0  0  0  0  0  0  0  0  0
   -1.0400   -0.6390    1.6470 C   0  0  0  0  0  0  0  0  0  0  0  0
    0.2220   -0.9590    1.1960 C   0  0  0  0  0  0  0  0  0  0  0  0
    0.4390   -1.1010   -0.1720 C   0  0  0  0  0  0  0  0  0  0  0  0
    1.6330   -1.4060   -0.7460 O   0  0  0  0  0  0  0  0  0  0  0  0
    2.8970   -1.6200   -0.2550 C   0  0  0  0  0  0  0  0  0  0  0  0
    3.4880   -0.4100    0.4270 C   0  0  0  0  0  0  0  0  0  0  0  0
    4.7300   -0.6560    0.9010 O   0  0  0  0  0  0  0  0  0  0  0  0
    5.7710   -0.8000    0.0400 C   0  0  0  0  0  0  0  0  0  0  0  0
    6.1150    0.4960   -0.6890 C   0  0  1  0  0  0  0  0  0  0  0  0
    6.4160    1.4330    0.3260 O   0  0  0  0  0  0  0  0  0  0  0  0
    7.6370    0.2830   -1.7270 P   0  0  0  0  0  0  0  0  0  0  0  0
    8.0260   -1.3640   -2.0150 O   0  0  0  0  0  0  0  0  0  0  0  0
    8.9760    1.1360   -1.1240 O   0  0  0  0  0  0  0  0  0  0  0  0
   -0.6630   -0.9110   -0.9950 C   0  0  0  0  0  0  0  0  0  0  0  0
   -1.9020   -0.6010   -0.5470 C   0  0  0  0  0  0  0  0  0  0  0  0
   -3.0510   -0.3980   -1.3930 N   0  0  0  0  0  0  0  0  0  0  0  0
   -2.9720   -0.0470   -2.7620 C   0  0  0  0  0  0  0  0  0  0  0  0
   -1.8780    0.0830   -3.3240 O   0  0  0  0  0  0  0  0  0  0  0  0
   -4.1380    0.1780   -3.5600 N   0  0  0  0  0  0  0  0  0  0  0  0
   -3.9360    0.5780   -4.9900 C   0  0  0  0  0  0  0  0  0  0  0  0
  1  2  2  0
  2  3  1  0
  3  4  2  0
  3  5  1  0
  5  6  2  0
  5  7  1  0
  7  8  1  0
  8  9  2  0
  8 23  1  0
  9 10  1  0
 10 11  2  0
 11 12  1  0
 11 22  1  0
 12 13  1  0
 13 14  1  0
 14 15  1  0
 15 16  1  0
 16 17  1  0
 17 18  1  1
 17 19  1  0
 19 20  1  0
 19 21  1  0
 22 23  2  0
 23 24  1  0
 24 25  1  0
 25 26  2  0
 25 27  1  0
 27 28  1  0
M  END
