
     RDKit          3D

 28 28  0  0  0  0  0  0  0  0999 V2000
    9.5770    0.6620   -2.2740 C   0  0  0  0  0  0  0  0  0  0  0  0
    9.5630   -0.0210   -0.9490 C   0  0  0  0  0  0  0  0  0  0  0  0
    8.3710    0.1680   -0.2190 O   0  0  0  0  0  0  0  0  0  0  0  0
    7.1240   -0.2340   -0.7030 C   0  0  0  0  0  0  0  0  0  0  0  0
    7.1180   -0.7770   -1.8290 O   0  0  0  0  0  0  0  0  0  0  0  0
    5.9130   -0.0200    0.0830 C   0  0  0  0  0  0  0  0  0  0  0  0
    5.9850    0.5850    1.3190 C   0  0  0  0  0  0  0  0  0  0  0  0
    4.8710    0.8080    2.0940 C   0  0  0  0  0  0  0  0  0  0  0  0
    3.5970    0.4220    1.6520 C   0  0  0  0  0  0  0  0  0  0  0  0
    3.5110   -0.1790    0.4260 C   0  0  0  0  0  0  0  0  0  0  0  0
    2.2760   -0.5890   -0.1210 N   0  0  0  0  0  0  0  0  0  0  0  0
    0.9950   -0.2450    0.3090 C   0  0  0  0  0  0  0  0  0  0  0  0
    0.8510    0.5110    1.2710 O   0  0  0  0  0  0  0  0  0  0  0  0
   -0.2000   -0.7230   -0.3050 N   0  0  0  0  0  0  0  0  0  0  0  0
   -1.5180   -0.4160    0.0880 C   0  0  0  0  0  0  0  0  0  0  0  0
   -1.9600   -0.8170    1.4480 C   0  0  1  0  0  0  0  0  0  0  0  0
   -1.2410   -0.2610    2.4920 O   0  0  0  0  0  0  0  0  0  0  0  0
   -3.4000   -0.4430    1.6940 C   0  0  0  0  0  0  0  0  0  0  0  0
   -3.7620    0.2450    2.6820 O   0  0  0  0  0  0  0  0  0  0  0  0
   -4.4280   -0.8600    0.8020 N   0  0  0  0  0  0  0  0  0  0  0  0
   -5.8150   -0.5130    1.0160 C   0  0  0  0  0  0  0  0  0  0  0  0
   -6.0540    0.9750    1.0340 C   0  0  0  0  0  0  0  0  0  0  0  0
   -5.6310    1.5950   -0.2950 C   0  0  0  0  0  0  0  0  0  0  0  0
   -6.6310    0.8280   -1.6670 P   0  0  0  0  0  0  0  0  0  0  0  0
   -6.0090   -0.7250   -2.0450 O   0  0  0  0  0  0  0  0  0  0  0  0
   -8.3080    0.8330   -1.3110 O   0  0  0  0  0  0  0  0  0  0  0  0
   -8.9080   -0.4120   -1.6070 C   0  0  0  0  0  0  0  0  0  0  0  0
    4.6750   -0.3950   -0.3490 C   0  0  0  0  0  0  0  0  0  0  0  0
  1  2  1  0
  2  3  1  0
  3  4  1  0
  4  5  2  0
  4  6  1  0
  6  7  2  0
  6 28  1  0
  7  8  1  0
  8  9  2  0
  9 10  1  0
 10 11  1  0
 10 28  2  0
 11 12  1  0
 12 13  2  0
 12 14  1  0
 14 15  1  0
 15 16  1  0
 16 17  1  1
 16 18  1  0
 18 19  2  0
 18 20  1  0
 20 21  1  0
 21 22  1  0
 22 23  1  0
 23 24  1  0
 24 25  1  0
 24 26  1  0
 26 27  1  0
M  END
