
     RDKit          3D

 10  9  0  0  0  0  0  0  0  0999 V2000
    4.1870    0.6930    0.0710 C   0  0  0  0  0  0  0  0  0  0  0  0
    3.2170   -0.2350   -0.3240 O   0  0  0  0  0  0  0  0  0  0  0  0
    2.0220    0.1710    0.0100 O   0  0  0  0  0  0  0  0  0  0  0  0
    1.3340    0.6730   -0.9680 O   0  0  0  0  0  0  0  0  0  0  0  0
    0.2670   -0.0280   -1.3120 O   0  0  0  0  0  0  0  0  0  0  0  0
   -0.6750   -0.5130   -0.4030 C   0  0  0  0  0  0  0  0  0  0  0  0
   -0.3740   -1.8170    0.2420 C   0  0  0  0  0  0  0  0  0  0  0  0
   -1.7860    0.1670   -0.1330 C   0  0  0  0  0  0  0  0  0  0  0  0
   -2.1240    1.4510   -0.7430 C   0  0  0  0  0  0  0  0  0  0  0  0
   -2.7290   -0.4230    0.8440 C   0  0  0  0  0  0  0  0  0  0  0  0
  1  2  1  0
  2  3  1  0
  3  4  1  0
  4  5  1  0
  5  6  1  0
  6  7  1  0
  6  8  2  3
  8  9  1  0
  8 10  1  0
M  END
