
     RDKit          3D

 11 10  0  0  0  0  0  0  0  0999 V2000
   -3.2760   -0.0800   -0.2140 C   0  0  0  0  0  0  0  0  0  0  0  0
   -2.0520   -0.9900   -0.1100 C   0  0  0  0  0  0  0  0  0  0  0  0
   -1.0160   -0.3930    0.7190 C   0  0  0  0  0  0  0  0  0  0  0  0
    0.1890   -0.0790    0.3460 C   0  0  0  0  0  0  0  0  0  0  0  0
    0.7810   -0.2450   -0.9630 C   0  0  0  0  0  0  0  0  0  0  0  0
    0.1630   -0.7380   -1.9470 O   0  0  0  0  0  0  0  0  0  0  0  0
    1.0760    0.5050    1.3130 O   0  0  0  0  0  0  0  0  0  0  0  0
    2.3840    0.1340    1.2990 O   0  0  0  0  0  0  0  0  0  0  0  0
    3.3300    1.0120    0.7990 C   0  0  0  0  0  0  0  0  0  0  0  0
    2.9400    2.1220    0.3760 O   0  0  0  0  0  0  0  0  0  0  0  0
    4.6830    0.7420    0.7360 O   0  0  0  0  0  0  0  0  0  0  0  0
  1  2  1  0
  2  3  1  0
  3  4  2  3
  4  5  1  0
  4  7  1  0
  5  6  2  0
  7  8  1  0
  8  9  1  0
  9 10  2  0
  9 11  1  0
M  END
