
     RDKit          3D

 10  9  0  0  0  0  0  0  0  0999 V2000
   -1.5670   -0.9700   -1.1340 C   0  0  0  0  0  0  0  0  0  0  0  0
   -1.2730    0.1250   -0.5030 C   0  0  0  0  0  0  0  0  0  0  0  0
   -2.3460    1.1890   -0.4410 C   0  0  0  0  0  0  0  0  0  0  0  0
   -0.0350    0.4330    0.1440 C   0  0  0  0  0  0  0  0  0  0  0  0
    0.1210    1.5660    0.7380 O   0  0  0  0  0  0  0  0  0  0  0  0
    1.1330   -0.4270    0.2170 C   0  0  0  0  0  0  0  0  0  0  0  0
    1.0820   -1.5530   -0.3300 O   0  0  0  0  0  0  0  0  0  0  0  0
    2.3150   -0.0510    0.8730 O   0  0  0  0  0  0  0  0  0  0  0  0
    3.3300   -0.9240    0.8770 O   0  0  0  0  0  0  0  0  0  0  0  0
    4.0400   -0.7570   -0.2090 O   0  0  0  0  0  0  0  0  0  0  0  0
  1  2  2  0
  2  3  1  0
  2  4  1  0
  4  5  2  0
  4  6  1  0
  6  7  2  0
  6  8  1  0
  8  9  1  0
  9 10  1  0
M  END
