
     RDKit          3D

  9  8  0  0  0  0  0  0  0  0999 V2000
   -2.7900   -0.2140    1.3680 C   0  0  0  0  0  0  0  0  0  0  0  0
   -1.8240   -0.0550    0.4930 C   0  0  0  0  0  0  0  0  0  0  0  0
   -2.1450    0.0210   -0.9520 C   0  0  0  0  0  0  0  0  0  0  0  0
   -0.4530    0.0430    0.9520 C   0  0  0  0  0  0  0  0  0  0  0  0
   -0.2010   -0.0230    2.1780 O   0  0  0  0  0  0  0  0  0  0  0  0
    0.6260    0.2120    0.0930 O   0  0  0  0  0  0  0  0  0  0  0  0
    1.8950    0.3000    0.5560 O   0  0  0  0  0  0  0  0  0  0  0  0
    2.6680    0.9040   -0.3090 O   0  0  0  0  0  0  0  0  0  0  0  0
    3.6420   -0.0230   -0.7190 C   0  0  0  0  0  0  0  0  0  0  0  0
  1  2  2  0
  2  3  1  0
  2  4  1  0
  4  5  2  0
  4  6  1  0
  6  7  1  0
  7  8  1  0
  8  9  1  0
M  END
