
     RDKit          3D

 10  9  0  0  0  0  0  0  0  0999 V2000
   -2.4150   -1.0780    0.1360 C   0  0  0  0  0  0  0  0  0  0  0  0
   -1.2380   -0.1900    0.4620 C   0  0  0  0  0  0  0  0  0  0  0  0
   -1.4150    0.7640    1.5250 C   0  0  0  0  0  0  0  0  0  0  0  0
   -2.5470    0.7930    2.1150 O   0  0  0  0  0  0  0  0  0  0  0  0
   -0.1610   -0.3530   -0.2370 C   0  0  0  0  0  0  0  0  0  0  0  0
    1.0700    0.3880   -0.0890 C   0  0  0  0  0  0  0  0  0  0  0  0
    1.2650    1.3030    0.7500 O   0  0  0  0  0  0  0  0  0  0  0  0
    2.1520    0.0620   -0.9570 O   0  0  0  0  0  0  0  0  0  0  0  0
    3.2670    0.7730   -0.7820 O   0  0  0  0  0  0  0  0  0  0  0  0
    4.0890    0.2220    0.0730 O   0  0  0  0  0  0  0  0  0  0  0  0
  1  2  1  0
  2  3  1  0
  2  5  2  3
  3  4  2  0
  5  6  1  0
  6  7  2  0
  6  8  1  0
  8  9  1  0
  9 10  1  0
M  END
