
     RDKit          3D

 10  9  0  0  0  0  0  0  0  0999 V2000
   -3.0700   -0.6760   -1.1990 C   0  0  0  0  0  0  0  0  0  0  0  0
   -2.8110    0.6660   -0.9610 O   0  0  0  0  0  0  0  0  0  0  0  0
   -1.4980    0.8560   -1.1320 O   0  0  0  0  0  0  0  0  0  0  0  0
   -0.6320    0.3860   -0.1620 C   0  0  0  0  0  0  0  0  0  0  0  0
   -1.1320   -0.1950    0.8310 O   0  0  0  0  0  0  0  0  0  0  0  0
    0.8250    0.5500   -0.2670 C   0  0  0  0  0  0  0  0  0  0  0  0
    1.2660    1.1340   -1.2740 O   0  0  0  0  0  0  0  0  0  0  0  0
    1.6790    0.0300    0.7930 C   0  0  0  0  0  0  0  0  0  0  0  0
    3.1430    0.2250    0.6320 C   0  0  0  0  0  0  0  0  0  0  0  0
    1.2090   -0.5590    1.8050 O   0  0  0  0  0  0  0  0  0  0  0  0
  1  2  1  0
  2  3  1  0
  3  4  1  0
  4  5  2  0
  4  6  1  0
  6  7  2  0
  6  8  1  0
  8  9  1  0
  8 10  2  0
M  END
