
     RDKit          3D

  9  8  0  0  0  0  0  0  0  0999 V2000
   -1.0610    1.6110   -0.0000 C   0  0  0  0  0  0  0  0  0  0  0  0
   -0.6090    0.5490    0.6370 C   0  0  0  0  0  0  0  0  0  0  0  0
    0.4850    0.6740    1.4560 O   0  0  0  0  0  0  0  0  0  0  0  0
    1.6650    0.9910    0.8830 O   0  0  0  0  0  0  0  0  0  0  0  0
    2.3570   -0.1090    0.8190 O   0  0  0  0  0  0  0  0  0  0  0  0
    2.9120   -0.3300   -0.4160 C   0  0  0  0  0  0  0  0  0  0  0  0
   -1.2330   -0.7650    0.5030 C   0  0  0  0  0  0  0  0  0  0  0  0
   -2.4240   -0.8790   -0.3940 C   0  0  0  0  0  0  0  0  0  0  0  0
   -0.7820   -1.7550    1.1190 O   0  0  0  0  0  0  0  0  0  0  0  0
  1  2  2  0
  2  3  1  0
  2  7  1  0
  3  4  1  0
  4  5  1  0
  5  6  1  0
  7  8  1  0
  7  9  2  0
M  END
