
     RDKit          3D

 47 51  0  0  0  0  0  0  0  0999 V2000
   -6.0560    3.5350   -1.7580 C   0  0  0  0  0  0  0  0  0  0  0  0
   -6.1030    2.8260   -0.6350 O   0  0  0  0  0  0  0  0  0  0  0  0
   -7.0400    2.8070    0.3050 C   0  0  0  0  0  0  0  0  0  0  0  0
   -8.3790    2.1860   -0.2130 C   0  0  0  0  0  0  0  0  0  0  0  0
   -7.9270    0.8110   -0.6470 N   0  0  0  0  0  0  0  0  0  0  0  0
   -7.8130    0.5970   -2.0780 C   0  0  0  0  0  0  0  0  0  0  0  0
   -7.6690   -0.1780    0.3200 C   0  0  0  0  0  0  0  0  0  0  0  0
   -7.7310   -0.1730    1.4580 O   0  0  0  0  0  0  0  0  0  0  0  0
   -7.1970   -1.4680   -0.4550 C   0  0  0  0  0  0  0  0  0  0  0  0
   -8.1950   -2.0810   -1.0150 C   0  0  0  0  0  0  0  0  0  0  0  0
   -7.9700   -3.1490   -1.9240 C   0  0  0  0  0  0  0  0  0  0  0  0
   -6.6700   -3.4900   -2.1710 C   0  0  0  0  0  0  0  0  0  0  0  0
   -5.6430   -2.7590   -1.4760 C   0  0  0  0  0  0  0  0  0  0  0  0
   -5.8800   -1.7020   -0.5770 C   0  0  0  0  0  0  0  0  0  0  0  0
   -4.7370   -1.1950    0.0740 N   0  0  0  0  0  0  0  0  0  0  0  0
   -3.4390   -1.1880   -0.6830 C   0  0  0  0  0  0  0  0  0  0  0  0
   -3.3800   -0.9480   -1.8840 O   0  0  0  0  0  0  0  0  0  0  0  0
   -2.4060   -1.5230    0.3180 C   0  0  1  0  0  0  0  0  0  0  0  0
   -1.0550   -1.5520    0.0180 N   0  0  0  0  0  0  0  0  0  0  0  0
   -0.4650   -2.9500   -0.0910 C   0  0  0  0  0  0  0  0  0  0  0  0
   -0.1790   -0.5540   -0.3340 C   0  0  0  0  0  0  0  0  0  0  0  0
   -0.9990    0.5830   -0.7480 O   0  0  0  0  0  0  0  0  0  0  0  0
    1.1250   -0.0810   -0.4870 C   0  0  0  0  0  0  0  0  0  0  0  0
    2.2170   -0.7010   -0.3120 O   0  0  0  0  0  0  0  0  0  0  0  0
    3.3630   -1.3360   -0.1330 C   0  0  0  0  0  0  0  0  0  0  0  0
    4.4840   -0.4150   -0.4390 C   0  0  0  0  0  0  0  0  0  0  0  0
    5.7990   -0.8940   -0.3230 C   0  0  0  0  0  0  0  0  0  0  0  0
    6.8970    0.0690   -0.6330 C   0  0  0  0  0  0  0  0  0  0  0  0
    7.3720    0.7910    0.5280 N   0  0  0  0  0  0  0  0  0  0  0  0
    8.2840    1.9020    0.2710 C   0  0  0  0  0  0  0  0  0  0  0  0
    8.2080    2.5350   -0.9630 C   0  0  0  0  0  0  0  0  0  0  0  0
    9.0930    3.5380   -1.1880 C   0  0  0  0  0  0  0  0  0  0  0  0
   10.0400    4.0050   -0.3950 C   0  0  0  0  0  0  0  0  0  0  0  0
   10.1030    3.3540    0.8830 C   0  0  0  0  0  0  0  0  0  0  0  0
    9.2440    2.3280    1.2260 C   0  0  0  0  0  0  0  0  0  0  0  0
    9.5390    1.9260    2.6240 C   0  0  0  0  0  0  0  0  0  0  0  0
    8.8880    0.9930    3.1380 O   0  0  0  0  0  0  0  0  0  0  0  0
   10.5550    2.7740    3.0580 N   0  0  0  0  0  0  0  0  0  0  0  0
   11.0830    3.5490    1.9780 C   0  0  0  0  0  0  0  0  0  0  0  0
    6.1240   -2.1660    0.0460 C   0  0  0  0  0  0  0  0  0  0  0  0
    4.9630   -3.0700    0.3440 C   0  0  0  0  0  0  0  0  0  0  0  0
    3.7640   -2.4980    0.2190 C   0  0  0  0  0  0  0  0  0  0  0  0
    2.6310   -3.3680    0.6260 O   0  0  0  0  0  0  0  0  0  0  0  0
    3.1420   -4.4400    1.4950 C   0  0  0  0  0  0  0  0  0  0  0  0
   -2.8200   -0.6480    1.4210 C   0  0  0  0  0  0  0  0  0  0  0  0
   -4.3880   -0.7480    1.3650 C   0  0  1  0  0  0  0  0  0  0  0  0
   -4.7630    0.6100    1.8620 C   0  0  0  0  0  0  0  0  0  0  0  0
  1  2  1  0
  2  3  1  0
  3  4  1  0
  4  5  1  0
  5  6  1  0
  5  7  1  0
  7  8  2  0
  7  9  1  0
  9 10  2  0
  9 14  1  0
 10 11  1  0
 11 12  2  0
 12 13  1  0
 13 14  2  0
 14 15  1  0
 15 16  1  0
 15 46  1  0
 16 17  2  0
 16 18  1  0
 18 19  1  6
 18 45  1  0
 19 20  1  0
 19 21  1  0
 21 22  2  0
 21 23  1  0
 23 24  1  0
 24 25  1  0
 25 26  2  0
 25 42  1  0
 26 27  1  0
 27 28  1  0
 27 40  2  0
 28 29  1  0
 29 30  1  0
 30 31  2  0
 30 35  1  0
 31 32  1  0
 32 33  2  0
 33 34  1  0
 34 35  2  0
 34 39  1  0
 35 36  1  0
 36 37  2  0
 36 38  1  0
 38 39  1  0
 40 41  1  0
 41 42  2  0
 42 43  1  0
 43 44  1  0
 45 46  1  0
 46 47  1  6
M  END
