
     RDKit          3D

 46 49  0  0  0  0  0  0  0  0999 V2000
   -4.9470    4.8240    1.0910 C   0  0  0  0  0  0  0  0  0  0  0  0
   -4.1670    3.8360    0.2780 C   0  0  0  0  0  0  0  0  0  0  0  0
   -3.5920    2.7670    1.0820 N   0  0  0  0  0  0  0  0  0  0  0  0
   -4.2630    1.5680    1.4510 C   0  0  0  0  0  0  0  0  0  0  0  0
   -4.1110    0.3780    0.5950 C   0  0  0  0  0  0  0  0  0  0  0  0
   -4.7660    0.5940   -1.0530 S   0  0  0  0  0  0  0  0  0  0  0  0
   -6.5270    0.5930   -1.1570 C   0  0  0  0  0  0  0  0  0  0  0  0
   -7.2730    1.7270   -1.0980 C   0  0  0  0  0  0  0  0  0  0  0  0
   -8.6580    1.7300   -1.1820 C   0  0  0  0  0  0  0  0  0  0  0  0
   -9.3140    0.5440   -1.3330 C   0  0  0  0  0  0  0  0  0  0  0  0
   -8.5800   -0.6110   -1.3950 C   0  0  0  0  0  0  0  0  0  0  0  0
   -7.2130   -0.6070   -1.3110 C   0  0  0  0  0  0  0  0  0  0  0  0
   -6.4440   -1.8800   -1.3640 C   0  0  1  0  0  0  0  0  0  0  0  0
   -7.3930   -3.0720   -1.4300 C   0  0  0  0  0  0  0  0  0  0  0  0
   -5.4290   -1.9330   -2.4630 C   0  0  0  0  0  0  0  0  0  0  0  0
   -2.2810    3.0130    1.5680 C   0  0  0  0  0  0  0  0  0  0  0  0
   -1.6810    4.1210    1.3480 O   0  0  0  0  0  0  0  0  0  0  0  0
   -1.5770    2.0140    2.3300 C   0  0  0  0  0  0  0  0  0  0  0  0
   -1.5830    1.7440    3.6810 C   0  0  0  0  0  0  0  0  0  0  0  0
   -2.4330    2.4460    4.7010 C   0  0  0  0  0  0  0  0  0  0  0  0
   -0.7240    0.7860    3.8690 O   0  0  0  0  0  0  0  0  0  0  0  0
   -0.1520    0.4020    2.7530 C   0  0  0  0  0  0  0  0  0  0  0  0
    0.8730   -0.6740    2.6530 C   0  0  0  0  0  0  0  0  0  0  0  0
   -0.6530    1.1530    1.7130 C   0  0  0  0  0  0  0  0  0  0  0  0
   -0.2700    1.0690    0.3110 C   0  0  0  0  0  0  0  0  0  0  0  0
    0.7000    1.7970   -0.1300 O   0  0  0  0  0  0  0  0  0  0  0  0
   -0.8420    0.2710   -0.6480 O   0  0  0  0  0  0  0  0  0  0  0  0
   -0.5280    0.1520   -1.9830 C   0  0  0  0  0  0  0  0  0  0  0  0
    0.8150   -0.3080   -2.3410 C   0  0  0  0  0  0  0  0  0  0  0  0
    1.0800   -0.3000   -3.5890 O   0  0  0  0  0  0  0  0  0  0  0  0
    1.8290   -0.7510   -1.4730 N   0  0  0  0  0  0  0  0  0  0  0  0
    3.1230   -1.1850   -1.7830 C   0  0  0  0  0  0  0  0  0  0  0  0
    3.6230   -1.3650   -3.0320 C   0  0  0  0  0  0  0  0  0  0  0  0
    4.9540   -1.7780   -3.2330 C   0  0  0  0  0  0  0  0  0  0  0  0
    5.7800   -2.0110   -2.1600 C   0  0  0  0  0  0  0  0  0  0  0  0
    5.2870   -1.8340   -0.8810 C   0  0  0  0  0  0  0  0  0  0  0  0
    6.1900   -2.0740    0.2610 C   0  0  0  0  0  0  0  0  0  0  0  0
    5.7540   -2.5630    1.3390 O   0  0  0  0  0  0  0  0  0  0  0  0
    7.5690   -1.7630    0.1870 N   0  0  0  0  0  0  0  0  0  0  0  0
    8.4440   -2.0080    1.3100 C   0  0  0  0  0  0  0  0  0  0  0  0
    9.8530   -1.5370    0.9220 C   0  0  1  0  0  0  0  0  0  0  0  0
   10.3470   -2.2580   -0.2820 C   0  0  0  0  0  0  0  0  0  0  0  0
   11.2060   -1.1860   -0.9610 C   0  0  0  0  0  0  0  0  0  0  0  0
   10.5110    0.0630   -0.5210 C   0  0  0  0  0  0  0  0  0  0  0  0
    9.8280   -0.1810    0.6340 O   0  0  0  0  0  0  0  0  0  0  0  0
    3.9870   -1.4310   -0.7020 C   0  0  0  0  0  0  0  0  0  0  0  0
  1  2  1  0
  2  3  1  0
  3  4  1  0
  3 16  1  0
  4  5  1  0
  5  6  1  0
  6  7  1  0
  7  8  2  0
  7 12  1  0
  8  9  1  0
  9 10  2  0
 10 11  1  0
 11 12  2  0
 12 13  1  0
 13 14  1  6
 13 15  1  0
 16 17  2  0
 16 18  1  0
 18 19  2  0
 18 24  1  0
 19 20  1  0
 19 21  1  0
 21 22  1  0
 22 23  1  0
 22 24  2  0
 24 25  1  0
 25 26  2  0
 25 27  1  0
 27 28  1  0
 28 29  1  0
 29 30  2  0
 29 31  1  0
 31 32  1  0
 32 33  2  0
 32 46  1  0
 33 34  1  0
 34 35  2  0
 35 36  1  0
 36 37  1  0
 36 46  2  0
 37 38  2  0
 37 39  1  0
 39 40  1  0
 41 40  1  6
 41 42  1  0
 41 45  1  0
 42 43  1  0
 43 44  1  0
 44 45  1  0
M  END
