
     RDKit          3D

 46 49  0  0  0  0  0  0  0  0999 V2000
   -3.4080    5.0460   -1.5460 C   0  0  0  0  0  0  0  0  0  0  0  0
   -2.6240    3.9210   -2.1760 C   0  0  0  0  0  0  0  0  0  0  0  0
   -1.4240    3.5530   -1.3810 C   0  0  0  0  0  0  0  0  0  0  0  0
   -0.1620    3.9330   -1.7660 C   0  0  0  0  0  0  0  0  0  0  0  0
    0.9590    3.5830   -1.0160 C   0  0  0  0  0  0  0  0  0  0  0  0
    0.8310    2.8430    0.1400 C   0  0  0  0  0  0  0  0  0  0  0  0
    2.0110    2.4770    0.9110 C   0  0  0  0  0  0  0  0  0  0  0  0
    1.9060    1.8130    1.9660 O   0  0  0  0  0  0  0  0  0  0  0  0
    3.2880    2.8480    0.5100 O   0  0  0  0  0  0  0  0  0  0  0  0
    4.4810    2.5520    1.1590 C   0  0  0  0  0  0  0  0  0  0  0  0
    4.8310    1.1380    1.2760 C   0  0  0  0  0  0  0  0  0  0  0  0
    5.9010    0.8730    1.9310 O   0  0  0  0  0  0  0  0  0  0  0  0
    4.0650    0.0780    0.7120 N   0  0  0  0  0  0  0  0  0  0  0  0
    4.5780   -1.2240    0.9370 N   0  0  0  0  0  0  0  0  0  0  0  0
    5.6060   -1.5860    0.2700 C   0  0  0  0  0  0  0  0  0  0  0  0
    6.2380   -0.6630   -0.7120 C   0  0  0  0  0  0  0  0  0  0  0  0
    6.1730   -2.9270    0.4820 C   0  0  0  0  0  0  0  0  0  0  0  0
    5.6180   -3.7980    1.3820 C   0  0  0  0  0  0  0  0  0  0  0  0
    6.1810   -5.0590    1.5630 C   0  0  0  0  0  0  0  0  0  0  0  0
    7.2920   -5.4910    0.8710 C   0  0  0  0  0  0  0  0  0  0  0  0
    7.8490   -4.6010   -0.0420 C   0  0  0  0  0  0  0  0  0  0  0  0
    7.2850   -3.3450   -0.2190 C   0  0  0  0  0  0  0  0  0  0  0  0
   -0.4350    2.4770    0.5030 C   0  0  0  0  0  0  0  0  0  0  0  0
   -1.5620    2.8010   -0.2100 C   0  0  0  0  0  0  0  0  0  0  0  0
   -2.9120    2.4330    0.2550 C   0  0  0  0  0  0  0  0  0  0  0  0
   -2.9900    1.6040    1.4150 N   0  0  0  0  0  0  0  0  0  0  0  0
   -2.9470    2.3280    2.6980 C   0  0  0  0  0  0  0  0  0  0  0  0
   -3.1060    0.1710    1.4130 C   0  0  0  0  0  0  0  0  0  0  0  0
   -3.1640   -0.4420    2.5340 O   0  0  0  0  0  0  0  0  0  0  0  0
   -3.1740   -0.5410    0.1700 C   0  0  0  0  0  0  0  0  0  0  0  0
   -2.1160   -1.1350   -0.4200 C   0  0  0  0  0  0  0  0  0  0  0  0
   -0.8590   -1.3130    0.2680 C   0  0  0  0  0  0  0  0  0  0  0  0
    0.0940   -0.5080    0.3160 O   0  0  0  0  0  0  0  0  0  0  0  0
   -0.6220   -2.5850    1.0200 C   0  0  0  0  0  0  0  0  0  0  0  0
   -1.7180   -3.9040    0.6750 S   0  0  0  0  0  0  0  0  0  0  0  0
   -3.4340   -3.6260    1.0020 C   0  0  0  0  0  0  0  0  0  0  0  0
   -1.2490   -5.1460    1.4100 O   0  0  0  0  0  0  0  0  0  0  0  0
   -2.3020   -1.6880   -1.7030 C   0  0  0  0  0  0  0  0  0  0  0  0
   -1.3200   -2.2330   -2.2480 O   0  0  0  0  0  0  0  0  0  0  0  0
   -3.4940   -1.6280   -2.3140 N   0  0  0  0  0  0  0  0  0  0  0  0
   -4.5530   -1.0350   -1.7150 C   0  0  0  0  0  0  0  0  0  0  0  0
   -5.7940   -0.9800   -2.3510 C   0  0  0  0  0  0  0  0  0  0  0  0
   -6.9040   -0.3850   -1.7730 C   0  0  0  0  0  0  0  0  0  0  0  0
   -6.7310    0.1660   -0.5090 C   0  0  0  0  0  0  0  0  0  0  0  0
   -5.5220    0.1230    0.1360 C   0  0  0  0  0  0  0  0  0  0  0  0
   -4.4410   -0.4750   -0.4660 C   0  0  0  0  0  0  0  0  0  0  0  0
  1  2  1  0
  2  3  1  0
  3  4  2  0
  3 24  1  0
  4  5  1  0
  5  6  2  0
  6  7  1  0
  6 23  1  0
  7  8  2  0
  7  9  1  0
  9 10  1  0
 10 11  1  0
 11 12  2  0
 11 13  1  0
 13 14  1  0
 14 15  2  3
 15 16  1  0
 15 17  1  0
 17 18  2  0
 17 22  1  0
 18 19  1  0
 19 20  2  0
 20 21  1  0
 21 22  2  0
 23 24  2  0
 24 25  1  0
 25 26  1  0
 26 27  1  0
 26 28  1  0
 28 29  2  0
 28 30  1  0
 30 31  2  0
 30 46  1  0
 31 32  1  0
 31 38  1  0
 32 33  2  0
 32 34  1  0
 34 35  1  0
 35 36  1  1
 35 37  2  0
 38 39  2  0
 38 40  1  0
 40 41  1  0
 41 42  2  0
 41 46  1  0
 42 43  1  0
 43 44  2  0
 44 45  1  0
 45 46  2  0
M  END
