
     RDKit          3D

 46 49  0  0  0  0  0  0  0  0999 V2000
   -9.3050   -0.6990   -0.9350 C   0  0  0  0  0  0  0  0  0  0  0  0
   -7.9750   -0.3730   -0.5740 O   0  0  0  0  0  0  0  0  0  0  0  0
   -7.2480   -1.0830    0.3800 C   0  0  0  0  0  0  0  0  0  0  0  0
   -7.8490   -2.0590    0.9260 O   0  0  0  0  0  0  0  0  0  0  0  0
   -5.8950   -0.7560    0.7500 C   0  0  0  0  0  0  0  0  0  0  0  0
   -5.2580    0.3000    0.1390 C   0  0  0  0  0  0  0  0  0  0  0  0
   -3.9580    0.5950    0.5050 C   0  0  0  0  0  0  0  0  0  0  0  0
   -3.3020   -0.1430    1.4550 C   0  0  0  0  0  0  0  0  0  0  0  0
   -1.9540    0.1670    1.9050 C   0  0  0  0  0  0  0  0  0  0  0  0
   -1.1480    1.4280    0.9350 S   0  0  0  0  0  0  0  0  0  0  0  0
   -0.5160    0.8210   -0.6550 C   0  0  1  0  0  0  0  0  0  0  0  0
    0.4660   -0.3370   -0.3470 C   0  0  0  0  0  0  0  0  0  0  0  0
    1.5880    0.1710    0.4800 C   0  0  0  0  0  0  0  0  0  0  0  0
    1.7390    1.3980    0.6580 O   0  0  0  0  0  0  0  0  0  0  0  0
    2.5160   -0.7490    1.0870 N   0  0  0  0  0  0  0  0  0  0  0  0
    3.6440   -0.2630    1.9030 C   0  0  0  0  0  0  0  0  0  0  0  0
    4.4790    0.5780    1.0530 C   0  0  0  0  0  0  0  0  0  0  0  0
    4.6670    1.8500    1.3110 C   0  0  0  0  0  0  0  0  0  0  0  0
    4.1450    2.6220    2.3940 C   0  0  0  0  0  0  0  0  0  0  0  0
    4.2330    2.2470    3.6980 C   0  0  0  0  0  0  0  0  0  0  0  0
    3.6860    3.0290    4.6970 C   0  0  0  0  0  0  0  0  0  0  0  0
    3.0610    4.1710    4.3720 N   0  0  0  0  0  0  0  0  0  0  0  0
    2.9350    4.6060    3.1150 C   0  0  0  0  0  0  0  0  0  0  0  0
    3.4870    3.8190    2.0970 C   0  0  0  0  0  0  0  0  0  0  0  0
    5.1520   -0.0400   -0.1170 C   0  0  0  0  0  0  0  0  0  0  0  0
    5.8640    0.6810   -0.8630 O   0  0  0  0  0  0  0  0  0  0  0  0
    5.0350   -1.4020   -0.4310 N   0  0  0  0  0  0  0  0  0  0  0  0
    5.6070   -2.1150   -1.5020 C   0  0  0  0  0  0  0  0  0  0  0  0
    6.1870   -1.5270   -2.5880 C   0  0  0  0  0  0  0  0  0  0  0  0
    6.7710   -2.2680   -3.6350 C   0  0  0  0  0  0  0  0  0  0  0  0
    6.7790   -3.6440   -3.6000 C   0  0  0  0  0  0  0  0  0  0  0  0
    7.3530   -4.4010   -4.6290 O   0  0  0  0  0  0  0  0  0  0  0  0
    6.1960   -4.2490   -2.5060 C   0  0  0  0  0  0  0  0  0  0  0  0
    5.6290   -3.5200   -1.4920 C   0  0  0  0  0  0  0  0  0  0  0  0
   -1.4450    0.4900   -1.6910 C   0  0  0  0  0  0  0  0  0  0  0  0
   -1.5250   -0.7360   -2.0520 O   0  0  0  0  0  0  0  0  0  0  0  0
   -2.3330    1.3980   -2.4000 C   0  0  0  0  0  0  0  0  0  0  0  0
   -2.3340    2.7740   -2.1450 C   0  0  0  0  0  0  0  0  0  0  0  0
   -3.1770    3.6290   -2.8220 C   0  0  0  0  0  0  0  0  0  0  0  0
   -4.0540    3.1680   -3.7770 C   0  0  0  0  0  0  0  0  0  0  0  0
   -4.0670    1.8160   -4.0410 C   0  0  0  0  0  0  0  0  0  0  0  0
   -3.2180    0.9560   -3.3590 C   0  0  0  0  0  0  0  0  0  0  0  0
   -3.9430   -1.2300    2.0940 C   0  0  0  0  0  0  0  0  0  0  0  0
   -3.2560   -1.9510    3.0490 O   0  0  0  0  0  0  0  0  0  0  0  0
   -3.7110   -3.0410    3.7740 C   0  0  0  0  0  0  0  0  0  0  0  0
   -5.2330   -1.4870    1.7000 C   0  0  0  0  0  0  0  0  0  0  0  0
  1  2  1  0
  2  3  1  0
  3  4  2  0
  3  5  1  0
  5  6  2  0
  5 46  1  0
  6  7  1  0
  7  8  2  0
  8  9  1  0
  8 43  1  0
  9 10  1  0
 10 11  1  0
 11 12  1  1
 11 35  1  0
 12 13  1  0
 13 14  2  0
 13 15  1  0
 15 16  1  0
 16 17  1  0
 17 18  2  3
 17 25  1  0
 18 19  1  0
 19 20  2  0
 19 24  1  0
 20 21  1  0
 21 22  2  0
 22 23  1  0
 23 24  2  0
 25 26  2  0
 25 27  1  0
 27 28  1  0
 28 29  2  0
 28 34  1  0
 29 30  1  0
 30 31  2  0
 31 32  1  0
 31 33  1  0
 33 34  2  0
 35 36  2  0
 35 37  1  0
 37 38  2  0
 37 42  1  0
 38 39  1  0
 39 40  2  0
 40 41  1  0
 41 42  2  0
 43 44  1  0
 43 46  2  0
 44 45  1  0
M  END
