
     RDKit          3D

 40 43  0  0  0  0  0  0  0  0999 V2000
   -6.0310    5.2000    0.7760 C   0  0  0  0  0  0  0  0  0  0  0  0
   -6.1910    4.2270   -0.2240 O   0  0  0  0  0  0  0  0  0  0  0  0
   -5.2160    3.2600   -0.4740 C   0  0  0  0  0  0  0  0  0  0  0  0
   -5.3850    2.3170   -1.4520 C   0  0  0  0  0  0  0  0  0  0  0  0
   -4.4100    1.3890   -1.6670 C   0  0  0  0  0  0  0  0  0  0  0  0
   -3.2710    1.4120   -0.8990 C   0  0  0  0  0  0  0  0  0  0  0  0
   -2.0400    0.1830   -1.2250 S   0  0  2  0  0  0  0  0  0  0  0  0
   -0.7280    0.8480   -0.8220 O   0  0  0  0  0  0  0  0  0  0  0  0
   -1.9240   -0.0590   -2.6910 O   0  0  0  0  0  0  0  0  0  0  0  0
   -2.3830   -1.1630   -0.2700 N   0  0  0  0  0  0  0  0  0  0  0  0
   -3.6090   -1.8240   -0.4490 C   0  0  0  0  0  0  0  0  0  0  0  0
   -3.5890   -3.0390   -1.3210 C   0  0  2  0  0  0  0  0  0  0  0  0
   -3.1500   -2.8060   -2.7240 C   0  0  0  0  0  0  0  0  0  0  0  0
   -4.9810   -3.6560   -1.3930 C   0  0  0  0  0  0  0  0  0  0  0  0
   -2.0110   -0.9620    1.0900 C   0  0  0  0  0  0  0  0  0  0  0  0
   -0.9590   -1.9180    1.5870 C   0  0  1  0  0  0  0  0  0  0  0  0
   -1.5730   -3.1970    1.4030 O   0  0  0  0  0  0  0  0  0  0  0  0
    0.3330   -1.9710    0.9150 C   0  0  2  0  0  0  0  0  0  0  0  0
    1.1800   -3.0650    1.6270 C   0  0  0  0  0  0  0  0  0  0  0  0
    1.3730   -2.7140    3.0630 C   0  0  0  0  0  0  0  0  0  0  0  0
    0.5090   -3.2260    4.0020 C   0  0  0  0  0  0  0  0  0  0  0  0
    0.6770   -2.9020    5.3300 C   0  0  0  0  0  0  0  0  0  0  0  0
    1.6870   -2.0750    5.7700 C   0  0  0  0  0  0  0  0  0  0  0  0
    2.5400   -1.5780    4.7900 C   0  0  0  0  0  0  0  0  0  0  0  0
    2.3940   -1.8840    3.4660 C   0  0  0  0  0  0  0  0  0  0  0  0
    1.1830   -0.7990    1.0030 N   0  0  0  0  0  0  0  0  0  0  0  0
    2.0310   -0.4250   -0.0740 C   0  0  0  0  0  0  0  0  0  0  0  0
    2.0070   -1.1540   -1.0970 O   0  0  0  0  0  0  0  0  0  0  0  0
    2.8670    0.6710   -0.0710 O   0  0  0  0  0  0  0  0  0  0  0  0
    3.6600    0.9290   -1.2140 C   0  0  2  0  0  0  0  0  0  0  0  0
    5.1240    0.8170   -0.7740 C   0  0  0  0  0  0  0  0  0  0  0  0
    5.8820    1.5040   -1.8880 C   0  0  2  0  0  0  0  0  0  0  0  0
    7.0200    2.0730   -1.3460 O   0  0  0  0  0  0  0  0  0  0  0  0
    7.6570    2.7640   -2.3870 C   0  0  0  0  0  0  0  0  0  0  0  0
    6.6930    3.8370   -2.8440 C   0  0  0  0  0  0  0  0  0  0  0  0
    5.4640    3.7720   -2.2370 O   0  0  0  0  0  0  0  0  0  0  0  0
    4.9140    2.5030   -2.4460 C   0  0  2  0  0  0  0  0  0  0  0  0
    3.6050    2.3420   -1.6840 C   0  0  0  0  0  0  0  0  0  0  0  0
   -3.0880    2.3520    0.0840 C   0  0  0  0  0  0  0  0  0  0  0  0
   -4.0700    3.2910    0.3050 C   0  0  0  0  0  0  0  0  0  0  0  0
  1  2  1  0
  2  3  1  0
  3  4  2  0
  3 40  1  0
  4  5  1  0
  5  6  2  0
  6  7  1  0
  6 39  1  0
  7  8  2  0
  7  9  2  0
  7 10  1  1
 10 11  1  0
 10 15  1  0
 11 12  1  0
 12 13  1  6
 12 14  1  0
 15 16  1  0
 16 17  1  6
 16 18  1  0
 18 19  1  1
 18 26  1  0
 19 20  1  0
 20 21  2  0
 20 25  1  0
 21 22  1  0
 22 23  2  0
 23 24  1  0
 24 25  2  0
 26 27  1  0
 27 28  2  0
 27 29  1  0
 30 29  1  1
 30 31  1  0
 30 38  1  0
 32 31  1  1
 32 33  1  0
 32 37  1  0
 33 34  1  0
 34 35  1  0
 35 36  1  0
 36 37  1  0
 37 38  1  1
 39 40  2  0
M  END
