
     RDKit          3D

 46 49  0  0  0  0  0  0  0  0999 V2000
  -10.5280    2.0420   -3.3080 C   0  0  0  0  0  0  0  0  0  0  0  0
  -10.0240    1.5590   -1.9840 C   0  0  0  0  0  0  0  0  0  0  0  0
   -8.7960    0.8920   -2.0790 O   0  0  0  0  0  0  0  0  0  0  0  0
   -8.2280    0.3980   -0.8980 C   0  0  0  0  0  0  0  0  0  0  0  0
   -8.8470    0.5570    0.3140 C   0  0  0  0  0  0  0  0  0  0  0  0
   -8.3030    0.0750    1.5010 C   0  0  0  0  0  0  0  0  0  0  0  0
   -8.9770    0.2500    2.8060 C   0  0  0  0  0  0  0  0  0  0  0  0
   -8.3540    1.3070    3.6690 C   0  0  0  0  0  0  0  0  0  0  0  0
   -7.0850   -0.5940    1.4670 C   0  0  0  0  0  0  0  0  0  0  0  0
   -6.5020   -1.1070    2.7310 C   0  0  0  0  0  0  0  0  0  0  0  0
   -6.4580   -0.7580    0.2530 C   0  0  0  0  0  0  0  0  0  0  0  0
   -7.0120   -0.2730   -0.9180 C   0  0  0  0  0  0  0  0  0  0  0  0
   -6.3930   -0.4290   -2.1340 O   0  0  0  0  0  0  0  0  0  0  0  0
   -5.1650   -1.0420   -2.3760 C   0  0  0  0  0  0  0  0  0  0  0  0
   -4.0900   -0.2990   -1.6820 C   0  0  0  0  0  0  0  0  0  0  0  0
   -4.3720    0.7620   -1.0680 O   0  0  0  0  0  0  0  0  0  0  0  0
   -2.7390   -0.7130   -1.6650 N   0  0  0  0  0  0  0  0  0  0  0  0
   -1.7080    0.0560   -0.9730 C   0  0  0  0  0  0  0  0  0  0  0  0
   -0.3860   -0.6050   -1.1060 C   0  0  0  0  0  0  0  0  0  0  0  0
   -0.3330   -1.6880   -1.7440 O   0  0  0  0  0  0  0  0  0  0  0  0
    0.7670   -0.0600   -0.5530 N   0  0  0  0  0  0  0  0  0  0  0  0
    2.0530   -0.7360   -0.7020 C   0  0  2  0  0  0  0  0  0  0  0  0
    2.7140   -0.9100    0.5970 C   0  0  0  0  0  0  0  0  0  0  0  0
    2.2040   -0.3370    1.6400 O   0  0  0  0  0  0  0  0  0  0  0  0
    3.8850   -1.6660    0.8650 N   0  0  0  0  0  0  0  0  0  0  0  0
    4.3760   -1.6860    2.2680 C   0  0  0  0  0  0  0  0  0  0  0  0
    4.6130   -2.4300   -0.1030 C   0  0  0  0  0  0  0  0  0  0  0  0
    5.7740   -1.8070   -0.7790 C   0  0  0  0  0  0  0  0  0  0  0  0
    6.8810   -1.3910    0.1210 C   0  0  0  0  0  0  0  0  0  0  0  0
    7.8760   -2.2910    0.4840 C   0  0  0  0  0  0  0  0  0  0  0  0
    8.9290   -1.9250    1.3030 C   0  0  0  0  0  0  0  0  0  0  0  0
    9.0270   -0.6320    1.7930 C   0  0  0  0  0  0  0  0  0  0  0  0
    9.8730   -0.0020    2.5610 O   0  0  0  0  0  0  0  0  0  0  0  0
    9.5150    1.2430    2.7340 C   0  0  0  0  0  0  0  0  0  0  0  0
   10.3220    2.5250    3.6910 S   0  0  0  0  0  0  0  0  0  0  0  0
   11.5020    3.3730    2.5960 C   0  0  0  0  0  0  0  0  0  0  0  0
    8.3670    1.4270    2.0350 N   0  0  0  0  0  0  0  0  0  0  0  0
    8.0470    0.2620    1.4390 C   0  0  0  0  0  0  0  0  0  0  0  0
    6.9920   -0.1150    0.6150 C   0  0  0  0  0  0  0  0  0  0  0  0
    2.8330   -0.1810   -1.8000 C   0  0  0  0  0  0  0  0  0  0  0  0
    2.8500   -0.8020   -3.0670 C   0  0  0  0  0  0  0  0  0  0  0  0
    3.5810   -0.3130   -4.1250 C   0  0  0  0  0  0  0  0  0  0  0  0
    4.3410    0.8290   -3.9790 C   0  0  0  0  0  0  0  0  0  0  0  0
    4.3360    1.4440   -2.7560 C   0  0  0  0  0  0  0  0  0  0  0  0
    3.5880    0.9420   -1.6750 C   0  0  0  0  0  0  0  0  0  0  0  0
    3.6690    1.7070   -0.4420 C   0  0  0  0  0  0  0  0  0  0  0  0
  1  2  1  0
  2  3  1  0
  3  4  1  0
  4  5  2  0
  4 12  1  0
  5  6  1  0
  6  7  1  0
  6  9  2  0
  7  8  1  0
  9 10  1  0
  9 11  1  0
 11 12  2  0
 12 13  1  0
 13 14  1  0
 14 15  1  0
 15 16  2  0
 15 17  1  0
 17 18  1  0
 18 19  1  0
 19 20  2  0
 19 21  1  0
 22 21  1  1
 22 23  1  0
 22 40  1  0
 23 24  2  0
 23 25  1  0
 25 26  1  0
 25 27  1  0
 27 28  1  0
 28 29  1  0
 29 30  2  0
 29 39  1  0
 30 31  1  0
 31 32  2  0
 32 33  1  0
 32 38  1  0
 33 34  1  0
 34 35  1  0
 34 37  2  0
 35 36  1  0
 37 38  1  0
 38 39  2  0
 40 41  2  0
 40 45  1  0
 41 42  1  0
 42 43  2  0
 43 44  1  0
 44 45  2  0
 45 46  1  0
M  END
