
     RDKit          3D

 46 49  0  0  0  0  0  0  0  0999 V2000
    9.6490   -4.0830   -1.8040 C   0  0  0  0  0  0  0  0  0  0  0  0
    9.4510   -3.4590   -0.6150 O   0  0  0  0  0  0  0  0  0  0  0  0
    9.4420   -2.9440    0.4440 C   0  0  0  0  0  0  0  0  0  0  0  0
   10.4410   -2.6850    1.5000 C   0  0  0  0  0  0  0  0  0  0  0  0
   10.3660   -2.1340    2.5930 C   0  0  0  0  0  0  0  0  0  0  0  0
    9.1370   -1.5550    3.1390 C   0  0  0  0  0  0  0  0  0  0  0  0
    8.1220   -1.7890    2.1150 C   0  0  0  0  0  0  0  0  0  0  0  0
    8.1770   -2.3300    1.0450 C   0  0  0  0  0  0  0  0  0  0  0  0
    7.0970   -2.6110    0.1040 N   0  0  0  0  0  0  0  0  0  0  0  0
    5.7540   -2.1390    0.2640 C   0  0  0  0  0  0  0  0  0  0  0  0
    5.4690   -1.4270    1.2340 O   0  0  0  0  0  0  0  0  0  0  0  0
    4.7550   -2.5420   -0.7500 C   0  0  0  0  0  0  0  0  0  0  0  0
    3.0850   -2.6970   -0.3250 S   0  0  0  0  0  0  0  0  0  0  0  0
    2.0800   -1.3100   -0.0350 C   0  0  0  0  0  0  0  0  0  0  0  0
    2.5740   -0.0200   -0.0200 C   0  0  0  0  0  0  0  0  0  0  0  0
    1.6780    1.0270    0.0830 C   0  0  0  0  0  0  0  0  0  0  0  0
    0.2860    0.8760    0.1680 C   0  0  0  0  0  0  0  0  0  0  0  0
   -0.5820    2.0270    0.0030 N   0  0  0  0  0  0  0  0  0  0  0  0
   -0.2200    3.3320    0.3200 C   0  0  0  0  0  0  0  0  0  0  0  0
    0.9570    3.4320    0.9040 O   0  0  0  0  0  0  0  0  0  0  0  0
   -0.8970    4.5960    0.1060 C   0  0  0  0  0  0  0  0  0  0  0  0
   -0.0730    5.7610    0.1150 C   0  0  0  0  0  0  0  0  0  0  0  0
   -0.5950    6.9860   -0.2090 C   0  0  0  0  0  0  0  0  0  0  0  0
   -1.8880    7.1890   -0.5380 C   0  0  0  0  0  0  0  0  0  0  0  0
   -2.4240    8.3980   -0.8930 O   0  0  0  0  0  0  0  0  0  0  0  0
   -1.6910    9.5960   -0.9840 C   0  0  0  0  0  0  0  0  0  0  0  0
   -2.7340    6.0420   -0.5310 C   0  0  0  0  0  0  0  0  0  0  0  0
   -4.0310    6.2960   -0.8320 O   0  0  0  0  0  0  0  0  0  0  0  0
   -5.1910    5.5640   -0.8980 C   0  0  0  0  0  0  0  0  0  0  0  0
   -2.2070    4.7840   -0.2140 C   0  0  0  0  0  0  0  0  0  0  0  0
   -0.1590   -0.3880    0.1530 C   0  0  0  0  0  0  0  0  0  0  0  0
   -1.5960   -0.8070    0.3060 C   0  0  0  0  0  0  0  0  0  0  0  0
   -2.2030   -1.3160   -0.8190 C   0  0  0  0  0  0  0  0  0  0  0  0
   -3.3840   -2.0120   -0.7600 C   0  0  0  0  0  0  0  0  0  0  0  0
   -4.0010   -2.2130    0.4550 C   0  0  0  0  0  0  0  0  0  0  0  0
   -5.2170   -2.9660    0.5100 O   0  0  0  0  0  0  0  0  0  0  0  0
   -5.7240   -3.4420   -0.6890 C   0  0  0  0  0  0  0  0  0  0  0  0
   -6.8390   -4.4040   -0.6840 C   0  0  0  0  0  0  0  0  0  0  0  0
   -8.0800   -4.0810   -0.0840 N   0  0  0  0  0  0  0  0  0  0  0  0
   -7.8810   -4.1450    1.3970 C   0  0  0  0  0  0  0  0  0  0  0  0
   -8.5700   -2.7780   -0.3690 C   0  0  0  0  0  0  0  0  0  0  0  0
   -8.8360   -2.7280   -1.9350 C   0  0  0  0  0  0  0  0  0  0  0  0
   -9.0040   -2.6770   -2.9690 N   0  0  0  0  0  0  0  0  0  0  0  0
   -3.4170   -1.6910    1.6140 C   0  0  0  0  0  0  0  0  0  0  0  0
   -2.2000   -0.9870    1.5180 C   0  0  0  0  0  0  0  0  0  0  0  0
    0.6990   -1.4820    0.0520 C   0  0  0  0  0  0  0  0  0  0  0  0
  1  2  1  0
  2  3  1  0
  3  4  2  0
  3  8  1  0
  4  5  1  0
  5  6  2  0
  6  7  1  0
  7  8  2  0
  8  9  1  0
  9 10  1  0
 10 11  2  0
 10 12  1  0
 12 13  1  0
 13 14  1  0
 14 15  2  0
 14 46  1  0
 15 16  1  0
 16 17  2  0
 17 18  1  0
 17 31  1  0
 18 19  1  0
 19 20  2  0
 19 21  1  0
 21 22  2  0
 21 30  1  0
 22 23  1  0
 23 24  2  0
 24 25  1  0
 24 27  1  0
 25 26  1  0
 27 28  1  0
 27 30  2  0
 28 29  1  0
 31 32  1  0
 31 46  2  0
 32 33  2  0
 32 45  1  0
 33 34  1  0
 34 35  2  0
 35 36  1  0
 35 44  1  0
 36 37  1  0
 37 38  1  0
 38 39  1  0
 39 40  1  0
 39 41  1  0
 41 42  1  0
 42 43  3  0
 44 45  2  0
M  END
