
     RDKit          3D

 46 48  0  0  0  0  0  0  0  0999 V2000
    1.3290    4.6760   -1.3670 C   0  0  0  0  0  0  0  0  0  0  0  0
    0.9240    3.6330   -0.3400 C   0  0  0  0  0  0  0  0  0  0  0  0
    1.2790    2.3950   -0.5170 C   0  0  0  0  0  0  0  0  0  0  0  0
    2.0670    2.2190   -1.7100 N   0  0  0  0  0  0  0  0  0  0  0  0
    2.6890    1.0940   -2.2740 C   0  0  0  0  0  0  0  0  0  0  0  0
    2.6450    0.0270   -1.6930 O   0  0  0  0  0  0  0  0  0  0  0  0
    3.4020    1.2030   -3.5730 C   0  0  0  0  0  0  0  0  0  0  0  0
    4.2940    0.0920   -3.8700 C   0  0  0  0  0  0  0  0  0  0  0  0
    3.6620   -1.5100   -4.0550 S   0  0  0  0  0  0  0  0  0  0  0  0
    3.1430   -2.5060   -2.7130 C   0  0  0  0  0  0  0  0  0  0  0  0
    4.2680   -2.8440   -1.7670 C   0  0  0  0  0  0  0  0  0  0  0  0
    4.0470   -3.3920   -0.6660 O   0  0  0  0  0  0  0  0  0  0  0  0
    5.6090   -2.5430   -2.1180 N   0  0  0  0  0  0  0  0  0  0  0  0
    6.7800   -2.7820   -1.3330 C   0  0  0  0  0  0  0  0  0  0  0  0
    6.6250   -2.0020   -0.0220 C   0  0  0  0  0  0  0  0  0  0  0  0
    7.8670   -2.1630    0.8350 C   0  0  2  0  0  0  0  0  0  0  0  0
    8.0460   -3.6280    1.1350 C   0  0  0  0  0  0  0  0  0  0  0  0
    7.6720   -1.3420    2.0850 C   0  0  0  0  0  0  0  0  0  0  0  0
    0.7120    1.2530    0.1350 C   0  0  0  0  0  0  0  0  0  0  0  0
    1.3570    0.1220   -0.1880 O   0  0  0  0  0  0  0  0  0  0  0  0
   -0.3480    0.9430    1.0150 C   0  0  0  0  0  0  0  0  0  0  0  0
   -1.2830    1.6080    1.6090 C   0  0  0  0  0  0  0  0  0  0  0  0
   -2.2340    0.8810    2.4770 N   0  0  0  0  0  0  0  0  0  0  0  0
   -2.0340    0.9670    3.8920 C   0  0  0  0  0  0  0  0  0  0  0  0
   -3.2870    0.1300    1.8560 C   0  0  0  0  0  0  0  0  0  0  0  0
   -4.3550    0.8730    1.2190 C   0  0  0  0  0  0  0  0  0  0  0  0
   -4.4270    2.2430    1.2230 C   0  0  0  0  0  0  0  0  0  0  0  0
   -5.4710    2.9520    0.6060 C   0  0  0  0  0  0  0  0  0  0  0  0
   -6.4300    2.2150   -0.0060 C   0  0  0  0  0  0  0  0  0  0  0  0
   -6.3820    0.8380   -0.0240 C   0  0  0  0  0  0  0  0  0  0  0  0
   -5.3570    0.1420    0.5800 C   0  0  0  0  0  0  0  0  0  0  0  0
   -5.3870   -1.3050    0.5110 C   0  0  0  0  0  0  0  0  0  0  0  0
   -4.4820   -2.0570    1.0040 O   0  0  0  0  0  0  0  0  0  0  0  0
   -6.4250   -1.9890   -0.1100 O   0  0  0  0  0  0  0  0  0  0  0  0
   -6.4990   -3.3890   -0.2050 C   0  0  1  0  0  0  0  0  0  0  0  0
   -7.7610   -3.7820    0.5060 C   0  0  0  0  0  0  0  0  0  0  0  0
   -8.7420   -3.7650   -0.3670 C   0  0  0  0  0  0  0  0  0  0  0  0
   -8.2610   -3.3730   -1.7250 C   0  0  0  0  0  0  0  0  0  0  0  0
   -6.7850   -3.8160   -1.6260 C   0  0  2  0  0  0  0  0  0  0  0  0
   -6.7370   -5.2270   -1.6520 O   0  0  0  0  0  0  0  0  0  0  0  0
    0.3930    4.2120    0.8520 C   0  0  0  0  0  0  0  0  0  0  0  0
    0.9180    4.0250    2.1140 C   0  0  0  0  0  0  0  0  0  0  0  0
    0.3720    4.6920    3.2010 C   0  0  0  0  0  0  0  0  0  0  0  0
   -0.6900    5.5480    3.0750 C   0  0  0  0  0  0  0  0  0  0  0  0
   -1.1970    5.7200    1.8230 N   0  0  0  0  0  0  0  0  0  0  0  0
   -0.6960    5.0950    0.7620 C   0  0  0  0  0  0  0  0  0  0  0  0
  1  2  1  0
  2  3  2  3
  2 41  1  0
  3  4  1  0
  3 19  1  0
  4  5  1  0
  5  6  2  0
  5  7  1  0
  7  8  1  0
  8  9  1  0
  9 10  1  0
 10 11  1  0
 11 12  2  0
 11 13  1  0
 13 14  1  0
 14 15  1  0
 15 16  1  0
 16 17  1  1
 16 18  1  0
 19 20  2  0
 19 21  1  0
 21 22  2  3
 22 23  1  0
 23 24  1  0
 23 25  1  0
 25 26  1  0
 26 27  2  0
 26 31  1  0
 27 28  1  0
 28 29  2  0
 29 30  1  0
 30 31  2  0
 31 32  1  0
 32 33  2  0
 32 34  1  0
 35 34  1  6
 35 36  1  0
 35 39  1  0
 36 37  2  0
 37 38  1  0
 38 39  1  0
 39 40  1  1
 41 42  2  0
 41 46  1  0
 42 43  1  0
 43 44  2  0
 44 45  1  0
 45 46  2  0
M  END
