
     RDKit          3D

 46 49  0  0  0  0  0  0  0  0999 V2000
   -1.3140    1.6140    3.5690 C   0  0  0  0  0  0  0  0  0  0  0  0
   -1.7280    0.5150    2.8460 O   0  0  0  0  0  0  0  0  0  0  0  0
   -2.8670   -0.1730    2.7550 C   0  0  0  0  0  0  0  0  0  0  0  0
   -3.4940   -0.4250    1.5830 C   0  0  0  0  0  0  0  0  0  0  0  0
   -2.9440    0.0500    0.2900 C   0  0  0  0  0  0  0  0  0  0  0  0
   -3.5660   -0.1650   -0.8480 C   0  0  0  0  0  0  0  0  0  0  0  0
   -4.8470   -0.8920   -0.9440 C   0  0  0  0  0  0  0  0  0  0  0  0
   -5.5120   -1.1660   -1.9960 C   0  0  0  0  0  0  0  0  0  0  0  0
   -5.4100   -0.9660   -3.4300 C   0  0  0  0  0  0  0  0  0  0  0  0
   -6.7830    0.0150   -4.0530 S   0  0  1  0  0  0  0  0  0  0  0  0
   -8.3350   -0.8090   -3.7210 C   0  0  0  0  0  0  0  0  0  0  0  0
   -6.7550    1.4100   -3.5480 O   0  0  0  0  0  0  0  0  0  0  0  0
   -6.6220    0.0650   -5.5470 O   0  0  0  0  0  0  0  0  0  0  0  0
   -3.0550    0.3680   -2.1610 C   0  0  0  0  0  0  0  0  0  0  0  0
   -1.9850    1.4170   -1.8860 C   0  0  0  0  0  0  0  0  0  0  0  0
   -1.0640    0.8420   -0.9530 N   0  0  0  0  0  0  0  0  0  0  0  0
    0.2770    0.8090   -1.2430 C   0  0  0  0  0  0  0  0  0  0  0  0
    1.1940    0.1290   -0.2910 C   0  0  2  0  0  0  0  0  0  0  0  0
    2.5920    0.1900   -0.7300 N   0  0  0  0  0  0  0  0  0  0  0  0
    3.6440    0.7200    0.0550 C   0  0  0  0  0  0  0  0  0  0  0  0
    3.3440    1.1640    1.2040 O   0  0  0  0  0  0  0  0  0  0  0  0
    5.0180    0.7540   -0.4410 C   0  0  0  0  0  0  0  0  0  0  0  0
    5.2480    0.2930   -1.5910 O   0  0  0  0  0  0  0  0  0  0  0  0
    6.0510    1.2880    0.3520 N   0  0  0  0  0  0  0  0  0  0  0  0
    7.4110    1.3280   -0.1250 C   0  0  2  0  0  0  0  0  0  0  0  0
    8.3200    0.6210    0.8570 C   0  0  0  0  0  0  0  0  0  0  0  0
    7.7890    2.7850   -0.2200 C   0  0  0  0  0  0  0  0  0  0  0  0
    8.4510    3.2140   -1.3430 C   0  0  0  0  0  0  0  0  0  0  0  0
    8.8020    4.5370   -1.4460 C   0  0  0  0  0  0  0  0  0  0  0  0
    8.5020    5.4350   -0.4440 C   0  0  0  0  0  0  0  0  0  0  0  0
    7.8310    4.9930    0.6920 C   0  0  0  0  0  0  0  0  0  0  0  0
    7.4940    3.6810    0.7720 C   0  0  0  0  0  0  0  0  0  0  0  0
    0.9120   -1.3340   -0.1290 C   0  0  0  0  0  0  0  0  0  0  0  0
    1.7360   -2.1060    0.6850 C   0  0  0  0  0  0  0  0  0  0  0  0
    1.5290   -3.4550    0.8600 C   0  0  0  0  0  0  0  0  0  0  0  0
    0.4820   -4.0760    0.2190 C   0  0  0  0  0  0  0  0  0  0  0  0
   -0.3600   -3.3570   -0.5960 C   0  0  0  0  0  0  0  0  0  0  0  0
   -1.4400   -3.9540   -1.2680 O   0  0  0  0  0  0  0  0  0  0  0  0
   -1.6560   -5.3360   -1.0910 C   0  0  0  0  0  0  0  0  0  0  0  0
   -0.1150   -1.9960   -0.7460 C   0  0  0  0  0  0  0  0  0  0  0  0
   -1.5980    0.7320    0.3430 C   0  0  0  0  0  0  0  0  0  0  0  0
   -4.6550   -1.1380    1.6660 O   0  0  0  0  0  0  0  0  0  0  0  0
   -5.2980   -1.6780    2.7790 C   0  0  0  0  0  0  0  0  0  0  0  0
   -4.5770   -1.3730    4.0250 C   0  0  0  0  0  0  0  0  0  0  0  0
   -3.4620   -0.6830    4.0090 C   0  0  0  0  0  0  0  0  0  0  0  0
   -2.7930   -0.4310    5.2810 C   0  0  0  0  0  0  0  0  0  0  0  0
  1  2  1  0
  2  3  1  0
  3  4  2  0
  3 45  1  0
  4  5  1  0
  4 42  1  0
  5  6  2  0
  5 41  1  0
  6  7  1  0
  6 14  1  0
  7  8  2  3
  8  9  1  0
  9 10  1  0
 10 11  1  6
 10 12  2  0
 10 13  2  0
 14 15  1  0
 15 16  1  0
 16 17  1  0
 16 41  1  0
 18 17  1  6
 18 19  1  0
 18 33  1  0
 19 20  1  0
 20 21  2  0
 20 22  1  0
 22 23  2  0
 22 24  1  0
 24 25  1  0
 25 26  1  1
 25 27  1  0
 27 28  2  0
 27 32  1  0
 28 29  1  0
 29 30  2  0
 30 31  1  0
 31 32  2  0
 33 34  2  0
 33 40  1  0
 34 35  1  0
 35 36  2  0
 36 37  1  0
 37 38  1  0
 37 40  2  0
 38 39  1  0
 42 43  1  0
 43 44  1  0
 44 45  2  0
 45 46  1  0
M  END
