
     RDKit          3D

 36 40  0  0  0  0  0  0  0  0999 V2000
   -4.3330   -0.1560    3.2740 N   0  0  0  0  0  0  0  0  0  0  0  0
   -4.0730   -0.3830    1.8920 C   0  0  0  0  0  0  0  0  0  0  0  0
   -4.1100   -1.5840    1.4660 N   0  0  0  0  0  0  0  0  0  0  0  0
   -3.8470   -1.8520    0.0760 C   0  0  0  0  0  0  0  0  0  0  0  0
   -3.9910   -3.1580   -0.4070 C   0  0  0  0  0  0  0  0  0  0  0  0
   -3.8390   -3.4560   -1.7470 C   0  0  0  0  0  0  0  0  0  0  0  0
   -3.5380   -2.4240   -2.6050 C   0  0  0  0  0  0  0  0  0  0  0  0
   -3.3840   -1.1210   -2.1840 C   0  0  0  0  0  0  0  0  0  0  0  0
   -3.5440   -0.8700   -0.8280 C   0  0  0  0  0  0  0  0  0  0  0  0
   -3.3080    0.5050   -0.3630 C   0  0  2  0  0  0  0  0  0  0  0  0
   -1.8140    0.8280   -0.1870 C   0  0  0  0  0  0  0  0  0  0  0  0
   -1.0100    0.6890   -1.4210 C   0  0  0  0  0  0  0  0  0  0  0  0
    0.3860    0.9990   -1.3040 N   0  0  0  0  0  0  0  0  0  0  0  0
    0.8810    2.3090   -1.6260 C   0  0  0  0  0  0  0  0  0  0  0  0
    0.9760    3.2630   -0.4660 C   0  0  0  0  0  0  0  0  0  0  0  0
    1.5300    4.5600   -1.0350 C   0  0  1  0  0  0  0  0  0  0  0  0
    0.6060    4.9780   -2.0110 O   0  0  0  0  0  0  0  0  0  0  0  0
    1.6630    5.6080   -0.0170 C   0  0  0  0  0  0  0  0  0  0  0  0
    2.9220    5.9790    0.4380 C   0  0  0  0  0  0  0  0  0  0  0  0
    3.1160    6.9480    1.3850 C   0  0  0  0  0  0  0  0  0  0  0  0
    2.0380    7.6040    1.9330 C   0  0  0  0  0  0  0  0  0  0  0  0
    0.7760    7.2510    1.4960 C   0  0  0  0  0  0  0  0  0  0  0  0
    0.5880    6.2720    0.5390 C   0  0  0  0  0  0  0  0  0  0  0  0
    1.3440   -0.0040   -0.9000 C   0  0  0  0  0  0  0  0  0  0  0  0
    2.5690    0.3020   -0.8290 O   0  0  0  0  0  0  0  0  0  0  0  0
    0.9740   -1.3280   -0.5730 N   0  0  0  0  0  0  0  0  0  0  0  0
    1.8040   -2.3790   -0.1700 C   0  0  0  0  0  0  0  0  0  0  0  0
    3.1170   -2.2460    0.1500 C   0  0  0  0  0  0  0  0  0  0  0  0
    3.8960   -3.3510    0.5350 C   0  0  0  0  0  0  0  0  0  0  0  0
    3.3360   -4.6100    0.5980 C   0  0  0  0  0  0  0  0  0  0  0  0
    2.0160   -4.7680    0.2810 C   0  0  0  0  0  0  0  0  0  0  0  0
    1.2730   -3.6560   -0.0960 C   0  0  0  0  0  0  0  0  0  0  0  0
    1.6620   -6.2010    0.4280 C   0  0  0  0  0  0  0  0  0  0  0  0
    2.9810   -6.9100    0.4190 C   0  0  0  0  0  0  0  0  0  0  0  0
    3.9800   -5.9120    0.9790 C   0  0  0  0  0  0  0  0  0  0  0  0
   -3.8280    0.6840    1.0110 N   0  0  0  0  0  0  0  0  0  0  0  0
  1  2  1  0
  2  3  2  0
  2 36  1  0
  3  4  1  0
  4  5  2  0
  4  9  1  0
  5  6  1  0
  6  7  2  0
  7  8  1  0
  8  9  2  0
  9 10  1  0
 10 11  1  1
 10 36  1  0
 11 12  1  0
 12 13  1  0
 13 14  1  0
 13 24  1  0
 14 15  1  0
 15 16  1  0
 16 17  1  6
 16 18  1  0
 18 19  2  0
 18 23  1  0
 19 20  1  0
 20 21  2  0
 21 22  1  0
 22 23  2  0
 24 25  2  0
 24 26  1  0
 26 27  1  0
 27 28  2  0
 27 32  1  0
 28 29  1  0
 29 30  2  0
 30 31  1  0
 30 35  1  0
 31 32  2  0
 31 33  1  0
 33 34  1  0
 34 35  1  0
M  CHG  1   3   1
M  END
