
     RDKit          3D

 36 40  0  0  0  0  0  0  0  0999 V2000
    5.4050    3.4260   -1.0780 C   0  0  0  0  0  0  0  0  0  0  0  0
    5.0990    2.2210   -0.7550 O   0  0  0  0  0  0  0  0  0  0  0  0
    4.6810    1.0340   -0.4060 C   0  0  0  0  0  0  0  0  0  0  0  0
    3.3440    0.8170   -0.0240 C   0  0  0  0  0  0  0  0  0  0  0  0
    2.8470   -0.3940    0.3500 C   0  0  0  0  0  0  0  0  0  0  0  0
    1.4690   -0.5740    0.7520 C   0  0  0  0  0  0  0  0  0  0  0  0
    1.0900   -1.5440    1.6690 C   0  0  0  0  0  0  0  0  0  0  0  0
   -0.2160   -1.7140    2.0770 C   0  0  0  0  0  0  0  0  0  0  0  0
   -1.1790   -0.8570    1.5270 C   0  0  0  0  0  0  0  0  0  0  0  0
   -0.8470    0.1110    0.6210 C   0  0  0  0  0  0  0  0  0  0  0  0
   -1.8900    1.0070    0.0890 C   0  0  2  0  0  0  0  0  0  0  0  0
   -1.2960    2.4140   -0.1630 C   0  0  0  0  0  0  0  0  0  0  0  0
   -2.9340    1.1680    1.0770 N   0  0  0  0  0  0  0  0  0  0  0  0
   -4.2260    0.6800    0.8510 C   0  0  0  0  0  0  0  0  0  0  0  0
   -5.1800    0.6990    1.8790 C   0  0  0  0  0  0  0  0  0  0  0  0
   -6.4490    0.2210    1.6600 C   0  0  0  0  0  0  0  0  0  0  0  0
   -6.8160   -0.2860    0.4380 C   0  0  0  0  0  0  0  0  0  0  0  0
   -8.1910   -0.8040    0.1750 C   0  0  0  0  0  0  0  0  0  0  0  0
   -8.9920   -0.6960    1.3850 N   0  0  0  0  0  0  0  0  0  0  0  0
   -5.8850   -0.3150   -0.5940 C   0  0  0  0  0  0  0  0  0  0  0  0
   -6.2470   -0.8220   -1.8210 C   0  0  0  0  0  0  0  0  0  0  0  0
   -5.3350   -0.8580   -2.8510 C   0  0  0  0  0  0  0  0  0  0  0  0
   -4.0560   -0.3880   -2.6640 C   0  0  0  0  0  0  0  0  0  0  0  0
   -3.0790   -0.4300   -3.7980 C   0  0  0  0  0  0  0  0  0  0  0  0
   -3.7130    0.1130   -1.4380 C   0  0  0  0  0  0  0  0  0  0  0  0
   -4.6030    0.1720   -0.3610 C   0  0  0  0  0  0  0  0  0  0  0  0
   -2.4040    0.6050   -1.2030 N   0  0  0  0  0  0  0  0  0  0  0  0
    0.4580    0.2540    0.2360 C   0  0  0  0  0  0  0  0  0  0  0  0
    3.7040   -1.4610    0.3530 C   0  0  0  0  0  0  0  0  0  0  0  0
    5.0350   -1.3260   -0.0090 C   0  0  0  0  0  0  0  0  0  0  0  0
    5.5140   -0.1060   -0.3810 C   0  0  0  0  0  0  0  0  0  0  0  0
    6.8040    0.1330   -0.7500 O   0  0  0  0  0  0  0  0  0  0  0  0
    7.9140   -0.6620   -0.8250 C   0  0  0  0  0  0  0  0  0  0  0  0
    8.4220   -1.2400    0.4530 C   0  0  0  0  0  0  0  0  0  0  0  0
    8.7920   -0.2000    1.4090 N   0  0  0  0  0  0  0  0  0  0  0  0
    9.2710   -0.7800    2.5980 N   0  0  0  0  0  0  0  0  0  0  0  0
  1  2  1  0
  2  3  1  0
  3  4  2  0
  3 31  1  0
  4  5  1  0
  5  6  1  0
  5 29  2  0
  6  7  2  0
  6 28  1  0
  7  8  1  0
  8  9  2  0
  9 10  1  0
 10 11  1  0
 10 28  2  0
 11 12  1  6
 11 13  1  0
 11 27  1  0
 13 14  1  0
 14 15  2  0
 14 26  1  0
 15 16  1  0
 16 17  2  0
 17 18  1  0
 17 20  1  0
 18 19  1  0
 20 21  2  0
 20 26  1  0
 21 22  1  0
 22 23  2  0
 23 24  1  0
 23 25  1  0
 25 26  2  0
 25 27  1  0
 29 30  1  0
 30 31  2  0
 31 32  1  0
 32 33  1  0
 33 34  1  0
 34 35  1  0
 35 36  1  0
M  CHG  1  19   1
M  END
