
     RDKit          3D

 36 38  0  0  0  0  0  0  0  0999 V2000
    1.3490    0.6230    0.9870 C   0  0  0  0  0  0  0  0  0  0  0  0
    2.5840    0.3600    0.2420 C   0  0  0  0  0  0  0  0  0  0  0  0
    3.8060    0.6560    0.8350 C   0  0  0  0  0  0  0  0  0  0  0  0
    4.9590    0.4100    0.1570 C   0  0  0  0  0  0  0  0  0  0  0  0
    6.5900    0.7650    0.9570 S   0  0  1  0  0  0  0  0  0  0  0  0
    6.8860    2.3110    0.4610 N   0  0  0  0  0  0  0  0  0  0  0  0
    6.3440    0.6600    2.4460 O   0  0  0  0  0  0  0  0  0  0  0  0
    7.5820   -0.2560    0.3030 O   0  0  0  0  0  0  0  0  0  0  0  0
    4.9630   -0.1170   -1.0910 C   0  0  0  0  0  0  0  0  0  0  0  0
    3.7260   -0.4190   -1.6940 C   0  0  0  0  0  0  0  0  0  0  0  0
    2.5520   -0.1770   -1.0180 C   0  0  0  0  0  0  0  0  0  0  0  0
    1.2890   -0.4440   -1.6120 N   0  0  0  0  0  0  0  0  0  0  0  0
    1.0290   -1.1050   -2.8230 C   0  0  0  0  0  0  0  0  0  0  0  0
    1.9590   -1.5330   -3.5400 O   0  0  0  0  0  0  0  0  0  0  0  0
   -0.4060   -1.3230   -3.2910 C   0  0  0  0  0  0  0  0  0  0  0  0
   -1.2250   -1.0300   -2.1980 O   0  0  0  0  0  0  0  0  0  0  0  0
   -1.2210   -1.6860   -0.9890 C   0  0  0  0  0  0  0  0  0  0  0  0
   -0.4370   -2.7520   -0.6520 C   0  0  0  0  0  0  0  0  0  0  0  0
   -0.5010   -3.3480    0.6040 C   0  0  0  0  0  0  0  0  0  0  0  0
   -1.3940   -2.8380    1.5420 C   0  0  0  0  0  0  0  0  0  0  0  0
   -1.4900   -3.5960    3.1140 Cl  0  0  0  0  0  0  0  0  0  0  0  0
   -2.2060   -1.7560    1.2360 C   0  0  0  0  0  0  0  0  0  0  0  0
   -2.1100   -1.2000   -0.0170 C   0  0  0  0  0  0  0  0  0  0  0  0
   -2.9120   -0.0570   -0.3590 C   0  0  0  0  0  0  0  0  0  0  0  0
   -2.4430    0.7550   -1.2430 O   0  0  0  0  0  0  0  0  0  0  0  0
   -4.2070    0.3040    0.1690 C   0  0  0  0  0  0  0  0  0  0  0  0
   -5.0580   -0.6120    0.7410 C   0  0  0  0  0  0  0  0  0  0  0  0
   -6.2620   -0.1520    1.2410 C   0  0  0  0  0  0  0  0  0  0  0  0
   -7.0980   -1.0560    1.8060 F   0  0  0  0  0  0  0  0  0  0  0  0
   -6.6140    1.1820    1.1780 C   0  0  0  0  0  0  0  0  0  0  0  0
   -5.7830    2.1140    0.6120 C   0  0  0  0  0  0  0  0  0  0  0  0
   -6.1830    3.5420    0.5440 C   0  0  2  0  0  0  0  0  0  0  0  0
   -7.1510    3.7340   -0.4550 F   0  0  0  0  0  0  0  0  0  0  0  0
   -5.0670    4.3030    0.2140 F   0  0  0  0  0  0  0  0  0  0  0  0
   -6.7430    3.9660    1.7050 F   0  0  0  0  0  0  0  0  0  0  0  0
   -4.5870    1.6460    0.1170 C   0  0  0  0  0  0  0  0  0  0  0  0
  1  2  1  0
  2  3  2  0
  2 11  1  0
  3  4  1  0
  4  5  1  0
  4  9  2  0
  5  6  1  1
  5  7  1  0
  5  8  1  0
  9 10  1  0
 10 11  2  0
 11 12  1  0
 12 13  1  0
 13 14  2  0
 13 15  1  0
 15 16  1  0
 16 17  1  0
 17 18  2  0
 17 23  1  0
 18 19  1  0
 19 20  2  0
 20 21  1  0
 20 22  1  0
 22 23  2  0
 23 24  1  0
 24 25  2  0
 24 26  1  0
 26 27  2  0
 26 36  1  0
 27 28  1  0
 28 29  1  0
 28 30  2  0
 30 31  1  0
 31 32  1  0
 31 36  2  0
 32 33  1  6
 32 34  1  0
 32 35  1  0
M  END
