
     RDKit          3D

 36 39  0  0  0  0  0  0  0  0999 V2000
   -8.5100    3.4640    2.4100 N   0  0  0  0  0  0  0  0  0  0  0  0
   -7.6040    2.4680    1.9130 C   0  0  0  0  0  0  0  0  0  0  0  0
   -6.4410    2.5070    2.3420 O   0  0  0  0  0  0  0  0  0  0  0  0
   -8.0000    1.4900    0.9850 N   0  0  0  0  0  0  0  0  0  0  0  0
   -7.1920    0.4680    0.4330 C   0  0  0  0  0  0  0  0  0  0  0  0
   -7.7840   -0.4230   -0.4740 C   0  0  0  0  0  0  0  0  0  0  0  0
   -7.0660   -1.4340   -1.0480 C   0  0  0  0  0  0  0  0  0  0  0  0
   -5.7470   -1.6470   -0.7840 C   0  0  0  0  0  0  0  0  0  0  0  0
   -5.1380   -0.7930    0.0990 C   0  0  0  0  0  0  0  0  0  0  0  0
   -5.8680    0.2530    0.6960 C   0  0  0  0  0  0  0  0  0  0  0  0
   -3.6950   -0.9420    0.4520 C   0  0  2  0  0  0  0  0  0  0  0  0
   -3.0340    0.2890    0.0440 N   0  0  0  0  0  0  0  0  0  0  0  0
   -1.6290    0.2230    0.1940 C   0  0  0  0  0  0  0  0  0  0  0  0
   -0.8120    0.1590   -1.0210 C   0  0  0  0  0  0  0  0  0  0  0  0
   -1.3080    0.1570   -2.2960 C   0  0  0  0  0  0  0  0  0  0  0  0
   -0.4420    0.0940   -3.3560 C   0  0  0  0  0  0  0  0  0  0  0  0
    0.9390    0.0310   -3.1350 C   0  0  0  0  0  0  0  0  0  0  0  0
    1.4400    0.0330   -1.8420 C   0  0  0  0  0  0  0  0  0  0  0  0
    0.5870    0.0960   -0.7930 C   0  0  0  0  0  0  0  0  0  0  0  0
    1.0810    0.0690    0.6020 C   0  0  0  0  0  0  0  0  0  0  0  0
    2.5100    0.0650    0.6170 N   0  0  0  0  0  0  0  0  0  0  0  0
    3.3110    1.1530    0.1850 C   0  0  0  0  0  0  0  0  0  0  0  0
    2.7550    2.1890   -0.2320 O   0  0  0  0  0  0  0  0  0  0  0  0
    4.7610    1.0380    0.2390 C   0  0  0  0  0  0  0  0  0  0  0  0
    5.4930   -0.0690    0.6860 C   0  0  0  0  0  0  0  0  0  0  0  0
    6.8400    0.2100    0.5810 C   0  0  0  0  0  0  0  0  0  0  0  0
    7.9460   -0.6680    0.9380 C   0  0  0  0  0  0  0  0  0  0  0  0
    7.7570   -1.8830    1.4230 C   0  0  0  0  0  0  0  0  0  0  0  0
    8.8250   -2.7450    1.7740 N   0  0  0  0  0  0  0  0  0  0  0  0
    6.8830    1.4880    0.0690 C   0  0  0  0  0  0  0  0  0  0  0  0
    8.1510    2.2080   -0.2130 C   0  0  0  0  0  0  0  0  0  0  0  0
    7.8400    3.5060   -0.7350 N   0  0  0  0  0  0  0  0  0  0  0  0
    5.6620    1.9240   -0.1120 O   0  0  0  0  0  0  0  0  0  0  0  0
   -3.0620   -2.1900   -0.0160 C   0  0  0  0  0  0  0  0  0  0  0  0
   -4.0890   -3.2820   -0.2470 C   0  0  0  0  0  0  0  0  0  0  0  0
   -4.9570   -2.7400   -1.3940 C   0  0  0  0  0  0  0  0  0  0  0  0
  1  2  1  0
  2  3  2  0
  2  4  1  0
  4  5  1  0
  5  6  2  0
  5 10  1  0
  6  7  1  0
  7  8  2  0
  8  9  1  0
  8 36  1  0
  9 10  2  0
  9 11  1  0
 11 12  1  6
 11 34  1  0
 12 13  1  0
 13 14  1  0
 14 15  2  0
 14 19  1  0
 15 16  1  0
 16 17  2  0
 17 18  1  0
 18 19  2  0
 19 20  1  0
 20 21  1  0
 21 22  1  0
 22 23  2  0
 22 24  1  0
 24 25  2  0
 24 33  1  0
 25 26  1  0
 26 27  1  0
 26 30  2  0
 27 28  2  3
 28 29  1  0
 30 31  1  0
 30 33  1  0
 31 32  1  0
 34 35  1  0
 35 36  1  0
M  CHG  3  12   1  29   1  32   1
M  END
