
     RDKit          3D

 36 40  0  0  0  0  0  0  0  0999 V2000
   -4.2640    3.2700    4.1930 C   0  0  0  0  0  0  0  0  0  0  0  0
   -3.3480    3.0470    3.0260 C   0  0  0  0  0  0  0  0  0  0  0  0
   -3.1620    4.0030    2.0810 C   0  0  0  0  0  0  0  0  0  0  0  0
   -2.3260    3.7840    1.0300 C   0  0  0  0  0  0  0  0  0  0  0  0
   -1.6080    2.5880    0.8380 C   0  0  0  0  0  0  0  0  0  0  0  0
   -0.7300    2.4830   -0.3250 C   0  0  1  0  0  0  0  0  0  0  0  0
    0.7200    2.6080   -0.1060 C   0  0  1  0  0  0  0  0  0  0  0  0
    1.2240    3.3580    1.0530 C   0  0  0  0  0  0  0  0  0  0  0  0
    0.8490    4.7380    1.1190 N   0  0  0  0  0  0  0  0  0  0  0  0
    1.1760    1.1980   -0.2440 C   0  0  2  0  0  0  0  0  0  0  0  0
    2.5540    0.9420   -0.2050 N   0  0  0  0  0  0  0  0  0  0  0  0
    3.1900   -0.0840    0.5510 C   0  0  0  0  0  0  0  0  0  0  0  0
    2.4570   -0.8180    1.2310 O   0  0  0  0  0  0  0  0  0  0  0  0
    4.5980   -0.2590    0.5260 N   0  0  0  0  0  0  0  0  0  0  0  0
    5.2890   -1.2800    1.2550 C   0  0  0  0  0  0  0  0  0  0  0  0
    4.7910   -2.6240    0.7600 C   0  0  1  0  0  0  0  0  0  0  0  0
    5.2470   -2.8590   -0.6750 C   0  0  0  0  0  0  0  0  0  0  0  0
    6.7240   -3.1350   -0.4480 C   0  0  0  0  0  0  0  0  0  0  0  0
    6.7280   -3.5800    0.9960 C   0  0  0  0  0  0  0  0  0  0  0  0
    5.4130   -3.6470    1.4260 O   0  0  0  0  0  0  0  0  0  0  0  0
    0.4750    0.9060   -1.5650 C   0  0  0  0  0  0  0  0  0  0  0  0
   -0.8760    1.3410   -1.1560 N   0  0  0  0  0  0  0  0  0  0  0  0
   -1.7160    0.2940   -0.8280 C   0  0  0  0  0  0  0  0  0  0  0  0
   -2.1100   -0.4820   -2.0590 C   0  0  0  0  0  0  0  0  0  0  0  0
   -1.7360   -0.1880   -3.2740 C   0  0  0  0  0  0  0  0  0  0  0  0
   -2.1150   -0.9430   -4.4920 C   0  0  0  0  0  0  0  0  0  0  0  0
   -2.9590   -2.0730   -4.2400 N   0  0  0  0  0  0  0  0  0  0  0  0
   -3.3820   -2.4240   -2.9510 C   0  0  0  0  0  0  0  0  0  0  0  0
   -4.2030   -3.5460   -2.8000 C   0  0  0  0  0  0  0  0  0  0  0  0
   -4.6100   -3.8820   -1.5290 C   0  0  0  0  0  0  0  0  0  0  0  0
   -4.2170   -3.1320   -0.4450 C   0  0  0  0  0  0  0  0  0  0  0  0
   -4.6460   -3.4840    0.9280 C   0  0  0  0  0  0  0  0  0  0  0  0
   -3.4000   -2.0230   -0.6290 C   0  0  0  0  0  0  0  0  0  0  0  0
   -2.9810   -1.6680   -1.8920 C   0  0  0  0  0  0  0  0  0  0  0  0
   -1.8180    1.6460    1.8090 C   0  0  0  0  0  0  0  0  0  0  0  0
   -2.6640    1.8450    2.8900 C   0  0  0  0  0  0  0  0  0  0  0  0
  1  2  1  0
  2  3  2  0
  2 36  1  0
  3  4  1  0
  4  5  2  0
  6  5  1  1
  5 35  1  0
  6  7  1  0
  6 22  1  0
  7  8  1  1
  7 10  1  0
  8  9  1  0
 10 11  1  6
 10 21  1  0
 11 12  1  0
 12 13  2  0
 12 14  1  0
 14 15  1  0
 16 15  1  1
 16 17  1  0
 16 20  1  0
 17 18  1  0
 18 19  1  0
 19 20  1  0
 21 22  1  0
 22 23  1  0
 23 24  1  0
 24 25  2  0
 24 34  1  0
 25 26  1  0
 26 27  1  0
 27 28  1  0
 28 29  2  0
 28 34  1  0
 29 30  1  0
 30 31  2  0
 31 32  1  0
 31 33  1  0
 33 34  2  0
 35 36  2  0
M  CHG  1   9   1
M  END
