
     RDKit          3D

 36 40  0  0  0  0  0  0  0  0999 V2000
   -5.3610   -0.1460    1.6790 C   0  0  0  0  0  0  0  0  0  0  0  0
   -4.2850   -1.0580    1.1810 C   0  0  0  0  0  0  0  0  0  0  0  0
   -2.9950   -0.5310    1.0490 C   0  0  0  0  0  0  0  0  0  0  0  0
   -1.9840   -1.3650    0.5950 C   0  0  0  0  0  0  0  0  0  0  0  0
   -0.6960   -0.8210    0.4730 C   0  0  0  0  0  0  0  0  0  0  0  0
   -0.4330    0.5910    0.7980 C   0  0  0  0  0  0  0  0  0  0  0  0
   -0.7730    1.4760   -0.3480 C   0  0  0  0  0  0  0  0  0  0  0  0
   -0.5300    2.8900   -0.0430 N   0  0  0  0  0  0  0  0  0  0  0  0
   -0.8110    3.8470   -1.0520 C   0  0  0  0  0  0  0  0  0  0  0  0
   -1.2560    3.4310   -2.1650 O   0  0  0  0  0  0  0  0  0  0  0  0
   -0.6080    5.2990   -0.8670 C   0  0  2  0  0  0  0  0  0  0  0  0
    0.5210    5.7900   -0.0260 C   0  0  0  0  0  0  0  0  0  0  0  0
   -0.8890    5.9370    0.4460 C   0  0  0  0  0  0  0  0  0  0  0  0
    0.3510   -1.6220    0.0250 C   0  0  0  0  0  0  0  0  0  0  0  0
    1.6460   -1.0660   -0.1560 N   0  0  0  0  0  0  0  0  0  0  0  0
    2.8350   -1.7550   -0.4670 C   0  0  0  0  0  0  0  0  0  0  0  0
    2.8240   -2.9890   -0.6100 O   0  0  0  0  0  0  0  0  0  0  0  0
    4.1490   -1.0660   -0.6400 C   0  0  2  0  0  0  0  0  0  0  0  0
    5.1670   -1.6140    0.3420 C   0  0  0  0  0  0  0  0  0  0  0  0
    6.5410   -1.1360   -0.0720 C   0  0  0  0  0  0  0  0  0  0  0  0
    6.5170    0.3740   -0.0860 C   0  0  1  0  0  0  0  0  0  0  0  0
    6.5870    0.8980    1.3310 C   0  0  0  0  0  0  0  0  0  0  0  0
    7.7690    0.8130   -0.8400 C   0  0  0  0  0  0  0  0  0  0  0  0
    5.3420    0.9320   -0.8210 C   0  0  0  0  0  0  0  0  0  0  0  0
    4.0700    0.3560   -0.4380 N   0  0  0  0  0  0  0  0  0  0  0  0
    0.0570   -2.9330   -0.2770 C   0  0  0  0  0  0  0  0  0  0  0  0
   -1.1980   -3.4670   -0.1580 C   0  0  0  0  0  0  0  0  0  0  0  0
   -2.2470   -2.6820    0.2840 C   0  0  0  0  0  0  0  0  0  0  0  0
   -3.5080   -3.1900    0.4160 C   0  0  0  0  0  0  0  0  0  0  0  0
   -4.5280   -2.3640    0.8680 C   0  0  0  0  0  0  0  0  0  0  0  0
   -5.8890   -2.9230    0.9980 C   0  0  0  0  0  0  0  0  0  0  0  0
   -6.8150   -2.5750   -0.0740 C   0  0  0  0  0  0  0  0  0  0  0  0
   -7.7300   -1.5650   -0.1430 C   0  0  0  0  0  0  0  0  0  0  0  0
   -8.3530   -1.6570   -1.3570 N   0  0  0  0  0  0  0  0  0  0  0  0
   -7.8520   -2.6820   -2.0240 N   0  0  0  0  0  0  0  0  0  0  0  0
   -6.9130   -3.2630   -1.2710 C   0  0  0  0  0  0  0  0  0  0  0  0
  1  2  1  0
  2  3  2  0
  2 30  1  0
  3  4  1  0
  4  5  2  0
  4 28  1  0
  5  6  1  0
  5 14  1  0
  6  7  1  0
  7  8  1  0
  8  9  1  0
  9 10  2  0
 11  9  1  1
 11 12  1  0
 11 13  1  0
 12 13  1  0
 14 15  1  0
 14 26  2  0
 15 16  1  0
 16 17  2  0
 18 16  1  1
 18 19  1  0
 18 25  1  0
 19 20  1  0
 20 21  1  0
 21 22  1  1
 21 23  1  0
 21 24  1  0
 24 25  1  0
 26 27  1  0
 27 28  2  0
 28 29  1  0
 29 30  2  0
 30 31  1  0
 31 32  1  0
 32 33  2  0
 32 36  1  0
 33 34  1  0
 34 35  1  0
 35 36  2  0
M  CHG  2  25   1  35   1
M  END
