
     RDKit          3D

 36 38  0  0  0  0  0  0  0  0999 V2000
   -4.9700   -4.9880   -0.6330 C   0  0  0  0  0  0  0  0  0  0  0  0
   -4.0180   -3.9420   -1.2260 C   0  0  2  0  0  0  0  0  0  0  0  0
   -4.8500   -2.9080   -1.9380 C   0  0  0  0  0  0  0  0  0  0  0  0
   -3.1890   -4.6570   -2.2630 C   0  0  0  0  0  0  0  0  0  0  0  0
   -3.2690   -3.4380   -0.1660 O   0  0  0  0  0  0  0  0  0  0  0  0
   -2.2850   -2.4670   -0.2480 C   0  0  0  0  0  0  0  0  0  0  0  0
   -1.0000   -2.8690   -0.4650 C   0  0  0  0  0  0  0  0  0  0  0  0
    0.0070   -1.9020   -0.5510 C   0  0  0  0  0  0  0  0  0  0  0  0
    1.3220   -2.3740   -0.7980 N   0  0  0  0  0  0  0  0  0  0  0  0
    2.4400   -1.5420   -0.5480 C   0  0  0  0  0  0  0  0  0  0  0  0
    2.4490   -0.8310    0.5190 N   0  0  0  0  0  0  0  0  0  0  0  0
    3.4900    0.0680    0.9370 C   0  0  0  0  0  0  0  0  0  0  0  0
    4.7100   -0.1160    0.1670 C   0  0  0  0  0  0  0  0  0  0  0  0
    5.6990    0.7650    0.2930 C   0  0  0  0  0  0  0  0  0  0  0  0
    5.5220    1.8840    1.2020 C   0  0  0  0  0  0  0  0  0  0  0  0
    6.4820    2.7700    1.3450 C   0  0  0  0  0  0  0  0  0  0  0  0
    6.3300    3.9080    2.2550 C   0  0  0  0  0  0  0  0  0  0  0  0
    6.4280    5.1890    1.6000 N   0  0  0  0  0  0  0  0  0  0  0  0
    4.8730   -1.2740   -0.7460 C   0  0  1  0  0  0  0  0  0  0  0  0
    5.2900   -2.4630    0.0650 C   0  0  0  0  0  0  0  0  0  0  0  0
    6.5410   -2.1540    0.7180 N   0  0  0  0  0  0  0  0  0  0  0  0
    3.5890   -1.5210   -1.5110 C   0  0  0  0  0  0  0  0  0  0  0  0
   -0.3610   -0.6000   -0.4110 C   0  0  0  0  0  0  0  0  0  0  0  0
   -1.6810   -0.2120   -0.1890 C   0  0  0  0  0  0  0  0  0  0  0  0
   -2.6830   -1.1550   -0.1020 C   0  0  0  0  0  0  0  0  0  0  0  0
   -4.0160   -0.8130    0.1180 O   0  0  0  0  0  0  0  0  0  0  0  0
   -4.4540    0.4910    0.2610 C   0  0  0  0  0  0  0  0  0  0  0  0
   -4.8690    1.2580   -0.8020 C   0  0  0  0  0  0  0  0  0  0  0  0
   -5.3110    2.5810   -0.6250 C   0  0  0  0  0  0  0  0  0  0  0  0
   -5.3540    3.1800    0.6000 C   0  0  0  0  0  0  0  0  0  0  0  0
   -5.7980    4.4930    0.8590 N   0  0  0  0  0  0  0  0  0  0  0  0
   -6.4550    5.3400   -0.0460 C   0  0  0  0  0  0  0  0  0  0  0  0
   -6.8730    6.6700    0.2930 N   0  0  0  0  0  0  0  0  0  0  0  0
   -6.7110    4.9710   -1.2040 O   0  0  0  0  0  0  0  0  0  0  0  0
   -4.9240    2.3750    1.6680 C   0  0  0  0  0  0  0  0  0  0  0  0
   -4.4910    1.0820    1.5040 C   0  0  0  0  0  0  0  0  0  0  0  0
  2  1  1  1
  2  3  1  0
  2  4  1  0
  2  5  1  0
  5  6  1  0
  6  7  2  0
  6 25  1  0
  7  8  1  0
  8  9  1  0
  8 23  2  0
  9 10  1  0
 10 11  2  0
 10 22  1  0
 11 12  1  0
 12 13  1  0
 13 14  2  3
 13 19  1  0
 14 15  1  0
 15 16  2  3
 16 17  1  0
 17 18  1  0
 19 20  1  1
 19 22  1  0
 20 21  1  0
 23 24  1  0
 24 25  2  0
 25 26  1  0
 26 27  1  0
 27 28  2  0
 27 36  1  0
 28 29  1  0
 29 30  2  0
 30 31  1  0
 30 35  1  0
 31 32  1  0
 32 33  1  0
 32 34  2  0
 35 36  2  0
M  CHG  3  11   1  18   1  21   1
M  END
