
     RDKit          3D

 36 38  0  0  0  0  0  0  0  0999 V2000
   -3.3940   -6.1290    1.2770 C   0  0  0  0  0  0  0  0  0  0  0  0
   -4.3710   -5.3320    1.6200 C   0  0  0  0  0  0  0  0  0  0  0  0
   -4.6590   -4.1560    0.8160 C   0  0  0  0  0  0  0  0  0  0  0  0
   -5.6400   -3.3100    1.0930 C   0  0  0  0  0  0  0  0  0  0  0  0
   -6.5100   -3.5070    2.2510 C   0  0  0  0  0  0  0  0  0  0  0  0
   -3.8760   -3.9480   -0.3350 N   0  0  0  0  0  0  0  0  0  0  0  0
   -2.7310   -3.1000   -0.4270 C   0  0  0  0  0  0  0  0  0  0  0  0
   -1.4790   -3.5690   -0.5770 C   0  0  0  0  0  0  0  0  0  0  0  0
   -0.5550   -2.4170   -0.6630 C   0  0  0  0  0  0  0  0  0  0  0  0
   -1.2170   -1.3030   -0.5660 C   0  0  0  0  0  0  0  0  0  0  0  0
   -0.8450    0.1180   -0.5950 C   0  0  0  0  0  0  0  0  0  0  0  0
    0.3780    0.6240   -0.4040 N   0  0  0  0  0  0  0  0  0  0  0  0
    1.6740   -0.0320   -0.0830 C   0  0  0  0  0  0  0  0  0  0  0  0
    1.7640   -1.1590    0.1050 O   0  0  0  0  0  0  0  0  0  0  0  0
    2.6490    1.0390   -0.1000 N   0  0  0  0  0  0  0  0  0  0  0  0
    4.0620    0.0000    0.1320 C   0  0  0  0  0  0  0  0  0  0  0  0
    3.7920   -1.1150    0.1700 O   0  0  0  0  0  0  0  0  0  0  0  0
    5.2550    0.8460    0.2200 C   0  0  0  0  0  0  0  0  0  0  0  0
    6.4870    0.0120    0.2970 C   0  0  1  0  0  0  0  0  0  0  0  0
    6.4570   -0.8670    1.4420 N   0  0  0  0  0  0  0  0  0  0  0  0
    6.7550   -0.7550   -0.9710 C   0  0  0  0  0  0  0  0  0  0  0  0
    8.0090   -1.5940   -0.9150 C   0  0  0  0  0  0  0  0  0  0  0  0
    9.2470   -0.8020   -0.6440 C   0  0  0  0  0  0  0  0  0  0  0  0
   -1.8640    0.9270   -0.8810 C   0  0  0  0  0  0  0  0  0  0  0  0
   -1.6300    2.3940   -0.9470 C   0  0  0  0  0  0  0  0  0  0  0  0
   -2.5390    3.2140   -0.4230 C   0  0  0  0  0  0  0  0  0  0  0  0
   -2.3950    4.6810   -0.4490 C   0  0  0  0  0  0  0  0  0  0  0  0
   -1.3450    5.4320   -1.0270 C   0  0  0  0  0  0  0  0  0  0  0  0
   -0.2780    5.1950   -1.6640 C   0  0  0  0  0  0  0  0  0  0  0  0
   -3.4280    5.3330    0.1700 C   0  0  0  0  0  0  0  0  0  0  0  0
   -3.3610    6.8020    0.1880 C   0  0  0  0  0  0  0  0  0  0  0  0
   -3.7210    2.6310    0.2430 C   0  0  0  0  0  0  0  0  0  0  0  0
   -3.9730    1.2060    0.0710 C   0  0  0  0  0  0  0  0  0  0  0  0
   -3.2190    0.5290   -1.0920 C   0  0  2  0  0  0  0  0  0  0  0  0
   -3.5380   -0.8590   -1.0490 N   0  0  0  0  0  0  0  0  0  0  0  0
   -2.6370   -1.6560   -0.3210 C   0  0  1  0  0  0  0  0  0  0  0  0
  1  2  2  0
  2  3  1  0
  3  4  2  3
  3  6  1  0
  4  5  1  0
  6  7  1  0
  7  8  2  0
  7 36  1  0
  8  9  1  0
  9 10  2  0
 10 11  1  0
 10 36  1  0
 11 12  1  0
 11 24  2  0
 12 13  1  0
 13 14  2  0
 13 15  1  0
 15 16  1  0
 16 17  2  0
 16 18  1  0
 18 19  1  0
 19 20  1  1
 19 21  1  0
 21 22  1  0
 22 23  1  0
 24 25  1  0
 24 34  1  0
 25 26  2  0
 26 27  1  0
 26 32  1  0
 27 28  1  0
 27 30  2  3
 28 29  2  0
 30 31  1  0
 32 33  1  0
 34 33  1  1
 34 35  1  0
 36 35  1  6
M  CHG  1  20   1
M  END
