
     RDKit          3D

 11 11  0  0  0  0  0  0  0  0999 V2000
    3.5900   -0.0640    0.4050 C   0  0  0  0  0  0  0  0  0  0  0  0
    2.7650   -0.0270   -0.8680 C   0  0  0  0  0  0  0  0  0  0  0  0
    1.4460   -0.6960   -0.6970 C   0  0  0  0  0  0  0  0  0  0  0  0
    0.5480   -0.1360    0.3350 C   0  0  2  0  0  0  0  0  0  0  0  0
    1.2000   -0.2160    1.5780 O   0  0  0  0  0  0  0  0  0  0  0  0
   -0.6570   -1.0650    0.4570 C   0  0  0  0  0  0  0  0  0  0  0  0
   -1.6870   -0.3050    1.2660 C   0  0  0  0  0  0  0  0  0  0  0  0
   -2.3740    0.6550    0.2980 C   0  0  2  0  0  0  0  0  0  0  0  0
   -3.4160   -0.1280   -0.4490 C   0  0  0  0  0  0  0  0  0  0  0  0
   -1.3170    1.2320   -0.6210 C   0  0  0  0  0  0  0  0  0  0  0  0
    0.0280    1.2260    0.1200 C   0  0  0  0  0  0  0  0  0  0  0  0
  1  2  1  0
  2  3  1  0
  3  4  1  0
  4  5  1  1
  4  6  1  0
  4 11  1  0
  6  7  1  0
  7  8  1  0
  8  9  1  6
  8 10  1  0
 10 11  1  0
M  END
