
     RDKit          3D

 11 11  0  0  0  0  0  0  0  0999 V2000
   -3.1450   -0.0580    0.5550 C   0  0  0  0  0  0  0  0  0  0  0  0
   -2.3190   -0.4380   -0.3570 C   0  0  0  0  0  0  0  0  0  0  0  0
   -0.8950   -0.2810   -0.2660 C   0  0  0  0  0  0  0  0  0  0  0  0
   -0.3030    0.8150    0.2890 C   0  0  0  0  0  0  0  0  0  0  0  0
   -1.0730    1.9900    0.7730 C   0  0  0  0  0  0  0  0  0  0  0  0
    1.0870    0.8760    0.3820 C   0  0  0  0  0  0  0  0  0  0  0  0
    1.8940   -0.1420   -0.0740 C   0  0  0  0  0  0  0  0  0  0  0  0
    3.3730   -0.1310   -0.0010 C   0  0  0  0  0  0  0  0  0  0  0  0
    1.2530   -1.2270   -0.6270 C   0  0  0  0  0  0  0  0  0  0  0  0
   -0.1040   -1.3290   -0.7370 C   0  0  0  0  0  0  0  0  0  0  0  0
   -0.7350   -2.4380   -1.3030 O   0  0  0  0  0  0  0  0  0  0  0  0
  1  2  2  0
  2  3  1  0
  3  4  2  0
  3 10  1  0
  4  5  1  0
  4  6  1  0
  6  7  2  0
  7  8  1  0
  7  9  1  0
  9 10  2  0
 10 11  1  0
M  END
