
     RDKit          3D

 13 13  0  0  0  0  0  0  0  0999 V2000
    3.0710    0.7820    0.6510 C   0  0  0  0  0  0  0  0  0  0  0  0
    2.8070   -0.2310   -0.3470 N   0  0  0  0  0  0  0  0  0  0  0  0
    1.7880   -1.1680    0.0840 C   0  0  0  0  0  0  0  0  0  0  0  0
    0.4360   -0.5880    0.0410 C   0  0  0  0  0  0  0  0  0  0  0  0
    0.2100    0.6460   -0.3490 C   0  0  0  0  0  0  0  0  0  0  0  0
   -1.1310    1.2120   -0.3880 C   0  0  0  0  0  0  0  0  0  0  0  0
   -2.1780    0.5010   -0.0320 C   0  0  0  0  0  0  0  0  0  0  0  0
   -3.5380    1.1510   -0.0970 C   0  0  1  0  0  0  0  0  0  0  0  0
   -4.0760    1.1300    1.1640 F   0  0  0  0  0  0  0  0  0  0  0  0
   -3.4090    2.4630   -0.4750 F   0  0  0  0  0  0  0  0  0  0  0  0
   -4.3650    0.5040   -0.9790 F   0  0  0  0  0  0  0  0  0  0  0  0
   -2.0520   -0.8780    0.4100 C   0  0  0  0  0  0  0  0  0  0  0  0
   -0.6970   -1.4240    0.4570 C   0  0  0  0  0  0  0  0  0  0  0  0
  1  2  1  0
  2  3  1  0
  3  4  1  0
  4  5  2  0
  4 13  1  0
  5  6  1  0
  6  7  2  0
  7  8  1  0
  7 12  1  0
  8  9  1  1
  8 10  1  0
  8 11  1  0
 12 13  1  0
M  CHG  1   2   1
M  END
