
     RDKit          3D

 11 11  0  0  0  0  0  0  0  0999 V2000
    1.9960    2.7520   -1.9270 C   0  0  0  0  0  0  0  0  0  0  0  0
    0.8330    1.8930   -1.6020 C   0  0  0  0  0  0  0  0  0  0  0  0
    1.0210    0.6110   -1.3770 C   0  0  0  0  0  0  0  0  0  0  0  0
    2.3460   -0.0420   -1.4290 C   0  0  0  0  0  0  0  0  0  0  0  0
   -0.0770   -0.1970   -1.0700 O   0  0  0  0  0  0  0  0  0  0  0  0
   -0.1150   -0.9470    0.1540 C   0  0  1  0  0  0  0  0  0  0  0  0
   -0.0320   -0.0230    1.2880 C   0  0  0  0  0  0  0  0  0  0  0  0
   -1.2700    0.1630    2.1060 C   0  0  0  0  0  0  0  0  0  0  0  0
   -1.9640   -1.1750    2.2570 C   0  0  0  0  0  0  0  0  0  0  0  0
   -2.4740   -1.4700    0.8400 C   0  0  0  0  0  0  0  0  0  0  0  0
   -1.2620   -1.8720    0.0700 C   0  0  0  0  0  0  0  0  0  0  0  0
  1  2  1  0
  2  3  2  3
  3  4  1  0
  3  5  1  0
  6  5  1  6
  6  7  1  0
  6 11  1  0
  7  8  1  0
  8  9  1  0
  9 10  1  0
 10 11  1  0
M  END
