
     RDKit          3D

 13 14  0  0  0  0  0  0  0  0999 V2000
    4.3290    0.2290    2.0860 N   0  0  0  0  0  0  0  0  0  0  0  0
    3.3430   -0.2430    1.1360 C   0  0  0  0  0  0  0  0  0  0  0  0
    2.8840   -1.1530    0.6060 N   0  0  0  0  0  0  0  0  0  0  0  0
    1.9240   -1.2740   -0.2750 C   0  0  0  0  0  0  0  0  0  0  0  0
    1.3330   -0.1410   -0.6630 C   0  0  0  0  0  0  0  0  0  0  0  0
    0.2360    0.2190   -1.6090 C   0  0  0  0  0  0  0  0  0  0  0  0
   -1.0930    0.1940   -0.9280 C   0  0  0  0  0  0  0  0  0  0  0  0
   -1.8700   -0.9450   -0.8770 C   0  0  0  0  0  0  0  0  0  0  0  0
   -3.1080   -0.9520   -0.2370 C   0  0  0  0  0  0  0  0  0  0  0  0
   -3.6020    0.1810    0.3700 C   0  0  0  0  0  0  0  0  0  0  0  0
   -2.8320    1.3200    0.3240 C   0  0  0  0  0  0  0  0  0  0  0  0
   -1.5940    1.3240   -0.3170 C   0  0  0  0  0  0  0  0  0  0  0  0
    2.2550    1.1270    0.3310 S   0  0  0  0  0  0  0  0  0  0  0  0
  1  2  1  0
  2  3  2  0
  2 13  1  0
  3  4  1  0
  4  5  2  0
  5  6  1  0
  5 13  1  0
  6  7  1  0
  7  8  2  0
  7 12  1  0
  8  9  1  0
  9 10  2  0
 10 11  1  0
 11 12  2  0
M  END
