
     RDKit          3D

 11 11  0  0  0  0  0  0  0  0999 V2000
    4.5280    0.1910    0.6700 C   0  0  0  0  0  0  0  0  0  0  0  0
    3.4650    0.5530   -0.0250 C   0  0  0  0  0  0  0  0  0  0  0  0
    2.1470   -0.0760    0.2230 C   0  0  0  0  0  0  0  0  0  0  0  0
    2.1230   -0.9440    1.1080 O   0  0  0  0  0  0  0  0  0  0  0  0
    1.0350    0.3700   -0.5720 C   0  0  0  0  0  0  0  0  0  0  0  0
   -0.2830   -0.1860   -0.4000 C   0  0  0  0  0  0  0  0  0  0  0  0
   -0.6230   -1.1220    0.4590 C   0  0  0  0  0  0  0  0  0  0  0  0
   -2.0880   -1.5130    0.4180 C   0  0  0  0  0  0  0  0  0  0  0  0
   -2.8480   -0.2460    0.7400 C   0  0  0  0  0  0  0  0  0  0  0  0
   -2.4920    0.8000   -0.2960 C   0  0  0  0  0  0  0  0  0  0  0  0
   -1.4400    0.3060   -1.2570 C   0  0  0  0  0  0  0  0  0  0  0  0
  1  2  2  0
  2  3  1  0
  3  4  2  0
  3  5  1  0
  5  6  1  0
  6  7  2  0
  6 11  1  0
  7  8  1  0
  8  9  1  0
  9 10  1  0
 10 11  1  0
M  END
