
     RDKit          3D

 11 12  0  0  0  0  0  0  0  0999 V2000
    3.1920    0.5180    0.2930 C   0  0  0  0  0  0  0  0  0  0  0  0
    1.7860    0.0510    0.2430 C   0  0  0  0  0  0  0  0  0  0  0  0
    1.4690   -1.2750    0.3690 C   0  0  0  0  0  0  0  0  0  0  0  0
    0.1300   -1.6690    0.3150 C   0  0  0  0  0  0  0  0  0  0  0  0
   -0.8880   -0.7720    0.1400 C   0  0  0  0  0  0  0  0  0  0  0  0
   -0.5350    0.5610    0.0160 C   0  0  0  0  0  0  0  0  0  0  0  0
    0.7890    0.9550    0.0680 C   0  0  0  0  0  0  0  0  0  0  0  0
   -1.5620    1.5690   -0.1730 C   0  0  0  0  0  0  0  0  0  0  0  0
   -2.8320    1.1990   -0.2250 C   0  0  0  0  0  0  0  0  0  0  0  0
   -3.1700   -0.1190   -0.1010 O   0  0  0  0  0  0  0  0  0  0  0  0
   -2.3060   -1.1910    0.0830 C   0  0  0  0  0  0  0  0  0  0  0  0
  1  2  1  0
  2  3  2  0
  2  7  1  0
  3  4  1  0
  4  5  2  0
  5  6  1  0
  5 11  1  0
  6  7  2  0
  6  8  1  0
  8  9  2  0
  9 10  1  0
 10 11  1  0
M  END
