
     RDKit          3D

 11 11  0  0  0  0  0  0  0  0999 V2000
    3.0760   -0.6520   -0.0770 C   0  0  0  0  0  0  0  0  0  0  0  0
    2.7540    0.7440   -0.2800 C   0  0  0  0  0  0  0  0  0  0  0  0
    1.6230    1.3430   -0.2940 C   0  0  0  0  0  0  0  0  0  0  0  0
    0.2890    0.8400   -0.1150 C   0  0  0  0  0  0  0  0  0  0  0  0
    0.0080   -0.4820    0.1200 C   0  0  0  0  0  0  0  0  0  0  0  0
   -1.3110   -0.9380    0.2890 C   0  0  0  0  0  0  0  0  0  0  0  0
   -1.5940   -2.3700    0.5430 C   0  0  0  0  0  0  0  0  0  0  0  0
   -2.3100   -0.0130    0.2120 C   0  0  0  0  0  0  0  0  0  0  0  0
   -2.0440    1.3300   -0.0260 C   0  0  0  0  0  0  0  0  0  0  0  0
   -3.1000    2.2320   -0.0960 O   0  0  0  0  0  0  0  0  0  0  0  0
   -0.7630    1.7840   -0.1920 C   0  0  0  0  0  0  0  0  0  0  0  0
  1  2  1  0
  2  3  2  3
  3  4  1  0
  4  5  2  0
  4 11  1  0
  5  6  1  0
  6  7  1  0
  6  8  2  0
  8  9  1  0
  9 10  1  0
  9 11  2  0
M  END
