
     RDKit          3D

 10 10  0  0  0  0  0  0  0  0999 V2000
   -0.0440    2.5140    0.6280 C   0  0  0  0  0  0  0  0  0  0  0  0
   -0.3800    1.5330   -0.4620 C   0  0  0  0  0  0  0  0  0  0  0  0
    0.0210    0.1180   -0.1280 C   0  0  2  0  0  0  0  0  0  0  0  0
    1.4960    0.0720    0.0930 C   0  0  0  0  0  0  0  0  0  0  0  0
    2.0240   -1.2840    0.4340 C   0  0  0  0  0  0  0  0  0  0  0  0
    3.4170   -1.1510    0.6080 O   0  0  0  0  0  0  0  0  0  0  0  0
   -0.4160   -0.7460   -1.2950 C   0  0  0  0  0  0  0  0  0  0  0  0
   -1.8100   -1.2090   -0.9860 C   0  0  0  0  0  0  0  0  0  0  0  0
   -2.1520   -0.7100    0.3880 C   0  0  0  0  0  0  0  0  0  0  0  0
   -0.7900   -0.4320    1.0000 C   0  0  0  0  0  0  0  0  0  0  0  0
  1  2  1  0
  3  2  1  6
  3  4  1  0
  3  7  1  0
  3 10  1  0
  4  5  1  0
  5  6  1  0
  7  8  1  0
  8  9  1  0
  9 10  1  0
M  END
