
     RDKit          3D

 22 22  0  0  0  0  0  0  0  0999 V2000
   -2.5950   -3.1940    1.5390 C   0  0  0  0  0  0  0  0  0  0  0  0
   -2.0350   -1.8270    1.1300 C   0  0  0  0  0  0  0  0  0  0  0  0
   -2.6920   -1.3120   -0.1070 C   0  0  1  0  0  0  0  0  0  0  0  0
   -2.5350   -2.1840   -1.3070 C   0  0  0  0  0  0  0  0  0  0  0  0
   -4.2090   -1.2940    0.2240 C   0  0  0  0  0  0  0  0  0  0  0  0
   -2.3510    0.1280   -0.3380 C   0  0  2  0  0  0  0  0  0  0  0  0
   -3.0420    0.5270   -1.5200 O   0  0  0  0  0  0  0  0  0  0  0  0
   -0.9540    0.4840   -0.4660 C   0  0  0  0  0  0  0  0  0  0  0  0
    0.0270   -0.3090   -0.7670 C   0  0  0  0  0  0  0  0  0  0  0  0
    1.4260    0.1530   -0.8720 C   0  0  0  0  0  0  0  0  0  0  0  0
    2.4100   -0.6490   -1.1740 C   0  0  0  0  0  0  0  0  0  0  0  0
    3.7880   -0.1430   -1.2670 C   0  0  1  0  0  0  0  0  0  0  0  0
    3.9540    1.0950   -0.4040 C   0  0  0  0  0  0  0  0  0  0  0  0
    5.3630    1.0840    0.0930 C   0  0  0  0  0  0  0  0  0  0  0  0
    5.8910   -0.2350   -0.3320 C   0  0  0  0  0  0  0  0  0  0  0  0
    7.1260   -0.5790   -0.3370 O   0  0  0  0  0  0  0  0  0  0  0  0
    4.7770   -1.0150   -0.7200 N   0  0  0  0  0  0  0  0  0  0  0  0
   -0.6230    1.8730   -0.2850 N   0  0  0  0  0  0  0  0  0  0  0  0
   -0.8510    2.5120    0.9650 C   0  0  0  0  0  0  0  0  0  0  0  0
   -1.3440    1.8090    1.8790 O   0  0  0  0  0  0  0  0  0  0  0  0
   -0.5280    3.9420    1.2020 C   0  0  0  0  0  0  0  0  0  0  0  0
   -0.8670    4.2420    2.5180 O   0  0  0  0  0  0  0  0  0  0  0  0
  1  2  1  0
  2  3  1  0
  3  4  1  6
  3  5  1  0
  3  6  1  0
  6  7  1  6
  6  8  1  0
  8  9  2  3
  8 18  1  0
  9 10  1  0
 10 11  2  3
 12 11  1  1
 12 13  1  0
 12 17  1  0
 13 14  1  0
 14 15  1  0
 15 16  2  0
 15 17  1  0
 18 19  1  0
 19 20  2  0
 19 21  1  0
 21 22  1  0
M  END
