
     RDKit          3D

 15 17  0  0  0  0  0  0  0  0999 V2000
   -3.5890    0.3090    0.3690 C   0  0  0  0  0  0  0  0  0  0  0  0
   -2.6460    1.3090    0.3260 C   0  0  0  0  0  0  0  0  0  0  0  0
   -1.3010    1.0290    0.0550 C   0  0  0  0  0  0  0  0  0  0  0  0
   -0.9320   -0.2790   -0.1730 C   0  0  0  0  0  0  0  0  0  0  0  0
    0.3130   -0.8460   -0.4610 C   0  0  0  0  0  0  0  0  0  0  0  0
    1.5850   -0.1200   -0.5900 C   0  0  0  0  0  0  0  0  0  0  0  0
    2.7120   -0.5840    0.0340 C   0  0  0  0  0  0  0  0  0  0  0  0
    3.9170    0.0950   -0.0900 C   0  0  0  0  0  0  0  0  0  0  0  0
    3.9720    1.2280   -0.8390 N   0  0  0  0  0  0  0  0  0  0  0  0
    2.8900    1.7190   -1.4690 C   0  0  0  0  0  0  0  0  0  0  0  0
    1.6910    1.0310   -1.3370 C   0  0  0  0  0  0  0  0  0  0  0  0
    0.0820   -2.1510   -0.5810 N   0  0  0  0  0  0  0  0  0  0  0  0
   -1.1950   -2.4170   -0.3890 N   0  0  0  0  0  0  0  0  0  0  0  0
   -1.8700   -1.2850   -0.1320 C   0  0  0  0  0  0  0  0  0  0  0  0
   -3.1840   -0.9860    0.1370 C   0  0  0  0  0  0  0  0  0  0  0  0
  1  2  2  0
  1 15  1  0
  2  3  1  0
  3  4  2  0
  4  5  1  0
  4 14  1  0
  5  6  1  0
  5 12  2  0
  6  7  2  0
  6 11  1  0
  7  8  1  0
  8  9  2  0
  9 10  1  0
 10 11  2  0
 12 13  1  0
 13 14  1  0
 14 15  2  0
M  END
