
     RDKit          3D

 11 11  0  0  0  0  0  0  0  0999 V2000
    0.4750    2.5440   -0.2750 C   0  0  0  0  0  0  0  0  0  0  0  0
    0.8670    1.1240   -0.0990 C   0  0  0  0  0  0  0  0  0  0  0  0
    2.1150    0.6930    0.0360 C   0  0  0  0  0  0  0  0  0  0  0  0
    2.1550   -0.7460    0.1900 C   0  0  0  0  0  0  0  0  0  0  0  0
    3.2850   -1.6060    0.3610 N   0  0  0  0  0  0  0  0  0  0  0  0
    0.9100   -1.2010    0.1480 C   0  0  0  0  0  0  0  0  0  0  0  0
    0.0150   -0.0600   -0.0360 C   0  0  0  0  0  0  0  0  0  0  0  0
   -1.3020   -0.0560   -0.1310 C   0  0  0  0  0  0  0  0  0  0  0  0
   -2.0730   -1.2900   -0.0570 C   0  0  0  0  0  0  0  0  0  0  0  0
   -3.3860   -1.2850   -0.1510 C   0  0  0  0  0  0  0  0  0  0  0  0
   -4.2620    0.2510   -0.3750 S   0  0  0  0  0  0  0  0  0  0  0  0
  1  2  1  0
  2  3  2  0
  2  7  1  0
  3  4  1  0
  4  5  1  0
  4  6  2  0
  6  7  1  0
  7  8  2  3
  8  9  1  0
  9 10  2  3
 10 11  1  0
M  END
