
     RDKit          3D

 22 22  0  0  0  0  0  0  0  0999 V2000
    5.5610    0.6030    3.0560 C   0  0  0  0  0  0  0  0  0  0  0  0
    5.7010    0.3020    1.7810 C   0  0  0  0  0  0  0  0  0  0  0  0
    4.6070   -0.2430    0.9870 C   0  0  0  0  0  0  0  0  0  0  0  0
    4.8200   -0.5200   -0.2780 C   0  0  0  0  0  0  0  0  0  0  0  0
    6.1740   -0.2740   -0.8840 C   0  0  0  0  0  0  0  0  0  0  0  0
    3.3840   -0.4600    1.5560 O   0  0  0  0  0  0  0  0  0  0  0  0
    2.1610   -0.5010    0.8400 C   0  0  0  0  0  0  0  0  0  0  0  0
    1.8830    0.7860    0.1250 C   0  0  0  0  0  0  0  0  0  0  0  0
    0.6450    0.7500   -0.6070 N   0  0  0  0  0  0  0  0  0  0  0  0
   -0.5820    0.5490    0.0310 C   0  0  0  0  0  0  0  0  0  0  0  0
   -0.6150    0.4000    1.2780 O   0  0  0  0  0  0  0  0  0  0  0  0
   -1.8280    0.5170   -0.7800 C   0  0  2  0  0  0  0  0  0  0  0  0
   -1.7780   -0.5750   -1.7760 C   0  0  0  0  0  0  0  0  0  0  0  0
   -2.7170   -1.6480   -1.7940 N   0  0  0  0  0  0  0  0  0  0  0  0
   -0.8800   -0.5640   -2.6390 O   0  0  0  0  0  0  0  0  0  0  0  0
   -2.1120    1.8490   -1.4480 C   0  0  0  0  0  0  0  0  0  0  0  0
   -3.6020    1.9050   -1.4460 C   0  0  0  0  0  0  0  0  0  0  0  0
   -4.0320    0.8570   -0.4780 C   0  0  0  0  0  0  0  0  0  0  0  0
   -5.2670    0.4950   -0.2280 C   0  0  0  0  0  0  0  0  0  0  0  0
   -5.5880   -0.5500    0.7470 C   0  0  0  0  0  0  0  0  0  0  0  0
   -4.4350   -1.1620    1.4630 C   0  0  0  0  0  0  0  0  0  0  0  0
   -2.9080    0.3330    0.1100 O   0  0  0  0  0  0  0  0  0  0  0  0
  1  2  2  0
  2  3  1  0
  3  4  2  3
  3  6  1  0
  4  5  1  0
  6  7  1  0
  7  8  1  0
  8  9  1  0
  9 10  1  0
 10 11  2  0
 12 10  1  1
 12 13  1  0
 12 16  1  0
 12 22  1  0
 13 14  1  0
 13 15  2  0
 16 17  1  0
 17 18  1  0
 18 19  2  3
 18 22  1  0
 19 20  1  0
 20 21  1  0
M  END
