
     RDKit          3D

 11 12  0  0  0  0  0  0  0  0999 V2000
   -2.0640   -1.8140   -1.0130 C   0  0  0  0  0  0  0  0  0  0  0  0
   -0.7350   -1.3010   -0.6610 C   0  0  0  0  0  0  0  0  0  0  0  0
    0.8130   -1.9380   -1.1980 S   0  0  0  0  0  0  0  0  0  0  0  0
    1.8140   -0.7400   -0.3880 C   0  0  0  0  0  0  0  0  0  0  0  0
    0.9040    0.0840    0.2620 C   0  0  0  0  0  0  0  0  0  0  0  0
   -0.3870   -0.2330    0.0860 C   0  0  0  0  0  0  0  0  0  0  0  0
   -1.5280    0.4870    0.8260 C   0  0  0  0  0  0  0  0  0  0  0  0
   -2.1430    1.4580   -0.0830 N   0  0  0  0  0  0  0  0  0  0  0  0
    1.7560    1.0990    0.9680 C   0  0  0  0  0  0  0  0  0  0  0  0
    3.0050    0.8870    0.7530 C   0  0  0  0  0  0  0  0  0  0  0  0
    3.1970   -0.2850   -0.1410 C   0  0  0  0  0  0  0  0  0  0  0  0
  1  2  1  0
  2  3  1  0
  2  6  2  0
  3  4  1  0
  4  5  2  0
  4 11  1  0
  5  6  1  0
  5  9  1  0
  6  7  1  0
  7  8  1  0
  9 10  2  0
 10 11  1  0
M  CHG  1   8   1
M  END
