
     RDKit          3D

 11 12  0  0  0  0  0  0  0  0999 V2000
   -1.8890   -1.7590    0.2170 N   0  0  0  0  0  0  0  0  0  0  0  0
   -1.4630   -0.4070    0.1090 C   0  0  0  0  0  0  0  0  0  0  0  0
   -0.1580   -0.1890    0.0200 C   0  0  0  0  0  0  0  0  0  0  0  0
    0.7710   -1.3320    0.0360 C   0  0  0  0  0  0  0  0  0  0  0  0
    2.0450   -1.1070   -0.0520 C   0  0  0  0  0  0  0  0  0  0  0  0
    2.6790    0.2070   -0.1700 C   0  0  0  0  0  0  0  0  0  0  0  0
    1.7190    1.3210   -0.1820 C   0  0  0  0  0  0  0  0  0  0  0  0
    0.4330    1.1190   -0.0950 C   0  0  0  0  0  0  0  0  0  0  0  0
   -0.6310    2.5420   -0.1210 S   0  0  0  0  0  0  0  0  0  0  0  0
   -2.2900    1.9100    0.0150 C   0  0  0  0  0  0  0  0  0  0  0  0
   -2.4640    0.6130    0.1050 C   0  0  0  0  0  0  0  0  0  0  0  0
  1  2  1  0
  2  3  2  0
  2 11  1  0
  3  4  1  0
  3  8  1  0
  4  5  2  0
  5  6  1  0
  6  7  1  0
  7  8  2  0
  8  9  1  0
  9 10  1  0
 10 11  2  0
M  END
