
     RDKit          3D

 22 22  0  0  0  0  0  0  0  0999 V2000
   -5.2140    1.0460    0.5740 C   0  0  0  0  0  0  0  0  0  0  0  0
   -3.7630    0.9500    0.8930 C   0  0  0  0  0  0  0  0  0  0  0  0
   -3.2790    1.6410    2.0770 C   0  0  0  0  0  0  0  0  0  0  0  0
   -4.0820    2.3400    2.8620 C   0  0  0  0  0  0  0  0  0  0  0  0
   -3.6680    3.0050    3.9840 O   0  0  0  0  0  0  0  0  0  0  0  0
   -2.9290    0.2680    0.1440 C   0  0  0  0  0  0  0  0  0  0  0  0
   -3.2570   -0.4890   -1.0880 C   0  0  0  0  0  0  0  0  0  0  0  0
   -1.9650   -0.3950   -1.8660 C   0  0  0  0  0  0  0  0  0  0  0  0
   -0.9270   -0.6620   -0.8100 C   0  0  1  0  0  0  0  0  0  0  0  0
   -0.8310   -2.0860   -0.4070 C   0  0  0  0  0  0  0  0  0  0  0  0
   -0.4840   -3.0620   -1.4770 C   0  0  0  0  0  0  0  0  0  0  0  0
    0.7250   -2.8690   -2.0980 O   0  0  0  0  0  0  0  0  0  0  0  0
    0.3940   -0.1020   -1.2630 C   0  0  0  0  0  0  0  0  0  0  0  0
    1.4630   -0.3010   -0.3240 N   0  0  0  0  0  0  0  0  0  0  0  0
    2.7910    0.1730   -0.6120 C   0  0  0  0  0  0  0  0  0  0  0  0
    2.9950    0.7610   -1.6960 O   0  0  0  0  0  0  0  0  0  0  0  0
    3.8420   -0.0300    0.3250 N   0  0  0  0  0  0  0  0  0  0  0  0
    5.1880    0.4310    0.0730 C   0  0  1  0  0  0  0  0  0  0  0  0
    5.6780    1.4040    1.0910 C   0  0  0  0  0  0  0  0  0  0  0  0
    6.1560   -0.7440   -0.0510 C   0  0  0  0  0  0  0  0  0  0  0  0
   -1.4810    0.1130    0.3780 C   0  0  1  0  0  0  0  0  0  0  0  0
   -0.8410    1.3430    0.5170 O   0  0  0  0  0  0  0  0  0  0  0  0
  1  2  1  0
  2  3  1  0
  2  6  2  3
  3  4  2  3
  4  5  1  0
  6  7  1  0
  6 21  1  0
  7  8  1  0
  8  9  1  0
  9 10  1  1
  9 13  1  0
  9 21  1  0
 10 11  1  0
 11 12  1  0
 13 14  1  0
 14 15  1  0
 15 16  2  0
 15 17  1  0
 17 18  1  0
 18 19  1  1
 18 20  1  0
 21 22  1  6
M  END
