
     RDKit          3D

 30 31  0  0  0  0  0  0  0  0999 V2000
   -2.5970    0.6780   -3.5660 O   0  0  0  0  0  0  0  0  0  0  0  0
   -1.6840   -0.5330   -3.1940 P   0  0  0  0  0  0  0  0  0  0  0  0
   -1.7820   -1.2700   -1.6090 O   0  0  0  0  0  0  0  0  0  0  0  0
   -1.9750   -0.2330   -0.7060 C   0  0  1  0  0  0  0  0  0  0  0  0
   -3.1990    0.4460   -1.0530 N   0  0  0  0  0  0  0  0  0  0  0  0
   -4.4650   -0.1720   -1.1280 C   0  0  0  0  0  0  0  0  0  0  0  0
   -4.6000   -1.4010   -0.8880 O   0  0  0  0  0  0  0  0  0  0  0  0
   -5.6530    0.5290   -1.4690 N   0  0  0  0  0  0  0  0  0  0  0  0
   -7.2420   -0.3190   -1.5320 P   0  0  0  0  0  0  0  0  0  0  0  0
   -7.2570   -1.5130   -0.2480 O   0  0  0  0  0  0  0  0  0  0  0  0
   -8.4490    0.8720   -1.0880 O   0  0  0  0  0  0  0  0  0  0  0  0
   -2.1040   -0.8200    0.6680 C   0  0  0  0  0  0  0  0  0  0  0  0
   -2.2590    0.1250    1.6590 O   0  0  0  0  0  0  0  0  0  0  0  0
   -1.8610    1.3990    1.2720 C   0  0  0  0  0  0  0  0  0  0  0  0
   -0.7250    1.4300    0.3010 C   0  0  1  0  0  0  0  0  0  0  0  0
    0.5140    1.1100    1.0980 C   0  0  0  0  0  0  0  0  0  0  0  0
    1.2570    0.1050    0.8670 N   0  0  0  0  0  0  0  0  0  0  0  0
    2.4470   -0.2910    1.5510 C   0  0  1  0  0  0  0  0  0  0  0  0
    3.5260   -0.2620    0.6580 O   0  0  0  0  0  0  0  0  0  0  0  0
    4.1560   -1.4830    0.5330 C   0  0  0  0  0  0  0  0  0  0  0  0
    5.3430   -1.3680   -0.4180 C   0  0  0  0  0  0  0  0  0  0  0  0
    4.8940   -0.9580   -1.6480 O   0  0  0  0  0  0  0  0  0  0  0  0
    6.1500   -0.7880   -2.8110 P   0  0  0  0  0  0  0  0  0  0  0  0
    7.0940   -2.2030   -3.0340 O   0  0  0  0  0  0  0  0  0  0  0  0
    7.0670    0.6510   -2.6460 O   0  0  0  0  0  0  0  0  0  0  0  0
    2.7920    0.5820    2.7220 C   0  0  0  0  0  0  0  0  0  0  0  0
    3.8080    0.2840    3.4420 O   0  0  0  0  0  0  0  0  0  0  0  0
    1.9860    1.7020    2.9870 N   0  0  0  0  0  0  0  0  0  0  0  0
    0.8700    1.9530    2.1870 N   0  0  0  0  0  0  0  0  0  0  0  0
   -0.8710    0.6160   -0.8070 O   0  0  0  0  0  0  0  0  0  0  0  0
  1  2  2  0
  2  3  1  0
  3  4  1  0
  4  5  1  6
  4 12  1  0
  4 30  1  0
  5  6  1  0
  6  7  2  0
  6  8  1  0
  8  9  1  0
  9 10  1  0
  9 11  1  0
 12 13  1  0
 13 14  1  0
 14 15  1  0
 15 16  1  1
 15 30  1  0
 16 17  2  0
 16 29  1  0
 17 18  1  0
 18 19  1  6
 18 26  1  0
 19 20  1  0
 20 21  1  0
 21 22  1  0
 22 23  1  0
 23 24  1  0
 23 25  1  0
 26 27  2  0
 26 28  1  0
 28 29  1  0
M  END
