
     RDKit          3D

 30 32  0  0  0  0  0  0  0  0999 V2000
   -0.8290   -2.7210   -0.1790 C   0  0  0  0  0  0  0  0  0  0  0  0
   -0.8900   -1.2260   -0.2450 C   0  0  1  0  0  0  0  0  0  0  0  0
    0.2680   -0.6470    0.2720 O   0  0  0  0  0  0  0  0  0  0  0  0
    0.6690   -0.8460    1.5610 C   0  0  0  0  0  0  0  0  0  0  0  0
   -0.0480   -1.5730    2.2630 O   0  0  0  0  0  0  0  0  0  0  0  0
    1.8940   -0.2510    2.1580 C   0  0  0  0  0  0  0  0  0  0  0  0
    2.6020    0.5600    1.2070 N   0  0  0  0  0  0  0  0  0  0  0  0
    2.4640    1.9230    0.9360 C   0  0  0  0  0  0  0  0  0  0  0  0
    1.6690    2.7610    1.4790 O   0  0  0  0  0  0  0  0  0  0  0  0
    3.3890    2.2520   -0.0870 N   0  0  0  0  0  0  0  0  0  0  0  0
    4.0870    1.1280   -0.4470 N   0  0  0  0  0  0  0  0  0  0  0  0
    3.6300    0.0450    0.3340 C   0  0  0  0  0  0  0  0  0  0  0  0
    4.1170   -1.1190    0.1980 N   0  0  0  0  0  0  0  0  0  0  0  0
    5.1170   -1.5780   -0.6640 C   0  0  0  0  0  0  0  0  0  0  0  0
    5.4630   -2.8190   -0.6370 O   0  0  0  0  0  0  0  0  0  0  0  0
    5.8070   -0.8220   -1.5800 O   0  0  0  0  0  0  0  0  0  0  0  0
    5.3790    0.8950   -1.6670 P   0  0  0  0  0  0  0  0  0  0  0  0
    6.7680    1.8490   -1.3150 O   0  0  0  0  0  0  0  0  0  0  0  0
   -0.9890   -0.8500   -1.6890 C   0  0  0  0  0  0  0  0  0  0  0  0
   -0.0650   -0.4660   -2.4180 O   0  0  0  0  0  0  0  0  0  0  0  0
   -2.3640   -1.0330   -2.0170 N   0  0  0  0  0  0  0  0  0  0  0  0
   -3.1430   -1.1720   -0.7880 C   0  0  0  0  0  0  0  0  0  0  0  0
   -2.1740   -0.7140    0.2880 C   0  0  1  0  0  0  0  0  0  0  0  0
   -2.5750   -1.2810    1.4810 O   0  0  0  0  0  0  0  0  0  0  0  0
   -2.2220    0.6730    0.3030 O   0  0  0  0  0  0  0  0  0  0  0  0
   -3.6850    1.3020    0.9090 P   0  0  0  0  0  0  0  0  0  0  0  0
   -4.9190    0.1560    1.1500 O   0  0  0  0  0  0  0  0  0  0  0  0
   -4.3080    3.0720   -0.1920 P   0  0  0  0  0  0  0  0  0  0  0  0
   -3.5330    3.2220   -1.7270 O   0  0  0  0  0  0  0  0  0  0  0  0
   -6.0200    3.2460   -0.2870 O   0  0  0  0  0  0  0  0  0  0  0  0
  2  1  1  6
  2  3  1  0
  2 19  1  0
  2 23  1  0
  3  4  1  0
  4  5  2  0
  4  6  1  0
  6  7  1  0
  7  8  1  0
  7 12  1  0
  8  9  2  0
  8 10  1  0
 10 11  1  0
 11 12  1  0
 11 17  1  0
 12 13  2  0
 13 14  1  0
 14 15  2  0
 14 16  1  0
 16 17  1  0
 17 18  1  0
 19 20  2  0
 19 21  1  0
 21 22  1  0
 22 23  1  0
 23 24  1  1
 23 25  1  0
 25 26  1  0
 26 27  1  0
 26 28  1  0
 28 29  1  0
 28 30  1  0
M  END
