
     RDKit          3D

 30 31  0  0  0  0  0  0  0  0999 V2000
    5.3850    0.2570    0.0120 N   0  0  0  0  0  0  0  0  0  0  0  0
    5.0030    0.3520   -1.1960 C   0  0  0  0  0  0  0  0  0  0  0  0
    3.7320   -0.0880   -1.5710 N   0  0  0  0  0  0  0  0  0  0  0  0
    2.9330   -0.7290   -0.6710 O   0  0  0  0  0  0  0  0  0  0  0  0
    2.1400   -0.1050    0.2670 C   0  0  0  0  0  0  0  0  0  0  0  0
    2.1390    1.1340    0.3130 O   0  0  0  0  0  0  0  0  0  0  0  0
    1.3210   -0.9600    1.1830 C   0  0  1  0  0  0  0  0  0  0  0  0
    2.1880   -1.8780    2.0020 C   0  0  0  0  0  0  0  0  0  0  0  0
    1.6530   -2.1980    3.2340 O   0  0  0  0  0  0  0  0  0  0  0  0
    0.3020   -1.9670    3.3010 C   0  0  0  0  0  0  0  0  0  0  0  0
    0.0980   -0.5910    3.2360 O   0  0  0  0  0  0  0  0  0  0  0  0
    0.4540   -0.0640    2.0040 C   0  0  2  0  0  0  0  0  0  0  0  0
   -0.7640    0.2760    1.2230 C   0  0  0  0  0  0  0  0  0  0  0  0
   -1.0170    1.3930    0.5150 N   0  0  0  0  0  0  0  0  0  0  0  0
   -2.2180    1.2830   -0.0230 O   0  0  0  0  0  0  0  0  0  0  0  0
   -2.7650    0.1560    0.2940 C   0  0  0  0  0  0  0  0  0  0  0  0
   -4.0900   -0.4110   -0.0680 C   0  0  1  0  0  0  0  0  0  0  0  0
   -5.1810    0.5510    0.4130 C   0  0  0  0  0  0  0  0  0  0  0  0
   -4.9490    1.7720   -0.2440 O   0  0  0  0  0  0  0  0  0  0  0  0
   -5.8470    2.6670    0.1120 O   0  0  0  0  0  0  0  0  0  0  0  0
   -4.2970   -0.5780   -1.9030 P   0  0  0  0  0  0  0  0  0  0  0  0
   -3.8750    0.8880   -2.7270 O   0  0  0  0  0  0  0  0  0  0  0  0
   -6.4220   -1.0960   -2.2750 P   0  0  0  0  0  0  0  0  0  0  0  0
   -6.8740   -2.2960   -1.1110 O   0  0  0  0  0  0  0  0  0  0  0  0
   -7.3470    0.3660   -2.0270 O   0  0  0  0  0  0  0  0  0  0  0  0
   -1.8630   -0.4840    1.0740 N   0  0  0  0  0  0  0  0  0  0  0  0
    5.9400    0.9280   -2.1290 N   0  0  0  0  0  0  0  0  0  0  0  0
    7.6300    1.2940   -1.6650 P   0  0  0  0  0  0  0  0  0  0  0  0
    8.7360    0.1230   -2.2970 O   0  0  0  0  0  0  0  0  0  0  0  0
    8.0850    2.9000   -2.0240 O   0  0  0  0  0  0  0  0  0  0  0  0
  1  2  2  0
  2  3  1  0
  2 27  1  0
  3  4  1  0
  4  5  1  0
  5  6  2  0
  7  5  1  1
  7  8  1  0
  7 12  1  0
  8  9  1  0
  9 10  1  0
 10 11  1  0
 11 12  1  0
 12 13  1  6
 13 14  2  0
 13 26  1  0
 14 15  1  0
 15 16  1  0
 16 17  1  0
 16 26  2  0
 17 18  1  6
 17 21  1  0
 18 19  1  0
 19 20  1  0
 21 22  1  0
 21 23  1  0
 23 24  1  0
 23 25  1  0
 27 28  1  0
 28 29  1  0
 28 30  1  0
M  END
