
     RDKit          3D

 30 31  0  0  0  0  0  0  0  0999 V2000
   -5.1610    0.9350   -4.9680 O   0  0  0  0  0  0  0  0  0  0  0  0
   -6.0760   -0.0510   -4.2140 P   0  0  0  0  0  0  0  0  0  0  0  0
   -5.7790   -0.4860   -2.5030 N   0  0  0  0  0  0  0  0  0  0  0  0
   -4.8570    0.2410   -1.7030 C   0  0  0  0  0  0  0  0  0  0  0  0
   -4.2710    1.1990   -2.2750 O   0  0  0  0  0  0  0  0  0  0  0  0
   -4.6400   -0.1510   -0.2870 C   0  0  1  0  0  0  0  0  0  0  0  0
   -3.6540    0.7110    0.2560 O   0  0  0  0  0  0  0  0  0  0  0  0
   -2.6300    0.1630    0.9700 N   0  0  0  0  0  0  0  0  0  0  0  0
   -1.4280    0.2660    0.5620 C   0  0  0  0  0  0  0  0  0  0  0  0
   -1.0860    0.9020   -0.5660 N   0  0  0  0  0  0  0  0  0  0  0  0
    0.2150    0.9840   -0.9680 C   0  0  0  0  0  0  0  0  0  0  0  0
    0.4680    1.5970   -2.0410 O   0  0  0  0  0  0  0  0  0  0  0  0
    1.2260    0.4360   -0.2610 N   0  0  0  0  0  0  0  0  0  0  0  0
    0.9100   -0.2020    0.8680 C   0  0  0  0  0  0  0  0  0  0  0  0
   -0.4050   -0.2970    1.2920 C   0  0  0  0  0  0  0  0  0  0  0  0
   -0.3800   -1.0260    2.5010 O   0  0  0  0  0  0  0  0  0  0  0  0
    0.7570   -1.7460    2.4870 O   0  0  0  0  0  0  0  0  0  0  0  0
    1.6640   -0.8830    1.8570 N   0  0  0  0  0  0  0  0  0  0  0  0
    2.9980   -0.7870    2.2200 C   0  0  0  0  0  0  0  0  0  0  0  0
    3.3460   -1.5880    3.1850 O   0  0  0  0  0  0  0  0  0  0  0  0
    4.1020    0.0400    1.7300 C   0  0  1  0  0  0  0  0  0  0  0  0
    4.6670   -0.5730    0.4730 C   0  0  0  0  0  0  0  0  0  0  0  0
    6.0630    0.4240   -0.2450 P   0  0  0  0  0  0  0  0  0  0  0  0
    7.0120   -0.6480   -1.2290 O   0  0  0  0  0  0  0  0  0  0  0  0
    6.9850    1.0700    1.0780 O   0  0  0  0  0  0  0  0  0  0  0  0
    3.7230    1.8430    1.5980 P   0  0  0  0  0  0  0  0  0  0  0  0
    4.0790    2.7070    0.3390 O   0  0  0  0  0  0  0  0  0  0  0  0
   -5.9150   -0.0320    0.4910 C   0  0  0  0  0  0  0  0  0  0  0  0
   -6.0170    0.7480    1.4550 O   0  0  0  0  0  0  0  0  0  0  0  0
   -6.9830   -0.8140    0.1150 O   0  0  0  0  0  0  0  0  0  0  0  0
  1  2  2  0
  2  3  1  0
  3  4  1  0
  4  5  2  0
  4  6  1  0
  6  7  1  1
  6 28  1  0
  7  8  1  0
  8  9  2  3
  9 10  1  0
  9 15  1  0
 10 11  1  0
 11 12  2  0
 11 13  1  0
 13 14  1  0
 14 15  2  0
 14 18  1  0
 15 16  1  0
 16 17  1  0
 17 18  1  0
 18 19  1  0
 19 20  2  0
 19 21  1  0
 21 22  1  6
 21 26  1  0
 22 23  1  0
 23 24  1  0
 23 25  1  0
 26 27  2  0
 28 29  2  0
 28 30  1  0
M  END
