
     RDKit          3D

 30 31  0  0  0  0  0  0  0  0999 V2000
    8.6530    2.1150   -1.8960 O   0  0  0  0  0  0  0  0  0  0  0  0
    8.8350    1.6720   -0.7320 C   0  0  0  0  0  0  0  0  0  0  0  0
   10.1170    1.6970   -0.1960 O   0  0  0  0  0  0  0  0  0  0  0  0
    7.7560    1.1480    0.0360 N   0  0  0  0  0  0  0  0  0  0  0  0
    6.4560    1.1270   -0.5200 C   0  0  0  0  0  0  0  0  0  0  0  0
    6.2880    1.5700   -1.6760 O   0  0  0  0  0  0  0  0  0  0  0  0
    5.3320    0.5980    0.2410 C   0  0  0  0  0  0  0  0  0  0  0  0
    4.1110    0.6570   -0.4740 O   0  0  0  0  0  0  0  0  0  0  0  0
    2.9590    0.1920    0.1170 C   0  0  0  0  0  0  0  0  0  0  0  0
    3.0290   -0.2730    1.2820 O   0  0  0  0  0  0  0  0  0  0  0  0
    1.6890    0.2080   -0.5150 N   0  0  0  0  0  0  0  0  0  0  0  0
    0.5380   -0.3060    0.1980 C   0  0  2  0  0  0  0  0  0  0  0  0
    0.8610   -2.1110    0.5230 P   0  0  0  0  0  0  0  0  0  0  0  0
   -0.4300   -2.8630    1.3690 O   0  0  0  0  0  0  0  0  0  0  0  0
    0.9760   -2.8860   -1.0470 O   0  0  0  0  0  0  0  0  0  0  0  0
   -0.7110   -0.2090   -0.6230 C   0  0  0  0  0  0  0  0  0  0  0  0
   -1.8440   -0.5120    0.2290 N   0  0  0  0  0  0  0  0  0  0  0  0
   -3.1070   -0.9790   -0.3320 C   0  0  0  0  0  0  0  0  0  0  0  0
   -4.2040   -0.2370    0.3940 C   0  0  1  0  0  0  0  0  0  0  0  0
   -5.4710   -0.5870   -0.0200 O   0  0  0  0  0  0  0  0  0  0  0  0
   -6.2470    0.8920   -0.5640 P   0  0  0  0  0  0  0  0  0  0  0  0
   -5.5860    1.3700   -2.0730 O   0  0  0  0  0  0  0  0  0  0  0  0
   -8.4120    0.6810   -0.6620 P   0  0  0  0  0  0  0  0  0  0  0  0
   -8.9290   -0.6360   -1.6280 O   0  0  0  0  0  0  0  0  0  0  0  0
   -9.1770    0.7620    0.8700 O   0  0  0  0  0  0  0  0  0  0  0  0
   -4.0940   -0.6160    1.7730 O   0  0  0  0  0  0  0  0  0  0  0  0
   -2.8420   -0.4200    2.3450 N   0  0  0  0  0  0  0  0  0  0  0  0
   -1.7750   -0.3680    1.6420 C   0  0  0  0  0  0  0  0  0  0  0  0
   -0.4910   -0.1540    2.3600 C   0  0  0  0  0  0  0  0  0  0  0  0
    0.4300    0.4420    1.4310 N   0  0  0  0  0  0  0  0  0  0  0  0
  1  2  2  0
  2  3  1  0
  2  4  1  0
  4  5  1  0
  5  6  2  0
  5  7  1  0
  7  8  1  0
  8  9  1  0
  9 10  2  0
  9 11  1  0
 12 11  1  6
 12 13  1  0
 12 16  1  0
 12 30  1  0
 13 14  1  0
 13 15  1  0
 16 17  1  0
 17 18  1  0
 17 28  1  0
 18 19  1  0
 19 20  1  6
 19 26  1  0
 20 21  1  0
 21 22  1  0
 21 23  1  0
 23 24  1  0
 23 25  1  0
 26 27  1  0
 27 28  2  0
 28 29  1  0
 29 30  1  0
M  END
