
     RDKit          3D

 23 25  0  0  0  0  0  0  0  0999 V2000
    8.4320   -0.7050   -0.2520 N   0  0  0  0  0  0  0  0  0  0  0  0
    6.9760   -0.7740   -0.1580 C   0  0  0  0  0  0  0  0  0  0  0  0
    6.5710   -1.9000    0.1620 O   0  0  0  0  0  0  0  0  0  0  0  0
    6.2610    0.4020   -0.4320 C   0  0  0  0  0  0  0  0  0  0  0  0
    5.0430    0.7280   -0.4540 C   0  0  0  0  0  0  0  0  0  0  0  0
    3.8460   -0.0020   -0.1980 C   0  0  0  0  0  0  0  0  0  0  0  0
    3.4650   -1.2540    0.1540 C   0  0  0  0  0  0  0  0  0  0  0  0
    2.1500   -1.4510    0.2740 N   0  0  0  0  0  0  0  0  0  0  0  0
    1.2930   -0.7410    0.1310 C   0  0  0  0  0  0  0  0  0  0  0  0
   -0.2050   -0.6630    0.1890 N   0  0  0  0  0  0  0  0  0  0  0  0
   -0.8710    0.5350   -0.0940 C   0  0  0  0  0  0  0  0  0  0  0  0
   -0.1730    1.5390   -0.3960 O   0  0  0  0  0  0  0  0  0  0  0  0
   -2.3210    0.6090   -0.0370 C   0  0  0  0  0  0  0  0  0  0  0  0
   -3.0290   -0.5250    0.3000 C   0  0  0  0  0  0  0  0  0  0  0  0
   -4.4300   -0.5390    0.3770 C   0  0  0  0  0  0  0  0  0  0  0  0
   -5.0820    0.6300    0.1020 C   0  0  0  0  0  0  0  0  0  0  0  0
   -4.3750    1.7750   -0.2390 C   0  0  0  0  0  0  0  0  0  0  0  0
   -2.9790    1.7930   -0.3170 C   0  0  0  0  0  0  0  0  0  0  0  0
   -2.3880    2.9760   -0.6610 O   0  0  0  0  0  0  0  0  0  0  0  0
   -6.3820    0.3920    0.2330 C   0  0  0  0  0  0  0  0  0  0  0  0
   -6.5880   -0.9520    0.6000 N   0  0  0  0  0  0  0  0  0  0  0  0
   -5.2950   -1.4900    0.6750 C   0  0  0  0  0  0  0  0  0  0  0  0
    2.2200    0.8220   -0.3320 S   0  0  0  0  0  0  0  0  0  0  0  0
  1  2  1  0
  2  3  2  0
  2  4  1  0
  4  5  2  3
  5  6  1  0
  6  7  2  0
  6 23  1  0
  7  8  1  0
  8  9  2  0
  9 10  1  0
  9 23  1  0
 10 11  1  0
 11 12  2  0
 11 13  1  0
 13 14  2  0
 13 18  1  0
 14 15  1  0
 15 16  1  0
 15 22  2  0
 16 17  1  0
 16 20  2  0
 17 18  2  0
 18 19  1  0
 20 21  1  0
 21 22  1  0
M  CHG  1  21   1
M  END
