
     RDKit          3D

 23 24  0  0  0  0  0  0  0  0999 V2000
   -4.9000    1.0890    2.5770 C   0  0  0  0  0  0  0  0  0  0  0  0
   -5.4020    0.2270    1.7330 C   0  0  0  0  0  0  0  0  0  0  0  0
   -4.7890   -0.0360    0.4610 C   0  0  0  0  0  0  0  0  0  0  0  0
   -5.5930   -0.4760   -0.5920 C   0  0  0  0  0  0  0  0  0  0  0  0
   -7.0320   -0.6160   -0.3520 C   0  0  0  0  0  0  0  0  0  0  0  0
   -4.9530   -0.7310   -1.7400 N   0  0  0  0  0  0  0  0  0  0  0  0
   -3.6530   -0.5970   -1.9280 C   0  0  0  0  0  0  0  0  0  0  0  0
   -3.2050   -0.8770   -3.0670 O   0  0  0  0  0  0  0  0  0  0  0  0
   -2.7980   -0.1560   -0.8950 C   0  0  0  0  0  0  0  0  0  0  0  0
   -1.4620    0.0060   -0.9630 C   0  0  0  0  0  0  0  0  0  0  0  0
   -0.8020    0.4290    0.1520 C   0  0  0  0  0  0  0  0  0  0  0  0
    0.5900    0.6930    0.4070 C   0  0  0  0  0  0  0  0  0  0  0  0
    0.9340    1.0800    1.5540 O   0  0  0  0  0  0  0  0  0  0  0  0
    1.5260    0.5070   -0.6430 N   0  0  0  0  0  0  0  0  0  0  0  0
    2.8860    0.7570   -0.4120 N   0  0  0  0  0  0  0  0  0  0  0  0
    3.7900   -0.3050   -0.2180 C   0  0  0  0  0  0  0  0  0  0  0  0
    3.3750   -1.5160   -0.2510 O   0  0  0  0  0  0  0  0  0  0  0  0
    5.1890   -0.0130    0.0200 C   0  0  0  0  0  0  0  0  0  0  0  0
    6.0360   -0.9980    0.2020 C   0  0  0  0  0  0  0  0  0  0  0  0
    7.4490   -0.7300    0.4430 C   0  0  0  0  0  0  0  0  0  0  0  0
    7.7320    0.6770    0.4470 N   0  0  0  0  0  0  0  0  0  0  0  0
   -2.1370    0.6060    1.3560 S   0  0  0  0  0  0  0  0  0  0  0  0
   -3.4250    0.1110    0.2840 C   0  0  0  0  0  0  0  0  0  0  0  0
  1  2  2  0
  2  3  1  0
  3  4  2  0
  3 23  1  0
  4  5  1  0
  4  6  1  0
  6  7  1  0
  7  8  2  0
  7  9  1  0
  9 10  1  0
  9 23  2  0
 10 11  2  0
 11 12  1  0
 11 22  1  0
 12 13  2  0
 12 14  1  0
 14 15  1  0
 15 16  1  0
 16 17  2  0
 16 18  1  0
 18 19  2  3
 19 20  1  0
 20 21  1  0
 22 23  1  0
M  CHG  1  21   1
M  END
