
     RDKit          3D

 23 24  0  0  0  0  0  0  0  0999 V2000
    8.2260   -0.5690   -0.6050 C   0  0  0  0  0  0  0  0  0  0  0  0
    6.8850   -0.4970    0.0600 C   0  0  0  0  0  0  0  0  0  0  0  0
    6.8730   -0.2130    1.2690 O   0  0  0  0  0  0  0  0  0  0  0  0
    5.7390   -0.7510   -0.7170 N   0  0  0  0  0  0  0  0  0  0  0  0
    4.4190   -0.6920   -0.1260 C   0  0  0  0  0  0  0  0  0  0  0  0
    4.1600    0.6910    0.4150 C   0  0  0  0  0  0  0  0  0  0  0  0
    2.8420    0.7580    1.0090 N   0  0  0  0  0  0  0  0  0  0  0  0
    1.6380    0.5170    0.2700 C   0  0  0  0  0  0  0  0  0  0  0  0
    1.7530    0.2430   -0.9240 O   0  0  0  0  0  0  0  0  0  0  0  0
    0.3750    0.5880    0.8780 N   0  0  0  0  0  0  0  0  0  0  0  0
   -0.8930    0.3660    0.2520 C   0  0  0  0  0  0  0  0  0  0  0  0
   -1.0600   -0.0450   -1.0410 C   0  0  0  0  0  0  0  0  0  0  0  0
   -2.3040   -0.2360   -1.5930 C   0  0  0  0  0  0  0  0  0  0  0  0
   -3.4720   -0.0160   -0.8470 C   0  0  0  0  0  0  0  0  0  0  0  0
   -3.2840    0.3970    0.4510 C   0  0  0  0  0  0  0  0  0  0  0  0
   -2.0450    0.5850    0.9930 C   0  0  0  0  0  0  0  0  0  0  0  0
   -4.2120    0.6740    1.3660 C   0  0  0  0  0  0  0  0  0  0  0  0
   -5.6430    0.6590    1.3760 C   0  0  0  0  0  0  0  0  0  0  0  0
   -6.2520    1.0360    2.5910 O   0  0  0  0  0  0  0  0  0  0  0  0
   -6.4800    0.3480    0.4250 C   0  0  0  0  0  0  0  0  0  0  0  0
   -6.2400   -0.1710   -1.2240 S   0  0  0  0  0  0  0  0  0  0  0  0
   -6.9880   -1.5180   -1.5330 N   0  0  0  0  0  0  0  0  0  0  0  0
   -4.5270   -0.2630   -1.5860 C   0  0  0  0  0  0  0  0  0  0  0  0
  1  2  1  0
  2  3  2  0
  2  4  1  0
  4  5  1  0
  5  6  1  0
  6  7  1  0
  7  8  1  0
  8  9  2  0
  8 10  1  0
 10 11  1  0
 11 12  1  0
 11 16  2  0
 12 13  2  0
 13 14  1  0
 14 15  1  0
 14 23  2  0
 15 16  1  0
 15 17  2  0
 17 18  1  0
 18 19  1  0
 18 20  2  0
 21 20  1  1
 21 22  2  0
 21 23  1  0
M  CHG  1  22   1
M  END
