
     RDKit          3D

 23 25  0  0  0  0  0  0  0  0999 V2000
    6.7470    0.8200   -1.4630 N   0  0  0  0  0  0  0  0  0  0  0  0
    5.4020    0.3680   -1.2930 C   0  0  2  0  0  0  0  0  0  0  0  0
    4.5750    1.4480   -0.6910 C   0  0  0  0  0  0  0  0  0  0  0  0
    3.1580    1.1800   -0.4400 C   0  0  0  0  0  0  0  0  0  0  0  0
    2.9020   -0.2950   -0.1380 C   0  0  0  0  0  0  0  0  0  0  0  0
    4.0000   -1.1170   -0.0630 C   0  0  0  0  0  0  0  0  0  0  0  0
    3.2740   -2.7510    0.3050 S   0  0  0  0  0  0  0  0  0  0  0  0
    1.6020   -2.1710    0.3200 C   0  0  0  0  0  0  0  0  0  0  0  0
    0.4550   -2.8750    0.5460 N   0  0  0  0  0  0  0  0  0  0  0  0
   -0.7430   -2.2720    0.5260 C   0  0  0  0  0  0  0  0  0  0  0  0
   -0.7560   -0.9430    0.2740 C   0  0  0  0  0  0  0  0  0  0  0  0
   -1.9960   -0.2310    0.2830 N   0  0  0  0  0  0  0  0  0  0  0  0
   -3.1790   -0.6530    0.9030 C   0  0  0  0  0  0  0  0  0  0  0  0
   -3.2620   -1.7200    1.5290 O   0  0  0  0  0  0  0  0  0  0  0  0
   -4.3970    0.1920    0.8240 C   0  0  0  0  0  0  0  0  0  0  0  0
   -4.3780    1.2810    0.2010 O   0  0  0  0  0  0  0  0  0  0  0  0
   -5.5850   -0.2230    1.4500 N   0  0  0  0  0  0  0  0  0  0  0  0
   -6.8070    0.5290    1.4210 C   0  0  0  0  0  0  0  0  0  0  0  0
   -7.2680    0.6780   -0.0050 C   0  0  0  0  0  0  0  0  0  0  0  0
   -8.4640    1.4060   -0.0840 O   0  0  0  0  0  0  0  0  0  0  0  0
    0.3990   -0.2140    0.0420 C   0  0  0  0  0  0  0  0  0  0  0  0
    1.6730   -0.8440    0.0600 C   0  0  0  0  0  0  0  0  0  0  0  0
    5.3950   -0.7570   -0.2430 C   0  0  0  0  0  0  0  0  0  0  0  0
  2  1  1  1
  2  3  1  0
  2 23  1  0
  3  4  1  0
  4  5  1  0
  5  6  2  0
  5 22  1  0
  6  7  1  0
  6 23  1  0
  7  8  1  0
  8  9  2  0
  8 22  1  0
  9 10  1  0
 10 11  2  0
 11 12  1  0
 11 21  1  0
 12 13  1  0
 13 14  2  0
 13 15  1  0
 15 16  2  0
 15 17  1  0
 17 18  1  0
 18 19  1  0
 19 20  1  0
 21 22  2  0
M  CHG  1   1   1
M  END
