
     RDKit          3D

 22 24  0  0  0  0  0  0  0  0999 V2000
   -5.8690   -0.6550   -0.1860 N   0  0  0  0  0  0  0  0  0  0  0  0
   -4.6420   -1.0690    0.0090 C   0  0  0  0  0  0  0  0  0  0  0  0
   -4.4050   -2.3700    0.3250 C   0  0  0  0  0  0  0  0  0  0  0  0
   -3.1230   -2.8330    0.5360 C   0  0  0  0  0  0  0  0  0  0  0  0
   -2.0730   -1.9310    0.4170 C   0  0  0  0  0  0  0  0  0  0  0  0
   -0.7770   -2.3240    0.6130 C   0  0  0  0  0  0  0  0  0  0  0  0
   -0.4320   -3.6110    0.9350 O   0  0  0  0  0  0  0  0  0  0  0  0
    0.2570   -1.3900    0.4860 C   0  0  0  0  0  0  0  0  0  0  0  0
    1.5600   -1.8120    0.6890 O   0  0  0  0  0  0  0  0  0  0  0  0
    0.0520   -0.0750    0.1700 C   0  0  0  0  0  0  0  0  0  0  0  0
    1.0560    0.9610    0.0160 C   0  0  0  0  0  0  0  0  0  0  0  0
    0.6380    2.1390   -0.2860 O   0  0  0  0  0  0  0  0  0  0  0  0
    2.4460    0.8510    0.1560 N   0  0  0  0  0  0  0  0  0  0  0  0
    3.4270    1.8540    0.0050 C   0  0  0  0  0  0  0  0  0  0  0  0
    4.7480    1.5080    0.3440 C   0  0  0  0  0  0  0  0  0  0  0  0
    5.7870    2.3960    0.2330 C   0  0  0  0  0  0  0  0  0  0  0  0
    5.5450    3.6410   -0.2140 N   0  0  0  0  0  0  0  0  0  0  0  0
    4.3170    4.0460   -0.5560 C   0  0  0  0  0  0  0  0  0  0  0  0
    3.2590    3.1250   -0.4380 C   0  0  0  0  0  0  0  0  0  0  0  0
   -1.2860    0.2720   -0.0200 C   0  0  0  0  0  0  0  0  0  0  0  0
   -2.3280   -0.6170    0.0970 C   0  0  0  0  0  0  0  0  0  0  0  0
   -3.6130   -0.2320   -0.0970 N   0  0  0  0  0  0  0  0  0  0  0  0
  1  2  2  0
  2  3  1  0
  2 22  1  0
  3  4  2  0
  4  5  1  0
  5  6  2  0
  5 21  1  0
  6  7  1  0
  6  8  1  0
  8  9  1  0
  8 10  2  0
 10 11  1  0
 10 20  1  0
 11 12  2  0
 11 13  1  0
 13 14  1  0
 14 15  2  0
 14 19  1  0
 15 16  1  0
 16 17  2  0
 17 18  1  0
 18 19  2  0
 20 21  2  0
 21 22  1  0
M  CHG  1   1   1
M  END
