
     RDKit          3D

 13 13  0  0  0  0  0  0  0  0999 V2000
    2.6590   -1.3880   -0.1140 C   0  0  0  0  0  0  0  0  0  0  0  0
    2.2110   -0.0170   -0.4230 C   0  0  0  0  0  0  0  0  0  0  0  0
    2.8410    0.9350   -1.0290 O   0  0  0  0  0  0  0  0  0  0  0  0
    2.1010    2.0170   -1.1040 N   0  0  0  0  0  0  0  0  0  0  0  0
    0.9080    1.7570   -0.5070 C   0  0  0  0  0  0  0  0  0  0  0  0
    0.0050    2.5960   -0.4270 O   0  0  0  0  0  0  0  0  0  0  0  0
    0.9200    0.4740   -0.0530 C   0  0  0  0  0  0  0  0  0  0  0  0
   -0.0680   -0.3080    0.6610 C   0  0  0  0  0  0  0  0  0  0  0  0
   -1.4970    0.0870    0.6050 C   0  0  2  0  0  0  0  0  0  0  0  0
   -2.2380   -0.9060    1.4580 N   0  0  0  0  0  0  0  0  0  0  0  0
   -2.1380   -0.0220   -0.7260 C   0  0  0  0  0  0  0  0  0  0  0  0
   -2.9060   -1.0180   -0.9660 O   0  0  0  0  0  0  0  0  0  0  0  0
   -2.0170    0.8500   -1.7940 O   0  0  0  0  0  0  0  0  0  0  0  0
  1  2  1  0
  2  3  1  0
  2  7  2  0
  3  4  1  0
  4  5  1  0
  5  6  2  0
  5  7  1  0
  7  8  1  0
  8  9  1  0
  9 10  1  1
  9 11  1  0
 11 12  2  0
 11 13  1  0
M  CHG  1  10   1
M  END
