
     RDKit          3D

 23 24  0  0  0  0  0  0  0  0999 V2000
   -7.8110    0.8730    0.4060 N   0  0  0  0  0  0  0  0  0  0  0  0
   -7.3570    0.5030   -0.9000 C   0  0  0  0  0  0  0  0  0  0  0  0
   -6.1300   -0.2910   -0.9330 C   0  0  0  0  0  0  0  0  0  0  0  0
   -5.1810   -0.6460   -1.7770 C   0  0  0  0  0  0  0  0  0  0  0  0
   -4.1650   -1.4440   -1.4240 C   0  0  0  0  0  0  0  0  0  0  0  0
   -4.0820   -1.9200   -0.1540 C   0  0  0  0  0  0  0  0  0  0  0  0
   -3.2140   -2.7770    0.5890 C   0  0  0  0  0  0  0  0  0  0  0  0
   -1.8320   -2.4260    0.3230 N   0  0  0  0  0  0  0  0  0  0  0  0
   -1.2490   -1.2040    0.7360 C   0  0  0  0  0  0  0  0  0  0  0  0
   -1.9480   -0.3900    1.3750 O   0  0  0  0  0  0  0  0  0  0  0  0
    0.1750   -0.9060    0.4100 C   0  0  0  0  0  0  0  0  0  0  0  0
    0.7850   -1.7070   -0.3110 O   0  0  0  0  0  0  0  0  0  0  0  0
    0.7870    0.2540    0.9140 N   0  0  0  0  0  0  0  0  0  0  0  0
    2.0780    0.7170    0.7300 N   0  0  0  0  0  0  0  0  0  0  0  0
    3.2180    0.0310    0.3080 C   0  0  0  0  0  0  0  0  0  0  0  0
    3.1260   -1.2050    0.0400 O   0  0  0  0  0  0  0  0  0  0  0  0
    4.5510    0.6620    0.1510 C   0  0  0  0  0  0  0  0  0  0  0  0
    4.7860    1.9250    0.4130 C   0  0  0  0  0  0  0  0  0  0  0  0
    6.0960    2.6110    0.2760 C   0  0  0  0  0  0  0  0  0  0  0  0
    7.1730    1.5590    0.1660 C   0  0  0  0  0  0  0  0  0  0  0  0
    6.7160    0.6270   -0.9570 C   0  0  0  0  0  0  0  0  0  0  0  0
    5.6450   -0.2470   -0.3490 C   0  0  0  0  0  0  0  0  0  0  0  0
   -5.5500   -1.1820    0.5840 S   0  0  0  0  0  0  0  0  0  0  0  0
  1  2  1  0
  2  3  1  0
  3  4  2  0
  3 23  1  0
  4  5  1  0
  5  6  2  0
  6  7  1  0
  6 23  1  0
  7  8  1  0
  8  9  1  0
  9 10  2  0
  9 11  1  0
 11 12  2  0
 11 13  1  0
 13 14  1  0
 14 15  1  0
 15 16  2  0
 15 17  1  0
 17 18  2  0
 17 22  1  0
 18 19  1  0
 19 20  1  0
 20 21  1  0
 21 22  1  0
M  CHG  1   1   1
M  END
