
     RDKit          3D

 22 24  0  0  0  0  0  0  0  0999 V2000
   -5.5810    1.2880   -0.5420 C   0  0  0  0  0  0  0  0  0  0  0  0
   -4.1730    0.8340   -0.3990 C   0  0  0  0  0  0  0  0  0  0  0  0
   -3.1560    1.1090   -1.2150 N   0  0  0  0  0  0  0  0  0  0  0  0
   -1.9960    0.5300   -0.7840 C   0  0  0  0  0  0  0  0  0  0  0  0
   -0.7220    0.6210   -1.4330 N   0  0  0  0  0  0  0  0  0  0  0  0
    0.4900    0.0400   -0.9790 C   0  0  2  0  0  0  0  0  0  0  0  0
    0.4580   -1.4460   -0.7440 C   0  0  0  0  0  0  0  0  0  0  0  0
    1.8750   -1.9670   -1.0410 C   0  0  0  0  0  0  0  0  0  0  0  0
    2.8710   -1.0730   -0.4100 C   0  0  0  0  0  0  0  0  0  0  0  0
    4.1900   -1.5260   -0.3660 C   0  0  0  0  0  0  0  0  0  0  0  0
    5.2030   -0.7840    0.1950 C   0  0  0  0  0  0  0  0  0  0  0  0
    6.8370   -1.4060    0.2200 Cl  0  0  0  0  0  0  0  0  0  0  0  0
    4.9200    0.4360    0.7290 C   0  0  0  0  0  0  0  0  0  0  0  0
    5.9690    1.2200    1.3170 C   0  0  0  0  0  0  0  0  0  0  0  0
    6.8320    1.8400    1.7890 N   0  0  0  0  0  0  0  0  0  0  0  0
    3.6050    0.9060    0.6940 C   0  0  0  0  0  0  0  0  0  0  0  0
    2.5950    0.1580    0.1310 C   0  0  0  0  0  0  0  0  0  0  0  0
    1.1990    0.7350    0.1310 C   0  0  2  0  0  0  0  0  0  0  0  0
    0.6590    0.6010    1.4350 N   0  0  0  0  0  0  0  0  0  0  0  0
   -2.3400   -0.1180    0.3400 N   0  0  0  0  0  0  0  0  0  0  0  0
   -3.6570    0.0460    0.6030 C   0  0  0  0  0  0  0  0  0  0  0  0
   -4.4520   -0.4880    1.7280 C   0  0  0  0  0  0  0  0  0  0  0  0
  1  2  1  0
  2  3  1  0
  2 21  2  0
  3  4  1  0
  4  5  1  0
  4 20  2  0
  6  5  1  1
  6  7  1  0
  6 18  1  0
  7  8  1  0
  8  9  1  0
  9 10  2  0
  9 17  1  0
 10 11  1  0
 11 12  1  0
 11 13  2  0
 13 14  1  0
 13 16  1  0
 14 15  3  0
 16 17  2  0
 17 18  1  0
 18 19  1  1
 20 21  1  0
 21 22  1  0
M  CHG  1  20   1
M  END
