
     RDKit          3D

 23 25  0  0  0  0  0  0  0  0999 V2000
    6.7350   -0.4500   -0.3450 C   0  0  0  0  0  0  0  0  0  0  0  0
    5.9520   -0.0120    0.8710 C   0  0  0  0  0  0  0  0  0  0  0  0
    4.4880   -0.3270    0.8160 C   0  0  0  0  0  0  0  0  0  0  0  0
    4.1420   -1.7680    0.7260 C   0  0  0  0  0  0  0  0  0  0  0  0
    2.3570   -1.9800    0.7600 S   0  0  0  0  0  0  0  0  0  0  0  0
    1.4140   -1.0540   -0.4070 C   0  0  0  0  0  0  0  0  0  0  0  0
    1.2710    0.4010   -0.0790 C   0  0  1  0  0  0  0  0  0  0  0  0
    0.3950    0.9910   -1.2100 C   0  0  0  0  0  0  0  0  0  0  0  0
   -0.7980    1.3080   -0.5920 N   0  0  1  0  0  0  0  0  0  0  0  0
   -1.9970    1.3680   -1.3500 C   0  0  0  0  0  0  0  0  0  0  0  0
   -2.9040    0.2910   -0.8760 C   0  0  0  0  0  0  0  0  0  0  0  0
   -2.7520   -1.0820   -0.8850 C   0  0  0  0  0  0  0  0  0  0  0  0
   -3.8970   -1.6180   -0.3950 N   0  0  0  0  0  0  0  0  0  0  0  0
   -4.7510   -0.5860   -0.0970 C   0  0  0  0  0  0  0  0  0  0  0  0
   -5.9810   -0.5280    0.5170 C   0  0  0  0  0  0  0  0  0  0  0  0
   -6.7180   -1.6770    0.8660 N   0  0  0  0  0  0  0  0  0  0  0  0
   -6.5250    0.7000    0.8030 N   0  0  0  0  0  0  0  0  0  0  0  0
   -5.9460    1.8410    0.5270 C   0  0  0  0  0  0  0  0  0  0  0  0
   -4.7320    1.7800   -0.0890 N   0  0  0  0  0  0  0  0  0  0  0  0
   -4.1650    0.6140   -0.3740 C   0  0  0  0  0  0  0  0  0  0  0  0
   -0.9210    0.6140    0.6840 C   0  0  0  0  0  0  0  0  0  0  0  0
    0.4910    0.6050    1.2020 C   0  0  2  0  0  0  0  0  0  0  0  0
    0.8060    1.7840    1.8550 O   0  0  0  0  0  0  0  0  0  0  0  0
  1  2  1  0
  2  3  1  0
  3  4  1  0
  4  5  1  0
  5  6  1  0
  7  6  1  6
  7  8  1  0
  7 22  1  0
  8  9  1  0
  9 10  1  6
  9 21  1  0
 10 11  1  0
 11 12  2  0
 11 20  1  0
 12 13  1  0
 13 14  1  0
 14 15  2  0
 14 20  1  0
 15 16  1  0
 15 17  1  0
 17 18  2  0
 18 19  1  0
 19 20  2  0
 21 22  1  0
 22 23  1  6
M  CHG  1   9   1
M  END
