
     RDKit          3D

 18 20  0  0  0  0  0  0  0  0999 V2000
    0.7870   -2.3930   -0.1900 O   0  0  0  0  0  0  0  0  0  0  0  0
    1.3890   -1.3440   -0.2320 C   0  0  0  0  0  0  0  0  0  0  0  0
    2.8590   -1.4100   -0.0570 C   0  0  0  0  0  0  0  0  0  0  0  0
    3.2260   -0.4710    0.9870 N   0  0  0  0  0  0  0  0  0  0  0  0
    3.2980    0.8960    0.5580 C   0  0  0  0  0  0  0  0  0  0  0  0
    2.0240    1.5510    0.4100 N   0  0  0  0  0  0  0  0  0  0  0  0
    0.8090    1.0620   -0.1640 C   0  0  0  0  0  0  0  0  0  0  0  0
    0.5270   -0.2270   -0.4500 C   0  0  0  0  0  0  0  0  0  0  0  0
   -0.6570   -0.7750   -1.0210 C   0  0  1  0  0  0  0  0  0  0  0  0
   -1.0830   -2.0440   -1.3820 C   0  0  0  0  0  0  0  0  0  0  0  0
   -1.9240   -2.7550   -0.3610 C   0  0  0  0  0  0  0  0  0  0  0  0
   -2.0820   -1.6900    0.6760 C   0  0  0  0  0  0  0  0  0  0  0  0
   -1.7220   -0.4330   -0.0090 C   0  0  0  0  0  0  0  0  0  0  0  0
   -2.3520    0.6480    0.4050 C   0  0  0  0  0  0  0  0  0  0  0  0
   -3.6380    0.3430    1.7730 Br  0  0  0  0  0  0  0  0  0  0  0  0
   -2.2580    2.0850    0.0320 C   0  0  0  0  0  0  0  0  0  0  0  0
   -0.9710    2.5880    0.7060 C   0  0  0  0  0  0  0  0  0  0  0  0
    0.1460    2.3870   -0.2730 C   0  0  0  0  0  0  0  0  0  0  0  0
  1  2  2  0
  2  3  1  0
  2  8  1  0
  3  4  1  0
  4  5  1  0
  5  6  1  0
  6  7  1  0
  7  8  2  0
  7 18  1  0
  8  9  1  0
  9 10  1  1
  9 13  1  0
 10 11  1  0
 11 12  1  0
 12 13  1  0
 13 14  2  0
 14 15  1  0
 14 16  1  0
 16 17  1  0
 17 18  1  0
M  END
