
     RDKit          3D

 23 25  0  0  0  0  0  0  0  0999 V2000
   -3.8430    3.7290    0.1050 C   0  0  0  0  0  0  0  0  0  0  0  0
   -3.2560    2.3500    0.2270 C   0  0  0  0  0  0  0  0  0  0  0  0
   -3.5470    1.4390   -0.6890 C   0  0  0  0  0  0  0  0  0  0  0  0
   -2.9890    0.0480   -0.6160 C   0  0  0  0  0  0  0  0  0  0  0  0
   -1.6220    0.1390   -0.0350 C   0  0  0  0  0  0  0  0  0  0  0  0
   -1.3150    1.0910    0.9110 C   0  0  0  0  0  0  0  0  0  0  0  0
   -0.0820    1.1750    1.4370 N   0  0  0  0  0  0  0  0  0  0  0  0
    0.9220    0.3270    1.0630 C   0  0  0  0  0  0  0  0  0  0  0  0
    2.1780    0.4830    1.6710 N   0  0  0  0  0  0  0  0  0  0  0  0
    3.3370   -0.2570    1.4310 C   0  0  0  0  0  0  0  0  0  0  0  0
    3.4280   -1.2400    0.4870 C   0  0  0  0  0  0  0  0  0  0  0  0
    4.6230   -1.9480    0.2730 C   0  0  0  0  0  0  0  0  0  0  0  0
    4.6860   -3.2050   -0.9590 Cl  0  0  0  0  0  0  0  0  0  0  0  0
    5.7170   -1.6780    0.9950 N   0  0  0  0  0  0  0  0  0  0  0  0
    5.6460   -0.7070    1.9340 C   0  0  0  0  0  0  0  0  0  0  0  0
    4.4960   -0.0010    2.1650 C   0  0  0  0  0  0  0  0  0  0  0  0
    4.4690    1.2310    3.3890 Cl  0  0  0  0  0  0  0  0  0  0  0  0
    0.5810   -0.5820    0.1430 N   0  0  0  0  0  0  0  0  0  0  0  0
   -0.6160   -0.7210   -0.4180 C   0  0  0  0  0  0  0  0  0  0  0  0
   -0.8530   -1.7710   -1.4360 C   0  0  2  0  0  0  0  0  0  0  0  0
    0.3380   -2.7370   -1.4670 C   0  0  0  0  0  0  0  0  0  0  0  0
   -0.9090   -1.1950   -2.7800 N   0  0  0  0  0  0  0  0  0  0  0  0
   -2.3800    2.0390    1.3620 C   0  0  0  0  0  0  0  0  0  0  0  0
  1  2  1  0
  2  3  2  0
  2 23  1  0
  3  4  1  0
  4  5  1  0
  5  6  2  0
  5 19  1  0
  6  7  1  0
  6 23  1  0
  7  8  2  0
  8  9  1  0
  8 18  1  0
  9 10  1  0
 10 11  2  0
 10 16  1  0
 11 12  1  0
 12 13  1  0
 12 14  2  0
 14 15  1  0
 15 16  2  0
 16 17  1  0
 18 19  2  0
 19 20  1  0
 20 21  1  6
 20 22  1  0
M  CHG  1  22   1
M  END
