
     RDKit          3D

 22 24  0  0  0  0  0  0  0  0999 V2000
    2.4830   -2.5180   -1.2930 N   0  0  0  0  0  0  0  0  0  0  0  0
    1.5620   -1.5520   -0.7940 C   0  0  0  0  0  0  0  0  0  0  0  0
    0.1650   -1.7210   -0.8060 C   0  0  0  0  0  0  0  0  0  0  0  0
   -0.4120   -0.6060   -0.2530 C   0  0  0  0  0  0  0  0  0  0  0  0
   -1.8530   -0.2900   -0.0370 C   0  0  1  0  0  0  0  0  0  0  0  0
   -2.7010   -1.5160   -0.2040 C   0  0  0  0  0  0  0  0  0  0  0  0
   -2.3920   -2.5740    0.7410 N   0  0  0  0  0  0  0  0  0  0  0  0
   -2.0580    0.3500    1.3230 C   0  0  0  0  0  0  0  0  0  0  0  0
   -2.4690    1.7880    1.2550 C   0  0  0  0  0  0  0  0  0  0  0  0
   -3.6360    2.0660    0.3750 C   0  0  0  0  0  0  0  0  0  0  0  0
   -3.6030    1.2770   -0.9110 C   0  0  0  0  0  0  0  0  0  0  0  0
   -2.2300    0.7240   -1.0840 C   0  0  0  0  0  0  0  0  0  0  0  0
    0.6210    0.2150    0.0850 N   0  0  0  0  0  0  0  0  0  0  0  0
    1.7790   -0.3450   -0.2350 N   0  0  0  0  0  0  0  0  0  0  0  0
    3.0910    0.2270   -0.0320 C   0  0  0  0  0  0  0  0  0  0  0  0
    4.1340   -0.5290    0.4400 C   0  0  0  0  0  0  0  0  0  0  0  0
    5.4060    0.0250    0.6350 C   0  0  0  0  0  0  0  0  0  0  0  0
    5.6150    1.3560    0.3420 C   0  0  0  0  0  0  0  0  0  0  0  0
    7.2130    2.0170    0.6140 Cl  0  0  0  0  0  0  0  0  0  0  0  0
    4.5740    2.1210   -0.1340 C   0  0  0  0  0  0  0  0  0  0  0  0
    4.9140    3.8010   -0.4820 Cl  0  0  0  0  0  0  0  0  0  0  0  0
    3.3320    1.5480   -0.3150 C   0  0  0  0  0  0  0  0  0  0  0  0
  1  2  1  0
  2  3  2  0
  2 14  1  0
  3  4  1  0
  4  5  1  0
  4 13  2  0
  5  6  1  1
  5  8  1  0
  5 12  1  0
  6  7  1  0
  8  9  1  0
  9 10  1  0
 10 11  1  0
 11 12  1  0
 13 14  1  0
 14 15  1  0
 15 16  2  0
 15 22  1  0
 16 17  1  0
 17 18  2  0
 18 19  1  0
 18 20  1  0
 20 21  1  0
 20 22  2  0
M  CHG  1   7   1
M  END
