
     RDKit          3D

 22 24  0  0  0  0  0  0  0  0999 V2000
   -4.8660   -0.9830   -0.1940 C   0  0  0  0  0  0  0  0  0  0  0  0
   -3.8800   -0.1600    0.6130 C   0  0  2  0  0  0  0  0  0  0  0  0
   -3.9470    1.3000    0.2230 C   0  0  0  0  0  0  0  0  0  0  0  0
   -2.6120    1.6800   -0.1470 N   0  0  0  0  0  0  0  0  0  0  0  0
   -1.7220    0.6820    0.4080 C   0  0  1  0  0  0  0  0  0  0  0  0
   -1.3110    1.0090    1.7860 C   0  0  0  0  0  0  0  0  0  0  0  0
   -2.5240    1.1690    3.0310 Cl  0  0  0  0  0  0  0  0  0  0  0  0
   -0.0600    1.1800    2.0900 C   0  0  0  0  0  0  0  0  0  0  0  0
    0.9380    1.0490    1.0710 N   0  0  0  0  0  0  0  0  0  0  0  0
    1.8450   -0.0420    1.1240 C   0  0  0  0  0  0  0  0  0  0  0  0
    1.7400   -0.9340    2.1420 N   0  0  0  0  0  0  0  0  0  0  0  0
    2.5590   -1.9800    2.2490 C   0  0  0  0  0  0  0  0  0  0  0  0
    3.5380   -2.1600    1.3030 C   0  0  0  0  0  0  0  0  0  0  0  0
    3.6680   -1.2630    0.2510 C   0  0  0  0  0  0  0  0  0  0  0  0
    4.6440   -1.4280   -0.7080 C   0  0  0  0  0  0  0  0  0  0  0  0
    4.7890   -0.5500   -1.7570 C   0  0  0  0  0  0  0  0  0  0  0  0
    3.9520    0.5340   -1.8840 C   0  0  0  0  0  0  0  0  0  0  0  0
    4.0760    1.4620   -2.9590 N   0  0  0  0  0  0  0  0  0  0  0  0
    2.9680    0.6900   -0.9070 C   0  0  0  0  0  0  0  0  0  0  0  0
    2.8040   -0.1740    0.1510 C   0  0  0  0  0  0  0  0  0  0  0  0
   -2.5210   -0.5290    0.3460 N   0  0  0  0  0  0  0  0  0  0  0  0
   -2.3990   -1.0620   -0.9980 C   0  0  0  0  0  0  0  0  0  0  0  0
  2  1  1  6
  2  3  1  0
  2 21  1  0
  3  4  1  0
  4  5  1  0
  5  6  1  1
  5 21  1  0
  6  7  1  0
  6  8  2  3
  8  9  1  0
  9 10  1  0
 10 11  2  0
 10 20  1  0
 11 12  1  0
 12 13  2  0
 13 14  1  0
 14 15  2  0
 14 20  1  0
 15 16  1  0
 16 17  2  0
 17 18  1  0
 17 19  1  0
 19 20  2  0
 21 22  1  0
M  CHG  1   4   1
M  END
