
     RDKit          3D

 22 24  0  0  0  0  0  0  0  0999 V2000
    6.3220    1.2710   -1.6720 N   0  0  0  0  0  0  0  0  0  0  0  0
    5.9320    0.4210   -0.6160 C   0  0  0  0  0  0  0  0  0  0  0  0
    4.6060    0.2260   -0.2570 C   0  0  0  0  0  0  0  0  0  0  0  0
    4.2260   -0.5950    0.7630 C   0  0  0  0  0  0  0  0  0  0  0  0
    2.8100   -0.7730    1.1110 C   0  0  0  0  0  0  0  0  0  0  0  0
    1.7090   -0.1960    0.5170 C   0  0  0  0  0  0  0  0  0  0  0  0
    0.5540   -0.6360    1.1580 C   0  0  0  0  0  0  0  0  0  0  0  0
   -0.8640   -0.2790    0.8530 C   0  0  0  0  0  0  0  0  0  0  0  0
   -0.9690    0.2150   -0.4780 N   0  0  0  0  0  0  0  0  0  0  0  0
   -2.2720    0.5830   -0.8980 C   0  0  2  0  0  0  0  0  0  0  0  0
   -2.8130    1.7320   -0.0740 C   0  0  0  0  0  0  0  0  0  0  0  0
   -4.2080    2.1240   -0.5250 C   0  0  0  0  0  0  0  0  0  0  0  0
   -5.1350    0.9280   -0.6050 C   0  0  0  0  0  0  0  0  0  0  0  0
   -4.4240   -0.2510   -0.0180 C   0  0  1  0  0  0  0  0  0  0  0  0
   -5.2710   -1.4990    0.0460 C   0  0  0  0  0  0  0  0  0  0  0  0
   -6.7200   -1.2700    1.0300 Cl  0  0  0  0  0  0  0  0  0  0  0  0
   -3.2480   -0.5680   -0.9530 C   0  0  0  0  0  0  0  0  0  0  0  0
    0.9980   -1.4620    2.1160 N   0  0  0  0  0  0  0  0  0  0  0  0
    2.3130   -1.5550    2.1050 N   0  0  0  0  0  0  0  0  0  0  0  0
    5.2090   -1.2640    1.4710 C   0  0  0  0  0  0  0  0  0  0  0  0
    6.5270   -1.0640    1.1050 C   0  0  0  0  0  0  0  0  0  0  0  0
    6.8780   -0.2490    0.0950 N   0  0  0  0  0  0  0  0  0  0  0  0
  1  2  1  0
  2  3  2  0
  2 22  1  0
  3  4  1  0
  4  5  1  0
  4 20  2  0
  5  6  1  0
  5 19  2  0
  6  7  2  0
  7  8  1  0
  7 18  1  0
  8  9  1  0
 10  9  1  1
 10 11  1  0
 10 17  1  0
 11 12  1  0
 12 13  1  0
 13 14  1  0
 14 15  1  6
 14 17  1  0
 15 16  1  0
 18 19  1  0
 20 21  1  0
 21 22  2  0
M  CHG  1  22   1
M  END
