
     RDKit          3D

 18 19  0  0  0  0  0  0  0  0999 V2000
   -1.4520    1.3960   -2.1790 C   0  0  0  0  0  0  0  0  0  0  0  0
   -1.8050    1.9140   -0.8250 C   0  0  2  0  0  0  0  0  0  0  0  0
   -0.5510    1.9600    0.0490 C   0  0  0  0  0  0  0  0  0  0  0  0
   -0.1360    0.5400    0.2940 C   0  0  1  0  0  0  0  0  0  0  0  0
    1.0760    0.3880    1.0180 N   0  0  0  0  0  0  0  0  0  0  0  0
    2.2070   -0.2880    0.4610 C   0  0  0  0  0  0  0  0  0  0  0  0
    2.0610   -0.7270   -0.6830 O   0  0  0  0  0  0  0  0  0  0  0  0
    3.4170   -0.4540    1.1490 N   0  0  0  0  0  0  0  0  0  0  0  0
    4.5350   -1.1260    0.5900 C   0  0  0  0  0  0  0  0  0  0  0  0
    4.9190   -1.7410   -0.4890 C   0  0  0  0  0  0  0  0  0  0  0  0
    4.0770   -2.1460   -2.1690 Br  0  0  0  0  0  0  0  0  0  0  0  0
    6.2410   -2.0000    0.0840 C   0  0  0  0  0  0  0  0  0  0  0  0
    5.8670   -1.3840    1.1750 C   0  0  0  0  0  0  0  0  0  0  0  0
   -1.2030   -0.2530    1.0140 C   0  0  0  0  0  0  0  0  0  0  0  0
   -2.5550   -0.1460    0.4070 C   0  0  1  0  0  0  0  0  0  0  0  0
   -2.8020   -1.2430   -0.6360 C   0  0  0  0  0  0  0  0  0  0  0  0
   -3.5610   -0.4270    1.5360 C   0  0  0  0  0  0  0  0  0  0  0  0
   -2.9030    1.1970   -0.1370 C   0  0  0  0  0  0  0  0  0  0  0  0
  2  1  1  6
  2  3  1  0
  2 18  1  0
  3  4  1  0
  4  5  1  1
  4 14  1  0
  5  6  1  0
  6  7  2  0
  6  8  1  0
  8  9  1  0
  9 10  2  0
  9 13  1  0
 10 11  1  0
 10 12  1  0
 12 13  2  0
 14 15  1  0
 15 16  1  6
 15 17  1  0
 15 18  1  0
M  END
