
     RDKit          3D

 29 29  0  0  0  0  0  0  0  0999 V2000
    2.2230    3.7890    0.3990 C   0  0  0  0  0  0  0  0  0  0  0  0
    1.4190    3.2700    1.5410 C   0  0  0  0  0  0  0  0  0  0  0  0
    0.2020    3.9330    1.7210 O   0  0  0  0  0  0  0  0  0  0  0  0
   -1.0220    2.7060    1.0910 P   0  0  0  0  0  0  0  0  0  0  0  0
   -0.9380    3.3180   -0.6390 O   0  0  0  0  0  0  0  0  0  0  0  0
   -1.8800    4.3800   -0.5610 C   0  0  0  0  0  0  0  0  0  0  0  0
   -1.2500    5.6000   -1.1600 C   0  0  0  0  0  0  0  0  0  0  0  0
   -0.8280    5.5550   -2.4340 O   0  0  0  0  0  0  0  0  0  0  0  0
   -0.3500    0.7710    1.2290 P   0  0  0  0  0  0  0  0  0  0  0  0
    1.1240    0.2270    0.4880 O   0  0  0  0  0  0  0  0  0  0  0  0
    1.6570   -0.8150    1.2120 C   0  0  0  0  0  0  0  0  0  0  0  0
    2.8310   -1.4930    0.6300 C   0  0  0  0  0  0  0  0  0  0  0  0
    3.9700   -0.7550    0.5010 O   0  0  0  0  0  0  0  0  0  0  0  0
    5.0370   -1.4910    0.0050 C   0  0  1  0  0  0  0  0  0  0  0  0
    5.0170   -1.6940   -1.4540 C   0  0  0  0  0  0  0  0  0  0  0  0
    6.3290   -1.0170    0.5320 C   0  0  0  0  0  0  0  0  0  0  0  0
    4.8950   -2.9530    0.5750 C   0  0  0  0  0  0  0  0  0  0  0  0
   -1.5290   -0.5920    1.5190 C   0  0  2  0  0  0  0  0  0  0  0  0
   -0.7750   -1.8180    1.2740 O   0  0  0  0  0  0  0  0  0  0  0  0
   -2.6360   -0.7280    0.5560 C   0  0  0  0  0  0  0  0  0  0  0  0
   -3.0820    0.2600   -0.2760 C   0  0  0  0  0  0  0  0  0  0  0  0
   -4.0570   -0.0660   -1.1860 C   0  0  0  0  0  0  0  0  0  0  0  0
   -4.6340   -1.3110   -1.3320 C   0  0  0  0  0  0  0  0  0  0  0  0
   -5.7030   -1.5440   -2.3120 C   0  0  0  0  0  0  0  0  0  0  0  0
   -4.1780   -2.3170   -0.4800 C   0  0  0  0  0  0  0  0  0  0  0  0
   -4.6750   -3.6660   -0.6060 C   0  0  0  0  0  0  0  0  0  0  0  0
   -5.1170   -4.2960    0.6860 C   0  0  0  0  0  0  0  0  0  0  0  0
   -4.7420   -4.2770   -1.6670 O   0  0  0  0  0  0  0  0  0  0  0  0
   -3.1910   -2.0000    0.4390 C   0  0  0  0  0  0  0  0  0  0  0  0
  1  2  1  0
  2  3  1  0
  3  4  1  0
  4  5  1  0
  4  9  1  0
  5  6  1  0
  6  7  1  0
  7  8  1  0
  9 10  1  0
  9 18  1  0
 10 11  1  0
 11 12  1  0
 12 13  1  0
 13 14  1  0
 14 15  1  6
 14 16  1  0
 14 17  1  0
 18 19  1  6
 18 20  1  0
 20 21  2  0
 20 29  1  0
 21 22  1  0
 22 23  2  0
 23 24  1  0
 23 25  1  0
 25 26  1  0
 25 29  2  0
 26 27  1  0
 26 28  2  0
M  END
