
     RDKit          3D

 29 29  0  0  0  0  0  0  0  0999 V2000
    7.1840    3.0600   -0.8830 C   0  0  0  0  0  0  0  0  0  0  0  0
    6.7890    1.6300   -1.2080 C   0  0  0  0  0  0  0  0  0  0  0  0
    5.5820    1.3870   -0.5380 O   0  0  0  0  0  0  0  0  0  0  0  0
    4.8290    0.2490   -0.5820 C   0  0  0  0  0  0  0  0  0  0  0  0
    5.2600   -0.7090   -1.3290 O   0  0  0  0  0  0  0  0  0  0  0  0
    3.5810    0.0950    0.1940 C   0  0  1  0  0  0  0  0  0  0  0  0
    3.8070   -1.3160    0.9270 C   0  0  0  0  0  0  0  0  0  0  0  0
    3.4390    1.0400    1.3150 C   0  0  0  0  0  0  0  0  0  0  0  0
    2.3990   -0.1320   -0.6350 C   0  0  0  0  0  0  0  0  0  0  0  0
    1.2310   -0.1250    0.2160 O   0  0  0  0  0  0  0  0  0  0  0  0
    0.1020   -1.1960   -0.6200 P   0  0  0  0  0  0  0  0  0  0  0  0
    0.4800   -2.7330    0.0800 O   0  0  0  0  0  0  0  0  0  0  0  0
    0.1810   -2.8380    1.3990 C   0  0  0  0  0  0  0  0  0  0  0  0
    0.5000   -1.7870    2.3840 C   0  0  0  0  0  0  0  0  0  0  0  0
   -1.6050   -0.6340   -0.6310 C   0  0  2  0  0  0  0  0  0  0  0  0
   -2.8240   -1.8780   -0.2610 P   0  0  0  0  0  0  0  0  0  0  0  0
   -2.9910   -2.4550    1.4670 C   0  0  0  0  0  0  0  0  0  0  0  0
   -3.4550   -2.9510   -1.3930 O   0  0  0  0  0  0  0  0  0  0  0  0
   -4.6510   -3.4220   -0.7270 C   0  0  0  0  0  0  0  0  0  0  0  0
   -4.5470   -4.9240   -0.7320 C   0  0  0  0  0  0  0  0  0  0  0  0
   -1.9830   -0.0040   -2.0180 C   0  0  0  0  0  0  0  0  0  0  0  0
   -3.0160    1.0790   -1.6770 C   0  0  0  0  0  0  0  0  0  0  0  0
   -2.5620    1.6480   -0.4210 C   0  0  0  0  0  0  0  0  0  0  0  0
   -2.6870    2.7670    0.2250 C   0  0  0  0  0  0  0  0  0  0  0  0
   -3.2890    4.0150    0.1380 C   0  0  0  0  0  0  0  0  0  0  0  0
   -2.9980    4.9050    1.1040 O   0  0  0  0  0  0  0  0  0  0  0  0
   -4.1650    4.5300   -0.7940 O   0  0  0  0  0  0  0  0  0  0  0  0
   -4.6820    5.8520   -0.6470 C   0  0  0  0  0  0  0  0  0  0  0  0
   -1.8270    0.5060    0.2950 C   0  0  0  0  0  0  0  0  0  0  0  0
  1  2  1  0
  2  3  1  0
  3  4  1  0
  4  5  2  0
  4  6  1  0
  6  7  1  1
  6  8  1  0
  6  9  1  0
  9 10  1  0
 10 11  1  0
 11 12  1  0
 15 11  1  6
 12 13  1  0
 13 14  1  0
 15 16  1  0
 15 21  1  0
 15 29  1  0
 16 17  1  0
 16 18  1  0
 18 19  1  0
 19 20  1  0
 21 22  1  0
 22 23  1  0
 23 24  2  3
 23 29  1  0
 24 25  1  0
 25 26  2  0
 25 27  1  0
 27 28  1  0
M  END
