
     RDKit          3D

 29 29  0  0  0  0  0  0  0  0999 V2000
    6.3650    3.3960   -0.3950 C   0  0  0  0  0  0  0  0  0  0  0  0
    6.1630    2.1350   -1.2160 C   0  0  0  0  0  0  0  0  0  0  0  0
    6.7290    1.0320   -0.6120 O   0  0  0  0  0  0  0  0  0  0  0  0
    6.1650    0.6610    0.5840 C   0  0  0  0  0  0  0  0  0  0  0  0
    4.7470    0.1720    0.3960 C   0  0  0  0  0  0  0  0  0  0  0  0
    4.1500   -0.1290    1.4450 O   0  0  0  0  0  0  0  0  0  0  0  0
    4.1940    0.0550   -0.8470 O   0  0  0  0  0  0  0  0  0  0  0  0
    2.5740   -0.6250   -1.0450 P   0  0  0  0  0  0  0  0  0  0  0  0
    2.8100   -2.2190   -1.6920 O   0  0  0  0  0  0  0  0  0  0  0  0
    2.3660   -3.1310   -0.7060 C   0  0  0  0  0  0  0  0  0  0  0  0
    3.5410   -4.1000   -0.4700 C   0  0  0  0  0  0  0  0  0  0  0  0
    1.3980    0.3850   -1.6420 O   0  0  0  0  0  0  0  0  0  0  0  0
    0.0030    0.1920   -0.5620 P   0  0  0  0  0  0  0  0  0  0  0  0
   -0.1840   -1.4440   -0.3450 O   0  0  0  0  0  0  0  0  0  0  0  0
   -0.7380   -1.9440    0.7830 C   0  0  0  0  0  0  0  0  0  0  0  0
    0.1130   -1.6480    2.0080 C   0  0  0  0  0  0  0  0  0  0  0  0
   -1.4530    1.2030   -1.1550 C   0  0  2  0  0  0  0  0  0  0  0  0
   -1.0130    2.5210   -0.9380 O   0  0  0  0  0  0  0  0  0  0  0  0
   -2.5670    0.7700   -0.2810 C   0  0  0  0  0  0  0  0  0  0  0  0
   -2.3660    0.5880    1.0940 C   0  0  0  0  0  0  0  0  0  0  0  0
   -3.2610   -0.0420    1.9160 C   0  0  0  0  0  0  0  0  0  0  0  0
   -3.1250   -0.1490    3.4010 C   0  0  0  0  0  0  0  0  0  0  0  0
   -4.4640   -0.5560    1.4040 C   0  0  0  0  0  0  0  0  0  0  0  0
   -4.6520   -0.3640    0.0610 C   0  0  0  0  0  0  0  0  0  0  0  0
   -3.7320    0.2920   -0.7740 C   0  0  0  0  0  0  0  0  0  0  0  0
   -4.1780    0.5830   -2.1610 C   0  0  1  0  0  0  0  0  0  0  0  0
   -3.5770    0.0690   -3.3520 C   0  0  0  0  0  0  0  0  0  0  0  0
   -5.6680    0.6560   -2.1260 C   0  0  0  0  0  0  0  0  0  0  0  0
   -3.8680    2.2080   -2.2250 C   0  0  0  0  0  0  0  0  0  0  0  0
  1  2  1  0
  2  3  1  0
  3  4  1  0
  4  5  1  0
  5  6  2  0
  5  7  1  0
  7  8  1  0
  8  9  1  0
  8 12  1  0
  9 10  1  0
 10 11  1  0
 12 13  1  0
 13 14  1  0
 13 17  1  0
 14 15  1  0
 15 16  1  0
 17 18  1  1
 17 19  1  0
 19 20  2  0
 19 25  1  0
 20 21  1  0
 21 22  1  0
 21 23  2  0
 23 24  1  0
 24 25  2  0
 25 26  1  0
 26 27  1  6
 26 28  1  0
 26 29  1  0
M  END
