
     RDKit          3D

 29 28  0  0  0  0  0  0  0  0999 V2000
   10.2680    2.9810   -0.0430 C   0  0  0  0  0  0  0  0  0  0  0  0
    8.9660    2.3260    0.1150 C   0  0  0  0  0  0  0  0  0  0  0  0
    8.7880    1.2630    1.1200 C   0  0  0  0  0  0  0  0  0  0  0  0
    7.9380    2.6790   -0.6390 C   0  0  0  0  0  0  0  0  0  0  0  0
    6.5910    2.0120   -0.4860 C   0  0  0  0  0  0  0  0  0  0  0  0
    5.6160    3.1010   -0.1200 C   0  0  0  0  0  0  0  0  0  0  0  0
    4.2110    2.5580    0.0710 C   0  0  0  0  0  0  0  0  0  0  0  0
    3.1710    3.5200    0.4650 C   0  0  0  0  0  0  0  0  0  0  0  0
    3.9840    1.2760   -0.0850 C   0  0  0  0  0  0  0  0  0  0  0  0
    2.7680    0.4950    0.0280 C   0  0  0  0  0  0  0  0  0  0  0  0
    1.4950    1.2120    0.1540 C   0  0  0  0  0  0  0  0  0  0  0  0
    0.3390    0.2040    0.3070 C   0  0  0  0  0  0  0  0  0  0  0  0
    0.3220   -0.7310    1.4390 C   0  0  0  0  0  0  0  0  0  0  0  0
   -0.6430    0.1770   -0.5790 C   0  0  0  0  0  0  0  0  0  0  0  0
   -1.7940   -0.7860   -0.4770 C   0  0  0  0  0  0  0  0  0  0  0  0
   -3.0630    0.0190   -0.3800 C   0  0  0  0  0  0  0  0  0  0  0  0
   -4.2870   -0.7780   -0.2700 C   0  0  0  0  0  0  0  0  0  0  0  0
   -5.5800   -0.0150   -0.1740 C   0  0  0  0  0  0  0  0  0  0  0  0
   -4.3510   -2.0990   -0.2500 C   0  0  0  0  0  0  0  0  0  0  0  0
   -5.6700   -2.7690   -0.1340 C   0  0  0  0  0  0  0  0  0  0  0  0
   -5.9340   -3.5920   -1.2240 O   0  0  0  0  0  0  0  0  0  0  0  0
   -7.4250   -4.3450   -1.0870 P   0  0  2  0  0  0  0  0  0  0  0  0
   -7.5740   -4.9580    0.2990 O   0  0  0  0  0  0  0  0  0  0  0  0
   -7.5930   -5.5820   -2.2010 O   0  0  0  0  0  0  0  0  0  0  0  0
   -8.6120   -3.1440   -1.3320 O   0  0  0  0  0  0  0  0  0  0  0  0
   -9.9150   -3.4000   -0.2810 P   0  0  2  0  0  0  0  0  0  0  0  0
   -9.4490   -4.0990    0.9850 O   0  0  0  0  0  0  0  0  0  0  0  0
  -11.0600   -4.3320   -1.1020 O   0  0  0  0  0  0  0  0  0  0  0  0
  -10.6620   -1.9250    0.1040 O   0  0  0  0  0  0  0  0  0  0  0  0
  1  2  1  0
  2  3  1  0
  2  4  2  3
  4  5  1  0
  5  6  1  0
  6  7  1  0
  7  8  1  0
  7  9  2  3
  9 10  1  0
 10 11  1  0
 11 12  1  0
 12 13  1  0
 12 14  2  3
 14 15  1  0
 15 16  1  0
 16 17  1  0
 17 18  1  0
 17 19  2  3
 19 20  1  0
 20 21  1  0
 21 22  1  0
 22 23  2  0
 22 24  1  6
 22 25  1  0
 25 26  1  0
 26 27  2  0
 26 28  1  6
 26 29  1  0
M  END
