
     RDKit          3D

 29 29  0  0  0  0  0  0  0  0999 V2000
   -5.4900    1.0360    1.7810 C   0  0  0  0  0  0  0  0  0  0  0  0
   -4.3780    0.7680    2.7720 C   0  0  0  0  0  0  0  0  0  0  0  0
   -3.6340   -0.4910    2.4770 C   0  0  0  0  0  0  0  0  0  0  0  0
   -3.0130   -0.6060    1.3050 O   0  0  0  0  0  0  0  0  0  0  0  0
   -2.0390    0.2710    0.9560 C   0  0  2  0  0  0  0  0  0  0  0  0
   -2.4390    0.9290   -0.3330 C   0  0  0  0  0  0  0  0  0  0  0  0
   -1.6420    1.7720   -0.7900 O   0  0  0  0  0  0  0  0  0  0  0  0
   -3.5740    0.6630   -0.9960 O   0  0  0  0  0  0  0  0  0  0  0  0
   -4.1460    1.1330   -2.1540 C   0  0  0  0  0  0  0  0  0  0  0  0
   -4.5720    2.5720   -2.1300 C   0  0  0  0  0  0  0  0  0  0  0  0
   -3.2300    3.7970   -1.8650 P   0  0  0  0  0  0  0  0  0  0  0  0
   -2.9840    4.5790   -0.5700 O   0  0  0  0  0  0  0  0  0  0  0  0
   -0.7860   -0.5220    0.7160 C   0  0  0  0  0  0  0  0  0  0  0  0
    0.4130   -0.1180    1.2130 C   0  0  0  0  0  0  0  0  0  0  0  0
    1.5720   -0.8190    1.0110 C   0  0  0  0  0  0  0  0  0  0  0  0
    2.8430   -0.3180    1.5830 C   0  0  0  0  0  0  0  0  0  0  0  0
    3.7110    0.8170    0.3850 P   0  0  0  0  0  0  0  0  0  0  0  0
    4.9640    1.6720    1.1870 O   0  0  0  0  0  0  0  0  0  0  0  0
    5.4070    1.0260    2.3210 C   0  0  0  0  0  0  0  0  0  0  0  0
    6.5110    1.8660    2.9500 C   0  0  0  0  0  0  0  0  0  0  0  0
    4.3170   -0.1110   -0.9540 O   0  0  0  0  0  0  0  0  0  0  0  0
    4.7600    0.7180   -1.9630 C   0  0  0  0  0  0  0  0  0  0  0  0
    5.2700   -0.1620   -3.0880 C   0  0  0  0  0  0  0  0  0  0  0  0
    1.5050   -1.9760    0.2750 C   0  0  0  0  0  0  0  0  0  0  0  0
    0.3100   -2.4540   -0.2670 C   0  0  0  0  0  0  0  0  0  0  0  0
    0.3390   -3.6210   -0.9900 O   0  0  0  0  0  0  0  0  0  0  0  0
   -0.7830   -4.2040   -1.5820 C   0  0  0  0  0  0  0  0  0  0  0  0
   -1.4430   -3.2950   -2.5990 C   0  0  0  0  0  0  0  0  0  0  0  0
   -0.8160   -1.7040   -0.0280 C   0  0  0  0  0  0  0  0  0  0  0  0
  1  2  1  0
  2  3  1  0
  3  4  1  0
  5  4  1  6
  5  6  1  0
  5 13  1  0
  6  7  2  0
  6  8  1  0
  8  9  1  0
  9 10  1  0
 10 11  1  0
 11 12  2  0
 13 14  2  0
 13 29  1  0
 14 15  1  0
 15 16  1  0
 15 24  2  0
 16 17  1  0
 17 18  1  0
 17 21  1  0
 18 19  1  0
 19 20  1  0
 21 22  1  0
 22 23  1  0
 24 25  1  0
 25 26  1  0
 25 29  2  0
 26 27  1  0
 27 28  1  0
M  END
