
     RDKit          3D

 28 29  0  0  0  0  0  0  0  0999 V2000
    3.5700    3.4780   -1.5840 O   0  0  0  0  0  0  0  0  0  0  0  0
    3.6030    3.0740   -0.4010 C   0  0  0  0  0  0  0  0  0  0  0  0
    4.7960    3.0580    0.3000 O   0  0  0  0  0  0  0  0  0  0  0  0
    2.3700    2.6090    0.2570 C   0  0  0  0  0  0  0  0  0  0  0  0
    2.3230    1.0940    0.0790 C   0  0  0  0  0  0  0  0  0  0  0  0
    1.0880    0.5150    0.7280 C   0  0  0  0  0  0  0  0  0  0  0  0
    1.0950   -0.9220    0.5100 N   0  0  0  0  0  0  0  0  0  0  0  0
    2.1130   -1.5170    1.3470 C   0  0  0  0  0  0  0  0  0  0  0  0
    2.5690   -2.8420    0.8270 C   0  0  0  0  0  0  0  0  0  0  0  0
    1.6130   -3.8270    0.7150 O   0  0  0  0  0  0  0  0  0  0  0  0
   -0.1970   -1.5050    0.6600 C   0  0  0  0  0  0  0  0  0  0  0  0
   -1.1010   -1.2150   -0.4890 C   0  0  1  0  0  0  0  0  0  0  0  0
   -0.4880   -1.9030   -1.7300 C   0  0  0  0  0  0  0  0  0  0  0  0
    0.7580   -1.3400   -1.9600 O   0  0  0  0  0  0  0  0  0  0  0  0
   -2.3850   -1.8420   -0.2980 O   0  0  0  0  0  0  0  0  0  0  0  0
   -3.3190   -0.8870   -0.6400 C   0  0  0  0  0  0  0  0  0  0  0  0
   -4.4890   -1.0300   -1.1310 O   0  0  0  0  0  0  0  0  0  0  0  0
   -2.6480    0.4180   -0.2990 C   0  0  2  0  0  0  0  0  0  0  0  0
   -2.7080    0.6230    1.0970 O   0  0  0  0  0  0  0  0  0  0  0  0
   -3.8730    0.7140    1.8310 C   0  0  0  0  0  0  0  0  0  0  0  0
   -4.9660    0.6110    1.2230 O   0  0  0  0  0  0  0  0  0  0  0  0
   -3.8810    0.9150    3.2260 O   0  0  0  0  0  0  0  0  0  0  0  0
   -3.2100    1.5210   -1.0700 C   0  0  0  0  0  0  0  0  0  0  0  0
   -3.8010    2.5520   -0.6110 N   0  0  0  0  0  0  0  0  0  0  0  0
   -4.1850    3.3610   -1.6780 O   0  0  0  0  0  0  0  0  0  0  0  0
   -3.6720    2.8430   -2.8070 O   0  0  0  0  0  0  0  0  0  0  0  0
   -3.1970    1.6350   -2.4480 O   0  0  0  0  0  0  0  0  0  0  0  0
   -1.3230    0.1000   -0.6780 O   0  0  0  0  0  0  0  0  0  0  0  0
  1  2  2  0
  2  3  1  0
  2  4  1  0
  4  5  1  0
  5  6  1  0
  6  7  1  0
  7  8  1  0
  7 11  1  0
  8  9  1  0
  9 10  1  0
 12 11  1  1
 12 13  1  0
 12 15  1  0
 12 28  1  0
 13 14  1  0
 15 16  1  0
 16 17  2  0
 16 18  1  0
 18 19  1  1
 18 23  1  0
 18 28  1  0
 19 20  1  0
 20 21  2  0
 20 22  1  0
 23 24  2  0
 23 27  1  0
 24 25  1  0
 25 26  1  0
 26 27  1  0
M  END
