
     RDKit          3D

 29 29  0  0  0  0  0  0  0  0999 V2000
   -6.5060    1.6770    1.8950 C   0  0  0  0  0  0  0  0  0  0  0  0
   -5.9740    1.2500    0.5440 C   0  0  0  0  0  0  0  0  0  0  0  0
   -6.1150   -0.2420    0.3410 C   0  0  0  0  0  0  0  0  0  0  0  0
   -5.6500   -0.6820   -0.8650 O   0  0  0  0  0  0  0  0  0  0  0  0
   -4.3000   -0.4470   -1.1060 C   0  0  0  0  0  0  0  0  0  0  0  0
   -3.2490   -1.2590    0.1270 P   0  0  0  0  0  0  0  0  0  0  0  0
   -3.6910   -2.8330    0.5610 O   0  0  0  0  0  0  0  0  0  0  0  0
   -4.3450   -3.5490   -0.4280 C   0  0  0  0  0  0  0  0  0  0  0  0
   -4.7230   -4.9310   -0.0200 C   0  0  0  0  0  0  0  0  0  0  0  0
   -1.6080   -0.9110    0.1350 O   0  0  0  0  0  0  0  0  0  0  0  0
   -1.1640    0.1090   -0.6860 C   0  0  1  0  0  0  0  0  0  0  0  0
   -1.4820   -0.2130   -2.1280 C   0  0  0  0  0  0  0  0  0  0  0  0
   -1.7240    1.4630   -0.2650 C   0  0  0  0  0  0  0  0  0  0  0  0
    0.3470    0.2610   -0.6120 C   0  0  0  0  0  0  0  0  0  0  0  0
    0.7600    0.5540    0.6870 O   0  0  0  0  0  0  0  0  0  0  0  0
    2.4580    0.7350    0.8170 P   0  0  0  0  0  0  0  0  0  0  0  0
    3.3500    0.3570   -0.7530 C   0  0  0  0  0  0  0  0  0  0  0  0
    4.7360   -0.1250   -0.5200 C   0  0  0  0  0  0  0  0  0  0  0  0
    5.7760    0.7870   -0.4560 C   0  0  0  0  0  0  0  0  0  0  0  0
    7.0740    0.3530   -0.2400 C   0  0  0  0  0  0  0  0  0  0  0  0
    7.3970   -0.9770   -0.0790 C   0  0  0  0  0  0  0  0  0  0  0  0
    8.7700   -1.4070    0.1480 C   0  0  0  0  0  0  0  0  0  0  0  0
    9.6690   -0.5330    0.1960 O   0  0  0  0  0  0  0  0  0  0  0  0
    9.1270   -2.7310    0.3140 O   0  0  0  0  0  0  0  0  0  0  0  0
    6.3510   -1.8860   -0.1430 C   0  0  0  0  0  0  0  0  0  0  0  0
    5.0580   -1.4560   -0.3590 C   0  0  0  0  0  0  0  0  0  0  0  0
    2.9280    2.2580    1.4480 O   0  0  0  0  0  0  0  0  0  0  0  0
    2.7770    3.2560    0.5120 C   0  0  0  0  0  0  0  0  0  0  0  0
    3.2070    4.5730    1.1280 C   0  0  0  0  0  0  0  0  0  0  0  0
  1  2  1  0
  2  3  1  0
  3  4  1  0
  4  5  1  0
  5  6  1  0
  6  7  1  0
  6 10  1  0
  7  8  1  0
  8  9  1  0
 10 11  1  0
 11 12  1  6
 11 13  1  0
 11 14  1  0
 14 15  1  0
 15 16  1  0
 16 17  1  0
 16 27  1  0
 17 18  1  0
 18 19  2  0
 18 26  1  0
 19 20  1  0
 20 21  2  0
 21 22  1  0
 21 25  1  0
 22 23  2  0
 22 24  1  0
 25 26  2  0
 27 28  1  0
 28 29  1  0
M  END
