
     RDKit          3D

 28 28  0  0  0  0  0  0  0  0999 V2000
   -5.0690   -0.0140   -3.1280 C   0  0  0  0  0  0  0  0  0  0  0  0
   -5.1730   -0.4610   -1.6830 C   0  0  0  0  0  0  0  0  0  0  0  0
   -4.3720    0.3860   -0.9280 O   0  0  0  0  0  0  0  0  0  0  0  0
   -4.3590    0.0400    0.7330 P   0  0  0  0  0  0  0  0  0  0  0  0
   -4.9880    1.2550    1.7420 O   0  0  0  0  0  0  0  0  0  0  0  0
   -5.7290    0.8040    2.8070 C   0  0  0  0  0  0  0  0  0  0  0  0
   -6.2060    2.0130    3.5900 C   0  0  0  0  0  0  0  0  0  0  0  0
   -2.8030   -0.7210    1.3420 C   0  0  2  0  0  0  0  0  0  0  0  0
   -2.3650   -0.0050    2.4530 O   0  0  0  0  0  0  0  0  0  0  0  0
   -1.7430   -0.5780    0.2750 C   0  0  0  0  0  0  0  0  0  0  0  0
   -0.5530   -1.0920    0.7570 O   0  0  0  0  0  0  0  0  0  0  0  0
    0.4900   -0.9890   -0.1990 C   0  0  2  0  0  0  0  0  0  0  0  0
    0.8690   -2.4090   -0.4890 C   0  0  0  0  0  0  0  0  0  0  0  0
    1.9480   -2.5680   -1.4950 C   0  0  2  0  0  0  0  0  0  0  0  0
    2.2320   -4.0640   -1.7340 C   0  0  0  0  0  0  0  0  0  0  0  0
    3.4390   -3.9690   -2.6430 C   0  0  0  0  0  0  0  0  0  0  0  0
    4.1930   -2.7410   -2.1810 C   0  0  0  0  0  0  0  0  0  0  0  0
    3.3230   -2.1280   -1.0630 C   0  0  0  0  0  0  0  0  0  0  0  0
    1.5600   -0.1280    0.3040 C   0  0  0  0  0  0  0  0  0  0  0  0
    2.3230   -0.5420    1.3810 O   0  0  0  0  0  0  0  0  0  0  0  0
    1.8410    1.0520   -0.2250 C   0  0  0  0  0  0  0  0  0  0  0  0
    2.9030    1.8970    0.2800 C   0  0  0  0  0  0  0  0  0  0  0  0
    3.1660    3.0580   -0.2550 C   0  0  0  0  0  0  0  0  0  0  0  0
    4.2470    3.8990    0.2730 C   0  0  2  0  0  0  0  0  0  0  0  0
    4.9620    3.2340    1.4140 C   0  0  0  0  0  0  0  0  0  0  0  0
    3.6850    5.2260    0.7410 C   0  0  0  0  0  0  0  0  0  0  0  0
   -3.0310   -2.4830    1.8640 P   0  0  0  0  0  0  0  0  0  0  0  0
   -4.3200   -3.2960    1.5330 O   0  0  0  0  0  0  0  0  0  0  0  0
  1  2  1  0
  2  3  1  0
  3  4  1  0
  4  5  1  0
  4  8  1  0
  5  6  1  0
  6  7  1  0
  8  9  1  1
  8 10  1  0
  8 27  1  0
 10 11  1  0
 11 12  1  0
 12 13  1  1
 12 19  1  0
 14 13  1  1
 14 15  1  0
 14 18  1  0
 15 16  1  0
 16 17  1  0
 17 18  1  0
 19 20  1  0
 19 21  2  3
 21 22  1  0
 22 23  2  3
 23 24  1  0
 24 25  1  1
 24 26  1  0
 27 28  2  0
M  END
