
     RDKit          3D

 29 29  0  0  0  0  0  0  0  0999 V2000
   -7.8760    0.4120    2.5170 C   0  0  0  0  0  0  0  0  0  0  0  0
   -7.7880   -0.8060    1.5410 C   0  0  0  0  0  0  0  0  0  0  0  0
   -6.6750   -1.4780    1.9380 O   0  0  0  0  0  0  0  0  0  0  0  0
   -5.4070   -1.5720    0.9220 P   0  0  0  0  0  0  0  0  0  0  0  0
   -3.8200   -1.1100    1.8490 C   0  0  0  0  0  0  0  0  0  0  0  0
   -3.0400    0.3080    1.0350 P   0  0  0  0  0  0  0  0  0  0  0  0
   -3.8270    0.9410   -0.3190 O   0  0  0  0  0  0  0  0  0  0  0  0
   -4.4970    2.1250   -0.0150 C   0  0  0  0  0  0  0  0  0  0  0  0
   -5.3060    2.7410   -1.0750 C   0  0  0  0  0  0  0  0  0  0  0  0
   -1.3610    0.0370    0.8320 O   0  0  0  0  0  0  0  0  0  0  0  0
   -1.0510   -1.3290    1.0860 C   0  0  0  0  0  0  0  0  0  0  0  0
    0.4330   -1.4610    1.0220 C   0  0  0  0  0  0  0  0  0  0  0  0
    1.0630   -1.1610   -0.1410 O   0  0  0  0  0  0  0  0  0  0  0  0
    2.2270   -0.4350    0.2260 C   0  0  1  0  0  0  0  0  0  0  0  0
    3.3560   -1.4180    0.3710 C   0  0  0  0  0  0  0  0  0  0  0  0
    4.5970   -0.6390    0.9230 C   0  0  0  0  0  0  0  0  0  0  0  0
    4.9570    0.1640   -0.3410 C   0  0  0  0  0  0  0  0  0  0  0  0
    6.1010    0.0200   -0.8660 C   0  0  0  0  0  0  0  0  0  0  0  0
    7.3330   -0.5390   -0.9030 C   0  0  0  0  0  0  0  0  0  0  0  0
    8.1830   -0.8910    0.2720 C   0  0  0  0  0  0  0  0  0  0  0  0
    9.4540   -1.3100   -0.2460 O   0  0  0  0  0  0  0  0  0  0  0  0
   10.0550   -0.2780   -0.8690 C   0  0  0  0  0  0  0  0  0  0  0  0
    3.9030    1.0670   -0.7630 C   0  0  0  0  0  0  0  0  0  0  0  0
    4.1970    2.2990   -1.0890 C   0  0  0  0  0  0  0  0  0  0  0  0
    5.5340    2.7590   -1.0090 O   0  0  0  0  0  0  0  0  0  0  0  0
    2.4680    0.6240   -0.7750 C   0  0  0  0  0  0  0  0  0  0  0  0
   -5.3070   -1.7750   -0.6560 O   0  0  0  0  0  0  0  0  0  0  0  0
   -6.2470   -1.1970   -1.4840 C   0  0  0  0  0  0  0  0  0  0  0  0
   -5.8990   -1.4940   -2.9590 C   0  0  0  0  0  0  0  0  0  0  0  0
  1  2  1  0
  2  3  1  0
  3  4  1  0
  4  5  1  0
  4 27  1  0
  5  6  1  0
  6  7  1  0
  6 10  1  0
  7  8  1  0
  8  9  1  0
 10 11  1  0
 11 12  1  0
 12 13  1  0
 14 13  1  6
 14 15  1  0
 14 26  1  0
 15 16  1  0
 16 17  1  0
 17 18  2  3
 17 23  1  0
 18 19  1  0
 19 20  1  0
 20 21  1  0
 21 22  1  0
 23 24  2  3
 23 26  1  0
 24 25  1  0
 27 28  1  0
 28 29  1  0
M  END
