
     RDKit          3D

 29 29  0  0  0  0  0  0  0  0999 V2000
    4.6350    4.1280   -2.2060 C   0  0  0  0  0  0  0  0  0  0  0  0
    4.2030    2.7520   -1.7450 C   0  0  0  0  0  0  0  0  0  0  0  0
    3.4660    2.8870   -0.5720 O   0  0  0  0  0  0  0  0  0  0  0  0
    2.9210    1.3810    0.0460 P   0  0  0  0  0  0  0  0  0  0  0  0
    4.1830    0.5020    1.0390 C   0  0  0  0  0  0  0  0  0  0  0  0
    5.2100    1.4690    1.5540 C   0  0  0  0  0  0  0  0  0  0  0  0
    4.6070    2.5420    2.4360 C   0  0  0  0  0  0  0  0  0  0  0  0
    3.7970    1.7330    3.8790 P   0  0  0  0  0  0  0  0  0  0  0  0
    4.0560    0.2610    4.2240 O   0  0  0  0  0  0  0  0  0  0  0  0
    2.1700    0.4000   -1.1540 O   0  0  0  0  0  0  0  0  0  0  0  0
    1.4110   -0.6180   -0.6360 C   0  0  2  0  0  0  0  0  0  0  0  0
    1.9150   -1.8360   -1.0830 O   0  0  0  0  0  0  0  0  0  0  0  0
    2.3690   -2.6370   -0.0490 C   0  0  0  0  0  0  0  0  0  0  0  0
   -0.0360   -0.4830   -0.9740 C   0  0  0  0  0  0  0  0  0  0  0  0
   -0.4720   -0.1590   -2.2320 C   0  0  0  0  0  0  0  0  0  0  0  0
   -1.8030   -0.0350   -2.5490 C   0  0  0  0  0  0  0  0  0  0  0  0
   -2.2260    0.2930   -3.8240 O   0  0  0  0  0  0  0  0  0  0  0  0
   -1.3090    0.5170   -4.8670 C   0  0  0  0  0  0  0  0  0  0  0  0
   -2.7300   -0.2560   -1.5140 C   0  0  0  0  0  0  0  0  0  0  0  0
   -2.3530   -0.5830   -0.2380 C   0  0  0  0  0  0  0  0  0  0  0  0
   -3.4070   -0.8130    0.7900 C   0  0  0  0  0  0  0  0  0  0  0  0
   -3.0660   -1.0620    2.0130 C   0  0  0  0  0  0  0  0  0  0  0  0
   -3.7670   -1.3290    3.2440 C   0  0  0  0  0  0  0  0  0  0  0  0
   -5.0540   -1.4110    3.4720 O   0  0  0  0  0  0  0  0  0  0  0  0
   -5.8660   -2.4090    3.0970 C   0  0  0  0  0  0  0  0  0  0  0  0
   -4.8000   -0.7290    0.2480 C   0  0  0  0  0  0  0  0  0  0  0  0
   -4.9300   -1.6570   -0.7260 O   0  0  0  0  0  0  0  0  0  0  0  0
   -4.7230   -2.9660   -0.4970 C   0  0  0  0  0  0  0  0  0  0  0  0
   -1.0120   -0.6920    0.0160 C   0  0  0  0  0  0  0  0  0  0  0  0
  1  2  1  0
  2  3  1  0
  3  4  1  0
  4  5  1  0
  4 10  1  0
  5  6  1  0
  6  7  1  0
  7  8  1  0
  8  9  2  0
 11 10  1  6
 11 12  1  0
 11 14  1  0
 12 13  1  0
 14 15  2  0
 14 29  1  0
 15 16  1  0
 16 17  1  0
 16 19  2  0
 17 18  1  0
 19 20  1  0
 20 21  1  0
 20 29  2  0
 21 22  2  3
 21 26  1  0
 22 23  1  0
 23 24  1  0
 24 25  1  0
 26 27  1  0
 27 28  1  0
M  END
