
     RDKit          3D

 33 33  0  0  0  0  0  0  0  0999 V2000
   10.4520    0.7070   -1.1170 C   0  0  0  0  0  0  0  0  0  0  0  0
    9.6230    0.4020    0.1020 C   0  0  0  0  0  0  0  0  0  0  0  0
    8.4080   -0.2100   -0.2420 O   0  0  0  0  0  0  0  0  0  0  0  0
    7.5780   -0.4960    1.2690 P   0  0  0  0  0  0  0  0  0  0  0  0
    8.0360   -2.0440    1.9400 O   0  0  0  0  0  0  0  0  0  0  0  0
    5.8840   -0.4150    1.0270 O   0  0  0  0  0  0  0  0  0  0  0  0
    5.5950    0.1690   -0.2040 C   0  0  0  0  0  0  0  0  0  0  0  0
    4.1000    0.2310   -0.4080 C   0  0  0  0  0  0  0  0  0  0  0  0
    3.6580    0.7000   -1.4670 O   0  0  0  0  0  0  0  0  0  0  0  0
    3.2120   -0.2370    0.5920 N   0  0  0  0  0  0  0  0  0  0  0  0
    1.7630   -0.2220    0.4860 C   0  0  0  0  0  0  0  0  0  0  0  0
    1.2050    1.1340    0.3040 C   0  0  0  0  0  0  0  0  0  0  0  0
   -0.2430    1.3340    0.2520 C   0  0  2  0  0  0  0  0  0  0  0  0
   -0.9740    0.9640    1.3940 N   0  0  0  0  0  0  0  0  0  0  0  0
   -0.9540    0.8040   -1.0170 C   0  0  1  0  0  0  0  0  0  0  0  0
   -0.0170    1.0410   -2.0500 O   0  0  0  0  0  0  0  0  0  0  0  0
   -1.3270   -0.6110   -0.8500 C   0  0  0  0  0  0  0  0  0  0  0  0
   -2.5800   -0.7950   -0.0690 N   0  0  0  0  0  0  0  0  0  0  0  0
   -2.7670   -2.0370    0.6420 C   0  0  0  0  0  0  0  0  0  0  0  0
   -3.9960   -2.1940    1.4020 C   0  0  0  0  0  0  0  0  0  0  0  0
   -4.3710   -1.3890    2.5850 C   0  0  0  0  0  0  0  0  0  0  0  0
   -4.8640   -3.1680    1.0780 C   0  0  0  0  0  0  0  0  0  0  0  0
   -4.6480   -4.0510    0.0340 O   0  0  0  0  0  0  0  0  0  0  0  0
   -5.1170   -3.7710   -1.2390 C   0  0  0  0  0  0  0  0  0  0  0  0
   -5.7540   -2.7250   -1.5190 O   0  0  0  0  0  0  0  0  0  0  0  0
   -3.6360    0.1400   -0.1660 C   0  0  0  0  0  0  0  0  0  0  0  0
   -4.0450    1.0890    0.6950 C   0  0  0  0  0  0  0  0  0  0  0  0
   -5.1140    1.9610    0.4440 C   0  0  0  0  0  0  0  0  0  0  0  0
   -5.7970    1.8610   -0.7350 C   0  0  0  0  0  0  0  0  0  0  0  0
   -6.9520    2.7650   -1.0630 C   0  0  0  0  0  0  0  0  0  0  0  0
   -6.5270    3.9350   -1.6950 O   0  0  0  0  0  0  0  0  0  0  0  0
   -5.3800    0.8910   -1.6170 C   0  0  0  0  0  0  0  0  0  0  0  0
   -4.3600    0.0770   -1.3500 N   0  0  0  0  0  0  0  0  0  0  0  0
  1  2  1  0
  2  3  1  0
  3  4  1  0
  4  5  1  0
  4  6  1  0
  6  7  1  0
  7  8  1  0
  8  9  2  0
  8 10  1  0
 10 11  1  0
 11 12  1  0
 12 13  1  0
 13 14  1  1
 13 15  1  0
 15 16  1  6
 15 17  1  0
 17 18  1  0
 18 19  1  0
 18 26  1  0
 19 20  1  0
 20 21  1  0
 20 22  2  3
 22 23  1  0
 23 24  1  0
 24 25  2  0
 26 27  2  0
 26 33  1  0
 27 28  1  0
 28 29  2  0
 29 30  1  0
 29 32  1  0
 30 31  1  0
 32 33  2  0
M  END
