
     RDKit          3D

 33 35  0  0  0  0  0  0  0  0999 V2000
    6.0370    0.7510   -1.8770 N   0  0  0  0  0  0  0  0  0  0  0  0
    4.8860    0.4230   -1.1170 C   0  0  0  0  0  0  0  0  0  0  0  0
    4.8340   -0.3580   -0.0490 C   0  0  0  0  0  0  0  0  0  0  0  0
    5.9720   -1.0740    0.6000 C   0  0  0  0  0  0  0  0  0  0  0  0
    6.1820   -2.1540    1.0850 N   0  0  0  0  0  0  0  0  0  0  0  0
    7.2970   -2.5790    1.6300 C   0  0  0  0  0  0  0  0  0  0  0  0
    8.3440   -1.6790    1.6460 C   0  0  0  0  0  0  0  0  0  0  0  0
    7.5540   -0.2400    0.8270 S   0  0  0  0  0  0  0  0  0  0  0  0
    3.5230   -0.4180    0.3980 O   0  0  0  0  0  0  0  0  0  0  0  0
    2.7720    0.6350   -0.1710 C   0  0  2  0  0  0  0  0  0  0  0  0
    1.3240    0.3570   -0.3580 C   0  0  2  0  0  0  0  0  0  0  0  0
    0.7180    0.1650    1.0160 C   0  0  0  0  0  0  0  0  0  0  0  0
   -0.4770    1.1060    1.2060 C   0  0  0  0  0  0  0  0  0  0  0  0
   -1.6130    0.3170    1.2810 O   0  0  0  0  0  0  0  0  0  0  0  0
   -2.5860    0.6790    0.3190 C   0  0  2  0  0  0  0  0  0  0  0  0
   -3.0970    2.0250    0.7740 C   0  0  0  0  0  0  0  0  0  0  0  0
   -4.1520    2.6150   -0.1340 C   0  0  0  0  0  0  0  0  0  0  0  0
   -4.6950    4.2890    0.4840 P   0  0  0  0  0  0  0  0  0  0  0  0
   -6.4100    4.3540    0.6610 O   0  0  0  0  0  0  0  0  0  0  0  0
   -3.9610    4.6270    2.0180 O   0  0  0  0  0  0  0  0  0  0  0  0
   -3.7150   -0.3000    0.3280 C   0  0  0  0  0  0  0  0  0  0  0  0
   -3.3520   -1.7080   -0.0710 C   0  0  1  0  0  0  0  0  0  0  0  0
   -4.2570   -2.1380   -1.6300 P   0  0  0  0  0  0  0  0  0  0  0  0
   -5.8590   -1.4380   -1.4830 O   0  0  0  0  0  0  0  0  0  0  0  0
   -4.4580   -3.8810   -1.6450 O   0  0  0  0  0  0  0  0  0  0  0  0
   -1.8860   -1.8700   -0.1440 C   0  0  0  0  0  0  0  0  0  0  0  0
   -1.4230   -2.9510   -0.9410 O   0  0  0  0  0  0  0  0  0  0  0  0
   -0.0160   -3.0400   -1.0750 C   0  0  0  0  0  0  0  0  0  0  0  0
    0.3590   -4.1530   -1.5670 O   0  0  0  0  0  0  0  0  0  0  0  0
    0.8260   -2.0160   -0.7040 O   0  0  0  0  0  0  0  0  0  0  0  0
    1.0530   -0.7860   -1.3020 C   0  0  0  0  0  0  0  0  0  0  0  0
    3.5240    0.9130   -1.4160 C   0  0  0  0  0  0  0  0  0  0  0  0
    3.1240    1.4360   -2.4770 O   0  0  0  0  0  0  0  0  0  0  0  0
  1  2  1  0
  2  3  2  0
  2 32  1  0
  3  4  1  0
  3  9  1  0
  4  5  2  0
  4  8  1  0
  5  6  1  0
  6  7  2  0
  7  8  1  0
 10  9  1  6
 10 11  1  0
 10 32  1  0
 11 12  1  1
 11 31  1  0
 12 13  1  0
 13 14  1  0
 14 15  1  0
 15 16  1  1
 15 21  1  0
 16 17  1  0
 17 18  1  0
 18 19  1  0
 18 20  1  0
 21 22  1  0
 22 23  1  6
 22 26  1  0
 23 24  1  0
 23 25  1  0
 26 27  1  0
 27 28  1  0
 28 29  2  0
 28 30  1  0
 30 31  1  0
 32 33  2  0
M  END
