
     RDKit          3D

 34 34  0  0  0  0  0  0  0  0999 V2000
   10.0680   -2.4520    0.0410 C   0  0  0  0  0  0  0  0  0  0  0  0
    8.8990   -1.7180    0.6990 C   0  0  0  0  0  0  0  0  0  0  0  0
    8.6990   -0.5380   -0.0490 O   0  0  0  0  0  0  0  0  0  0  0  0
    7.7010    0.3770    0.2780 C   0  0  0  0  0  0  0  0  0  0  0  0
    6.9530    0.1380    1.2770 O   0  0  0  0  0  0  0  0  0  0  0  0
    7.5110    1.6130   -0.5270 C   0  0  0  0  0  0  0  0  0  0  0  0
    6.4260    2.3820    0.0130 N   0  0  0  0  0  0  0  0  0  0  0  0
    5.1040    1.8910    0.1140 C   0  0  0  0  0  0  0  0  0  0  0  0
    4.8260    0.7410   -0.2720 O   0  0  0  0  0  0  0  0  0  0  0  0
    4.0410    2.7540    0.6860 C   0  0  0  0  0  0  0  0  0  0  0  0
    2.7300    2.0390    0.6970 C   0  0  0  0  0  0  0  0  0  0  0  0
    2.6900    0.8820    0.2560 O   0  0  0  0  0  0  0  0  0  0  0  0
    1.5750    2.6850    1.2040 N   0  0  0  0  0  0  0  0  0  0  0  0
    0.2670    2.0710    1.2500 C   0  0  0  0  0  0  0  0  0  0  0  0
   -0.1640    1.7430   -0.1380 C   0  0  0  0  0  0  0  0  0  0  0  0
   -1.4230    1.1400   -0.2480 O   0  0  0  0  0  0  0  0  0  0  0  0
   -1.6930   -0.0740    0.3490 C   0  0  0  0  0  0  0  0  0  0  0  0
   -0.7650   -0.6230    0.9950 O   0  0  0  0  0  0  0  0  0  0  0  0
   -2.9950   -0.7210    0.2520 N   0  0  0  0  0  0  0  0  0  0  0  0
   -3.1780   -1.9830    0.9070 C   0  0  0  0  0  0  0  0  0  0  0  0
   -3.6300   -1.9260    2.3190 C   0  0  0  0  0  0  0  0  0  0  0  0
   -4.9510   -1.2770    2.5120 C   0  0  2  0  0  0  0  0  0  0  0  0
   -5.1940   -1.2980    3.9720 N   0  0  0  0  0  0  0  0  0  0  0  0
   -6.3580   -2.1710    1.6720 P   0  0  0  0  0  0  0  0  0  0  0  0
   -6.7470   -3.6420    2.4900 O   0  0  0  0  0  0  0  0  0  0  0  0
   -6.0320   -2.5330    0.0200 O   0  0  0  0  0  0  0  0  0  0  0  0
   -3.9630   -0.0100   -0.5290 C   0  0  0  0  0  0  0  0  0  0  0  0
   -3.9090   -0.4190   -1.9740 C   0  0  0  0  0  0  0  0  0  0  0  0
   -3.0170   -1.3690   -2.4360 C   0  0  0  0  0  0  0  0  0  0  0  0
   -2.9600   -1.7500   -3.7520 C   0  0  0  0  0  0  0  0  0  0  0  0
   -3.8070   -1.1860   -4.6710 C   0  0  0  0  0  0  0  0  0  0  0  0
   -4.7050   -0.2370   -4.2340 C   0  0  0  0  0  0  0  0  0  0  0  0
   -4.7560    0.1420   -2.9020 C   0  0  0  0  0  0  0  0  0  0  0  0
   -5.7410    1.1780   -2.4450 C   0  0  0  0  0  0  0  0  0  0  0  0
  1  2  1  0
  2  3  1  0
  3  4  1  0
  4  5  2  0
  4  6  1  0
  6  7  1  0
  7  8  1  0
  8  9  2  0
  8 10  1  0
 10 11  1  0
 11 12  2  0
 11 13  1  0
 13 14  1  0
 14 15  1  0
 15 16  1  0
 16 17  1  0
 17 18  2  0
 17 19  1  0
 19 20  1  0
 19 27  1  0
 20 21  1  0
 21 22  1  0
 22 23  1  1
 22 24  1  0
 24 25  1  0
 24 26  1  0
 27 28  1  0
 28 29  2  0
 28 33  1  0
 29 30  1  0
 30 31  2  0
 31 32  1  0
 32 33  2  0
 33 34  1  0
M  END
