
     RDKit          3D

 34 35  0  0  0  0  0  0  0  0999 V2000
   -2.1750   -3.7920    0.1200 C   0  0  0  0  0  0  0  0  0  0  0  0
   -2.0270   -2.6550   -0.8150 N   0  0  0  0  0  0  0  0  0  0  0  0
   -2.7870   -2.5420   -1.9690 C   0  0  0  0  0  0  0  0  0  0  0  0
   -3.6300   -3.4730   -2.2030 O   0  0  0  0  0  0  0  0  0  0  0  0
   -2.7170   -1.4660   -2.9420 C   0  0  0  0  0  0  0  0  0  0  0  0
   -1.9420   -0.3910   -2.7180 O   0  0  0  0  0  0  0  0  0  0  0  0
   -2.1650    0.4440   -1.6880 C   0  0  2  0  0  0  0  0  0  0  0  0
   -2.7190    1.7730   -2.2060 C   0  0  0  0  0  0  0  0  0  0  0  0
   -3.1720    2.6600   -1.1760 N   0  0  0  0  0  0  0  0  0  0  0  0
   -4.3070    3.4300   -1.6250 C   0  0  0  0  0  0  0  0  0  0  0  0
   -4.9600    4.4270   -0.7400 C   0  0  0  0  0  0  0  0  0  0  0  0
   -4.8020    3.3020   -2.7790 O   0  0  0  0  0  0  0  0  0  0  0  0
   -2.7960    2.9960    0.1710 C   0  0  0  0  0  0  0  0  0  0  0  0
   -2.3550    1.8770    1.0460 C   0  0  0  0  0  0  0  0  0  0  0  0
   -1.1150    1.3450    0.4950 N   0  0  0  0  0  0  0  0  0  0  0  0
    0.0720    1.4140    1.2760 C   0  0  0  0  0  0  0  0  0  0  0  0
    0.3940    2.5470    1.9870 C   0  0  0  0  0  0  0  0  0  0  0  0
    1.5300    2.6520    2.7480 C   0  0  0  0  0  0  0  0  0  0  0  0
    2.4490    1.5910    2.8500 C   0  0  0  0  0  0  0  0  0  0  0  0
    3.6470    1.7650    3.6600 C   0  0  0  0  0  0  0  0  0  0  0  0
    4.5640    0.9710    3.8550 O   0  0  0  0  0  0  0  0  0  0  0  0
    3.7870    3.0110    4.3160 O   0  0  0  0  0  0  0  0  0  0  0  0
    2.1350    0.4590    2.1440 C   0  0  0  0  0  0  0  0  0  0  0  0
    2.9920   -0.6760    2.2190 N   0  0  0  0  0  0  0  0  0  0  0  0
    2.8070   -1.8460    1.3830 C   0  0  2  0  0  0  0  0  0  0  0  0
    3.7510   -2.9340    1.9280 C   0  0  0  0  0  0  0  0  0  0  0  0
    3.1850   -1.5940   -0.0640 C   0  0  0  0  0  0  0  0  0  0  0  0
    2.9410   -2.8750   -0.8200 C   0  0  0  0  0  0  0  0  0  0  0  0
    3.3680   -2.6930   -2.6160 P   0  0  0  0  0  0  0  0  0  0  0  0
    4.2170   -1.2280   -2.8950 O   0  0  0  0  0  0  0  0  0  0  0  0
    4.2380   -4.0840   -3.1510 O   0  0  0  0  0  0  0  0  0  0  0  0
    0.9620    0.3730    1.3680 C   0  0  0  0  0  0  0  0  0  0  0  0
   -1.0150    0.7480   -0.8050 C   0  0  0  0  0  0  0  0  0  0  0  0
    0.1360    0.4820   -1.1810 O   0  0  0  0  0  0  0  0  0  0  0  0
  1  2  1  0
  2  3  1  0
  3  4  2  0
  3  5  1  0
  5  6  1  0
  7  6  1  6
  7  8  1  0
  7 33  1  0
  8  9  1  0
  9 10  1  0
  9 13  1  0
 10 11  1  0
 10 12  2  0
 13 14  1  0
 14 15  1  0
 15 16  1  0
 15 33  1  0
 16 17  2  0
 16 32  1  0
 17 18  1  0
 18 19  2  0
 19 20  1  0
 19 23  1  0
 20 21  2  0
 20 22  1  0
 23 24  1  0
 23 32  2  0
 24 25  1  0
 25 26  1  1
 25 27  1  0
 27 28  1  0
 28 29  1  0
 29 30  1  0
 29 31  1  0
 33 34  2  0
M  END
