
     RDKit          3D

 33 35  0  0  0  0  0  0  0  0999 V2000
    7.5540    3.1750   -0.1040 C   0  0  0  0  0  0  0  0  0  0  0  0
    7.1670    2.0870    0.6640 O   0  0  0  0  0  0  0  0  0  0  0  0
    6.3730    0.8490   -0.2830 P   0  0  0  0  0  0  0  0  0  0  0  0
    7.0620   -0.7050    0.1470 O   0  0  0  0  0  0  0  0  0  0  0  0
    4.5520    0.8760    0.1300 C   0  0  0  0  0  0  0  0  0  0  0  0
    4.2400   -0.3230    0.9610 C   0  0  0  0  0  0  0  0  0  0  0  0
    2.8430   -0.3940    1.4430 C   0  0  0  0  0  0  0  0  0  0  0  0
    1.7770   -0.4130    0.5160 N   0  0  0  0  0  0  0  0  0  0  0  0
    1.6180   -1.5690   -0.2920 C   0  0  2  0  0  0  0  0  0  0  0  0
    1.7960   -1.3580   -1.7660 C   0  0  0  0  0  0  0  0  0  0  0  0
    0.8010   -0.2930   -2.1730 C   0  0  0  0  0  0  0  0  0  0  0  0
   -0.3900   -0.1570   -1.3040 C   0  0  0  0  0  0  0  0  0  0  0  0
   -0.8300   -1.4610   -0.7140 C   0  0  2  0  0  0  0  0  0  0  0  0
    0.2820   -2.2540   -0.0790 C   0  0  0  0  0  0  0  0  0  0  0  0
   -1.2900   -2.2420   -1.7720 O   0  0  0  0  0  0  0  0  0  0  0  0
   -2.8580   -1.6880   -2.0920 S   0  0  2  0  0  0  0  0  0  0  0  0
   -3.7250   -2.9010   -2.2910 O   0  0  0  0  0  0  0  0  0  0  0  0
   -2.9230   -0.7650   -3.2460 O   0  0  0  0  0  0  0  0  0  0  0  0
   -3.1970   -0.8950   -0.5410 C   0  0  2  0  0  0  0  0  0  0  0  0
   -3.5130    0.5060   -0.6360 C   0  0  0  0  0  0  0  0  0  0  0  0
   -2.8820    1.4760   -0.2080 O   0  0  0  0  0  0  0  0  0  0  0  0
   -4.7380    0.8140   -1.3420 N   0  0  0  0  0  0  0  0  0  0  0  0
   -5.1080    2.2340   -1.4690 C   0  0  0  0  0  0  0  0  0  0  0  0
   -5.1900    2.8520    0.3010 P   0  0  0  0  0  0  0  0  0  0  0  0
   -3.8400    3.8860    0.6680 O   0  0  0  0  0  0  0  0  0  0  0  0
   -6.6330    3.7500    0.5780 O   0  0  0  0  0  0  0  0  0  0  0  0
   -1.9900   -1.2950    0.2580 C   0  0  2  0  0  0  0  0  0  0  0  0
   -1.6520   -0.3980    1.3800 C   0  0  0  0  0  0  0  0  0  0  0  0
   -2.8560   -0.3870    2.3390 C   0  0  0  0  0  0  0  0  0  0  0  0
   -2.8150   -1.7300    2.9680 C   0  0  0  0  0  0  0  0  0  0  0  0
   -3.2670   -1.9780    4.1070 O   0  0  0  0  0  0  0  0  0  0  0  0
   -2.2370   -2.7470    2.2280 O   0  0  0  0  0  0  0  0  0  0  0  0
   -2.2770   -2.6810    0.8190 C   0  0  0  0  0  0  0  0  0  0  0  0
  1  2  1  0
  2  3  1  0
  3  4  1  0
  3  5  1  0
  5  6  1  0
  6  7  1  0
  7  8  1  0
  9  8  1  1
  9 10  1  0
  9 14  1  0
 10 11  1  0
 11 12  1  0
 13 12  1  6
 13 14  1  0
 13 15  1  0
 13 27  1  0
 16 15  1  1
 16 17  2  0
 16 18  2  0
 16 19  1  0
 19 20  1  6
 19 27  1  0
 20 21  2  0
 20 22  1  0
 22 23  1  0
 23 24  1  0
 24 25  1  0
 24 26  1  0
 27 28  1  1
 27 33  1  0
 28 29  1  0
 29 30  1  0
 30 31  2  0
 30 32  1  0
 32 33  1  0
M  END
