
     RDKit          3D

 33 34  0  0  0  0  0  0  0  0999 V2000
    2.0150    5.6420    0.9740 C   0  0  0  0  0  0  0  0  0  0  0  0
    1.1540    4.7640    0.1300 C   0  0  0  0  0  0  0  0  0  0  0  0
    1.0040    3.3700    0.7580 C   0  0  0  0  0  0  0  0  0  0  0  0
    0.1290    2.5580   -0.1410 C   0  0  0  0  0  0  0  0  0  0  0  0
   -0.2010    1.1690    0.2760 C   0  0  1  0  0  0  0  0  0  0  0  0
   -1.0660    0.6180   -0.7760 N   0  0  0  0  0  0  0  0  0  0  0  0
   -2.2790    1.3090   -1.0180 C   0  0  0  0  0  0  0  0  0  0  0  0
   -3.4120    0.7360   -0.6100 C   0  0  0  0  0  0  0  0  0  0  0  0
   -4.7220    1.3810   -0.8170 C   0  0  0  0  0  0  0  0  0  0  0  0
   -5.8710    0.5670   -0.3600 C   0  0  0  0  0  0  0  0  0  0  0  0
   -6.9500    1.1650   -0.0260 O   0  0  0  0  0  0  0  0  0  0  0  0
   -5.8020   -0.8480   -0.2870 N   0  0  0  0  0  0  0  0  0  0  0  0
   -6.9290   -1.6750   -0.1210 C   0  0  0  0  0  0  0  0  0  0  0  0
   -8.0540   -1.1230   -0.0370 O   0  0  0  0  0  0  0  0  0  0  0  0
   -6.8210   -3.0500   -0.0500 O   0  0  0  0  0  0  0  0  0  0  0  0
   -7.9400   -3.9070    0.1200 C   0  0  0  0  0  0  0  0  0  0  0  0
   -4.4780   -1.4070   -0.3930 C   0  0  0  0  0  0  0  0  0  0  0  0
   -4.2890   -2.5450   -0.8550 O   0  0  0  0  0  0  0  0  0  0  0  0
   -3.3410   -0.5790    0.0680 C   0  0  2  0  0  0  0  0  0  0  0  0
   -3.4040   -0.4390    1.5920 C   0  0  0  0  0  0  0  0  0  0  0  0
    0.8510    0.3690    0.6390 N   0  0  0  0  0  0  0  0  0  0  0  0
    1.6440    0.5030    1.7600 C   0  0  0  0  0  0  0  0  0  0  0  0
    3.0600    0.2580    1.3090 C   0  0  0  0  0  0  0  0  0  0  0  0
    2.8920   -0.4910    0.0160 C   0  0  1  0  0  0  0  0  0  0  0  0
    3.5310   -1.8140    0.0300 C   0  0  0  0  0  0  0  0  0  0  0  0
    2.8140   -2.8310   -0.1300 O   0  0  0  0  0  0  0  0  0  0  0  0
    4.9250   -1.9250    0.2190 N   0  0  0  0  0  0  0  0  0  0  0  0
    5.8080   -0.7970    0.4190 C   0  0  0  0  0  0  0  0  0  0  0  0
    5.5070   -3.2640    0.2030 C   0  0  0  0  0  0  0  0  0  0  0  0
    6.0170   -3.7320   -1.5210 P   0  0  0  0  0  0  0  0  0  0  0  0
    7.2270   -2.6720   -2.1300 O   0  0  0  0  0  0  0  0  0  0  0  0
    6.6800   -5.3430   -1.4510 O   0  0  0  0  0  0  0  0  0  0  0  0
    1.3860   -0.6140   -0.1990 C   0  0  0  0  0  0  0  0  0  0  0  0
  1  2  1  0
  2  3  1  0
  3  4  1  0
  5  4  1  6
  5  6  1  0
  5 21  1  0
  6  7  1  0
  7  8  2  3
  8  9  1  0
  8 19  1  0
  9 10  1  0
 10 11  2  0
 10 12  1  0
 12 13  1  0
 12 17  1  0
 13 14  2  0
 13 15  1  0
 15 16  1  0
 17 18  2  0
 17 19  1  0
 19 20  1  1
 21 22  1  0
 21 33  1  0
 22 23  1  0
 23 24  1  0
 24 25  1  1
 24 33  1  0
 25 26  2  0
 25 27  1  0
 27 28  1  0
 27 29  1  0
 29 30  1  0
 30 31  1  0
 30 32  1  0
M  END
