
     RDKit          3D

 33 35  0  0  0  0  0  0  0  0999 V2000
    6.1600   -3.1050   -2.0870 C   0  0  0  0  0  0  0  0  0  0  0  0
    4.9660   -2.6700   -1.4900 O   0  0  0  0  0  0  0  0  0  0  0  0
    4.9800   -2.9710   -0.1350 C   0  0  0  0  0  0  0  0  0  0  0  0
    3.7400   -2.5380    0.5730 C   0  0  0  0  0  0  0  0  0  0  0  0
    3.5300   -1.0240    0.4650 C   0  0  0  0  0  0  0  0  0  0  0  0
    2.3070   -0.6420    1.1700 N   0  0  0  0  0  0  0  0  0  0  0  0
    2.4190   -0.3030    2.5450 C   0  0  0  0  0  0  0  0  0  0  0  0
    3.5140   -0.3220    3.1490 O   0  0  0  0  0  0  0  0  0  0  0  0
    1.2260    0.0570    3.1980 O   0  0  0  0  0  0  0  0  0  0  0  0
    0.0040   -0.4760    2.6660 C   0  0  0  0  0  0  0  0  0  0  0  0
   -0.0940   -0.0030    1.2370 C   0  0  1  0  0  0  0  0  0  0  0  0
   -1.4220   -0.4330    0.6580 C   0  0  0  0  0  0  0  0  0  0  0  0
   -1.5970   -1.8480    0.6590 N   0  0  0  0  0  0  0  0  0  0  0  0
   -2.8960   -2.2040    0.0930 C   0  0  1  0  0  0  0  0  0  0  0  0
   -4.0140   -1.6480    0.9160 C   0  0  0  0  0  0  0  0  0  0  0  0
   -2.9640   -1.9520   -1.3690 C   0  0  0  0  0  0  0  0  0  0  0  0
   -4.2530   -2.3010   -2.0420 C   0  0  0  0  0  0  0  0  0  0  0  0
   -5.7280   -1.3990   -1.4420 P   0  0  0  0  0  0  0  0  0  0  0  0
   -6.3760   -0.2820   -2.6030 O   0  0  0  0  0  0  0  0  0  0  0  0
   -6.9810   -2.4980   -0.8970 O   0  0  0  0  0  0  0  0  0  0  0  0
   -0.0250    1.4760    1.1750 C   0  0  0  0  0  0  0  0  0  0  0  0
   -0.2260    2.2190    2.3120 C   0  0  0  0  0  0  0  0  0  0  0  0
   -0.1620    3.6150    2.2670 C   0  0  0  0  0  0  0  0  0  0  0  0
   -0.3440    4.3060    3.3040 O   0  0  0  0  0  0  0  0  0  0  0  0
    0.0990    4.2000    1.0900 N   0  0  0  0  0  0  0  0  0  0  0  0
    0.2940    3.4710   -0.0190 C   0  0  0  0  0  0  0  0  0  0  0  0
    0.5810    4.2150   -1.2900 C   0  0  2  0  0  0  0  0  0  0  0  0
    1.5230    5.3540   -1.1210 C   0  0  0  0  0  0  0  0  0  0  0  0
    0.0210    5.5540   -1.4990 C   0  0  1  0  0  0  0  0  0  0  0  0
   -0.1960    5.9840   -2.8100 O   0  0  0  0  0  0  0  0  0  0  0  0
    0.2330    2.1370    0.0260 N   0  0  0  0  0  0  0  0  0  0  0  0
    1.0480   -0.6130    0.5040 C   0  0  0  0  0  0  0  0  0  0  0  0
    0.9790   -1.0980   -0.6490 O   0  0  0  0  0  0  0  0  0  0  0  0
  1  2  1  0
  2  3  1  0
  3  4  1  0
  4  5  1  0
  5  6  1  0
  6  7  1  0
  6 32  1  0
  7  8  2  0
  7  9  1  0
  9 10  1  0
 10 11  1  0
 11 12  1  6
 11 21  1  0
 11 32  1  0
 12 13  1  0
 13 14  1  0
 14 15  1  1
 14 16  1  0
 16 17  1  0
 17 18  1  0
 18 19  1  0
 18 20  1  0
 21 22  2  0
 21 31  1  0
 22 23  1  0
 23 24  2  0
 23 25  1  0
 25 26  1  0
 27 26  1  1
 26 31  2  0
 27 28  1  0
 27 29  1  0
 28 29  1  0
 29 30  1  6
 32 33  2  0
M  END
