
     RDKit          3D

  9  8  0  0  0  0  0  0  0  0999 V2000
   -2.8820   -0.2260    0.0990 N   0  0  0  0  0  0  0  0  0  0  0  0
   -2.1200    0.3640    1.1570 C   0  0  0  0  0  0  0  0  0  0  0  0
   -0.7700    0.8330    0.7230 C   0  0  2  0  0  0  0  0  0  0  0  0
   -0.8480    1.7970   -0.2800 O   0  0  0  0  0  0  0  0  0  0  0  0
    0.1050   -0.3350    0.3070 C   0  0  0  0  0  0  0  0  0  0  0  0
    1.4750    0.1860   -0.1300 C   0  0  1  0  0  0  0  0  0  0  0  0
    2.0910    0.8640    0.9170 O   0  0  0  0  0  0  0  0  0  0  0  0
    2.3530   -0.9740   -0.5370 C   0  0  0  0  0  0  0  0  0  0  0  0
    3.5860   -0.5290   -0.9470 O   0  0  0  0  0  0  0  0  0  0  0  0
  1  2  1  0
  2  3  1  0
  3  4  1  6
  3  5  1  0
  5  6  1  0
  6  7  1  1
  6  8  1  0
  8  9  1  0
M  CHG  1   1   1
M  END
