
     RDKit          3D

  9  8  0  0  0  0  0  0  0  0999 V2000
   -2.0390   -1.2400   -0.2420 N   0  0  0  0  0  0  0  0  0  0  0  0
   -1.4770   -0.1780    0.5610 C   0  0  0  0  0  0  0  0  0  0  0  0
   -0.1720    0.3120   -0.0290 C   0  0  1  0  0  0  0  0  0  0  0  0
   -0.4410    0.7820   -1.3070 O   0  0  0  0  0  0  0  0  0  0  0  0
    0.2800    1.4880    0.8020 C   0  0  0  0  0  0  0  0  0  0  0  0
   -0.7600    2.4160    0.8090 O   0  0  0  0  0  0  0  0  0  0  0  0
    0.8640   -0.7890   -0.0600 C   0  0  0  0  0  0  0  0  0  0  0  0
    2.1680   -0.3440   -0.6360 C   0  0  0  0  0  0  0  0  0  0  0  0
    3.0360   -1.4400   -0.6120 O   0  0  0  0  0  0  0  0  0  0  0  0
  1  2  1  0
  2  3  1  0
  3  4  1  6
  3  5  1  0
  3  7  1  0
  5  6  1  0
  7  8  1  0
  8  9  1  0
M  CHG  1   1   1
M  END
