
     RDKit          3D

  9  9  0  0  0  0  0  0  0  0999 V2000
   -1.8530   -0.6800    0.9770 N   0  0  0  0  0  0  0  0  0  0  0  0
   -1.0740    0.2560    0.2100 C   0  0  2  0  0  0  0  0  0  0  0  0
   -0.6400   -0.3160   -1.1340 C   0  0  0  0  0  0  0  0  0  0  0  0
    0.6750    0.4460   -1.3400 C   0  0  2  0  0  0  0  0  0  0  0  0
    1.3990   -0.0260   -2.3970 O   0  0  0  0  0  0  0  0  0  0  0  0
    1.3320    0.1390    0.0130 C   0  0  2  0  0  0  0  0  0  0  0  0
    1.3880   -1.2240    0.1330 O   0  0  0  0  0  0  0  0  0  0  0  0
    0.2070    0.6340    0.9320 C   0  0  2  0  0  0  0  0  0  0  0  0
    0.2830    0.0930    2.1890 O   0  0  0  0  0  0  0  0  0  0  0  0
  2  1  1  1
  2  3  1  0
  2  8  1  0
  3  4  1  0
  4  5  1  6
  4  6  1  0
  6  7  1  6
  6  8  1  0
  8  9  1  1
M  CHG  1   1   1
M  END
