
     RDKit          3D

  8  7  0  0  0  0  0  0  0  0999 V2000
   -2.9810    0.1200    0.1630 N   0  0  0  0  0  0  0  0  0  0  0  0
   -1.8610   -0.5590   -0.5100 C   0  0  0  0  0  0  0  0  0  0  0  0
   -0.6420    0.1860   -0.1260 C   0  0  0  0  0  0  0  0  0  0  0  0
   -0.5080    1.5240   -0.4320 O   0  0  0  0  0  0  0  0  0  0  0  0
    0.3210   -0.4260    0.5110 C   0  0  0  0  0  0  0  0  0  0  0  0
    1.5430    0.3140    0.8970 C   0  0  0  0  0  0  0  0  0  0  0  0
    2.7450   -0.3270    0.2430 C   0  0  0  0  0  0  0  0  0  0  0  0
    2.6270   -0.3050   -1.1340 O   0  0  0  0  0  0  0  0  0  0  0  0
  1  2  1  0
  2  3  1  0
  3  4  1  0
  3  5  2  3
  5  6  1  0
  6  7  1  0
  7  8  1  0
M  CHG  1   1   1
M  END
