
     RDKit          3D

  8  8  0  0  0  0  0  0  0  0999 V2000
   -0.7750   -1.6550    0.3320 N   0  0  0  0  0  0  0  0  0  0  0  0
   -0.6000   -0.4920   -0.5130 C   0  0  1  0  0  0  0  0  0  0  0  0
   -1.7240    0.4960   -0.3560 C   0  0  0  0  0  0  0  0  0  0  0  0
   -1.2230    1.7390   -0.1260 O   0  0  0  0  0  0  0  0  0  0  0  0
    0.1330    1.6680    0.1160 C   0  0  0  0  0  0  0  0  0  0  0  0
    0.5770    0.3020   -0.1400 C   0  0  0  0  0  0  0  0  0  0  0  0
    1.8080   -0.1370   -0.0540 C   0  0  0  0  0  0  0  0  0  0  0  0
    2.8850    0.6680    0.3060 O   0  0  0  0  0  0  0  0  0  0  0  0
  2  1  1  1
  2  3  1  0
  2  6  1  0
  3  4  1  0
  4  5  1  0
  5  6  1  0
  6  7  2  3
  7  8  1  0
M  CHG  1   1   1
M  END
