
     RDKit          3D

  9  8  0  0  0  0  0  0  0  0999 V2000
   -1.3740   -1.4270   -0.3040 C   0  0  0  0  0  0  0  0  0  0  0  0
   -0.9550   -0.1100    0.3340 C   0  0  2  0  0  0  0  0  0  0  0  0
   -1.8820    0.8900   -0.1700 N   0  0  0  0  0  0  0  0  0  0  0  0
    0.4560    0.1640   -0.0490 C   0  0  1  0  0  0  0  0  0  0  0  0
    0.6280    0.1830   -1.4330 O   0  0  0  0  0  0  0  0  0  0  0  0
    0.9580    1.4910    0.4900 C   0  0  0  0  0  0  0  0  0  0  0  0
    2.3040    1.5920    0.1430 O   0  0  0  0  0  0  0  0  0  0  0  0
    1.3470   -0.9060    0.5300 C   0  0  0  0  0  0  0  0  0  0  0  0
    1.0870   -2.1740    0.0470 O   0  0  0  0  0  0  0  0  0  0  0  0
  2  1  1  6
  2  3  1  0
  2  4  1  0
  4  5  1  6
  4  6  1  0
  4  8  1  0
  6  7  1  0
  8  9  1  0
M  CHG  1   3   1
M  END
