
     RDKit          3D

  8  8  0  0  0  0  0  0  0  0999 V2000
    2.5380    0.1970   -0.4490 N   0  0  0  0  0  0  0  0  0  0  0  0
    1.1490    0.2030   -0.1380 C   0  0  0  0  0  0  0  0  0  0  0  0
    0.2760    1.1590   -0.3730 C   0  0  0  0  0  0  0  0  0  0  0  0
   -1.0550    0.7520    0.1110 C   0  0  1  0  0  0  0  0  0  0  0  0
   -2.0890    1.2230   -0.6740 O   0  0  0  0  0  0  0  0  0  0  0  0
   -0.9500   -0.7520    0.0870 C   0  0  2  0  0  0  0  0  0  0  0  0
   -1.8700   -1.3840    0.8860 O   0  0  0  0  0  0  0  0  0  0  0  0
    0.4830   -0.9610    0.5380 C   0  0  0  0  0  0  0  0  0  0  0  0
  1  2  1  0
  2  3  2  0
  2  8  1  0
  3  4  1  0
  4  5  1  6
  4  6  1  0
  6  7  1  1
  6  8  1  0
M  END
