
     RDKit          3D

 17 19  0  0  0  0  0  0  0  0999 V2000
   -3.0280    1.5660   -0.1040 C   0  0  0  0  0  0  0  0  0  0  0  0
   -3.0270    0.0940    0.0130 C   0  0  0  0  0  0  0  0  0  0  0  0
   -4.2480   -0.5580    0.1000 N   0  0  0  0  0  0  0  0  0  0  0  0
   -4.3580   -1.8820    0.1720 C   0  0  0  0  0  0  0  0  0  0  0  0
   -3.2030   -2.5700    0.1560 N   0  0  0  0  0  0  0  0  0  0  0  0
   -2.0370   -1.9840    0.0750 N   0  0  0  0  0  0  0  0  0  0  0  0
   -1.8800   -0.6100    0.0000 C   0  0  0  0  0  0  0  0  0  0  0  0
   -0.5360   -0.0690   -0.0300 C   0  0  0  0  0  0  0  0  0  0  0  0
    0.4190   -1.0190   -0.2100 C   0  0  0  0  0  0  0  0  0  0  0  0
    1.8640   -0.9360   -0.3020 C   0  0  0  0  0  0  0  0  0  0  0  0
    2.6910   -2.0640   -0.3800 C   0  0  0  0  0  0  0  0  0  0  0  0
    3.9870   -1.6360   -0.4600 C   0  0  0  0  0  0  0  0  0  0  0  0
    3.9650   -0.2780   -0.4320 C   0  0  0  0  0  0  0  0  0  0  0  0
    2.6890    0.1120   -0.3380 N   0  0  0  0  0  0  0  0  0  0  0  0
    2.2540    1.5160   -0.2780 C   0  0  0  0  0  0  0  0  0  0  0  0
    1.1790    1.5400    0.7750 C   0  0  0  0  0  0  0  0  0  0  0  0
   -0.2070    1.3370    0.1590 C   0  0  0  0  0  0  0  0  0  0  0  0
  1  2  1  0
  2  3  2  0
  2  7  1  0
  3  4  1  0
  4  5  2  0
  5  6  1  0
  6  7  2  0
  7  8  1  0
  8  9  2  0
  8 17  1  0
  9 10  1  0
 10 11  2  0
 10 14  1  0
 11 12  1  0
 12 13  2  0
 13 14  1  0
 14 15  1  0
 15 16  1  0
 16 17  1  0
M  END
