
     RDKit          3D

 17 19  0  0  0  0  0  0  0  0999 V2000
    3.9640    1.5050    0.7140 C   0  0  0  0  0  0  0  0  0  0  0  0
    3.1600    0.5120   -0.0730 C   0  0  0  0  0  0  0  0  0  0  0  0
    3.7530   -0.2630   -1.0500 C   0  0  0  0  0  0  0  0  0  0  0  0
    3.0060   -1.1560   -1.7510 N   0  0  0  0  0  0  0  0  0  0  0  0
    1.6790   -1.2820   -1.4850 C   0  0  0  0  0  0  0  0  0  0  0  0
    0.8640   -2.2150   -2.2060 C   0  0  0  0  0  0  0  0  0  0  0  0
    0.1860   -2.9670   -2.8090 N   0  0  0  0  0  0  0  0  0  0  0  0
    1.1000   -0.5040   -0.5090 C   0  0  0  0  0  0  0  0  0  0  0  0
   -0.2880   -0.6630   -0.2600 N   0  0  0  0  0  0  0  0  0  0  0  0
   -1.4060   -0.4700   -1.1590 C   0  0  0  0  0  0  0  0  0  0  0  0
   -2.3920    0.1960   -0.2700 C   0  0  0  0  0  0  0  0  0  0  0  0
   -3.4500    0.9860   -0.2230 C   0  0  0  0  0  0  0  0  0  0  0  0
   -3.8360    1.1580    1.1830 C   0  0  0  0  0  0  0  0  0  0  0  0
   -2.8780    0.3730    1.9630 C   0  0  0  0  0  0  0  0  0  0  0  0
   -2.0510   -0.1740    1.0950 C   0  0  0  0  0  0  0  0  0  0  0  0
   -0.8530   -1.0670    1.0110 C   0  0  0  0  0  0  0  0  0  0  0  0
    1.8460    0.3810    0.1830 N   0  0  0  0  0  0  0  0  0  0  0  0
  1  2  1  0
  2  3  2  0
  2 17  1  0
  3  4  1  0
  4  5  2  0
  5  6  1  0
  5  8  1  0
  6  7  3  0
  8  9  1  0
  8 17  2  0
  9 10  1  0
  9 16  1  0
 10 11  1  0
 11 12  2  0
 11 15  1  0
 12 13  1  0
 13 14  1  0
 14 15  2  0
 15 16  1  0
M  END
