
     RDKit          3D

 17 19  0  0  0  0  0  0  0  0999 V2000
   -2.9140    1.7190    0.7900 C   0  0  0  0  0  0  0  0  0  0  0  0
   -2.7560    0.6330   -0.2580 C   0  0  2  0  0  0  0  0  0  0  0  0
   -4.1780    0.3030   -0.7330 C   0  0  0  0  0  0  0  0  0  0  0  0
   -2.1140   -0.5420    0.2460 N   0  0  0  0  0  0  0  0  0  0  0  0
   -2.7780   -1.6000    0.7040 N   0  0  0  0  0  0  0  0  0  0  0  0
   -1.9150   -2.5320    1.1030 C   0  0  0  0  0  0  0  0  0  0  0  0
   -0.6560   -2.0270    0.8810 C   0  0  0  0  0  0  0  0  0  0  0  0
    0.5920   -2.5570    1.1050 C   0  0  0  0  0  0  0  0  0  0  0  0
    1.6520   -1.8190    0.7840 N   0  0  0  0  0  0  0  0  0  0  0  0
    1.5280   -0.5900    0.2550 C   0  0  0  0  0  0  0  0  0  0  0  0
    2.7520    0.1500   -0.0680 C   0  0  0  0  0  0  0  0  0  0  0  0
    3.9850   -0.2600    0.1050 C   0  0  0  0  0  0  0  0  0  0  0  0
    4.9290    0.7680   -0.3410 C   0  0  0  0  0  0  0  0  0  0  0  0
    4.0370    1.8520   -0.8060 C   0  0  0  0  0  0  0  0  0  0  0  0
    2.7770    1.5090   -0.6540 C   0  0  0  0  0  0  0  0  0  0  0  0
    0.3150   -0.0460    0.0250 N   0  0  0  0  0  0  0  0  0  0  0  0
   -0.7810   -0.7570    0.3340 C   0  0  0  0  0  0  0  0  0  0  0  0
  2  1  1  1
  2  3  1  0
  2  4  1  0
  4  5  1  0
  4 17  1  0
  5  6  2  0
  6  7  1  0
  7  8  2  0
  7 17  1  0
  8  9  1  0
  9 10  2  0
 10 11  1  0
 10 16  1  0
 11 12  2  0
 11 15  1  0
 12 13  1  0
 13 14  1  0
 14 15  2  0
 16 17  2  0
M  END
