
     RDKit          3D

 17 19  0  0  0  0  0  0  0  0999 V2000
   -4.7220   -1.9240    0.1480 C   0  0  0  0  0  0  0  0  0  0  0  0
   -3.8750   -0.7150   -0.0290 C   0  0  0  0  0  0  0  0  0  0  0  0
   -4.4870    0.4950   -0.2330 C   0  0  0  0  0  0  0  0  0  0  0  0
   -3.7310    1.6330   -0.4000 C   0  0  0  0  0  0  0  0  0  0  0  0
   -2.3420    1.5220   -0.3560 C   0  0  0  0  0  0  0  0  0  0  0  0
   -1.7560    0.2910   -0.1490 C   0  0  0  0  0  0  0  0  0  0  0  0
   -0.2860    0.2120   -0.1080 C   0  0  0  0  0  0  0  0  0  0  0  0
    0.5840    1.2220   -0.2520 N   0  0  0  0  0  0  0  0  0  0  0  0
    1.8470    0.7700   -0.1560 C   0  0  0  0  0  0  0  0  0  0  0  0
    1.7660   -0.5410    0.0510 N   0  0  0  0  0  0  0  0  0  0  0  0
    0.4680   -0.8850    0.0810 N   0  0  0  0  0  0  0  0  0  0  0  0
    2.8150   -1.4530    0.2160 C   0  0  0  0  0  0  0  0  0  0  0  0
    4.0990   -1.2410   -0.0170 C   0  0  0  0  0  0  0  0  0  0  0  0
    4.8960   -0.1240   -0.4850 C   0  0  0  0  0  0  0  0  0  0  0  0
    4.2580    1.1970   -0.4020 C   0  0  0  0  0  0  0  0  0  0  0  0
    3.0200    1.6110   -0.2680 C   0  0  0  0  0  0  0  0  0  0  0  0
   -2.5220   -0.7770    0.0070 N   0  0  0  0  0  0  0  0  0  0  0  0
  1  2  1  0
  2  3  2  0
  2 17  1  0
  3  4  1  0
  4  5  2  0
  5  6  1  0
  6  7  1  0
  6 17  2  0
  7  8  1  0
  7 11  2  0
  8  9  2  0
  9 10  1  0
  9 16  1  0
 10 11  1  0
 10 12  1  0
 12 13  2  0
 13 14  1  0
 14 15  1  0
 15 16  2  0
M  END
