
     RDKit          3D

 17 19  0  0  0  0  0  0  0  0999 V2000
    5.7310    1.3060    0.6440 C   0  0  0  0  0  0  0  0  0  0  0  0
    4.4220    1.3900    0.5390 C   0  0  0  0  0  0  0  0  0  0  0  0
    3.8170    0.1460    0.0920 C   0  0  0  0  0  0  0  0  0  0  0  0
    2.3710   -0.1000   -0.1290 C   0  0  0  0  0  0  0  0  0  0  0  0
    1.3560    0.7630    0.0370 N   0  0  0  0  0  0  0  0  0  0  0  0
    0.1840    0.1750   -0.2630 C   0  0  0  0  0  0  0  0  0  0  0  0
   -1.1410    0.8440   -0.1880 C   0  0  0  0  0  0  0  0  0  0  0  0
   -2.2200   -0.0150   -0.5550 N   0  0  0  0  0  0  0  0  0  0  0  0
   -2.3530   -1.1720    0.2550 C   0  0  0  0  0  0  0  0  0  0  0  0
   -3.4410   -1.1480    1.2620 C   0  0  0  0  0  0  0  0  0  0  0  0
   -4.6820   -0.4320    0.8460 C   0  0  0  0  0  0  0  0  0  0  0  0
   -4.3830    0.9030    0.1850 C   0  0  0  0  0  0  0  0  0  0  0  0
   -3.4190    0.6480   -0.9290 C   0  0  0  0  0  0  0  0  0  0  0  0
    0.4980   -1.0820   -0.6220 N   0  0  0  0  0  0  0  0  0  0  0  0
    1.8080   -1.2460   -0.5420 N   0  0  0  0  0  0  0  0  0  0  0  0
    4.7970   -0.7100   -0.0760 C   0  0  0  0  0  0  0  0  0  0  0  0
    6.1030   -0.0830    0.2500 C   0  0  0  0  0  0  0  0  0  0  0  0
  1  2  2  0
  1 17  1  0
  2  3  1  0
  3  4  1  0
  3 16  2  0
  4  5  2  0
  4 15  1  0
  5  6  1  0
  6  7  1  0
  6 14  2  0
  7  8  1  0
  8  9  1  0
  8 13  1  0
  9 10  1  0
 10 11  1  0
 11 12  1  0
 12 13  1  0
 14 15  1  0
 16 17  1  0
M  END
