
     RDKit          3D

 12 12  0  0  0  0  0  0  0  0999 V2000
    3.2500    0.1070    0.3750 C   0  0  0  0  0  0  0  0  0  0  0  0
    2.0100   -1.0240   -0.2820 S   0  0  0  0  0  0  0  0  0  0  0  0
    1.7070   -2.0190    0.8200 O   0  0  0  0  0  0  0  0  0  0  0  0
    0.5510   -0.0900   -0.7780 C   0  0  2  0  0  0  0  0  0  0  0  0
    0.0140    0.6140    0.4250 C   0  0  1  0  0  0  0  0  0  0  0  0
   -0.2060    2.0210    0.1540 N   0  0  0  0  0  0  0  0  0  0  0  0
   -1.1980   -0.1000    0.8980 C   0  0  1  0  0  0  0  0  0  0  0  0
   -2.3890    0.5630    0.6310 O   0  0  0  0  0  0  0  0  0  0  0  0
   -1.1930   -1.3790    0.1190 C   0  0  1  0  0  0  0  0  0  0  0  0
   -2.4660   -1.9240   -0.0250 O   0  0  0  0  0  0  0  0  0  0  0  0
   -0.5160   -1.0770   -1.1560 C   0  0  1  0  0  0  0  0  0  0  0  0
   -1.3300   -0.5690   -2.1510 O   0  0  0  0  0  0  0  0  0  0  0  0
  2  1  1  1
  2  3  2  0
  4  2  1  1
  4  5  1  0
  4 11  1  0
  5  6  1  6
  5  7  1  0
  7  8  1  6
  7  9  1  0
  9 10  1  6
  9 11  1  0
 11 12  1  6
M  CHG  1   6   1
M  END
