
     RDKit          3D

 17 19  0  0  0  0  0  0  0  0999 V2000
    4.8510   -0.6760   -0.1080 C   0  0  0  0  0  0  0  0  0  0  0  0
    3.7170    0.2760    0.0380 C   0  0  0  0  0  0  0  0  0  0  0  0
    3.8950    1.5920    0.2840 N   0  0  0  0  0  0  0  0  0  0  0  0
    2.8250    2.4300    0.4100 C   0  0  0  0  0  0  0  0  0  0  0  0
    1.5770    1.9410    0.2890 N   0  0  0  0  0  0  0  0  0  0  0  0
    1.3780    0.6390    0.0460 C   0  0  0  0  0  0  0  0  0  0  0  0
    0.0320    0.0690   -0.0930 C   0  0  0  0  0  0  0  0  0  0  0  0
   -0.1120   -1.2790   -0.3430 C   0  0  0  0  0  0  0  0  0  0  0  0
   -1.3730   -1.8460   -0.4790 C   0  0  0  0  0  0  0  0  0  0  0  0
   -2.5190   -1.0870   -0.3690 C   0  0  0  0  0  0  0  0  0  0  0  0
   -3.7690   -1.6470   -0.5030 C   0  0  0  0  0  0  0  0  0  0  0  0
   -4.8750   -0.8920   -0.3930 N   0  0  0  0  0  0  0  0  0  0  0  0
   -4.7630    0.4330   -0.1470 C   0  0  0  0  0  0  0  0  0  0  0  0
   -3.5100    1.0100   -0.0100 C   0  0  0  0  0  0  0  0  0  0  0  0
   -2.3520    0.2670   -0.1170 C   0  0  0  0  0  0  0  0  0  0  0  0
   -1.0970    0.8220    0.0170 C   0  0  0  0  0  0  0  0  0  0  0  0
    2.4530   -0.1530   -0.0720 N   0  0  0  0  0  0  0  0  0  0  0  0
  1  2  1  0
  2  3  2  0
  2 17  1  0
  3  4  1  0
  4  5  2  0
  5  6  1  0
  6  7  1  0
  6 17  2  0
  7  8  2  0
  7 16  1  0
  8  9  1  0
  9 10  2  0
 10 11  1  0
 10 15  1  0
 11 12  2  0
 12 13  1  0
 13 14  2  0
 14 15  1  0
 15 16  2  0
M  END
