
     RDKit          3D

 10 11  0  0  0  0  0  0  0  0999 V2000
   -2.9120    1.7620   -0.3940 O   0  0  0  0  0  0  0  0  0  0  0  0
   -1.9150    0.9960   -0.3580 C   0  0  0  0  0  0  0  0  0  0  0  0
   -2.1450   -0.4330   -0.1680 C   0  0  0  0  0  0  0  0  0  0  0  0
   -1.0220   -1.1990    0.4020 C   0  0  0  0  0  0  0  0  0  0  0  0
    0.3050   -0.5540    0.2400 C   0  0  0  0  0  0  0  0  0  0  0  0
    1.4780   -1.0910    0.4620 C   0  0  0  0  0  0  0  0  0  0  0  0
    2.5430   -0.1050    0.1780 C   0  0  0  0  0  0  0  0  0  0  0  0
    1.7940    1.0940   -0.2460 C   0  0  0  0  0  0  0  0  0  0  0  0
    0.5080    0.7940   -0.1970 C   0  0  0  0  0  0  0  0  0  0  0  0
   -0.6400    1.5970   -0.5060 N   0  0  0  0  0  0  0  0  0  0  0  0
  1  2  2  0
  2  3  1  0
  2 10  1  0
  3  4  1  0
  4  5  1  0
  5  6  2  0
  5  9  1  0
  6  7  1  0
  7  8  1  0
  8  9  2  0
  9 10  1  0
M  END
