
     RDKit          3D

 10 10  0  0  0  0  0  0  0  0999 V2000
    2.8060   -0.0160    0.9430 C   0  0  0  0  0  0  0  0  0  0  0  0
    1.9680   -0.0740   -0.0960 C   0  0  0  0  0  0  0  0  0  0  0  0
    2.5680   -0.2620   -1.3780 N   0  0  0  0  0  0  0  0  0  0  0  0
    0.5240    0.0500    0.0830 C   0  0  0  0  0  0  0  0  0  0  0  0
   -0.1360   -0.0330   -1.0650 C   0  0  0  0  0  0  0  0  0  0  0  0
   -1.5590    0.0390   -1.3370 C   0  0  0  0  0  0  0  0  0  0  0  0
   -2.4260    0.5000   -0.2300 C   0  0  0  0  0  0  0  0  0  0  0  0
   -2.0950   -0.3390    1.0000 C   0  0  0  0  0  0  0  0  0  0  0  0
   -1.1970    0.3690    1.7400 O   0  0  0  0  0  0  0  0  0  0  0  0
    0.1090    0.2360    1.4540 C   0  0  0  0  0  0  0  0  0  0  0  0
  1  2  2  0
  2  3  1  0
  2  4  1  0
  4  5  2  0
  4 10  1  0
  5  6  1  0
  6  7  1  0
  7  8  1  0
  8  9  1  0
  9 10  1  0
M  END
