
     RDKit          3D

 26 29  0  0  0  0  0  0  0  0999 V2000
   -3.9360    2.0170   -2.8810 C   0  0  0  0  0  0  0  0  0  0  0  0
   -4.4370    1.1690   -1.8890 O   0  0  0  0  0  0  0  0  0  0  0  0
   -3.6310    0.4530   -1.0130 C   0  0  0  0  0  0  0  0  0  0  0  0
   -2.2510    0.5230   -1.0530 C   0  0  0  0  0  0  0  0  0  0  0  0
   -1.4170   -0.1740   -0.1970 C   0  0  0  0  0  0  0  0  0  0  0  0
    0.0280   -0.0570   -0.2810 C   0  0  0  0  0  0  0  0  0  0  0  0
    0.8160   -0.7410    0.5180 C   0  0  0  0  0  0  0  0  0  0  0  0
    2.3120   -0.6160    0.4220 C   0  0  0  0  0  0  0  0  0  0  0  0
    2.7860    0.6540   -0.0200 N   0  0  0  0  0  0  0  0  0  0  0  0
    4.0980    1.1010   -0.1840 C   0  0  0  0  0  0  0  0  0  0  0  0
    4.1710    2.3260   -0.6050 O   0  0  0  0  0  0  0  0  0  0  0  0
    5.3680    0.3770    0.0540 C   0  0  0  0  0  0  0  0  0  0  0  0
    5.4900   -0.8850    0.4780 C   0  0  0  0  0  0  0  0  0  0  0  0
    6.7480   -1.4180    0.6540 C   0  0  0  0  0  0  0  0  0  0  0  0
    7.8450   -0.0900    0.2030 S   0  0  0  0  0  0  0  0  0  0  0  0
    6.5500    1.0760   -0.1860 C   0  0  0  0  0  0  0  0  0  0  0  0
    1.6990    1.6340   -0.3500 C   0  0  0  0  0  0  0  0  0  0  0  0
    0.7300    0.8510   -1.2400 C   0  0  0  0  0  0  0  0  0  0  0  0
   -2.0390   -0.9800    0.7410 C   0  0  0  0  0  0  0  0  0  0  0  0
   -3.4270   -1.0880    0.8250 C   0  0  0  0  0  0  0  0  0  0  0  0
   -4.1940   -0.3680   -0.0540 C   0  0  0  0  0  0  0  0  0  0  0  0
   -5.5760   -0.4910    0.0480 O   0  0  0  0  0  0  0  0  0  0  0  0
   -6.1160   -1.6630    0.5930 C   0  0  0  0  0  0  0  0  0  0  0  0
   -5.4520   -1.9760    1.8170 O   0  0  0  0  0  0  0  0  0  0  0  0
   -4.0570   -1.9420    1.8210 C   0  0  0  0  0  0  0  0  0  0  0  0
   -3.3620   -2.6060    2.6320 O   0  0  0  0  0  0  0  0  0  0  0  0
  1  2  1  0
  2  3  1  0
  3  4  2  0
  3 21  1  0
  4  5  1  0
  5  6  1  0
  5 19  2  0
  6  7  2  0
  6 18  1  0
  7  8  1  0
  8  9  1  0
  9 10  1  0
  9 17  1  0
 10 11  2  0
 10 12  1  0
 12 13  1  0
 12 16  2  0
 13 14  2  0
 14 15  1  0
 15 16  1  0
 17 18  1  0
 19 20  1  0
 20 21  2  0
 20 25  1  0
 21 22  1  0
 22 23  1  0
 23 24  1  0
 24 25  1  0
 25 26  2  0
M  END
