
     RDKit          3D

 26 29  0  0  0  0  0  0  0  0999 V2000
    2.4680   -1.5190    0.3270 C   0  0  0  0  0  0  0  0  0  0  0  0
    1.1550   -0.8090    0.1940 C   0  0  0  0  0  0  0  0  0  0  0  0
    0.1480   -1.4420   -0.4380 C   0  0  0  0  0  0  0  0  0  0  0  0
    0.4180   -2.7970   -0.9560 C   0  0  0  0  0  0  0  0  0  0  0  0
    1.5790   -3.3270   -0.8100 O   0  0  0  0  0  0  0  0  0  0  0  0
   -0.5600   -3.4970   -1.5930 O   0  0  0  0  0  0  0  0  0  0  0  0
   -1.8390   -3.0390   -1.8060 C   0  0  0  0  0  0  0  0  0  0  0  0
   -2.0790   -1.6860   -1.2830 C   0  0  0  0  0  0  0  0  0  0  0  0
   -1.1800   -0.9380   -0.6530 C   0  0  0  0  0  0  0  0  0  0  0  0
   -1.6200    0.4190   -0.2220 C   0  0  1  0  0  0  0  0  0  0  0  0
   -3.0540    0.6250   -0.1860 C   0  0  0  0  0  0  0  0  0  0  0  0
   -3.9560    0.6000    0.7610 C   0  0  0  0  0  0  0  0  0  0  0  0
   -3.7490    0.3280    2.1950 C   0  0  0  0  0  0  0  0  0  0  0  0
   -4.5190   -0.8130    2.5460 O   0  0  0  0  0  0  0  0  0  0  0  0
   -5.2410    0.8800    0.2360 O   0  0  0  0  0  0  0  0  0  0  0  0
   -5.0650    1.4040   -1.0450 C   0  0  0  0  0  0  0  0  0  0  0  0
   -3.7800    0.9260   -1.3720 O   0  0  0  0  0  0  0  0  0  0  0  0
   -0.7110    0.8530    1.2730 S   0  0  0  0  0  0  0  0  0  0  0  0
    0.9890    0.5180    0.7540 C   0  0  0  0  0  0  0  0  0  0  0  0
    1.8370    1.3670    0.8760 N   0  0  0  0  0  0  0  0  0  0  0  0
    3.1760    1.5720    0.6230 C   0  0  0  0  0  0  0  0  0  0  0  0
    3.6090    1.5420   -0.6870 C   0  0  0  0  0  0  0  0  0  0  0  0
    4.9150    1.7350   -1.0780 C   0  0  0  0  0  0  0  0  0  0  0  0
    5.8500    1.9730   -0.0950 C   0  0  0  0  0  0  0  0  0  0  0  0
    5.4460    2.0090    1.2300 C   0  0  0  0  0  0  0  0  0  0  0  0
    4.1310    1.8120    1.5880 C   0  0  0  0  0  0  0  0  0  0  0  0
  1  2  1  0
  2  3  2  0
  2 19  1  0
  3  4  1  0
  3  9  1  0
  4  5  2  0
  4  6  1  0
  6  7  1  0
  7  8  1  0
  8  9  2  0
  9 10  1  0
 10 11  1  1
 10 18  1  0
 11 12  2  0
 11 17  1  0
 12 13  1  0
 12 15  1  0
 13 14  1  0
 15 16  1  0
 16 17  1  0
 18 19  1  0
 19 20  2  3
 20 21  1  0
 21 22  2  0
 21 26  1  0
 22 23  1  0
 23 24  2  0
 24 25  1  0
 25 26  2  0
M  END
