
     RDKit          3D

 26 29  0  0  0  0  0  0  0  0999 V2000
    7.3210    1.7300    0.1290 C   0  0  0  0  0  0  0  0  0  0  0  0
    6.1000    0.8550    0.2050 C   0  0  0  0  0  0  0  0  0  0  0  0
    5.0540    1.0090   -0.6790 C   0  0  0  0  0  0  0  0  0  0  0  0
    3.9220    0.2260   -0.6380 C   0  0  0  0  0  0  0  0  0  0  0  0
    3.8270   -0.7540    0.3250 C   0  0  0  0  0  0  0  0  0  0  0  0
    2.6450   -1.6450    0.4450 C   0  0  1  0  0  0  0  0  0  0  0  0
    2.2580   -1.7540    1.8010 O   0  0  0  0  0  0  0  0  0  0  0  0
    0.9440   -1.3760    1.9790 C   0  0  0  0  0  0  0  0  0  0  0  0
    0.3450   -1.3760    3.0900 O   0  0  0  0  0  0  0  0  0  0  0  0
    0.3880   -0.9820    0.6610 C   0  0  0  0  0  0  0  0  0  0  0  0
   -0.7150   -0.5520    0.1380 N   0  0  0  0  0  0  0  0  0  0  0  0
   -1.0060   -0.2760   -0.9640 C   0  0  0  0  0  0  0  0  0  0  0  0
   -1.9550    0.1910   -1.9910 C   0  0  0  0  0  0  0  0  0  0  0  0
   -3.2020    0.4930   -1.4840 O   0  0  0  0  0  0  0  0  0  0  0  0
   -4.0410   -0.3930   -0.8240 C   0  0  0  0  0  0  0  0  0  0  0  0
   -3.5970   -1.5720   -0.6930 O   0  0  0  0  0  0  0  0  0  0  0  0
   -5.3450   -0.0110   -0.3130 C   0  0  0  0  0  0  0  0  0  0  0  0
   -5.7930    1.2080   -0.4540 C   0  0  0  0  0  0  0  0  0  0  0  0
   -7.1140    1.6730    0.0410 C   0  0  0  0  0  0  0  0  0  0  0  0
   -7.8240    0.6470    0.6790 O   0  0  0  0  0  0  0  0  0  0  0  0
   -7.3610   -0.6260    0.8290 C   0  0  0  0  0  0  0  0  0  0  0  0
   -6.1690   -0.9890    0.3660 C   0  0  0  0  0  0  0  0  0  0  0  0
    0.6610   -0.6570   -1.7780 S   0  0  0  0  0  0  0  0  0  0  0  0
    1.4620   -1.1710   -0.2010 C   0  0  0  0  0  0  0  0  0  0  0  0
    4.8610   -0.9290    1.2220 C   0  0  0  0  0  0  0  0  0  0  0  0
    6.0030   -0.1250    1.1670 C   0  0  0  0  0  0  0  0  0  0  0  0
  1  2  1  0
  2  3  2  0
  2 26  1  0
  3  4  1  0
  4  5  2  0
  6  5  1  1
  5 25  1  0
  6  7  1  0
  6 24  1  0
  7  8  1  0
  8  9  2  0
  8 10  1  0
 10 11  1  0
 10 24  2  0
 11 12  2  0
 12 13  1  0
 12 23  1  0
 13 14  1  0
 14 15  1  0
 15 16  2  0
 15 17  1  0
 17 18  2  0
 17 22  1  0
 18 19  1  0
 19 20  1  0
 20 21  1  0
 21 22  2  0
 23 24  1  0
 25 26  2  0
M  END
