
     RDKit          3D

 10 10  0  0  0  0  0  0  0  0999 V2000
   -2.1600    0.2440   -0.5780 N   0  0  0  0  0  0  0  0  0  0  0  0
   -0.9730    0.1060    0.2100 C   0  0  2  0  0  0  0  0  0  0  0  0
    0.1040    1.0840   -0.1210 C   0  0  1  0  0  0  0  0  0  0  0  0
   -0.1480    2.3760    0.2800 O   0  0  0  0  0  0  0  0  0  0  0  0
    1.3130    0.4820    0.5780 C   0  0  2  0  0  0  0  0  0  0  0  0
    2.4450    0.5030   -0.1980 O   0  0  0  0  0  0  0  0  0  0  0  0
    0.9480   -0.9480    0.9020 C   0  0  2  0  0  0  0  0  0  0  0  0
    1.9650   -1.8410    0.7000 O   0  0  0  0  0  0  0  0  0  0  0  0
   -0.2480   -1.1960   -0.0190 C   0  0  2  0  0  0  0  0  0  0  0  0
    0.2860   -1.2790   -1.3150 O   0  0  0  0  0  0  0  0  0  0  0  0
  2  1  1  6
  2  3  1  0
  2  9  1  0
  3  4  1  1
  3  5  1  0
  5  6  1  6
  5  7  1  0
  7  8  1  6
  7  9  1  0
  9 10  1  6
M  CHG  1   1   1
M  END
