
     RDKit          3D

 11 11  0  0  0  0  0  0  0  0999 V2000
    2.9940   -0.0630   -0.3260 C   0  0  0  0  0  0  0  0  0  0  0  0
    1.7560    0.1180   -0.9250 O   0  0  0  0  0  0  0  0  0  0  0  0
    0.7120    0.1380   -0.0350 C   0  0  2  0  0  0  0  0  0  0  0  0
   -0.2820   -0.9620   -0.4170 C   0  0  1  0  0  0  0  0  0  0  0  0
   -0.5210   -1.8460    0.7170 N   0  0  0  0  0  0  0  0  0  0  0  0
   -1.5510   -0.2720   -0.8090 C   0  0  1  0  0  0  0  0  0  0  0  0
   -2.6950   -0.9840   -0.4610 O   0  0  0  0  0  0  0  0  0  0  0  0
   -1.4690    1.0240   -0.0270 C   0  0  1  0  0  0  0  0  0  0  0  0
   -1.7360    0.8100    1.3240 O   0  0  0  0  0  0  0  0  0  0  0  0
   -0.0470    1.4360   -0.2400 C   0  0  1  0  0  0  0  0  0  0  0  0
    0.3760    2.4300    0.6250 O   0  0  0  0  0  0  0  0  0  0  0  0
  1  2  1  0
  3  2  1  6
  3  4  1  0
  3 10  1  0
  4  5  1  1
  4  6  1  0
  6  7  1  1
  6  8  1  0
  8  9  1  1
  8 10  1  0
 10 11  1  1
M  CHG  1   5   1
M  END
