
     RDKit          3D

 11 11  0  0  0  0  0  0  0  0999 V2000
   -0.5620   -2.5410    0.2410 O   0  0  0  0  0  0  0  0  0  0  0  0
   -1.4230   -1.4710    0.1710 C   0  0  0  0  0  0  0  0  0  0  0  0
   -0.6800   -0.1430    0.0240 C   0  0  2  0  0  0  0  0  0  0  0  0
   -1.7550    0.9180    0.0100 C   0  0  0  0  0  0  0  0  0  0  0  0
   -1.2790    2.1950   -0.1110 O   0  0  0  0  0  0  0  0  0  0  0  0
    0.1220   -0.1920   -1.2330 C   0  0  0  0  0  0  0  0  0  0  0  0
    1.3860   -0.7330   -0.9150 O   0  0  0  0  0  0  0  0  0  0  0  0
    2.1160    0.2950   -0.3460 C   0  0  2  0  0  0  0  0  0  0  0  0
    3.3340   -0.1410    0.1750 O   0  0  0  0  0  0  0  0  0  0  0  0
    1.3050    0.9380    0.7320 C   0  0  0  0  0  0  0  0  0  0  0  0
    0.1980    0.0950    1.1380 N   0  0  0  0  0  0  0  0  0  0  0  0
  1  2  1  0
  3  2  1  1
  3  4  1  0
  3  6  1  0
  3 11  1  0
  4  5  1  0
  6  7  1  0
  7  8  1  0
  8  9  1  1
  8 10  1  0
 10 11  1  0
M  CHG  1  11   1
M  END
