
     RDKit          3D

 11 10  0  0  0  0  0  0  0  0999 V2000
    2.2580   -1.1730   -0.2000 C   0  0  0  0  0  0  0  0  0  0  0  0
    1.1560   -0.1420    0.2390 C   0  0  1  0  0  0  0  0  0  0  0  0
    1.2320   -0.1990    1.6240 O   0  0  0  0  0  0  0  0  0  0  0  0
    1.6610    1.1280   -0.3650 C   0  0  0  0  0  0  0  0  0  0  0  0
    3.0310    1.2440   -0.0070 O   0  0  0  0  0  0  0  0  0  0  0  0
   -0.0970   -0.6980   -0.3400 C   0  0  1  0  0  0  0  0  0  0  0  0
   -0.1730   -2.0940   -0.0130 O   0  0  0  0  0  0  0  0  0  0  0  0
   -1.3910   -0.1670    0.2130 C   0  0  2  0  0  0  0  0  0  0  0  0
   -2.4190   -0.9430   -0.5340 N   0  0  0  0  0  0  0  0  0  0  0  0
   -1.7000    1.2530   -0.0890 C   0  0  0  0  0  0  0  0  0  0  0  0
   -3.0220    1.5860    0.3140 O   0  0  0  0  0  0  0  0  0  0  0  0
  2  1  1  6
  2  3  1  0
  2  4  1  0
  2  6  1  0
  4  5  1  0
  6  7  1  1
  6  8  1  0
  8  9  1  6
  8 10  1  0
 10 11  1  0
M  CHG  1   9   1
M  END
