
     RDKit          3D

 14 15  0  0  0  0  0  0  0  0999 V2000
    2.6980    2.4340   -0.2920 O   0  0  0  0  0  0  0  0  0  0  0  0
    1.6300    1.7590   -0.1690 C   0  0  0  0  0  0  0  0  0  0  0  0
    0.3020    2.2730   -0.0840 N   0  0  0  0  0  0  0  0  0  0  0  0
   -0.5950    1.1940    0.0460 C   0  0  0  0  0  0  0  0  0  0  0  0
    0.0400    0.0440    0.0500 C   0  0  0  0  0  0  0  0  0  0  0  0
   -0.4670   -1.3520    0.1630 C   0  0  0  0  0  0  0  0  0  0  0  0
   -1.8440   -1.4110    0.7450 C   0  0  0  0  0  0  0  0  0  0  0  0
   -2.9240   -0.9690   -0.2020 C   0  0  0  0  0  0  0  0  0  0  0  0
   -2.6820    0.3660   -0.8210 C   0  0  0  0  0  0  0  0  0  0  0  0
   -2.0850    1.3410    0.1640 C   0  0  0  0  0  0  0  0  0  0  0  0
    1.4830    0.3180   -0.0840 C   0  0  0  0  0  0  0  0  0  0  0  0
    2.4260   -0.6110   -0.1190 C   0  0  0  0  0  0  0  0  0  0  0  0
    3.8500   -0.3390   -0.2550 C   0  0  0  0  0  0  0  0  0  0  0  0
    4.6060   -0.8080    0.8210 O   0  0  0  0  0  0  0  0  0  0  0  0
  1  2  2  0
  2  3  1  0
  2 11  1  0
  3  4  1  0
  4  5  2  0
  4 10  1  0
  5  6  1  0
  5 11  1  0
  6  7  1  0
  7  8  1  0
  8  9  1  0
  9 10  1  0
 11 12  2  3
 12 13  1  0
 13 14  1  0
M  END
