
     RDKit          3D

 11 11  0  0  0  0  0  0  0  0999 V2000
   -2.1820   -1.4170   -0.6120 N   0  0  0  0  0  0  0  0  0  0  0  0
   -1.8290   -0.5900    0.5430 C   0  0  0  0  0  0  0  0  0  0  0  0
   -0.7680    0.3770    0.1560 C   0  0  1  0  0  0  0  0  0  0  0  0
   -0.4250    1.1680    1.2590 O   0  0  0  0  0  0  0  0  0  0  0  0
    0.2630    2.2720    0.7330 C   0  0  0  0  0  0  0  0  0  0  0  0
    1.4440    1.8820   -0.0860 C   0  0  0  0  0  0  0  0  0  0  0  0
    1.2050    0.8470   -0.9800 O   0  0  0  0  0  0  0  0  0  0  0  0
    0.4860   -0.1990   -0.4010 C   0  0  1  0  0  0  0  0  0  0  0  0
    1.3020   -0.8860    0.6780 C   0  0  1  0  0  0  0  0  0  0  0  0
    0.6040   -1.9310    1.2610 O   0  0  0  0  0  0  0  0  0  0  0  0
    2.4320   -1.4230    0.0660 O   0  0  0  0  0  0  0  0  0  0  0  0
  1  2  1  0
  3  2  1  1
  3  4  1  0
  3  8  1  0
  4  5  1  0
  5  6  1  0
  6  7  1  0
  8  7  1  1
  8  9  1  0
  9 10  1  6
  9 11  1  0
M  CHG  1   1   1
M  END
