
     RDKit          3D

 11 11  0  0  0  0  0  0  0  0999 V2000
   -0.4330   -0.9000    1.3580 N   0  0  0  0  0  0  0  0  0  0  0  0
   -0.2970   -0.1580    0.1960 C   0  0  1  0  0  0  0  0  0  0  0  0
    1.0810    0.1640   -0.3410 C   0  0  0  0  0  0  0  0  0  0  0  0
    1.9250   -0.9840   -0.7710 C   0  0  0  0  0  0  0  0  0  0  0  0
    2.9900   -1.0420    0.0910 O   0  0  0  0  0  0  0  0  0  0  0  0
    3.7680    0.0840   -0.1080 O   0  0  0  0  0  0  0  0  0  0  0  0
   -1.1910   -0.7440   -0.9500 C   0  0  0  0  0  0  0  0  0  0  0  0
   -2.4220   -0.5670   -0.3610 O   0  0  0  0  0  0  0  0  0  0  0  0
   -2.4430    0.7000    0.1860 C   0  0  0  0  0  0  0  0  0  0  0  0
   -1.0080    1.1660    0.3310 C   0  0  2  0  0  0  0  0  0  0  0  0
   -0.6350    1.9350   -0.7990 O   0  0  0  0  0  0  0  0  0  0  0  0
  2  1  1  1
  2  3  1  0
  2  7  1  0
  2 10  1  0
  3  4  1  0
  4  5  1  0
  5  6  1  0
  7  8  1  0
  8  9  1  0
  9 10  1  0
 10 11  1  6
M  CHG  1   1   1
M  END
