
     RDKit          3D

 11 11  0  0  0  0  0  0  0  0999 V2000
   -2.3410    0.9110   -0.9680 N   0  0  0  0  0  0  0  0  0  0  0  0
   -2.2120    0.0360    0.1470 C   0  0  0  0  0  0  0  0  0  0  0  0
   -1.0010   -0.8300    0.1830 C   0  0  2  0  0  0  0  0  0  0  0  0
   -0.9160   -1.6730   -0.9240 O   0  0  0  0  0  0  0  0  0  0  0  0
   -1.2330   -1.7220    1.2730 O   0  0  0  0  0  0  0  0  0  0  0  0
    0.2910   -0.1240    0.4720 C   0  0  2  0  0  0  0  0  0  0  0  0
    0.7480    0.8060   -0.6030 C   0  0  0  0  0  0  0  0  0  0  0  0
    2.0730    1.1550   -0.5540 O   0  0  0  0  0  0  0  0  0  0  0  0
    2.9310    0.1510   -0.1650 C   0  0  0  0  0  0  0  0  0  0  0  0
    2.4060   -0.4590    1.1080 C   0  0  0  0  0  0  0  0  0  0  0  0
    1.2350   -1.1360    0.7330 O   0  0  0  0  0  0  0  0  0  0  0  0
  1  2  1  0
  2  3  1  0
  3  4  1  6
  3  5  1  0
  3  6  1  0
  6  7  1  6
  6 11  1  0
  7  8  1  0
  8  9  1  0
  9 10  1  0
 10 11  1  0
M  CHG  1   1   1
M  END
