
     RDKit          3D

 15 16  0  0  0  0  0  0  0  0999 V2000
    4.4010    0.7440    0.0750 O   0  0  0  0  0  0  0  0  0  0  0  0
    3.9870   -0.5210    0.5420 C   0  0  0  0  0  0  0  0  0  0  0  0
    2.6520   -0.4470    0.9310 O   0  0  0  0  0  0  0  0  0  0  0  0
    1.8150   -0.0710   -0.1260 C   0  0  2  0  0  0  0  0  0  0  0  0
    1.2310    1.2780    0.2510 C   0  0  0  0  0  0  0  0  0  0  0  0
   -0.0700    1.5070   -0.4390 C   0  0  0  0  0  0  0  0  0  0  0  0
   -1.2090    0.7130    0.1480 C   0  0  1  0  0  0  0  0  0  0  0  0
   -1.5460    1.0500    1.4350 O   0  0  0  0  0  0  0  0  0  0  0  0
   -2.4020    0.7790   -0.7990 C   0  0  2  0  0  0  0  0  0  0  0  0
   -3.5890    0.6470   -0.0940 O   0  0  0  0  0  0  0  0  0  0  0  0
   -1.9000   -0.4910   -1.4350 C   0  0  0  0  0  0  0  0  0  0  0  0
   -1.1090   -0.7530   -0.1680 C   0  0  2  0  0  0  0  0  0  0  0  0
   -1.8810   -1.6480    0.7570 C   0  0  0  0  0  0  0  0  0  0  0  0
   -1.7050   -2.9710    0.3570 O   0  0  0  0  0  0  0  0  0  0  0  0
    0.5690   -1.3140   -0.4410 S   0  0  0  0  0  0  0  0  0  0  0  0
  1  2  1  0
  2  3  1  0
  4  3  1  1
  4  5  1  0
  4 15  1  0
  5  6  1  0
  6  7  1  0
  7  8  1  1
  7  9  1  0
  7 12  1  0
  9 10  1  1
  9 11  1  0
 11 12  1  0
 12 13  1  1
 12 15  1  0
 13 14  1  0
M  END
