
     RDKit          3D

 15 15  0  0  0  0  0  0  0  0999 V2000
    2.7870   -0.7850    1.0790 C   0  0  0  0  0  0  0  0  0  0  0  0
    1.5730   -0.1800    0.9900 O   0  0  0  0  0  0  0  0  0  0  0  0
    0.8680   -0.3500   -0.1910 C   0  0  1  0  0  0  0  0  0  0  0  0
    1.6940    0.1830   -1.3320 C   0  0  0  0  0  0  0  0  0  0  0  0
    0.5810   -1.7830   -0.4240 C   0  0  0  0  0  0  0  0  0  0  0  0
   -0.5360   -2.4920    0.8160 S   0  0  0  0  0  0  0  0  0  0  0  0
   -1.9090   -1.2820    0.9540 C   0  0  2  0  0  0  0  0  0  0  0  0
   -2.7960   -1.5130   -0.0620 O   0  0  0  0  0  0  0  0  0  0  0  0
   -1.3050    0.0620    1.0340 C   0  0  2  0  0  0  0  0  0  0  0  0
   -2.3200    1.0330    1.1420 O   0  0  0  0  0  0  0  0  0  0  0  0
   -0.3770    0.5000   -0.0270 C   0  0  2  0  0  0  0  0  0  0  0  0
   -1.0920    0.7760   -1.2960 C   0  0  0  0  0  0  0  0  0  0  0  0
   -1.5490   -0.2990   -2.0040 O   0  0  0  0  0  0  0  0  0  0  0  0
    0.1630    1.8680    0.4460 C   0  0  0  0  0  0  0  0  0  0  0  0
   -0.8900    2.7560    0.6390 O   0  0  0  0  0  0  0  0  0  0  0  0
  1  2  1  0
  2  3  1  0
  3  4  1  6
  3  5  1  0
  3 11  1  0
  5  6  1  0
  6  7  1  0
  7  8  1  6
  7  9  1  0
  9 10  1  6
  9 11  1  0
 11 12  1  6
 11 14  1  0
 12 13  1  0
 14 15  1  0
M  END
