
     RDKit          3D

 15 15  0  0  0  0  0  0  0  0999 V2000
   -3.4710   -2.1370    0.3970 C   0  0  0  0  0  0  0  0  0  0  0  0
   -2.7140   -0.8380    0.2430 C   0  0  2  0  0  0  0  0  0  0  0  0
   -3.0250   -0.0340    1.3150 O   0  0  0  0  0  0  0  0  0  0  0  0
   -3.0760   -0.1980   -0.9290 O   0  0  0  0  0  0  0  0  0  0  0  0
   -2.2720    0.8400   -1.2840 C   0  0  0  0  0  0  0  0  0  0  0  0
   -1.3130    1.2950   -0.2180 C   0  0  0  0  0  0  0  0  0  0  0  0
   -0.5420    0.2140    0.4320 C   0  0  2  0  0  0  0  0  0  0  0  0
    1.1550    0.0460   -0.0860 S   0  0  0  0  0  0  0  0  0  0  0  0
    2.2260    1.3910    0.3380 C   0  0  0  0  0  0  0  0  0  0  0  0
    3.6250    1.0550   -0.2020 C   0  0  2  0  0  0  0  0  0  0  0  0
    3.4700    0.9170   -1.5880 O   0  0  0  0  0  0  0  0  0  0  0  0
    4.0560   -0.2950    0.3360 C   0  0  0  0  0  0  0  0  0  0  0  0
    4.2380   -0.2660    1.7130 O   0  0  0  0  0  0  0  0  0  0  0  0
   -1.2280   -1.1120    0.1800 C   0  0  1  0  0  0  0  0  0  0  0  0
   -0.8420   -2.0590    1.1300 O   0  0  0  0  0  0  0  0  0  0  0  0
  2  1  1  1
  2  3  1  0
  2  4  1  0
  2 14  1  0
  4  5  1  0
  5  6  1  0
  6  7  1  0
  7  8  1  6
  7 14  1  0
  8  9  1  0
  9 10  1  0
 10 11  1  6
 10 12  1  0
 12 13  1  0
 14 15  1  1
M  END
