
     RDKit          3D

 15 15  0  0  0  0  0  0  0  0999 V2000
   -0.7020    0.4320   -2.2630 C   0  0  0  0  0  0  0  0  0  0  0  0
   -0.9960   -0.1640   -0.9140 C   0  0  2  0  0  0  0  0  0  0  0  0
   -2.0150   -1.2870   -1.1710 C   0  0  0  0  0  0  0  0  0  0  0  0
   -1.6570    0.8980   -0.0520 C   0  0  2  0  0  0  0  0  0  0  0  0
   -0.8670    2.0400   -0.0740 O   0  0  0  0  0  0  0  0  0  0  0  0
   -1.8870    0.4570    1.3560 C   0  0  1  0  0  0  0  0  0  0  0  0
   -3.0640   -0.2750    1.4790 O   0  0  0  0  0  0  0  0  0  0  0  0
   -0.7170   -0.3350    1.8400 C   0  0  0  0  0  0  0  0  0  0  0  0
   -0.2650   -1.3070    0.9770 O   0  0  0  0  0  0  0  0  0  0  0  0
    0.1690   -0.7980   -0.2400 C   0  0  1  0  0  0  0  0  0  0  0  0
    0.5730   -1.8890   -1.0120 O   0  0  0  0  0  0  0  0  0  0  0  0
    1.3580    0.1130   -0.0860 C   0  0  0  0  0  0  0  0  0  0  0  0
    2.7290   -0.7590    0.7490 S   0  0  0  0  0  0  0  0  0  0  0  0
    4.1130    0.3810    0.9070 C   0  0  0  0  0  0  0  0  0  0  0  0
    4.6260    0.7100   -0.3450 O   0  0  0  0  0  0  0  0  0  0  0  0
  2  1  1  6
  2  3  1  0
  2  4  1  0
  2 10  1  0
  4  5  1  1
  4  6  1  0
  6  7  1  6
  6  8  1  0
  8  9  1  0
  9 10  1  0
 10 11  1  6
 10 12  1  0
 12 13  1  0
 13 14  1  0
 14 15  1  0
M  END
