
     RDKit          3D

 15 15  0  0  0  0  0  0  0  0999 V2000
    0.0530    0.6900   -2.0630 C   0  0  0  0  0  0  0  0  0  0  0  0
   -0.3200    0.5610   -0.5720 C   0  0  1  0  0  0  0  0  0  0  0  0
    0.9590    0.4320    0.1690 C   0  0  2  0  0  0  0  0  0  0  0  0
    1.9120    1.5970   -0.0000 C   0  0  0  0  0  0  0  0  0  0  0  0
    1.4350    2.7830    0.5040 O   0  0  0  0  0  0  0  0  0  0  0  0
    1.6430   -0.6810   -0.3820 O   0  0  0  0  0  0  0  0  0  0  0  0
    2.0310   -1.5750    0.6070 C   0  0  0  0  0  0  0  0  0  0  0  0
    2.6930   -2.6550    0.0550 O   0  0  0  0  0  0  0  0  0  0  0  0
   -1.1720    1.7420   -0.2590 C   0  0  0  0  0  0  0  0  0  0  0  0
   -2.0790    1.5570    1.2960 S   0  0  0  0  0  0  0  0  0  0  0  0
   -1.8170   -0.1280    1.8510 C   0  0  0  0  0  0  0  0  0  0  0  0
   -1.7120   -1.0990    0.7500 C   0  0  1  0  0  0  0  0  0  0  0  0
   -3.0210   -1.5890    0.4910 O   0  0  0  0  0  0  0  0  0  0  0  0
   -1.1150   -0.7180   -0.5180 C   0  0  2  0  0  0  0  0  0  0  0  0
   -0.3020   -1.7220   -1.0300 O   0  0  0  0  0  0  0  0  0  0  0  0
  2  1  1  6
  2  3  1  0
  2  9  1  0
  2 14  1  0
  3  4  1  6
  3  6  1  0
  4  5  1  0
  6  7  1  0
  7  8  1  0
  9 10  1  0
 10 11  1  0
 11 12  1  0
 12 13  1  6
 12 14  1  0
 14 15  1  1
M  END
