
     RDKit          3D

 15 15  0  0  0  0  0  0  0  0999 V2000
    1.6230    2.2520   -0.2030 O   0  0  0  0  0  0  0  0  0  0  0  0
    0.5770    1.8950    0.6010 C   0  0  0  0  0  0  0  0  0  0  0  0
    0.0280    0.5190    0.4000 C   0  0  2  0  0  0  0  0  0  0  0  0
    1.0450   -0.5140    0.6450 C   0  0  0  0  0  0  0  0  0  0  0  0
    2.2720   -0.5120   -0.1890 C   0  0  0  0  0  0  0  0  0  0  0  0
    3.3760   -1.9070    0.2960 S   0  0  0  0  0  0  0  0  0  0  0  0
    4.7840   -1.8840   -0.6810 O   0  0  0  0  0  0  0  0  0  0  0  0
   -0.6400    0.4510   -0.9490 C   0  0  1  0  0  0  0  0  0  0  0  0
    0.1570    0.9840   -1.9650 O   0  0  0  0  0  0  0  0  0  0  0  0
   -1.1800   -0.9030   -1.2870 C   0  0  0  0  0  0  0  0  0  0  0  0
   -2.6520   -1.0250   -0.9510 C   0  0  0  0  0  0  0  0  0  0  0  0
   -2.9430   -0.6460    0.3370 O   0  0  0  0  0  0  0  0  0  0  0  0
   -1.9030   -0.8780    1.2300 C   0  0  0  0  0  0  0  0  0  0  0  0
   -1.0800    0.3500    1.4330 C   0  0  2  0  0  0  0  0  0  0  0  0
   -1.9140    1.4630    1.3310 O   0  0  0  0  0  0  0  0  0  0  0  0
  1  2  1  0
  3  2  1  1
  3  4  1  0
  3  8  1  0
  3 14  1  0
  4  5  1  0
  5  6  1  0
  6  7  1  0
  8  9  1  6
  8 10  1  0
 10 11  1  0
 11 12  1  0
 12 13  1  0
 13 14  1  0
 14 15  1  6
M  END
