
     RDKit          3D

 18 19  0  0  0  0  0  0  0  0999 V2000
    5.4060    1.6730    0.1920 C   0  0  0  0  0  0  0  0  0  0  0  0
    4.0810    1.5120    0.3940 C   0  0  0  0  0  0  0  0  0  0  0  0
    3.5550    1.3480    1.7650 C   0  0  0  0  0  0  0  0  0  0  0  0
    2.8780    0.0970    1.9010 N   0  0  0  0  0  0  0  0  0  0  0  0
    1.6850   -0.2770    1.2290 C   0  0  0  0  0  0  0  0  0  0  0  0
    0.9560    0.6150    0.4710 C   0  0  0  0  0  0  0  0  0  0  0  0
   -0.2010    0.2420   -0.1890 C   0  0  0  0  0  0  0  0  0  0  0  0
   -0.6730   -1.0390   -0.1140 C   0  0  0  0  0  0  0  0  0  0  0  0
    0.0600   -1.9340    0.6490 C   0  0  0  0  0  0  0  0  0  0  0  0
    1.2160   -1.5860    1.3150 C   0  0  0  0  0  0  0  0  0  0  0  0
   -0.6140   -3.1070    0.5560 N   0  0  0  0  0  0  0  0  0  0  0  0
   -1.6930   -2.9210   -0.2220 C   0  0  0  0  0  0  0  0  0  0  0  0
   -1.7450   -1.6280   -0.6510 N   0  0  0  0  0  0  0  0  0  0  0  0
   -2.9620   -0.9410   -1.6710 S   0  0  1  0  0  0  0  0  0  0  0  0
   -2.3200   -0.3620   -2.9240 O   0  0  0  0  0  0  0  0  0  0  0  0
   -3.9180   -1.9810   -2.1230 O   0  0  0  0  0  0  0  0  0  0  0  0
   -3.8130    0.3570   -0.8240 C   0  0  0  0  0  0  0  0  0  0  0  0
   -4.8770    0.9440   -1.7410 C   0  0  0  0  0  0  0  0  0  0  0  0
  1  2  2  0
  2  3  1  0
  3  4  1  0
  4  5  1  0
  5  6  2  0
  5 10  1  0
  6  7  1  0
  7  8  2  0
  8  9  1  0
  8 13  1  0
  9 10  2  0
  9 11  1  0
 11 12  2  0
 12 13  1  0
 13 14  1  0
 14 15  2  0
 14 16  2  0
 14 17  1  1
 17 18  1  0
M  END
