
     RDKit          3D

 18 18  0  0  0  0  0  0  0  0999 V2000
    6.1470    1.8320   -0.2940 C   0  0  0  0  0  0  0  0  0  0  0  0
    5.5500    0.7150    0.5320 C   0  0  0  0  0  0  0  0  0  0  0  0
    4.0540    0.9410    0.6960 C   0  0  0  0  0  0  0  0  0  0  0  0
    3.5410   -0.1520    1.4920 N   0  0  0  0  0  0  0  0  0  0  0  0
    3.4910   -1.4940    1.0010 C   0  0  0  0  0  0  0  0  0  0  0  0
    2.3410   -2.0560    0.6710 C   0  0  0  0  0  0  0  0  0  0  0  0
    1.1210   -1.3310    0.7980 N   0  0  0  0  0  0  0  0  0  0  0  0
    0.1070   -1.5820    0.0870 C   0  0  0  0  0  0  0  0  0  0  0  0
   -1.1420   -0.9810    0.0810 N   0  0  0  0  0  0  0  0  0  0  0  0
   -2.0870   -1.5110   -0.5320 C   0  0  0  0  0  0  0  0  0  0  0  0
   -3.4680   -0.9220   -0.5870 C   0  0  0  0  0  0  0  0  0  0  0  0
   -4.3920   -1.4850   -1.2120 O   0  0  0  0  0  0  0  0  0  0  0  0
   -3.7550    0.2610    0.0550 O   0  0  0  0  0  0  0  0  0  0  0  0
   -5.0190    0.8840    0.0580 C   0  0  2  0  0  0  0  0  0  0  0  0
   -4.9870    2.2730   -0.5040 C   0  0  0  0  0  0  0  0  0  0  0  0
   -5.5510    0.9490    1.4720 C   0  0  0  0  0  0  0  0  0  0  0  0
   -1.8360   -2.7860   -1.2440 C   0  0  0  0  0  0  0  0  0  0  0  0
   -0.0180   -2.8440   -1.1690 S   0  0  0  0  0  0  0  0  0  0  0  0
  1  2  1  0
  2  3  1  0
  3  4  1  0
  4  5  1  0
  5  6  2  3
  6  7  1  0
  7  8  2  3
  8  9  1  0
  8 18  1  0
  9 10  2  0
 10 11  1  0
 10 17  1  0
 11 12  2  0
 11 13  1  0
 13 14  1  0
 14 15  1  1
 14 16  1  0
 17 18  1  0
M  END
