
     RDKit          3D

 23 22  0  0  0  0  0  0  0  0999 V2000
    8.3560   -1.7940    0.2420 C   0  0  0  0  0  0  0  0  0  0  0  0
    8.2500   -0.3020    0.3250 C   0  0  0  0  0  0  0  0  0  0  0  0
    6.9780    0.1740    0.9780 C   0  0  0  0  0  0  0  0  0  0  0  0
    5.7520   -0.2750    0.2500 C   0  0  0  0  0  0  0  0  0  0  0  0
    4.4780    0.2230    0.9470 C   0  0  0  0  0  0  0  0  0  0  0  0
    4.4660    1.6830    0.9970 C   0  0  0  0  0  0  0  0  0  0  0  0
    3.6250    2.4940    0.4650 C   0  0  0  0  0  0  0  0  0  0  0  0
    2.4400    2.2950   -0.3450 C   0  0  0  0  0  0  0  0  0  0  0  0
    2.0660    0.9390   -0.7410 C   0  0  0  0  0  0  0  0  0  0  0  0
    0.8820    0.3660   -0.3590 C   0  0  0  0  0  0  0  0  0  0  0  0
    0.6030   -0.9950   -0.8080 C   0  0  0  0  0  0  0  0  0  0  0  0
   -0.5670   -1.1970   -1.6520 C   0  0  0  0  0  0  0  0  0  0  0  0
   -1.9560   -0.9690   -1.2010 C   0  0  0  0  0  0  0  0  0  0  0  0
   -2.3830    0.3730   -0.7650 C   0  0  0  0  0  0  0  0  0  0  0  0
   -3.8260    0.4620   -0.3590 C   0  0  0  0  0  0  0  0  0  0  0  0
   -4.8370    0.1400   -1.3950 C   0  0  1  0  0  0  0  0  0  0  0  0
   -4.7300   -1.1420   -1.8420 O   0  0  0  0  0  0  0  0  0  0  0  0
   -6.2310    0.4520   -0.8690 C   0  0  0  0  0  0  0  0  0  0  0  0
   -6.5410   -0.3570    0.3680 C   0  0  0  0  0  0  0  0  0  0  0  0
   -7.9590    0.0400    0.7950 C   0  0  0  0  0  0  0  0  0  0  0  0
   -8.2620   -0.7560    2.0050 C   0  0  0  0  0  0  0  0  0  0  0  0
   -8.5490   -1.9670    1.8870 O   0  0  0  0  0  0  0  0  0  0  0  0
   -8.2180   -0.1340    3.2410 O   0  0  0  0  0  0  0  0  0  0  0  0
  1  2  1  0
  2  3  1  0
  3  4  1  0
  4  5  1  0
  5  6  1  0
  6  7  2  3
  7  8  1  0
  8  9  1  0
  9 10  2  3
 10 11  1  0
 11 12  1  0
 12 13  1  0
 13 14  1  0
 14 15  1  0
 15 16  1  0
 16 17  1  1
 16 18  1  0
 18 19  1  0
 19 20  1  0
 20 21  1  0
 21 22  2  0
 21 23  1  0
M  END
