
     RDKit          3D

 18 19  0  0  0  0  0  0  0  0999 V2000
   -6.0330    0.2510    0.0230 C   0  0  0  0  0  0  0  0  0  0  0  0
   -4.8460    0.7210   -0.3220 C   0  0  0  0  0  0  0  0  0  0  0  0
   -4.6390    2.1440   -0.6770 C   0  0  0  0  0  0  0  0  0  0  0  0
   -4.1600    2.1810   -1.9840 O   0  0  0  0  0  0  0  0  0  0  0  0
   -3.6940   -0.1710   -0.3600 C   0  0  0  0  0  0  0  0  0  0  0  0
   -3.6880   -1.4870   -0.0710 N   0  0  0  0  0  0  0  0  0  0  0  0
   -2.4530   -1.9300   -0.2240 N   0  0  0  0  0  0  0  0  0  0  0  0
   -1.6770   -0.8960   -0.6100 C   0  0  0  0  0  0  0  0  0  0  0  0
    0.0740   -0.9760   -0.9480 S   0  0  0  0  0  0  0  0  0  0  0  0
    1.0060   -0.6480    0.5980 C   0  0  0  0  0  0  0  0  0  0  0  0
    2.4640   -0.7090    0.3410 C   0  0  0  0  0  0  0  0  0  0  0  0
    3.0640   -1.9590    0.4960 C   0  0  0  0  0  0  0  0  0  0  0  0
    4.4100   -2.0740    0.2710 C   0  0  0  0  0  0  0  0  0  0  0  0
    5.1460   -0.9470   -0.1060 C   0  0  0  0  0  0  0  0  0  0  0  0
    4.5250    0.2810   -0.2530 C   0  0  0  0  0  0  0  0  0  0  0  0
    5.3350    1.4600   -0.6550 C   0  0  0  0  0  0  0  0  0  0  0  0
    3.2100    0.3390   -0.0210 N   0  0  0  0  0  0  0  0  0  0  0  0
   -2.4640    0.1520   -0.6810 O   0  0  0  0  0  0  0  0  0  0  0  0
  1  2  2  0
  2  3  1  0
  2  5  1  0
  3  4  1  0
  5  6  2  0
  5 18  1  0
  6  7  1  0
  7  8  2  0
  8  9  1  0
  8 18  1  0
  9 10  1  0
 10 11  1  0
 11 12  2  0
 11 17  1  0
 12 13  1  0
 13 14  2  0
 14 15  1  0
 15 16  1  0
 15 17  2  0
M  END
