
     RDKit          3D

 18 19  0  0  0  0  0  0  0  0999 V2000
    4.7310   -1.1980   -0.9190 C   0  0  0  0  0  0  0  0  0  0  0  0
    4.5550    0.2330   -1.3160 C   0  0  0  0  0  0  0  0  0  0  0  0
    3.8470    0.9400   -0.2280 C   0  0  0  0  0  0  0  0  0  0  0  0
    4.3250    1.7710    0.6780 N   0  0  0  0  0  0  0  0  0  0  0  0
    3.3720    2.1990    1.4860 N   0  0  0  0  0  0  0  0  0  0  0  0
    2.2600    1.6200    1.0750 N   0  0  0  0  0  0  0  0  0  0  0  0
    2.4760    0.8240    0.0170 C   0  0  0  0  0  0  0  0  0  0  0  0
    1.3350   -0.1760   -0.9130 S   0  0  0  0  0  0  0  0  0  0  0  0
   -0.3280   -0.0570   -0.2930 C   0  0  0  0  0  0  0  0  0  0  0  0
   -0.7070    0.7110    0.7780 C   0  0  0  0  0  0  0  0  0  0  0  0
   -2.0160    0.7950    1.2530 C   0  0  0  0  0  0  0  0  0  0  0  0
   -3.0020    0.0740    0.6240 C   0  0  0  0  0  0  0  0  0  0  0  0
   -4.3250    0.1100    1.0420 O   0  0  0  0  0  0  0  0  0  0  0  0
   -4.7370    0.8930    2.1430 C   0  0  0  0  0  0  0  0  0  0  0  0
   -2.6360   -0.7070   -0.4600 C   0  0  0  0  0  0  0  0  0  0  0  0
   -3.6750   -1.4260   -1.0690 O   0  0  0  0  0  0  0  0  0  0  0  0
   -3.4310   -2.2640   -2.1860 C   0  0  0  0  0  0  0  0  0  0  0  0
   -1.3510   -0.7850   -0.9190 C   0  0  0  0  0  0  0  0  0  0  0  0
  1  2  1  0
  2  3  1  0
  3  4  2  0
  3  7  1  0
  4  5  1  0
  5  6  1  0
  6  7  2  0
  7  8  1  0
  8  9  1  0
  9 10  2  0
  9 18  1  0
 10 11  1  0
 11 12  2  0
 12 13  1  0
 12 15  1  0
 13 14  1  0
 15 16  1  0
 15 18  2  0
 16 17  1  0
M  END
