
     RDKit          3D

 18 19  0  0  0  0  0  0  0  0999 V2000
   -6.2960    0.6560   -0.5250 C   0  0  0  0  0  0  0  0  0  0  0  0
   -4.8520    0.4390   -0.3450 N   0  0  0  0  0  0  0  0  0  0  0  0
   -4.3170   -0.4340    0.5290 C   0  0  0  0  0  0  0  0  0  0  0  0
   -2.9280   -0.3950    0.4490 C   0  0  0  0  0  0  0  0  0  0  0  0
   -1.9700   -1.2070    1.2450 C   0  0  0  0  0  0  0  0  0  0  0  0
   -0.6110   -0.8230    0.9300 N   0  0  0  0  0  0  0  0  0  0  0  0
    0.0490   -1.2060   -0.2700 C   0  0  0  0  0  0  0  0  0  0  0  0
   -0.6020   -1.9100   -1.0840 O   0  0  0  0  0  0  0  0  0  0  0  0
    1.4300   -0.8140   -0.5820 C   0  0  0  0  0  0  0  0  0  0  0  0
    2.0410   -0.0410    0.4060 O   0  0  0  0  0  0  0  0  0  0  0  0
    3.3610    0.3590    0.1630 C   0  0  0  0  0  0  0  0  0  0  0  0
    4.2770   -0.0150    1.0000 C   0  0  0  0  0  0  0  0  0  0  0  0
    5.7160    0.2540    0.9930 C   0  0  0  0  0  0  0  0  0  0  0  0
    6.2190    1.2570   -0.4120 S   0  0  0  0  0  0  0  0  0  0  0  0
    4.7530    1.6070   -1.3670 C   0  0  0  0  0  0  0  0  0  0  0  0
    3.5770    1.1620   -1.0150 C   0  0  0  0  0  0  0  0  0  0  0  0
   -2.6690    0.5500   -0.5210 C   0  0  0  0  0  0  0  0  0  0  0  0
   -3.8550    1.0230   -0.9680 N   0  0  0  0  0  0  0  0  0  0  0  0
  1  2  1  0
  2  3  1  0
  2 18  1  0
  3  4  2  0
  4  5  1  0
  4 17  1  0
  5  6  1  0
  6  7  1  0
  7  8  2  0
  7  9  1  0
  9 10  1  0
 10 11  1  0
 11 12  2  0
 11 16  1  0
 12 13  1  0
 13 14  1  0
 14 15  1  0
 15 16  2  0
 17 18  2  0
M  END
