
     RDKit          3D

 18 19  0  0  0  0  0  0  0  0999 V2000
    3.3700    1.3290    0.9440 C   0  0  0  0  0  0  0  0  0  0  0  0
    3.0640    0.2210    0.1220 O   0  0  0  0  0  0  0  0  0  0  0  0
    3.2200    0.2200   -1.2570 C   0  0  0  0  0  0  0  0  0  0  0  0
    3.6600    1.2670   -1.7950 O   0  0  0  0  0  0  0  0  0  0  0  0
    2.8960   -0.9520   -2.1160 C   0  0  0  0  0  0  0  0  0  0  0  0
    2.3010   -2.2690   -1.0570 S   0  0  0  0  0  0  0  0  0  0  0  0
    0.7430   -1.8810   -0.2840 C   0  0  0  0  0  0  0  0  0  0  0  0
    0.1570   -2.7590    0.5460 N   0  0  0  0  0  0  0  0  0  0  0  0
   -1.0200   -2.5250    1.1610 C   0  0  0  0  0  0  0  0  0  0  0  0
   -1.6370   -3.5310    2.0770 C   0  0  0  0  0  0  0  0  0  0  0  0
   -1.6080   -1.3430    0.9070 N   0  0  0  0  0  0  0  0  0  0  0  0
   -1.0720   -0.4240    0.0880 C   0  0  0  0  0  0  0  0  0  0  0  0
   -1.7620    0.8540   -0.1530 C   0  0  0  0  0  0  0  0  0  0  0  0
   -1.3760    1.8520   -0.9260 C   0  0  0  0  0  0  0  0  0  0  0  0
   -2.3720    2.9520   -0.8790 C   0  0  0  0  0  0  0  0  0  0  0  0
   -3.4040    2.4370    0.0490 C   0  0  0  0  0  0  0  0  0  0  0  0
   -3.0260    1.2400    0.4440 C   0  0  0  0  0  0  0  0  0  0  0  0
    0.1010   -0.7170   -0.4940 N   0  0  0  0  0  0  0  0  0  0  0  0
  1  2  1  0
  2  3  1  0
  3  4  2  0
  3  5  1  0
  5  6  1  0
  6  7  1  0
  7  8  2  0
  7 18  1  0
  8  9  1  0
  9 10  1  0
  9 11  2  0
 11 12  1  0
 12 13  1  0
 12 18  2  0
 13 14  2  0
 13 17  1  0
 14 15  1  0
 15 16  1  0
 16 17  2  0
M  END
