
     RDKit          3D

 10  9  0  0  0  0  0  0  0  0999 V2000
   -0.9180   -2.5390    0.7200 C   0  0  0  0  0  0  0  0  0  0  0  0
   -1.6080   -1.4940   -0.0760 C   0  0  0  0  0  0  0  0  0  0  0  0
   -1.1550   -0.2730   -0.2070 C   0  0  0  0  0  0  0  0  0  0  0  0
   -1.8150    0.6540   -0.9430 O   0  0  0  0  0  0  0  0  0  0  0  0
   -1.8070    1.9710   -0.7260 O   0  0  0  0  0  0  0  0  0  0  0  0
   -2.9780    2.2640   -0.0090 C   0  0  0  0  0  0  0  0  0  0  0  0
    0.4040    0.1560    0.6330 P   0  0  0  0  0  0  0  0  0  0  0  0
    1.8570    0.0450   -0.1450 C   0  0  0  0  0  0  0  0  0  0  0  0
    2.9930    0.3960    0.5850 O   0  0  0  0  0  0  0  0  0  0  0  0
    4.2040    0.5480   -0.1200 C   0  0  0  0  0  0  0  0  0  0  0  0
  1  2  1  0
  2  3  2  3
  3  4  1  0
  3  7  1  0
  4  5  1  0
  5  6  1  0
  7  8  2  3
  8  9  1  0
  9 10  1  0
M  END
