
     RDKit          3D

 11 10  0  0  0  0  0  0  0  0999 V2000
   -2.1680   -1.5470   -0.0760 C   0  0  0  0  0  0  0  0  0  0  0  0
   -0.9990   -0.8930    0.2810 O   0  0  0  0  0  0  0  0  0  0  0  0
   -0.7190    0.4380    0.3080 C   0  0  0  0  0  0  0  0  0  0  0  0
    0.5350    0.8360    0.1720 C   0  0  0  0  0  0  0  0  0  0  0  0
    1.6690   -0.0880   -0.0090 C   0  0  2  0  0  0  0  0  0  0  0  0
    2.0640   -0.2330   -1.4640 C   0  0  0  0  0  0  0  0  0  0  0  0
    1.3140   -1.3970    0.4810 N   0  0  0  0  0  0  0  0  0  0  0  0
    3.1470    0.5570    0.9090 P   0  0  0  0  0  0  0  0  0  0  0  0
   -1.8090    1.4170    0.4890 C   0  0  0  0  0  0  0  0  0  0  0  0
   -2.8260    1.4040   -0.5720 C   0  0  0  0  0  0  0  0  0  0  0  0
   -3.8040    2.1590   -0.4990 O   0  0  0  0  0  0  0  0  0  0  0  0
  1  2  1  0
  2  3  1  0
  3  4  2  3
  3  9  1  0
  4  5  1  0
  5  6  1  6
  5  7  1  0
  5  8  1  0
  9 10  1  0
 10 11  2  0
M  END
