
     RDKit          3D

 10  9  0  0  0  0  0  0  0  0999 V2000
   -3.4690    0.4990   -0.3940 C   0  0  0  0  0  0  0  0  0  0  0  0
   -2.3960   -0.2330   -0.4140 C   0  0  0  0  0  0  0  0  0  0  0  0
   -1.2940   -0.7830    0.0060 C   0  0  0  0  0  0  0  0  0  0  0  0
   -1.2830   -2.1210    0.0050 O   0  0  0  0  0  0  0  0  0  0  0  0
   -0.1700   -0.0740    0.4400 N   0  0  0  0  0  0  0  0  0  0  0  0
    0.1260    0.2020    1.7240 O   0  0  0  0  0  0  0  0  0  0  0  0
    0.9670    0.5110   -0.8190 P   0  0  0  0  0  0  0  0  0  0  0  0
    1.3890    2.2800   -0.5820 C   0  0  0  0  0  0  0  0  0  0  0  0
    2.3180   -0.5080   -1.0320 O   0  0  0  0  0  0  0  0  0  0  0  0
    2.4090   -1.4520   -0.0110 C   0  0  0  0  0  0  0  0  0  0  0  0
  1  2  2  0
  2  3  2  0
  3  4  1  0
  3  5  1  0
  5  6  1  0
  5  7  1  0
  7  8  1  0
  7  9  1  0
  9 10  1  0
M  END
