
     RDKit          3D

 11 11  0  0  0  0  0  0  0  0999 V2000
    3.8220    1.2730   -0.8050 C   0  0  0  0  0  0  0  0  0  0  0  0
    3.2360    0.3380    0.4250 P   0  0  0  0  0  0  0  0  0  0  0  0
    1.5410    0.3350    0.7710 O   0  0  0  0  0  0  0  0  0  0  0  0
    0.9170   -0.5860   -0.0720 C   0  0  1  0  0  0  0  0  0  0  0  0
    0.2920   -1.6730    0.8020 C   0  0  0  0  0  0  0  0  0  0  0  0
   -0.4280    0.2480   -1.0770 P   0  0  0  0  0  0  0  0  0  0  0  0
   -1.9220   -0.8070   -1.0140 C   0  0  0  0  0  0  0  0  0  0  0  0
   -2.9550   -0.3410   -0.4250 N   0  0  0  0  0  0  0  0  0  0  0  0
   -2.9630    0.9710    0.1780 C   0  0  0  0  0  0  0  0  0  0  0  0
   -1.7320    1.3090    0.7220 O   0  0  0  0  0  0  0  0  0  0  0  0
   -0.8590    1.7100   -0.1990 O   0  0  0  0  0  0  0  0  0  0  0  0
  1  2  2  0
  2  3  1  0
  3  4  1  0
  4  5  1  1
  4  6  1  0
  6  7  1  0
  6 11  1  0
  7  8  2  0
  8  9  1  0
  9 10  1  0
 10 11  1  0
M  END
