
     RDKit          3D

 11 10  0  0  0  0  0  0  0  0999 V2000
   -2.9180    1.4610    2.0960 C   0  0  0  0  0  0  0  0  0  0  0  0
   -2.5560    0.1810    1.6940 O   0  0  0  0  0  0  0  0  0  0  0  0
   -2.4040    0.0720    0.3630 N   0  0  0  0  0  0  0  0  0  0  0  0
   -1.3140   -0.6900   -0.1220 C   0  0  0  0  0  0  0  0  0  0  0  0
   -1.2760   -2.1850    0.0030 C   0  0  0  0  0  0  0  0  0  0  0  0
   -0.0660    0.1450   -0.8410 P   0  0  0  0  0  0  0  0  0  0  0  0
    1.3750   -0.7890   -1.4890 C   0  0  0  0  0  0  0  0  0  0  0  0
    2.9860    0.0280   -1.0820 P   0  0  0  0  0  0  0  0  0  0  0  0
    2.8690    1.8470   -1.3120 C   0  0  0  0  0  0  0  0  0  0  0  0
    3.7070   -0.5070    0.9100 P   0  0  0  0  0  0  0  0  0  0  0  0
    4.2890   -1.9090    1.2160 O   0  0  0  0  0  0  0  0  0  0  0  0
  1  2  1  0
  2  3  1  0
  3  4  1  0
  4  5  1  0
  4  6  2  3
  6  7  1  0
  7  8  1  0
  8  9  1  0
  8 10  1  0
 10 11  2  0
M  END
