
     RDKit          3D

 20 19  0  0  0  0  0  0  0  0999 V2000
    4.2420    3.0220    0.1350 O   0  0  0  0  0  0  0  0  0  0  0  0
    4.8140    1.8910    0.1230 C   0  0  0  0  0  0  0  0  0  0  0  0
    6.1540    1.8730    0.4380 O   0  0  0  0  0  0  0  0  0  0  0  0
    4.0710    0.6890   -0.2080 C   0  0  0  0  0  0  0  0  0  0  0  0
    4.7000   -0.4170   -0.1880 O   0  0  0  0  0  0  0  0  0  0  0  0
    2.6340    0.7090   -0.5580 C   0  0  0  0  0  0  0  0  0  0  0  0
    1.8760   -0.2600    0.3310 C   0  0  1  0  0  0  0  0  0  0  0  0
    2.0110    0.1020    1.6460 O   0  0  0  0  0  0  0  0  0  0  0  0
    0.4390   -0.3840   -0.1420 C   0  0  1  0  0  0  0  0  0  0  0  0
    0.5470   -0.7850   -1.4990 O   0  0  0  0  0  0  0  0  0  0  0  0
   -0.1940   -1.5650    0.5980 C   0  0  2  0  0  0  0  0  0  0  0  0
    0.7280   -2.6190    0.4170 O   0  0  0  0  0  0  0  0  0  0  0  0
   -1.5120   -1.9420   -0.0110 C   0  0  2  0  0  0  0  0  0  0  0  0
   -1.4070   -2.1850   -1.3700 O   0  0  0  0  0  0  0  0  0  0  0  0
   -2.6370   -0.9970    0.3430 C   0  0  0  0  0  0  0  0  0  0  0  0
   -2.4080    0.1770   -0.2960 O   0  0  0  0  0  0  0  0  0  0  0  0
   -3.6000    1.3430   -0.0000 P   0  0  0  0  0  0  0  0  0  0  0  0
   -5.0560    0.8760    0.6280 O   0  0  0  0  0  0  0  0  0  0  0  0
   -4.0980    1.0850   -1.4220 O   0  0  0  0  0  0  0  0  0  0  0  0
   -3.2400    2.9050   -0.1220 O   0  0  0  0  0  0  0  0  0  0  0  0
  1  2  2  0
  2  3  1  0
  2  4  1  0
  4  5  2  0
  4  6  1  0
  6  7  1  0
  7  8  1  1
  7  9  1  0
  9 10  1  6
  9 11  1  0
 11 12  1  6
 11 13  1  0
 13 14  1  6
 13 15  1  0
 15 16  1  0
 16 17  1  0
 17 18  1  0
 17 19  1  0
 17 20  1  0
M  END
