
     RDKit          3D

 10  9  0  0  0  0  0  0  0  0999 V2000
   -0.3110    2.5080   -0.4370 C   0  0  0  0  0  0  0  0  0  0  0  0
    0.3810    1.4730   -0.8690 C   0  0  0  0  0  0  0  0  0  0  0  0
    0.4710    0.3050   -0.0850 N   0  0  0  0  0  0  0  0  0  0  0  0
   -0.3210   -0.8750   -0.2830 C   0  0  0  0  0  0  0  0  0  0  0  0
   -1.7630   -0.6990    0.0270 C   0  0  0  0  0  0  0  0  0  0  0  0
   -2.2240   -0.3020    1.3770 C   0  0  0  0  0  0  0  0  0  0  0  0
   -2.8930   -0.9490   -1.1470 P   0  0  0  0  0  0  0  0  0  0  0  0
    1.3930    0.3460    0.9310 O   0  0  0  0  0  0  0  0  0  0  0  0
    1.9660   -0.8520    0.9150 O   0  0  0  0  0  0  0  0  0  0  0  0
    3.1460   -0.8450    0.1630 C   0  0  0  0  0  0  0  0  0  0  0  0
  1  2  2  0
  2  3  1  0
  3  4  1  0
  3  8  1  0
  4  5  1  0
  5  6  1  0
  5  7  2  0
  8  9  1  0
  9 10  1  0
M  END
