
     RDKit          3D

 42 46  0  0  0  0  0  0  0  0999 V2000
    9.7290   -1.6610   -2.1080 C   0  0  0  0  0  0  0  0  0  0  0  0
    8.6070   -1.3430   -1.1810 C   0  0  0  0  0  0  0  0  0  0  0  0
    7.4290   -2.0430   -1.1790 C   0  0  0  0  0  0  0  0  0  0  0  0
    6.3940   -1.7220   -0.2940 C   0  0  0  0  0  0  0  0  0  0  0  0
    6.4770   -0.7050    0.6120 C   0  0  0  0  0  0  0  0  0  0  0  0
    5.4080   -0.2400    1.4840 C   0  0  0  0  0  0  0  0  0  0  0  0
    5.6400    0.4070    2.7090 C   0  0  0  0  0  0  0  0  0  0  0  0
    6.8960    0.5810    3.4560 C   0  0  0  0  0  0  0  0  0  0  0  0
    4.3920    0.8330    3.1680 C   0  0  0  0  0  0  0  0  0  0  0  0
    3.4700    0.4430    2.2380 C   0  0  0  0  0  0  0  0  0  0  0  0
    4.0930   -0.2150    1.2060 N   0  0  0  0  0  0  0  0  0  0  0  0
    3.3570   -0.7460    0.0760 C   0  0  0  0  0  0  0  0  0  0  0  0
    3.3600    0.2030   -1.0770 C   0  0  0  0  0  0  0  0  0  0  0  0
    2.6540    1.4850   -0.9630 C   0  0  0  0  0  0  0  0  0  0  0  0
    1.1820    1.5180   -0.9340 C   0  0  1  0  0  0  0  0  0  0  0  0
    0.7680    3.0040   -0.7760 C   0  0  0  0  0  0  0  0  0  0  0  0
    0.6440    1.1470   -2.2730 N   0  0  0  0  0  0  0  0  0  0  0  0
    0.0840   -0.1470   -2.1520 C   0  0  0  0  0  0  0  0  0  0  0  0
   -0.2290   -0.9070   -3.1070 O   0  0  0  0  0  0  0  0  0  0  0  0
   -0.0820   -0.4850   -0.7900 N   0  0  0  0  0  0  0  0  0  0  0  0
   -0.6020   -1.6760   -0.1890 C   0  0  0  0  0  0  0  0  0  0  0  0
   -2.0630   -1.5390   -0.0020 C   0  0  0  0  0  0  0  0  0  0  0  0
   -2.8180   -2.5730    0.5630 C   0  0  0  0  0  0  0  0  0  0  0  0
   -4.0660   -2.1270    0.5850 N   0  0  0  0  0  0  0  0  0  0  0  0
   -4.1340   -0.8870    0.0700 C   0  0  0  0  0  0  0  0  0  0  0  0
   -5.3780   -0.0980   -0.0550 C   0  0  0  0  0  0  0  0  0  0  0  0
   -6.5520   -0.5950    0.3530 N   0  0  0  0  0  0  0  0  0  0  0  0
   -7.7140    0.0380    0.2800 N   0  0  0  0  0  0  0  0  0  0  0  0
   -8.9240   -0.6080    0.7570 C   0  0  1  0  0  0  0  0  0  0  0  0
   -9.6560    0.1990    1.8040 C   0  0  0  0  0  0  0  0  0  0  0  0
   -9.8160   -1.0970   -0.3490 C   0  0  0  0  0  0  0  0  0  0  0  0
   -7.7610    1.2740   -0.2350 C   0  0  0  0  0  0  0  0  0  0  0  0
   -9.0560    1.9900   -0.3210 C   0  0  0  0  0  0  0  0  0  0  0  0
   -6.5750    1.8330   -0.6710 C   0  0  0  0  0  0  0  0  0  0  0  0
   -5.3710    1.1670   -0.5920 C   0  0  0  0  0  0  0  0  0  0  0  0
   -4.2970    1.6910   -0.9940 O   0  0  0  0  0  0  0  0  0  0  0  0
   -2.8980   -0.5280   -0.2900 N   0  0  0  0  0  0  0  0  0  0  0  0
    0.4060    0.6740   -0.0670 C   0  0  0  0  0  0  0  0  0  0  0  0
    0.1230    0.8230    1.1570 O   0  0  0  0  0  0  0  0  0  0  0  0
    7.6970   -0.0010    0.5880 C   0  0  0  0  0  0  0  0  0  0  0  0
    8.7220   -0.3160   -0.2810 C   0  0  0  0  0  0  0  0  0  0  0  0
   10.2180    0.6000   -0.2580 Cl  0  0  0  0  0  0  0  0  0  0  0  0
  1  2  1  0
  2  3  2  0
  2 41  1  0
  3  4  1  0
  4  5  2  0
  5  6  1  0
  5 40  1  0
  6  7  2  0
  6 11  1  0
  7  8  1  0
  7  9  1  0
  9 10  2  0
 10 11  1  0
 11 12  1  0
 12 13  1  0
 13 14  1  0
 14 15  1  0
 15 16  1  1
 15 17  1  0
 15 38  1  0
 17 18  1  0
 18 19  2  0
 18 20  1  0
 20 21  1  0
 20 38  1  0
 21 22  1  0
 22 23  2  0
 22 37  1  0
 23 24  1  0
 24 25  1  0
 25 26  1  0
 25 37  2  0
 26 27  2  0
 26 35  1  0
 27 28  1  0
 28 29  1  0
 28 32  1  0
 29 30  1  6
 29 31  1  0
 32 33  1  0
 32 34  2  0
 34 35  1  0
 35 36  2  0
 38 39  2  0
 40 41  2  0
 41 42  1  0
M  END
