
     RDKit          3D

 42 45  0  0  0  0  0  0  0  0999 V2000
   -7.9580    3.3530    2.5210 C   0  0  0  0  0  0  0  0  0  0  0  0
   -7.6710    4.0490    1.2250 C   0  0  0  0  0  0  0  0  0  0  0  0
   -6.6110    3.5460    0.5150 O   0  0  0  0  0  0  0  0  0  0  0  0
   -6.8650    2.1720    0.2010 C   0  0  0  0  0  0  0  0  0  0  0  0
   -5.7140    1.6150   -0.5770 C   0  0  0  0  0  0  0  0  0  0  0  0
   -5.7960    0.2190   -1.0330 C   0  0  0  0  0  0  0  0  0  0  0  0
   -5.9270   -0.8740   -0.0450 C   0  0  2  0  0  0  0  0  0  0  0  0
   -7.1670   -0.7800    0.7710 C   0  0  0  0  0  0  0  0  0  0  0  0
   -4.6660   -1.0880    0.7670 C   0  0  2  0  0  0  0  0  0  0  0  0
   -3.5650   -1.4240   -0.2140 C   0  0  0  0  0  0  0  0  0  0  0  0
   -2.5560   -0.6990   -0.5820 O   0  0  0  0  0  0  0  0  0  0  0  0
   -1.7880   -1.3370   -1.4730 C   0  0  0  0  0  0  0  0  0  0  0  0
   -0.6040   -0.7840   -2.0590 C   0  0  0  0  0  0  0  0  0  0  0  0
   -0.3020    0.4180   -1.6900 O   0  0  0  0  0  0  0  0  0  0  0  0
    0.2750   -1.3570   -2.9740 N   0  0  0  0  0  0  0  0  0  0  0  0
    0.1370   -2.6850   -3.5000 C   0  0  0  0  0  0  0  0  0  0  0  0
    1.4140   -0.6100   -3.4680 C   0  0  0  0  0  0  0  0  0  0  0  0
    1.5600    0.5490   -3.0300 O   0  0  0  0  0  0  0  0  0  0  0  0
    2.3720   -1.1510   -4.4350 C   0  0  0  0  0  0  0  0  0  0  0  0
    3.6630    0.0550   -4.8510 S   0  0  0  0  0  0  0  0  0  0  0  0
    4.6410    0.3470   -3.3790 C   0  0  0  0  0  0  0  0  0  0  0  0
    4.3890    1.2800   -2.4620 N   0  0  0  0  0  0  0  0  0  0  0  0
    5.3480    1.1970   -1.4960 C   0  0  0  0  0  0  0  0  0  0  0  0
    5.4080    2.0770   -0.2960 C   0  0  0  0  0  0  0  0  0  0  0  0
    6.1800    0.1970   -1.8520 C   0  0  0  0  0  0  0  0  0  0  0  0
    7.3550   -0.3110   -1.1900 C   0  0  0  0  0  0  0  0  0  0  0  0
    7.9850   -1.3020   -1.7310 O   0  0  0  0  0  0  0  0  0  0  0  0
    7.9170    0.1530    0.0070 N   0  0  0  0  0  0  0  0  0  0  0  0
    9.1310   -0.4770    0.5590 C   0  0  0  0  0  0  0  0  0  0  0  0
    9.5110    0.1910    1.8060 C   0  0  0  0  0  0  0  0  0  0  0  0
    9.0900   -0.1150    3.0830 C   0  0  0  0  0  0  0  0  0  0  0  0
    9.7220    0.7940    3.9230 C   0  0  0  0  0  0  0  0  0  0  0  0
   10.4860    1.5960    3.1090 C   0  0  0  0  0  0  0  0  0  0  0  0
   11.3390    2.7140    3.5670 C   0  0  0  0  0  0  0  0  0  0  0  0
   10.3380    1.2130    1.8750 O   0  0  0  0  0  0  0  0  0  0  0  0
    5.7140   -0.2890   -2.9980 O   0  0  0  0  0  0  0  0  0  0  0  0
   -2.3800   -2.5550   -1.6640 C   0  0  0  0  0  0  0  0  0  0  0  0
   -3.5310   -2.6160   -0.8510 C   0  0  0  0  0  0  0  0  0  0  0  0
   -4.4890   -3.7290   -0.7240 C   0  0  0  0  0  0  0  0  0  0  0  0
   -5.4000   -3.6720    0.8490 S   0  0  0  0  0  0  0  0  0  0  0  0
   -4.7170   -2.2190    1.7270 C   0  0  2  0  0  0  0  0  0  0  0  0
   -5.3660   -1.9690    3.0370 C   0  0  0  0  0  0  0  0  0  0  0  0
  1  2  1  0
  2  3  1  0
  3  4  1  0
  4  5  1  0
  5  6  1  0
  6  7  1  0
  7  8  1  1
  7  9  1  0
  9 10  1  6
  9 41  1  0
 10 11  1  0
 10 38  2  0
 11 12  1  0
 12 13  1  0
 12 37  2  0
 13 14  2  0
 13 15  1  0
 15 16  1  0
 15 17  1  0
 17 18  2  0
 17 19  1  0
 19 20  1  0
 20 21  1  0
 21 22  2  0
 21 36  1  0
 22 23  1  0
 23 24  1  0
 23 25  2  0
 25 26  1  0
 25 36  1  0
 26 27  2  0
 26 28  1  0
 28 29  1  0
 29 30  1  0
 30 31  2  0
 30 35  1  0
 31 32  1  0
 32 33  2  0
 33 34  1  0
 33 35  1  0
 37 38  1  0
 38 39  1  0
 39 40  1  0
 40 41  1  0
 41 42  1  1
M  END
