
     RDKit          3D

 42 46  0  0  0  0  0  0  0  0999 V2000
   -6.8330   -3.5290   -0.3060 C   0  0  0  0  0  0  0  0  0  0  0  0
   -5.9200   -2.4630   -0.8420 C   0  0  0  0  0  0  0  0  0  0  0  0
   -5.5710   -1.4430    0.2590 C   0  0  0  0  0  0  0  0  0  0  0  0
   -4.7010   -0.4600   -0.3290 N   0  0  0  0  0  0  0  0  0  0  0  0
   -5.1620    0.4630   -1.2790 C   0  0  0  0  0  0  0  0  0  0  0  0
   -5.9320    1.6540   -0.9780 C   0  0  0  0  0  0  0  0  0  0  0  0
   -7.2040    1.6870   -0.2540 C   0  0  2  0  0  0  0  0  0  0  0  0
   -7.7120    3.1710   -0.2500 C   0  0  0  0  0  0  0  0  0  0  0  0
   -7.1040    1.3870    1.2290 C   0  0  0  0  0  0  0  0  0  0  0  0
   -8.3180    0.8650   -0.8270 C   0  0  0  0  0  0  0  0  0  0  0  0
   -3.3090   -0.4330    0.1100 C   0  0  0  0  0  0  0  0  0  0  0  0
   -2.6980   -1.4990    0.6390 C   0  0  0  0  0  0  0  0  0  0  0  0
   -1.3390   -1.1790    0.9950 C   0  0  0  0  0  0  0  0  0  0  0  0
   -1.1010    0.0600    0.6940 C   0  0  0  0  0  0  0  0  0  0  0  0
   -0.2010    1.2040    0.6540 C   0  0  0  0  0  0  0  0  0  0  0  0
    1.2380    1.2470    0.5490 C   0  0  0  0  0  0  0  0  0  0  0  0
    1.7610    2.4490    0.6330 O   0  0  0  0  0  0  0  0  0  0  0  0
    2.1780    0.1940    0.3710 C   0  0  0  0  0  0  0  0  0  0  0  0
    1.9600   -1.1010    0.1290 N   0  0  0  0  0  0  0  0  0  0  0  0
    3.1590   -1.7260    0.1150 C   0  0  0  0  0  0  0  0  0  0  0  0
    3.4750   -3.0480   -0.0820 C   0  0  0  0  0  0  0  0  0  0  0  0
    4.7970   -3.4320   -0.0400 C   0  0  0  0  0  0  0  0  0  0  0  0
    5.8350   -2.5170    0.1980 C   0  0  0  0  0  0  0  0  0  0  0  0
    7.1380   -2.9790    0.2460 N   0  0  0  0  0  0  0  0  0  0  0  0
    8.2840   -2.1730    0.1760 C   0  0  0  0  0  0  0  0  0  0  0  0
    9.4820   -2.8160    0.2500 N   0  0  0  0  0  0  0  0  0  0  0  0
   10.6310   -2.1760    0.1810 N   0  0  0  0  0  0  0  0  0  0  0  0
   10.6300   -0.8400    0.0310 C   0  0  0  0  0  0  0  0  0  0  0  0
    9.4400   -0.1530   -0.0480 C   0  0  0  0  0  0  0  0  0  0  0  0
    9.4550    1.3040   -0.2130 C   0  0  0  0  0  0  0  0  0  0  0  0
    8.3870    1.9680   -0.2910 O   0  0  0  0  0  0  0  0  0  0  0  0
   10.6600    1.9470   -0.2830 O   0  0  0  0  0  0  0  0  0  0  0  0
   10.6950    3.3610   -0.4430 C   0  0  0  0  0  0  0  0  0  0  0  0
    8.3010   -0.8460    0.0270 N   0  0  0  0  0  0  0  0  0  0  0  0
    5.4890   -1.2160    0.3910 C   0  0  0  0  0  0  0  0  0  0  0  0
    4.1540   -0.8320    0.3480 C   0  0  0  0  0  0  0  0  0  0  0  0
    3.5580    0.3980    0.5130 C   0  0  0  0  0  0  0  0  0  0  0  0
    4.2490    1.6800    0.7870 C   0  0  0  0  0  0  0  0  0  0  0  0
   -1.0290    2.2790    0.6990 C   0  0  0  0  0  0  0  0  0  0  0  0
   -2.4050    1.8110    0.7560 N   0  0  0  0  0  0  0  0  0  0  0  0
   -2.3350    0.5910    0.0120 C   0  0  2  0  0  0  0  0  0  0  0  0
   -1.7780    0.8930   -1.6690 Cl  0  0  0  0  0  0  0  0  0  0  0  0
  1  2  1  0
  2  3  1  0
  3  4  1  0
  4  5  1  0
  4 11  1  0
  5  6  1  0
  6  7  1  0
  7  8  1  1
  7  9  1  0
  7 10  1  0
 11 12  2  0
 11 41  1  0
 12 13  1  0
 13 14  2  0
 14 15  1  0
 14 41  1  0
 15 16  1  0
 15 39  2  0
 16 17  2  0
 16 18  1  0
 18 19  1  0
 18 37  2  0
 19 20  1  0
 20 21  2  0
 20 36  1  0
 21 22  1  0
 22 23  2  0
 23 24  1  0
 23 35  1  0
 24 25  1  0
 25 26  2  0
 25 34  1  0
 26 27  1  0
 27 28  2  0
 28 29  1  0
 29 30  1  0
 29 34  2  0
 30 31  2  0
 30 32  1  0
 32 33  1  0
 35 36  2  0
 36 37  1  0
 37 38  1  0
 39 40  1  0
 40 41  1  0
 41 42  1  6
M  END
