
     RDKit          3D

 42 45  0  0  0  0  0  0  0  0999 V2000
   -2.9990    7.6070   -1.2240 C   0  0  0  0  0  0  0  0  0  0  0  0
   -3.8640    6.4960   -1.7440 C   0  0  0  0  0  0  0  0  0  0  0  0
   -4.9340    5.9320   -0.4510 S   0  0  1  0  0  0  0  0  0  0  0  0
   -5.8390    7.0300    0.0350 O   0  0  0  0  0  0  0  0  0  0  0  0
   -5.8160    4.8090   -0.9070 O   0  0  0  0  0  0  0  0  0  0  0  0
   -3.9790    5.3670    0.8460 N   0  0  0  0  0  0  0  0  0  0  0  0
   -4.0640    6.0070    2.1660 C   0  0  0  0  0  0  0  0  0  0  0  0
   -3.0830    4.2650    0.6740 C   0  0  0  0  0  0  0  0  0  0  0  0
   -1.7760    4.4400    0.2830 C   0  0  0  0  0  0  0  0  0  0  0  0
   -0.9170    3.3460    0.1200 C   0  0  0  0  0  0  0  0  0  0  0  0
   -1.3330    2.0540    0.3420 C   0  0  0  0  0  0  0  0  0  0  0  0
   -0.4820    0.8740    0.2010 C   0  0  0  0  0  0  0  0  0  0  0  0
    0.7900    0.9360   -0.1160 C   0  0  0  0  0  0  0  0  0  0  0  0
    1.5930   -0.2470   -0.2430 C   0  0  0  0  0  0  0  0  0  0  0  0
    1.0640   -1.3700   -0.0390 O   0  0  0  0  0  0  0  0  0  0  0  0
    2.9920   -0.1830   -0.5980 N   0  0  0  0  0  0  0  0  0  0  0  0
    3.6930   -1.4430   -0.6940 C   0  0  0  0  0  0  0  0  0  0  0  0
    5.1410   -1.2630   -1.0700 C   0  0  1  0  0  0  0  0  0  0  0  0
    5.8920   -0.3920   -0.1170 C   0  0  0  0  0  0  0  0  0  0  0  0
    7.3090   -0.8980    0.0700 C   0  0  2  0  0  0  0  0  0  0  0  0
    8.0710    0.0060    1.0130 C   0  0  0  0  0  0  0  0  0  0  0  0
    8.0680   -0.9870   -1.2230 C   0  0  0  0  0  0  0  0  0  0  0  0
    7.2880   -2.2990    0.6930 C   0  0  0  0  0  0  0  0  0  0  0  0
    6.1080   -3.0180    0.0940 C   0  0  0  0  0  0  0  0  0  0  0  0
    5.7310   -2.5150   -1.1390 O   0  0  0  0  0  0  0  0  0  0  0  0
   -1.0800   -0.4170    0.4010 N   0  0  0  0  0  0  0  0  0  0  0  0
   -1.7960   -0.9830   -0.7210 C   0  0  0  0  0  0  0  0  0  0  0  0
   -2.3830   -2.3140   -0.4120 C   0  0  0  0  0  0  0  0  0  0  0  0
   -2.8740   -2.5700    0.8440 C   0  0  0  0  0  0  0  0  0  0  0  0
   -3.4250   -3.8130    1.1530 C   0  0  0  0  0  0  0  0  0  0  0  0
   -3.4850   -4.7970    0.2040 C   0  0  0  0  0  0  0  0  0  0  0  0
   -3.0030   -4.5700   -1.0530 C   0  0  0  0  0  0  0  0  0  0  0  0
   -2.4560   -3.3220   -1.3420 C   0  0  0  0  0  0  0  0  0  0  0  0
   -3.1760   -5.7870   -1.8420 C   0  0  0  0  0  0  0  0  0  0  0  0
   -2.8110   -5.8440   -3.0510 O   0  0  0  0  0  0  0  0  0  0  0  0
   -3.7590   -6.7380   -1.0540 O   0  0  0  0  0  0  0  0  0  0  0  0
   -4.0050   -6.1720    0.2150 C   0  0  2  0  0  0  0  0  0  0  0  0
   -5.5110   -6.2410    0.4210 C   0  0  0  0  0  0  0  0  0  0  0  0
   -6.0410   -5.5310    1.9540 S   0  0  0  0  0  0  0  0  0  0  0  0
   -6.5070   -4.1100    1.8560 O   0  0  0  0  0  0  0  0  0  0  0  0
   -2.6560    1.9020    0.7360 C   0  0  0  0  0  0  0  0  0  0  0  0
   -3.5140    2.9760    0.9000 C   0  0  0  0  0  0  0  0  0  0  0  0
  1  2  1  0
  3  2  1  6
  3  4  2  0
  3  5  2  0
  3  6  1  0
  6  7  1  0
  6  8  1  0
  8  9  2  0
  8 42  1  0
  9 10  1  0
 10 11  2  0
 11 12  1  0
 11 41  1  0
 12 13  2  3
 12 26  1  0
 13 14  1  0
 14 15  2  0
 14 16  1  0
 16 17  1  0
 18 17  1  1
 18 19  1  0
 18 25  1  0
 19 20  1  0
 20 21  1  1
 20 22  1  0
 20 23  1  0
 23 24  1  0
 24 25  1  0
 26 27  1  0
 27 28  1  0
 28 29  2  0
 28 33  1  0
 29 30  1  0
 30 31  2  0
 31 32  1  0
 31 37  1  0
 32 33  2  0
 32 34  1  0
 34 35  2  0
 34 36  1  0
 36 37  1  0
 37 38  1  6
 38 39  1  0
 39 40  2  0
 41 42  2  0
M  END
