
     RDKit          3D

 42 45  0  0  0  0  0  0  0  0999 V2000
   -8.2880    1.5360   -1.5260 C   0  0  0  0  0  0  0  0  0  0  0  0
   -7.0140    0.7030   -1.3210 C   0  0  0  0  0  0  0  0  0  0  0  0
   -5.8600    1.6480   -1.2680 C   0  0  0  0  0  0  0  0  0  0  0  0
   -4.5490    0.9960   -1.0220 C   0  0  0  0  0  0  0  0  0  0  0  0
   -4.5420    0.2500    0.2730 C   0  0  0  0  0  0  0  0  0  0  0  0
   -3.6100   -0.6040    0.4430 N   0  0  0  0  0  0  0  0  0  0  0  0
   -3.2550   -1.4860    1.4650 C   0  0  0  0  0  0  0  0  0  0  0  0
   -1.6540   -2.0580    1.7520 S   0  0  0  0  0  0  0  0  0  0  0  0
   -0.2560   -1.0070    1.5710 C   0  0  0  0  0  0  0  0  0  0  0  0
    0.2530   -0.8580    0.1860 C   0  0  0  0  0  0  0  0  0  0  0  0
   -0.4600   -0.7090   -0.9310 C   0  0  0  0  0  0  0  0  0  0  0  0
    0.1590   -0.7210   -2.2130 C   0  0  0  0  0  0  0  0  0  0  0  0
   -0.4830   -0.5240   -3.3750 O   0  0  0  0  0  0  0  0  0  0  0  0
   -1.8530   -0.1890   -3.5250 C   0  0  0  0  0  0  0  0  0  0  0  0
    1.5600   -0.9200   -2.2430 C   0  0  0  0  0  0  0  0  0  0  0  0
    2.2400   -0.9590   -3.4370 O   0  0  0  0  0  0  0  0  0  0  0  0
    3.0700    0.1480   -3.7280 C   0  0  0  0  0  0  0  0  0  0  0  0
    2.2690   -1.0740   -1.0990 C   0  0  0  0  0  0  0  0  0  0  0  0
    3.6690   -1.3230   -1.0410 O   0  0  0  0  0  0  0  0  0  0  0  0
    3.8720   -2.6810   -0.4890 C   0  0  0  0  0  0  0  0  0  0  0  0
    1.6170   -1.0280    0.1000 C   0  0  0  0  0  0  0  0  0  0  0  0
    2.3860   -1.1170    1.2860 O   0  0  0  0  0  0  0  0  0  0  0  0
    2.6390    0.1910    1.8490 C   0  0  0  0  0  0  0  0  0  0  0  0
    3.2970    1.1470    0.9620 C   0  0  1  0  0  0  0  0  0  0  0  0
    3.3580    2.4440    1.5630 O   0  0  0  0  0  0  0  0  0  0  0  0
    4.8000    0.8290    0.7840 C   0  0  0  0  0  0  0  0  0  0  0  0
    5.5640    2.1290   -0.2330 S   0  0  0  0  0  0  0  0  0  0  0  0
    7.1720    1.6200   -0.8180 C   0  0  2  0  0  0  0  0  0  0  0  0
    7.2200    0.7910   -2.0250 C   0  0  0  0  0  0  0  0  0  0  0  0
    6.4590    0.8100   -3.0170 O   0  0  0  0  0  0  0  0  0  0  0  0
    8.2760   -0.0870   -1.9000 O   0  0  0  0  0  0  0  0  0  0  0  0
    8.3670   -0.4550   -0.5120 C   0  0  0  0  0  0  0  0  0  0  0  0
    7.7040    0.6350    0.2570 C   0  0  1  0  0  0  0  0  0  0  0  0
    8.5380    1.3590    1.2500 C   0  0  0  0  0  0  0  0  0  0  0  0
   -4.0940   -1.8760    2.4540 N   0  0  0  0  0  0  0  0  0  0  0  0
   -5.4620   -1.4820    2.6780 C   0  0  0  0  0  0  0  0  0  0  0  0
   -6.0450   -2.3600    3.5870 C   0  0  0  0  0  0  0  0  0  0  0  0
   -7.3790   -2.0550    3.9390 C   0  0  0  0  0  0  0  0  0  0  0  0
   -7.9980   -0.9680    3.4040 C   0  0  0  0  0  0  0  0  0  0  0  0
   -7.4130   -0.1060    2.5000 C   0  0  0  0  0  0  0  0  0  0  0  0
   -6.0930   -0.4050    2.1510 C   0  0  0  0  0  0  0  0  0  0  0  0
   -5.6020    0.5490    1.2060 N   0  0  0  0  0  0  0  0  0  0  0  0
  1  2  1  0
  2  3  1  0
  3  4  1  0
  4  5  1  0
  5  6  2  0
  5 42  1  0
  6  7  1  0
  7  8  1  0
  7 35  2  0
  8  9  1  0
  9 10  1  0
 10 11  2  0
 10 21  1  0
 11 12  1  0
 12 13  1  0
 12 15  2  0
 13 14  1  0
 15 16  1  0
 15 18  1  0
 16 17  1  0
 18 19  1  0
 18 21  2  0
 19 20  1  0
 21 22  1  0
 22 23  1  0
 23 24  1  0
 24 25  1  1
 24 26  1  0
 26 27  1  0
 28 27  1  1
 28 29  1  0
 28 33  1  0
 29 30  2  0
 29 31  1  0
 31 32  1  0
 32 33  1  0
 33 34  1  1
 35 36  1  0
 36 37  2  0
 36 41  1  0
 37 38  1  0
 38 39  2  0
 39 40  1  0
 40 41  2  0
 41 42  1  0
M  END
