
     RDKit          3D

 42 45  0  0  0  0  0  0  0  0999 V2000
    8.6560    4.0720    0.4930 O   0  0  0  0  0  0  0  0  0  0  0  0
    7.7460    3.9680   -0.3410 C   0  0  0  0  0  0  0  0  0  0  0  0
    7.7400    4.8360   -1.4380 O   0  0  0  0  0  0  0  0  0  0  0  0
    6.6760    2.9580   -0.1930 C   0  0  1  0  0  0  0  0  0  0  0  0
    5.3360    3.6090   -0.0950 C   0  0  0  0  0  0  0  0  0  0  0  0
    4.2120    2.5840    0.0330 C   0  0  0  0  0  0  0  0  0  0  0  0
    4.7110    1.2080   -0.2530 C   0  0  1  0  0  0  0  0  0  0  0  0
    3.8510    0.1180   -0.3050 C   0  0  0  0  0  0  0  0  0  0  0  0
    3.0120   -0.9260   -0.3210 O   0  0  0  0  0  0  0  0  0  0  0  0
    3.2400   -1.9680    0.6260 C   0  0  0  0  0  0  0  0  0  0  0  0
    4.2200   -1.8620    1.5690 C   0  0  0  0  0  0  0  0  0  0  0  0
    4.4320   -2.8570    2.4870 C   0  0  0  0  0  0  0  0  0  0  0  0
    3.6030   -3.9910    2.4180 C   0  0  0  0  0  0  0  0  0  0  0  0
    2.6400   -4.0650    1.4690 C   0  0  0  0  0  0  0  0  0  0  0  0
    2.4220   -3.0770    0.5490 C   0  0  0  0  0  0  0  0  0  0  0  0
    1.2140   -3.2260   -0.7390 S   0  0  0  0  0  0  0  0  0  0  0  0
   -0.3250   -2.3940   -0.4720 C   0  0  0  0  0  0  0  0  0  0  0  0
   -0.5470   -1.1480   -1.0770 C   0  0  0  0  0  0  0  0  0  0  0  0
   -1.7610   -0.5650   -0.9200 C   0  0  0  0  0  0  0  0  0  0  0  0
   -2.8260   -1.1300   -0.1760 C   0  0  0  0  0  0  0  0  0  0  0  0
   -4.0650   -0.3580   -0.1430 C   0  0  0  0  0  0  0  0  0  0  0  0
   -5.2090   -0.8810    0.0470 C   0  0  0  0  0  0  0  0  0  0  0  0
   -6.5730   -0.4560    0.1460 C   0  0  0  0  0  0  0  0  0  0  0  0
   -7.4270   -1.4210    0.3410 O   0  0  0  0  0  0  0  0  0  0  0  0
   -7.1420    0.8050    0.0730 N   0  0  0  0  0  0  0  0  0  0  0  0
   -6.5360    2.1070   -0.0510 C   0  0  0  0  0  0  0  0  0  0  0  0
   -6.9040    2.5060   -1.5070 C   0  0  0  0  0  0  0  0  0  0  0  0
   -8.2560    2.7030   -1.5020 O   0  0  0  0  0  0  0  0  0  0  0  0
   -8.9820    1.5800   -1.2320 C   0  0  0  0  0  0  0  0  0  0  0  0
   -8.6330    0.8820    0.0630 C   0  0  0  0  0  0  0  0  0  0  0  0
   -2.6130   -2.3310    0.4280 C   0  0  0  0  0  0  0  0  0  0  0  0
   -3.4890   -2.9710    1.3970 C   0  0  1  0  0  0  0  0  0  0  0  0
   -4.5510   -3.6690    1.1400 F   0  0  0  0  0  0  0  0  0  0  0  0
   -2.7870   -3.4820    2.5230 F   0  0  0  0  0  0  0  0  0  0  0  0
   -4.0540   -1.7950    2.1360 F   0  0  0  0  0  0  0  0  0  0  0  0
   -1.3440   -2.9530    0.2550 C   0  0  0  0  0  0  0  0  0  0  0  0
   -1.1690   -4.3190    0.8590 C   0  0  2  0  0  0  0  0  0  0  0  0
   -2.3480   -4.9320    1.2030 F   0  0  0  0  0  0  0  0  0  0  0  0
   -0.3990   -4.1650    2.0250 F   0  0  0  0  0  0  0  0  0  0  0  0
   -0.5330   -5.1070   -0.0580 F   0  0  0  0  0  0  0  0  0  0  0  0
    5.5170    1.2490   -1.5980 C   0  0  0  0  0  0  0  0  0  0  0  0
    6.7520    2.0630   -1.3930 C   0  0  0  0  0  0  0  0  0  0  0  0
  1  2  2  0
  2  3  1  0
  4  2  1  6
  4  5  1  0
  4 42  1  0
  5  6  1  0
  6  7  1  0
  7  8  1  6
  7 41  1  0
  8  9  1  0
  9 10  1  0
 10 11  2  0
 10 15  1  0
 11 12  1  0
 12 13  2  0
 13 14  1  0
 14 15  2  0
 15 16  1  0
 16 17  1  0
 17 18  2  0
 17 36  1  0
 18 19  1  0
 19 20  2  0
 20 21  1  0
 20 31  1  0
 21 22  2  3
 22 23  1  0
 23 24  2  0
 23 25  1  0
 25 26  1  0
 25 30  1  0
 26 27  1  0
 27 28  1  0
 28 29  1  0
 29 30  1  0
 31 32  1  0
 31 36  2  0
 32 33  1  6
 32 34  1  0
 32 35  1  0
 36 37  1  0
 37 38  1  1
 37 39  1  0
 37 40  1  0
 41 42  1  0
M  END
