
     RDKit          3D

 42 46  0  0  0  0  0  0  0  0999 V2000
   -6.0650   -2.7840   -1.4130 C   0  0  0  0  0  0  0  0  0  0  0  0
   -5.0300   -3.1900   -2.3680 C   0  0  0  0  0  0  0  0  0  0  0  0
   -3.8410   -2.5990   -2.3590 C   0  0  0  0  0  0  0  0  0  0  0  0
   -3.5700   -1.5460   -1.4000 C   0  0  0  0  0  0  0  0  0  0  0  0
   -2.4250   -0.9390   -1.3510 C   0  0  0  0  0  0  0  0  0  0  0  0
   -2.3030    0.0900   -0.3380 N   0  0  0  0  0  0  0  0  0  0  0  0
   -2.1520    1.3150   -0.6260 C   0  0  0  0  0  0  0  0  0  0  0  0
   -2.0400    2.2720    0.4080 N   0  0  0  0  0  0  0  0  0  0  0  0
   -2.8670    2.2230    1.5330 C   0  0  0  0  0  0  0  0  0  0  0  0
   -3.8880    1.3350    1.6580 C   0  0  0  0  0  0  0  0  0  0  0  0
   -4.6500    1.3570    2.8120 C   0  0  0  0  0  0  0  0  0  0  0  0
   -4.4280    2.2190    3.8190 N   0  0  0  0  0  0  0  0  0  0  0  0
   -3.4230    3.1100    3.7180 C   0  0  0  0  0  0  0  0  0  0  0  0
   -2.6450    3.1120    2.5800 C   0  0  0  0  0  0  0  0  0  0  0  0
   -1.2640   -1.2100   -2.2250 C   0  0  2  0  0  0  0  0  0  0  0  0
   -0.1710   -1.7910   -1.3460 C   0  0  0  0  0  0  0  0  0  0  0  0
    1.1350   -1.5730   -1.9230 N   0  0  0  0  0  0  0  0  0  0  0  0
    1.8330   -0.5400   -1.2040 C   0  0  0  0  0  0  0  0  0  0  0  0
    2.2090   -0.9220    0.1660 C   0  0  0  0  0  0  0  0  0  0  0  0
    1.9660   -2.1570    0.6530 C   0  0  0  0  0  0  0  0  0  0  0  0
    2.3480   -2.5240    1.9440 C   0  0  0  0  0  0  0  0  0  0  0  0
    2.0810   -3.8670    2.4590 C   0  0  0  0  0  0  0  0  0  0  0  0
    1.4500   -4.8570    1.7400 C   0  0  0  0  0  0  0  0  0  0  0  0
    1.3970   -5.9500    2.5680 C   0  0  0  0  0  0  0  0  0  0  0  0
    1.9750   -5.6020    3.7160 O   0  0  0  0  0  0  0  0  0  0  0  0
    2.3840   -4.3720    3.6640 N   0  0  0  0  0  0  0  0  0  0  0  0
    2.9850   -1.5790    2.7070 C   0  0  0  0  0  0  0  0  0  0  0  0
    3.2310   -0.3120    2.1970 C   0  0  0  0  0  0  0  0  0  0  0  0
    2.8570    0.0480    0.9340 C   0  0  0  0  0  0  0  0  0  0  0  0
    3.0940    1.3360    0.3990 N   0  0  0  0  0  0  0  0  0  0  0  0
    3.7430    2.4220    1.0110 C   0  0  0  0  0  0  0  0  0  0  0  0
    4.1860    2.2690    2.1770 O   0  0  0  0  0  0  0  0  0  0  0  0
    3.9150    3.7180    0.3300 C   0  0  0  0  0  0  0  0  0  0  0  0
    3.1060    4.0310   -0.7230 C   0  0  0  0  0  0  0  0  0  0  0  0
    3.2380    5.2270   -1.3850 N   0  0  0  0  0  0  0  0  0  0  0  0
    4.1570    6.1380   -1.0360 C   0  0  0  0  0  0  0  0  0  0  0  0
    4.9890    5.8540    0.0220 C   0  0  0  0  0  0  0  0  0  0  0  0
    6.2070    7.0240    0.5030 Cl  0  0  0  0  0  0  0  0  0  0  0  0
    4.8670    4.6370    0.7080 C   0  0  0  0  0  0  0  0  0  0  0  0
    1.0610   -1.2050   -3.3100 C   0  0  0  0  0  0  0  0  0  0  0  0
    0.2970    0.0880   -3.4060 C   0  0  0  0  0  0  0  0  0  0  0  0
   -0.9010   -0.0050   -2.7920 O   0  0  0  0  0  0  0  0  0  0  0  0
  1  2  1  0
  2  3  2  3
  3  4  1  0
  4  5  2  3
  5  6  1  0
 15  5  1  1
  6  7  2  3
  7  8  1  0
  8  9  1  0
  9 10  2  0
  9 14  1  0
 10 11  1  0
 11 12  2  0
 12 13  1  0
 13 14  2  0
 15 16  1  0
 15 42  1  0
 16 17  1  0
 17 18  1  0
 17 40  1  0
 18 19  1  0
 19 20  2  0
 19 29  1  0
 20 21  1  0
 21 22  1  0
 21 27  2  0
 22 23  1  0
 22 26  2  0
 23 24  2  0
 24 25  1  0
 25 26  1  0
 27 28  1  0
 28 29  2  0
 29 30  1  0
 30 31  1  0
 31 32  2  0
 31 33  1  0
 33 34  2  0
 33 39  1  0
 34 35  1  0
 35 36  2  0
 36 37  1  0
 37 38  1  0
 37 39  2  0
 40 41  1  0
 41 42  1  0
M  END
