
     RDKit          3D

 15 16  0  0  0  0  0  0  0  0999 V2000
   -2.6060   -2.0230   -1.3870 O   0  0  0  0  0  0  0  0  0  0  0  0
   -2.6670   -1.1110   -0.5220 C   0  0  0  0  0  0  0  0  0  0  0  0
   -3.8720   -0.7990    0.1340 O   0  0  0  0  0  0  0  0  0  0  0  0
   -3.5090    0.1780    1.1110 C   0  0  0  0  0  0  0  0  0  0  0  0
   -2.1500    0.0510    1.3100 O   0  0  0  0  0  0  0  0  0  0  0  0
   -1.6800   -0.2000    0.0260 C   0  0  2  0  0  0  0  0  0  0  0  0
   -1.4750    1.0650   -0.7350 C   0  0  0  0  0  0  0  0  0  0  0  0
   -0.1850    1.4530   -0.3400 O   0  0  0  0  0  0  0  0  0  0  0  0
    0.3060    0.4300    0.4590 C   0  0  2  0  0  0  0  0  0  0  0  0
    1.7890    0.3100    0.2120 C   0  0  0  0  0  0  0  0  0  0  0  0
    2.3660   -0.6940    0.9730 O   0  0  0  0  0  0  0  0  0  0  0  0
    4.0610   -0.7380    0.6070 P   0  0  0  0  0  0  0  0  0  0  0  0
    4.4860   -2.2510   -0.0900 O   0  0  0  0  0  0  0  0  0  0  0  0
    4.5180    0.5330   -0.4710 O   0  0  0  0  0  0  0  0  0  0  0  0
   -0.3860   -0.7230    0.0870 O   0  0  0  0  0  0  0  0  0  0  0  0
  1  2  2  0
  2  3  1  0
  2  6  1  0
  3  4  1  0
  4  5  1  0
  5  6  1  0
  6  7  1  6
  6 15  1  0
  7  8  1  0
  8  9  1  0
  9 10  1  6
  9 15  1  0
 10 11  1  0
 11 12  1  0
 12 13  1  0
 12 14  1  0
M  END
