
     RDKit          3D

 15 15  0  0  0  0  0  0  0  0999 V2000
   -2.4440   -1.8270   -0.2150 C   0  0  0  0  0  0  0  0  0  0  0  0
   -2.1330   -0.5120    0.4580 C   0  0  2  0  0  0  0  0  0  0  0  0
   -2.5080    0.5350   -0.3450 O   0  0  0  0  0  0  0  0  0  0  0  0
   -1.3720    0.8780   -1.0170 C   0  0  0  0  0  0  0  0  0  0  0  0
   -0.2670    0.5900   -0.0900 C   0  0  1  0  0  0  0  0  0  0  0  0
    0.9030   -0.0210   -0.8870 C   0  0  0  0  0  0  0  0  0  0  0  0
    1.9010   -0.4390   -0.0030 O   0  0  0  0  0  0  0  0  0  0  0  0
    3.2450   -1.1330   -0.8090 P   0  0  0  0  0  0  0  0  0  0  0  0
    3.3190   -2.8380   -0.5900 O   0  0  0  0  0  0  0  0  0  0  0  0
    4.7520   -0.4210   -0.3650 O   0  0  0  0  0  0  0  0  0  0  0  0
    0.2810    1.6580    0.6000 O   0  0  0  0  0  0  0  0  0  0  0  0
   -0.4600    2.4470    1.4540 C   0  0  0  0  0  0  0  0  0  0  0  0
   -1.6680    2.1210    1.5580 O   0  0  0  0  0  0  0  0  0  0  0  0
    0.0870    3.5260    2.1530 O   0  0  0  0  0  0  0  0  0  0  0  0
   -0.8010   -0.3790    0.7550 O   0  0  0  0  0  0  0  0  0  0  0  0
  2  1  1  6
  2  3  1  0
  2 15  1  0
  3  4  1  0
  4  5  1  0
  5  6  1  6
  5 11  1  0
  5 15  1  0
  6  7  1  0
  7  8  1  0
  8  9  1  0
  8 10  1  0
 11 12  1  0
 12 13  2  0
 12 14  1  0
M  END
