
     RDKit          3D

 17 16  0  0  0  0  0  0  0  0999 V2000
   -6.2560   -0.0520    0.2230 C   0  0  0  0  0  0  0  0  0  0  0  0
   -5.0570   -0.9460    0.1530 C   0  0  0  0  0  0  0  0  0  0  0  0
   -4.1100   -0.6200   -0.9600 C   0  0  0  0  0  0  0  0  0  0  0  0
   -3.5370    0.7560   -0.8940 C   0  0  0  0  0  0  0  0  0  0  0  0
   -2.7600    0.9820    0.3860 C   0  0  0  0  0  0  0  0  0  0  0  0
   -1.6350    0.0530    0.5410 C   0  0  0  0  0  0  0  0  0  0  0  0
   -1.7480   -1.1680    0.7840 O   0  0  0  0  0  0  0  0  0  0  0  0
   -0.3390    0.5450    0.4130 O   0  0  0  0  0  0  0  0  0  0  0  0
    0.7780   -0.3470    0.5620 C   0  0  0  0  0  0  0  0  0  0  0  0
    2.0110    0.4770    0.3660 C   0  0  2  0  0  0  0  0  0  0  0  0
    1.9700    1.0240   -0.9130 O   0  0  0  0  0  0  0  0  0  0  0  0
    3.2850   -0.3000    0.5190 C   0  0  0  0  0  0  0  0  0  0  0  0
    4.3470    0.5330    0.3370 O   0  0  0  0  0  0  0  0  0  0  0  0
    5.8450   -0.0250    0.4460 P   0  0  0  0  0  0  0  0  0  0  0  0
    6.9910    0.6940    1.4140 O   0  0  0  0  0  0  0  0  0  0  0  0
    6.2820   -1.4860   -0.2880 O   0  0  0  0  0  0  0  0  0  0  0  0
    6.3680    0.6980   -0.8000 O   0  0  0  0  0  0  0  0  0  0  0  0
  1  2  1  0
  2  3  1  0
  3  4  1  0
  4  5  1  0
  5  6  1  0
  6  7  2  0
  6  8  1  0
  8  9  1  0
  9 10  1  0
 10 11  1  6
 10 12  1  0
 12 13  1  0
 13 14  1  0
 14 15  1  0
 14 16  1  0
 14 17  1  0
M  END
