
     RDKit          3D

 15 15  0  0  0  0  0  0  0  0999 V2000
   -3.2140   -2.0010   -0.5880 C   0  0  0  0  0  0  0  0  0  0  0  0
   -2.1680   -1.4530    0.1600 O   0  0  0  0  0  0  0  0  0  0  0  0
   -1.9020   -0.1720   -0.3490 C   0  0  1  0  0  0  0  0  0  0  0  0
   -2.0140    0.8190    0.7750 C   0  0  0  0  0  0  0  0  0  0  0  0
   -0.6880    1.0600    1.1120 O   0  0  0  0  0  0  0  0  0  0  0  0
    0.0820    0.7960    0.0140 C   0  0  2  0  0  0  0  0  0  0  0  0
    1.3950    0.2140    0.4870 C   0  0  0  0  0  0  0  0  0  0  0  0
    2.2450   -0.0860   -0.5760 O   0  0  0  0  0  0  0  0  0  0  0  0
    3.6990   -0.7400    0.1120 P   0  0  0  0  0  0  0  0  0  0  0  0
    5.0360   -0.1280   -0.8070 O   0  0  0  0  0  0  0  0  0  0  0  0
    3.6140   -2.4700   -0.0290 O   0  0  0  0  0  0  0  0  0  0  0  0
    0.2730    2.0340   -0.7710 C   0  0  0  0  0  0  0  0  0  0  0  0
    0.9540    2.0020   -1.8210 O   0  0  0  0  0  0  0  0  0  0  0  0
   -0.3110    3.2040   -0.3170 O   0  0  0  0  0  0  0  0  0  0  0  0
   -0.5750   -0.1560   -0.7530 O   0  0  0  0  0  0  0  0  0  0  0  0
  1  2  1  0
  3  2  1  1
  3  4  1  0
  3 15  1  0
  4  5  1  0
  5  6  1  0
  6  7  1  1
  6 12  1  0
  6 15  1  0
  7  8  1  0
  8  9  1  0
  9 10  1  0
  9 11  1  0
 12 13  2  0
 12 14  1  0
M  END
