
     RDKit          3D

 16 16  0  0  0  0  0  0  0  0999 V2000
    5.1350    0.5140    0.4690 O   0  0  0  0  0  0  0  0  0  0  0  0
    4.5170    0.8000   -0.5400 C   0  0  0  0  0  0  0  0  0  0  0  0
    3.0790    1.0750   -0.4540 C   0  0  2  0  0  0  0  0  0  0  0  0
    2.5910    0.9530    0.8070 O   0  0  0  0  0  0  0  0  0  0  0  0
    2.5830   -0.3750    1.2100 C   0  0  0  0  0  0  0  0  0  0  0  0
    2.1190   -1.1440   -0.4510 P   0  0  0  0  0  0  0  0  0  0  0  0
    0.3930   -1.4980   -0.4260 O   0  0  0  0  0  0  0  0  0  0  0  0
   -0.5160   -0.6890    0.2270 C   0  0  0  0  0  0  0  0  0  0  0  0
   -0.1000    0.3530    0.8360 O   0  0  0  0  0  0  0  0  0  0  0  0
   -1.9650   -0.9500    0.2700 C   0  0  0  0  0  0  0  0  0  0  0  0
   -2.6570    0.0130    0.9900 O   0  0  0  0  0  0  0  0  0  0  0  0
   -3.9520   -0.2190    1.0300 O   0  0  0  0  0  0  0  0  0  0  0  0
   -4.8470    0.3830    0.1580 C   0  0  0  0  0  0  0  0  0  0  0  0
   -4.3990    1.1810   -0.7040 O   0  0  0  0  0  0  0  0  0  0  0  0
   -6.2200    0.1430    0.1930 O   0  0  0  0  0  0  0  0  0  0  0  0
    2.2980    0.3520   -1.3570 O   0  0  0  0  0  0  0  0  0  0  0  0
  1  2  2  0
  3  2  1  1
  3  4  1  0
  3 16  1  0
  4  5  1  0
  5  6  1  0
  6  7  1  0
  6 16  1  0
  7  8  1  0
  8  9  2  0
  8 10  1  0
 10 11  1  0
 11 12  1  0
 12 13  1  0
 13 14  2  0
 13 15  1  0
M  END
