
     RDKit          3D

 16 16  0  0  0  0  0  0  0  0999 V2000
    5.5580    0.9930    1.3970 O   0  0  0  0  0  0  0  0  0  0  0  0
    5.4540    0.7340   -0.2240 P   0  0  0  0  0  0  0  0  0  0  0  0
    4.0230   -0.3060   -0.4230 O   0  0  0  0  0  0  0  0  0  0  0  0
    2.8980    0.6150   -0.5640 C   0  0  0  0  0  0  0  0  0  0  0  0
    1.7960   -0.2590   -0.0570 C   0  0  0  0  0  0  0  0  0  0  0  0
    2.2390   -1.0040    0.8840 O   0  0  0  0  0  0  0  0  0  0  0  0
    0.4080   -0.3440   -0.4470 C   0  0  1  0  0  0  0  0  0  0  0  0
   -0.1260   -1.2800    0.5890 O   0  0  0  0  0  0  0  0  0  0  0  0
   -1.4760   -1.5870    0.3560 C   0  0  0  0  0  0  0  0  0  0  0  0
   -2.0880   -2.4990    0.9000 O   0  0  0  0  0  0  0  0  0  0  0  0
   -1.9810   -0.6900   -0.6100 O   0  0  0  0  0  0  0  0  0  0  0  0
   -1.6270    0.6430   -0.5780 C   0  0  1  0  0  0  0  0  0  0  0  0
   -2.2260    1.2360    0.7450 C   0  0  0  0  0  0  0  0  0  0  0  0
   -3.4140    0.5200    0.8050 O   0  0  0  0  0  0  0  0  0  0  0  0
   -4.2760    0.9750   -0.0720 O   0  0  0  0  0  0  0  0  0  0  0  0
   -0.2660    0.8370   -0.4690 O   0  0  0  0  0  0  0  0  0  0  0  0
  1  2  2  0
  2  3  1  0
  3  4  1  0
  4  5  1  0
  5  6  2  0
  7  5  1  1
  7  8  1  0
  7 16  1  0
  8  9  1  0
  9 10  2  0
  9 11  1  0
 11 12  1  0
 12 13  1  1
 12 16  1  0
 13 14  1  0
 14 15  1  0
M  END
