
     RDKit          3D

 15 15  0  0  0  0  0  0  0  0999 V2000
    4.3550    0.7300    0.0680 C   0  0  0  0  0  0  0  0  0  0  0  0
    3.6100   -0.0660   -0.7950 O   0  0  0  0  0  0  0  0  0  0  0  0
    2.3050   -0.8420    0.0020 P   0  0  0  0  0  0  0  0  0  0  0  0
    1.9140   -0.0290    1.4690 O   0  0  0  0  0  0  0  0  0  0  0  0
    0.9240   -1.0630   -1.0230 O   0  0  0  0  0  0  0  0  0  0  0  0
   -0.1320   -0.3200   -0.4280 C   0  0  2  0  0  0  0  0  0  0  0  0
    0.3890    1.1170   -0.4090 C   0  0  0  0  0  0  0  0  0  0  0  0
   -0.2790   -0.8350    0.8200 O   0  0  0  0  0  0  0  0  0  0  0  0
   -1.4560   -1.1000    1.2510 O   0  0  0  0  0  0  0  0  0  0  0  0
   -2.2900   -1.6870    0.3000 C   0  0  0  0  0  0  0  0  0  0  0  0
   -2.4200   -0.6220   -0.7950 C   0  0  1  0  0  0  0  0  0  0  0  0
   -3.0470    0.5560   -0.1500 C   0  0  0  0  0  0  0  0  0  0  0  0
   -2.4900    1.6780   -0.0630 O   0  0  0  0  0  0  0  0  0  0  0  0
   -4.3160    0.4340    0.3940 O   0  0  0  0  0  0  0  0  0  0  0  0
   -1.1750   -0.4020   -1.2960 O   0  0  0  0  0  0  0  0  0  0  0  0
  1  2  1  0
  2  3  1  0
  3  4  1  0
  3  5  1  0
  5  6  1  0
  6  7  1  1
  6  8  1  0
  6 15  1  0
  8  9  1  0
  9 10  1  0
 10 11  1  0
 11 12  1  1
 11 15  1  0
 12 13  2  0
 12 14  1  0
M  END
