
     RDKit          3D

 32 33  0  0  0  0  0  0  0  0999 V2000
    8.8130   -1.8130    2.0660 C   0  0  0  0  0  0  0  0  0  0  0  0
    8.1520   -1.2540    0.8660 C   0  0  0  0  0  0  0  0  0  0  0  0
    8.6170   -0.8090   -0.3020 C   0  0  0  0  0  0  0  0  0  0  0  0
    7.7660   -0.3460   -1.2340 C   0  0  0  0  0  0  0  0  0  0  0  0
    6.4330   -0.3500   -0.9380 C   0  0  0  0  0  0  0  0  0  0  0  0
    5.2340    0.0820   -1.7200 C   0  0  0  0  0  0  0  0  0  0  0  0
    4.0200   -0.1800   -0.9580 N   0  0  0  0  0  0  0  0  0  0  0  0
    3.9690    0.6730    0.2110 C   0  0  0  0  0  0  0  0  0  0  0  0
    2.7320    1.5340    0.0890 C   0  0  0  0  0  0  0  0  0  0  0  0
    1.5600    0.6330    0.0350 C   0  0  0  0  0  0  0  0  0  0  0  0
    1.6910   -0.6230    0.1010 O   0  0  0  0  0  0  0  0  0  0  0  0
    0.2630    1.2030   -0.0930 N   0  0  0  0  0  0  0  0  0  0  0  0
    0.1720    2.6510   -0.1640 C   0  0  0  0  0  0  0  0  0  0  0  0
   -1.2950    2.9990   -0.0990 C   0  0  0  0  0  0  0  0  0  0  0  0
   -2.0680    2.2640   -1.1690 C   0  0  0  0  0  0  0  0  0  0  0  0
   -1.9830    0.7850   -1.0500 C   0  0  2  0  0  0  0  0  0  0  0  0
   -1.7370    0.2000   -2.4250 C   0  0  0  0  0  0  0  0  0  0  0  0
   -2.7550    0.5140   -3.3120 O   0  0  0  0  0  0  0  0  0  0  0  0
   -3.3510    0.2550   -0.6100 C   0  0  2  0  0  0  0  0  0  0  0  0
   -4.2520    0.6790   -1.6260 O   0  0  0  0  0  0  0  0  0  0  0  0
   -3.8380    0.8810    0.6310 C   0  0  0  0  0  0  0  0  0  0  0  0
   -5.1760    0.4560    1.0730 C   0  0  0  0  0  0  0  0  0  0  0  0
   -5.4360   -0.9050    1.4880 C   0  0  0  0  0  0  0  0  0  0  0  0
   -4.5590   -1.7480    1.7530 O   0  0  0  0  0  0  0  0  0  0  0  0
   -6.8040   -1.3750    1.6190 N   0  0  0  0  0  0  0  0  0  0  0  0
   -7.1090   -2.7060    2.0220 C   0  0  0  0  0  0  0  0  0  0  0  0
   -6.5980   -3.0540    3.3410 N   0  0  0  0  0  0  0  0  0  0  0  0
   -3.3650   -1.2170   -0.7010 C   0  0  0  0  0  0  0  0  0  0  0  0
   -2.3530   -2.0730   -0.1450 N   0  0  0  0  0  0  0  0  0  0  0  0
   -4.2910   -1.8700   -1.3010 O   0  0  0  0  0  0  0  0  0  0  0  0
   -0.8800    0.3150   -0.1410 C   0  0  0  0  0  0  0  0  0  0  0  0
    6.3690   -1.0240    0.6930 S   0  0  0  0  0  0  0  0  0  0  0  0
  1  2  1  0
  2  3  2  0
  2 32  1  0
  3  4  1  0
  4  5  2  0
  5  6  1  0
  5 32  1  0
  6  7  1  0
  7  8  1  0
  8  9  1  0
  9 10  1  0
 10 11  2  0
 10 12  1  0
 12 13  1  0
 12 31  1  0
 13 14  1  0
 14 15  1  0
 15 16  1  0
 16 17  1  6
 16 19  1  0
 16 31  1  0
 17 18  1  0
 19 20  1  6
 19 21  1  0
 19 28  1  0
 21 22  1  0
 22 23  1  0
 23 24  2  0
 23 25  1  0
 25 26  1  0
 26 27  1  0
 28 29  1  0
 28 30  2  0
M  CHG  1   7   1
M  END
