
     RDKit          3D

 32 33  0  0  0  0  0  0  0  0999 V2000
   -4.6990   -2.3250    3.6660 C   0  0  0  0  0  0  0  0  0  0  0  0
   -4.9750   -1.9260    2.2590 N   0  0  0  0  0  0  0  0  0  0  0  0
   -3.9910   -1.1990    1.5780 C   0  0  0  0  0  0  0  0  0  0  0  0
   -2.9070   -0.9800    2.2970 O   0  0  0  0  0  0  0  0  0  0  0  0
   -3.9980   -0.6790    0.2620 C   0  0  0  0  0  0  0  0  0  0  0  0
   -4.8290   -0.6350   -0.6990 C   0  0  0  0  0  0  0  0  0  0  0  0
   -6.1410   -0.9780   -1.1450 C   0  0  0  0  0  0  0  0  0  0  0  0
   -6.4130   -0.6550   -2.4320 C   0  0  0  0  0  0  0  0  0  0  0  0
   -7.6590   -0.9020   -3.1140 C   0  0  0  0  0  0  0  0  0  0  0  0
   -8.2650    0.2940   -3.5650 O   0  0  0  0  0  0  0  0  0  0  0  0
   -7.2220   -1.5400   -0.3540 C   0  0  0  0  0  0  0  0  0  0  0  0
   -7.4820   -0.6870    0.7690 O   0  0  0  0  0  0  0  0  0  0  0  0
   -2.6060   -0.0190   -0.0980 C   0  0  0  0  0  0  0  0  0  0  0  0
   -2.3610    1.1760    0.7530 C   0  0  0  0  0  0  0  0  0  0  0  0
   -1.0660    1.7290    0.3400 N   0  0  0  0  0  0  0  0  0  0  0  0
    0.1230    0.9720    0.4610 C   0  0  0  0  0  0  0  0  0  0  0  0
    0.1170   -0.1930    0.9280 O   0  0  0  0  0  0  0  0  0  0  0  0
    1.4410    1.5710    0.0190 C   0  0  0  0  0  0  0  0  0  0  0  0
    2.5550    0.6020    0.2390 C   0  0  0  0  0  0  0  0  0  0  0  0
    3.8870    1.1270   -0.1790 C   0  0  1  0  0  0  0  0  0  0  0  0
    3.9230    1.4640   -1.5890 N   0  0  0  0  0  0  0  0  0  0  0  0
    4.2050    2.3130    0.6650 C   0  0  0  0  0  0  0  0  0  0  0  0
    4.4880    3.5590    0.0420 N   0  0  0  0  0  0  0  0  0  0  0  0
    4.2210    2.2100    1.8970 O   0  0  0  0  0  0  0  0  0  0  0  0
    5.0180    0.1480    0.1320 C   0  0  0  0  0  0  0  0  0  0  0  0
    6.1230    0.0060    0.2840 N   0  0  0  0  0  0  0  0  0  0  0  0
    6.8380   -1.0660    0.5570 C   0  0  0  0  0  0  0  0  0  0  0  0
    8.3470   -1.0840    0.7330 C   0  0  2  0  0  0  0  0  0  0  0  0
    9.0160    0.0980    1.3520 C   0  0  0  0  0  0  0  0  0  0  0  0
    9.1900   -0.1860   -0.0880 C   0  0  0  0  0  0  0  0  0  0  0  0
    6.1000   -2.2160    0.6770 C   0  0  0  0  0  0  0  0  0  0  0  0
    4.3970   -1.6210    0.3750 S   0  0  0  0  0  0  0  0  0  0  0  0
  1  2  1  0
  2  3  1  0
  3  4  2  0
  3  5  1  0
  5  6  2  3
  5 13  1  0
  6  7  1  0
  7  8  2  3
  7 11  1  0
  8  9  1  0
  9 10  1  0
 11 12  1  0
 13 14  1  0
 14 15  1  0
 15 16  1  0
 16 17  2  0
 16 18  1  0
 18 19  1  0
 19 20  1  0
 20 21  1  6
 20 22  1  0
 20 25  1  0
 22 23  1  0
 22 24  2  0
 25 26  2  0
 25 32  1  0
 26 27  1  0
 28 27  1  6
 27 31  2  0
 28 29  1  0
 28 30  1  0
 29 30  1  0
 31 32  1  0
M  CHG  1  21   1
M  END
