
     RDKit          3D

 33 37  0  0  0  0  0  0  0  0999 V2000
   -1.1300    7.3120   -3.3720 C   0  0  0  0  0  0  0  0  0  0  0  0
   -1.2130    6.0410   -2.6050 C   0  0  0  0  0  0  0  0  0  0  0  0
   -1.9640    4.9050   -2.9250 C   0  0  0  0  0  0  0  0  0  0  0  0
   -1.7670    3.9450   -1.9600 C   0  0  0  0  0  0  0  0  0  0  0  0
   -2.3590    2.6590   -1.9410 N   0  0  0  0  0  0  0  0  0  0  0  0
   -2.1480    1.6810   -0.9440 C   0  0  0  0  0  0  0  0  0  0  0  0
   -2.7880    0.4680   -1.0470 C   0  0  0  0  0  0  0  0  0  0  0  0
   -2.5900   -0.4970   -0.0810 C   0  0  0  0  0  0  0  0  0  0  0  0
   -3.2130   -1.7670   -0.1230 N   0  0  0  0  0  0  0  0  0  0  0  0
   -2.9370   -2.7080    0.9360 C   0  0  0  0  0  0  0  0  0  0  0  0
   -4.0090   -3.7040    1.1990 C   0  0  0  0  0  0  0  0  0  0  0  0
   -5.1600   -3.5720    0.3650 N   0  0  2  0  0  0  0  0  0  0  0  0
   -5.9300   -4.7970    0.4330 C   0  0  0  0  0  0  0  0  0  0  0  0
   -4.8390   -3.3550   -1.0310 C   0  0  0  0  0  0  0  0  0  0  0  0
   -4.0930   -2.0530   -1.2310 C   0  0  0  0  0  0  0  0  0  0  0  0
   -1.7600   -0.1900    0.9360 N   0  0  0  0  0  0  0  0  0  0  0  0
   -1.1270    0.9730    1.0640 C   0  0  0  0  0  0  0  0  0  0  0  0
   -0.0530    1.2410    2.4650 S   0  0  0  0  0  0  0  0  0  0  0  0
    1.6160    0.7260    2.1070 C   0  0  0  0  0  0  0  0  0  0  0  0
    2.6030    0.8410    3.0590 C   0  0  0  0  0  0  0  0  0  0  0  0
    3.9040    0.4560    2.8280 C   0  0  0  0  0  0  0  0  0  0  0  0
    4.2940   -0.0790    1.5960 C   0  0  0  0  0  0  0  0  0  0  0  0
    5.6540   -0.4580    1.4410 N   0  0  0  0  0  0  0  0  0  0  0  0
    6.2570   -0.9040    0.2560 C   0  0  0  0  0  0  0  0  0  0  0  0
    5.6230   -1.0070   -0.7990 O   0  0  0  0  0  0  0  0  0  0  0  0
    7.7160   -1.2850    0.2010 C   0  0  1  0  0  0  0  0  0  0  0  0
    8.6410   -0.6770    1.2460 C   0  0  0  0  0  0  0  0  0  0  0  0
    8.1670   -2.0440    1.4750 C   0  0  0  0  0  0  0  0  0  0  0  0
    3.3100   -0.1910    0.6550 C   0  0  0  0  0  0  0  0  0  0  0  0
    1.9830    0.2000    0.8880 C   0  0  0  0  0  0  0  0  0  0  0  0
   -1.3400    1.8970    0.1030 N   0  0  0  0  0  0  0  0  0  0  0  0
   -0.9210    4.4800   -1.0790 N   0  0  0  0  0  0  0  0  0  0  0  0
   -0.5940    5.7210   -1.4620 N   0  0  0  0  0  0  0  0  0  0  0  0
  1  2  1  0
  2  3  1  0
  2 33  2  0
  3  4  2  0
  4  5  1  0
  4 32  1  0
  5  6  1  0
  6  7  2  0
  6 31  1  0
  7  8  1  0
  8  9  1  0
  8 16  2  0
  9 10  1  0
  9 15  1  0
 10 11  1  0
 11 12  1  0
 12 13  1  6
 12 14  1  0
 14 15  1  0
 16 17  1  0
 17 18  1  0
 17 31  2  0
 18 19  1  0
 19 20  2  0
 19 30  1  0
 20 21  1  0
 21 22  2  0
 22 23  1  0
 22 29  1  0
 23 24  1  0
 24 25  2  0
 26 24  1  1
 26 27  1  0
 26 28  1  0
 27 28  1  0
 29 30  2  0
 32 33  1  0
M  CHG  1  12   1
M  END
