
     RDKit          3D

 32 33  0  0  0  0  0  0  0  0999 V2000
   -1.4180    1.0270    0.9450 C   0  0  0  0  0  0  0  0  0  0  0  0
   -2.2500   -0.1130    0.4900 N   0  0  2  0  0  0  0  0  0  0  0  0
   -3.3430   -0.2810    1.4210 C   0  0  0  0  0  0  0  0  0  0  0  0
   -4.5430    0.4960    1.1630 C   0  0  0  0  0  0  0  0  0  0  0  0
   -5.3090    0.8920    2.2670 C   0  0  0  0  0  0  0  0  0  0  0  0
   -6.4680    1.6340    2.0890 C   0  0  0  0  0  0  0  0  0  0  0  0
   -6.8770    1.9890    0.8260 C   0  0  0  0  0  0  0  0  0  0  0  0
   -6.1360    1.6090   -0.2830 C   0  0  0  0  0  0  0  0  0  0  0  0
   -6.5390    1.9740   -1.6360 C   0  0  0  0  0  0  0  0  0  0  0  0
   -5.8970    1.3270   -2.7190 N   0  0  0  0  0  0  0  0  0  0  0  0
   -7.4250    2.8300   -1.8820 O   0  0  0  0  0  0  0  0  0  0  0  0
   -4.9880    0.8710   -0.0730 C   0  0  0  0  0  0  0  0  0  0  0  0
   -1.4580   -1.3140    0.5210 C   0  0  1  0  0  0  0  0  0  0  0  0
   -1.9370   -2.3580   -0.4590 C   0  0  0  0  0  0  0  0  0  0  0  0
   -1.9510   -1.9890   -1.8670 C   0  0  0  0  0  0  0  0  0  0  0  0
   -1.3220   -2.8620   -2.8210 N   0  0  0  0  0  0  0  0  0  0  0  0
   -2.4650   -0.9670   -2.3480 O   0  0  0  0  0  0  0  0  0  0  0  0
    0.0040   -1.1010    0.4380 C   0  0  0  0  0  0  0  0  0  0  0  0
    0.7870   -1.2850    1.5740 C   0  0  0  0  0  0  0  0  0  0  0  0
    2.1430   -1.1530    1.5970 C   0  0  0  0  0  0  0  0  0  0  0  0
    2.8370   -1.3250    2.6440 O   0  0  0  0  0  0  0  0  0  0  0  0
    2.7550   -0.8150    0.4080 C   0  0  0  0  0  0  0  0  0  0  0  0
    4.2050   -0.6120    0.3990 C   0  0  0  0  0  0  0  0  0  0  0  0
    4.9850   -1.5860    0.1770 O   0  0  0  0  0  0  0  0  0  0  0  0
    4.7740    0.6680    0.6320 N   0  0  0  0  0  0  0  0  0  0  0  0
    6.1810    0.9380    0.6600 C   0  0  0  0  0  0  0  0  0  0  0  0
    6.9230    0.4990   -0.5930 C   0  0  0  0  0  0  0  0  0  0  0  0
    8.3880    0.8760   -0.4240 C   0  0  0  0  0  0  0  0  0  0  0  0
    9.3840    0.3470   -1.8360 S   0  0  0  0  0  0  0  0  0  0  0  0
   10.6490    1.2150   -1.8090 O   0  0  0  0  0  0  0  0  0  0  0  0
    1.9670   -0.6370   -0.7000 C   0  0  0  0  0  0  0  0  0  0  0  0
    0.6180   -0.7730   -0.7040 N   0  0  0  0  0  0  0  0  0  0  0  0
  2  1  1  1
  2  3  1  0
  2 13  1  0
  3  4  1  0
  4  5  2  0
  4 12  1  0
  5  6  1  0
  6  7  2  0
  7  8  1  0
  8  9  1  0
  8 12  2  0
  9 10  1  0
  9 11  2  0
 13 14  1  6
 13 18  1  0
 14 15  1  0
 15 16  1  0
 15 17  2  0
 18 19  2  0
 18 32  1  0
 19 20  1  0
 20 21  2  0
 20 22  1  0
 22 23  1  0
 22 31  2  0
 23 24  2  0
 23 25  1  0
 25 26  1  0
 26 27  1  0
 27 28  1  0
 28 29  1  0
 29 30  2  0
 31 32  1  0
M  CHG  1   2   1
M  END
