
     RDKit          3D

 32 33  0  0  0  0  0  0  0  0999 V2000
   -2.7780    5.2360   -1.7680 C   0  0  0  0  0  0  0  0  0  0  0  0
   -2.1470    4.7670   -0.5540 N   0  0  0  0  0  0  0  0  0  0  0  0
   -1.5220    5.7470    0.3070 C   0  0  0  0  0  0  0  0  0  0  0  0
   -2.5670    6.6590    0.9470 C   0  0  0  0  0  0  0  0  0  0  0  0
   -3.2910    7.3440   -0.0090 O   0  0  0  0  0  0  0  0  0  0  0  0
   -2.1710    3.3640   -0.2680 C   0  0  0  0  0  0  0  0  0  0  0  0
   -1.0900    2.7570    0.0070 N   0  0  0  0  0  0  0  0  0  0  0  0
   -1.1040    1.3280    0.3000 C   0  0  0  0  0  0  0  0  0  0  0  0
    0.2540    0.7310    0.2400 C   0  0  0  0  0  0  0  0  0  0  0  0
    0.4430   -0.4660    0.0350 O   0  0  0  0  0  0  0  0  0  0  0  0
    1.3920    1.5520    0.4280 N   0  0  0  0  0  0  0  0  0  0  0  0
    2.7620    1.0210    0.3860 C   0  0  0  0  0  0  0  0  0  0  0  0
    3.7220    1.8830    0.9440 C   0  0  0  0  0  0  0  0  0  0  0  0
    5.2650    0.8780    0.6930 S   0  0  0  0  0  0  0  0  0  0  0  0
    4.4510   -0.5220   -0.1020 C   0  0  0  0  0  0  0  0  0  0  0  0
    5.1420   -1.7300   -0.5750 C   0  0  1  0  0  0  0  0  0  0  0  0
    4.9620   -1.9600   -2.0620 C   0  0  0  0  0  0  0  0  0  0  0  0
    6.6350   -1.6430   -0.3200 C   0  0  0  0  0  0  0  0  0  0  0  0
    4.5740   -2.9300    0.1550 C   0  0  0  0  0  0  0  0  0  0  0  0
    3.1500   -0.1320   -0.1110 C   0  0  0  0  0  0  0  0  0  0  0  0
   -2.2150    0.6930    0.2760 C   0  0  0  0  0  0  0  0  0  0  0  0
   -2.3500   -0.7160    0.5870 C   0  0  0  0  0  0  0  0  0  0  0  0
   -3.5080   -1.2370    0.2670 O   0  0  0  0  0  0  0  0  0  0  0  0
   -1.5070   -1.6330    1.1770 N   0  0  0  0  0  0  0  0  0  0  0  0
   -1.8370   -3.0490    1.3590 C   0  0  0  0  0  0  0  0  0  0  0  0
   -2.0950   -3.7370    0.0640 C   0  0  0  0  0  0  0  0  0  0  0  0
   -2.4190   -5.1950    0.3400 C   0  0  1  0  0  0  0  0  0  0  0  0
   -2.6800   -5.8760   -0.8570 O   0  0  0  0  0  0  0  0  0  0  0  0
   -1.2130   -5.9070    0.9710 C   0  0  0  0  0  0  0  0  0  0  0  0
   -1.6590   -7.2410    1.1430 O   0  0  0  0  0  0  0  0  0  0  0  0
   -3.4750    1.3230   -0.0560 N   0  0  0  0  0  0  0  0  0  0  0  0
   -3.4630    2.6870   -0.3110 C   0  0  0  0  0  0  0  0  0  0  0  0
  1  2  1  0
  2  3  1  0
  2  6  1  0
  3  4  1  0
  4  5  1  0
  6  7  2  0
  6 32  1  0
  7  8  1  0
  8  9  1  0
  8 21  2  0
  9 10  2  0
  9 11  1  0
 11 12  1  0
 12 13  2  0
 12 20  1  0
 13 14  1  0
 14 15  1  0
 15 16  1  0
 15 20  2  0
 16 17  1  6
 16 18  1  0
 16 19  1  0
 21 22  1  0
 21 31  1  0
 22 23  2  0
 22 24  1  0
 24 25  1  0
 25 26  1  0
 26 27  1  0
 27 28  1  6
 27 29  1  0
 29 30  1  0
 31 32  1  0
M  CHG  1  31   1
M  END
