
     RDKit          3D

 32 33  0  0  0  0  0  0  0  0999 V2000
   -6.5780    0.3440    2.8990 C   0  0  0  0  0  0  0  0  0  0  0  0
   -6.1330    0.1330    1.4990 C   0  0  0  0  0  0  0  0  0  0  0  0
   -4.9390    0.7090    1.0740 C   0  0  0  0  0  0  0  0  0  0  0  0
   -4.5030    0.5280   -0.2220 C   0  0  0  0  0  0  0  0  0  0  0  0
   -3.1970    1.1580   -0.6890 C   0  0  0  0  0  0  0  0  0  0  0  0
   -2.0770    0.2080   -0.4450 C   0  0  0  0  0  0  0  0  0  0  0  0
   -0.7730    0.7380   -0.9010 C   0  0  0  0  0  0  0  0  0  0  0  0
   -0.2980    2.0040   -0.2530 C   0  0  2  0  0  0  0  0  0  0  0  0
   -1.1030    3.1000   -0.4110 O   0  0  0  0  0  0  0  0  0  0  0  0
    1.0410    2.3570   -0.8800 C   0  0  0  0  0  0  0  0  0  0  0  0
    1.9400    1.2300   -0.7360 N   0  0  0  0  0  0  0  0  0  0  0  0
    3.2870    1.7820   -0.7250 C   0  0  0  0  0  0  0  0  0  0  0  0
    4.2910    0.7740   -1.0050 N   0  0  0  0  0  0  0  0  0  0  0  0
    4.7000    0.5060   -2.2630 C   0  0  0  0  0  0  0  0  0  0  0  0
    4.1710    1.1730   -3.2090 O   0  0  0  0  0  0  0  0  0  0  0  0
    5.6300   -0.4270   -2.5230 N   0  0  0  0  0  0  0  0  0  0  0  0
    6.1680   -1.1130   -1.4940 C   0  0  0  0  0  0  0  0  0  0  0  0
    7.0360   -1.9800   -1.7660 O   0  0  0  0  0  0  0  0  0  0  0  0
    5.7950   -0.8840   -0.2220 N   0  0  0  0  0  0  0  0  0  0  0  0
    6.3920   -1.6410    0.8850 C   0  0  0  0  0  0  0  0  0  0  0  0
    7.6110   -0.8320    1.3150 C   0  0  0  0  0  0  0  0  0  0  0  0
    8.3200   -1.4840    2.4370 C   0  0  0  0  0  0  0  0  0  0  0  0
    9.4780   -0.8400    2.9440 N   0  0  0  0  0  0  0  0  0  0  0  0
    7.9610   -2.5670    2.9660 O   0  0  0  0  0  0  0  0  0  0  0  0
    4.8600    0.0610   -0.0170 C   0  0  0  0  0  0  0  0  0  0  0  0
    4.3910    0.3590    1.5080 S   0  0  0  0  0  0  0  0  0  0  0  0
   -5.2650   -0.2290   -1.0870 C   0  0  0  0  0  0  0  0  0  0  0  0
   -6.4540   -0.8200   -0.7130 C   0  0  0  0  0  0  0  0  0  0  0  0
   -7.2270   -1.6180   -1.6780 C   0  0  0  0  0  0  0  0  0  0  0  0
   -6.5710   -1.6390   -2.8960 O   0  0  0  0  0  0  0  0  0  0  0  0
   -6.8570   -0.6150    0.5950 C   0  0  0  0  0  0  0  0  0  0  0  0
   -8.1270   -1.2320    1.0350 C   0  0  0  0  0  0  0  0  0  0  0  0
  1  2  1  0
  2  3  2  0
  2 31  1  0
  3  4  1  0
  4  5  1  0
  4 27  2  0
  5  6  1  0
  6  7  1  0
  7  8  1  0
  8  9  1  6
  8 10  1  0
 10 11  1  0
 11 12  1  0
 12 13  1  0
 13 14  1  0
 13 25  1  0
 14 15  2  0
 14 16  1  0
 16 17  1  0
 17 18  2  0
 17 19  1  0
 19 20  1  0
 19 25  1  0
 20 21  1  0
 21 22  1  0
 22 23  1  0
 22 24  2  0
 25 26  2  0
 27 28  1  0
 28 29  1  0
 28 31  2  0
 29 30  1  0
 31 32  1  0
M  CHG  1  11   1
M  END
