
     RDKit          3D

 12 12  0  0  0  0  0  0  0  0999 V2000
    2.7010    0.3240    0.5570 C   0  0  0  0  0  0  0  0  0  0  0  0
    2.4000   -0.2530   -0.8060 C   0  0  0  0  0  0  0  0  0  0  0  0
    1.2300   -1.0210   -0.8240 O   0  0  0  0  0  0  0  0  0  0  0  0
   -0.0270   -0.5800   -0.5140 C   0  0  0  0  0  0  0  0  0  0  0  0
   -0.4880   -0.6560    0.8030 C   0  0  0  0  0  0  0  0  0  0  0  0
    0.3260   -1.1800    1.8030 O   0  0  0  0  0  0  0  0  0  0  0  0
   -1.7630   -0.1920    1.0340 C   0  0  0  0  0  0  0  0  0  0  0  0
   -2.5700    0.3270    0.0430 C   0  0  0  0  0  0  0  0  0  0  0  0
   -3.8270    0.7710    0.3430 O   0  0  0  0  0  0  0  0  0  0  0  0
   -2.1130    0.3990   -1.2430 C   0  0  0  0  0  0  0  0  0  0  0  0
   -0.8390   -0.0570   -1.5140 C   0  0  0  0  0  0  0  0  0  0  0  0
   -0.1800    0.0040   -3.1540 Cl  0  0  0  0  0  0  0  0  0  0  0  0
  1  2  1  0
  2  3  1  0
  3  4  1  0
  4  5  2  0
  4 11  1  0
  5  6  1  0
  5  7  1  0
  7  8  2  0
  8  9  1  0
  8 10  1  0
 10 11  2  0
 11 12  1  0
M  END
