
     RDKit          3D

 11 10  0  0  0  0  0  0  0  0999 V2000
   -0.5410   -0.2110    2.1720 C   0  0  0  0  0  0  0  0  0  0  0  0
   -0.7200   -0.2360    0.6210 C   0  0  0  0  0  0  0  0  0  0  0  0
   -1.8740   -0.6420    0.2050 C   0  0  0  0  0  0  0  0  0  0  0  0
   -2.3910   -0.7780   -1.1480 C   0  0  0  0  0  0  0  0  0  0  0  0
   -3.5710    0.0480   -1.2700 O   0  0  0  0  0  0  0  0  0  0  0  0
    0.4860    0.0580   -0.1000 C   0  0  0  0  0  0  0  0  0  0  0  0
    0.6620   -0.2640   -1.5170 C   0  0  0  0  0  0  0  0  0  0  0  0
    1.5290    0.5300    0.5590 C   0  0  0  0  0  0  0  0  0  0  0  0
    2.8240    0.9010    0.0780 C   0  0  0  0  0  0  0  0  0  0  0  0
    3.1640    0.8430   -1.0990 O   0  0  0  0  0  0  0  0  0  0  0  0
    3.8050    1.3690    0.9810 O   0  0  0  0  0  0  0  0  0  0  0  0
  1  2  1  0
  2  3  2  3
  2  6  1  0
  3  4  1  0
  4  5  1  0
  6  7  1  0
  6  8  2  3
  8  9  1  0
  9 10  2  0
  9 11  1  0
M  END
