
     RDKit          3D

 12 12  0  0  0  0  0  0  0  0999 V2000
    3.0560    0.8120    1.2470 O   0  0  0  0  0  0  0  0  0  0  0  0
    2.7790    0.0240    0.2720 C   0  0  0  0  0  0  0  0  0  0  0  0
    3.4430   -1.1710    0.1340 O   0  0  0  0  0  0  0  0  0  0  0  0
    1.7260    0.4900   -0.6440 C   0  0  0  0  0  0  0  0  0  0  0  0
    0.3430    0.2700   -0.1560 C   0  0  0  0  0  0  0  0  0  0  0  0
   -0.0180   -0.1340    1.0950 C   0  0  0  0  0  0  0  0  0  0  0  0
   -1.3370   -0.3750    1.4630 C   0  0  0  0  0  0  0  0  0  0  0  0
   -2.3410   -0.2020    0.5310 C   0  0  0  0  0  0  0  0  0  0  0  0
   -3.6950   -0.4340    0.8200 O   0  0  0  0  0  0  0  0  0  0  0  0
   -2.0040    0.2080   -0.7350 C   0  0  0  0  0  0  0  0  0  0  0  0
   -3.2660    0.4240   -1.9240 Cl  0  0  0  0  0  0  0  0  0  0  0  0
   -0.6810    0.4420   -1.0730 C   0  0  0  0  0  0  0  0  0  0  0  0
  1  2  2  0
  2  3  1  0
  2  4  1  0
  4  5  1  0
  5  6  2  0
  5 12  1  0
  6  7  1  0
  7  8  2  0
  8  9  1  0
  8 10  1  0
 10 11  1  0
 10 12  2  0
M  END
