
     RDKit          3D

 12 12  0  0  0  0  0  0  0  0999 V2000
    2.9140    0.3180   -1.4260 O   0  0  0  0  0  0  0  0  0  0  0  0
    2.1210    0.2720   -0.2980 C   0  0  0  0  0  0  0  0  0  0  0  0
    2.6300    0.5920    0.9390 C   0  0  0  0  0  0  0  0  0  0  0  0
    1.8620    0.5550    2.0800 C   0  0  0  0  0  0  0  0  0  0  0  0
    0.5420    0.1870    1.9920 C   0  0  0  0  0  0  0  0  0  0  0  0
   -0.2000    0.1630    3.1750 O   0  0  0  0  0  0  0  0  0  0  0  0
   -0.0200   -0.1450    0.7730 C   0  0  0  0  0  0  0  0  0  0  0  0
   -1.3070   -0.5010    0.6940 O   0  0  0  0  0  0  0  0  0  0  0  0
   -2.1850   -0.8670   -0.2770 C   0  0  0  0  0  0  0  0  0  0  0  0
   -2.5000    0.0960   -1.3650 C   0  0  0  0  0  0  0  0  0  0  0  0
   -3.2010    1.5940   -0.6490 Cl  0  0  0  0  0  0  0  0  0  0  0  0
    0.7780   -0.0950   -0.3390 C   0  0  0  0  0  0  0  0  0  0  0  0
  1  2  1  0
  2  3  2  0
  2 12  1  0
  3  4  1  0
  4  5  2  0
  5  6  1  0
  5  7  1  0
  7  8  1  0
  7 12  2  0
  8  9  1  0
  9 10  1  0
 10 11  1  0
M  END
