
     RDKit          3D

 12 12  0  0  0  0  0  0  0  0999 V2000
    3.7140   -0.7640    0.3330 C   0  0  0  0  0  0  0  0  0  0  0  0
    2.7020    0.2760   -0.0530 C   0  0  0  0  0  0  0  0  0  0  0  0
    1.3740   -0.1970    0.0470 O   0  0  0  0  0  0  0  0  0  0  0  0
    0.3680    0.6970   -0.2910 C   0  0  0  0  0  0  0  0  0  0  0  0
    0.6640    1.8750   -0.6670 O   0  0  0  0  0  0  0  0  0  0  0  0
   -1.0390    0.3460   -0.2340 C   0  0  0  0  0  0  0  0  0  0  0  0
   -1.3630   -0.8720    0.1550 C   0  0  0  0  0  0  0  0  0  0  0  0
   -2.7820   -1.3130    0.2410 C   0  0  0  0  0  0  0  0  0  0  0  0
   -3.6960   -0.3150   -0.1280 O   0  0  0  0  0  0  0  0  0  0  0  0
   -3.3730    0.9500   -0.5320 C   0  0  0  0  0  0  0  0  0  0  0  0
   -2.0880    1.2910   -0.5900 C   0  0  0  0  0  0  0  0  0  0  0  0
   -1.6200    2.9110   -1.1060 Cl  0  0  0  0  0  0  0  0  0  0  0  0
  1  2  1  0
  2  3  1  0
  3  4  1  0
  4  5  2  0
  4  6  1  0
  6  7  2  0
  6 11  1  0
  7  8  1  0
  8  9  1  0
  9 10  1  0
 10 11  2  0
 11 12  1  0
M  END
