
     RDKit          3D

 11 11  0  0  0  0  0  0  0  0999 V2000
   -0.9090   -1.2410   -2.7200 O   0  0  0  0  0  0  0  0  0  0  0  0
   -1.3490   -0.6890   -1.6730 C   0  0  0  0  0  0  0  0  0  0  0  0
   -2.6510   -0.2300   -1.5870 O   0  0  0  0  0  0  0  0  0  0  0  0
   -2.8320    0.9200   -0.7590 C   0  0  0  0  0  0  0  0  0  0  0  0
   -2.3390    0.5130    0.6010 C   0  0  0  0  0  0  0  0  0  0  0  0
   -0.9440    0.0350    0.5390 C   0  0  0  0  0  0  0  0  0  0  0  0
   -0.4350   -0.5350   -0.5070 C   0  0  0  0  0  0  0  0  0  0  0  0
    0.9230   -1.0190   -0.7310 C   0  0  0  0  0  0  0  0  0  0  0  0
    1.9500   -0.8150    0.2970 C   0  0  0  0  0  0  0  0  0  0  0  0
    2.3430    0.6090    0.5860 C   0  0  0  0  0  0  0  0  0  0  0  0
    2.8500    1.1790   -0.6060 O   0  0  0  0  0  0  0  0  0  0  0  0
  1  2  2  0
  2  3  1  0
  2  7  1  0
  3  4  1  0
  4  5  1  0
  5  6  1  0
  6  7  2  0
  7  8  1  0
  8  9  1  0
  9 10  1  0
 10 11  1  0
M  END
