
     RDKit          3D

 12 12  0  0  0  0  0  0  0  0999 V2000
   -3.4840   -0.0150    0.5570 C   0  0  0  0  0  0  0  0  0  0  0  0
   -2.1220   -0.6010    0.2650 C   0  0  0  0  0  0  0  0  0  0  0  0
   -1.1810    0.4470    0.3510 O   0  0  0  0  0  0  0  0  0  0  0  0
    0.1730    0.2700    0.1420 C   0  0  0  0  0  0  0  0  0  0  0  0
    0.7600   -0.9300   -0.1720 C   0  0  0  0  0  0  0  0  0  0  0  0
    2.1200   -1.0670   -0.3740 C   0  0  0  0  0  0  0  0  0  0  0  0
    2.6860   -2.3050   -0.6920 O   0  0  0  0  0  0  0  0  0  0  0  0
    2.8840    0.0760   -0.2470 C   0  0  0  0  0  0  0  0  0  0  0  0
    2.3550    1.3090    0.0660 C   0  0  0  0  0  0  0  0  0  0  0  0
    3.3350    2.7510    0.2240 Cl  0  0  0  0  0  0  0  0  0  0  0  0
    0.9890    1.3830    0.2560 C   0  0  0  0  0  0  0  0  0  0  0  0
    0.4530    2.6300    0.5720 O   0  0  0  0  0  0  0  0  0  0  0  0
  1  2  1  0
  2  3  1  0
  3  4  1  0
  4  5  2  0
  4 11  1  0
  5  6  1  0
  6  7  1  0
  6  8  2  0
  8  9  1  0
  9 10  1  0
  9 11  2  0
 11 12  1  0
M  END
