
     RDKit          3D

 12 12  0  0  0  0  0  0  0  0999 V2000
    2.4940   -1.5430    0.9530 O   0  0  0  0  0  0  0  0  0  0  0  0
    2.9070   -0.8330   -0.1710 C   0  0  0  0  0  0  0  0  0  0  0  0
    1.8710    0.1030   -0.6630 C   0  0  0  0  0  0  0  0  0  0  0  0
    2.0900    1.4000   -0.7330 C   0  0  0  0  0  0  0  0  0  0  0  0
    3.6410    2.0540   -0.2350 Cl  0  0  0  0  0  0  0  0  0  0  0  0
    0.6500   -0.4270   -1.0530 O   0  0  0  0  0  0  0  0  0  0  0  0
   -0.3630   -0.5090   -0.0790 C   0  0  2  0  0  0  0  0  0  0  0  0
   -1.6390   -1.0910   -0.5880 C   0  0  0  0  0  0  0  0  0  0  0  0
   -2.7910   -0.1340   -0.6000 C   0  0  0  0  0  0  0  0  0  0  0  0
   -2.9970    0.5500    0.5570 O   0  0  0  0  0  0  0  0  0  0  0  0
   -1.8680    0.7710    1.3230 C   0  0  0  0  0  0  0  0  0  0  0  0
   -0.6780    0.9010    0.3960 C   0  0  0  0  0  0  0  0  0  0  0  0
  1  2  1  0
  2  3  1  0
  3  4  2  3
  3  6  1  0
  4  5  1  0
  7  6  1  6
  7  8  1  0
  7 12  1  0
  8  9  1  0
  9 10  1  0
 10 11  1  0
 11 12  1  0
M  END
