
     RDKit          3D

 12 12  0  0  0  0  0  0  0  0999 V2000
    3.6360    0.0550   -0.0670 C   0  0  0  0  0  0  0  0  0  0  0  0
    2.2080    0.4930   -0.1530 C   0  0  0  0  0  0  0  0  0  0  0  0
    1.3250   -0.5890    0.0790 O   0  0  0  0  0  0  0  0  0  0  0  0
   -0.0340   -0.3730    0.0390 C   0  0  0  0  0  0  0  0  0  0  0  0
   -0.5510    0.8700   -0.2210 C   0  0  0  0  0  0  0  0  0  0  0  0
   -1.9190    1.1140   -0.2670 C   0  0  0  0  0  0  0  0  0  0  0  0
   -2.3710    2.3850   -0.5330 O   0  0  0  0  0  0  0  0  0  0  0  0
   -2.7990    0.0820   -0.0460 C   0  0  0  0  0  0  0  0  0  0  0  0
   -4.5420    0.3310   -0.0910 Cl  0  0  0  0  0  0  0  0  0  0  0  0
   -2.2880   -1.1720    0.2170 C   0  0  0  0  0  0  0  0  0  0  0  0
   -0.9120   -1.4050    0.2600 C   0  0  0  0  0  0  0  0  0  0  0  0
   -0.4520   -2.6950    0.5310 O   0  0  0  0  0  0  0  0  0  0  0  0
  1  2  1  0
  2  3  1  0
  3  4  1  0
  4  5  2  0
  4 11  1  0
  5  6  1  0
  6  7  1  0
  6  8  2  0
  8  9  1  0
  8 10  1  0
 10 11  2  0
 11 12  1  0
M  END
