
     RDKit          3D

 44 48  0  0  0  0  0  0  0  0999 V2000
   -3.1950    4.1100    0.9770 C   0  0  0  0  0  0  0  0  0  0  0  0
   -2.1300    3.6310    0.2860 C   0  0  0  0  0  0  0  0  0  0  0  0
   -2.0400    2.1950    0.0340 C   0  0  0  0  0  0  0  0  0  0  0  0
   -1.0800    1.6040   -0.6120 C   0  0  0  0  0  0  0  0  0  0  0  0
   -0.0080    2.5320   -1.1170 C   0  0  0  0  0  0  0  0  0  0  0  0
   -0.0360    3.8210   -0.9200 C   0  0  0  0  0  0  0  0  0  0  0  0
   -1.0910    4.5370   -0.1950 C   0  0  0  0  0  0  0  0  0  0  0  0
    1.0280    1.8850   -1.8230 O   0  0  0  0  0  0  0  0  0  0  0  0
    0.6730    0.9390   -2.8600 C   0  0  0  0  0  0  0  0  0  0  0  0
   -0.6490    0.2780   -2.5240 C   0  0  0  0  0  0  0  0  0  0  0  0
   -0.8020    0.2410   -0.9510 C   0  0  2  0  0  0  0  0  0  0  0  0
   -1.4420   -0.9130   -0.5710 N   0  0  0  0  0  0  0  0  0  0  0  0
   -2.0320   -1.1660    0.6810 C   0  0  2  0  0  0  0  0  0  0  0  0
   -1.1750   -1.6410    1.7710 C   0  0  0  0  0  0  0  0  0  0  0  0
   -0.1090   -0.8600    2.3490 N   0  0  0  0  0  0  0  0  0  0  0  0
    1.1930   -0.8930    1.8170 C   0  0  0  0  0  0  0  0  0  0  0  0
    1.5380   -1.5990    0.8390 O   0  0  0  0  0  0  0  0  0  0  0  0
    2.2120   -0.0080    2.4960 C   0  0  0  0  0  0  0  0  0  0  0  0
    3.4690   -0.2400    1.8600 O   0  0  0  0  0  0  0  0  0  0  0  0
    4.0040   -1.5050    1.9160 C   0  0  0  0  0  0  0  0  0  0  0  0
    3.3230   -2.3890    2.5490 O   0  0  0  0  0  0  0  0  0  0  0  0
    5.2350   -1.9480    1.3460 C   0  0  0  0  0  0  0  0  0  0  0  0
    6.0710   -1.2290    0.6700 C   0  0  0  0  0  0  0  0  0  0  0  0
    6.0100    0.1740    0.3070 C   0  0  0  0  0  0  0  0  0  0  0  0
    6.9650    0.8610   -0.4300 C   0  0  0  0  0  0  0  0  0  0  0  0
    6.5460    2.1590   -0.5600 C   0  0  0  0  0  0  0  0  0  0  0  0
    7.0770    3.2880   -1.1810 C   0  0  0  0  0  0  0  0  0  0  0  0
    6.4300    4.4800   -1.1510 C   0  0  0  0  0  0  0  0  0  0  0  0
    5.2200    4.5770   -0.4910 C   0  0  0  0  0  0  0  0  0  0  0  0
    4.7060    3.4610    0.1170 C   0  0  0  0  0  0  0  0  0  0  0  0
    5.3430    2.2470    0.0990 C   0  0  0  0  0  0  0  0  0  0  0  0
    5.0990    1.0650    0.5730 O   0  0  0  0  0  0  0  0  0  0  0  0
   -1.3520   -2.7770    2.4010 C   0  0  0  0  0  0  0  0  0  0  0  0
   -2.4120   -3.7010    2.1070 C   0  0  0  0  0  0  0  0  0  0  0  0
   -3.2540   -3.3960    1.1630 C   0  0  0  0  0  0  0  0  0  0  0  0
   -4.3490   -4.3800    0.8680 C   0  0  0  0  0  0  0  0  0  0  0  0
   -4.2580   -5.5840    1.7580 C   0  0  0  0  0  0  0  0  0  0  0  0
   -3.1830   -2.1260    0.4460 C   0  0  0  0  0  0  0  0  0  0  0  0
   -4.1550   -1.7970   -0.3970 C   0  0  0  0  0  0  0  0  0  0  0  0
   -4.3480   -0.6290   -1.1840 C   0  0  0  0  0  0  0  0  0  0  0  0
   -5.4140   -0.4790   -1.9940 C   0  0  0  0  0  0  0  0  0  0  0  0
   -6.3330   -1.5060   -2.0410 O   0  0  0  0  0  0  0  0  0  0  0  0
   -6.2840   -2.5660   -2.9100 C   0  0  0  0  0  0  0  0  0  0  0  0
   -5.3290   -2.6230   -3.7390 O   0  0  0  0  0  0  0  0  0  0  0  0
  1  2  2  0
  2  3  1  0
  2  7  1  0
  3  4  2  0
  4  5  1  0
  4 11  1  0
  5  6  2  0
  5  8  1  0
  6  7  1  0
  8  9  1  0
  9 10  1  0
 10 11  1  0
 11 12  1  6
 13 12  1  6
 13 14  1  0
 13 38  1  0
 14 15  1  0
 14 33  2  0
 15 16  1  0
 16 17  2  0
 16 18  1  0
 18 19  1  0
 19 20  1  0
 20 21  2  0
 20 22  1  0
 22 23  2  3
 23 24  1  0
 24 25  2  0
 24 32  1  0
 25 26  1  0
 26 27  2  0
 26 31  1  0
 27 28  1  0
 28 29  2  0
 29 30  1  0
 30 31  2  0
 31 32  1  0
 33 34  1  0
 34 35  2  0
 35 36  1  0
 35 38  1  0
 36 37  1  0
 38 39  2  3
 39 40  1  0
 40 41  2  3
 41 42  1  0
 42 43  1  0
 43 44  2  0
M  CHG  1  12   1
M  END
