
     RDKit          3D

 44 48  0  0  0  0  0  0  0  0999 V2000
    3.7870    4.8510    0.8200 C   0  0  0  0  0  0  0  0  0  0  0  0
    4.9100    4.2750    1.4410 O   0  0  0  0  0  0  0  0  0  0  0  0
    5.1550    2.9280    1.2870 C   0  0  0  0  0  0  0  0  0  0  0  0
    6.2430    2.3610    1.8860 C   0  0  0  0  0  0  0  0  0  0  0  0
    6.4640    1.0140    1.7160 C   0  0  0  0  0  0  0  0  0  0  0  0
    5.5990    0.2650    0.9550 C   0  0  0  0  0  0  0  0  0  0  0  0
    5.8430   -1.0830    0.8000 O   0  0  0  0  0  0  0  0  0  0  0  0
    6.9710   -1.6550    1.4260 C   0  0  0  0  0  0  0  0  0  0  0  0
    4.4850    0.7970    0.3290 C   0  0  0  0  0  0  0  0  0  0  0  0
    3.5880   -0.0340   -0.4700 C   0  0  0  0  0  0  0  0  0  0  0  0
    2.4830    0.6210   -1.0800 N   0  0  0  0  0  0  0  0  0  0  0  0
    1.9530   -0.0900   -2.2270 C   0  0  1  0  0  0  0  0  0  0  0  0
    2.7910    0.4240   -3.4160 C   0  0  0  0  0  0  0  0  0  0  0  0
    2.1480   -1.5510   -2.1140 C   0  0  0  0  0  0  0  0  0  0  0  0
    3.1740   -2.1470   -2.8010 C   0  0  0  0  0  0  0  0  0  0  0  0
    3.3720   -3.5020   -2.6530 C   0  0  0  0  0  0  0  0  0  0  0  0
    4.3910   -4.1750   -3.3170 O   0  0  0  0  0  0  0  0  0  0  0  0
    4.5670   -5.5580   -3.1470 C   0  0  0  0  0  0  0  0  0  0  0  0
    2.5490   -4.2340   -1.8290 C   0  0  0  0  0  0  0  0  0  0  0  0
    1.5040   -3.6070   -1.1350 C   0  0  0  0  0  0  0  0  0  0  0  0
    1.2830   -2.2570   -1.2640 C   0  0  0  0  0  0  0  0  0  0  0  0
    0.2010   -1.5740   -0.6360 N   0  0  0  0  0  0  0  0  0  0  0  0
   -0.6110   -2.0960    0.3890 C   0  0  0  0  0  0  0  0  0  0  0  0
   -0.3910   -3.2500    0.8280 O   0  0  0  0  0  0  0  0  0  0  0  0
   -1.7260   -1.3040    0.9630 C   0  0  0  0  0  0  0  0  0  0  0  0
   -2.0590   -1.3220    2.2940 C   0  0  0  0  0  0  0  0  0  0  0  0
   -3.1300   -0.5980    2.7980 C   0  0  0  0  0  0  0  0  0  0  0  0
   -3.8730    0.1550    1.9340 C   0  0  0  0  0  0  0  0  0  0  0  0
   -3.5730    0.2010    0.5910 C   0  0  0  0  0  0  0  0  0  0  0  0
   -4.3560    0.9690   -0.2210 O   0  0  0  0  0  0  0  0  0  0  0  0
   -4.2540    1.1720   -1.5920 C   0  0  0  0  0  0  0  0  0  0  0  0
   -5.3230    2.0680   -2.1050 C   0  0  0  0  0  0  0  0  0  0  0  0
   -6.2600    2.6080   -1.3520 C   0  0  0  0  0  0  0  0  0  0  0  0
   -7.1470    3.4340   -2.1900 C   0  0  0  0  0  0  0  0  0  0  0  0
   -6.5850    3.2930   -3.5520 C   0  0  0  0  0  0  0  0  0  0  0  0
   -5.5450    2.5060   -3.4600 C   0  0  0  0  0  0  0  0  0  0  0  0
   -2.4850   -0.5410    0.1140 C   0  0  0  0  0  0  0  0  0  0  0  0
   -4.9790    0.9370    2.2820 O   0  0  0  0  0  0  0  0  0  0  0  0
   -5.9100    0.7420    3.3580 C   0  0  1  0  0  0  0  0  0  0  0  0
   -6.8810   -0.3530    3.0620 C   0  0  0  0  0  0  0  0  0  0  0  0
   -5.1970    0.6050    4.6720 C   0  0  0  0  0  0  0  0  0  0  0  0
   -4.5240   -0.7160    4.8790 C   0  0  0  0  0  0  0  0  0  0  0  0
   -3.2970   -0.7520    4.1700 O   0  0  0  0  0  0  0  0  0  0  0  0
    4.2810    2.1480    0.5120 C   0  0  0  0  0  0  0  0  0  0  0  0
  1  2  1  0
  2  3  1  0
  3  4  2  0
  3 44  1  0
  4  5  1  0
  5  6  2  0
  6  7  1  0
  6  9  1  0
  7  8  1  0
  9 10  1  0
  9 44  2  0
 10 11  1  0
 11 12  1  0
 12 13  1  6
 12 14  1  0
 14 15  2  0
 14 21  1  0
 15 16  1  0
 16 17  1  0
 16 19  2  0
 17 18  1  0
 19 20  1  0
 20 21  2  0
 21 22  1  0
 22 23  1  0
 23 24  2  0
 23 25  1  0
 25 26  2  0
 25 37  1  0
 26 27  1  0
 27 28  2  0
 27 43  1  0
 28 29  1  0
 28 38  1  0
 29 30  1  0
 29 37  2  0
 30 31  1  0
 31 32  1  0
 32 33  2  0
 32 36  1  0
 33 34  1  0
 34 35  1  0
 35 36  2  0
 38 39  1  0
 39 40  1  6
 39 41  1  0
 41 42  1  0
 42 43  1  0
M  CHG  1  11   1
M  END
