
     RDKit          3D

 46 51  0  0  0  0  0  0  0  0999 V2000
    4.1270    1.4530    3.6140 C   0  0  0  0  0  0  0  0  0  0  0  0
    3.5260    1.7040    2.3800 O   0  0  0  0  0  0  0  0  0  0  0  0
    4.0050    0.8420    1.3940 C   0  0  0  0  0  0  0  0  0  0  0  0
    3.3070    1.1750    0.0980 C   0  0  2  0  0  0  0  0  0  0  0  0
    1.9760    1.0560    0.1130 O   0  0  0  0  0  0  0  0  0  0  0  0
    1.3590   -0.1150   -0.2330 C   0  0  2  0  0  0  0  0  0  0  0  0
    0.4300   -0.3330    0.7750 O   0  0  0  0  0  0  0  0  0  0  0  0
   -0.8740   -0.1710    0.5100 C   0  0  2  0  0  0  0  0  0  0  0  0
   -1.6350    0.9160    1.1290 C   0  0  0  0  0  0  0  0  0  0  0  0
   -1.5880    1.0720    2.4180 C   0  0  0  0  0  0  0  0  0  0  0  0
   -0.9240    0.4030    3.5000 C   0  0  1  0  0  0  0  0  0  0  0  0
   -1.8350    0.2020    4.7330 C   0  0  0  0  0  0  0  0  0  0  0  0
   -0.0250   -0.7210    3.4420 C   0  0  0  0  0  0  0  0  0  0  0  0
   -2.5270    2.2680    2.7510 C   0  0  0  0  0  0  0  0  0  0  0  0
   -2.6320    3.0560    1.5140 C   0  0  0  0  0  0  0  0  0  0  0  0
   -2.5190    1.9750    0.4640 C   0  0  1  0  0  0  0  0  0  0  0  0
   -1.9300    2.5180   -0.7880 C   0  0  0  0  0  0  0  0  0  0  0  0
   -3.8830    1.4280    0.2330 C   0  0  0  0  0  0  0  0  0  0  0  0
   -4.4710    0.2470    0.1410 C   0  0  0  0  0  0  0  0  0  0  0  0
   -4.0460   -1.1370    0.2250 C   0  0  1  0  0  0  0  0  0  0  0  0
   -5.2090   -1.9870   -0.1730 C   0  0  0  0  0  0  0  0  0  0  0  0
   -6.3950   -1.1640    0.2640 C   0  0  0  0  0  0  0  0  0  0  0  0
   -5.9370    0.2380   -0.0850 C   0  0  1  0  0  0  0  0  0  0  0  0
   -6.5960    1.1170    0.7720 O   0  0  0  0  0  0  0  0  0  0  0  0
   -6.3630    0.5360   -1.4800 C   0  0  0  0  0  0  0  0  0  0  0  0
   -5.7880   -0.2670   -2.4380 O   0  0  0  0  0  0  0  0  0  0  0  0
   -6.2020    0.0340   -3.7240 C   0  0  0  0  0  0  0  0  0  0  0  0
   -2.7850   -1.4960   -0.5240 C   0  0  1  0  0  0  0  0  0  0  0  0
   -2.6260   -0.8540   -1.8450 C   0  0  0  0  0  0  0  0  0  0  0  0
   -1.6000   -1.4770    0.3960 C   0  0  1  0  0  0  0  0  0  0  0  0
   -0.6960   -2.4170   -0.1090 O   0  0  0  0  0  0  0  0  0  0  0  0
    2.1820   -1.2910   -0.5030 C   0  0  2  0  0  0  0  0  0  0  0  0
    2.2640   -2.1100    0.6490 O   0  0  0  0  0  0  0  0  0  0  0  0
    3.6020   -1.0590   -0.9340 C   0  0  1  0  0  0  0  0  0  0  0  0
    3.8420   -1.4090   -2.2710 O   0  0  0  0  0  0  0  0  0  0  0  0
    4.2110   -0.2450   -2.9390 C   0  0  1  0  0  0  0  0  0  0  0  0
    3.3660    0.6890   -2.2630 O   0  0  0  0  0  0  0  0  0  0  0  0
    3.9280    0.4210   -0.9880 C   0  0  1  0  0  0  0  0  0  0  0  0
    5.2970    0.5270   -1.1410 O   0  0  0  0  0  0  0  0  0  0  0  0
    5.5070    0.3510   -2.5100 C   0  0  2  0  0  0  0  0  0  0  0  0
    5.5370    1.7810   -3.0770 C   0  0  0  0  0  0  0  0  0  0  0  0
    6.7380   -0.3340   -2.8730 C   0  0  0  0  0  0  0  0  0  0  0  0
    6.9570   -1.7090   -2.3980 C   0  0  0  0  0  0  0  0  0  0  0  0
    6.9630   -1.8240   -0.9920 O   0  0  0  0  0  0  0  0  0  0  0  0
    7.8670   -1.1630   -0.1840 C   0  0  0  0  0  0  0  0  0  0  0  0
    8.7170   -0.4320   -0.7070 O   0  0  0  0  0  0  0  0  0  0  0  0
  1  2  1  0
  2  3  1  0
  4  3  1  1
  4  5  1  0
  4 38  1  0
  5  6  1  0
  6  7  1  1
  6 32  1  0
  8  7  1  1
  8  9  1  0
  8 30  1  0
  9 10  2  0
  9 16  1  0
 10 11  1  0
 10 14  1  0
 11 12  1  1
 11 13  1  0
 14 15  1  0
 15 16  1  0
 16 17  1  6
 16 18  1  0
 18 19  2  0
 19 20  1  0
 19 23  1  0
 20 21  1  6
 20 28  1  0
 21 22  1  0
 22 23  1  0
 23 24  1  1
 23 25  1  0
 25 26  1  0
 26 27  1  0
 28 29  1  6
 28 30  1  0
 30 31  1  6
 32 33  1  1
 32 34  1  0
 34 35  1  6
 34 38  1  0
 36 35  1  1
 36 37  1  0
 36 40  1  0
 37 38  1  0
 38 39  1  6
 39 40  1  0
 40 41  1  6
 40 42  1  0
 42 43  1  0
 43 44  1  0
 44 45  1  0
 45 46  2  0
M  END
