
     RDKit          3D

 44 48  0  0  0  0  0  0  0  0999 V2000
    2.2400    7.7280   -1.1930 C   0  0  0  0  0  0  0  0  0  0  0  0
    0.9360    7.2340   -1.8180 C   0  0  0  0  0  0  0  0  0  0  0  0
    0.8740    5.8330   -1.6860 O   0  0  0  0  0  0  0  0  0  0  0  0
    1.8310    5.0020   -2.2430 C   0  0  0  0  0  0  0  0  0  0  0  0
    2.7800    5.5100   -2.8860 O   0  0  0  0  0  0  0  0  0  0  0  0
    1.7810    3.5260   -2.1100 C   0  0  1  0  0  0  0  0  0  0  0  0
    1.8370    3.1120   -0.6610 C   0  0  0  0  0  0  0  0  0  0  0  0
    0.6130    2.3460   -0.2310 C   0  0  0  0  0  0  0  0  0  0  0  0
    0.3200    1.1760   -1.1310 C   0  0  2  0  0  0  0  0  0  0  0  0
   -1.0260    0.7430   -0.8650 N   0  0  0  0  0  0  0  0  0  0  0  0
   -1.2250    0.7380    0.5590 C   0  0  0  0  0  0  0  0  0  0  0  0
   -2.4860   -0.0150    0.9430 C   0  0  2  0  0  0  0  0  0  0  0  0
   -3.6940    0.5390    0.2670 C   0  0  0  0  0  0  0  0  0  0  0  0
   -4.8370   -0.4570    0.5690 C   0  0  2  0  0  0  0  0  0  0  0  0
   -6.1250    0.0870    0.1290 C   0  0  0  0  0  0  0  0  0  0  0  0
   -7.3350   -0.6900    0.3210 C   0  0  0  0  0  0  0  0  0  0  0  0
   -8.4660   -0.0070    0.1790 O   0  0  0  0  0  0  0  0  0  0  0  0
   -7.5380   -2.0780    0.6380 C   0  0  0  0  0  0  0  0  0  0  0  0
   -8.8160   -2.6430    0.8080 C   0  0  0  0  0  0  0  0  0  0  0  0
   -8.6430   -3.9780    1.0900 C   0  0  0  0  0  0  0  0  0  0  0  0
   -7.3420   -4.2830    1.1060 N   0  0  0  0  0  0  0  0  0  0  0  0
   -6.6800   -3.1220    0.8310 C   0  0  0  0  0  0  0  0  0  0  0  0
   -4.8090   -0.7360    2.0490 C   0  0  0  0  0  0  0  0  0  0  0  0
   -3.9320    0.2900    2.7260 C   0  0  0  0  0  0  0  0  0  0  0  0
   -2.6090    0.0380    2.3200 O   0  0  0  0  0  0  0  0  0  0  0  0
    1.2370    0.0240   -0.8860 C   0  0  0  0  0  0  0  0  0  0  0  0
    0.8960   -1.0780   -0.4280 O   0  0  0  0  0  0  0  0  0  0  0  0
    2.5690    0.2360   -1.2080 O   0  0  0  0  0  0  0  0  0  0  0  0
    3.5610   -0.7450   -1.0340 C   0  0  0  0  0  0  0  0  0  0  0  0
    3.8030   -1.1540    0.3610 C   0  0  0  0  0  0  0  0  0  0  0  0
    3.1640   -0.5040    1.3810 C   0  0  0  0  0  0  0  0  0  0  0  0
    3.4380   -0.8670    2.6840 C   0  0  0  0  0  0  0  0  0  0  0  0
    4.3400   -1.8640    2.9420 C   0  0  0  0  0  0  0  0  0  0  0  0
    4.9820   -2.5110    1.8760 C   0  0  0  0  0  0  0  0  0  0  0  0
    4.7460   -2.1950    0.5680 C   0  0  0  0  0  0  0  0  0  0  0  0
    5.3810   -2.7530   -0.5920 C   0  0  0  0  0  0  0  0  0  0  0  0
    6.0240   -3.8390   -0.8230 C   0  0  0  0  0  0  0  0  0  0  0  0
    6.3940   -4.9880   -0.0430 C   0  0  0  0  0  0  0  0  0  0  0  0
    7.2310   -6.0520   -0.4720 C   0  0  0  0  0  0  0  0  0  0  0  0
    7.3410   -6.9650    0.5530 C   0  0  0  0  0  0  0  0  0  0  0  0
    6.5780   -6.4430    1.5690 C   0  0  0  0  0  0  0  0  0  0  0  0
    6.0640   -5.3080    1.1570 O   0  0  0  0  0  0  0  0  0  0  0  0
    0.4650    1.5350   -2.5930 C   0  0  0  0  0  0  0  0  0  0  0  0
    0.5210    3.0440   -2.7940 C   0  0  0  0  0  0  0  0  0  0  0  0
  1  2  1  0
  2  3  1  0
  3  4  1  0
  4  5  2  0
  6  4  1  1
  6  7  1  0
  6 44  1  0
  7  8  1  0
  8  9  1  0
  9 10  1  6
  9 26  1  0
  9 43  1  0
 10 11  1  0
 12 11  1  1
 12 13  1  0
 12 25  1  0
 13 14  1  0
 14 15  1  1
 14 23  1  0
 15 16  1  0
 16 17  2  0
 16 18  1  0
 18 19  1  0
 18 22  2  0
 19 20  2  0
 20 21  1  0
 21 22  1  0
 23 24  1  0
 24 25  1  0
 26 27  2  0
 26 28  1  0
 28 29  1  0
 29 30  1  0
 30 31  2  0
 30 35  1  0
 31 32  1  0
 32 33  2  0
 33 34  1  0
 34 35  2  0
 35 36  1  0
 36 37  2  3
 37 38  1  0
 38 39  2  0
 38 42  1  0
 39 40  1  0
 40 41  2  0
 41 42  1  0
 43 44  1  0
M  CHG  1  10   1
M  END
