
     RDKit          3D

 44 47  0  0  0  0  0  0  0  0999 V2000
   11.4560    0.0710    1.2400 C   0  0  0  0  0  0  0  0  0  0  0  0
   10.7370   -0.0630   -0.1030 C   0  0  0  0  0  0  0  0  0  0  0  0
    9.4390   -0.7060    0.0910 N   0  0  0  0  0  0  0  0  0  0  0  0
    8.6540   -0.4160   -1.1010 C   0  0  1  0  0  0  0  0  0  0  0  0
    9.2750   -1.0000   -2.3320 C   0  0  0  0  0  0  0  0  0  0  0  0
    7.2210   -0.7510   -0.9430 C   0  0  0  0  0  0  0  0  0  0  0  0
    6.5150   -1.4850   -1.8620 C   0  0  0  0  0  0  0  0  0  0  0  0
    5.1800   -1.7900   -1.7170 C   0  0  0  0  0  0  0  0  0  0  0  0
    4.4590   -1.3600   -0.6000 C   0  0  0  0  0  0  0  0  0  0  0  0
    3.1090   -1.7270   -0.3800 C   0  0  0  0  0  0  0  0  0  0  0  0
    2.0670   -0.8070   -0.4100 C   0  0  0  0  0  0  0  0  0  0  0  0
    0.8330   -1.3930   -0.1540 C   0  0  0  0  0  0  0  0  0  0  0  0
   -0.4170   -1.0900    0.0410 C   0  0  0  0  0  0  0  0  0  0  0  0
   -1.3480   -2.2660    0.2520 C   0  0  0  0  0  0  0  0  0  0  0  0
   -2.5150   -2.1100    0.4620 O   0  0  0  0  0  0  0  0  0  0  0  0
   -0.9470    0.1940    0.4150 C   0  0  0  0  0  0  0  0  0  0  0  0
   -2.1480    0.6360    0.5390 C   0  0  0  0  0  0  0  0  0  0  0  0
   -3.3550   -0.0130    0.3340 O   0  0  0  0  0  0  0  0  0  0  0  0
   -4.6130    0.5370    0.4910 C   0  0  0  0  0  0  0  0  0  0  0  0
   -5.8470   -0.2320    0.2500 C   0  0  0  0  0  0  0  0  0  0  0  0
   -7.0920    0.3040    0.5040 C   0  0  0  0  0  0  0  0  0  0  0  0
   -8.2580   -0.4390    0.2520 C   0  0  0  0  0  0  0  0  0  0  0  0
   -9.5060    0.0980    0.5030 O   0  0  0  0  0  0  0  0  0  0  0  0
   -9.6910    1.3970    0.9910 C   0  0  0  0  0  0  0  0  0  0  0  0
   -9.1680    2.4720    0.0600 C   0  0  0  0  0  0  0  0  0  0  0  0
   -8.2180   -1.7120   -0.2500 C   0  0  0  0  0  0  0  0  0  0  0  0
   -6.9860   -2.2560   -0.5070 C   0  0  0  0  0  0  0  0  0  0  0  0
   -5.8240   -1.5120   -0.2550 C   0  0  0  0  0  0  0  0  0  0  0  0
   -6.9500   -3.5440   -1.0140 O   0  0  0  0  0  0  0  0  0  0  0  0
   -7.9680   -4.4990   -0.7800 C   0  0  0  0  0  0  0  0  0  0  0  0
   -9.2910   -3.9170   -0.4270 C   0  0  0  0  0  0  0  0  0  0  0  0
   -9.3270   -2.4920   -0.5180 O   0  0  0  0  0  0  0  0  0  0  0  0
   -4.6560    1.7920    0.8710 C   0  0  0  0  0  0  0  0  0  0  0  0
   -3.4380    2.5840    1.1200 C   0  0  0  0  0  0  0  0  0  0  0  0
   -3.5710    4.0210    1.5560 C   0  0  0  0  0  0  0  0  0  0  0  0
   -2.2460    2.0690    0.9720 C   0  0  0  0  0  0  0  0  0  0  0  0
   -1.1310    2.8530    1.2160 O   0  0  0  0  0  0  0  0  0  0  0  0
   -0.6440    2.9990    2.5440 C   0  0  0  0  0  0  0  0  0  0  0  0
    2.4300    0.5030   -0.8630 C   0  0  0  0  0  0  0  0  0  0  0  0
    3.7010    0.6960   -1.1540 O   0  0  0  0  0  0  0  0  0  0  0  0
    1.6970    1.6710   -1.0860 N   0  0  0  0  0  0  0  0  0  0  0  0
    2.3550    2.9160   -1.5490 C   0  0  0  0  0  0  0  0  0  0  0  0
    5.1860   -0.6130    0.3310 C   0  0  0  0  0  0  0  0  0  0  0  0
    6.5190   -0.3190    0.1680 C   0  0  0  0  0  0  0  0  0  0  0  0
  1  2  1  0
  2  3  1  0
  3  4  1  0
  4  5  1  6
  4  6  1  0
  6  7  2  0
  6 44  1  0
  7  8  1  0
  8  9  2  0
  9 10  1  0
  9 43  1  0
 10 11  2  3
 11 12  1  0
 11 39  1  0
 12 13  2  3
 13 14  1  0
 13 16  1  0
 14 15  2  0
 16 17  2  3
 17 18  1  0
 17 36  1  0
 18 19  1  0
 19 20  1  0
 19 33  2  0
 20 21  2  0
 20 28  1  0
 21 22  1  0
 22 23  1  0
 22 26  2  0
 23 24  1  0
 24 25  1  0
 26 27  1  0
 26 32  1  0
 27 28  2  0
 27 29  1  0
 29 30  1  0
 30 31  1  0
 31 32  1  0
 33 34  1  0
 34 35  1  0
 34 36  2  0
 36 37  1  0
 37 38  1  0
 39 40  2  0
 39 41  1  0
 41 42  1  0
 43 44  2  0
M  CHG  1   3   1
M  END
