
     RDKit          3D

 23 25  0  0  0  0  0  0  0  0999 V2000
    5.6790    1.1350    0.4840 C   0  0  0  0  0  0  0  0  0  0  0  0
    5.6870    0.4160   -0.6830 O   0  0  0  0  0  0  0  0  0  0  0  0
    4.7320   -0.5700   -0.7660 C   0  0  0  0  0  0  0  0  0  0  0  0
    3.3600   -0.0150   -0.6860 C   0  0  0  0  0  0  0  0  0  0  0  0
    3.0250    1.2900   -0.9590 C   0  0  0  0  0  0  0  0  0  0  0  0
    1.6560    1.3480   -0.7550 C   0  0  0  0  0  0  0  0  0  0  0  0
    1.2210    0.0970   -0.3720 C   0  0  0  0  0  0  0  0  0  0  0  0
   -0.1540   -0.2750   -0.0590 C   0  0  0  0  0  0  0  0  0  0  0  0
   -1.1610    0.6750   -0.1360 C   0  0  0  0  0  0  0  0  0  0  0  0
   -2.4810    0.4090    0.1420 C   0  0  0  0  0  0  0  0  0  0  0  0
   -3.5000    1.4690    0.0390 C   0  0  0  0  0  0  0  0  0  0  0  0
   -4.8180    1.2940    0.2940 C   0  0  0  0  0  0  0  0  0  0  0  0
   -5.6720    2.3400    0.1680 N   0  0  0  0  0  0  0  0  0  0  0  0
   -5.2850    3.5730   -0.2030 C   0  0  0  0  0  0  0  0  0  0  0  0
   -3.9410    3.7270   -0.4570 C   0  0  0  0  0  0  0  0  0  0  0  0
   -3.0770    2.7120   -0.3400 N   0  0  0  0  0  0  0  0  0  0  0  0
   -2.8050   -0.8620    0.5120 C   0  0  0  0  0  0  0  0  0  0  0  0
   -1.8020   -1.8390    0.5970 C   0  0  0  0  0  0  0  0  0  0  0  0
   -2.1840   -3.1970    0.9980 C   0  0  0  0  0  0  0  0  0  0  0  0
   -0.4870   -1.5610    0.3170 C   0  0  0  0  0  0  0  0  0  0  0  0
    0.5020   -2.5200    0.3990 O   0  0  0  0  0  0  0  0  0  0  0  0
    0.9060   -3.3550   -0.6450 C   0  0  0  0  0  0  0  0  0  0  0  0
    2.2710   -0.6850   -0.3440 O   0  0  0  0  0  0  0  0  0  0  0  0
  1  2  1  0
  2  3  1  0
  3  4  1  0
  4  5  2  0
  4 23  1  0
  5  6  1  0
  6  7  2  0
  7  8  1  0
  7 23  1  0
  8  9  2  0
  8 20  1  0
  9 10  1  0
 10 11  1  0
 10 17  2  0
 11 12  2  0
 11 16  1  0
 12 13  1  0
 13 14  2  0
 14 15  1  0
 15 16  2  0
 17 18  1  0
 18 19  1  0
 18 20  2  0
 20 21  1  0
 21 22  1  0
M  END
