
     RDKit          3D

 23 25  0  0  0  0  0  0  0  0999 V2000
   -0.6950    3.9100   -0.2130 C   0  0  0  0  0  0  0  0  0  0  0  0
   -1.9200    3.9140    0.3050 C   0  0  0  0  0  0  0  0  0  0  0  0
   -2.9020    4.8300   -0.0760 O   0  0  0  0  0  0  0  0  0  0  0  0
   -4.1690    4.8470    0.4550 C   0  0  0  0  0  0  0  0  0  0  0  0
   -4.5240    3.9690    1.3810 C   0  0  0  0  0  0  0  0  0  0  0  0
   -3.5160    2.9800    1.8160 C   0  0  0  0  0  0  0  0  0  0  0  0
   -2.3080    2.9550    1.3170 C   0  0  0  0  0  0  0  0  0  0  0  0
   -1.3260    1.9530    1.7960 C   0  0  0  0  0  0  0  0  0  0  0  0
   -0.9410    1.1730    0.7740 O   0  0  0  0  0  0  0  0  0  0  0  0
   -0.2360    0.1880    0.2840 C   0  0  0  0  0  0  0  0  0  0  0  0
    0.6130   -0.5710    1.0300 N   0  0  0  0  0  0  0  0  0  0  0  0
    1.3210   -1.5680    0.5600 C   0  0  0  0  0  0  0  0  0  0  0  0
    2.1820   -2.3510    1.3430 C   0  0  0  0  0  0  0  0  0  0  0  0
    2.8960   -3.3980    0.8080 C   0  0  0  0  0  0  0  0  0  0  0  0
    2.7830   -3.7110   -0.5310 C   0  0  0  0  0  0  0  0  0  0  0  0
    3.4570   -4.7320   -1.1240 O   0  0  0  0  0  0  0  0  0  0  0  0
    4.3500   -5.6350   -0.5560 C   0  0  0  0  0  0  0  0  0  0  0  0
    1.9360   -2.9360   -1.2940 C   0  0  0  0  0  0  0  0  0  0  0  0
    1.2100   -1.8830   -0.7850 C   0  0  0  0  0  0  0  0  0  0  0  0
    0.3640   -1.1420   -1.5900 C   0  0  0  0  0  0  0  0  0  0  0  0
   -0.3620   -0.1080   -1.0830 C   0  0  0  0  0  0  0  0  0  0  0  0
   -1.2400    0.6820   -1.9340 C   0  0  0  0  0  0  0  0  0  0  0  0
   -1.9290    1.3130   -2.5920 N   0  0  0  0  0  0  0  0  0  0  0  0
  1  2  2  0
  2  3  1  0
  2  7  1  0
  3  4  1  0
  4  5  2  0
  5  6  1  0
  6  7  2  0
  7  8  1  0
  8  9  1  0
  9 10  1  0
 10 11  2  0
 10 21  1  0
 11 12  1  0
 12 13  2  0
 12 19  1  0
 13 14  1  0
 14 15  2  0
 15 16  1  0
 15 18  1  0
 16 17  1  0
 18 19  2  0
 19 20  1  0
 20 21  2  0
 21 22  1  0
 22 23  3  0
M  END
