
     RDKit          3D

 23 24  0  0  0  0  0  0  0  0999 V2000
   -5.9220    1.2110    0.2500 C   0  0  0  0  0  0  0  0  0  0  0  0
   -5.6620   -0.0960   -0.2990 C   0  0  0  0  0  0  0  0  0  0  0  0
   -4.5070   -0.7090   -0.4470 C   0  0  0  0  0  0  0  0  0  0  0  0
   -4.6650   -2.0940   -1.0680 C   0  0  0  0  0  0  0  0  0  0  0  0
   -3.4140   -2.8180   -1.1160 C   0  0  0  0  0  0  0  0  0  0  0  0
   -2.2550   -2.3300   -0.7240 C   0  0  0  0  0  0  0  0  0  0  0  0
   -2.1350   -0.9840   -0.1880 C   0  0  0  0  0  0  0  0  0  0  0  0
   -3.2050   -0.2260   -0.0710 C   0  0  0  0  0  0  0  0  0  0  0  0
   -3.0350    1.1440    0.4000 C   0  0  0  0  0  0  0  0  0  0  0  0
   -1.6990    1.5250    0.6830 O   0  0  0  0  0  0  0  0  0  0  0  0
   -0.6870    1.6630   -0.2220 C   0  0  0  0  0  0  0  0  0  0  0  0
   -0.9440    1.4460   -1.4380 O   0  0  0  0  0  0  0  0  0  0  0  0
    0.6870    2.0610    0.2090 C   0  0  2  0  0  0  0  0  0  0  0  0
    1.6320    2.1500   -0.9490 C   0  0  0  0  0  0  0  0  0  0  0  0
    3.0550    2.1680   -0.3740 C   0  0  0  0  0  0  0  0  0  0  0  0
    3.2900    0.7900    0.0720 N   0  0  0  0  0  0  0  0  0  0  0  0
    4.5120    0.1840   -0.2480 C   0  0  0  0  0  0  0  0  0  0  0  0
    5.3850    0.8830   -0.9290 O   0  0  0  0  0  0  0  0  0  0  0  0
    4.9610   -1.1090    0.0620 N   0  0  0  0  0  0  0  0  0  0  0  0
    4.2350   -2.1050    0.7910 C   0  0  0  0  0  0  0  0  0  0  0  0
    6.3050   -1.5020   -0.3920 C   0  0  0  0  0  0  0  0  0  0  0  0
    2.2460    0.1690    0.8050 C   0  0  0  0  0  0  0  0  0  0  0  0
    1.2240    1.2020    1.3060 C   0  0  0  0  0  0  0  0  0  0  0  0
  1  2  1  0
  2  3  2  3
  3  4  1  0
  3  8  1  0
  4  5  1  0
  5  6  2  0
  6  7  1  0
  7  8  2  0
  8  9  1  0
  9 10  1  0
 10 11  1  0
 11 12  2  0
 13 11  1  6
 13 14  1  0
 13 23  1  0
 14 15  1  0
 15 16  1  0
 16 17  1  0
 16 22  1  0
 17 18  2  0
 17 19  1  0
 19 20  1  0
 19 21  1  0
 22 23  1  0
M  END
