
     RDKit          3D

 23 24  0  0  0  0  0  0  0  0999 V2000
   -5.5110   -2.6570   -0.2620 C   0  0  0  0  0  0  0  0  0  0  0  0
   -5.6780   -1.4360   -0.2210 C   0  0  0  0  0  0  0  0  0  0  0  0
   -4.8960   -0.2400    0.1100 C   0  0  0  0  0  0  0  0  0  0  0  0
   -5.5520    0.9020    0.0070 C   0  0  0  0  0  0  0  0  0  0  0  0
   -5.2000    2.2550    0.2150 C   0  0  0  0  0  0  0  0  0  0  0  0
   -3.5640   -0.2970    0.5960 C   0  0  0  0  0  0  0  0  0  0  0  0
   -2.8480   -1.4490    0.6370 C   0  0  0  0  0  0  0  0  0  0  0  0
   -1.4490   -1.3050    1.1840 C   0  0  0  0  0  0  0  0  0  0  0  0
   -0.7910   -0.1720    0.5800 N   0  0  0  0  0  0  0  0  0  0  0  0
    0.5710   -0.1660    0.2600 C   0  0  0  0  0  0  0  0  0  0  0  0
    1.2560   -1.1860    0.5050 O   0  0  0  0  0  0  0  0  0  0  0  0
    1.2100    0.9860   -0.3480 C   0  0  0  0  0  0  0  0  0  0  0  0
    2.4970    0.9300   -0.6260 C   0  0  0  0  0  0  0  0  0  0  0  0
    3.3430    2.0000   -1.2490 C   0  0  0  0  0  0  0  0  0  0  0  0
    4.3930    1.1470   -1.9600 C   0  0  0  0  0  0  0  0  0  0  0  0
    4.6880    0.1660   -0.9380 N   0  0  0  0  0  0  0  0  0  0  0  0
    5.9590   -0.3330   -0.5490 C   0  0  0  0  0  0  0  0  0  0  0  0
    6.9700    0.1090   -1.1440 O   0  0  0  0  0  0  0  0  0  0  0  0
    6.1180   -1.2770    0.4480 O   0  0  0  0  0  0  0  0  0  0  0  0
    7.3800   -1.7680    0.8290 C   0  0  0  0  0  0  0  0  0  0  0  0
    3.3990   -0.2080   -0.3840 C   0  0  0  0  0  0  0  0  0  0  0  0
   -1.5930    1.0250    0.2920 C   0  0  0  0  0  0  0  0  0  0  0  0
   -2.8260    0.8400    1.2020 C   0  0  0  0  0  0  0  0  0  0  0  0
  1  2  2  0
  2  3  1  0
  3  4  2  3
  3  6  1  0
  4  5  1  0
  6  7  2  0
  6 23  1  0
  7  8  1  0
  8  9  1  0
  9 10  1  0
  9 22  1  0
 10 11  2  0
 10 12  1  0
 12 13  2  3
 13 14  1  0
 13 21  1  0
 14 15  1  0
 15 16  1  0
 16 17  1  0
 16 21  1  0
 17 18  2  0
 17 19  1  0
 19 20  1  0
 22 23  1  0
M  END
