
     RDKit          3D

 23 25  0  0  0  0  0  0  0  0999 V2000
    7.2280    1.3540    2.4890 C   0  0  0  0  0  0  0  0  0  0  0  0
    6.0140    0.9360    2.2100 C   0  0  0  0  0  0  0  0  0  0  0  0
    5.6500    0.3730    0.9400 C   0  0  0  0  0  0  0  0  0  0  0  0
    4.4160   -0.0300    0.6840 C   0  0  0  0  0  0  0  0  0  0  0  0
    4.0470   -0.5910   -0.5740 O   0  0  0  0  0  0  0  0  0  0  0  0
    2.6660   -0.9120   -0.5240 C   0  0  0  0  0  0  0  0  0  0  0  0
    1.8670   -1.4670   -1.4930 C   0  0  0  0  0  0  0  0  0  0  0  0
    0.5030   -1.6890   -1.2000 C   0  0  0  0  0  0  0  0  0  0  0  0
    0.0680   -1.3350    0.0290 C   0  0  0  0  0  0  0  0  0  0  0  0
    0.8770   -0.7860    0.9730 C   0  0  0  0  0  0  0  0  0  0  0  0
    2.2280   -0.5540    0.7170 C   0  0  0  0  0  0  0  0  0  0  0  0
    3.2740   -0.0300    1.4370 O   0  0  0  0  0  0  0  0  0  0  0  0
   -1.3870   -1.5010    0.4120 C   0  0  0  0  0  0  0  0  0  0  0  0
   -2.1510   -1.3460   -0.8230 N   0  0  0  0  0  0  0  0  0  0  0  0
   -3.1450   -0.3730   -1.0330 C   0  0  0  0  0  0  0  0  0  0  0  0
   -3.7520   -0.2990   -2.1440 O   0  0  0  0  0  0  0  0  0  0  0  0
   -3.5600    0.6160   -0.0100 C   0  0  0  0  0  0  0  0  0  0  0  0
   -4.2580    1.8040   -0.5790 C   0  0  0  0  0  0  0  0  0  0  0  0
   -4.6420    2.7310    0.5700 C   0  0  0  0  0  0  0  0  0  0  0  0
   -5.3200    3.9580    0.0300 C   0  0  0  0  0  0  0  0  0  0  0  0
   -5.8170    4.8970   -0.3770 N   0  0  0  0  0  0  0  0  0  0  0  0
   -1.7950   -2.2790   -1.8720 C   0  0  0  0  0  0  0  0  0  0  0  0
   -0.3580   -2.2850   -2.2380 C   0  0  0  0  0  0  0  0  0  0  0  0
  1  2  2  0
  2  3  1  0
  3  4  2  3
  4  5  1  0
  4 12  1  0
  5  6  1  0
  6  7  2  0
  6 11  1  0
  7  8  1  0
  8  9  2  0
  8 23  1  0
  9 10  1  0
  9 13  1  0
 10 11  2  0
 11 12  1  0
 13 14  1  0
 14 15  1  0
 14 22  1  0
 15 16  2  0
 15 17  1  0
 17 18  1  0
 18 19  1  0
 19 20  1  0
 20 21  3  0
 22 23  1  0
M  END
