
     RDKit          3D

 23 25  0  0  0  0  0  0  0  0999 V2000
   -0.6070    2.4710   -0.5030 C   0  0  0  0  0  0  0  0  0  0  0  0
    0.1980    2.8070    0.6640 C   0  0  0  0  0  0  0  0  0  0  0  0
    0.4080    2.1350    1.7540 C   0  0  0  0  0  0  0  0  0  0  0  0
    1.2560    2.5390    2.9620 C   0  0  0  0  0  0  0  0  0  0  0  0
    0.1240    2.2900    3.9040 O   0  0  0  0  0  0  0  0  0  0  0  0
   -0.3020    1.0010    3.5200 C   0  0  0  0  0  0  0  0  0  0  0  0
   -0.1390    0.8450    2.1900 C   0  0  0  0  0  0  0  0  0  0  0  0
   -0.4750   -0.2850    1.3510 C   0  0  0  0  0  0  0  0  0  0  0  0
   -0.1050   -0.3920    0.1020 N   0  0  0  0  0  0  0  0  0  0  0  0
   -0.4260   -1.5030   -0.7160 C   0  0  0  0  0  0  0  0  0  0  0  0
   -1.1680   -2.5750   -0.2240 C   0  0  0  0  0  0  0  0  0  0  0  0
   -1.5790   -3.6370   -1.0020 C   0  0  0  0  0  0  0  0  0  0  0  0
   -1.2650   -3.6930   -2.3410 C   0  0  0  0  0  0  0  0  0  0  0  0
   -0.5290   -2.6480   -2.8440 C   0  0  0  0  0  0  0  0  0  0  0  0
   -0.1180   -1.5810   -2.0500 C   0  0  0  0  0  0  0  0  0  0  0  0
    0.7710   -0.5940   -2.6390 C   0  0  0  0  0  0  0  0  0  0  0  0
    0.7980   -0.4650   -3.9190 O   0  0  0  0  0  0  0  0  0  0  0  0
    1.6190    0.2390   -1.9610 O   0  0  0  0  0  0  0  0  0  0  0  0
    2.4570    1.1680   -2.6240 C   0  0  0  0  0  0  0  0  0  0  0  0
    3.2450    1.9080   -1.5650 C   0  0  0  0  0  0  0  0  0  0  0  0
   -1.4450   -2.6110    1.2340 C   0  0  0  0  0  0  0  0  0  0  0  0
   -1.3810   -1.2910    1.7860 N   0  0  0  0  0  0  0  0  0  0  0  0
   -2.3610   -0.9620    2.8310 C   0  0  0  0  0  0  0  0  0  0  0  0
  1  2  1  0
  2  3  2  3
  3  4  1  0
  3  7  1  0
  4  5  1  0
  5  6  1  0
  6  7  2  0
  7  8  1  0
  8  9  2  0
  8 22  1  0
  9 10  1  0
 10 11  2  0
 10 15  1  0
 11 12  1  0
 11 21  1  0
 12 13  2  0
 13 14  1  0
 14 15  2  0
 15 16  1  0
 16 17  2  0
 16 18  1  0
 18 19  1  0
 19 20  1  0
 21 22  1  0
 22 23  1  0
M  END
