
     RDKit          3D

 23 24  0  0  0  0  0  0  0  0999 V2000
   -6.5720    0.6380    1.1420 C   0  0  0  0  0  0  0  0  0  0  0  0
   -5.3450    0.9500    0.3970 C   0  0  0  0  0  0  0  0  0  0  0  0
   -4.9970    2.1820    0.3390 O   0  0  0  0  0  0  0  0  0  0  0  0
   -4.5380    0.0110   -0.2480 N   0  0  0  0  0  0  0  0  0  0  0  0
   -4.8340   -1.4060   -0.2480 C   0  0  0  0  0  0  0  0  0  0  0  0
   -3.8380   -2.0510    0.6400 C   0  0  0  0  0  0  0  0  0  0  0  0
   -2.4700   -1.4300    0.4540 C   0  0  0  0  0  0  0  0  0  0  0  0
   -1.4620   -2.1590    1.2010 C   0  0  0  0  0  0  0  0  0  0  0  0
   -0.2870   -1.8590    1.2530 O   0  0  0  0  0  0  0  0  0  0  0  0
   -2.1850   -0.3920   -0.2350 C   0  0  0  0  0  0  0  0  0  0  0  0
   -0.9540    0.2210   -0.4440 N   0  0  0  0  0  0  0  0  0  0  0  0
   -0.7400    0.5400   -1.9170 C   0  0  0  0  0  0  0  0  0  0  0  0
    0.0840    0.7490    0.3360 C   0  0  0  0  0  0  0  0  0  0  0  0
    1.4130    0.2080   -0.0610 C   0  0  0  0  0  0  0  0  0  0  0  0
    2.4780    0.7200    0.7250 O   0  0  0  0  0  0  0  0  0  0  0  0
    3.7850    0.2970    0.4610 C   0  0  0  0  0  0  0  0  0  0  0  0
    4.0780   -0.9510    0.1710 C   0  0  0  0  0  0  0  0  0  0  0  0
    5.4430   -1.4050   -0.1070 C   0  0  0  0  0  0  0  0  0  0  0  0
    6.4770   -0.3770   -0.0440 C   0  0  0  0  0  0  0  0  0  0  0  0
    6.0580    0.9760    0.2840 C   0  0  0  0  0  0  0  0  0  0  0  0
    4.8230    1.3180    0.5220 C   0  0  0  0  0  0  0  0  0  0  0  0
    4.4570    2.7360    0.8550 C   0  0  0  0  0  0  0  0  0  0  0  0
   -3.3450    0.3620   -0.9670 C   0  0  0  0  0  0  0  0  0  0  0  0
  1  2  1  0
  2  3  2  0
  2  4  1  0
  4  5  1  0
  4 23  1  0
  5  6  1  0
  6  7  1  0
  7  8  1  0
  7 10  2  0
  8  9  2  0
 10 11  1  0
 10 23  1  0
 11 12  1  0
 11 13  1  0
 13 14  1  0
 14 15  1  0
 15 16  1  0
 16 17  2  0
 16 21  1  0
 17 18  1  0
 18 19  1  0
 19 20  1  0
 20 21  2  0
 21 22  1  0
M  END
