
     RDKit          3D

 30 31  0  0  0  0  0  0  0  0999 V2000
   -5.7820   -2.4620    0.6460 O   0  0  0  0  0  0  0  0  0  0  0  0
   -4.2500   -2.4580    0.9280 P   0  0  0  0  0  0  0  0  0  0  0  0
   -3.5990   -1.0300    1.7050 O   0  0  0  0  0  0  0  0  0  0  0  0
   -2.6400   -0.4150    0.8740 C   0  0  1  0  0  0  0  0  0  0  0  0
   -3.3460   -0.0710   -0.3480 N   0  0  0  0  0  0  0  0  0  0  0  0
   -4.4810    0.7620   -0.2890 C   0  0  0  0  0  0  0  0  0  0  0  0
   -4.9240    1.2370    0.8140 O   0  0  0  0  0  0  0  0  0  0  0  0
   -5.2300    1.1460   -1.4470 N   0  0  0  0  0  0  0  0  0  0  0  0
   -6.6770    2.2100   -1.3510 P   0  0  0  0  0  0  0  0  0  0  0  0
   -8.0560    1.3570   -0.7470 O   0  0  0  0  0  0  0  0  0  0  0  0
   -6.4200    3.5620   -0.2930 O   0  0  0  0  0  0  0  0  0  0  0  0
   -2.1550    0.8340    1.5220 C   0  0  0  0  0  0  0  0  0  0  0  0
   -0.7850    0.8860    1.5120 O   0  0  0  0  0  0  0  0  0  0  0  0
   -0.3300    0.5830    0.2280 C   0  0  0  0  0  0  0  0  0  0  0  0
   -0.6220   -0.8440   -0.1400 C   0  0  1  0  0  0  0  0  0  0  0  0
    0.5960   -1.6440    0.0060 C   0  0  0  0  0  0  0  0  0  0  0  0
    1.7210   -1.1030    0.2180 N   0  0  0  0  0  0  0  0  0  0  0  0
    2.9960   -1.7300    0.3820 C   0  0  1  0  0  0  0  0  0  0  0  0
    3.5140   -1.3600    1.6150 O   0  0  0  0  0  0  0  0  0  0  0  0
    4.7150   -0.7240    1.5850 C   0  0  0  0  0  0  0  0  0  0  0  0
    4.7480    0.5890    0.8220 C   0  0  0  0  0  0  0  0  0  0  0  0
    6.0450    1.1040    0.9040 O   0  0  0  0  0  0  0  0  0  0  0  0
    6.2840    2.5830    0.0980 P   0  0  0  0  0  0  0  0  0  0  0  0
    7.8380    2.7020   -0.6180 O   0  0  0  0  0  0  0  0  0  0  0  0
    5.0380    3.0190   -1.0090 O   0  0  0  0  0  0  0  0  0  0  0  0
    2.9270   -3.2140    0.2610 C   0  0  0  0  0  0  0  0  0  0  0  0
    3.9650   -3.8820    0.3690 O   0  0  0  0  0  0  0  0  0  0  0  0
    1.6820   -3.8190    0.0260 N   0  0  0  0  0  0  0  0  0  0  0  0
    0.4900   -3.0560   -0.1080 N   0  0  0  0  0  0  0  0  0  0  0  0
   -1.6540   -1.3740    0.6380 O   0  0  0  0  0  0  0  0  0  0  0  0
  1  2  2  0
  2  3  1  0
  3  4  1  0
  4  5  1  6
  4 12  1  0
  4 30  1  0
  5  6  1  0
  6  7  2  0
  6  8  1  0
  8  9  1  0
  9 10  1  0
  9 11  1  0
 12 13  1  0
 13 14  1  0
 14 15  1  0
 15 16  1  1
 15 30  1  0
 16 17  2  0
 16 29  1  0
 17 18  1  0
 18 19  1  1
 18 26  1  0
 19 20  1  0
 20 21  1  0
 21 22  1  0
 22 23  1  0
 23 24  1  0
 23 25  1  0
 26 27  2  0
 26 28  1  0
 28 29  1  0
M  END
