
     RDKit          3D

 30 31  0  0  0  0  0  0  0  0999 V2000
   -5.3340    0.5470   -0.8720 N   0  0  0  0  0  0  0  0  0  0  0  0
   -5.6510   -0.4100   -0.0850 C   0  0  0  0  0  0  0  0  0  0  0  0
   -4.6470   -1.3350    0.2910 N   0  0  0  0  0  0  0  0  0  0  0  0
   -3.3360   -0.9980    0.0620 O   0  0  0  0  0  0  0  0  0  0  0  0
   -2.4900   -1.7830   -0.7030 C   0  0  0  0  0  0  0  0  0  0  0  0
   -2.9870   -2.8290   -1.1810 O   0  0  0  0  0  0  0  0  0  0  0  0
   -1.0930   -1.3740   -0.9160 C   0  0  1  0  0  0  0  0  0  0  0  0
   -0.9690   -0.0380   -1.6010 C   0  0  0  0  0  0  0  0  0  0  0  0
   -0.2100    0.7980   -0.7940 O   0  0  0  0  0  0  0  0  0  0  0  0
   -0.7800    1.0110    0.4500 C   0  0  0  0  0  0  0  0  0  0  0  0
   -1.0360   -0.1560    1.1410 O   0  0  0  0  0  0  0  0  0  0  0  0
   -0.4170   -1.2240    0.4520 C   0  0  2  0  0  0  0  0  0  0  0  0
    1.0050   -0.9000    0.2830 C   0  0  0  0  0  0  0  0  0  0  0  0
    1.7250   -1.0530   -0.8470 N   0  0  0  0  0  0  0  0  0  0  0  0
    2.9390   -0.6510   -0.5790 O   0  0  0  0  0  0  0  0  0  0  0  0
    3.0220   -0.2540    0.6610 C   0  0  0  0  0  0  0  0  0  0  0  0
    4.2440    0.2690    1.3220 C   0  0  1  0  0  0  0  0  0  0  0  0
    5.3550   -0.7560    1.3050 C   0  0  0  0  0  0  0  0  0  0  0  0
    4.9680   -1.9050    1.9680 O   0  0  0  0  0  0  0  0  0  0  0  0
    5.9730   -2.7690    1.9250 O   0  0  0  0  0  0  0  0  0  0  0  0
    4.8520    1.8060    0.4750 P   0  0  0  0  0  0  0  0  0  0  0  0
    6.4810    2.1070    0.9180 O   0  0  0  0  0  0  0  0  0  0  0  0
    4.5660    1.7050   -1.6860 P   0  0  0  0  0  0  0  0  0  0  0  0
    4.1690    3.2910   -2.2620 O   0  0  0  0  0  0  0  0  0  0  0  0
    6.0210    1.1780   -2.4570 O   0  0  0  0  0  0  0  0  0  0  0  0
    1.8150   -0.3990    1.2320 N   0  0  0  0  0  0  0  0  0  0  0  0
   -7.0000   -0.5420    0.4090 N   0  0  0  0  0  0  0  0  0  0  0  0
   -8.1730    0.7810    0.2230 P   0  0  0  0  0  0  0  0  0  0  0  0
   -7.5780    1.9110   -0.9740 O   0  0  0  0  0  0  0  0  0  0  0  0
   -8.3720    1.6700    1.7080 O   0  0  0  0  0  0  0  0  0  0  0  0
  1  2  2  0
  2  3  1  0
  2 27  1  0
  3  4  1  0
  4  5  1  0
  5  6  2  0
  7  5  1  1
  7  8  1  0
  7 12  1  0
  8  9  1  0
  9 10  1  0
 10 11  1  0
 11 12  1  0
 12 13  1  6
 13 14  2  0
 13 26  1  0
 14 15  1  0
 15 16  1  0
 16 17  1  0
 16 26  2  0
 17 18  1  6
 17 21  1  0
 18 19  1  0
 19 20  1  0
 21 22  1  0
 21 23  1  0
 23 24  1  0
 23 25  1  0
 27 28  1  0
 28 29  1  0
 28 30  1  0
M  END
