
     RDKit          3D

 31 33  0  0  0  0  0  0  0  0999 V2000
    1.3140    0.0980    0.1380 O   0  0  0  0  0  0  0  0  0  0  0  0
    1.1430    0.3370   -1.1070 C   0  0  0  0  0  0  0  0  0  0  0  0
   -0.2440    0.3820   -1.6170 C   0  0  0  0  0  0  0  0  0  0  0  0
   -1.1820    0.1270   -0.5080 N   0  0  0  0  0  0  0  0  0  0  0  0
   -1.2080   -1.2050    0.0570 C   0  0  0  0  0  0  0  0  0  0  0  0
   -2.3300   -1.3420    1.0280 C   0  0  1  0  0  0  0  0  0  0  0  0
   -2.0160   -2.8890    2.0170 P   0  0  0  0  0  0  0  0  0  0  0  0
   -0.9220   -2.5770    3.3230 O   0  0  0  0  0  0  0  0  0  0  0  0
   -3.4930   -3.5940    2.5750 O   0  0  0  0  0  0  0  0  0  0  0  0
   -2.4470   -0.1900    1.8650 N   0  0  0  0  0  0  0  0  0  0  0  0
   -3.0380    0.8580    1.0560 C   0  0  1  0  0  0  0  0  0  0  0  0
   -4.6150    0.2230    0.3490 P   0  0  0  0  0  0  0  0  0  0  0  0
   -5.6550   -0.1690    1.7100 O   0  0  0  0  0  0  0  0  0  0  0  0
   -5.5840    1.6530   -0.9830 P   0  0  0  0  0  0  0  0  0  0  0  0
   -5.9830    0.8400   -2.4770 O   0  0  0  0  0  0  0  0  0  0  0  0
   -7.0970    2.1470   -0.2690 O   0  0  0  0  0  0  0  0  0  0  0  0
   -3.1690    2.0820    1.6600 O   0  0  0  0  0  0  0  0  0  0  0  0
   -3.1180    2.9400    0.5820 O   0  0  0  0  0  0  0  0  0  0  0  0
   -2.1100    2.4040   -0.2310 N   0  0  0  0  0  0  0  0  0  0  0  0
   -2.0050    1.1580   -0.0040 C   0  0  0  0  0  0  0  0  0  0  0  0
    2.2950    0.5360   -1.8840 N   0  0  0  0  0  0  0  0  0  0  0  0
    3.5720    0.4620   -1.2800 C   0  0  0  0  0  0  0  0  0  0  0  0
    4.7680    0.6430   -1.8650 N   0  0  0  0  0  0  0  0  0  0  0  0
    5.7380    0.4820   -0.9320 C   0  0  0  0  0  0  0  0  0  0  0  0
    7.1700    0.5920   -1.0910 C   0  0  0  0  0  0  0  0  0  0  0  0
    7.7370    0.8690   -2.1570 O   0  0  0  0  0  0  0  0  0  0  0  0
    7.9840    0.3730    0.0270 O   0  0  0  0  0  0  0  0  0  0  0  0
    9.3270    0.4650   -0.0730 O   0  0  0  0  0  0  0  0  0  0  0  0
    9.6540    1.0270   -1.2380 O   0  0  0  0  0  0  0  0  0  0  0  0
    5.0850    0.1960    0.2420 C   0  0  0  0  0  0  0  0  0  0  0  0
    3.8200    0.1920    0.0010 O   0  0  0  0  0  0  0  0  0  0  0  0
  1  2  2  0
  2  3  1  0
  2 21  1  0
  3  4  1  0
  4  5  1  0
  4 20  1  0
  5  6  1  0
  6  7  1  1
  6 10  1  0
  7  8  1  0
  7  9  1  0
 10 11  1  0
 11 12  1  6
 11 17  1  0
 11 20  1  0
 12 13  1  0
 12 14  1  0
 14 15  1  0
 14 16  1  0
 17 18  1  0
 18 19  1  0
 19 20  2  0
 21 22  1  0
 22 23  2  0
 22 31  1  0
 23 24  1  0
 24 25  1  0
 24 30  2  0
 25 26  2  0
 25 27  1  0
 27 28  1  0
 28 29  1  0
 30 31  1  0
M  END
