
     RDKit          3D

 19 19  0  0  0  0  0  0  0  0999 V2000
    0.2850    1.5580   -1.3400 C   0  0  0  0  0  0  0  0  0  0  0  0
    0.5780    0.7350   -0.1470 C   0  0  1  0  0  0  0  0  0  0  0  0
   -0.5140    0.3330    0.7460 C   0  0  0  0  0  0  0  0  0  0  0  0
   -1.6560   -0.4600    0.3750 C   0  0  2  0  0  0  0  0  0  0  0  0
   -2.4870   -0.6460    1.6850 C   0  0  0  0  0  0  0  0  0  0  0  0
   -3.6440   -1.3200    1.4260 O   0  0  0  0  0  0  0  0  0  0  0  0
   -1.3870   -1.7570   -0.0670 O   0  0  0  0  0  0  0  0  0  0  0  0
   -2.0640   -1.9730   -1.2520 C   0  0  0  0  0  0  0  0  0  0  0  0
   -2.3420   -0.7000   -1.8080 O   0  0  0  0  0  0  0  0  0  0  0  0
   -2.6730   -0.0220   -0.6020 C   0  0  2  0  0  0  0  0  0  0  0  0
   -3.0400    1.3830   -0.7520 C   0  0  0  0  0  0  0  0  0  0  0  0
   -3.3160    1.9300    0.5080 O   0  0  0  0  0  0  0  0  0  0  0  0
    1.6370   -0.3310   -0.3790 C   0  0  1  0  0  0  0  0  0  0  0  0
    1.8910   -1.1490    0.8610 C   0  0  0  0  0  0  0  0  0  0  0  0
    1.2600   -1.3030   -1.4860 C   0  0  0  0  0  0  0  0  0  0  0  0
    2.9670    0.2630   -0.7700 C   0  0  2  0  0  0  0  0  0  0  0  0
    3.9320   -0.7260   -0.9700 O   0  0  0  0  0  0  0  0  0  0  0  0
    3.5260    1.2710    0.1690 C   0  0  0  0  0  0  0  0  0  0  0  0
    3.8630    0.7450    1.4230 O   0  0  0  0  0  0  0  0  0  0  0  0
  2  1  1  6
  2  3  1  0
  2 13  1  0
  4  3  1  1
  4  5  1  0
  4  7  1  0
  4 10  1  0
  5  6  1  0
  7  8  1  0
  8  9  1  0
  9 10  1  0
 10 11  1  6
 11 12  1  0
 13 14  1  1
 13 15  1  0
 13 16  1  0
 16 17  1  1
 16 18  1  0
 18 19  1  0
M  END
