
     RDKit          3D

 19 19  0  0  0  0  0  0  0  0999 V2000
    3.1160   -1.7640    1.0250 C   0  0  0  0  0  0  0  0  0  0  0  0
    3.2370   -0.3060    0.7960 C   0  0  1  0  0  0  0  0  0  0  0  0
    4.4060   -0.0670   -0.1480 C   0  0  0  0  0  0  0  0  0  0  0  0
    4.4890    1.3200   -0.3400 O   0  0  0  0  0  0  0  0  0  0  0  0
    2.0220    0.4420    0.4150 C   0  0  0  0  0  0  0  0  0  0  0  0
    1.3130    0.0940   -0.8240 C   0  0  1  0  0  0  0  0  0  0  0  0
    2.1350    0.2340   -1.9780 O   0  0  0  0  0  0  0  0  0  0  0  0
    0.7460   -1.2920   -0.9120 C   0  0  0  0  0  0  0  0  0  0  0  0
   -0.0540   -1.4340   -2.0750 O   0  0  0  0  0  0  0  0  0  0  0  0
    0.2390    1.1680   -1.0700 C   0  0  0  0  0  0  0  0  0  0  0  0
   -0.7640    1.2840    0.0300 C   0  0  1  0  0  0  0  0  0  0  0  0
   -1.6760    2.2810   -0.3010 O   0  0  0  0  0  0  0  0  0  0  0  0
   -2.6080    2.3050    0.7640 C   0  0  0  0  0  0  0  0  0  0  0  0
   -3.4980    1.0950    0.4680 C   0  0  2  0  0  0  0  0  0  0  0  0
   -4.4560    0.9330    1.4660 O   0  0  0  0  0  0  0  0  0  0  0  0
   -2.6270   -0.0930    0.2920 C   0  0  1  0  0  0  0  0  0  0  0  0
   -3.0020   -1.0840    1.4080 C   0  0  0  0  0  0  0  0  0  0  0  0
   -3.0550   -0.8000   -1.0020 C   0  0  0  0  0  0  0  0  0  0  0  0
   -1.2930    0.1010    0.3650 O   0  0  0  0  0  0  0  0  0  0  0  0
  2  1  1  6
  2  3  1  0
  2  5  1  0
  3  4  1  0
  5  6  1  0
  6  7  1  6
  6  8  1  0
  6 10  1  0
  8  9  1  0
 11 10  1  6
 11 12  1  0
 11 19  1  0
 12 13  1  0
 13 14  1  0
 14 15  1  1
 14 16  1  0
 16 17  1  1
 16 18  1  0
 16 19  1  0
M  END
