
     RDKit          3D

 25 27  0  0  0  0  0  0  0  0999 V2000
    2.0840    3.2600   -0.7010 C   0  0  0  0  0  0  0  0  0  0  0  0
    2.2370    2.2190   -1.5030 C   0  0  0  0  0  0  0  0  0  0  0  0
    1.0990    1.4250   -2.0280 C   0  0  0  0  0  0  0  0  0  0  0  0
    1.1130    0.0970   -1.6840 O   0  0  0  0  0  0  0  0  0  0  0  0
    1.1070   -0.5870   -0.5250 C   0  0  0  0  0  0  0  0  0  0  0  0
    2.3470   -0.8930    0.0810 C   0  0  0  0  0  0  0  0  0  0  0  0
    2.4030   -1.5910    1.2580 C   0  0  0  0  0  0  0  0  0  0  0  0
    1.2340   -1.9910    1.8400 C   0  0  0  0  0  0  0  0  0  0  0  0
    0.0190   -1.6960    1.2560 C   0  0  0  0  0  0  0  0  0  0  0  0
   -1.1870   -2.0960    1.8350 O   0  0  0  0  0  0  0  0  0  0  0  0
   -1.3170   -2.8110    3.0210 C   0  0  0  0  0  0  0  0  0  0  0  0
   -0.0740   -0.9840    0.0570 C   0  0  0  0  0  0  0  0  0  0  0  0
   -1.3990   -0.6910   -0.4700 C   0  0  0  0  0  0  0  0  0  0  0  0
   -2.2160   -1.9320   -1.4400 Cl  0  0  0  0  0  0  0  0  0  0  0  0
   -2.0370    0.4380   -0.2710 C   0  0  0  0  0  0  0  0  0  0  0  0
   -1.5740    1.6140    0.5010 C   0  0  0  0  0  0  0  0  0  0  0  0
   -2.5180    2.5320    0.4450 C   0  0  0  0  0  0  0  0  0  0  0  0
   -3.6440    2.0510   -0.3420 C   0  0  0  0  0  0  0  0  0  0  0  0
   -3.3550    0.8150   -0.7620 C   0  0  0  0  0  0  0  0  0  0  0  0
   -4.2620   -0.0010   -1.5920 C   0  0  0  0  0  0  0  0  0  0  0  0
   -5.4730    0.7210   -1.8760 N   0  0  0  0  0  0  0  0  0  0  0  0
    3.6770   -1.8500    1.7880 O   0  0  0  0  0  0  0  0  0  0  0  0
    4.7930   -1.8800    0.8780 C   0  0  0  0  0  0  0  0  0  0  0  0
    4.7270   -0.5400    0.1700 C   0  0  0  0  0  0  0  0  0  0  0  0
    3.5040   -0.4820   -0.5220 O   0  0  0  0  0  0  0  0  0  0  0  0
  1  2  2  0
  2  3  1  0
  3  4  1  0
  4  5  1  0
  5  6  2  0
  5 12  1  0
  6  7  1  0
  6 25  1  0
  7  8  2  0
  7 22  1  0
  8  9  1  0
  9 10  1  0
  9 12  2  0
 10 11  1  0
 12 13  1  0
 13 14  1  0
 13 15  2  3
 15 16  1  0
 15 19  1  0
 16 17  2  0
 17 18  1  0
 18 19  2  0
 19 20  1  0
 20 21  1  0
 22 23  1  0
 23 24  1  0
 24 25  1  0
M  END
