
     RDKit          3D

 19 19  0  0  0  0  0  0  0  0999 V2000
    4.0450   -2.6590    0.5560 C   0  0  0  0  0  0  0  0  0  0  0  0
    3.7450   -1.2320    0.1320 C   0  0  1  0  0  0  0  0  0  0  0  0
    5.0510   -0.4760    0.1320 C   0  0  0  0  0  0  0  0  0  0  0  0
    3.2160   -1.2200   -1.2910 C   0  0  0  0  0  0  0  0  0  0  0  0
    2.0450   -0.2400   -1.1390 C   0  0  2  0  0  0  0  0  0  0  0  0
    2.5390    1.0570   -1.0730 O   0  0  0  0  0  0  0  0  0  0  0  0
    1.5940   -0.6320    0.2570 C   0  0  2  0  0  0  0  0  0  0  0  0
    0.6440    0.4230    0.7470 C   0  0  0  0  0  0  0  0  0  0  0  0
   -0.5110    0.3370   -0.0180 O   0  0  0  0  0  0  0  0  0  0  0  0
   -1.4690    1.2560    0.3320 C   0  0  1  0  0  0  0  0  0  0  0  0
   -1.9030    2.1100   -0.8420 C   0  0  0  0  0  0  0  0  0  0  0  0
   -2.9420    3.1120   -0.4810 C   0  0  0  0  0  0  0  0  0  0  0  0
   -2.5510    4.0110    0.4880 O   0  0  0  0  0  0  0  0  0  0  0  0
   -2.6760    0.4870    0.8430 C   0  0  0  0  0  0  0  0  0  0  0  0
   -3.2440   -0.4420   -0.1900 C   0  0  1  0  0  0  0  0  0  0  0  0
   -2.2570   -1.3540   -0.5490 O   0  0  0  0  0  0  0  0  0  0  0  0
   -4.4230   -1.1580    0.4350 C   0  0  0  0  0  0  0  0  0  0  0  0
   -4.9090   -2.0490   -0.5280 O   0  0  0  0  0  0  0  0  0  0  0  0
    2.7890   -0.6600    0.9330 O   0  0  0  0  0  0  0  0  0  0  0  0
  2  1  1  1
  2  3  1  0
  2  4  1  0
  2 19  1  0
  4  5  1  0
  5  6  1  1
  5  7  1  0
  7  8  1  1
  7 19  1  0
  8  9  1  0
  9 10  1  0
 10 11  1  6
 10 14  1  0
 11 12  1  0
 12 13  1  0
 14 15  1  0
 15 16  1  1
 15 17  1  0
 17 18  1  0
M  END
