
     RDKit          3D

 25 27  0  0  0  0  0  0  0  0999 V2000
   -3.6050    3.0230   -0.7570 C   0  0  0  0  0  0  0  0  0  0  0  0
   -2.9300    1.8260   -0.4140 O   0  0  0  0  0  0  0  0  0  0  0  0
   -3.6830    0.7500    0.0710 C   0  0  0  0  0  0  0  0  0  0  0  0
   -5.0490    0.8540    0.2110 C   0  0  0  0  0  0  0  0  0  0  0  0
   -5.7880   -0.2040    0.6880 C   0  0  0  0  0  0  0  0  0  0  0  0
   -5.1380   -1.3750    1.0240 C   0  0  0  0  0  0  0  0  0  0  0  0
   -5.9070   -2.4260    1.5020 O   0  0  0  0  0  0  0  0  0  0  0  0
   -3.7590   -1.4620    0.8750 C   0  0  0  0  0  0  0  0  0  0  0  0
   -3.0180   -0.4050    0.3990 C   0  0  0  0  0  0  0  0  0  0  0  0
   -1.6100   -0.4540    0.2330 N   0  0  0  0  0  0  0  0  0  0  0  0
   -0.7530   -0.0900    1.2000 C   0  0  0  0  0  0  0  0  0  0  0  0
    0.6150   -0.1270    1.0680 C   0  0  0  0  0  0  0  0  0  0  0  0
    1.1510   -0.5600   -0.1220 C   0  0  0  0  0  0  0  0  0  0  0  0
    2.5830   -0.6180   -0.3260 C   0  0  0  0  0  0  0  0  0  0  0  0
    3.1380   -1.7530   -0.8740 C   0  0  0  0  0  0  0  0  0  0  0  0
    4.4940   -1.8850   -1.0940 C   0  0  0  0  0  0  0  0  0  0  0  0
    5.2680   -0.8040   -0.7300 C   0  0  0  0  0  0  0  0  0  0  0  0
    4.7360    0.3370   -0.1810 C   0  0  0  0  0  0  0  0  0  0  0  0
    5.5600    1.3990    0.1690 O   0  0  0  0  0  0  0  0  0  0  0  0
    6.9470    1.3810   -0.0060 C   0  0  0  0  0  0  0  0  0  0  0  0
    3.3780    0.4440    0.0280 C   0  0  0  0  0  0  0  0  0  0  0  0
    2.6880    1.9200    0.7310 Cl  0  0  0  0  0  0  0  0  0  0  0  0
    0.3050   -0.9430   -1.1410 C   0  0  0  0  0  0  0  0  0  0  0  0
   -1.0510   -0.8780   -0.9330 C   0  0  0  0  0  0  0  0  0  0  0  0
   -1.8250   -1.2270   -1.8620 O   0  0  0  0  0  0  0  0  0  0  0  0
  1  2  1  0
  2  3  1  0
  3  4  2  0
  3  9  1  0
  4  5  1  0
  5  6  2  0
  6  7  1  0
  6  8  1  0
  8  9  2  0
  9 10  1  0
 10 11  1  0
 10 24  1  0
 11 12  2  0
 12 13  1  0
 13 14  1  0
 13 23  2  0
 14 15  2  0
 14 21  1  0
 15 16  1  0
 16 17  2  0
 17 18  1  0
 18 19  1  0
 18 21  2  0
 19 20  1  0
 21 22  1  0
 23 24  1  0
 24 25  2  0
M  END
