
     RDKit          3D

 26 29  0  0  0  0  0  0  0  0999 V2000
    8.0530   -1.6790   -1.5280 C   0  0  0  0  0  0  0  0  0  0  0  0
    7.0900   -1.1500   -0.5360 C   0  0  0  0  0  0  0  0  0  0  0  0
    7.2720   -0.7970    0.7390 N   0  0  0  0  0  0  0  0  0  0  0  0
    6.1010   -0.3770    1.2260 N   0  0  0  0  0  0  0  0  0  0  0  0
    5.1910   -0.4710    0.2450 C   0  0  0  0  0  0  0  0  0  0  0  0
    3.7690   -0.1280    0.2910 C   0  0  0  0  0  0  0  0  0  0  0  0
    3.2000    0.3630    1.4470 C   0  0  0  0  0  0  0  0  0  0  0  0
    1.8580    0.6830    1.4720 C   0  0  0  0  0  0  0  0  0  0  0  0
    1.0480    0.5210    0.3390 C   0  0  0  0  0  0  0  0  0  0  0  0
   -0.3620    0.8630    0.4200 C   0  0  0  0  0  0  0  0  0  0  0  0
   -1.3440   -0.0350   -0.0160 C   0  0  0  0  0  0  0  0  0  0  0  0
   -2.6950    0.2640    0.0710 C   0  0  0  0  0  0  0  0  0  0  0  0
   -3.7050   -0.6960   -0.3990 C   0  0  0  0  0  0  0  0  0  0  0  0
   -3.3360   -1.6810   -1.1010 O   0  0  0  0  0  0  0  0  0  0  0  0
   -5.0740   -0.5240   -0.0710 N   0  0  0  0  0  0  0  0  0  0  0  0
   -6.0310   -1.4970   -0.5590 C   0  0  2  0  0  0  0  0  0  0  0  0
   -7.4080   -0.9460   -0.8300 C   0  0  0  0  0  0  0  0  0  0  0  0
   -7.1700   -1.8850    0.3210 C   0  0  0  0  0  0  0  0  0  0  0  0
   -3.0360    1.4780    0.6010 C   0  0  0  0  0  0  0  0  0  0  0  0
   -2.1050    2.3970    1.0440 C   0  0  0  0  0  0  0  0  0  0  0  0
   -0.7550    2.0700    0.9450 C   0  0  0  0  0  0  0  0  0  0  0  0
    0.2300    3.0790    1.4140 C   0  0  0  0  0  0  0  0  0  0  0  0
    1.6180    0.0310   -0.8100 C   0  0  0  0  0  0  0  0  0  0  0  0
    0.8110   -0.1590   -2.0380 C   0  0  0  0  0  0  0  0  0  0  0  0
    2.9660   -0.2790   -0.7980 C   0  0  0  0  0  0  0  0  0  0  0  0
    5.8340   -0.9400   -0.7940 O   0  0  0  0  0  0  0  0  0  0  0  0
  1  2  1  0
  2  3  2  0
  2 26  1  0
  3  4  1  0
  4  5  2  0
  5  6  1  0
  5 26  1  0
  6  7  2  0
  6 25  1  0
  7  8  1  0
  8  9  2  0
  9 10  1  0
  9 23  1  0
 10 11  2  0
 10 21  1  0
 11 12  1  0
 12 13  1  0
 12 19  2  0
 13 14  2  0
 13 15  1  0
 16 15  1  1
 16 17  1  0
 16 18  1  0
 17 18  1  0
 19 20  1  0
 20 21  2  0
 21 22  1  0
 23 24  1  0
 23 25  2  0
M  END
