
     RDKit          3D

 19 19  0  0  0  0  0  0  0  0999 V2000
    3.0850   -1.2200   -0.1010 C   0  0  0  0  0  0  0  0  0  0  0  0
    3.8540   -0.1970   -0.8860 C   0  0  0  0  0  0  0  0  0  0  0  0
    3.5480    1.2210   -0.5420 C   0  0  0  0  0  0  0  0  0  0  0  0
    2.1220    1.6370   -0.7540 C   0  0  0  0  0  0  0  0  0  0  0  0
    1.2730    0.8660    0.0350 O   0  0  0  0  0  0  0  0  0  0  0  0
   -0.0690    1.2830   -0.1560 C   0  0  0  0  0  0  0  0  0  0  0  0
   -0.9200    0.4310    0.7270 C   0  0  2  0  0  0  0  0  0  0  0  0
   -0.4650    0.6320    2.1750 C   0  0  0  0  0  0  0  0  0  0  0  0
   -0.6250    1.9810    2.4760 O   0  0  0  0  0  0  0  0  0  0  0  0
   -0.9740   -0.9820    0.2600 C   0  0  2  0  0  0  0  0  0  0  0  0
   -0.4240   -2.0180    1.2100 C   0  0  0  0  0  0  0  0  0  0  0  0
   -0.4120   -1.1520   -1.0130 O   0  0  0  0  0  0  0  0  0  0  0  0
   -0.4610   -2.4510   -1.4390 C   0  0  0  0  0  0  0  0  0  0  0  0
   -2.4830   -0.9060    0.2520 C   0  0  2  0  0  0  0  0  0  0  0  0
   -3.0800   -1.1630   -0.9830 O   0  0  0  0  0  0  0  0  0  0  0  0
   -2.3990    0.5410    0.5470 C   0  0  1  0  0  0  0  0  0  0  0  0
   -3.0120    0.8260    1.7950 O   0  0  0  0  0  0  0  0  0  0  0  0
   -2.9380    1.4960   -0.4540 C   0  0  0  0  0  0  0  0  0  0  0  0
   -2.4790    1.3850   -1.7340 O   0  0  0  0  0  0  0  0  0  0  0  0
  1  2  1  0
  2  3  1  0
  3  4  1  0
  4  5  1  0
  5  6  1  0
  7  6  1  6
  7  8  1  0
  7 10  1  0
  7 16  1  0
  8  9  1  0
 10 11  1  1
 10 12  1  0
 10 14  1  0
 12 13  1  0
 14 15  1  6
 14 16  1  0
 16 17  1  1
 16 18  1  0
 18 19  1  0
M  END
