
     RDKit          3D

 25 27  0  0  0  0  0  0  0  0999 V2000
    0.7700   -1.9820   -0.4450 O   0  0  0  0  0  0  0  0  0  0  0  0
    1.6560   -1.0940   -0.2130 C   0  0  0  0  0  0  0  0  0  0  0  0
    3.0260   -1.5220   -0.2350 C   0  0  0  0  0  0  0  0  0  0  0  0
    4.1020   -0.8100   -0.0310 C   0  0  0  0  0  0  0  0  0  0  0  0
    5.4280   -1.5460   -0.1200 C   0  0  0  0  0  0  0  0  0  0  0  0
    6.5580   -0.5420   -0.1970 C   0  0  0  0  0  0  0  0  0  0  0  0
    6.0600    0.6320   -1.0460 C   0  0  0  0  0  0  0  0  0  0  0  0
    5.1170    1.4180   -0.1570 C   0  0  0  0  0  0  0  0  0  0  0  0
    4.0970    0.5380    0.2540 O   0  0  0  0  0  0  0  0  0  0  0  0
    1.2220    0.2130    0.0420 N   0  0  0  0  0  0  0  0  0  0  0  0
   -0.1320    0.6730    0.0790 C   0  0  0  0  0  0  0  0  0  0  0  0
   -0.3020    2.0540   -0.0370 C   0  0  0  0  0  0  0  0  0  0  0  0
   -1.5760    2.5400    0.0130 C   0  0  0  0  0  0  0  0  0  0  0  0
   -2.6490    1.6700    0.1750 C   0  0  0  0  0  0  0  0  0  0  0  0
   -2.5370    0.3080    0.2900 C   0  0  0  0  0  0  0  0  0  0  0  0
   -3.5970   -0.6560    0.3500 C   0  0  0  0  0  0  0  0  0  0  0  0
   -3.2450   -1.7980    0.8490 O   0  0  0  0  0  0  0  0  0  0  0  0
   -4.9690   -0.5670   -0.0470 C   0  0  0  0  0  0  0  0  0  0  0  0
   -5.4960    0.4500   -0.6720 C   0  0  0  0  0  0  0  0  0  0  0  0
   -6.9110    0.5430   -1.0710 C   0  0  0  0  0  0  0  0  0  0  0  0
   -7.6460   -0.5650   -0.7300 O   0  0  0  0  0  0  0  0  0  0  0  0
   -7.1170   -1.6460   -0.0730 C   0  0  0  0  0  0  0  0  0  0  0  0
   -5.8570   -1.7210    0.2840 C   0  0  0  0  0  0  0  0  0  0  0  0
   -5.2580   -3.1150    1.1120 Cl  0  0  0  0  0  0  0  0  0  0  0  0
   -1.1930   -0.1610    0.2350 C   0  0  0  0  0  0  0  0  0  0  0  0
  1  2  2  0
  2  3  1  0
  2 10  1  0
  3  4  2  3
  4  5  1  0
  4  9  1  0
  5  6  1  0
  6  7  1  0
  7  8  1  0
  8  9  1  0
 10 11  1  0
 11 12  2  0
 11 25  1  0
 12 13  1  0
 13 14  2  0
 14 15  1  0
 15 16  1  0
 15 25  2  0
 16 17  2  0
 16 18  1  0
 18 19  2  0
 18 23  1  0
 19 20  1  0
 20 21  1  0
 21 22  1  0
 22 23  2  0
 23 24  1  0
M  END
