
     RDKit          3D

 37 40  0  0  0  0  0  0  0  0999 V2000
   -4.0270    5.9380   -0.9710 C   0  0  0  0  0  0  0  0  0  0  0  0
   -3.8020    4.8210   -0.3080 C   0  0  0  0  0  0  0  0  0  0  0  0
   -2.7780    3.9110   -0.7370 C   0  0  0  0  0  0  0  0  0  0  0  0
   -2.5640    2.7720   -0.0460 C   0  0  0  0  0  0  0  0  0  0  0  0
   -1.4900    1.8490   -0.5210 C   0  0  0  0  0  0  0  0  0  0  0  0
   -1.5510    0.6130    0.1990 N   0  0  0  0  0  0  0  0  0  0  0  0
   -1.3910   -0.6290   -0.4720 C   0  0  0  0  0  0  0  0  0  0  0  0
   -1.4480   -1.7080    0.1690 O   0  0  0  0  0  0  0  0  0  0  0  0
   -1.1540   -0.7030   -1.9390 C   0  0  0  0  0  0  0  0  0  0  0  0
   -1.0420   -2.0980   -2.4400 C   0  0  0  0  0  0  0  0  0  0  0  0
    0.0830   -2.8860   -1.8820 C   0  0  0  0  0  0  0  0  0  0  0  0
   -0.1480   -3.9380   -1.1340 C   0  0  0  0  0  0  0  0  0  0  0  0
    0.8360   -4.8080   -0.5180 C   0  0  0  0  0  0  0  0  0  0  0  0
    0.6520   -6.1960   -0.4510 C   0  0  0  0  0  0  0  0  0  0  0  0
    1.7580   -6.7070    0.1860 C   0  0  0  0  0  0  0  0  0  0  0  0
    2.0200   -8.0530    0.4810 O   0  0  0  0  0  0  0  0  0  0  0  0
    1.0490   -9.0190    0.0870 C   0  0  0  0  0  0  0  0  0  0  0  0
    2.5460   -5.6120    0.4680 C   0  0  0  0  0  0  0  0  0  0  0  0
    1.9780   -4.5290    0.0450 O   0  0  0  0  0  0  0  0  0  0  0  0
    1.4470   -2.4840   -2.2290 C   0  0  0  0  0  0  0  0  0  0  0  0
    1.8800   -1.1950   -1.8310 N   0  0  0  0  0  0  0  0  0  0  0  0
    1.9540   -0.7610   -0.4910 C   0  0  0  0  0  0  0  0  0  0  0  0
    1.6210   -1.5260    0.4470 O   0  0  0  0  0  0  0  0  0  0  0  0
    2.4160    0.5760   -0.1730 N   0  0  0  0  0  0  0  0  0  0  0  0
    2.4610    0.9260    1.2110 C   0  0  0  0  0  0  0  0  0  0  0  0
    2.9450    2.2990    1.4400 C   0  0  0  0  0  0  0  0  0  0  0  0
    2.1360    3.4080    1.5650 C   0  0  0  0  0  0  0  0  0  0  0  0
    2.9600    4.5090    1.7710 C   0  0  0  0  0  0  0  0  0  0  0  0
    4.2450    3.9860    1.7580 C   0  0  0  0  0  0  0  0  0  0  0  0
    5.4530    4.8520    1.9490 C   0  0  0  0  0  0  0  0  0  0  0  0
    4.1750    2.6970    1.5620 O   0  0  0  0  0  0  0  0  0  0  0  0
   -1.7810    0.6520    1.6240 C   0  0  0  0  0  0  0  0  0  0  0  0
   -3.1480    1.2220    1.8890 C   0  0  0  0  0  0  0  0  0  0  0  0
   -3.3410    2.4500    1.1140 C   0  0  0  0  0  0  0  0  0  0  0  0
   -4.2680    3.2700    1.5070 N   0  0  0  0  0  0  0  0  0  0  0  0
   -4.6170    4.5050    0.8920 C   0  0  2  0  0  0  0  0  0  0  0  0
   -5.9620    4.4390    0.4660 O   0  0  0  0  0  0  0  0  0  0  0  0
  1  2  2  0
  2  3  1  0
  2 36  1  0
  3  4  2  0
  4  5  1  0
  4 34  1  0
  5  6  1  0
  6  7  1  0
  6 32  1  0
  7  8  2  0
  7  9  1  0
  9 10  1  0
 10 11  1  0
 11 12  2  3
 11 20  1  0
 12 13  1  0
 13 14  2  0
 13 19  1  0
 14 15  1  0
 15 16  1  0
 15 18  2  0
 16 17  1  0
 18 19  1  0
 20 21  1  0
 21 22  1  0
 22 23  2  0
 22 24  1  0
 24 25  1  0
 25 26  1  0
 26 27  2  0
 26 31  1  0
 27 28  1  0
 28 29  2  0
 29 30  1  0
 29 31  1  0
 32 33  1  0
 33 34  1  0
 34 35  2  0
 35 36  1  0
 36 37  1  6
M  END
