
     RDKit          3D

 37 38  0  0  0  0  0  0  0  0999 V2000
    5.6520   -4.3740   -2.5340 C   0  0  0  0  0  0  0  0  0  0  0  0
    6.0860   -3.7880   -1.4300 C   0  0  0  0  0  0  0  0  0  0  0  0
    5.3490   -4.0450   -0.1650 C   0  0  0  0  0  0  0  0  0  0  0  0
    4.8210   -2.8900    0.4250 O   0  0  0  0  0  0  0  0  0  0  0  0
    5.6710   -1.8700    0.8090 C   0  0  0  0  0  0  0  0  0  0  0  0
    6.8990   -2.0070    0.6170 O   0  0  0  0  0  0  0  0  0  0  0  0
    5.1620   -0.6040    1.4480 C   0  0  2  0  0  0  0  0  0  0  0  0
    5.7480   -0.4800    2.8500 C   0  0  0  0  0  0  0  0  0  0  0  0
    3.7830   -0.7030    1.5090 O   0  0  0  0  0  0  0  0  0  0  0  0
    2.8300    0.1580    1.0500 C   0  0  0  0  0  0  0  0  0  0  0  0
    3.1670    1.3290    0.4420 C   0  0  0  0  0  0  0  0  0  0  0  0
    2.2040    2.2460   -0.0480 C   0  0  0  0  0  0  0  0  0  0  0  0
    2.6270    3.4770   -0.6550 C   0  0  0  0  0  0  0  0  0  0  0  0
    3.8880    3.4710   -1.0100 O   0  0  0  0  0  0  0  0  0  0  0  0
    1.8990    4.7060   -0.9300 C   0  0  0  0  0  0  0  0  0  0  0  0
    2.7350    5.7400   -1.4190 O   0  0  0  0  0  0  0  0  0  0  0  0
    3.6650    6.1780   -0.5090 C   0  0  0  0  0  0  0  0  0  0  0  0
    0.9020    1.8770    0.1300 C   0  0  0  0  0  0  0  0  0  0  0  0
   -0.1980    2.7640   -0.3070 C   0  0  0  0  0  0  0  0  0  0  0  0
    0.4980    0.6890    0.7440 C   0  0  0  0  0  0  0  0  0  0  0  0
   -0.8780    0.1990    0.8600 C   0  0  2  0  0  0  0  0  0  0  0  0
   -0.9020   -0.7920    2.0610 C   0  0  0  0  0  0  0  0  0  0  0  0
   -1.0840   -0.6950   -0.3860 C   0  0  0  0  0  0  0  0  0  0  0  0
   -2.4220   -1.3080   -0.4600 C   0  0  2  0  0  0  0  0  0  0  0  0
   -2.3780   -2.1290   -1.6470 O   0  0  0  0  0  0  0  0  0  0  0  0
   -3.4840   -0.3220   -0.7700 C   0  0  0  0  0  0  0  0  0  0  0  0
   -3.2360    0.8810   -1.3680 C   0  0  0  0  0  0  0  0  0  0  0  0
   -4.2730    1.7590   -1.6900 C   0  0  0  0  0  0  0  0  0  0  0  0
   -3.9860    3.0630   -2.3330 C   0  0  0  0  0  0  0  0  0  0  0  0
   -5.5440    1.3470   -1.3760 C   0  0  0  0  0  0  0  0  0  0  0  0
   -5.8040    0.1290   -0.7710 C   0  0  0  0  0  0  0  0  0  0  0  0
   -4.7960   -0.7480   -0.4450 C   0  0  0  0  0  0  0  0  0  0  0  0
   -4.9330   -1.9650    0.1500 O   0  0  0  0  0  0  0  0  0  0  0  0
   -6.1540   -2.5210    0.5200 C   0  0  2  0  0  0  0  0  0  0  0  0
   -6.2950   -2.5960    2.0400 C   0  0  0  0  0  0  0  0  0  0  0  0
   -6.3330   -3.9230   -0.0220 C   0  0  0  0  0  0  0  0  0  0  0  0
    1.5030   -0.1600    1.2010 C   0  0  0  0  0  0  0  0  0  0  0  0
  1  2  2  0
  2  3  1  0
  3  4  1  0
  4  5  1  0
  5  6  2  0
  5  7  1  0
  7  8  1  1
  7  9  1  0
  9 10  1  0
 10 11  2  0
 10 37  1  0
 11 12  1  0
 12 13  1  0
 12 18  2  0
 13 14  2  0
 13 15  1  0
 15 16  1  0
 16 17  1  0
 18 19  1  0
 18 20  1  0
 20 21  1  0
 20 37  2  0
 21 22  1  1
 21 23  1  0
 23 24  1  0
 24 25  1  6
 24 26  1  0
 26 27  2  0
 26 32  1  0
 27 28  1  0
 28 29  1  0
 28 30  2  0
 30 31  1  0
 31 32  2  0
 32 33  1  0
 33 34  1  0
 34 35  1  1
 34 36  1  0
M  END
