
     RDKit          3D

 37 41  0  0  0  0  0  0  0  0999 V2000
    8.6490   -2.0510    0.6110 C   0  0  0  0  0  0  0  0  0  0  0  0
    8.9120   -1.0230   -0.4350 C   0  0  0  0  0  0  0  0  0  0  0  0
   10.0930   -0.5110   -0.7250 C   0  0  0  0  0  0  0  0  0  0  0  0
    9.9060    0.4670   -1.8170 C   0  0  0  0  0  0  0  0  0  0  0  0
    8.4600    0.4240   -2.0880 C   0  0  0  0  0  0  0  0  0  0  0  0
    7.8720   -0.4410   -1.2880 C   0  0  0  0  0  0  0  0  0  0  0  0
    6.4530   -0.7480   -1.2680 C   0  0  0  0  0  0  0  0  0  0  0  0
    5.9930   -1.6020   -0.4520 O   0  0  0  0  0  0  0  0  0  0  0  0
    5.5830   -0.0870   -2.1680 N   0  0  0  0  0  0  0  0  0  0  0  0
    4.1460   -0.3690   -2.1780 C   0  0  0  0  0  0  0  0  0  0  0  0
    3.5570   -0.0440   -0.8480 C   0  0  0  0  0  0  0  0  0  0  0  0
    4.2130    0.6070    0.1750 C   0  0  0  0  0  0  0  0  0  0  0  0
    3.3090    0.6990    1.2110 C   0  0  0  0  0  0  0  0  0  0  0  0
    2.1590    0.0980    0.7530 C   0  0  0  0  0  0  0  0  0  0  0  0
    0.8810   -0.0700    1.4800 C   0  0  0  0  0  0  0  0  0  0  0  0
   -0.0920   -0.6430    0.9370 O   0  0  0  0  0  0  0  0  0  0  0  0
    0.7390    0.3990    2.7590 O   0  0  0  0  0  0  0  0  0  0  0  0
   -0.3910    0.3160    3.5430 C   0  0  0  0  0  0  0  0  0  0  0  0
   -1.5850    1.0460    3.0660 C   0  0  0  0  0  0  0  0  0  0  0  0
   -2.6800    0.9650    3.7350 O   0  0  0  0  0  0  0  0  0  0  0  0
   -1.6430    1.8570    1.9030 N   0  0  0  0  0  0  0  0  0  0  0  0
   -2.8610    2.5430    1.5240 C   0  0  0  0  0  0  0  0  0  0  0  0
   -3.8870    1.6560    0.9230 C   0  0  0  0  0  0  0  0  0  0  0  0
   -3.5970    0.4740    0.2760 C   0  0  0  0  0  0  0  0  0  0  0  0
   -4.5820   -0.3310   -0.2670 C   0  0  0  0  0  0  0  0  0  0  0  0
   -5.9260    0.0200   -0.1860 C   0  0  0  0  0  0  0  0  0  0  0  0
   -6.9670   -0.8190   -0.7550 C   0  0  0  0  0  0  0  0  0  0  0  0
   -6.7270   -1.9840   -1.4050 N   0  0  0  0  0  0  0  0  0  0  0  0
   -7.8800   -2.5080   -1.8000 N   0  0  0  0  0  0  0  0  0  0  0  0
   -8.8800   -1.7160   -1.4270 C   0  0  0  0  0  0  0  0  0  0  0  0
   -8.3110   -0.6470   -0.7660 C   0  0  0  0  0  0  0  0  0  0  0  0
   -9.4250    0.2260   -0.3540 C   0  0  0  0  0  0  0  0  0  0  0  0
  -10.5980   -0.4300   -0.6410 O   0  0  0  0  0  0  0  0  0  0  0  0
  -10.3310   -1.5120   -1.4290 C   0  0  0  0  0  0  0  0  0  0  0  0
   -6.2280    1.1990    0.4570 C   0  0  0  0  0  0  0  0  0  0  0  0
   -5.2450    1.9980    0.9970 C   0  0  0  0  0  0  0  0  0  0  0  0
    2.3480   -0.3270   -0.4690 O   0  0  0  0  0  0  0  0  0  0  0  0
  1  2  1  0
  2  3  2  0
  2  6  1  0
  3  4  1  0
  4  5  1  0
  5  6  2  0
  6  7  1  0
  7  8  2  0
  7  9  1  0
  9 10  1  0
 10 11  1  0
 11 12  2  0
 11 37  1  0
 12 13  1  0
 13 14  2  0
 14 15  1  0
 14 37  1  0
 15 16  2  0
 15 17  1  0
 17 18  1  0
 18 19  1  0
 19 20  2  0
 19 21  1  0
 21 22  1  0
 22 23  1  0
 23 24  2  0
 23 36  1  0
 24 25  1  0
 25 26  2  0
 26 27  1  0
 26 35  1  0
 27 28  1  0
 27 31  2  0
 28 29  1  0
 29 30  2  0
 30 31  1  0
 30 34  1  0
 31 32  1  0
 32 33  1  0
 33 34  1  0
 35 36  2  0
M  END
