
     RDKit          3D

 37 40  0  0  0  0  0  0  0  0999 V2000
   -7.7500   -1.0570   -1.1060 C   0  0  0  0  0  0  0  0  0  0  0  0
   -6.6660   -1.6370   -1.4770 C   0  0  0  0  0  0  0  0  0  0  0  0
   -5.2990   -1.1350   -1.1310 C   0  0  0  0  0  0  0  0  0  0  0  0
   -4.3440   -1.8750   -1.6090 C   0  0  0  0  0  0  0  0  0  0  0  0
   -4.6820   -3.1210   -2.4350 C   0  0  0  0  0  0  0  0  0  0  0  0
   -5.1780    0.0510   -0.3460 C   0  0  0  0  0  0  0  0  0  0  0  0
   -4.2180    0.7740    0.1420 C   0  0  0  0  0  0  0  0  0  0  0  0
   -2.8840    0.5030   -0.0210 C   0  0  0  0  0  0  0  0  0  0  0  0
   -1.8200    1.2420    0.4780 C   0  0  0  0  0  0  0  0  0  0  0  0
   -0.4430    0.8290    0.2210 C   0  0  0  0  0  0  0  0  0  0  0  0
   -0.3190   -0.2260   -0.4740 O   0  0  0  0  0  0  0  0  0  0  0  0
    0.7380    1.4350    0.6340 N   0  0  0  0  0  0  0  0  0  0  0  0
    2.0710    1.0500    0.3950 C   0  0  0  0  0  0  0  0  0  0  0  0
    2.4800   -0.0320   -0.3160 C   0  0  0  0  0  0  0  0  0  0  0  0
    3.8170   -0.3840   -0.5330 C   0  0  0  0  0  0  0  0  0  0  0  0
    4.1350   -1.5710   -1.3130 C   0  0  0  0  0  0  0  0  0  0  0  0
    5.2540   -2.0110   -1.5920 N   0  0  0  0  0  0  0  0  0  0  0  0
    6.5330   -1.6310   -1.3280 N   0  0  0  0  0  0  0  0  0  0  0  0
    7.3560   -2.2190   -0.3130 C   0  0  0  0  0  0  0  0  0  0  0  0
    6.8740   -3.1330    0.3690 O   0  0  0  0  0  0  0  0  0  0  0  0
    8.7220   -1.7400   -0.1050 C   0  0  0  0  0  0  0  0  0  0  0  0
    9.6100   -2.2160    0.8310 C   0  0  0  0  0  0  0  0  0  0  0  0
   10.7640   -1.4980    0.6890 C   0  0  0  0  0  0  0  0  0  0  0  0
   10.5440   -0.6000   -0.3350 C   0  0  0  0  0  0  0  0  0  0  0  0
    9.3360   -0.7900   -0.7570 O   0  0  0  0  0  0  0  0  0  0  0  0
    4.7940    0.4090    0.0010 C   0  0  0  0  0  0  0  0  0  0  0  0
    4.3670    1.5260    0.7350 C   0  0  0  0  0  0  0  0  0  0  0  0
    3.0740    1.8200    0.9140 N   0  0  0  0  0  0  0  0  0  0  0  0
   -2.1430    2.3460    1.2030 C   0  0  0  0  0  0  0  0  0  0  0  0
   -1.1920    3.1780    1.7630 O   0  0  0  0  0  0  0  0  0  0  0  0
   -3.4780    2.6830    1.4110 C   0  0  0  0  0  0  0  0  0  0  0  0
   -4.5180    1.9360    0.9060 C   0  0  0  0  0  0  0  0  0  0  0  0
   -5.6760    2.4810    1.2540 C   0  0  0  0  0  0  0  0  0  0  0  0
   -7.0750    2.1120    0.9960 C   0  0  0  0  0  0  0  0  0  0  0  0
   -5.3370    3.6930    2.0570 C   0  0  0  0  0  0  0  0  0  0  0  0
   -6.1640    4.4920    2.5760 O   0  0  0  0  0  0  0  0  0  0  0  0
   -3.9990    3.7780    2.1280 O   0  0  0  0  0  0  0  0  0  0  0  0
  1  2  2  0
  2  3  1  0
  3  4  2  3
  3  6  1  0
  4  5  1  0
  6  7  2  3
  7  8  1  0
  7 32  1  0
  8  9  2  0
  9 10  1  0
  9 29  1  0
 10 11  2  0
 10 12  1  0
 12 13  1  0
 13 14  2  0
 13 28  1  0
 14 15  1  0
 15 16  1  0
 15 26  2  0
 16 17  2  3
 17 18  1  0
 18 19  1  0
 19 20  2  0
 19 21  1  0
 21 22  2  0
 21 25  1  0
 22 23  1  0
 23 24  2  0
 24 25  1  0
 26 27  1  0
 27 28  2  0
 29 30  1  0
 29 31  2  0
 31 32  1  0
 31 37  1  0
 32 33  2  0
 33 34  1  0
 33 35  1  0
 35 36  2  0
 35 37  1  0
M  END
