
     RDKit          3D

 37 42  0  0  0  0  0  0  0  0999 V2000
    2.0110   -3.6500    1.7320 C   0  0  0  0  0  0  0  0  0  0  0  0
    0.8130   -2.8800    1.3680 C   0  0  0  0  0  0  0  0  0  0  0  0
   -0.4230   -3.4880    1.6130 C   0  0  0  0  0  0  0  0  0  0  0  0
   -1.5970   -2.8330    1.3080 C   0  0  0  0  0  0  0  0  0  0  0  0
   -1.5940   -1.5590    0.7530 C   0  0  0  0  0  0  0  0  0  0  0  0
   -2.8940   -0.9370    0.4530 C   0  0  0  0  0  0  0  0  0  0  0  0
   -3.9450   -1.6300    0.4730 O   0  0  0  0  0  0  0  0  0  0  0  0
   -2.9870    0.4370    0.1400 N   0  0  0  0  0  0  0  0  0  0  0  0
   -4.1640    1.1580   -0.1700 C   0  0  0  0  0  0  0  0  0  0  0  0
   -4.0390    2.5280   -0.3170 C   0  0  0  0  0  0  0  0  0  0  0  0
   -5.0910    3.3580   -0.6250 C   0  0  0  0  0  0  0  0  0  0  0  0
   -6.3260    2.7720   -0.7940 C   0  0  0  0  0  0  0  0  0  0  0  0
   -6.5270    1.4130   -0.6640 C   0  0  0  0  0  0  0  0  0  0  0  0
   -7.8140    0.8790   -0.8570 N   0  0  0  0  0  0  0  0  0  0  0  0
   -8.0890   -0.5070   -0.5780 C   0  0  0  0  0  0  0  0  0  0  0  0
   -9.5260   -0.7760   -0.2310 C   0  0  0  0  0  0  0  0  0  0  0  0
  -10.4300    0.0530   -0.8470 O   0  0  0  0  0  0  0  0  0  0  0  0
   -9.9360    0.7670   -1.9280 C   0  0  0  0  0  0  0  0  0  0  0  0
   -8.8810    1.7160   -1.3490 C   0  0  0  0  0  0  0  0  0  0  0  0
   -5.4140    0.6410   -0.3510 C   0  0  0  0  0  0  0  0  0  0  0  0
   -0.3800   -0.9800    0.5210 C   0  0  0  0  0  0  0  0  0  0  0  0
    0.8250   -1.6280    0.8230 C   0  0  0  0  0  0  0  0  0  0  0  0
    2.1010   -0.9810    0.5520 C   0  0  0  0  0  0  0  0  0  0  0  0
    3.0860   -1.6830   -0.1020 C   0  0  0  0  0  0  0  0  0  0  0  0
    4.3220   -1.1320   -0.3880 C   0  0  0  0  0  0  0  0  0  0  0  0
    4.5750    0.1620   -0.0060 C   0  0  0  0  0  0  0  0  0  0  0  0
    5.6760    0.9760   -0.1400 C   0  0  0  0  0  0  0  0  0  0  0  0
    6.9490    0.6270   -0.7760 C   0  0  1  0  0  0  0  0  0  0  0  0
    7.8690    1.8280   -0.7050 C   0  0  0  0  0  0  0  0  0  0  0  0
    8.5670    1.8700    0.6310 C   0  0  0  0  0  0  0  0  0  0  0  0
    9.5970    0.8320    0.5960 N   0  0  0  0  0  0  0  0  0  0  0  0
    9.1670   -0.2620   -0.2200 C   0  0  0  0  0  0  0  0  0  0  0  0
    7.6600   -0.5180   -0.1030 C   0  0  0  0  0  0  0  0  0  0  0  0
    5.3310    2.1430    0.4320 N   0  0  0  0  0  0  0  0  0  0  0  0
    4.1300    2.0600    0.8790 O   0  0  0  0  0  0  0  0  0  0  0  0
    3.5920    0.9030    0.6610 C   0  0  0  0  0  0  0  0  0  0  0  0
    2.3760    0.3170    0.9260 C   0  0  0  0  0  0  0  0  0  0  0  0
  1  2  1  0
  2  3  2  0
  2 22  1  0
  3  4  1  0
  4  5  2  0
  5  6  1  0
  5 21  1  0
  6  7  2  0
  6  8  1  0
  8  9  1  0
  9 10  2  0
  9 20  1  0
 10 11  1  0
 11 12  2  0
 12 13  1  0
 13 14  1  0
 13 20  2  0
 14 15  1  0
 14 19  1  0
 15 16  1  0
 16 17  1  0
 17 18  1  0
 18 19  1  0
 21 22  2  0
 22 23  1  0
 23 24  2  0
 23 37  1  0
 24 25  1  0
 25 26  2  0
 26 27  1  0
 26 36  1  0
 28 27  1  1
 27 34  2  0
 28 29  1  0
 28 33  1  0
 29 30  1  0
 30 31  1  0
 31 32  1  0
 32 33  1  0
 34 35  1  0
 35 36  1  0
 36 37  2  0
M  CHG  1  31   1
M  END
