
     RDKit          3D

 46 47  0  0  0  0  0  0  0  0999 V2000
   -4.1520   -0.2690   -0.5830 C   0  0  0  0  0  0  0  0  0  0  0  0
   -2.8190    0.4400   -0.4090 C   0  0  0  0  0  0  0  0  0  0  0  0
   -2.1430    0.0340    0.7790 N   0  0  0  0  0  0  0  0  0  0  0  0
   -2.5310   -1.0150    1.6430 C   0  0  0  0  0  0  0  0  0  0  0  0
   -3.5380   -1.6960    1.4200 O   0  0  0  0  0  0  0  0  0  0  0  0
   -1.7660   -1.3550    2.8450 C   0  0  0  0  0  0  0  0  0  0  0  0
   -0.7190   -0.6410    3.0570 O   0  0  0  0  0  0  0  0  0  0  0  0
   -2.0620   -2.3630    3.7550 N   0  0  0  0  0  0  0  0  0  0  0  0
   -3.2400   -3.1780    3.6150 C   0  0  0  0  0  0  0  0  0  0  0  0
   -1.1680   -2.6330    4.8540 C   0  0  0  0  0  0  0  0  0  0  0  0
   -1.4780   -1.8150    6.0730 C   0  0  0  0  0  0  0  0  0  0  0  0
   -0.7040   -1.9520    7.2490 N   0  0  0  0  0  0  0  0  0  0  0  0
   -2.4360   -1.0180    5.9990 O   0  0  0  0  0  0  0  0  0  0  0  0
   -2.4870    1.3590   -1.2350 C   0  0  0  0  0  0  0  0  0  0  0  0
   -3.4000    1.7370   -2.3610 C   0  0  0  0  0  0  0  0  0  0  0  0
   -4.0910    0.9060   -2.9570 O   0  0  0  0  0  0  0  0  0  0  0  0
   -3.4300    3.1380   -2.7190 N   0  0  0  0  0  0  0  0  0  0  0  0
   -4.2470    3.5550   -3.8010 C   0  0  2  0  0  0  0  0  0  0  0  0
   -3.5160    4.3900   -4.7950 C   0  0  0  0  0  0  0  0  0  0  0  0
   -5.4880    4.3190   -3.3480 C   0  0  0  0  0  0  0  0  0  0  0  0
   -6.2010    4.6800   -4.6020 C   0  0  0  0  0  0  0  0  0  0  0  0
   -7.0020    3.6640   -5.2200 N   0  0  0  0  0  0  0  0  0  0  0  0
   -6.1530    5.7900   -5.1510 O   0  0  0  0  0  0  0  0  0  0  0  0
   -2.6070    4.0300   -2.0100 C   0  0  0  0  0  0  0  0  0  0  0  0
   -2.6290    5.2490   -2.2930 O   0  0  0  0  0  0  0  0  0  0  0  0
   -1.7400    3.5590   -0.9580 O   0  0  0  0  0  0  0  0  0  0  0  0
   -1.2870    2.2010   -1.2220 C   0  0  2  0  0  0  0  0  0  0  0  0
   -0.7080    2.2450   -2.6590 C   0  0  0  0  0  0  0  0  0  0  0  0
   -0.1760    1.9720   -0.3390 C   0  0  0  0  0  0  0  0  0  0  0  0
    0.2340    2.6990    0.5670 O   0  0  0  0  0  0  0  0  0  0  0  0
    0.5580    0.8140   -0.4940 N   0  0  0  0  0  0  0  0  0  0  0  0
    1.6120    0.1110    0.0250 C   0  0  0  0  0  0  0  0  0  0  0  0
    1.6650   -0.9800   -0.6600 O   0  0  0  0  0  0  0  0  0  0  0  0
    2.5830    0.1930    0.9970 N   0  0  0  0  0  0  0  0  0  0  0  0
    3.5480   -0.8220    1.2910 C   0  0  0  0  0  0  0  0  0  0  0  0
    4.4120   -1.1470    0.1210 C   0  0  1  0  0  0  0  0  0  0  0  0
    5.1570    0.0690   -0.3440 C   0  0  0  0  0  0  0  0  0  0  0  0
    5.9720   -0.0370   -1.5030 N   0  0  0  0  0  0  0  0  0  0  0  0
    5.0670    1.1510    0.2640 O   0  0  0  0  0  0  0  0  0  0  0  0
    5.4040   -2.2160    0.4840 C   0  0  0  0  0  0  0  0  0  0  0  0
    6.3790   -1.9080    1.4130 C   0  0  0  0  0  0  0  0  0  0  0  0
    7.2920   -2.8520    1.7840 C   0  0  0  0  0  0  0  0  0  0  0  0
    7.2440   -4.0970    1.2380 C   0  0  0  0  0  0  0  0  0  0  0  0
    8.2650   -5.1030    1.6720 C   0  0  0  0  0  0  0  0  0  0  0  0
    6.2760   -4.4150    0.3100 C   0  0  0  0  0  0  0  0  0  0  0  0
    5.3350   -3.4570   -0.0770 C   0  0  0  0  0  0  0  0  0  0  0  0
  1  2  1  0
  2  3  1  0
  2 14  2  3
  3  4  1  0
  4  5  2  0
  4  6  1  0
  6  7  2  0
  6  8  1  0
  8  9  1  0
  8 10  1  0
 10 11  1  0
 11 12  1  0
 11 13  2  0
 14 15  1  0
 14 27  1  0
 15 16  2  0
 15 17  1  0
 17 18  1  0
 17 24  1  0
 18 19  1  6
 18 20  1  0
 20 21  1  0
 21 22  1  0
 21 23  2  0
 24 25  2  0
 24 26  1  0
 26 27  1  0
 27 28  1  6
 27 29  1  0
 29 30  2  0
 29 31  1  0
 31 32  1  0
 32 33  2  0
 32 34  1  0
 34 35  1  0
 36 35  1  1
 36 37  1  0
 36 40  1  0
 37 38  1  0
 37 39  2  0
 40 41  2  0
 40 46  1  0
 41 42  1  0
 42 43  2  0
 43 44  1  0
 43 45  1  0
 45 46  2  0
M  END
