
     RDKit          3D

 48 52  0  0  0  0  0  0  0  0999 V2000
   -0.8570    2.0390    3.5710 O   0  0  0  0  0  0  0  0  0  0  0  0
   -1.9810    1.5960    3.2620 C   0  0  0  0  0  0  0  0  0  0  0  0
   -3.1670    2.3120    3.7640 C   0  0  0  0  0  0  0  0  0  0  0  0
   -4.3860    1.6630    3.2820 C   0  0  0  0  0  0  0  0  0  0  0  0
   -4.8740    0.7310    4.0090 O   0  0  0  0  0  0  0  0  0  0  0  0
   -5.0510    2.0250    2.0370 C   0  0  0  0  0  0  0  0  0  0  0  0
   -4.5440    3.0250    1.2360 C   0  0  0  0  0  0  0  0  0  0  0  0
   -5.1810    3.3690    0.0440 C   0  0  0  0  0  0  0  0  0  0  0  0
   -6.3360    2.7000   -0.3410 C   0  0  0  0  0  0  0  0  0  0  0  0
   -6.8530    1.6940    0.4580 C   0  0  0  0  0  0  0  0  0  0  0  0
   -8.0080    1.0520    0.0340 O   0  0  0  0  0  0  0  0  0  0  0  0
   -8.5020    0.0240    0.8900 C   0  0  0  0  0  0  0  0  0  0  0  0
   -9.7360   -0.5850    0.3310 C   0  0  0  0  0  0  0  0  0  0  0  0
  -10.2030   -0.1450   -0.8020 C   0  0  0  0  0  0  0  0  0  0  0  0
  -11.4200   -0.6860   -1.4370 C   0  0  0  0  0  0  0  0  0  0  0  0
  -12.0960   -1.7720   -0.6850 C   0  0  0  0  0  0  0  0  0  0  0  0
  -11.4900   -2.1870    0.5710 C   0  0  0  0  0  0  0  0  0  0  0  0
  -10.4010   -1.6470    1.0500 C   0  0  0  0  0  0  0  0  0  0  0  0
   -6.1870    1.3830    1.6360 C   0  0  0  0  0  0  0  0  0  0  0  0
   -2.1290    0.4210    2.4410 C   0  0  0  0  0  0  0  0  0  0  0  0
   -3.2590   -0.0620    2.1350 O   0  0  0  0  0  0  0  0  0  0  0  0
   -1.0020   -0.2760    1.9170 N   0  0  0  0  0  0  0  0  0  0  0  0
    0.3210    0.2340    2.2000 C   0  0  0  0  0  0  0  0  0  0  0  0
    1.3530   -0.5930    1.4340 C   0  0  0  0  0  0  0  0  0  0  0  0
    0.9210   -0.7600    0.0490 N   0  0  0  0  0  0  0  0  0  0  0  0
    1.7700   -0.4100   -1.0260 C   0  0  0  0  0  0  0  0  0  0  0  0
    2.8950    0.0590   -0.7590 O   0  0  0  0  0  0  0  0  0  0  0  0
    1.3590   -0.5850   -2.3980 C   0  0  0  0  0  0  0  0  0  0  0  0
    0.2230   -1.0860   -2.6370 O   0  0  0  0  0  0  0  0  0  0  0  0
    2.2330   -0.1930   -3.5380 C   0  0  0  0  0  0  0  0  0  0  0  0
    3.4620    0.4170   -3.0150 C   0  0  0  0  0  0  0  0  0  0  0  0
    3.5020    1.6550   -2.7440 O   0  0  0  0  0  0  0  0  0  0  0  0
    4.6550   -0.3960   -2.8000 C   0  0  0  0  0  0  0  0  0  0  0  0
    4.7430   -1.7370   -3.0350 C   0  0  0  0  0  0  0  0  0  0  0  0
    5.9180   -2.4540   -2.8110 C   0  0  0  0  0  0  0  0  0  0  0  0
    7.0380   -1.8130   -2.3390 C   0  0  0  0  0  0  0  0  0  0  0  0
    6.9910   -0.4490   -2.0870 C   0  0  0  0  0  0  0  0  0  0  0  0
    8.1190    0.2040   -1.6110 O   0  0  0  0  0  0  0  0  0  0  0  0
    9.3250   -0.4970   -1.3750 C   0  0  0  0  0  0  0  0  0  0  0  0
   10.4020    0.4600   -0.8550 C   0  0  1  0  0  0  0  0  0  0  0  0
    9.9710    1.0850    0.4030 C   0  0  0  0  0  0  0  0  0  0  0  0
   10.6220    1.0590    1.5370 C   0  0  0  0  0  0  0  0  0  0  0  0
   11.8910    0.3500    1.5730 C   0  0  0  0  0  0  0  0  0  0  0  0
   12.3600   -0.2430    0.4950 C   0  0  0  0  0  0  0  0  0  0  0  0
   11.6990   -0.2660   -0.8120 C   0  0  0  0  0  0  0  0  0  0  0  0
    5.8260    0.2080   -2.3200 C   0  0  0  0  0  0  0  0  0  0  0  0
   -0.3960   -1.2770   -0.1980 C   0  0  0  0  0  0  0  0  0  0  0  0
   -1.1240   -1.4750    1.1260 C   0  0  0  0  0  0  0  0  0  0  0  0
  1  2  2  0
  2  3  1  0
  2 20  1  0
  3  4  1  0
  4  5  2  0
  4  6  1  0
  6  7  2  0
  6 19  1  0
  7  8  1  0
  8  9  2  0
  9 10  1  0
 10 11  1  0
 10 19  2  0
 11 12  1  0
 12 13  1  0
 13 14  2  0
 13 18  1  0
 14 15  1  0
 15 16  1  0
 16 17  1  0
 17 18  2  0
 20 21  2  0
 20 22  1  0
 22 23  1  0
 22 48  1  0
 23 24  1  0
 24 25  1  0
 25 26  1  0
 25 47  1  0
 26 27  2  0
 26 28  1  0
 28 29  2  0
 28 30  1  0
 30 31  1  0
 31 32  2  0
 31 33  1  0
 33 34  2  0
 33 46  1  0
 34 35  1  0
 35 36  2  0
 36 37  1  0
 37 38  1  0
 37 46  2  0
 38 39  1  0
 40 39  1  1
 40 41  1  0
 40 45  1  0
 41 42  2  0
 42 43  1  0
 43 44  2  0
 44 45  1  0
 47 48  1  0
M  END
