
     RDKit          3D

 46 47  0  0  0  0  0  0  0  0999 V2000
   -1.1200    6.7640   -0.3960 C   0  0  0  0  0  0  0  0  0  0  0  0
   -1.6330    5.6690    0.3350 O   0  0  0  0  0  0  0  0  0  0  0  0
   -1.6830    4.6010   -0.5910 C   0  0  0  0  0  0  0  0  0  0  0  0
   -2.2310    3.3860    0.1420 C   0  0  0  0  0  0  0  0  0  0  0  0
   -2.3100    2.2360   -0.7500 N   0  0  0  0  0  0  0  0  0  0  0  0
   -1.1270    1.4160   -0.7850 C   0  0  0  0  0  0  0  0  0  0  0  0
   -0.2980    1.6300    0.1710 O   0  0  0  0  0  0  0  0  0  0  0  0
   -0.8380    0.3890   -1.8200 C   0  0  0  0  0  0  0  0  0  0  0  0
   -0.0020   -0.6300   -1.2290 N   0  0  0  0  0  0  0  0  0  0  0  0
    1.3240   -0.2200   -0.8460 C   0  0  0  0  0  0  0  0  0  0  0  0
    1.7470    0.9520   -1.0870 O   0  0  0  0  0  0  0  0  0  0  0  0
    2.2160   -1.1580   -0.1600 C   0  0  0  0  0  0  0  0  0  0  0  0
    3.5180   -0.4490    0.1370 N   0  0  0  0  0  0  0  0  0  0  0  0
    3.6000    0.2420    1.3760 C   0  0  0  0  0  0  0  0  0  0  0  0
    4.1510   -0.5870    2.4830 C   0  0  0  0  0  0  0  0  0  0  0  0
    4.2620   -0.0560    3.6130 O   0  0  0  0  0  0  0  0  0  0  0  0
    4.5400   -1.8940    2.3230 O   0  0  0  0  0  0  0  0  0  0  0  0
    5.0490   -2.6010    3.4190 C   0  0  0  0  0  0  0  0  0  0  0  0
    4.4710   -0.5560   -0.8830 C   0  0  0  0  0  0  0  0  0  0  0  0
    4.0440   -1.2400   -1.9330 O   0  0  0  0  0  0  0  0  0  0  0  0
    5.8130   -0.0650   -0.9980 C   0  0  0  0  0  0  0  0  0  0  0  0
    6.4730    0.5800   -0.0020 C   0  0  0  0  0  0  0  0  0  0  0  0
    7.7840    1.0480   -0.2190 C   0  0  0  0  0  0  0  0  0  0  0  0
    8.4080    0.8650   -1.4180 C   0  0  0  0  0  0  0  0  0  0  0  0
    9.7480    1.3640   -1.5850 N   0  0  0  0  0  0  0  0  0  0  0  0
    7.7620    0.2190   -2.4320 C   0  0  0  0  0  0  0  0  0  0  0  0
    6.4900   -0.2330   -2.2150 C   0  0  0  0  0  0  0  0  0  0  0  0
   -0.3490   -2.0040   -1.0250 C   0  0  2  0  0  0  0  0  0  0  0  0
    0.4060   -2.7950   -2.1110 C   0  0  0  0  0  0  0  0  0  0  0  0
   -1.7700   -2.3500   -1.0560 C   0  0  0  0  0  0  0  0  0  0  0  0
   -1.9470   -3.6110   -1.3830 O   0  0  0  0  0  0  0  0  0  0  0  0
   -2.9380   -1.6590   -0.8270 N   0  0  0  0  0  0  0  0  0  0  0  0
   -3.5860   -1.1470    0.3450 C   0  0  2  0  0  0  0  0  0  0  0  0
   -3.2310   -1.7140    1.6470 C   0  0  2  0  0  0  0  0  0  0  0  0
   -3.9460   -1.1670    2.8490 C   0  0  0  0  0  0  0  0  0  0  0  0
   -1.7350   -1.2810    1.9290 C   0  0  0  0  0  0  0  0  0  0  0  0
   -3.1410   -3.2130    1.7590 C   0  0  0  0  0  0  0  0  0  0  0  0
   -5.0100   -0.8280   -0.0020 C   0  0  0  0  0  0  0  0  0  0  0  0
   -6.0400   -1.6370    0.6100 C   0  0  0  0  0  0  0  0  0  0  0  0
   -7.4480   -1.5570    0.4390 N   0  0  0  0  0  0  0  0  0  0  0  0
   -5.7090   -2.5460    1.4030 O   0  0  0  0  0  0  0  0  0  0  0  0
   -5.2400    0.1670   -0.8920 C   0  0  0  0  0  0  0  0  0  0  0  0
   -6.6930    0.3060   -1.0780 N   0  0  0  0  0  0  0  0  0  0  0  0
   -4.3830    0.9750   -1.6450 N   0  0  0  0  0  0  0  0  0  0  0  0
   -3.4910    2.0460   -1.5000 C   0  0  0  0  0  0  0  0  0  0  0  0
   -3.7150    3.1890   -2.1840 O   0  0  0  0  0  0  0  0  0  0  0  0
  1  2  1  0
  2  3  1  0
  3  4  1  0
  4  5  1  0
  5  6  1  0
  5 45  1  0
  6  7  2  0
  6  8  1  0
  8  9  1  0
  9 10  1  0
  9 28  1  0
 10 11  2  0
 10 12  1  0
 12 13  1  0
 13 14  1  0
 13 19  1  0
 14 15  1  0
 15 16  2  0
 15 17  1  0
 17 18  1  0
 19 20  2  0
 19 21  1  0
 21 22  2  0
 21 27  1  0
 22 23  1  0
 23 24  2  0
 24 25  1  0
 24 26  1  0
 26 27  2  0
 28 29  1  6
 28 30  1  0
 30 31  2  0
 30 32  1  0
 33 32  1  6
 33 34  1  0
 33 38  1  0
 34 35  1  1
 34 36  1  0
 34 37  1  0
 38 39  1  0
 38 42  2  0
 39 40  1  0
 39 41  2  0
 42 43  1  0
 42 44  1  0
 44 45  1  0
 45 46  2  0
M  CHG  1  40   1
M  END
