
     RDKit          3D

 46 48  0  0  0  0  0  0  0  0999 V2000
   -7.8100   -0.2440    3.9520 C   0  0  0  0  0  0  0  0  0  0  0  0
   -8.0410   -0.2460    2.5960 O   0  0  0  0  0  0  0  0  0  0  0  0
   -7.1460   -0.7160    1.6660 C   0  0  0  0  0  0  0  0  0  0  0  0
   -6.0490   -1.1770    2.1060 O   0  0  0  0  0  0  0  0  0  0  0  0
   -7.4190   -0.7010    0.2590 C   0  0  1  0  0  0  0  0  0  0  0  0
   -6.5560   -1.4350   -0.6000 N   0  0  0  0  0  0  0  0  0  0  0  0
   -5.1540   -1.1750   -0.7630 C   0  0  0  0  0  0  0  0  0  0  0  0
   -4.6940   -0.2660   -0.0810 O   0  0  0  0  0  0  0  0  0  0  0  0
   -4.4110   -2.0200   -1.7250 C   0  0  0  0  0  0  0  0  0  0  0  0
   -5.1060   -2.8950   -2.5260 C   0  0  0  0  0  0  0  0  0  0  0  0
   -4.4780   -3.7140   -3.4940 C   0  0  0  0  0  0  0  0  0  0  0  0
   -3.1160   -3.6410   -3.6450 C   0  0  0  0  0  0  0  0  0  0  0  0
   -2.4400   -4.4770   -4.5830 N   0  0  0  0  0  0  0  0  0  0  0  0
   -2.4330   -2.7580   -2.8320 C   0  0  0  0  0  0  0  0  0  0  0  0
   -3.0400   -1.9450   -1.8810 C   0  0  0  0  0  0  0  0  0  0  0  0
   -2.2900   -1.0700   -1.0760 N   0  0  0  0  0  0  0  0  0  0  0  0
   -0.9650   -0.6530   -1.4560 C   0  0  0  0  0  0  0  0  0  0  0  0
   -0.4990   -1.0860   -2.5290 O   0  0  0  0  0  0  0  0  0  0  0  0
   -0.2180    0.2420   -0.6060 C   0  0  0  0  0  0  0  0  0  0  0  0
   -0.4860    0.8280    0.3260 O   0  0  0  0  0  0  0  0  0  0  0  0
    1.3900    0.3490   -1.2200 N   0  0  0  0  0  0  0  0  0  0  0  0
    1.8500    1.3650   -0.1120 C   0  0  0  0  0  0  0  0  0  0  0  0
    1.2460    1.9390    0.6380 O   0  0  0  0  0  0  0  0  0  0  0  0
    3.3030    1.3920   -0.3080 N   0  0  0  0  0  0  0  0  0  0  0  0
    4.1710    2.2700    0.3670 C   0  0  0  0  0  0  0  0  0  0  0  0
    4.0630    2.2350    1.8290 C   0  0  0  0  0  0  0  0  0  0  0  0
    4.2790    1.0100    2.5810 C   0  0  0  0  0  0  0  0  0  0  0  0
    5.5100    0.2270    2.5360 C   0  0  0  0  0  0  0  0  0  0  0  0
    6.7720    0.7870    2.8560 N   0  0  0  0  0  0  0  0  0  0  0  0
    7.1880    0.8740    4.2080 C   0  0  0  0  0  0  0  0  0  0  0  0
    8.5270    1.3350    4.5380 N   0  0  0  0  0  0  0  0  0  0  0  0
    6.4800    0.5780    5.1980 O   0  0  0  0  0  0  0  0  0  0  0  0
    7.7210    1.1150    1.8680 C   0  0  0  0  0  0  0  0  0  0  0  0
    8.7140    0.1110    1.7470 C   0  0  0  0  0  0  0  0  0  0  0  0
    9.6990    0.2940    0.8080 C   0  0  0  0  0  0  0  0  0  0  0  0
    9.7950    1.3630   -0.0110 C   0  0  0  0  0  0  0  0  0  0  0  0
   10.8680    1.5400   -0.9900 C   0  0  0  0  0  0  0  0  0  0  0  0
   10.9240    2.6920   -1.7850 N   0  0  0  0  0  0  0  0  0  0  0  0
   11.7510    0.6290   -1.1050 O   0  0  0  0  0  0  0  0  0  0  0  0
    8.8300    2.3640    0.0840 C   0  0  0  0  0  0  0  0  0  0  0  0
    7.8300    2.1660    1.0490 C   0  0  0  0  0  0  0  0  0  0  0  0
   -8.8550   -1.2340   -0.0090 C   0  0  0  0  0  0  0  0  0  0  0  0
   -9.1070   -0.7010   -1.4280 C   0  0  0  0  0  0  0  0  0  0  0  0
   -8.3000    0.4820   -1.5690 N   0  0  2  0  0  0  0  0  0  0  0  0
   -7.3190    0.4250   -2.6100 C   0  0  0  0  0  0  0  0  0  0  0  0
   -7.6070    0.7270   -0.3150 C   0  0  0  0  0  0  0  0  0  0  0  0
  1  2  1  0
  2  3  1  0
  3  4  2  0
  3  5  1  0
  5  6  1  6
  5 42  1  0
  5 46  1  0
  6  7  1  0
  7  8  2  0
  7  9  1  0
  9 10  2  0
  9 15  1  0
 10 11  1  0
 11 12  2  0
 12 13  1  0
 12 14  1  0
 14 15  2  0
 15 16  1  0
 16 17  1  0
 17 18  2  0
 17 19  1  0
 19 20  2  0
 19 21  1  0
 21 22  1  0
 22 23  2  0
 22 24  1  0
 24 25  1  0
 25 26  1  0
 26 27  1  0
 27 28  1  0
 28 29  1  0
 29 30  1  0
 29 33  1  0
 30 31  1  0
 30 32  2  0
 33 34  2  0
 33 41  1  0
 34 35  1  0
 35 36  2  0
 36 37  1  0
 36 40  1  0
 37 38  1  0
 37 39  2  0
 40 41  2  0
 42 43  1  0
 43 44  1  0
 44 45  1  6
 44 46  1  0
M  CHG  1  44   1
M  END
