
     RDKit          3D

 44 49  0  0  0  0  0  0  0  0999 V2000
   -5.2970   -3.8860   -2.4330 C   0  0  0  0  0  0  0  0  0  0  0  0
   -6.0550   -3.5410   -1.2120 C   0  0  0  0  0  0  0  0  0  0  0  0
   -7.3960   -3.8320   -1.0930 C   0  0  0  0  0  0  0  0  0  0  0  0
   -8.0890   -3.5000    0.0630 C   0  0  0  0  0  0  0  0  0  0  0  0
   -7.4730   -2.8750    1.1210 C   0  0  0  0  0  0  0  0  0  0  0  0
   -8.3600   -2.4570    2.5950 S   0  0  0  0  0  0  0  0  0  0  0  0
   -8.9360   -3.6960    3.2770 O   0  0  0  0  0  0  0  0  0  0  0  0
   -6.1080   -2.5770    1.0020 C   0  0  0  0  0  0  0  0  0  0  0  0
   -5.4110   -2.9030   -0.1430 C   0  0  0  0  0  0  0  0  0  0  0  0
   -3.9740   -2.6270   -0.3540 C   0  0  0  0  0  0  0  0  0  0  0  0
   -3.2970   -1.9800    0.7070 N   0  0  0  0  0  0  0  0  0  0  0  0
   -1.8950   -1.6520    0.6590 C   0  0  0  0  0  0  0  0  0  0  0  0
   -1.5770   -0.4810    0.1380 C   0  0  0  0  0  0  0  0  0  0  0  0
   -2.5940    0.4420   -0.3680 C   0  0  0  0  0  0  0  0  0  0  0  0
   -3.7670    0.3990    0.0410 O   0  0  0  0  0  0  0  0  0  0  0  0
   -2.1270    1.4120   -1.3890 C   0  0  0  0  0  0  0  0  0  0  0  0
   -0.8840    2.1440   -0.9150 C   0  0  1  0  0  0  0  0  0  0  0  0
   -1.2430    3.2140    0.0650 C   0  0  0  0  0  0  0  0  0  0  0  0
   -1.5230    2.9550    1.3830 C   0  0  0  0  0  0  0  0  0  0  0  0
   -1.8640    3.9920    2.2470 C   0  0  0  0  0  0  0  0  0  0  0  0
   -1.9380    5.3120    1.8270 C   0  0  0  0  0  0  0  0  0  0  0  0
   -1.6550    5.5800    0.4940 C   0  0  0  0  0  0  0  0  0  0  0  0
   -1.3240    4.5480   -0.3290 C   0  0  0  0  0  0  0  0  0  0  0  0
   -1.7780    6.9430    0.2560 O   0  0  0  0  0  0  0  0  0  0  0  0
   -2.2260    7.5710    1.4350 C   0  0  0  0  0  0  0  0  0  0  0  0
   -2.2310    6.5270    2.3880 O   0  0  0  0  0  0  0  0  0  0  0  0
    0.2280    1.2600   -0.4820 C   0  0  0  0  0  0  0  0  0  0  0  0
   -0.1650   -0.0430    0.0440 C   0  0  0  0  0  0  0  0  0  0  0  0
    0.6950   -0.8770    0.4590 N   0  0  0  0  0  0  0  0  0  0  0  0
    2.0490   -0.8360    0.5300 N   0  0  0  0  0  0  0  0  0  0  0  0
    2.9990   -0.9130   -0.5060 C   0  0  0  0  0  0  0  0  0  0  0  0
    2.5350   -1.0390   -1.6900 O   0  0  0  0  0  0  0  0  0  0  0  0
    4.4430   -0.8660   -0.3400 C   0  0  0  0  0  0  0  0  0  0  0  0
    5.0630   -1.0230    0.8730 C   0  0  0  0  0  0  0  0  0  0  0  0
    6.4570   -0.9570    0.9670 C   0  0  0  0  0  0  0  0  0  0  0  0
    7.2450   -0.7350   -0.1400 C   0  0  0  0  0  0  0  0  0  0  0  0
    8.7070   -0.6670   -0.0540 C   0  0  0  0  0  0  0  0  0  0  0  0
    9.5670   -0.4560   -1.0310 C   0  0  0  0  0  0  0  0  0  0  0  0
   10.9400   -0.4680   -0.4900 C   0  0  0  0  0  0  0  0  0  0  0  0
   10.7500   -0.7210    0.9520 C   0  0  0  0  0  0  0  0  0  0  0  0
   11.7320   -0.8260    1.9110 F   0  0  0  0  0  0  0  0  0  0  0  0
    9.4660   -0.8300    1.1720 C   0  0  0  0  0  0  0  0  0  0  0  0
    6.6180   -0.5800   -1.3520 C   0  0  0  0  0  0  0  0  0  0  0  0
    5.2220   -0.6450   -1.4540 C   0  0  0  0  0  0  0  0  0  0  0  0
  1  2  1  0
  2  3  2  0
  2  9  1  0
  3  4  1  0
  4  5  2  0
  5  6  1  0
  5  8  1  0
  6  7  2  0
  8  9  2  0
  9 10  1  0
 10 11  1  0
 11 12  1  0
 12 13  2  3
 13 14  1  0
 13 28  1  0
 14 15  2  0
 14 16  1  0
 16 17  1  0
 17 18  1  1
 17 27  1  0
 18 19  2  0
 18 23  1  0
 19 20  1  0
 20 21  2  0
 21 22  1  0
 21 26  1  0
 22 23  2  0
 22 24  1  0
 24 25  1  0
 25 26  1  0
 27 28  1  0
 28 29  2  3
 29 30  1  0
 30 31  1  0
 31 32  2  0
 31 33  1  0
 33 34  2  0
 33 44  1  0
 34 35  1  0
 35 36  2  0
 36 37  1  0
 36 43  1  0
 37 38  2  0
 37 42  1  0
 38 39  1  0
 39 40  1  0
 40 41  1  0
 40 42  2  0
 43 44  2  0
M  END
