
     RDKit          3D

 31 34  0  0  0  0  0  0  0  0999 V2000
    5.9660   -0.6270    1.6750 O   0  0  0  0  0  0  0  0  0  0  0  0
    6.4150   -0.6970    0.4810 C   0  0  0  0  0  0  0  0  0  0  0  0
    5.5140   -1.0570   -0.5370 N   0  0  0  0  0  0  0  0  0  0  0  0
    4.1230   -1.3410   -0.2690 C   0  0  0  0  0  0  0  0  0  0  0  0
    3.4140   -0.1680    0.3080 C   0  0  0  0  0  0  0  0  0  0  0  0
    1.9880   -0.5650    0.5400 C   0  0  0  0  0  0  0  0  0  0  0  0
    0.9480    0.0240   -0.0170 C   0  0  0  0  0  0  0  0  0  0  0  0
   -0.2700   -0.6320    0.4420 C   0  0  0  0  0  0  0  0  0  0  0  0
   -1.5340   -0.3660    0.0870 C   0  0  0  0  0  0  0  0  0  0  0  0
   -2.6270   -1.1120    0.6360 C   0  0  0  0  0  0  0  0  0  0  0  0
   -2.3690   -2.0330    1.4700 O   0  0  0  0  0  0  0  0  0  0  0  0
   -3.9750   -0.8970    0.3180 N   0  0  0  0  0  0  0  0  0  0  0  0
   -5.0510   -1.6960    0.9130 C   0  0  0  0  0  0  0  0  0  0  0  0
   -6.0750   -2.1000   -0.0940 C   0  0  0  0  0  0  0  0  0  0  0  0
   -5.7310   -1.8490   -1.5160 C   0  0  0  0  0  0  0  0  0  0  0  0
   -4.9780   -0.5970   -1.8110 C   0  0  0  0  0  0  0  0  0  0  0  0
   -4.4230    0.1150   -0.6100 C   0  0  1  0  0  0  0  0  0  0  0  0
   -5.4030    0.9930    0.1120 C   0  0  0  0  0  0  0  0  0  0  0  0
   -5.9800    2.1090   -0.6860 C   0  0  2  0  0  0  0  0  0  0  0  0
   -6.9360    2.8610    0.2550 C   0  0  0  0  0  0  0  0  0  0  0  0
   -8.2580    2.1560    0.1100 C   0  0  0  0  0  0  0  0  0  0  0  0
   -8.0380    1.3550   -1.1590 C   0  0  0  0  0  0  0  0  0  0  0  0
   -6.8360    1.7490   -1.6940 O   0  0  0  0  0  0  0  0  0  0  0  0
    0.1590   -1.6780    1.4020 C   0  0  0  0  0  0  0  0  0  0  0  0
    1.5700   -1.5950    1.3600 O   0  0  0  0  0  0  0  0  0  0  0  0
    7.7730   -0.4080    0.2710 N   0  0  0  0  0  0  0  0  0  0  0  0
    8.6470   -0.0340    1.3770 C   0  0  0  0  0  0  0  0  0  0  0  0
    9.6130    1.0340    0.8780 C   0  0  0  0  0  0  0  0  0  0  0  0
    8.8940    1.8260   -0.1910 C   0  0  0  0  0  0  0  0  0  0  0  0
    8.6250    0.9970   -1.4340 C   0  0  0  0  0  0  0  0  0  0  0  0
    8.3840   -0.4610   -1.0280 C   0  0  0  0  0  0  0  0  0  0  0  0
  1  2  2  0
  2  3  1  0
  2 26  1  0
  3  4  1  0
  4  5  1  0
  5  6  1  0
  6  7  2  0
  6 25  1  0
  7  8  1  0
  8  9  2  3
  8 24  1  0
  9 10  1  0
 10 11  2  0
 10 12  1  0
 12 13  1  0
 12 17  1  0
 13 14  1  0
 14 15  1  0
 15 16  1  0
 16 17  1  0
 17 18  1  1
 19 18  1  1
 19 20  1  0
 19 23  1  0
 20 21  1  0
 21 22  1  0
 22 23  1  0
 24 25  1  0
 26 27  1  0
 26 31  1  0
 27 28  1  0
 28 29  1  0
 29 30  1  0
 30 31  1  0
M  END
