
     RDKit          3D

 29 31  0  0  0  0  0  0  0  0999 V2000
    5.5950    2.3260    1.4940 O   0  0  0  0  0  0  0  0  0  0  0  0
    5.9230    1.8450    0.3590 C   0  0  0  0  0  0  0  0  0  0  0  0
    7.1760    2.2070   -0.1080 O   0  0  0  0  0  0  0  0  0  0  0  0
    5.0000    0.9790   -0.3510 C   0  0  0  0  0  0  0  0  0  0  0  0
    5.3760    0.5400   -1.4700 O   0  0  0  0  0  0  0  0  0  0  0  0
    3.7010    0.6550    0.2450 C   0  0  0  0  0  0  0  0  0  0  0  0
    2.8820   -0.2440   -0.6580 C   0  0  1  0  0  0  0  0  0  0  0  0
    3.5900   -1.4460   -0.8860 O   0  0  0  0  0  0  0  0  0  0  0  0
    1.6190   -0.6590    0.0000 C   0  0  0  0  0  0  0  0  0  0  0  0
    1.6880   -1.6110    1.0170 C   0  0  0  0  0  0  0  0  0  0  0  0
    0.5250   -2.0150    1.6310 C   0  0  0  0  0  0  0  0  0  0  0  0
   -0.7090   -1.4790    1.2430 C   0  0  0  0  0  0  0  0  0  0  0  0
   -0.7850   -0.5320    0.2340 C   0  0  0  0  0  0  0  0  0  0  0  0
   -2.0480   -0.0040   -0.1490 N   0  0  0  0  0  0  0  0  0  0  0  0
   -2.7920   -0.5300   -1.2630 C   0  0  0  0  0  0  0  0  0  0  0  0
   -3.0760   -1.9770   -1.1530 C   0  0  0  0  0  0  0  0  0  0  0  0
   -4.1260   -2.3450   -0.3290 C   0  0  0  0  0  0  0  0  0  0  0  0
   -4.4820   -3.6600   -0.1520 C   0  0  0  0  0  0  0  0  0  0  0  0
   -3.8000   -4.6500   -0.7950 C   0  0  0  0  0  0  0  0  0  0  0  0
   -2.7330   -4.3010   -1.6360 C   0  0  0  0  0  0  0  0  0  0  0  0
   -2.3990   -2.9560   -1.7910 C   0  0  0  0  0  0  0  0  0  0  0  0
   -2.5740    1.0910    0.6330 C   0  0  0  0  0  0  0  0  0  0  0  0
   -1.6800    2.2640    0.6800 C   0  0  0  0  0  0  0  0  0  0  0  0
   -0.8790    2.4970    1.8050 C   0  0  0  0  0  0  0  0  0  0  0  0
   -0.0450    3.5780    1.8650 C   0  0  0  0  0  0  0  0  0  0  0  0
    0.0660    4.4940    0.8470 C   0  0  0  0  0  0  0  0  0  0  0  0
   -0.7220    4.2820   -0.2840 C   0  0  0  0  0  0  0  0  0  0  0  0
   -1.5610    3.1840   -0.3290 C   0  0  0  0  0  0  0  0  0  0  0  0
    0.4090   -0.1640   -0.3470 C   0  0  0  0  0  0  0  0  0  0  0  0
  1  2  2  0
  2  3  1  0
  2  4  1  0
  4  5  2  0
  4  6  1  0
  6  7  1  0
  7  8  1  1
  7  9  1  0
  9 10  2  0
  9 29  1  0
 10 11  1  0
 11 12  2  0
 12 13  1  0
 13 14  1  0
 13 29  2  0
 14 15  1  0
 14 22  1  0
 15 16  1  0
 16 17  2  0
 16 21  1  0
 17 18  1  0
 18 19  2  0
 19 20  1  0
 20 21  2  0
 22 23  1  0
 23 24  2  0
 23 28  1  0
 24 25  1  0
 25 26  2  0
 26 27  1  0
 27 28  2  0
M  END
