
     RDKit          3D

 28 31  0  0  0  0  0  0  0  0999 V2000
    1.2190   -5.0420    1.7160 C   0  0  0  0  0  0  0  0  0  0  0  0
    0.1750   -3.9960    1.8500 C   0  0  0  0  0  0  0  0  0  0  0  0
    0.0750   -3.0950    0.8840 C   0  0  0  0  0  0  0  0  0  0  0  0
    0.9000   -2.9890   -0.3610 C   0  0  0  0  0  0  0  0  0  0  0  0
    0.8970   -1.5540   -0.5340 N   0  0  0  0  0  0  0  0  0  0  0  0
    2.0440   -0.7770   -0.8430 C   0  0  0  0  0  0  0  0  0  0  0  0
    2.1000    0.5780   -1.0120 N   0  0  0  0  0  0  0  0  0  0  0  0
    3.3650    0.9460   -1.2930 C   0  0  0  0  0  0  0  0  0  0  0  0
    4.1340   -0.1940   -1.3060 C   0  0  0  0  0  0  0  0  0  0  0  0
    3.2990   -1.2090   -1.0300 N   0  0  0  0  0  0  0  0  0  0  0  0
    5.5890   -0.1120   -1.5900 C   0  0  0  0  0  0  0  0  0  0  0  0
    6.0660    1.1710   -1.8240 O   0  0  0  0  0  0  0  0  0  0  0  0
    5.2850    2.2760   -1.8060 C   0  0  0  0  0  0  0  0  0  0  0  0
    5.8270    3.5110   -2.0500 F   0  0  0  0  0  0  0  0  0  0  0  0
    4.0060    2.2100   -1.5590 C   0  0  0  0  0  0  0  0  0  0  0  0
    3.1290    3.4330   -1.5370 C   0  0  0  0  0  0  0  0  0  0  0  0
   -0.4800   -1.1530   -0.3240 C   0  0  2  0  0  0  0  0  0  0  0  0
   -0.6280    0.2390   -0.0770 N   0  0  0  0  0  0  0  0  0  0  0  0
   -1.8740    0.5400    0.4070 N   0  0  0  0  0  0  0  0  0  0  0  0
   -2.4470    1.8420    0.1800 C   0  0  0  0  0  0  0  0  0  0  0  0
   -1.7790    2.6950   -0.4780 O   0  0  0  0  0  0  0  0  0  0  0  0
   -3.7300    2.2060    0.6640 N   0  0  0  0  0  0  0  0  0  0  0  0
   -4.2210    3.5550    0.3810 C   0  0  0  0  0  0  0  0  0  0  0  0
   -5.5820    3.7350    0.9780 C   0  0  0  0  0  0  0  0  0  0  0  0
   -2.6590   -0.4020    1.1510 C   0  0  1  0  0  0  0  0  0  0  0  0
   -3.9080   -0.8240    0.3900 C   0  0  0  0  0  0  0  0  0  0  0  0
   -1.9230   -1.6250    1.5350 C   0  0  0  0  0  0  0  0  0  0  0  0
   -0.8780   -1.9950    0.8300 C   0  0  0  0  0  0  0  0  0  0  0  0
  1  2  1  0
  2  3  2  3
  3  4  1  0
  3 28  1  0
  4  5  1  0
  5  6  1  0
  5 17  1  0
  6  7  2  0
  6 10  1  0
  7  8  1  0
  8  9  2  0
  8 15  1  0
  9 10  1  0
  9 11  1  0
 11 12  1  0
 12 13  1  0
 13 14  1  0
 13 15  2  0
 15 16  1  0
 17 18  1  1
 17 28  1  0
 18 19  1  0
 19 20  1  0
 19 25  1  0
 20 21  2  0
 20 22  1  0
 22 23  1  0
 23 24  1  0
 25 26  1  6
 25 27  1  0
 27 28  2  0
M  END
