
     RDKit          3D

 31 34  0  0  0  0  0  0  0  0999 V2000
   -2.7890    1.2150   -2.3770 C   0  0  0  0  0  0  0  0  0  0  0  0
   -3.7730    0.7620   -1.6910 C   0  0  0  0  0  0  0  0  0  0  0  0
   -3.6810   -0.3000   -0.6640 C   0  0  0  0  0  0  0  0  0  0  0  0
   -4.7860   -0.7160   -0.0840 C   0  0  0  0  0  0  0  0  0  0  0  0
   -5.0340   -1.7320    0.9460 C   0  0  0  0  0  0  0  0  0  0  0  0
   -3.9690   -2.7930    1.0050 C   0  0  0  0  0  0  0  0  0  0  0  0
   -3.2490   -3.0530   -0.2670 C   0  0  0  0  0  0  0  0  0  0  0  0
   -1.9550   -2.2070   -0.4020 C   0  0  0  0  0  0  0  0  0  0  0  0
   -2.2740   -0.7460   -0.3950 C   0  0  0  0  0  0  0  0  0  0  0  0
   -1.4580    0.1730    0.0130 C   0  0  0  0  0  0  0  0  0  0  0  0
   -0.0700    0.0760    0.3150 C   0  0  0  0  0  0  0  0  0  0  0  0
    0.3740    1.2350    0.9210 O   0  0  0  0  0  0  0  0  0  0  0  0
    0.9940   -0.7720    0.2050 N   0  0  0  0  0  0  0  0  0  0  0  0
    1.1160   -2.0110   -0.5060 C   0  0  0  0  0  0  0  0  0  0  0  0
    2.6490   -2.1750   -0.7930 C   0  0  0  0  0  0  0  0  0  0  0  0
    3.1800   -0.9470   -1.1210 O   0  0  0  0  0  0  0  0  0  0  0  0
    3.3540   -0.1360   -0.0010 C   0  0  2  0  0  0  0  0  0  0  0  0
    4.6870   -0.3820    0.6270 C   0  0  0  0  0  0  0  0  0  0  0  0
    5.0710    0.2440    1.6410 O   0  0  0  0  0  0  0  0  0  0  0  0
    5.5400   -1.3300    0.0850 O   0  0  0  0  0  0  0  0  0  0  0  0
    6.8010   -1.6390    0.5920 C   0  0  0  0  0  0  0  0  0  0  0  0
    7.7650   -0.4910    0.6230 C   0  0  0  0  0  0  0  0  0  0  0  0
    2.2400   -0.3720    0.9560 C   0  0  0  0  0  0  0  0  0  0  0  0
   -1.9930    1.5500    0.3750 C   0  0  0  0  0  0  0  0  0  0  0  0
   -3.0600    1.8210    1.1950 C   0  0  0  0  0  0  0  0  0  0  0  0
   -3.2030    3.1730    1.3020 N   0  0  0  0  0  0  0  0  0  0  0  0
   -2.2580    3.7440    0.5750 N   0  0  0  0  0  0  0  0  0  0  0  0
   -1.5030    2.7630   -0.0050 C   0  0  0  0  0  0  0  0  0  0  0  0
   -0.4050    3.1110   -0.9390 C   0  0  2  0  0  0  0  0  0  0  0  0
    0.1500    4.4910   -0.9690 C   0  0  0  0  0  0  0  0  0  0  0  0
   -0.8100    4.1450   -2.0240 C   0  0  0  0  0  0  0  0  0  0  0  0
  1  2  2  0
  2  3  1  0
  3  4  2  0
  3  9  1  0
  4  5  1  0
  5  6  1  0
  6  7  1  0
  7  8  1  0
  8  9  1  0
  9 10  2  3
 10 11  1  0
 10 24  1  0
 11 12  2  0
 11 13  1  0
 13 14  1  0
 13 23  1  0
 14 15  1  0
 15 16  1  0
 16 17  1  0
 17 18  1  1
 17 23  1  0
 18 19  2  0
 18 20  1  0
 20 21  1  0
 21 22  1  0
 24 25  1  0
 24 28  2  0
 25 26  2  0
 26 27  1  0
 27 28  1  0
 29 28  1  1
 29 30  1  0
 29 31  1  0
 30 31  1  0
M  END
