
     RDKit          3D

 29 33  0  0  0  0  0  0  0  0999 V2000
   -6.6610   -2.0950   -1.5390 O   0  0  0  0  0  0  0  0  0  0  0  0
   -6.3990   -0.9620   -2.0090 C   0  0  0  0  0  0  0  0  0  0  0  0
   -6.9860   -0.6460   -3.1960 F   0  0  0  0  0  0  0  0  0  0  0  0
   -5.5440   -0.0260   -1.3760 N   0  0  0  0  0  0  0  0  0  0  0  0
   -4.9370   -0.3870   -0.1220 C   0  0  2  0  0  0  0  0  0  0  0  0
   -5.4050    0.5530    0.9980 C   0  0  0  0  0  0  0  0  0  0  0  0
   -4.9020    0.0930    2.3160 C   0  0  0  0  0  0  0  0  0  0  0  0
   -3.5910   -0.6180    2.2610 C   0  0  0  0  0  0  0  0  0  0  0  0
   -2.7820   -0.3530    1.0500 C   0  0  0  0  0  0  0  0  0  0  0  0
   -1.4240   -0.2240    1.0850 N   0  0  0  0  0  0  0  0  0  0  0  0
   -0.6940    0.0100   -0.0170 C   0  0  0  0  0  0  0  0  0  0  0  0
    0.7400    0.1420    0.0530 N   0  0  0  0  0  0  0  0  0  0  0  0
    1.4360    1.1140    0.5570 N   0  0  0  0  0  0  0  0  0  0  0  0
    2.7730    0.8610    0.4280 C   0  0  0  0  0  0  0  0  0  0  0  0
    2.9010   -0.3180   -0.1820 N   0  0  0  0  0  0  0  0  0  0  0  0
    1.6200   -0.7550   -0.4090 C   0  0  0  0  0  0  0  0  0  0  0  0
    1.3220   -1.8470   -0.9750 O   0  0  0  0  0  0  0  0  0  0  0  0
    4.1540   -0.9620   -0.5130 C   0  0  0  0  0  0  0  0  0  0  0  0
    5.3120   -0.1580   -0.0970 C   0  0  0  0  0  0  0  0  0  0  0  0
    6.5670   -0.7110   -0.3810 C   0  0  0  0  0  0  0  0  0  0  0  0
    7.7170   -0.0560   -0.0410 C   0  0  0  0  0  0  0  0  0  0  0  0
    8.9270   -0.6020   -0.3220 F   0  0  0  0  0  0  0  0  0  0  0  0
    7.6060    1.1600    0.5880 C   0  0  0  0  0  0  0  0  0  0  0  0
    6.3770    1.7120    0.8720 C   0  0  0  0  0  0  0  0  0  0  0  0
    5.1980    1.0540    0.5300 C   0  0  0  0  0  0  0  0  0  0  0  0
    3.9250    1.6160    0.8190 N   0  0  0  0  0  0  0  0  0  0  0  0
   -1.3470    0.1220   -1.2240 C   0  0  0  0  0  0  0  0  0  0  0  0
   -2.7450   -0.0080   -1.2790 C   0  0  0  0  0  0  0  0  0  0  0  0
   -3.4670   -0.2460   -0.1400 C   0  0  0  0  0  0  0  0  0  0  0  0
  1  2  2  0
  2  3  1  0
  2  4  1  0
  5  4  1  6
  5  6  1  0
  5 29  1  0
  6  7  1  0
  7  8  1  0
  8  9  1  0
  9 10  2  0
  9 29  1  0
 10 11  1  0
 11 12  1  0
 11 27  2  0
 12 13  1  0
 12 16  1  0
 13 14  2  0
 14 15  1  0
 14 26  1  0
 15 16  1  0
 15 18  1  0
 16 17  2  0
 18 19  1  0
 19 20  2  0
 19 25  1  0
 20 21  1  0
 21 22  1  0
 21 23  2  0
 23 24  1  0
 24 25  2  0
 25 26  1  0
 27 28  1  0
 28 29  2  0
M  END
