
     RDKit          3D

 29 32  0  0  0  0  0  0  0  0999 V2000
    1.3110    1.0030    3.1470 C   0  0  0  0  0  0  0  0  0  0  0  0
    1.6770    0.8080    1.7650 N   0  0  0  0  0  0  0  0  0  0  0  0
    3.0570    0.6760    1.3950 C   0  0  0  0  0  0  0  0  0  0  0  0
    3.9080    0.7800    2.2970 O   0  0  0  0  0  0  0  0  0  0  0  0
    3.4680    0.4370    0.0770 N   0  0  0  0  0  0  0  0  0  0  0  0
    4.7720    0.2900   -0.4240 C   0  0  0  0  0  0  0  0  0  0  0  0
    5.9110    0.4520    0.3220 C   0  0  0  0  0  0  0  0  0  0  0  0
    7.1880    0.3080   -0.2280 C   0  0  0  0  0  0  0  0  0  0  0  0
    8.3000    0.4730    0.5270 F   0  0  0  0  0  0  0  0  0  0  0  0
    7.3400   -0.0050   -1.5600 C   0  0  0  0  0  0  0  0  0  0  0  0
    6.2120   -0.1730   -2.3270 C   0  0  0  0  0  0  0  0  0  0  0  0
    4.9670   -0.0240   -1.7530 C   0  0  0  0  0  0  0  0  0  0  0  0
    3.8470   -0.1990   -2.5260 F   0  0  0  0  0  0  0  0  0  0  0  0
    0.7140    0.7330    0.7430 C   0  0  0  0  0  0  0  0  0  0  0  0
    0.4750    1.8270   -0.0870 C   0  0  0  0  0  0  0  0  0  0  0  0
   -0.4910    1.6710   -1.0510 C   0  0  0  0  0  0  0  0  0  0  0  0
   -0.7380    2.7720   -1.8970 N   0  0  0  0  0  0  0  0  0  0  0  0
   -1.1560    0.5000   -1.1610 N   0  0  0  0  0  0  0  0  0  0  0  0
   -0.9210   -0.5610   -0.3530 C   0  0  0  0  0  0  0  0  0  0  0  0
   -1.6940   -1.8310   -0.5050 C   0  0  2  0  0  0  0  0  0  0  0  0
   -2.9620   -1.4600   -1.2430 C   0  0  0  0  0  0  0  0  0  0  0  0
   -3.7270   -0.4810   -0.4800 N   0  0  0  0  0  0  0  0  0  0  0  0
   -5.0470   -0.2840   -0.9870 C   0  0  0  0  0  0  0  0  0  0  0  0
   -5.8710    0.0770    0.2560 C   0  0  0  0  0  0  0  0  0  0  0  0
   -5.3010   -0.9130    1.2570 C   0  0  0  0  0  0  0  0  0  0  0  0
   -3.8400   -0.8880    0.9080 C   0  0  1  0  0  0  0  0  0  0  0  0
   -3.2830   -2.2780    1.1230 C   0  0  0  0  0  0  0  0  0  0  0  0
   -1.9630   -2.3810    0.7420 O   0  0  0  0  0  0  0  0  0  0  0  0
    0.0230   -0.4130    0.5920 N   0  0  0  0  0  0  0  0  0  0  0  0
  1  2  1  0
  2  3  1  0
  2 14  1  0
  3  4  2  0
  3  5  1  0
  5  6  1  0
  6  7  2  0
  6 12  1  0
  7  8  1  0
  8  9  1  0
  8 10  2  0
 10 11  1  0
 11 12  2  0
 12 13  1  0
 14 15  2  0
 14 29  1  0
 15 16  1  0
 16 17  1  0
 16 18  2  0
 18 19  1  0
 20 19  1  1
 19 29  2  0
 20 21  1  0
 20 28  1  0
 21 22  1  0
 22 23  1  0
 22 26  1  0
 23 24  1  0
 24 25  1  0
 26 25  1  6
 26 27  1  0
 27 28  1  0
M  END
