
     RDKit          3D

 31 34  0  0  0  0  0  0  0  0999 V2000
    0.3710   -1.0120    4.0230 C   0  0  0  0  0  0  0  0  0  0  0  0
    0.4060   -0.4570    2.5800 C   0  0  0  0  0  0  0  0  0  0  0  0
   -0.0450   -1.5460    1.6410 C   0  0  0  0  0  0  0  0  0  0  0  0
   -0.0420   -1.2040    0.1940 C   0  0  2  0  0  0  0  0  0  0  0  0
    1.3230   -0.8200   -0.3320 C   0  0  0  0  0  0  0  0  0  0  0  0
    1.3690   -0.0860   -1.3270 O   0  0  0  0  0  0  0  0  0  0  0  0
    2.5250   -1.2680    0.2580 N   0  0  0  0  0  0  0  0  0  0  0  0
    3.8660   -0.9930   -0.1150 C   0  0  0  0  0  0  0  0  0  0  0  0
    4.3380    0.4040    0.0020 C   0  0  2  0  0  0  0  0  0  0  0  0
    3.7830    1.4250   -0.9290 C   0  0  0  0  0  0  0  0  0  0  0  0
    4.8780    2.5100   -0.9270 C   0  0  0  0  0  0  0  0  0  0  0  0
    6.0690    1.7450   -0.4530 C   0  0  0  0  0  0  0  0  0  0  0  0
    5.7080    0.4250   -0.3790 O   0  0  0  0  0  0  0  0  0  0  0  0
   -1.0680   -0.2790   -0.1900 N   0  0  0  0  0  0  0  0  0  0  0  0
   -2.2850   -0.6750   -0.5780 C   0  0  0  0  0  0  0  0  0  0  0  0
   -2.6680   -2.0780   -0.5900 C   0  0  0  0  0  0  0  0  0  0  0  0
   -3.9330   -2.5110   -1.0280 C   0  0  0  0  0  0  0  0  0  0  0  0
   -3.9740   -3.8790   -0.9110 C   0  0  0  0  0  0  0  0  0  0  0  0
   -2.7450   -4.2410   -0.4110 C   0  0  0  0  0  0  0  0  0  0  0  0
   -2.3180   -5.6480   -0.1140 C   0  0  0  0  0  0  0  0  0  0  0  0
   -2.0510   -3.1520   -0.2530 O   0  0  0  0  0  0  0  0  0  0  0  0
   -3.2330    0.2520   -0.9590 N   0  0  0  0  0  0  0  0  0  0  0  0
   -3.0130    1.5700   -0.9670 C   0  0  0  0  0  0  0  0  0  0  0  0
   -1.7880    1.9930   -0.5770 C   0  0  0  0  0  0  0  0  0  0  0  0
   -0.8450    1.0450   -0.1960 C   0  0  0  0  0  0  0  0  0  0  0  0
    0.2530    1.5000    0.1530 O   0  0  0  0  0  0  0  0  0  0  0  0
   -1.3190    3.2260   -0.4950 C   0  0  0  0  0  0  0  0  0  0  0  0
   -2.0380    4.4520   -0.8190 C   0  0  0  0  0  0  0  0  0  0  0  0
   -3.2650    4.6440   -1.2490 C   0  0  0  0  0  0  0  0  0  0  0  0
   -4.3480    3.7080   -1.5560 C   0  0  0  0  0  0  0  0  0  0  0  0
   -4.0520    2.2810   -1.3650 C   0  0  0  0  0  0  0  0  0  0  0  0
  1  2  1  0
  2  3  1  0
  4  3  1  1
  4  5  1  0
  4 14  1  0
  5  6  2  0
  5  7  1  0
  7  8  1  0
  9  8  1  6
  9 10  1  0
  9 13  1  0
 10 11  1  0
 11 12  1  0
 12 13  1  0
 14 15  1  0
 14 25  1  0
 15 16  1  0
 15 22  2  0
 16 17  2  0
 16 21  1  0
 17 18  1  0
 18 19  2  0
 19 20  1  0
 19 21  1  0
 22 23  1  0
 23 24  1  0
 23 31  2  0
 24 25  1  0
 24 27  2  0
 25 26  2  0
 27 28  1  0
 28 29  2  0
 29 30  1  0
 30 31  1  0
M  END
