
     RDKit          3D

 31 34  0  0  0  0  0  0  0  0999 V2000
   -5.9040   -2.5510   -1.4250 C   0  0  0  0  0  0  0  0  0  0  0  0
   -5.7500   -1.2410   -1.5450 C   0  0  0  0  0  0  0  0  0  0  0  0
   -5.4210   -0.4100   -0.3360 C   0  0  2  0  0  0  0  0  0  0  0  0
   -6.4920    0.6780   -0.2860 C   0  0  0  0  0  0  0  0  0  0  0  0
   -6.3530    1.5530    0.9200 C   0  0  0  0  0  0  0  0  0  0  0  0
   -4.9030    1.5310    1.3600 C   0  0  0  0  0  0  0  0  0  0  0  0
   -4.0670    1.6550    0.0830 C   0  0  0  0  0  0  0  0  0  0  0  0
   -4.1110    0.2750   -0.5780 C   0  0  1  0  0  0  0  0  0  0  0  0
   -2.9710   -0.4890    0.0500 C   0  0  0  0  0  0  0  0  0  0  0  0
   -3.2150   -1.5260    0.6580 O   0  0  0  0  0  0  0  0  0  0  0  0
   -1.6910    0.0410   -0.1020 N   0  0  0  0  0  0  0  0  0  0  0  0
   -0.5220   -0.5470    0.4220 C   0  0  0  0  0  0  0  0  0  0  0  0
   -0.4450   -1.7080    1.1500 C   0  0  0  0  0  0  0  0  0  0  0  0
    0.7560   -2.2340    1.6400 C   0  0  0  0  0  0  0  0  0  0  0  0
    1.9130   -1.5670    1.3860 C   0  0  0  0  0  0  0  0  0  0  0  0
    3.1470   -2.0440    1.8490 C   0  0  0  0  0  0  0  0  0  0  0  0
    4.2780   -1.3250    1.5600 C   0  0  0  0  0  0  0  0  0  0  0  0
    4.1700   -0.2090    0.8550 N   0  0  0  0  0  0  0  0  0  0  0  0
    5.3850    0.5600    0.5450 C   0  0  0  0  0  0  0  0  0  0  0  0
    5.9300    0.0640   -0.7450 C   0  0  0  0  0  0  0  0  0  0  0  0
    5.3580   -0.8590   -1.3660 O   0  0  0  0  0  0  0  0  0  0  0  0
    7.1560    0.6680   -1.2920 C   0  0  0  0  0  0  0  0  0  0  0  0
    7.8910    1.6420   -0.7830 C   0  0  0  0  0  0  0  0  0  0  0  0
    9.0220    1.9160   -1.6760 C   0  0  0  0  0  0  0  0  0  0  0  0
    8.8630    1.0770   -2.6590 C   0  0  0  0  0  0  0  0  0  0  0  0
    7.8060    0.2880   -2.5410 C   0  0  0  0  0  0  0  0  0  0  0  0
    3.0050    0.2500    0.4120 C   0  0  0  0  0  0  0  0  0  0  0  0
    2.9480    1.3280   -0.2630 O   0  0  0  0  0  0  0  0  0  0  0  0
    1.8540   -0.4290    0.6740 N   0  0  0  0  0  0  0  0  0  0  0  0
    0.7120    0.0870    0.1990 C   0  0  0  0  0  0  0  0  0  0  0  0
    0.7150    1.1650   -0.4680 O   0  0  0  0  0  0  0  0  0  0  0  0
  1  2  2  0
  3  2  1  6
  3  4  1  0
  3  8  1  0
  4  5  1  0
  5  6  1  0
  6  7  1  0
  7  8  1  0
  8  9  1  1
  9 10  2  0
  9 11  1  0
 11 12  1  0
 12 13  2  0
 12 30  1  0
 13 14  1  0
 14 15  2  0
 15 16  1  0
 15 29  1  0
 16 17  2  0
 17 18  1  0
 18 19  1  0
 18 27  1  0
 19 20  1  0
 20 21  2  0
 20 22  1  0
 22 23  2  0
 22 26  1  0
 23 24  1  0
 24 25  2  0
 25 26  2  0
 27 28  2  0
 27 29  1  0
 29 30  1  0
 30 31  2  0
M  END
