
     RDKit          3D

 28 31  0  0  0  0  0  0  0  0999 V2000
   -0.6380   -1.8330    1.3540 C   0  0  0  0  0  0  0  0  0  0  0  0
   -1.8780   -1.0380    1.5830 C   0  0  0  0  0  0  0  0  0  0  0  0
   -3.0250   -1.2800    0.7410 C   0  0  2  0  0  0  0  0  0  0  0  0
   -3.4720   -2.7660    0.8240 C   0  0  0  0  0  0  0  0  0  0  0  0
   -4.6760   -2.7300   -0.0680 C   0  0  1  0  0  0  0  0  0  0  0  0
   -5.8990   -2.8780    0.8260 C   0  0  0  0  0  0  0  0  0  0  0  0
   -4.6690   -1.3880   -0.7360 C   0  0  0  0  0  0  0  0  0  0  0  0
   -3.2080   -0.9840   -0.5980 N   0  0  0  0  0  0  0  0  0  0  0  0
   -2.5950   -0.5090   -1.7590 C   0  0  0  0  0  0  0  0  0  0  0  0
   -3.3860   -0.5660   -2.8040 O   0  0  0  0  0  0  0  0  0  0  0  0
   -1.3030    0.0210   -2.0440 C   0  0  0  0  0  0  0  0  0  0  0  0
   -0.2160    0.3760   -1.2780 C   0  0  0  0  0  0  0  0  0  0  0  0
    0.8010    0.9050   -2.0810 C   0  0  0  0  0  0  0  0  0  0  0  0
    2.1030    1.3930   -1.6490 C   0  0  0  0  0  0  0  0  0  0  0  0
    3.0110    1.8920   -2.5600 C   0  0  0  0  0  0  0  0  0  0  0  0
    4.2600    2.3620   -2.1630 C   0  0  0  0  0  0  0  0  0  0  0  0
    4.5970    2.3330   -0.8640 N   0  0  0  0  0  0  0  0  0  0  0  0
    3.7380    1.8550    0.0510 C   0  0  0  0  0  0  0  0  0  0  0  0
    4.0870    1.8220    1.4150 O   0  0  0  0  0  0  0  0  0  0  0  0
    5.3310    2.2880    1.8230 C   0  0  0  0  0  0  0  0  0  0  0  0
    6.3450    1.6200    2.4730 C   0  0  0  0  0  0  0  0  0  0  0  0
    7.3700    2.4570    2.6720 N   0  0  0  0  0  0  0  0  0  0  0  0
    7.0480    3.6270    2.1750 N   0  0  0  0  0  0  0  0  0  0  0  0
    5.8180    3.5650    1.6510 C   0  0  0  0  0  0  0  0  0  0  0  0
    5.1590    4.5840    1.0510 F   0  0  0  0  0  0  0  0  0  0  0  0
    2.5040    1.3890   -0.3310 C   0  0  0  0  0  0  0  0  0  0  0  0
    0.2960    0.8540   -3.3090 N   0  0  0  0  0  0  0  0  0  0  0  0
   -0.9020    0.3540   -3.3130 N   0  0  0  0  0  0  0  0  0  0  0  0
  1  2  1  0
  3  2  1  6
  3  4  1  0
  3  8  1  0
  4  5  1  0
  5  6  1  1
  5  7  1  0
  7  8  1  0
  8  9  1  0
  9 10  2  0
  9 11  1  0
 11 12  2  0
 11 28  1  0
 12 13  1  0
 13 14  1  0
 13 27  2  0
 14 15  2  0
 14 26  1  0
 15 16  1  0
 16 17  2  0
 17 18  1  0
 18 19  1  0
 18 26  2  0
 19 20  1  0
 20 21  1  0
 20 24  2  0
 21 22  2  0
 22 23  1  0
 23 24  1  0
 24 25  1  0
 27 28  1  0
M  END
