
     RDKit          3D

 29 32  0  0  0  0  0  0  0  0999 V2000
    0.6140    0.6480    2.0320 O   0  0  0  0  0  0  0  0  0  0  0  0
    0.8890    0.0310    0.9710 C   0  0  0  0  0  0  0  0  0  0  0  0
   -0.1670   -0.2360   -0.0630 C   0  0  0  0  0  0  0  0  0  0  0  0
   -1.4910    0.3140    0.3530 C   0  0  0  0  0  0  0  0  0  0  0  0
   -2.5580    0.0580   -0.6830 C   0  0  1  0  0  0  0  0  0  0  0  0
   -2.8120   -1.3660   -0.9870 C   0  0  0  0  0  0  0  0  0  0  0  0
   -3.4070   -2.0060    0.2540 C   0  0  0  0  0  0  0  0  0  0  0  0
   -4.8810   -2.0330    0.0560 C   0  0  0  0  0  0  0  0  0  0  0  0
   -5.5870   -0.7770    0.3910 C   0  0  0  0  0  0  0  0  0  0  0  0
   -4.9170    0.4810    0.0970 C   0  0  0  0  0  0  0  0  0  0  0  0
   -3.7390    0.8650   -0.3230 C   0  0  0  0  0  0  0  0  0  0  0  0
   -3.2970    2.2510   -0.5450 C   0  0  0  0  0  0  0  0  0  0  0  0
   -3.7640    3.3190    0.0740 C   0  0  0  0  0  0  0  0  0  0  0  0
   -3.1940    4.5170   -0.3030 F   0  0  0  0  0  0  0  0  0  0  0  0
   -4.7140    3.2520    1.0040 F   0  0  0  0  0  0  0  0  0  0  0  0
   -2.2630    2.1910   -1.5490 N   0  0  0  0  0  0  0  0  0  0  0  0
   -2.1000    0.8250   -1.9060 C   0  0  0  0  0  0  0  0  0  0  0  0
   -1.6730    0.3400   -2.9910 O   0  0  0  0  0  0  0  0  0  0  0  0
    2.2310   -0.3990    0.7950 N   0  0  0  0  0  0  0  0  0  0  0  0
    3.2540   -0.1590    1.7620 C   0  0  0  0  0  0  0  0  0  0  0  0
    4.5410   -0.6870    1.3700 N   0  0  0  0  0  0  0  0  0  0  0  0
    4.9340   -1.9080    1.6660 N   0  0  0  0  0  0  0  0  0  0  0  0
    6.1240   -2.1240    1.1950 N   0  0  0  0  0  0  0  0  0  0  0  0
    6.5540   -1.0210    0.5600 C   0  0  0  0  0  0  0  0  0  0  0  0
    7.7220   -0.6990   -0.1120 C   0  0  0  0  0  0  0  0  0  0  0  0
    7.8110    0.5680   -0.6510 C   0  0  0  0  0  0  0  0  0  0  0  0
    6.7630    1.4480   -0.5070 C   0  0  0  0  0  0  0  0  0  0  0  0
    5.6280    1.1020    0.1590 N   0  0  0  0  0  0  0  0  0  0  0  0
    5.5290   -0.1160    0.6840 C   0  0  0  0  0  0  0  0  0  0  0  0
  1  2  2  0
  2  3  1  0
  2 19  1  0
  3  4  1  0
  5  4  1  1
  5  6  1  0
  5 11  1  0
  5 17  1  0
  6  7  1  0
  7  8  1  0
  8  9  1  0
  9 10  1  0
 10 11  2  0
 11 12  1  0
 12 13  2  3
 12 16  1  0
 13 14  1  0
 13 15  1  0
 16 17  1  0
 17 18  2  0
 19 20  1  0
 20 21  1  0
 21 22  1  0
 21 29  1  0
 22 23  2  0
 23 24  1  0
 24 25  2  0
 24 29  1  0
 25 26  1  0
 26 27  2  0
 27 28  1  0
 28 29  2  0
M  END
