
     RDKit          3D

 12 12  0  0  0  0  0  0  0  0999 V2000
    3.7360   -0.8400   -0.8540 C   0  0  0  0  0  0  0  0  0  0  0  0
    3.0150   -1.4980    0.3220 C   0  0  0  0  0  0  0  0  0  0  0  0
    1.6500   -1.3080    0.2510 O   0  0  0  0  0  0  0  0  0  0  0  0
    1.3080    0.0540    0.2670 C   0  0  0  0  0  0  0  0  0  0  0  0
   -0.1800    0.1830    0.1880 C   0  0  0  0  0  0  0  0  0  0  0  0
   -0.9550   -0.8310    0.1180 N   0  0  0  0  0  0  0  0  0  0  0  0
   -2.3380   -0.7940    0.0420 N   0  0  0  0  0  0  0  0  0  0  0  0
   -3.1230   -2.0440   -0.0330 C   0  0  0  0  0  0  0  0  0  0  0  0
   -3.0230    0.4710    0.0370 C   0  0  0  0  0  0  0  0  0  0  0  0
   -2.1320    1.6420    0.1170 C   0  0  0  0  0  0  0  0  0  0  0  0
   -0.8250    1.4900    0.1850 C   0  0  0  0  0  0  0  0  0  0  0  0
    0.0850    2.6840    0.2670 C   0  0  0  0  0  0  0  0  0  0  0  0
  1  2  1  0
  2  3  1  0
  3  4  1  0
  4  5  1  0
  5  6  2  0
  5 11  1  0
  6  7  1  0
  7  8  1  0
  7  9  1  0
  9 10  1  0
 10 11  2  0
 11 12  1  0
M  END
