
     RDKit          3D

 12 12  0  0  0  0  0  0  0  0999 V2000
   -3.4670    0.1670    0.2310 C   0  0  0  0  0  0  0  0  0  0  0  0
   -2.0320    0.0360    0.6880 C   0  0  0  0  0  0  0  0  0  0  0  0
   -1.0760    0.1130   -0.4930 C   0  0  0  0  0  0  0  0  0  0  0  0
    0.2960   -0.0230   -0.1190 N   0  0  0  0  0  0  0  0  0  0  0  0
    0.8210    1.0650    0.6740 C   0  0  0  0  0  0  0  0  0  0  0  0
    2.0720    1.5200    0.7610 C   0  0  0  0  0  0  0  0  0  0  0  0
    3.2510    1.0240    0.0620 C   0  0  0  0  0  0  0  0  0  0  0  0
    3.3230   -0.1500   -0.5570 C   0  0  0  0  0  0  0  0  0  0  0  0
    2.3600   -1.1780   -0.7080 N   0  0  0  0  0  0  0  0  0  0  0  0
    1.0560   -1.1380   -0.5240 C   0  0  0  0  0  0  0  0  0  0  0  0
    0.3320   -2.3610   -0.7670 C   0  0  0  0  0  0  0  0  0  0  0  0
   -0.8830   -2.5000   -0.6380 O   0  0  0  0  0  0  0  0  0  0  0  0
  1  2  1  0
  2  3  1  0
  3  4  1  0
  4  5  1  0
  4 10  1  0
  5  6  2  0
  6  7  1  0
  7  8  2  0
  8  9  1  0
  9 10  2  0
 10 11  1  0
 11 12  2  0
M  END
