
     RDKit          3D

 12 12  0  0  0  0  0  0  0  0999 V2000
   -2.5710    1.6770    0.7170 C   0  0  0  0  0  0  0  0  0  0  0  0
   -3.0640    0.5130   -0.1550 C   0  0  0  0  0  0  0  0  0  0  0  0
   -2.0220   -0.4030   -0.4950 N   0  0  0  0  0  0  0  0  0  0  0  0
   -2.4030   -1.6560   -1.1590 C   0  0  0  0  0  0  0  0  0  0  0  0
   -0.6350   -0.1850   -0.2820 C   0  0  0  0  0  0  0  0  0  0  0  0
    0.1800   -1.1010    0.1060 N   0  0  0  0  0  0  0  0  0  0  0  0
    1.5930   -0.8240    0.3070 C   0  0  0  0  0  0  0  0  0  0  0  0
    2.4210   -1.9510    0.7360 C   0  0  0  0  0  0  0  0  0  0  0  0
    2.0950    0.3480    0.1030 C   0  0  0  0  0  0  0  0  0  0  0  0
    3.5000    0.6580    0.2960 C   0  0  0  0  0  0  0  0  0  0  0  0
    1.1970    1.4440   -0.3710 C   0  0  0  0  0  0  0  0  0  0  0  0
   -0.1270    1.0830   -0.5000 O   0  0  0  0  0  0  0  0  0  0  0  0
  1  2  1  0
  2  3  1  0
  3  4  1  0
  3  5  1  0
  5  6  2  0
  5 12  1  0
  6  7  1  0
  7  8  1  0
  7  9  2  0
  9 10  1  0
  9 11  1  0
 11 12  1  0
M  END
