
     RDKit          3D

 12 12  0  0  0  0  0  0  0  0999 V2000
   -3.7570    1.1790    0.1200 C   0  0  0  0  0  0  0  0  0  0  0  0
   -3.2930   -0.0440    0.3070 C   0  0  0  0  0  0  0  0  0  0  0  0
   -1.8720   -0.3280    0.1350 C   0  0  0  0  0  0  0  0  0  0  0  0
   -1.4230   -1.5490    0.3240 C   0  0  0  0  0  0  0  0  0  0  0  0
   -0.9890    0.7890   -0.2490 C   0  0  0  0  0  0  0  0  0  0  0  0
    0.3890    0.3670   -0.3840 N   0  0  0  0  0  0  0  0  0  0  0  0
    0.9720   -0.0910   -1.5100 C   0  0  0  0  0  0  0  0  0  0  0  0
    2.2880   -0.3850   -1.2170 C   0  0  0  0  0  0  0  0  0  0  0  0
    2.4930   -0.1030    0.0870 N   0  0  0  0  0  0  0  0  0  0  0  0
    3.7600   -0.2690    0.8160 C   0  0  0  0  0  0  0  0  0  0  0  0
    1.3350    0.3500    0.5730 C   0  0  0  0  0  0  0  0  0  0  0  0
    1.1660    0.7090    1.7670 O   0  0  0  0  0  0  0  0  0  0  0  0
  1  2  2  0
  2  3  1  0
  3  4  2  0
  3  5  1  0
  5  6  1  0
  6  7  1  0
  6 11  1  0
  7  8  2  0
  8  9  1  0
  9 10  1  0
  9 11  1  0
 11 12  2  0
M  END
