
     RDKit          3D

 12 12  0  0  0  0  0  0  0  0999 V2000
    0.8810   -2.5780    2.0600 C   0  0  0  0  0  0  0  0  0  0  0  0
    1.2710   -1.2310    1.8620 O   0  0  0  0  0  0  0  0  0  0  0  0
    0.5990   -0.5190    0.8810 C   0  0  0  0  0  0  0  0  0  0  0  0
    1.1360    0.6140    0.4580 C   0  0  0  0  0  0  0  0  0  0  0  0
    2.3760    1.0950    0.9970 C   0  0  0  0  0  0  0  0  0  0  0  0
    3.3810    1.4790    1.4120 N   0  0  0  0  0  0  0  0  0  0  0  0
    0.4990    1.3860   -0.5410 N   0  0  0  0  0  0  0  0  0  0  0  0
    1.0900    2.6500   -1.0190 C   0  0  0  0  0  0  0  0  0  0  0  0
   -0.7370    0.9990   -1.1410 C   0  0  0  0  0  0  0  0  0  0  0  0
   -1.2940   -0.2780   -0.6320 C   0  0  0  0  0  0  0  0  0  0  0  0
   -2.5680   -0.7620   -1.1910 C   0  0  0  0  0  0  0  0  0  0  0  0
   -0.6640   -0.9600    0.2980 C   0  0  0  0  0  0  0  0  0  0  0  0
  1  2  1  0
  2  3  1  0
  3  4  2  0
  3 12  1  0
  4  5  1  0
  4  7  1  0
  5  6  3  0
  7  8  1  0
  7  9  1  0
  9 10  1  0
 10 11  1  0
 10 12  2  0
M  END
