
     RDKit          3D

 12 12  0  0  0  0  0  0  0  0999 V2000
   -3.5890   -1.0210   -0.4570 C   0  0  0  0  0  0  0  0  0  0  0  0
   -2.6910   -0.1010   -0.1470 C   0  0  0  0  0  0  0  0  0  0  0  0
   -2.9610    1.1300    0.6150 C   0  0  0  0  0  0  0  0  0  0  0  0
   -1.6940    1.7700    0.6780 N   0  0  0  0  0  0  0  0  0  0  0  0
   -0.7720    1.1010    0.0810 C   0  0  0  0  0  0  0  0  0  0  0  0
    0.6290    1.5360   -0.0030 C   0  0  0  0  0  0  0  0  0  0  0  0
    1.5880    0.5570    0.6270 C   0  0  0  0  0  0  0  0  0  0  0  0
    1.5340   -0.8080   -0.0250 C   0  0  0  0  0  0  0  0  0  0  0  0
    2.5540   -1.6730    0.7210 C   0  0  0  0  0  0  0  0  0  0  0  0
    3.8760   -1.0420    0.5680 C   0  0  0  0  0  0  0  0  0  0  0  0
    4.9210   -0.5460    0.4300 N   0  0  0  0  0  0  0  0  0  0  0  0
   -1.3410   -0.0580   -0.4420 O   0  0  0  0  0  0  0  0  0  0  0  0
  1  2  2  0
  2  3  1  0
  2 12  1  0
  3  4  1  0
  4  5  2  0
  5  6  1  0
  5 12  1  0
  6  7  1  0
  7  8  1  0
  8  9  1  0
  9 10  1  0
 10 11  3  0
M  END
