
     RDKit          3D

 12 12  0  0  0  0  0  0  0  0999 V2000
   -2.2650   -2.0850    0.4750 C   0  0  0  0  0  0  0  0  0  0  0  0
   -1.1470   -1.8680   -0.3490 O   0  0  0  0  0  0  0  0  0  0  0  0
   -0.4250   -0.6680   -0.2880 C   0  0  0  0  0  0  0  0  0  0  0  0
    0.8160   -0.7810    0.1260 C   0  0  0  0  0  0  0  0  0  0  0  0
    1.3770   -2.1180    0.4950 C   0  0  0  0  0  0  0  0  0  0  0  0
    1.7220    0.3530    0.2550 C   0  0  0  0  0  0  0  0  0  0  0  0
    3.0780    0.2010    0.7110 C   0  0  0  0  0  0  0  0  0  0  0  0
    4.1560    0.0720    1.0920 N   0  0  0  0  0  0  0  0  0  0  0  0
    1.2140    1.5280   -0.0740 C   0  0  0  0  0  0  0  0  0  0  0  0
   -0.1080    1.7000   -0.5220 N   0  0  0  0  0  0  0  0  0  0  0  0
   -0.5580    3.0600   -0.8590 C   0  0  0  0  0  0  0  0  0  0  0  0
   -1.0200    0.6170   -0.6610 C   0  0  0  0  0  0  0  0  0  0  0  0
  1  2  1  0
  2  3  1  0
  3  4  2  0
  3 12  1  0
  4  5  1  0
  4  6  1  0
  6  7  1  0
  6  9  2  0
  7  8  3  0
  9 10  1  0
 10 11  1  0
 10 12  1  0
M  END
