
     RDKit          3D

 20 19  0  0  0  0  0  0  0  0999 V2000
    1.3320   -4.2150    0.6070 C   0  0  0  0  0  0  0  0  0  0  0  0
    1.1100   -2.8080    0.1720 C   0  0  0  0  0  0  0  0  0  0  0  0
    1.0150   -1.9080    1.2270 O   0  0  0  0  0  0  0  0  0  0  0  0
    0.7610   -0.2980    0.7330 P   0  0  0  0  0  0  0  0  0  0  0  0
    2.1830    0.3590   -0.0200 O   0  0  0  0  0  0  0  0  0  0  0  0
    2.9840    1.0330    0.8990 C   0  0  0  0  0  0  0  0  0  0  0  0
    4.1930    1.5690    0.1560 C   0  0  1  0  0  0  0  0  0  0  0  0
    4.9160    0.5160   -0.4240 O   0  0  0  0  0  0  0  0  0  0  0  0
    3.8160    2.4040   -0.8880 O   0  0  0  0  0  0  0  0  0  0  0  0
    4.5340    3.9580   -0.6770 P   0  0  0  0  0  0  0  0  0  0  0  0
   -0.6400   -0.0880   -0.4480 C   0  0  2  0  0  0  0  0  0  0  0  0
   -1.8410   -0.5380    0.0250 O   0  0  0  0  0  0  0  0  0  0  0  0
   -2.7460    0.5190    0.0500 C   0  0  0  0  0  0  0  0  0  0  0  0
   -4.1050    0.1010    0.5640 C   0  0  2  0  0  0  0  0  0  0  0  0
   -4.9800    1.3520    0.5330 C   0  0  0  0  0  0  0  0  0  0  0  0
   -3.9590   -0.4340    1.9580 C   0  0  0  0  0  0  0  0  0  0  0  0
   -0.3420   -0.8480   -1.6140 O   0  0  0  0  0  0  0  0  0  0  0  0
   -0.1920   -0.1540   -2.8030 C   0  0  0  0  0  0  0  0  0  0  0  0
   -0.3110    1.1040   -2.8720 O   0  0  0  0  0  0  0  0  0  0  0  0
    0.1000   -0.8200   -3.9820 O   0  0  0  0  0  0  0  0  0  0  0  0
  1  2  1  0
  2  3  1  0
  3  4  1  0
  4  5  1  0
  4 11  1  0
  5  6  1  0
  6  7  1  0
  7  8  1  6
  7  9  1  0
  9 10  1  0
 11 12  1  1
 11 17  1  0
 12 13  1  0
 13 14  1  0
 14 15  1  1
 14 16  1  0
 17 18  1  0
 18 19  2  0
 18 20  1  0
M  END
