
     RDKit          3D

 20 19  0  0  0  0  0  0  0  0999 V2000
   -2.3330    2.8470   -1.8350 C   0  0  0  0  0  0  0  0  0  0  0  0
   -1.7240    2.2000   -0.6090 C   0  0  0  0  0  0  0  0  0  0  0  0
   -1.9650    0.8320   -0.6710 O   0  0  0  0  0  0  0  0  0  0  0  0
   -1.3240   -0.0250    0.6670 P   0  0  0  0  0  0  0  0  0  0  0  0
   -2.5070   -0.7450    1.6640 O   0  0  0  0  0  0  0  0  0  0  0  0
   -3.4390    0.1600    2.1590 C   0  0  0  0  0  0  0  0  0  0  0  0
   -4.4700   -0.4750    3.0280 C   0  0  0  0  0  0  0  0  0  0  0  0
   -0.1950   -1.3570    0.0330 C   0  0  2  0  0  0  0  0  0  0  0  0
   -0.8660   -2.5940   -0.0590 O   0  0  0  0  0  0  0  0  0  0  0  0
   -0.7540   -3.1600   -1.3060 C   0  0  2  0  0  0  0  0  0  0  0  0
   -1.9790   -3.3900   -1.9160 O   0  0  0  0  0  0  0  0  0  0  0  0
   -0.0980   -4.3990   -1.1540 O   0  0  0  0  0  0  0  0  0  0  0  0
    1.1760   -1.6210    1.2830 P   0  0  0  0  0  0  0  0  0  0  0  0
    1.6610   -3.2620    1.3480 O   0  0  0  0  0  0  0  0  0  0  0  0
    2.4840   -0.5520    0.9090 O   0  0  0  0  0  0  0  0  0  0  0  0
    2.0400    0.6670    0.4150 C   0  0  0  0  0  0  0  0  0  0  0  0
    3.2120    1.5130    0.1240 C   0  0  0  0  0  0  0  0  0  0  0  0
    3.0470    2.6270   -0.3190 O   0  0  0  0  0  0  0  0  0  0  0  0
    4.5700    0.9950    0.3750 C   0  0  0  0  0  0  0  0  0  0  0  0
    5.5770    2.0300    0.0030 C   0  0  0  0  0  0  0  0  0  0  0  0
  1  2  1  0
  2  3  1  0
  3  4  1  0
  4  5  1  0
  4  8  1  0
  5  6  1  0
  6  7  1  0
  8  9  1  1
  8 13  1  0
  9 10  1  0
 10 11  1  1
 10 12  1  0
 13 14  1  0
 13 15  1  0
 15 16  1  0
 16 17  1  0
 17 18  2  0
 17 19  1  0
 19 20  1  0
M  END
