
     RDKit          3D

 20 19  0  0  0  0  0  0  0  0999 V2000
    5.5300   -1.9930    0.8100 C   0  0  0  0  0  0  0  0  0  0  0  0
    4.9100   -1.0660   -0.0710 O   0  0  0  0  0  0  0  0  0  0  0  0
    3.8990   -0.2240    0.3370 C   0  0  0  0  0  0  0  0  0  0  0  0
    3.5150   -0.2800    1.5280 O   0  0  0  0  0  0  0  0  0  0  0  0
    3.1020    0.9650   -0.7840 P   0  0  0  0  0  0  0  0  0  0  0  0
    3.9690    1.0860   -2.2900 O   0  0  0  0  0  0  0  0  0  0  0  0
    1.3840    0.4680   -1.1080 C   0  0  0  0  0  0  0  0  0  0  0  0
    0.9600   -0.0300   -2.1740 O   0  0  0  0  0  0  0  0  0  0  0  0
    0.4030    0.6240   -0.1410 O   0  0  0  0  0  0  0  0  0  0  0  0
   -0.9180    0.2760   -0.3010 C   0  0  2  0  0  0  0  0  0  0  0  0
   -1.7780    1.5210   -0.2500 C   0  0  0  0  0  0  0  0  0  0  0  0
   -1.3630    2.4680   -1.3670 C   0  0  0  0  0  0  0  0  0  0  0  0
   -2.1240    3.6330   -1.3670 O   0  0  0  0  0  0  0  0  0  0  0  0
   -2.2220    4.5400   -0.3570 C   0  0  0  0  0  0  0  0  0  0  0  0
   -3.3790    5.7160   -0.4020 P   0  0  0  0  0  0  0  0  0  0  0  0
   -1.4850   -0.7120    0.6590 C   0  0  0  0  0  0  0  0  0  0  0  0
   -0.7360   -2.0500    0.6040 C   0  0  0  0  0  0  0  0  0  0  0  0
   -1.2510   -2.9630    1.4850 O   0  0  0  0  0  0  0  0  0  0  0  0
   -2.5670   -3.2920    1.2990 C   0  0  0  0  0  0  0  0  0  0  0  0
   -2.8970   -4.2360    2.2990 O   0  0  0  0  0  0  0  0  0  0  0  0
  1  2  1  0
  2  3  1  0
  3  4  2  0
  3  5  1  0
  5  6  1  0
  5  7  1  0
  7  8  2  0
  7  9  1  0
  9 10  1  0
 10 11  1  1
 10 16  1  0
 11 12  1  0
 12 13  1  0
 13 14  1  0
 14 15  2  0
 16 17  1  0
 17 18  1  0
 18 19  1  0
 19 20  1  0
M  END
