
     RDKit          3D

 19 18  0  0  0  0  0  0  0  0999 V2000
    4.6420    2.3490    0.2200 C   0  0  0  0  0  0  0  0  0  0  0  0
    5.2350    1.1960   -0.2350 O   0  0  0  0  0  0  0  0  0  0  0  0
    4.3690    0.4220   -1.0530 C   0  0  0  0  0  0  0  0  0  0  0  0
    3.0240   -0.4090   -0.3130 P   0  0  0  0  0  0  0  0  0  0  0  0
    3.3050   -0.5970    1.9120 P   0  0  0  0  0  0  0  0  0  0  0  0
    1.3900   -0.1750   -0.6020 O   0  0  0  0  0  0  0  0  0  0  0  0
    0.8210   -1.1160   -1.4660 C   0  0  0  0  0  0  0  0  0  0  0  0
   -0.5770   -1.2540   -1.1900 C   0  0  1  0  0  0  0  0  0  0  0  0
   -1.1670   -2.2820   -1.9920 O   0  0  0  0  0  0  0  0  0  0  0  0
   -0.5360   -2.1520    0.2200 C   0  0  0  0  0  0  0  0  0  0  0  0
    0.2620   -3.1770   -0.0880 O   0  0  0  0  0  0  0  0  0  0  0  0
   -0.0590   -4.1110   -0.8480 O   0  0  0  0  0  0  0  0  0  0  0  0
   -1.6500   -0.3280   -0.9010 C   0  0  0  0  0  0  0  0  0  0  0  0
   -2.6670   -0.2110   -1.6040 O   0  0  0  0  0  0  0  0  0  0  0  0
   -1.5600    0.4950    0.2690 O   0  0  0  0  0  0  0  0  0  0  0  0
   -2.7710    1.2680    0.5350 C   0  0  1  0  0  0  0  0  0  0  0  0
   -3.7940    0.1530    0.9850 C   0  0  0  0  0  0  0  0  0  0  0  0
   -2.4260    1.9660    1.8640 C   0  0  0  0  0  0  0  0  0  0  0  0
   -3.3800    2.1020   -0.4300 C   0  0  0  0  0  0  0  0  0  0  0  0
  1  2  1  0
  2  3  1  0
  3  4  1  0
  4  5  1  0
  4  6  1  0
  6  7  1  0
  7  8  1  0
  8  9  1  6
  8 10  1  0
  8 13  1  0
 10 11  1  0
 11 12  1  0
 13 14  2  0
 13 15  1  0
 15 16  1  0
 16 17  1  1
 16 18  1  0
 16 19  1  0
M  END
