
     RDKit          3D

 20 19  0  0  0  0  0  0  0  0999 V2000
    2.8820   -2.8660    0.8360 C   0  0  0  0  0  0  0  0  0  0  0  0
    1.4370   -2.6440    0.2090 C   0  0  0  0  0  0  0  0  0  0  0  0
    1.8020   -2.3460   -1.1160 O   0  0  0  0  0  0  0  0  0  0  0  0
    1.4950   -0.6870   -1.6090 P   0  0  0  0  0  0  0  0  0  0  0  0
    0.2440    0.1980   -0.5600 C   0  0  0  0  0  0  0  0  0  0  0  0
   -0.9410   -0.4750   -0.6810 O   0  0  0  0  0  0  0  0  0  0  0  0
   -1.6800   -0.3200    0.5280 C   0  0  0  0  0  0  0  0  0  0  0  0
   -1.8320    1.1300    0.8800 C   0  0  0  0  0  0  0  0  0  0  0  0
   -2.6670    1.7890   -0.2260 C   0  0  0  0  0  0  0  0  0  0  0  0
   -3.9380    1.8550    0.3860 O   0  0  0  0  0  0  0  0  0  0  0  0
   -4.4690    0.2930    0.7350 S   0  0  0  0  0  0  0  0  0  0  0  0
   -5.9650   -0.1710   -0.0770 C   0  0  2  0  0  0  0  0  0  0  0  0
   -5.7250   -0.0750   -1.5930 C   0  0  0  0  0  0  0  0  0  0  0  0
   -7.0610    0.5020    0.3200 O   0  0  0  0  0  0  0  0  0  0  0  0
    2.7630    0.2500   -1.9770 O   0  0  0  0  0  0  0  0  0  0  0  0
    3.6070    0.8870   -1.2220 O   0  0  0  0  0  0  0  0  0  0  0  0
    3.5870    0.4060    0.0880 C   0  0  0  0  0  0  0  0  0  0  0  0
    5.0060    0.0270    0.4090 C   0  0  0  0  0  0  0  0  0  0  0  0
    5.8720    0.9180    0.5790 O   0  0  0  0  0  0  0  0  0  0  0  0
    6.3050    2.0740   -0.5520 P   0  0  0  0  0  0  0  0  0  0  0  0
  1  2  1  0
  2  3  1  0
  3  4  1  0
  4  5  1  0
  4 15  1  0
  5  6  1  0
  6  7  1  0
  7  8  1  0
  8  9  1  0
  9 10  1  0
 10 11  1  0
 11 12  1  0
 12 13  1  6
 12 14  1  0
 15 16  1  0
 16 17  1  0
 17 18  1  0
 18 19  1  0
 19 20  1  0
M  END
