
     RDKit          3D

 20 19  0  0  0  0  0  0  0  0999 V2000
    5.7470    0.9600    0.4830 C   0  0  0  0  0  0  0  0  0  0  0  0
    4.3590    0.5450    0.8770 C   0  0  0  0  0  0  0  0  0  0  0  0
    3.2010    0.5410   -0.5810 P   0  0  0  0  0  0  0  0  0  0  0  0
    2.7620    2.1390   -1.0410 O   0  0  0  0  0  0  0  0  0  0  0  0
    1.8050   -0.4430   -0.1590 O   0  0  0  0  0  0  0  0  0  0  0  0
    1.2530   -0.3600    1.1120 C   0  0  0  0  0  0  0  0  0  0  0  0
    1.7970    0.4370    1.9180 O   0  0  0  0  0  0  0  0  0  0  0  0
    0.0760   -1.1630    1.5280 C   0  0  1  0  0  0  0  0  0  0  0  0
   -0.2180   -0.8530    2.8280 O   0  0  0  0  0  0  0  0  0  0  0  0
   -1.0990   -0.9410    0.5810 C   0  0  1  0  0  0  0  0  0  0  0  0
   -2.1410   -1.9540    0.8810 C   0  0  0  0  0  0  0  0  0  0  0  0
   -3.3840   -1.9350    0.0800 C   0  0  0  0  0  0  0  0  0  0  0  0
   -3.2310   -2.1420   -1.3890 C   0  0  0  0  0  0  0  0  0  0  0  0
   -4.9270   -2.0820   -2.1990 P   0  0  0  0  0  0  0  0  0  0  0  0
   -5.9270   -0.9540   -1.9300 O   0  0  0  0  0  0  0  0  0  0  0  0
   -1.5330    0.3750    0.5700 O   0  0  0  0  0  0  0  0  0  0  0  0
   -1.3800    1.1930   -0.5300 C   0  0  0  0  0  0  0  0  0  0  0  0
   -0.8210    0.6780   -1.5260 O   0  0  0  0  0  0  0  0  0  0  0  0
   -1.8290    2.5270   -0.5260 O   0  0  0  0  0  0  0  0  0  0  0  0
   -1.6500    3.3170   -1.6720 C   0  0  0  0  0  0  0  0  0  0  0  0
  1  2  1  0
  2  3  1  0
  3  4  1  0
  3  5  1  0
  5  6  1  0
  6  7  2  0
  6  8  1  0
  8  9  1  1
  8 10  1  0
 10 11  1  1
 10 16  1  0
 11 12  1  0
 12 13  1  0
 13 14  1  0
 14 15  2  0
 16 17  1  0
 17 18  2  0
 17 19  1  0
 19 20  1  0
M  END
