
     RDKit          3D

 14 14  0  0  0  0  0  0  0  0999 V2000
    3.2520    1.2770   -0.0600 N   0  0  0  0  0  0  0  0  0  0  0  0
    2.9770    0.0300   -0.7460 C   0  0  0  0  0  0  0  0  0  0  0  0
    1.7420   -0.6050   -0.2350 C   0  0  0  0  0  0  0  0  0  0  0  0
    1.3570   -1.6920   -0.7180 O   0  0  0  0  0  0  0  0  0  0  0  0
    1.0430    0.0280    0.7720 O   0  0  0  0  0  0  0  0  0  0  0  0
   -0.0960   -0.4880    1.2940 O   0  0  0  0  0  0  0  0  0  0  0  0
   -1.3420   -0.3480    0.6030 C   0  0  0  0  0  0  0  0  0  0  0  0
   -1.7120    0.8660    0.2890 C   0  0  0  0  0  0  0  0  0  0  0  0
   -0.6250    2.1920    0.7570 Cl  0  0  0  0  0  0  0  0  0  0  0  0
   -2.9460    1.1980   -0.4130 C   0  0  0  0  0  0  0  0  0  0  0  0
   -3.3710    2.7070   -0.7850 S   0  0  0  0  0  0  0  0  0  0  0  0
   -3.9420   -0.3040   -0.8160 P   0  0  0  0  0  0  0  0  0  0  0  0
   -3.2550   -1.6460   -0.3170 N   0  0  0  0  0  0  0  0  0  0  0  0
   -2.0310   -1.6110    0.3450 C   0  0  0  0  0  0  0  0  0  0  0  0
  1  2  1  0
  2  3  1  0
  3  4  2  0
  3  5  1  0
  5  6  1  0
  6  7  1  0
  7  8  2  0
  7 14  1  0
  8  9  1  0
  8 10  1  0
 10 11  2  0
 10 12  1  0
 12 13  2  0
 13 14  1  0
M  END
