
     RDKit          3D

 20 19  0  0  0  0  0  0  0  0999 V2000
    2.2870   -3.7600    0.9630 C   0  0  0  0  0  0  0  0  0  0  0  0
    1.8850   -3.4680   -0.4840 C   0  0  2  0  0  0  0  0  0  0  0  0
    3.1350   -3.4890   -1.3490 C   0  0  0  0  0  0  0  0  0  0  0  0
    1.2930   -2.0600   -0.4880 C   0  0  0  0  0  0  0  0  0  0  0  0
    1.6220   -1.1950   -1.2540 O   0  0  0  0  0  0  0  0  0  0  0  0
    0.3210   -1.8450    0.5070 O   0  0  0  0  0  0  0  0  0  0  0  0
   -0.4150   -0.3790    0.8020 P   0  0  0  0  0  0  0  0  0  0  0  0
    0.5790    1.0910    1.1040 C   0  0  0  0  0  0  0  0  0  0  0  0
    1.1420    1.8690   -0.0400 C   0  0  0  0  0  0  0  0  0  0  0  0
    1.6820    3.0430    0.6540 O   0  0  0  0  0  0  0  0  0  0  0  0
    1.9900    4.1650   -0.0780 C   0  0  0  0  0  0  0  0  0  0  0  0
    1.8340    4.2340   -1.2670 O   0  0  0  0  0  0  0  0  0  0  0  0
    2.5300    5.2040    0.7280 O   0  0  0  0  0  0  0  0  0  0  0  0
    2.9760    6.7100   -0.0450 P   0  0  0  0  0  0  0  0  0  0  0  0
   -1.9980   -0.1290    1.1460 O   0  0  0  0  0  0  0  0  0  0  0  0
   -3.0100   -0.9850    0.8900 C   0  0  0  0  0  0  0  0  0  0  0  0
   -3.8140   -0.1720   -0.2420 C   0  0  2  0  0  0  0  0  0  0  0  0
   -4.1450    1.1420    0.3560 C   0  0  0  0  0  0  0  0  0  0  0  0
   -4.8640   -0.8950   -0.5820 O   0  0  0  0  0  0  0  0  0  0  0  0
   -4.8870   -2.1590   -0.1830 O   0  0  0  0  0  0  0  0  0  0  0  0
  2  1  1  1
  2  3  1  0
  2  4  1  0
  4  5  2  0
  4  6  1  0
  6  7  1  0
  7  8  1  0
  7 15  1  0
  8  9  1  0
  9 10  1  0
 10 11  1  0
 11 12  2  0
 11 13  1  0
 13 14  1  0
 15 16  1  0
 16 17  1  0
 17 18  1  1
 17 19  1  0
 19 20  1  0
M  END
