
     RDKit          3D

 20 19  0  0  0  0  0  0  0  0999 V2000
    6.2690    0.3390   -1.0940 C   0  0  0  0  0  0  0  0  0  0  0  0
    5.7170    1.6250   -1.2700 O   0  0  0  0  0  0  0  0  0  0  0  0
    4.7470    1.7460   -0.3800 O   0  0  0  0  0  0  0  0  0  0  0  0
    3.5740    1.4060   -0.8880 O   0  0  0  0  0  0  0  0  0  0  0  0
    2.7850    0.2010    0.0720 P   0  0  0  0  0  0  0  0  0  0  0  0
    3.4790    0.1260    1.6670 O   0  0  0  0  0  0  0  0  0  0  0  0
    2.9110   -1.4680   -0.6820 C   0  0  0  0  0  0  0  0  0  0  0  0
    2.1380   -2.4810    0.0690 C   0  0  0  0  0  0  0  0  0  0  0  0
    0.7760   -2.3590    0.1870 O   0  0  0  0  0  0  0  0  0  0  0  0
   -0.0530   -1.4750    0.7810 C   0  0  0  0  0  0  0  0  0  0  0  0
    0.4620   -0.5170    1.4000 O   0  0  0  0  0  0  0  0  0  0  0  0
   -1.5570   -1.6010    0.7240 C   0  0  0  0  0  0  0  0  0  0  0  0
   -2.1460   -1.1850   -0.5680 C   0  0  1  0  0  0  0  0  0  0  0  0
   -3.6540   -1.3980   -0.4500 C   0  0  0  0  0  0  0  0  0  0  0  0
   -1.7940    0.1160   -1.1430 C   0  0  0  0  0  0  0  0  0  0  0  0
   -2.0810    1.3740   -0.4630 C   0  0  2  0  0  0  0  0  0  0  0  0
   -1.5610    1.6270    0.7630 O   0  0  0  0  0  0  0  0  0  0  0  0
   -3.9120    1.7830   -0.3920 P   0  0  0  0  0  0  0  0  0  0  0  0
   -4.0540    3.6430   -0.4540 C   0  0  0  0  0  0  0  0  0  0  0  0
   -4.6190    1.2910    1.1090 O   0  0  0  0  0  0  0  0  0  0  0  0
  1  2  1  0
  2  3  1  0
  3  4  1  0
  4  5  1  0
  5  6  1  0
  5  7  1  0
  7  8  1  0
  8  9  1  0
  9 10  1  0
 10 11  2  0
 10 12  1  0
 12 13  1  0
 13 14  1  1
 13 15  1  0
 15 16  1  0
 16 17  1  1
 16 18  1  0
 18 19  1  0
 18 20  1  0
M  END
