
     RDKit          3D

 19 18  0  0  0  0  0  0  0  0999 V2000
   -0.7750    1.0670    1.4290 O   0  0  0  0  0  0  0  0  0  0  0  0
   -0.6560    0.2420    0.3940 C   0  0  0  0  0  0  0  0  0  0  0  0
   -1.8000   -0.5050    0.0270 C   0  0  0  0  0  0  0  0  0  0  0  0
   -1.9660   -1.3840   -0.8940 C   0  0  0  0  0  0  0  0  0  0  0  0
   -1.1050   -1.9040   -1.8330 O   0  0  0  0  0  0  0  0  0  0  0  0
   -3.0480   -0.2000    0.8850 C   0  0  0  0  0  0  0  0  0  0  0  0
   -4.1100   -0.9560    0.4720 O   0  0  0  0  0  0  0  0  0  0  0  0
   -5.1920   -0.6290    1.2860 C   0  0  0  0  0  0  0  0  0  0  0  0
   -5.4650    0.7230    1.1470 O   0  0  0  0  0  0  0  0  0  0  0  0
    0.7180    0.3010   -0.1590 C   0  0  1  0  0  0  0  0  0  0  0  0
    1.3400   -1.3530   -0.5660 P   0  0  0  0  0  0  0  0  0  0  0  0
    0.6670    1.1790   -1.4010 C   0  0  0  0  0  0  0  0  0  0  0  0
   -0.0170    0.6850   -2.4650 O   0  0  0  0  0  0  0  0  0  0  0  0
   -0.0420    1.7150   -3.8340 P   0  0  0  0  0  0  0  0  0  0  0  0
    1.4630    0.9860    0.8090 O   0  0  0  0  0  0  0  0  0  0  0  0
    2.7440    1.2750    0.6240 C   0  0  0  0  0  0  0  0  0  0  0  0
    3.7410    0.1690    0.5430 C   0  0  0  0  0  0  0  0  0  0  0  0
    3.7950   -0.6620    1.8120 C   0  0  0  0  0  0  0  0  0  0  0  0
    4.7330   -1.6740    1.6530 O   0  0  0  0  0  0  0  0  0  0  0  0
  1  2  2  0
  2  3  1  0
  2 10  1  0
  3  4  2  3
  3  6  1  0
  4  5  1  0
  6  7  1  0
  7  8  1  0
  8  9  1  0
 10 11  1  6
 10 12  1  0
 10 15  1  0
 12 13  1  0
 13 14  1  0
 15 16  1  0
 16 17  1  0
 17 18  1  0
 18 19  1  0
M  END
