
     RDKit          3D

 13 14  0  0  0  0  0  0  0  0999 V2000
   -2.4530    2.0100    1.0910 C   0  0  0  0  0  0  0  0  0  0  0  0
   -2.1480    0.8730    0.1720 C   0  0  0  0  0  0  0  0  0  0  0  0
   -2.9750    0.2680   -0.7540 C   0  0  0  0  0  0  0  0  0  0  0  0
   -2.3160   -0.7250   -1.3850 N   0  0  0  0  0  0  0  0  0  0  0  0
   -1.0670   -0.7910   -0.8940 C   0  0  0  0  0  0  0  0  0  0  0  0
   -0.0230   -1.6340   -1.2150 C   0  0  0  0  0  0  0  0  0  0  0  0
   -0.1140   -2.6260   -2.1750 O   0  0  0  0  0  0  0  0  0  0  0  0
    1.1720   -1.4650   -0.5310 C   0  0  0  0  0  0  0  0  0  0  0  0
    1.3160   -0.4900    0.4360 C   0  0  0  0  0  0  0  0  0  0  0  0
    2.5940   -0.3270    1.1510 C   0  0  0  0  0  0  0  0  0  0  0  0
    3.4000    0.6160    0.3990 N   0  0  0  0  0  0  0  0  0  0  0  0
    0.2500    0.3320    0.7280 C   0  0  0  0  0  0  0  0  0  0  0  0
   -0.9520    0.1920    0.0680 C   0  0  0  0  0  0  0  0  0  0  0  0
  1  2  1  0
  2  3  2  0
  2 13  1  0
  3  4  1  0
  4  5  1  0
  5  6  2  0
  5 13  1  0
  6  7  1  0
  6  8  1  0
  8  9  2  0
  9 10  1  0
  9 12  1  0
 10 11  1  0
 12 13  2  0
M  CHG  1  11   1
M  END
