
     RDKit          3D

 13 14  0  0  0  0  0  0  0  0999 V2000
   -3.1260   -1.2890    0.5780 N   0  0  0  0  0  0  0  0  0  0  0  0
   -1.7800   -1.0250    0.1820 C   0  0  0  0  0  0  0  0  0  0  0  0
   -0.9550   -2.0830   -0.1110 C   0  0  0  0  0  0  0  0  0  0  0  0
    0.3410   -1.8030   -0.4890 C   0  0  0  0  0  0  0  0  0  0  0  0
    0.7740   -0.4750   -0.5630 C   0  0  0  0  0  0  0  0  0  0  0  0
    2.1750   -0.2310   -0.9350 C   0  0  0  0  0  0  0  0  0  0  0  0
    3.0670    0.0190    0.2580 C   0  0  0  0  0  0  0  0  0  0  0  0
    2.6840    1.1120    1.0030 O   0  0  0  0  0  0  0  0  0  0  0  0
   -0.0630    0.5800   -0.2690 C   0  0  0  0  0  0  0  0  0  0  0  0
    0.0590    1.9550   -0.2600 C   0  0  0  0  0  0  0  0  0  0  0  0
   -1.1030    2.5280    0.1080 N   0  0  0  0  0  0  0  0  0  0  0  0
   -1.9590    1.5170    0.3310 C   0  0  0  0  0  0  0  0  0  0  0  0
   -1.3650    0.2950    0.1110 C   0  0  0  0  0  0  0  0  0  0  0  0
  1  2  1  0
  2  3  2  0
  2 13  1  0
  3  4  1  0
  4  5  2  0
  5  6  1  0
  5  9  1  0
  6  7  1  0
  7  8  1  0
  9 10  2  0
  9 13  1  0
 10 11  1  0
 11 12  1  0
 12 13  2  0
M  CHG  1   1   1
M  END
