
     RDKit          3D

 13 14  0  0  0  0  0  0  0  0999 V2000
    4.3340    1.1840    1.5460 O   0  0  0  0  0  0  0  0  0  0  0  0
    3.2040    0.5520    1.0310 C   0  0  0  0  0  0  0  0  0  0  0  0
    1.9950    1.2160    1.0160 C   0  0  0  0  0  0  0  0  0  0  0  0
    0.8280    0.6360    0.5140 C   0  0  0  0  0  0  0  0  0  0  0  0
    0.8630   -0.6340    0.0140 C   0  0  0  0  0  0  0  0  0  0  0  0
   -0.3020   -1.2770   -0.5130 N   0  0  0  0  0  0  0  0  0  0  0  0
   -1.5590   -0.6420   -0.5510 C   0  0  0  0  0  0  0  0  0  0  0  0
   -1.8550    0.3980   -1.3070 C   0  0  0  0  0  0  0  0  0  0  0  0
   -3.1930    0.7910   -1.1100 N   0  0  0  0  0  0  0  0  0  0  0  0
   -3.7380   -0.1010   -0.1470 C   0  0  0  0  0  0  0  0  0  0  0  0
   -2.7720   -0.9500    0.1850 C   0  0  0  0  0  0  0  0  0  0  0  0
    2.0580   -1.3160    0.0180 C   0  0  0  0  0  0  0  0  0  0  0  0
    3.2260   -0.7310    0.5230 C   0  0  0  0  0  0  0  0  0  0  0  0
  1  2  1  0
  2  3  2  0
  2 13  1  0
  3  4  1  0
  4  5  2  0
  5  6  1  0
  5 12  1  0
  6  7  1  0
  7  8  2  0
  7 11  1  0
  8  9  1  0
  9 10  1  0
 10 11  2  0
 12 13  2  0
M  CHG  1   9   1
M  END
