
     RDKit          3D

 24 28  0  0  0  0  0  0  0  0999 V2000
   -4.1000    1.8340   -1.2610 C   0  0  0  0  0  0  0  0  0  0  0  0
   -3.1800    0.9730   -0.8420 C   0  0  0  0  0  0  0  0  0  0  0  0
   -1.8430    0.7340   -1.4660 C   0  0  0  0  0  0  0  0  0  0  0  0
   -1.1410   -0.0390   -0.4110 C   0  0  2  0  0  0  0  0  0  0  0  0
   -2.2250   -0.9590    0.1520 C   0  0  0  0  0  0  0  0  0  0  0  0
   -3.3380    0.0790    0.3550 C   0  0  1  0  0  0  0  0  0  0  0  0
   -2.9880    0.7980    1.6390 C   0  0  0  0  0  0  0  0  0  0  0  0
   -1.5060    0.7960    1.9090 C   0  0  0  0  0  0  0  0  0  0  0  0
   -0.6690    0.8990    0.6730 C   0  0  1  0  0  0  0  0  0  0  0  0
    0.7270    0.4830    0.9100 C   0  0  1  0  0  0  0  0  0  0  0  0
    1.6980    1.5430    1.2530 C   0  0  0  0  0  0  0  0  0  0  0  0
    3.0910    1.3040    0.7300 C   0  0  0  0  0  0  0  0  0  0  0  0
    3.4480   -0.1290    0.5500 C   0  0  2  0  0  0  0  0  0  0  0  0
    4.4180   -0.2240   -0.4480 O   0  0  0  0  0  0  0  0  0  0  0  0
    2.3080   -1.0160    0.1520 C   0  0  1  0  0  0  0  0  0  0  0  0
    2.6870   -2.1430   -0.7480 C   0  0  0  0  0  0  0  0  0  0  0  0
    1.6670   -1.5250    1.4140 C   0  0  0  0  0  0  0  0  0  0  0  0
    1.8580   -2.6270    1.9910 O   0  0  0  0  0  0  0  0  0  0  0  0
    0.8000   -0.5570    1.8600 O   0  0  0  0  0  0  0  0  0  0  0  0
    1.2240   -0.1460   -0.4020 C   0  0  1  0  0  0  0  0  0  0  0  0
   -0.0030   -0.8810   -0.8340 C   0  0  2  0  0  0  0  0  0  0  0  0
    0.0020   -1.1560   -2.2850 C   0  0  0  0  0  0  0  0  0  0  0  0
    0.9610   -0.7860   -3.0330 O   0  0  0  0  0  0  0  0  0  0  0  0
   -1.0340   -1.8290   -2.9140 O   0  0  0  0  0  0  0  0  0  0  0  0
  1  2  2  0
  2  3  1  0
  2  6  1  0
  4  3  1  6
  4  5  1  0
  4  9  1  0
  4 21  1  0
  5  6  1  0
  6  7  1  1
  7  8  1  0
  9  8  1  1
  9 10  1  0
 10 11  1  1
 10 19  1  0
 10 20  1  0
 11 12  1  0
 12 13  1  0
 13 14  1  6
 13 15  1  0
 15 16  1  6
 15 17  1  0
 15 20  1  0
 17 18  2  0
 17 19  1  0
 20 21  1  1
 21 22  1  6
 22 23  2  0
 22 24  1  0
M  END
