
     RDKit          3D

 13 13  0  0  0  0  0  0  0  0999 V2000
   -4.1800    0.5820   -0.3590 C   0  0  0  0  0  0  0  0  0  0  0  0
   -3.0590    1.1680   -0.6540 C   0  0  0  0  0  0  0  0  0  0  0  0
   -1.7760    0.5860   -0.2800 C   0  0  0  0  0  0  0  0  0  0  0  0
   -0.6460    1.1940   -0.5880 C   0  0  0  0  0  0  0  0  0  0  0  0
    0.6910    0.6540   -0.2360 C   0  0  0  0  0  0  0  0  0  0  0  0
    1.7530    1.3150   -0.5740 C   0  0  0  0  0  0  0  0  0  0  0  0
    3.1790    1.1140   -0.4120 C   0  0  0  0  0  0  0  0  0  0  0  0
    3.6970   -0.0110    0.2400 N   0  0  0  0  0  0  0  0  0  0  0  0
    0.6480   -0.6040    0.4780 C   0  0  0  0  0  0  0  0  0  0  0  0
    1.8000   -1.2610    0.8900 O   0  0  0  0  0  0  0  0  0  0  0  0
   -0.4820   -1.2390    0.8010 C   0  0  0  0  0  0  0  0  0  0  0  0
   -0.4270   -2.4920    1.5150 N   0  0  0  0  0  0  0  0  0  0  0  0
   -1.7880   -0.6830    0.4410 C   0  0  0  0  0  0  0  0  0  0  0  0
  1  2  2  0
  2  3  1  0
  3  4  2  0
  3 13  1  0
  4  5  1  0
  5  6  2  3
  5  9  1  0
  6  7  1  0
  7  8  1  0
  9 10  1  0
  9 11  2  0
 11 12  1  0
 11 13  1  0
M  END
