
     RDKit          3D

 13 14  0  0  0  0  0  0  0  0999 V2000
   -2.8740    1.5120    0.3630 N   0  0  0  0  0  0  0  0  0  0  0  0
   -1.6780    0.7600    0.1920 C   0  0  0  0  0  0  0  0  0  0  0  0
   -0.4430    1.3280    0.4290 C   0  0  0  0  0  0  0  0  0  0  0  0
    0.7190    0.6070    0.2670 C   0  0  0  0  0  0  0  0  0  0  0  0
    1.9650    1.1230    0.4880 C   0  0  0  0  0  0  0  0  0  0  0  0
    3.1290    0.4020    0.3250 C   0  0  0  0  0  0  0  0  0  0  0  0
    4.3730    0.9770    0.5650 O   0  0  0  0  0  0  0  0  0  0  0  0
    2.9960   -0.9110   -0.0850 C   0  0  0  0  0  0  0  0  0  0  0  0
    1.7620   -1.4860   -0.3240 C   0  0  0  0  0  0  0  0  0  0  0  0
    0.6230   -0.7170   -0.1450 C   0  0  0  0  0  0  0  0  0  0  0  0
   -0.6210   -1.2920   -0.3850 C   0  0  0  0  0  0  0  0  0  0  0  0
   -1.7480   -0.5540   -0.2150 C   0  0  0  0  0  0  0  0  0  0  0  0
   -3.0410   -1.1050   -0.4500 N   0  0  0  0  0  0  0  0  0  0  0  0
  1  2  1  0
  2  3  2  0
  2 12  1  0
  3  4  1  0
  4  5  2  0
  4 10  1  0
  5  6  1  0
  6  7  1  0
  6  8  2  0
  8  9  1  0
  9 10  2  0
 10 11  1  0
 11 12  2  0
 12 13  1  0
M  CHG  1  13   1
M  END
