
     RDKit          3D

 13 14  0  0  0  0  0  0  0  0999 V2000
   -2.8400    2.7350    0.9540 N   0  0  0  0  0  0  0  0  0  0  0  0
   -2.2250    1.5190    0.5430 C   0  0  0  0  0  0  0  0  0  0  0  0
   -2.8900    0.3460    0.2620 C   0  0  0  0  0  0  0  0  0  0  0  0
   -1.9410   -0.5910   -0.0970 C   0  0  0  0  0  0  0  0  0  0  0  0
   -1.9650   -1.9120   -0.4800 C   0  0  0  0  0  0  0  0  0  0  0  0
   -0.7740   -2.5390   -0.7720 C   0  0  0  0  0  0  0  0  0  0  0  0
    0.3710   -1.9100   -0.6930 O   0  0  0  0  0  0  0  0  0  0  0  0
    0.5240   -0.6740   -0.3470 C   0  0  0  0  0  0  0  0  0  0  0  0
    1.8120   -0.0040   -0.2700 C   0  0  0  0  0  0  0  0  0  0  0  0
    2.9250   -0.6550   -0.5610 C   0  0  0  0  0  0  0  0  0  0  0  0
    4.1920   -0.0150   -0.4910 N   0  0  0  0  0  0  0  0  0  0  0  0
   -0.6180    0.0430   -0.0340 C   0  0  0  0  0  0  0  0  0  0  0  0
   -0.8670    1.3430    0.3680 C   0  0  0  0  0  0  0  0  0  0  0  0
  1  2  1  0
  2  3  1  0
  2 13  2  0
  3  4  2  0
  4  5  1  0
  4 12  1  0
  5  6  2  0
  6  7  1  0
  7  8  1  0
  8  9  1  0
  8 12  2  0
  9 10  2  3
 10 11  1  0
 12 13  1  0
M  CHG  1  11   1
M  END
