
     RDKit          3D

 13 13  0  0  0  0  0  0  0  0999 V2000
    3.8980    0.3180    0.7580 C   0  0  0  0  0  0  0  0  0  0  0  0
    2.7000    0.2290    0.0510 O   0  0  0  0  0  0  0  0  0  0  0  0
    1.7110    0.7770    0.8340 C   0  0  0  0  0  0  0  0  0  0  0  0
    0.3650    0.7770    0.2590 C   0  0  0  0  0  0  0  0  0  0  0  0
   -0.2200    1.9830    0.0770 C   0  0  0  0  0  0  0  0  0  0  0  0
   -1.5070    2.3610   -0.4530 C   0  0  0  0  0  0  0  0  0  0  0  0
   -2.4230    1.5890   -0.9860 C   0  0  0  0  0  0  0  0  0  0  0  0
   -2.5380    0.1430   -1.2540 C   0  0  0  0  0  0  0  0  0  0  0  0
   -1.6860   -0.6850   -0.3830 C   0  0  0  0  0  0  0  0  0  0  0  0
   -2.2560   -1.6800    0.1550 N   0  0  0  0  0  0  0  0  0  0  0  0
   -0.2530   -0.5050   -0.0510 C   0  0  0  0  0  0  0  0  0  0  0  0
    0.4980   -1.5560   -0.0150 C   0  0  0  0  0  0  0  0  0  0  0  0
   -0.0360   -2.8450   -0.3140 N   0  0  0  0  0  0  0  0  0  0  0  0
  1  2  1  0
  2  3  1  0
  3  4  1  0
  4  5  2  0
  4 11  1  0
  5  6  1  0
  6  7  2  0
  7  8  1  0
  8  9  1  0
  9 10  2  0
  9 11  1  0
 11 12  2  3
 12 13  1  0
M  CHG  1  10   1
M  END
