
     RDKit          3D

 23 25  0  0  0  0  0  0  0  0999 V2000
   -2.2380    2.1990    1.4280 C   0  0  0  0  0  0  0  0  0  0  0  0
   -2.6290    1.9350   -0.0340 C   0  0  0  0  0  0  0  0  0  0  0  0
   -2.5640    0.4950   -0.3330 C   0  0  0  0  0  0  0  0  0  0  0  0
   -1.4540   -0.2740   -0.5480 C   0  0  0  0  0  0  0  0  0  0  0  0
   -0.0600    0.1050   -0.5740 C   0  0  0  0  0  0  0  0  0  0  0  0
    0.3610    1.1500   -1.3650 C   0  0  0  0  0  0  0  0  0  0  0  0
    1.6980    1.4800   -1.3490 C   0  0  0  0  0  0  0  0  0  0  0  0
    2.5990    0.7870   -0.5670 C   0  0  0  0  0  0  0  0  0  0  0  0
    2.2050   -0.2670    0.2370 C   0  0  0  0  0  0  0  0  0  0  0  0
    3.0980   -0.9780    1.0320 O   0  0  0  0  0  0  0  0  0  0  0  0
    4.4430   -0.6780    1.0520 C   0  0  0  0  0  0  0  0  0  0  0  0
    4.9480    0.1290    1.9950 N   0  0  0  0  0  0  0  0  0  0  0  0
    6.2770    0.4300    2.0220 C   0  0  0  0  0  0  0  0  0  0  0  0
    7.0530   -0.1080    1.0750 N   0  0  0  0  0  0  0  0  0  0  0  0
    6.5610   -0.9180    0.1250 C   0  0  0  0  0  0  0  0  0  0  0  0
    7.3130   -1.3990   -0.7370 O   0  0  0  0  0  0  0  0  0  0  0  0
    5.2410   -1.2050    0.1150 N   0  0  0  0  0  0  0  0  0  0  0  0
    0.8730   -0.5920    0.2180 C   0  0  0  0  0  0  0  0  0  0  0  0
   -1.9350   -1.5460   -0.7630 C   0  0  0  0  0  0  0  0  0  0  0  0
   -3.3120   -1.5450   -0.6800 C   0  0  0  0  0  0  0  0  0  0  0  0
   -4.1870   -2.7480   -0.8590 C   0  0  0  0  0  0  0  0  0  0  0  0
   -3.6760   -0.2850   -0.4160 N   0  0  0  0  0  0  0  0  0  0  0  0
   -5.0620    0.1640   -0.2450 C   0  0  0  0  0  0  0  0  0  0  0  0
  1  2  1  0
  2  3  1  0
  3  4  2  0
  3 22  1  0
  4  5  1  0
  4 19  1  0
  5  6  2  0
  5 18  1  0
  6  7  1  0
  7  8  2  0
  8  9  1  0
  9 10  1  0
  9 18  2  0
 10 11  1  0
 11 12  2  0
 11 17  1  0
 12 13  1  0
 13 14  2  0
 14 15  1  0
 15 16  2  0
 15 17  1  0
 19 20  2  0
 20 21  1  0
 20 22  1  0
 22 23  1  0
M  END
