
     RDKit          3D

 23 25  0  0  0  0  0  0  0  0999 V2000
    6.5300   -0.8670   -2.0350 C   0  0  0  0  0  0  0  0  0  0  0  0
    5.8140   -1.0800   -0.7240 C   0  0  0  0  0  0  0  0  0  0  0  0
    4.5440   -0.3170   -0.6510 C   0  0  0  0  0  0  0  0  0  0  0  0
    3.7150   -0.2840    0.4410 C   0  0  0  0  0  0  0  0  0  0  0  0
    2.6480    0.5110    0.1650 C   0  0  0  0  0  0  0  0  0  0  0  0
    1.5130    0.8430    1.0620 C   0  0  0  0  0  0  0  0  0  0  0  0
    0.3070    0.2800    0.6290 O   0  0  0  0  0  0  0  0  0  0  0  0
   -0.8760    0.4800    1.3450 C   0  0  0  0  0  0  0  0  0  0  0  0
   -0.9850    1.2050    2.5040 C   0  0  0  0  0  0  0  0  0  0  0  0
   -2.2530    1.1990    2.9250 N   0  0  0  0  0  0  0  0  0  0  0  0
   -2.7940    1.8430    4.1180 C   0  0  0  0  0  0  0  0  0  0  0  0
   -2.9280    0.4780    2.0390 N   0  0  0  0  0  0  0  0  0  0  0  0
   -2.1400    0.0170    1.0590 C   0  0  0  0  0  0  0  0  0  0  0  0
   -2.4980   -0.7860   -0.1060 C   0  0  0  0  0  0  0  0  0  0  0  0
   -1.9910   -2.0470   -0.3230 C   0  0  0  0  0  0  0  0  0  0  0  0
   -2.3410   -2.8320   -1.4070 C   0  0  0  0  0  0  0  0  0  0  0  0
   -3.2460   -2.3050   -2.3050 C   0  0  0  0  0  0  0  0  0  0  0  0
   -3.7780   -1.0350   -2.1180 C   0  0  0  0  0  0  0  0  0  0  0  0
   -3.4200   -0.2700   -1.0380 C   0  0  0  0  0  0  0  0  0  0  0  0
   -3.9110    0.9930   -0.8010 O   0  0  0  0  0  0  0  0  0  0  0  0
   -4.8170    1.7180   -1.5630 C   0  0  0  0  0  0  0  0  0  0  0  0
    2.8280    0.9640   -1.0970 N   0  0  0  0  0  0  0  0  0  0  0  0
    3.9490    0.4710   -1.5740 N   0  0  0  0  0  0  0  0  0  0  0  0
  1  2  1  0
  2  3  1  0
  3  4  1  0
  3 23  2  0
  4  5  2  0
  5  6  1  0
  5 22  1  0
  6  7  1  0
  7  8  1  0
  8  9  2  0
  8 13  1  0
  9 10  1  0
 10 11  1  0
 10 12  1  0
 12 13  2  0
 13 14  1  0
 14 15  2  0
 14 19  1  0
 15 16  1  0
 16 17  2  0
 17 18  1  0
 18 19  2  0
 19 20  1  0
 20 21  1  0
 22 23  1  0
M  END
