
     RDKit          3D

 23 25  0  0  0  0  0  0  0  0999 V2000
    4.9820   -2.4800    0.0390 C   0  0  0  0  0  0  0  0  0  0  0  0
    4.1670   -1.4210   -0.5610 N   0  0  0  0  0  0  0  0  0  0  0  0
    2.8820   -1.1040   -0.0290 C   0  0  0  0  0  0  0  0  0  0  0  0
    2.5000   -1.8460    1.0360 N   0  0  0  0  0  0  0  0  0  0  0  0
    1.3110   -1.6030    1.5800 C   0  0  0  0  0  0  0  0  0  0  0  0
    0.4860   -0.6410    1.0960 C   0  0  0  0  0  0  0  0  0  0  0  0
    0.8230    0.1450    0.0070 C   0  0  0  0  0  0  0  0  0  0  0  0
   -0.0010    1.1260   -0.4200 C   0  0  0  0  0  0  0  0  0  0  0  0
   -1.3730    1.3630   -0.0980 C   0  0  0  0  0  0  0  0  0  0  0  0
   -2.3640    0.5960    0.2030 C   0  0  0  0  0  0  0  0  0  0  0  0
   -2.5100   -0.7920    0.3310 N   0  0  0  0  0  0  0  0  0  0  0  0
   -2.1730   -1.7410   -0.5700 C   0  0  0  0  0  0  0  0  0  0  0  0
   -2.4870   -2.9960   -0.0940 C   0  0  0  0  0  0  0  0  0  0  0  0
   -3.0390   -2.8010    1.1480 C   0  0  0  0  0  0  0  0  0  0  0  0
   -3.0370   -1.4540    1.3740 C   0  0  0  0  0  0  0  0  0  0  0  0
   -1.7230    2.8450   -0.0990 C   0  0  0  0  0  0  0  0  0  0  0  0
   -0.8140    3.6410   -0.3820 O   0  0  0  0  0  0  0  0  0  0  0  0
   -3.0110    3.2590    0.2060 O   0  0  0  0  0  0  0  0  0  0  0  0
   -3.2390    4.6660    0.1780 C   0  0  0  0  0  0  0  0  0  0  0  0
    0.4830    1.8840   -1.4640 N   0  0  0  0  0  0  0  0  0  0  0  0
    1.6740    1.6740   -2.0290 C   0  0  0  0  0  0  0  0  0  0  0  0
    2.5150    0.6680   -1.6010 C   0  0  0  0  0  0  0  0  0  0  0  0
    2.0840   -0.1160   -0.5600 C   0  0  0  0  0  0  0  0  0  0  0  0
  1  2  1  0
  2  3  1  0
  3  4  2  0
  3 23  1  0
  4  5  1  0
  5  6  2  0
  6  7  1  0
  7  8  2  0
  7 23  1  0
  8  9  1  0
  8 20  1  0
  9 10  2  3
  9 16  1  0
 10 11  1  0
 11 12  1  0
 11 15  1  0
 12 13  2  0
 13 14  1  0
 14 15  2  0
 16 17  2  0
 16 18  1  0
 18 19  1  0
 20 21  2  0
 21 22  1  0
 22 23  2  0
M  END
