
     RDKit          3D

 23 25  0  0  0  0  0  0  0  0999 V2000
   -4.1050   -3.3900    0.5170 C   0  0  0  0  0  0  0  0  0  0  0  0
   -3.3490   -2.0930    0.7610 C   0  0  0  0  0  0  0  0  0  0  0  0
   -2.8650   -1.5790   -0.4680 O   0  0  0  0  0  0  0  0  0  0  0  0
   -2.1470   -0.3960   -0.4520 C   0  0  0  0  0  0  0  0  0  0  0  0
   -2.7610    0.8320   -0.5810 C   0  0  0  0  0  0  0  0  0  0  0  0
   -4.2460    0.9130   -0.7440 C   0  0  0  0  0  0  0  0  0  0  0  0
   -1.9790    1.9770   -0.5560 C   0  0  0  0  0  0  0  0  0  0  0  0
   -0.6110    1.9290   -0.4070 C   0  0  0  0  0  0  0  0  0  0  0  0
    0.2230    3.1220   -0.3790 C   0  0  0  0  0  0  0  0  0  0  0  0
   -0.1940    4.3960   -0.4890 N   0  0  0  0  0  0  0  0  0  0  0  0
    0.8620    5.2280   -0.4190 C   0  0  0  0  0  0  0  0  0  0  0  0
    1.9360    4.4390   -0.2630 N   0  0  0  0  0  0  0  0  0  0  0  0
    1.5200    3.2100   -0.2450 O   0  0  0  0  0  0  0  0  0  0  0  0
   -0.0330    0.6830   -0.2810 C   0  0  0  0  0  0  0  0  0  0  0  0
    1.3060    0.6230   -0.1340 N   0  0  0  0  0  0  0  0  0  0  0  0
    1.9630   -0.5430   -0.0040 C   0  0  0  0  0  0  0  0  0  0  0  0
    3.4520   -0.5800    0.1580 C   0  0  0  0  0  0  0  0  0  0  0  0
    3.9200    0.7870    0.1380 N   0  0  0  0  0  0  0  0  0  0  0  0
    5.3450    0.8930    0.2850 C   0  0  0  0  0  0  0  0  0  0  0  0
    1.2380   -1.7220   -0.0210 C   0  0  0  0  0  0  0  0  0  0  0  0
    1.9590   -3.0220    0.1230 C   0  0  0  0  0  0  0  0  0  0  0  0
   -0.1300   -1.6900   -0.1690 C   0  0  0  0  0  0  0  0  0  0  0  0
   -0.7740   -0.4800   -0.3000 C   0  0  0  0  0  0  0  0  0  0  0  0
  1  2  1  0
  2  3  1  0
  3  4  1  0
  4  5  2  0
  4 23  1  0
  5  6  1  0
  5  7  1  0
  7  8  2  0
  8  9  1  0
  8 14  1  0
  9 10  2  0
  9 13  1  0
 10 11  1  0
 11 12  2  0
 12 13  1  0
 14 15  2  0
 14 23  1  0
 15 16  1  0
 16 17  1  0
 16 20  2  0
 17 18  1  0
 18 19  1  0
 20 21  1  0
 20 22  1  0
 22 23  2  0
M  END
