
     RDKit          3D

 23 25  0  0  0  0  0  0  0  0999 V2000
    5.5770   -0.7950   -0.6250 C   0  0  0  0  0  0  0  0  0  0  0  0
    4.8500   -2.0840   -0.3710 C   0  0  0  0  0  0  0  0  0  0  0  0
    4.0990   -2.0940    0.9390 C   0  0  0  0  0  0  0  0  0  0  0  0
    3.0610   -0.9960    1.0080 C   0  0  0  0  0  0  0  0  0  0  0  0
    2.0600   -1.1630   -0.1060 C   0  0  0  0  0  0  0  0  0  0  0  0
    1.0540   -0.1260   -0.0740 N   0  0  0  0  0  0  0  0  0  0  0  0
   -0.0740   -0.2600    0.5660 N   0  0  0  0  0  0  0  0  0  0  0  0
   -1.0660    0.6860    0.6160 C   0  0  0  0  0  0  0  0  0  0  0  0
   -2.2170    0.3880    1.3450 O   0  0  0  0  0  0  0  0  0  0  0  0
   -3.3290   -0.2390    0.7930 C   0  0  0  0  0  0  0  0  0  0  0  0
   -3.1620   -1.5650    0.3240 C   0  0  0  0  0  0  0  0  0  0  0  0
   -4.2090   -2.2450   -0.2250 C   0  0  0  0  0  0  0  0  0  0  0  0
   -5.4240   -1.6260   -0.3160 C   0  0  0  0  0  0  0  0  0  0  0  0
   -5.6030   -0.3350    0.1360 C   0  0  0  0  0  0  0  0  0  0  0  0
   -4.5350    0.3720    0.7020 C   0  0  0  0  0  0  0  0  0  0  0  0
   -0.8600    1.8480   -0.0470 C   0  0  0  0  0  0  0  0  0  0  0  0
   -1.5940    3.0040   -0.1960 C   0  0  0  0  0  0  0  0  0  0  0  0
   -2.9170    3.3160    0.3870 C   0  0  0  0  0  0  0  0  0  0  0  0
   -0.8490    3.8290   -0.9600 N   0  0  0  0  0  0  0  0  0  0  0  0
    0.2850    3.2450   -1.2780 N   0  0  0  0  0  0  0  0  0  0  0  0
    0.3420    2.0070   -0.7370 C   0  0  0  0  0  0  0  0  0  0  0  0
    1.2950    1.0100   -0.7440 C   0  0  0  0  0  0  0  0  0  0  0  0
    2.3900    1.1740   -1.3820 O   0  0  0  0  0  0  0  0  0  0  0  0
  1  2  1  0
  2  3  1  0
  3  4  1  0
  4  5  1  0
  5  6  1  0
  6  7  1  0
  6 22  1  0
  7  8  2  0
  8  9  1  0
  8 16  1  0
  9 10  1  0
 10 11  2  0
 10 15  1  0
 11 12  1  0
 12 13  2  0
 13 14  1  0
 14 15  2  0
 16 17  2  0
 16 21  1  0
 17 18  1  0
 17 19  1  0
 19 20  1  0
 20 21  2  0
 21 22  1  0
 22 23  2  0
M  END
