
     RDKit          3D

 23 25  0  0  0  0  0  0  0  0999 V2000
    6.1370   -0.3650    2.5940 C   0  0  0  0  0  0  0  0  0  0  0  0
    5.2140   -0.0510    1.4460 C   0  0  0  0  0  0  0  0  0  0  0  0
    5.1210    1.1860    0.8600 C   0  0  0  0  0  0  0  0  0  0  0  0
    4.1750    1.0410   -0.1340 C   0  0  0  0  0  0  0  0  0  0  0  0
    3.7220   -0.2590   -0.1300 C   0  0  0  0  0  0  0  0  0  0  0  0
    2.7080   -0.9050   -1.0040 C   0  0  2  0  0  0  0  0  0  0  0  0
    3.3630   -1.2170   -2.3160 C   0  0  0  0  0  0  0  0  0  0  0  0
    1.5540   -0.0810   -1.0960 N   0  0  0  0  0  0  0  0  0  0  0  0
    1.4900    1.2210   -1.7090 C   0  0  0  0  0  0  0  0  0  0  0  0
    0.3210   -0.5760   -0.5440 C   0  0  0  0  0  0  0  0  0  0  0  0
    0.2740   -1.7260    0.0130 O   0  0  0  0  0  0  0  0  0  0  0  0
   -0.9490    0.1900   -0.5810 C   0  0  0  0  0  0  0  0  0  0  0  0
   -2.0250   -0.5530    0.0560 N   0  0  0  0  0  0  0  0  0  0  0  0
   -3.3320   -0.0350    0.1480 C   0  0  0  0  0  0  0  0  0  0  0  0
   -3.6950    1.1990   -0.3490 C   0  0  0  0  0  0  0  0  0  0  0  0
   -4.9930    1.6700   -0.2370 C   0  0  0  0  0  0  0  0  0  0  0  0
   -5.9660    0.8850    0.3930 C   0  0  0  0  0  0  0  0  0  0  0  0
   -7.2620    1.0540    0.6490 N   0  0  0  0  0  0  0  0  0  0  0  0
   -7.7370   -0.0270    1.2910 C   0  0  0  0  0  0  0  0  0  0  0  0
   -6.6840   -0.8770    1.4240 C   0  0  0  0  0  0  0  0  0  0  0  0
   -5.6050   -0.3040    0.8680 N   0  0  0  0  0  0  0  0  0  0  0  0
   -4.3260   -0.7690    0.7580 C   0  0  0  0  0  0  0  0  0  0  0  0
    4.3920   -0.8520    0.8450 O   0  0  0  0  0  0  0  0  0  0  0  0
  1  2  1  0
  2  3  2  0
  2 23  1  0
  3  4  1  0
  4  5  2  0
  5  6  1  0
  5 23  1  0
  6  7  1  6
  6  8  1  0
  8  9  1  0
  8 10  1  0
 10 11  2  0
 10 12  1  0
 12 13  1  0
 13 14  1  0
 14 15  1  0
 14 22  2  0
 15 16  2  0
 16 17  1  0
 17 18  2  0
 17 21  1  0
 18 19  1  0
 19 20  2  0
 20 21  1  0
 21 22  1  0
M  END
