
     RDKit          3D

 22 24  0  0  0  0  0  0  0  0999 V2000
   -4.2170   -2.1330    0.2280 C   0  0  0  0  0  0  0  0  0  0  0  0
   -2.8020   -1.7000    0.1820 C   0  0  0  0  0  0  0  0  0  0  0  0
   -1.8460   -2.6670    0.4580 C   0  0  0  0  0  0  0  0  0  0  0  0
   -0.4760   -2.3730    0.4420 C   0  0  0  0  0  0  0  0  0  0  0  0
    0.4640   -3.3550    0.7210 O   0  0  0  0  0  0  0  0  0  0  0  0
   -0.0860   -1.0830    0.1430 C   0  0  0  0  0  0  0  0  0  0  0  0
    1.2660   -0.7770    0.1230 O   0  0  0  0  0  0  0  0  0  0  0  0
    1.7630    0.5040   -0.1700 C   0  0  0  0  0  0  0  0  0  0  0  0
    3.2640    0.4800   -0.1030 C   0  0  0  0  0  0  0  0  0  0  0  0
    3.9100   -0.6930    0.2100 C   0  0  0  0  0  0  0  0  0  0  0  0
    5.2850   -0.6880    0.2650 C   0  0  0  0  0  0  0  0  0  0  0  0
    5.9390    0.4570    0.0130 N   0  0  0  0  0  0  0  0  0  0  0  0
    5.3320    1.5950   -0.2890 C   0  0  0  0  0  0  0  0  0  0  0  0
    5.7990    2.8680   -0.5810 C   0  0  0  0  0  0  0  0  0  0  0  0
    4.6920    3.5980   -0.8040 N   0  0  0  0  0  0  0  0  0  0  0  0
    3.6150    2.8290   -0.6610 N   0  0  0  0  0  0  0  0  0  0  0  0
    3.9890    1.5850   -0.3420 N   0  0  0  0  0  0  0  0  0  0  0  0
   -1.0340   -0.1220   -0.1310 C   0  0  0  0  0  0  0  0  0  0  0  0
   -2.3990   -0.4160   -0.1150 C   0  0  0  0  0  0  0  0  0  0  0  0
   -3.4200    0.6140   -0.4060 C   0  0  2  0  0  0  0  0  0  0  0  0
   -2.7970    1.9440   -0.7710 C   0  0  0  0  0  0  0  0  0  0  0  0
   -4.2930    0.7490    0.8350 C   0  0  0  0  0  0  0  0  0  0  0  0
  1  2  1  0
  2  3  2  0
  2 19  1  0
  3  4  1  0
  4  5  1  0
  4  6  2  0
  6  7  1  0
  6 18  1  0
  7  8  1  0
  8  9  1  0
  9 10  2  0
  9 17  1  0
 10 11  1  0
 11 12  2  0
 12 13  1  0
 13 14  2  0
 13 17  1  0
 14 15  1  0
 15 16  2  0
 16 17  1  0
 18 19  2  0
 19 20  1  0
 20 21  1  1
 20 22  1  0
M  END
