
     RDKit          3D

 23 25  0  0  0  0  0  0  0  0999 V2000
   -0.0110   -3.4760    0.3290 C   0  0  0  0  0  0  0  0  0  0  0  0
   -0.4610   -2.0740    0.1960 C   0  0  0  0  0  0  0  0  0  0  0  0
   -1.7880   -1.7280    0.2480 C   0  0  0  0  0  0  0  0  0  0  0  0
   -2.2060   -0.4000    0.1210 C   0  0  0  0  0  0  0  0  0  0  0  0
   -3.5790   -0.0350    0.1740 N   0  0  0  0  0  0  0  0  0  0  0  0
   -3.9360    1.3430    0.0360 C   0  0  0  0  0  0  0  0  0  0  0  0
   -5.2960    1.5430   -0.5840 C   0  0  0  0  0  0  0  0  0  0  0  0
   -6.3730    0.7240    0.0350 C   0  0  0  0  0  0  0  0  0  0  0  0
   -5.9100   -0.4620    0.8070 C   0  0  0  0  0  0  0  0  0  0  0  0
   -4.5970   -1.0260    0.3620 C   0  0  0  0  0  0  0  0  0  0  0  0
   -1.2220    0.5000   -0.0520 N   0  0  0  0  0  0  0  0  0  0  0  0
    0.0770    0.1600   -0.1030 C   0  0  0  0  0  0  0  0  0  0  0  0
    1.0780    1.2040   -0.2940 C   0  0  0  0  0  0  0  0  0  0  0  0
    0.7390    2.4080   -0.4120 O   0  0  0  0  0  0  0  0  0  0  0  0
    2.4580    0.8660   -0.3510 N   0  0  0  0  0  0  0  0  0  0  0  0
    3.4120    1.9210   -0.5400 C   0  0  0  0  0  0  0  0  0  0  0  0
    4.8060    1.3720   -0.5730 C   0  0  0  0  0  0  0  0  0  0  0  0
    5.9220    2.1500   -0.7420 C   0  0  0  0  0  0  0  0  0  0  0  0
    7.0270    1.3280   -0.7220 C   0  0  0  0  0  0  0  0  0  0  0  0
    6.5150    0.0490   -0.5360 C   0  0  0  0  0  0  0  0  0  0  0  0
    7.3590   -1.1680   -0.4510 C   0  0  0  0  0  0  0  0  0  0  0  0
    5.2000    0.1350   -0.4540 O   0  0  0  0  0  0  0  0  0  0  0  0
    0.4590   -1.1180    0.0200 N   0  0  0  0  0  0  0  0  0  0  0  0
  1  2  1  0
  2  3  2  0
  2 23  1  0
  3  4  1  0
  4  5  1  0
  4 11  2  0
  5  6  1  0
  5 10  1  0
  6  7  1  0
  7  8  1  0
  8  9  1  0
  9 10  1  0
 11 12  1  0
 12 13  1  0
 12 23  2  0
 13 14  2  0
 13 15  1  0
 15 16  1  0
 16 17  1  0
 17 18  2  0
 17 22  1  0
 18 19  1  0
 19 20  2  0
 20 21  1  0
 20 22  1  0
M  END
