
     RDKit          3D

 23 25  0  0  0  0  0  0  0  0999 V2000
    5.1620   -2.4620    1.2600 C   0  0  0  0  0  0  0  0  0  0  0  0
    3.8150   -2.2190    0.7150 C   0  0  0  0  0  0  0  0  0  0  0  0
    3.3370   -1.0770    0.3140 C   0  0  0  0  0  0  0  0  0  0  0  0
    1.9700   -1.1120   -0.1830 N   0  0  0  0  0  0  0  0  0  0  0  0
    0.9170   -0.4150    0.4640 C   0  0  0  0  0  0  0  0  0  0  0  0
    1.1360    0.2500    1.4930 O   0  0  0  0  0  0  0  0  0  0  0  0
   -0.4390   -0.5090   -0.1250 C   0  0  0  0  0  0  0  0  0  0  0  0
   -1.5730    0.0640    0.3180 N   0  0  0  0  0  0  0  0  0  0  0  0
   -2.6010   -0.2540   -0.4840 C   0  0  0  0  0  0  0  0  0  0  0  0
   -3.9420    0.0700   -0.4680 C   0  0  0  0  0  0  0  0  0  0  0  0
   -4.3820    0.8900    0.5620 O   0  0  0  0  0  0  0  0  0  0  0  0
   -5.7580    1.2170    0.5700 C   0  0  0  0  0  0  0  0  0  0  0  0
   -6.1300    2.1070    1.7230 C   0  0  0  0  0  0  0  0  0  0  0  0
   -4.7980   -0.4200   -1.4590 C   0  0  0  0  0  0  0  0  0  0  0  0
   -4.2630   -1.2280   -2.4400 C   0  0  0  0  0  0  0  0  0  0  0  0
   -2.9170   -1.5230   -2.4110 C   0  0  0  0  0  0  0  0  0  0  0  0
   -2.1000   -1.0460   -1.4530 N   0  0  0  0  0  0  0  0  0  0  0  0
   -0.7990   -1.1920   -1.2250 N   0  0  0  0  0  0  0  0  0  0  0  0
    4.0150    0.2020    0.3110 C   0  0  0  0  0  0  0  0  0  0  0  0
    3.4340    1.3310   -0.1400 C   0  0  0  0  0  0  0  0  0  0  0  0
    4.3550    2.4650   -0.0190 C   0  0  0  0  0  0  0  0  0  0  0  0
    5.5640    1.8950    0.5580 C   0  0  0  0  0  0  0  0  0  0  0  0
    5.3510    0.5800    0.7440 C   0  0  0  0  0  0  0  0  0  0  0  0
  1  2  1  0
  2  3  2  3
  3  4  1  0
  3 19  1  0
  4  5  1  0
  5  6  2  0
  5  7  1  0
  7  8  1  0
  7 18  2  0
  8  9  2  0
  9 10  1  0
  9 17  1  0
 10 11  1  0
 10 14  2  0
 11 12  1  0
 12 13  1  0
 14 15  1  0
 15 16  2  0
 16 17  1  0
 17 18  1  0
 19 20  2  0
 19 23  1  0
 20 21  1  0
 21 22  1  0
 22 23  2  0
M  END
