
     RDKit          3D

 28 31  0  0  0  0  0  0  0  0999 V2000
   -2.3840    5.7310    0.4610 C   0  0  0  0  0  0  0  0  0  0  0  0
   -1.6050    4.4460    0.4180 C   0  0  0  0  0  0  0  0  0  0  0  0
   -2.4400    3.3160    0.5570 O   0  0  0  0  0  0  0  0  0  0  0  0
   -1.9470    2.0200    0.5480 C   0  0  0  0  0  0  0  0  0  0  0  0
   -2.8090    0.9320    0.6890 C   0  0  0  0  0  0  0  0  0  0  0  0
   -2.3320   -0.3530    0.6820 C   0  0  0  0  0  0  0  0  0  0  0  0
   -3.1340   -1.4910    0.8170 N   0  0  0  0  0  0  0  0  0  0  0  0
   -3.4580   -2.1560   -0.3910 C   0  0  2  0  0  0  0  0  0  0  0  0
   -2.8390   -3.5350   -0.5120 C   0  0  0  0  0  0  0  0  0  0  0  0
   -3.0210   -3.7700   -2.0190 C   0  0  0  0  0  0  0  0  0  0  0  0
   -2.7160   -2.5050   -2.5430 O   0  0  0  0  0  0  0  0  0  0  0  0
   -2.9350   -1.4990   -1.6110 C   0  0  0  0  0  0  0  0  0  0  0  0
   -2.7050   -0.2850   -1.8460 O   0  0  0  0  0  0  0  0  0  0  0  0
   -0.9510   -0.5110    0.5270 C   0  0  0  0  0  0  0  0  0  0  0  0
   -0.0910    0.5480    0.3880 C   0  0  0  0  0  0  0  0  0  0  0  0
    1.3680    0.4150    0.2230 C   0  0  0  0  0  0  0  0  0  0  0  0
    1.8890   -0.7900    0.2080 C   0  0  0  0  0  0  0  0  0  0  0  0
    3.3410   -0.9880    0.0460 C   0  0  0  0  0  0  0  0  0  0  0  0
    3.8780   -2.2530    0.0310 C   0  0  0  0  0  0  0  0  0  0  0  0
    5.2320   -2.4330   -0.1190 C   0  0  0  0  0  0  0  0  0  0  0  0
    5.9330   -4.0630   -0.1400 Cl  0  0  0  0  0  0  0  0  0  0  0  0
    6.0290   -1.3240   -0.2530 C   0  0  0  0  0  0  0  0  0  0  0  0
    7.4070   -1.5280   -0.4060 O   0  0  0  0  0  0  0  0  0  0  0  0
    5.4730   -0.0650   -0.2360 C   0  0  0  0  0  0  0  0  0  0  0  0
    4.1080    0.1460   -0.0850 C   0  0  0  0  0  0  0  0  0  0  0  0
    3.5430    1.3920   -0.0660 O   0  0  0  0  0  0  0  0  0  0  0  0
    2.1920    1.6500    0.0820 C   0  0  0  0  0  0  0  0  0  0  0  0
   -0.5980    1.8480    0.3980 C   0  0  0  0  0  0  0  0  0  0  0  0
  1  2  1  0
  2  3  1  0
  3  4  1  0
  4  5  2  0
  4 28  1  0
  5  6  1  0
  6  7  1  0
  6 14  2  0
  8  7  1  1
  8  9  1  0
  8 12  1  0
  9 10  1  0
 10 11  1  0
 11 12  1  0
 12 13  2  0
 14 15  1  0
 15 16  1  0
 15 28  2  0
 16 17  2  0
 16 27  1  0
 17 18  1  0
 18 19  2  0
 18 25  1  0
 19 20  1  0
 20 21  1  0
 20 22  2  0
 22 23  1  0
 22 24  1  0
 24 25  2  0
 25 26  1  0
 26 27  1  0
M  CHG  1   7   1
M  END
