
     RDKit          3D

 28 30  0  0  0  0  0  0  0  0999 V2000
   -1.1150   -2.4190   -2.3610 O   0  0  0  0  0  0  0  0  0  0  0  0
    0.0110   -2.2490   -1.7310 C   0  0  0  0  0  0  0  0  0  0  0  0
    1.1730   -1.8450   -2.4840 C   0  0  0  0  0  0  0  0  0  0  0  0
    2.2050   -1.1080   -2.2960 C   0  0  0  0  0  0  0  0  0  0  0  0
    2.7150   -0.3000   -1.2090 C   0  0  0  0  0  0  0  0  0  0  0  0
    2.2690    0.8780   -0.7490 C   0  0  0  0  0  0  0  0  0  0  0  0
    1.1310    1.6190   -1.2630 C   0  0  0  0  0  0  0  0  0  0  0  0
   -0.1440    1.5460   -1.0310 C   0  0  0  0  0  0  0  0  0  0  0  0
   -0.8300    0.6070   -0.0900 C   0  0  0  0  0  0  0  0  0  0  0  0
   -2.0630    0.0830   -0.5600 N   0  0  2  0  0  0  0  0  0  0  0  0
   -3.1130    1.0070   -0.3900 C   0  0  1  0  0  0  0  0  0  0  0  0
   -3.9880    1.0800   -1.6630 C   0  0  0  0  0  0  0  0  0  0  0  0
   -4.5430   -0.1590   -1.9480 O   0  0  0  0  0  0  0  0  0  0  0  0
   -4.0350    0.9890    0.7410 C   0  0  0  0  0  0  0  0  0  0  0  0
   -3.5280    1.1540    2.1240 C   0  0  0  0  0  0  0  0  0  0  0  0
   -2.6540    0.2490    2.6250 O   0  0  0  0  0  0  0  0  0  0  0  0
   -2.3270   -1.2750   -0.1850 C   0  0  0  0  0  0  0  0  0  0  0  0
   -1.2230   -2.0050    0.4690 C   0  0  0  0  0  0  0  0  0  0  0  0
   -0.0770   -2.5080   -0.3000 C   0  0  0  0  0  0  0  0  0  0  0  0
    2.9410    1.5110    0.3410 O   0  0  0  0  0  0  0  0  0  0  0  0
    4.0360    0.9760    0.9590 C   0  0  0  0  0  0  0  0  0  0  0  0
    4.6650    1.6340    2.0270 C   0  0  0  0  0  0  0  0  0  0  0  0
    5.7660    1.0770    2.6360 C   0  0  0  0  0  0  0  0  0  0  0  0
    6.5850    1.8710    3.9800 Cl  0  0  0  0  0  0  0  0  0  0  0  0
    6.2200   -0.1350    2.1620 C   0  0  0  0  0  0  0  0  0  0  0  0
    5.5970   -0.7890    1.1030 C   0  0  0  0  0  0  0  0  0  0  0  0
    4.4980   -0.2300    0.4980 C   0  0  0  0  0  0  0  0  0  0  0  0
    3.8550   -0.8360   -0.5470 O   0  0  0  0  0  0  0  0  0  0  0  0
  1  2  2  0
  2  3  1  0
  2 19  1  0
  3  4  2  0
  4  5  1  0
  5  6  2  0
  5 28  1  0
  6  7  1  0
  6 20  1  0
  7  8  2  0
  8  9  1  0
 10  9  1  1
 10 11  1  0
 10 17  1  0
 11 12  1  6
 11 14  1  0
 12 13  1  0
 14 15  1  0
 15 16  1  0
 17 18  1  0
 18 19  1  0
 20 21  1  0
 21 22  2  0
 21 27  1  0
 22 23  1  0
 23 24  1  0
 23 25  2  0
 25 26  1  0
 26 27  2  0
 27 28  1  0
M  CHG  1  10   1
M  END
