
     RDKit          3D

 28 31  0  0  0  0  0  0  0  0999 V2000
   -4.4990    1.3170    2.2480 C   0  0  0  0  0  0  0  0  0  0  0  0
   -3.0560    1.1300    2.2360 N   0  0  0  0  0  0  0  0  0  0  0  0
   -2.4050    1.8440    1.1810 C   0  0  1  0  0  0  0  0  0  0  0  0
   -0.9810    1.4120    1.0630 C   0  0  0  0  0  0  0  0  0  0  0  0
   -0.8470   -0.0210    0.6850 C   0  0  2  0  0  0  0  0  0  0  0  0
    0.3220   -0.2600   -0.2170 C   0  0  0  0  0  0  0  0  0  0  0  0
    1.0120    0.6900   -0.6680 O   0  0  0  0  0  0  0  0  0  0  0  0
    0.6770   -1.5440   -0.5820 O   0  0  0  0  0  0  0  0  0  0  0  0
    1.7350   -1.9080   -1.4090 C   0  0  0  0  0  0  0  0  0  0  0  0
    3.0050   -1.4430   -0.8290 C   0  0  0  0  0  0  0  0  0  0  0  0
    3.5470   -2.1230    0.2470 C   0  0  0  0  0  0  0  0  0  0  0  0
    4.7370   -1.6910    0.7880 C   0  0  0  0  0  0  0  0  0  0  0  0
    5.4180   -0.5750    0.2730 C   0  0  0  0  0  0  0  0  0  0  0  0
    4.8490    0.0680   -0.7900 C   0  0  0  0  0  0  0  0  0  0  0  0
    3.6500   -0.3500   -1.3500 C   0  0  0  0  0  0  0  0  0  0  0  0
    5.7090    1.1960   -1.1720 C   0  0  0  0  0  0  0  0  0  0  0  0
    6.8250    1.1150   -0.2050 C   0  0  0  0  0  0  0  0  0  0  0  0
    7.8090    1.9300   -0.1920 O   0  0  0  0  0  0  0  0  0  0  0  0
    6.5910    0.0450    0.6220 O   0  0  0  0  0  0  0  0  0  0  0  0
   -2.0440   -0.5670    0.0100 C   0  0  0  0  0  0  0  0  0  0  0  0
   -2.1090   -1.9440   -0.2170 C   0  0  0  0  0  0  0  0  0  0  0  0
   -3.2030   -2.4990   -0.8440 C   0  0  0  0  0  0  0  0  0  0  0  0
   -4.2740   -1.7440   -1.2750 C   0  0  0  0  0  0  0  0  0  0  0  0
   -5.6590   -2.4600   -2.0700 Cl  0  0  0  0  0  0  0  0  0  0  0  0
   -4.1870   -0.3860   -1.0390 C   0  0  0  0  0  0  0  0  0  0  0  0
   -3.1020    0.1850   -0.4140 C   0  0  0  0  0  0  0  0  0  0  0  0
   -3.0560    1.6490   -0.1770 C   0  0  2  0  0  0  0  0  0  0  0  0
   -2.1910    2.1830   -1.1390 O   0  0  0  0  0  0  0  0  0  0  0  0
  1  2  1  0
  3  2  1  1
  3  4  1  0
  3 27  1  0
  4  5  1  0
  5  6  1  6
  5 20  1  0
  6  7  2  0
  6  8  1  0
  8  9  1  0
  9 10  1  0
 10 11  2  0
 10 15  1  0
 11 12  1  0
 12 13  2  0
 13 14  1  0
 13 19  1  0
 14 15  2  0
 14 16  1  0
 16 17  1  0
 17 18  2  0
 17 19  1  0
 20 21  2  0
 20 26  1  0
 21 22  1  0
 22 23  2  0
 23 24  1  0
 23 25  1  0
 25 26  2  0
 26 27  1  0
 27 28  1  6
M  CHG  1   2   1
M  END
