
     RDKit          3D

 19 20  0  0  0  0  0  0  0  0999 V2000
   -4.3400   -1.8010   -0.5750 C   0  0  0  0  0  0  0  0  0  0  0  0
   -3.3510   -0.7510   -0.1650 C   0  0  0  0  0  0  0  0  0  0  0  0
   -2.0050   -1.0240   -0.1030 C   0  0  0  0  0  0  0  0  0  0  0  0
   -1.1430   -0.0180    0.2810 C   0  0  0  0  0  0  0  0  0  0  0  0
    0.2250   -0.2640    0.3530 C   0  0  0  0  0  0  0  0  0  0  0  0
    1.1290    0.6950    0.7280 C   0  0  0  0  0  0  0  0  0  0  0  0
    2.5220    0.4280    0.7960 N   0  0  0  0  0  0  0  0  0  0  0  0
    2.9840   -0.8860    0.4620 C   0  0  0  0  0  0  0  0  0  0  0  0
    4.0350   -1.0870   -0.2860 C   0  0  0  0  0  0  0  0  0  0  0  0
    4.5580   -2.7130   -0.6650 Cl  0  0  0  0  0  0  0  0  0  0  0  0
    4.8380    0.0310   -0.8520 C   0  0  2  0  0  0  0  0  0  0  0  0
    4.8460   -0.0470   -2.6340 Cl  0  0  0  0  0  0  0  0  0  0  0  0
    6.5440   -0.0760   -0.2940 Cl  0  0  0  0  0  0  0  0  0  0  0  0
    0.6520    1.9480    1.0430 C   0  0  0  0  0  0  0  0  0  0  0  0
   -0.6880    2.2650    0.9940 C   0  0  0  0  0  0  0  0  0  0  0  0
   -1.5670    1.2520    0.6070 C   0  0  0  0  0  0  0  0  0  0  0  0
   -2.8970    1.4930    0.5370 N   0  0  0  0  0  0  0  0  0  0  0  0
   -3.7430    0.5250    0.1660 C   0  0  0  0  0  0  0  0  0  0  0  0
   -4.9960    0.7600    0.1030 O   0  0  0  0  0  0  0  0  0  0  0  0
  1  2  1  0
  2  3  2  0
  2 18  1  0
  3  4  1  0
  4  5  2  0
  4 16  1  0
  5  6  1  0
  6  7  1  0
  6 14  2  0
  7  8  1  0
  8  9  2  3
  9 10  1  0
  9 11  1  0
 11 12  1  6
 11 13  1  0
 14 15  1  0
 15 16  2  0
 16 17  1  0
 17 18  1  0
 18 19  2  0
M  END
