
     RDKit          3D

 28 30  0  0  0  0  0  0  0  0999 V2000
    4.0370    0.9020   -1.3440 C   0  0  0  0  0  0  0  0  0  0  0  0
    4.2160    0.4480    0.0740 C   0  0  0  0  0  0  0  0  0  0  0  0
    5.4140   -0.1760    0.3750 C   0  0  0  0  0  0  0  0  0  0  0  0
    6.6570   -0.4210   -0.8360 Cl  0  0  0  0  0  0  0  0  0  0  0  0
    5.6450   -0.6210    1.6660 C   0  0  0  0  0  0  0  0  0  0  0  0
    4.6840   -0.4390    2.6310 C   0  0  0  0  0  0  0  0  0  0  0  0
    3.4930    0.1890    2.3010 C   0  0  0  0  0  0  0  0  0  0  0  0
    3.2340    0.6440    1.0220 C   0  0  0  0  0  0  0  0  0  0  0  0
    1.9640    1.3100    0.6830 C   0  0  0  0  0  0  0  0  0  0  0  0
    1.0240    0.4110   -0.0850 C   0  0  2  0  0  0  0  0  0  0  0  0
   -0.2420    1.2320   -0.3650 C   0  0  0  0  0  0  0  0  0  0  0  0
   -0.9160    0.7340   -1.4940 O   0  0  0  0  0  0  0  0  0  0  0  0
   -2.1140    1.1790   -2.0170 C   0  0  0  0  0  0  0  0  0  0  0  0
   -2.1620    1.6540   -3.2250 O   0  0  0  0  0  0  0  0  0  0  0  0
   -3.4040    1.1830   -1.3490 C   0  0  0  0  0  0  0  0  0  0  0  0
   -4.2440    2.2260   -1.2090 C   0  0  0  0  0  0  0  0  0  0  0  0
   -4.0930    3.5410   -1.6620 O   0  0  0  0  0  0  0  0  0  0  0  0
   -5.4290    1.8170   -0.4790 C   0  0  0  0  0  0  0  0  0  0  0  0
   -6.4430    2.4880   -0.1420 O   0  0  0  0  0  0  0  0  0  0  0  0
   -5.2340    0.4130   -0.1840 C   0  0  0  0  0  0  0  0  0  0  0  0
   -4.0430    0.0590   -0.7020 C   0  0  0  0  0  0  0  0  0  0  0  0
   -3.4760   -1.3270   -0.6330 C   0  0  1  0  0  0  0  0  0  0  0  0
   -2.7150   -1.6080   -1.7370 O   0  0  0  0  0  0  0  0  0  0  0  0
   -2.7530   -1.4480    0.6890 C   0  0  0  0  0  0  0  0  0  0  0  0
   -1.8910   -2.6410    0.8050 C   0  0  0  0  0  0  0  0  0  0  0  0
   -0.6510   -2.8070    0.4430 C   0  0  0  0  0  0  0  0  0  0  0  0
    0.2700   -1.8520   -0.1940 C   0  0  0  0  0  0  0  0  0  0  0  0
    0.7330   -0.7830    0.6610 N   0  0  0  0  0  0  0  0  0  0  0  0
  1  2  1  0
  2  3  2  0
  2  8  1  0
  3  4  1  0
  3  5  1  0
  5  6  2  0
  6  7  1  0
  7  8  2  0
  8  9  1  0
 10  9  1  1
 10 11  1  0
 10 28  1  0
 11 12  1  0
 12 13  1  0
 13 14  2  0
 13 15  1  0
 15 16  2  0
 15 21  1  0
 16 17  1  0
 16 18  1  0
 18 19  2  0
 18 20  1  0
 20 21  2  0
 21 22  1  0
 22 23  1  6
 22 24  1  0
 24 25  1  0
 25 26  2  0
 26 27  1  0
 27 28  1  0
M  CHG  1  28   1
M  END
