
     RDKit          3D

 22 24  0  0  0  0  0  0  0  0999 V2000
   -2.0330    2.7220   -0.4830 C   0  0  0  0  0  0  0  0  0  0  0  0
   -1.9720    1.3480   -0.1480 O   0  0  0  0  0  0  0  0  0  0  0  0
   -3.1100    0.6720    0.2150 C   0  0  0  0  0  0  0  0  0  0  0  0
   -4.3280    1.3260    0.2570 C   0  0  0  0  0  0  0  0  0  0  0  0
   -5.4550    0.6700    0.6130 N   0  0  0  0  0  0  0  0  0  0  0  0
   -5.4010   -0.6330    0.9310 C   0  0  0  0  0  0  0  0  0  0  0  0
   -6.5460   -1.3380    1.3030 O   0  0  0  0  0  0  0  0  0  0  0  0
   -4.1980   -1.2930    0.8930 C   0  0  0  0  0  0  0  0  0  0  0  0
   -3.0150   -0.6800    0.5380 C   0  0  0  0  0  0  0  0  0  0  0  0
   -1.7480   -1.3870    0.5010 C   0  0  0  0  0  0  0  0  0  0  0  0
   -1.5770   -2.6840    0.7980 N   0  0  0  0  0  0  0  0  0  0  0  0
   -0.3220   -3.0110    0.6670 N   0  0  0  0  0  0  0  0  0  0  0  0
    0.3830   -1.9140    0.2720 C   0  0  0  0  0  0  0  0  0  0  0  0
    1.8030   -1.9390    0.0320 C   0  0  0  0  0  0  0  0  0  0  0  0
    2.4460   -3.0370    0.1880 O   0  0  0  0  0  0  0  0  0  0  0  0
    2.5970   -0.8250   -0.3780 N   0  0  0  0  0  0  0  0  0  0  0  0
    4.0150   -0.9590   -0.6040 C   0  0  0  0  0  0  0  0  0  0  0  0
    4.8120    0.2400   -0.1680 C   0  0  0  0  0  0  0  0  0  0  0  0
    4.2660    1.4210   -0.9620 C   0  0  0  0  0  0  0  0  0  0  0  0
    2.8660    1.6410   -0.4970 C   0  0  0  0  0  0  0  0  0  0  0  0
    1.9640    0.4490   -0.5700 C   0  0  0  0  0  0  0  0  0  0  0  0
   -0.5250   -0.9440    0.1820 N   0  0  0  0  0  0  0  0  0  0  0  0
  1  2  1  0
  2  3  1  0
  3  4  2  0
  3  9  1  0
  4  5  1  0
  5  6  2  0
  6  7  1  0
  6  8  1  0
  8  9  2  0
  9 10  1  0
 10 11  2  0
 10 22  1  0
 11 12  1  0
 12 13  1  0
 13 14  1  0
 13 22  2  0
 14 15  2  0
 14 16  1  0
 16 17  1  0
 16 21  1  0
 17 18  1  0
 18 19  1  0
 19 20  1  0
 20 21  1  0
M  END
