
     RDKit          3D

 22 24  0  0  0  0  0  0  0  0999 V2000
    6.1730    0.5720    1.4100 C   0  0  0  0  0  0  0  0  0  0  0  0
    4.7460    0.3920    1.0550 C   0  0  0  0  0  0  0  0  0  0  0  0
    3.6870    1.0660    1.6590 C   0  0  0  0  0  0  0  0  0  0  0  0
    2.6000    0.6400    1.0770 O   0  0  0  0  0  0  0  0  0  0  0  0
    2.8250   -0.2440    0.1530 C   0  0  0  0  0  0  0  0  0  0  0  0
    1.8220   -0.9210   -0.6900 C   0  0  0  0  0  0  0  0  0  0  0  0
    2.2340   -1.8160   -1.6040 N   0  0  0  0  0  0  0  0  0  0  0  0
    1.3570   -2.4600   -2.3960 C   0  0  0  0  0  0  0  0  0  0  0  0
    0.0460   -2.2020   -2.2680 N   0  0  0  0  0  0  0  0  0  0  0  0
   -0.4140   -1.3020   -1.3530 C   0  0  0  0  0  0  0  0  0  0  0  0
   -1.8370   -1.0250   -1.2170 C   0  0  0  0  0  0  0  0  0  0  0  0
   -2.6660   -1.6080   -1.9380 O   0  0  0  0  0  0  0  0  0  0  0  0
   -2.2690   -0.0930   -0.2660 N   0  0  0  0  0  0  0  0  0  0  0  0
   -3.5760    0.3200    0.0290 C   0  0  0  0  0  0  0  0  0  0  0  0
   -4.6770   -0.1670   -0.6200 C   0  0  0  0  0  0  0  0  0  0  0  0
   -5.9580    0.2650   -0.3010 C   0  0  0  0  0  0  0  0  0  0  0  0
   -6.0920    1.1770    0.6640 N   0  0  0  0  0  0  0  0  0  0  0  0
   -5.0560    1.6870    1.3290 C   0  0  0  0  0  0  0  0  0  0  0  0
   -3.7860    1.2750    1.0320 C   0  0  0  0  0  0  0  0  0  0  0  0
   -2.6980    1.8020    1.7220 O   0  0  0  0  0  0  0  0  0  0  0  0
    0.5070   -0.6880   -0.5890 N   0  0  0  0  0  0  0  0  0  0  0  0
    4.1870   -0.4310    0.1070 C   0  0  0  0  0  0  0  0  0  0  0  0
  1  2  1  0
  2  3  2  0
  2 22  1  0
  3  4  1  0
  4  5  1  0
  5  6  1  0
  5 22  2  0
  6  7  2  0
  6 21  1  0
  7  8  1  0
  8  9  2  0
  9 10  1  0
 10 11  1  0
 10 21  2  0
 11 12  2  0
 11 13  1  0
 13 14  1  0
 14 15  2  0
 14 19  1  0
 15 16  1  0
 16 17  2  0
 17 18  1  0
 18 19  2  0
 19 20  1  0
M  END
