
     RDKit          3D

 16 17  0  0  0  0  0  0  0  0999 V2000
    2.5110    0.5930   -0.5360 C   0  0  0  0  0  0  0  0  0  0  0  0
    2.2480   -0.5420    0.4260 C   0  0  2  0  0  0  0  0  0  0  0  0
    2.1250   -1.8550   -0.2930 C   0  0  0  0  0  0  0  0  0  0  0  0
    1.0960   -0.2270    1.3150 C   0  0  0  0  0  0  0  0  0  0  0  0
   -0.1570    0.0150    0.6490 N   0  0  0  0  0  0  0  0  0  0  0  0
   -1.0070   -0.9850    0.3590 C   0  0  0  0  0  0  0  0  0  0  0  0
   -0.6950   -2.1620    0.6710 O   0  0  0  0  0  0  0  0  0  0  0  0
   -2.1920   -0.8360   -0.2510 N   0  0  0  0  0  0  0  0  0  0  0  0
   -3.0620   -1.9640   -0.5350 C   0  0  0  0  0  0  0  0  0  0  0  0
   -2.5880    0.3990   -0.6130 C   0  0  0  0  0  0  0  0  0  0  0  0
   -3.7010    0.5610   -1.1890 O   0  0  0  0  0  0  0  0  0  0  0  0
   -1.7630    1.4720   -0.3440 C   0  0  0  0  0  0  0  0  0  0  0  0
   -1.8570    2.7940   -0.5590 N   0  0  0  0  0  0  0  0  0  0  0  0
   -0.7670    3.4290   -0.0950 C   0  0  0  0  0  0  0  0  0  0  0  0
    0.0260    2.4730    0.4220 N   0  0  0  0  0  0  0  0  0  0  0  0
   -0.5370    1.2550    0.2960 C   0  0  0  0  0  0  0  0  0  0  0  0
  2  1  1  6
  2  3  1  0
  2  4  1  0
  4  5  1  0
  5  6  1  0
  5 16  1  0
  6  7  2  0
  6  8  1  0
  8  9  1  0
  8 10  1  0
 10 11  2  0
 10 12  1  0
 12 13  1  0
 12 16  2  0
 13 14  2  0
 14 15  1  0
 15 16  1  0
M  END
