
     RDKit          3D

 22 24  0  0  0  0  0  0  0  0999 V2000
   -4.1220   -1.4010   -1.7190 C   0  0  0  0  0  0  0  0  0  0  0  0
   -3.6450   -0.0660   -1.2090 C   0  0  0  0  0  0  0  0  0  0  0  0
   -2.4110   -0.1640   -0.4710 N   0  0  0  0  0  0  0  0  0  0  0  0
   -1.8390    1.0020    0.0700 C   0  0  0  0  0  0  0  0  0  0  0  0
   -2.4330    2.1960   -0.0990 N   0  0  0  0  0  0  0  0  0  0  0  0
   -1.8880    3.3130    0.4160 C   0  0  0  0  0  0  0  0  0  0  0  0
   -2.5160    4.5450    0.2330 O   0  0  0  0  0  0  0  0  0  0  0  0
   -0.7040    3.2200    1.1250 C   0  0  0  0  0  0  0  0  0  0  0  0
   -0.1550    2.0320    1.2670 N   0  0  0  0  0  0  0  0  0  0  0  0
   -0.6400    0.8680    0.7810 C   0  0  0  0  0  0  0  0  0  0  0  0
    0.0070   -0.3650    0.9760 N   0  0  0  0  0  0  0  0  0  0  0  0
   -0.4550   -1.5300    1.6160 C   0  0  0  0  0  0  0  0  0  0  0  0
    0.5750   -1.9010    2.6940 C   0  0  0  0  0  0  0  0  0  0  0  0
    1.7520   -2.2200    1.9330 O   0  0  0  0  0  0  0  0  0  0  0  0
    2.2010   -1.3880    0.9180 C   0  0  0  0  0  0  0  0  0  0  0  0
    1.3360   -0.4830    0.4580 C   0  0  0  0  0  0  0  0  0  0  0  0
    1.6000    0.5300   -0.6380 C   0  0  0  0  0  0  0  0  0  0  0  0
    2.4140   -0.2020   -1.6870 C   0  0  0  0  0  0  0  0  0  0  0  0
    3.9000   -0.0460   -1.4430 C   0  0  0  0  0  0  0  0  0  0  0  0
    4.3710   -0.9760   -0.4350 N   0  0  0  0  0  0  0  0  0  0  0  0
    3.5730   -1.6520    0.5190 C   0  0  0  0  0  0  0  0  0  0  0  0
    4.1560   -2.6070    1.0840 O   0  0  0  0  0  0  0  0  0  0  0  0
  1  2  1  0
  2  3  1  0
  3  4  1  0
  4  5  2  0
  4 10  1  0
  5  6  1  0
  6  7  1  0
  6  8  2  0
  8  9  1  0
  9 10  2  0
 10 11  1  0
 11 12  1  0
 11 16  1  0
 12 13  1  0
 13 14  1  0
 14 15  1  0
 15 16  2  0
 15 21  1  0
 16 17  1  0
 17 18  1  0
 18 19  1  0
 19 20  1  0
 20 21  1  0
 21 22  2  0
M  END
