
     RDKit          3D

 22 24  0  0  0  0  0  0  0  0999 V2000
   -1.3880    3.6120    1.7690 C   0  0  0  0  0  0  0  0  0  0  0  0
   -2.0500    2.4470    1.3220 O   0  0  0  0  0  0  0  0  0  0  0  0
   -1.3410    1.2570    1.0500 C   0  0  0  0  0  0  0  0  0  0  0  0
   -0.1250    1.3080    1.2270 O   0  0  0  0  0  0  0  0  0  0  0  0
   -2.1440    0.1410    0.5970 C   0  0  0  0  0  0  0  0  0  0  0  0
   -3.5050   -0.0480    0.9010 C   0  0  0  0  0  0  0  0  0  0  0  0
   -3.8900   -1.2340    0.4100 N   0  0  0  0  0  0  0  0  0  0  0  0
   -2.8470   -1.7910   -0.1810 C   0  0  0  0  0  0  0  0  0  0  0  0
   -1.7130   -0.9650   -0.0980 C   0  0  0  0  0  0  0  0  0  0  0  0
   -0.6780   -1.6070   -0.7280 C   0  0  0  0  0  0  0  0  0  0  0  0
    0.6680   -1.1480   -1.0250 C   0  0  0  0  0  0  0  0  0  0  0  0
    1.5770   -2.0400   -1.0430 O   0  0  0  0  0  0  0  0  0  0  0  0
    1.0470    0.1700   -1.2980 N   0  0  0  0  0  0  0  0  0  0  0  0
    2.3300    0.7200   -1.5790 C   0  0  0  0  0  0  0  0  0  0  0  0
    3.3590    0.6720   -0.5510 C   0  0  0  0  0  0  0  0  0  0  0  0
    3.9250    1.7670    0.0160 C   0  0  0  0  0  0  0  0  0  0  0  0
    4.9230    1.3770    1.0090 C   0  0  0  0  0  0  0  0  0  0  0  0
    4.8940   -0.0450    0.9540 N   0  0  0  0  0  0  0  0  0  0  0  0
    4.0120   -0.4330    0.0770 C   0  0  0  0  0  0  0  0  0  0  0  0
   -1.2060   -2.8030   -1.1680 N   0  0  0  0  0  0  0  0  0  0  0  0
   -2.4640   -2.8840   -0.8390 N   0  0  0  0  0  0  0  0  0  0  0  0
   -3.3270   -4.0290   -1.1570 C   0  0  0  0  0  0  0  0  0  0  0  0
  1  2  1  0
  2  3  1  0
  3  4  2  0
  3  5  1  0
  5  6  2  0
  5  9  1  0
  6  7  1  0
  7  8  1  0
  8  9  2  0
  8 21  1  0
  9 10  1  0
 10 11  1  0
 10 20  2  0
 11 12  2  0
 11 13  1  0
 13 14  1  0
 14 15  1  0
 15 16  2  0
 15 19  1  0
 16 17  1  0
 17 18  1  0
 18 19  2  0
 20 21  1  0
 21 22  1  0
M  END
