
     RDKit          3D

 22 24  0  0  0  0  0  0  0  0999 V2000
   -6.3860   -2.2300    1.6950 C   0  0  0  0  0  0  0  0  0  0  0  0
   -5.3670   -1.3810    1.0390 C   0  0  0  0  0  0  0  0  0  0  0  0
   -4.3540   -1.7300    0.2010 C   0  0  0  0  0  0  0  0  0  0  0  0
   -3.6480   -0.5530   -0.1380 C   0  0  0  0  0  0  0  0  0  0  0  0
   -4.2820    0.4270    0.5090 N   0  0  0  0  0  0  0  0  0  0  0  0
   -5.2810   -0.0230    1.2030 N   0  0  0  0  0  0  0  0  0  0  0  0
   -3.7450    1.7440    0.1230 C   0  0  0  0  0  0  0  0  0  0  0  0
   -2.2410    1.6710    0.2220 C   0  0  0  0  0  0  0  0  0  0  0  0
   -1.6550    0.5840   -0.5010 C   0  0  0  0  0  0  0  0  0  0  0  0
   -0.4930    0.3210   -1.3110 N   0  0  0  0  0  0  0  0  0  0  0  0
    0.7490    0.5200   -0.7610 C   0  0  0  0  0  0  0  0  0  0  0  0
    0.6180    0.8040    0.4970 O   0  0  0  0  0  0  0  0  0  0  0  0
    2.0190    0.4170   -1.4330 C   0  0  0  0  0  0  0  0  0  0  0  0
    3.0380    0.3480   -0.4350 O   0  0  0  0  0  0  0  0  0  0  0  0
    4.3450    0.1550   -0.7220 C   0  0  0  0  0  0  0  0  0  0  0  0
    4.6600    0.0360   -1.9310 O   0  0  0  0  0  0  0  0  0  0  0  0
    5.3930    0.0770    0.2840 C   0  0  0  0  0  0  0  0  0  0  0  0
    5.2820    0.1810    1.6010 C   0  0  0  0  0  0  0  0  0  0  0  0
    6.6380    0.0300    2.1860 C   0  0  0  0  0  0  0  0  0  0  0  0
    7.5060   -0.1710    1.0600 N   0  0  0  0  0  0  0  0  0  0  0  0
    6.7950   -0.1430   -0.0060 C   0  0  0  0  0  0  0  0  0  0  0  0
   -2.3630   -0.4780   -0.6600 N   0  0  0  0  0  0  0  0  0  0  0  0
  1  2  1  0
  2  3  1  0
  2  6  2  0
  3  4  2  0
  4  5  1  0
  4 22  1  0
  5  6  1  0
  5  7  1  0
  7  8  1  0
  8  9  1  0
  9 10  1  0
  9 22  2  0
 10 11  1  0
 11 12  2  0
 11 13  1  0
 13 14  1  0
 14 15  1  0
 15 16  2  0
 15 17  1  0
 17 18  2  0
 17 21  1  0
 18 19  1  0
 19 20  1  0
 20 21  2  0
M  END
