
     RDKit          3D

 22 24  0  0  0  0  0  0  0  0999 V2000
   -5.6510    0.5490    0.1880 C   0  0  0  0  0  0  0  0  0  0  0  0
   -4.2370    0.1700    0.3380 C   0  0  0  0  0  0  0  0  0  0  0  0
   -3.3310    0.5790   -0.6220 C   0  0  0  0  0  0  0  0  0  0  0  0
   -1.9920    0.2570   -0.5410 C   0  0  0  0  0  0  0  0  0  0  0  0
   -1.5980   -0.4960    0.5470 C   0  0  0  0  0  0  0  0  0  0  0  0
   -2.5050   -0.9090    1.5140 C   0  0  0  0  0  0  0  0  0  0  0  0
   -3.8390   -0.5790    1.4180 C   0  0  0  0  0  0  0  0  0  0  0  0
   -4.7970   -1.0360    2.4710 C   0  0  0  0  0  0  0  0  0  0  0  0
   -0.2510   -0.8210    0.6300 O   0  0  0  0  0  0  0  0  0  0  0  0
    0.6490   -0.4140   -0.3240 N   0  0  0  0  0  0  0  0  0  0  0  0
    0.3310    0.2880   -1.3560 C   0  0  0  0  0  0  0  0  0  0  0  0
    1.3520    0.7060   -2.3670 C   0  0  0  0  0  0  0  0  0  0  0  0
    2.7010    0.1740   -1.9500 C   0  0  0  0  0  0  0  0  0  0  0  0
    3.0590    0.6770   -0.7020 O   0  0  0  0  0  0  0  0  0  0  0  0
    4.2410    0.3750   -0.0460 C   0  0  0  0  0  0  0  0  0  0  0  0
    5.1050   -0.4510   -0.6350 N   0  0  0  0  0  0  0  0  0  0  0  0
    6.2740   -0.7930   -0.0640 C   0  0  0  0  0  0  0  0  0  0  0  0
    6.5890   -0.2830    1.1540 N   0  0  0  0  0  0  0  0  0  0  0  0
    5.7190    0.5480    1.7430 C   0  0  0  0  0  0  0  0  0  0  0  0
    5.9820    1.0460    2.8880 O   0  0  0  0  0  0  0  0  0  0  0  0
    4.5500    0.8830    1.1600 N   0  0  0  0  0  0  0  0  0  0  0  0
   -1.0330    0.6620   -1.5120 N   0  0  0  0  0  0  0  0  0  0  0  0
  1  2  1  0
  2  3  2  0
  2  7  1  0
  3  4  1  0
  4  5  2  0
  4 22  1  0
  5  6  1  0
  5  9  1  0
  6  7  2  0
  7  8  1  0
  9 10  1  0
 10 11  2  0
 11 12  1  0
 11 22  1  0
 12 13  1  0
 13 14  1  0
 14 15  1  0
 15 16  1  0
 15 21  2  0
 16 17  2  0
 17 18  1  0
 18 19  1  0
 19 20  2  0
 19 21  1  0
M  END
