
     RDKit          3D

 20 21  0  0  0  0  0  0  0  0999 V2000
    4.4860   -0.1510   -1.7660 C   0  0  0  0  0  0  0  0  0  0  0  0
    3.1920   -0.4860   -1.3610 O   0  0  0  0  0  0  0  0  0  0  0  0
    2.3970    0.2790   -0.5320 C   0  0  0  0  0  0  0  0  0  0  0  0
    2.9020    1.3430   -0.1330 O   0  0  0  0  0  0  0  0  0  0  0  0
    1.0360   -0.0700   -0.1050 C   0  0  0  0  0  0  0  0  0  0  0  0
    0.4620   -1.2370   -0.4990 C   0  0  0  0  0  0  0  0  0  0  0  0
    1.1820   -2.1930   -1.3700 C   0  0  0  0  0  0  0  0  0  0  0  0
   -0.8710   -1.3820    0.0650 C   0  0  0  0  0  0  0  0  0  0  0  0
   -1.7600   -2.4960   -0.1860 C   0  0  0  0  0  0  0  0  0  0  0  0
   -3.1180   -2.7490    0.2660 C   0  0  0  0  0  0  0  0  0  0  0  0
   -1.2640   -3.4220   -0.9450 O   0  0  0  0  0  0  0  0  0  0  0  0
   -1.0780   -0.2820    0.8140 C   0  0  0  0  0  0  0  0  0  0  0  0
   -2.2380    0.1230    1.6080 C   0  0  0  0  0  0  0  0  0  0  0  0
   -3.0250   -0.8100    2.1920 O   0  0  0  0  0  0  0  0  0  0  0  0
   -2.4670    1.4420    1.7260 C   0  0  0  0  0  0  0  0  0  0  0  0
   -1.5260    2.3500    1.1180 C   0  0  0  0  0  0  0  0  0  0  0  0
   -0.3880    1.9710    0.4840 C   0  0  0  0  0  0  0  0  0  0  0  0
    0.4160    3.0610   -0.1100 C   0  0  0  0  0  0  0  0  0  0  0  0
   -0.2010    4.3340    0.0970 O   0  0  0  0  0  0  0  0  0  0  0  0
    0.0800    0.6030    0.7180 C   0  0  2  0  0  0  0  0  0  0  0  0
  1  2  1  0
  2  3  1  0
  3  4  2  0
  3  5  1  0
  5  6  2  0
 20  5  1  6
  6  7  1  0
  6  8  1  0
  8  9  1  0
  8 12  2  0
  9 10  1  0
  9 11  2  0
 12 13  1  0
 12 20  1  0
 13 14  1  0
 13 15  2  0
 15 16  1  0
 16 17  2  0
 17 18  1  0
 17 20  1  0
 18 19  1  0
M  END
