
     RDKit          3D

 20 22  0  0  0  0  0  0  0  0999 V2000
    3.5300    0.1650   -1.3440 O   0  0  0  0  0  0  0  0  0  0  0  0
    4.2610    0.3020   -0.3490 C   0  0  0  0  0  0  0  0  0  0  0  0
    5.3470    1.1760   -0.4590 O   0  0  0  0  0  0  0  0  0  0  0  0
    4.0300   -0.4110    0.9230 C   0  0  0  0  0  0  0  0  0  0  0  0
    2.8810   -1.1770    0.8150 O   0  0  0  0  0  0  0  0  0  0  0  0
    1.5960   -0.7800    0.5840 C   0  0  0  0  0  0  0  0  0  0  0  0
    1.1810    0.5240    0.4210 C   0  0  0  0  0  0  0  0  0  0  0  0
   -0.1490    0.8460    0.1870 C   0  0  0  0  0  0  0  0  0  0  0  0
   -1.0970   -0.1630    0.1140 C   0  0  0  0  0  0  0  0  0  0  0  0
   -0.6770   -1.4760    0.2790 C   0  0  0  0  0  0  0  0  0  0  0  0
    0.6330   -1.7760    0.5070 C   0  0  0  0  0  0  0  0  0  0  0  0
    1.0060   -3.1070    0.6660 O   0  0  0  0  0  0  0  0  0  0  0  0
   -1.6410   -2.5990    0.2010 C   0  0  0  0  0  0  0  0  0  0  0  0
   -2.9420   -2.2540    0.4360 O   0  0  0  0  0  0  0  0  0  0  0  0
   -3.3360   -1.2160   -0.4110 C   0  0  0  0  0  0  0  0  0  0  0  0
   -2.5380    0.0090   -0.1200 C   0  0  0  0  0  0  0  0  0  0  0  0
   -3.2680    1.0920   -0.1080 C   0  0  0  0  0  0  0  0  0  0  0  0
   -2.9340    2.4900    0.1370 C   0  0  0  0  0  0  0  0  0  0  0  0
   -1.5350    2.8750    0.0290 C   0  0  0  0  0  0  0  0  0  0  0  0
   -0.3580    2.2850    0.0390 C   0  0  0  0  0  0  0  0  0  0  0  0
  1  2  2  0
  2  3  1  0
  2  4  1  0
  4  5  1  0
  5  6  1  0
  6  7  2  0
  6 11  1  0
  7  8  1  0
  8  9  2  0
  8 20  1  0
  9 10  1  0
  9 16  1  0
 10 11  2  0
 10 13  1  0
 11 12  1  0
 13 14  1  0
 14 15  1  0
 15 16  1  0
 16 17  2  0
 17 18  1  0
 18 19  1  0
 19 20  2  0
M  END
