
     RDKit          3D

 20 22  0  0  0  0  0  0  0  0999 V2000
    2.2590   -2.7190    1.0050 O   0  0  0  0  0  0  0  0  0  0  0  0
    2.6310   -1.7330    0.1040 C   0  0  0  0  0  0  0  0  0  0  0  0
    3.9570   -1.3590    0.0270 C   0  0  0  0  0  0  0  0  0  0  0  0
    4.3120   -0.3800   -0.8710 C   0  0  0  0  0  0  0  0  0  0  0  0
    3.3490    0.1830   -1.6470 C   0  0  0  0  0  0  0  0  0  0  0  0
    3.7000    1.1690   -2.5530 O   0  0  0  0  0  0  0  0  0  0  0  0
    2.0010   -0.1630   -1.6020 C   0  0  0  0  0  0  0  0  0  0  0  0
    1.0710    0.4510   -2.4190 O   0  0  0  0  0  0  0  0  0  0  0  0
   -0.2650    0.0950   -2.3390 C   0  0  0  0  0  0  0  0  0  0  0  0
   -0.8990    0.3430   -1.0200 C   0  0  0  0  0  0  0  0  0  0  0  0
   -0.3060    1.1560   -0.0780 C   0  0  0  0  0  0  0  0  0  0  0  0
   -0.9210    1.3740    1.1600 C   0  0  0  0  0  0  0  0  0  0  0  0
   -0.3250    2.1920    2.1090 O   0  0  0  0  0  0  0  0  0  0  0  0
   -2.1380    0.7760    1.4540 C   0  0  0  0  0  0  0  0  0  0  0  0
   -2.7410   -0.0380    0.5210 C   0  0  0  0  0  0  0  0  0  0  0  0
   -2.1030   -0.2320   -0.6930 C   0  0  0  0  0  0  0  0  0  0  0  0
   -4.0420   -0.5640    1.0740 C   0  0  0  0  0  0  0  0  0  0  0  0
   -4.0140   -0.0890    2.4850 C   0  0  0  0  0  0  0  0  0  0  0  0
   -2.9600    0.8180    2.5850 O   0  0  0  0  0  0  0  0  0  0  0  0
    1.6510   -1.1420   -0.7040 C   0  0  0  0  0  0  0  0  0  0  0  0
  1  2  1  0
  2  3  2  0
  2 20  1  0
  3  4  1  0
  4  5  2  0
  5  6  1  0
  5  7  1  0
  7  8  1  0
  7 20  2  0
  8  9  1  0
  9 10  1  0
 10 11  2  0
 10 16  1  0
 11 12  1  0
 12 13  1  0
 12 14  2  0
 14 15  1  0
 14 19  1  0
 15 16  2  0
 15 17  1  0
 17 18  1  0
 18 19  1  0
M  END
