
     RDKit          3D

 20 22  0  0  0  0  0  0  0  0999 V2000
   -0.6230   -0.6940    2.3140 O   0  0  0  0  0  0  0  0  0  0  0  0
    0.2560   -0.4260    1.4270 C   0  0  0  0  0  0  0  0  0  0  0  0
    1.5390   -0.5350    1.6790 O   0  0  0  0  0  0  0  0  0  0  0  0
    2.4300   -0.2530    0.7470 C   0  0  0  0  0  0  0  0  0  0  0  0
    3.7630   -0.3880    1.0750 C   0  0  0  0  0  0  0  0  0  0  0  0
    4.1700   -0.8080    2.3520 O   0  0  0  0  0  0  0  0  0  0  0  0
    4.6940   -0.0950    0.1050 C   0  0  0  0  0  0  0  0  0  0  0  0
    4.3090    0.3200   -1.1550 C   0  0  0  0  0  0  0  0  0  0  0  0
    2.9690    0.4460   -1.4530 C   0  0  0  0  0  0  0  0  0  0  0  0
    2.0010    0.1590   -0.5010 C   0  0  0  0  0  0  0  0  0  0  0  0
    0.6570    0.2830   -0.7970 C   0  0  0  0  0  0  0  0  0  0  0  0
   -0.2450   -0.0200    0.2020 C   0  0  0  0  0  0  0  0  0  0  0  0
   -1.7040    0.0770   -0.0110 C   0  0  0  0  0  0  0  0  0  0  0  0
   -2.5360    0.6790    0.9140 C   0  0  0  0  0  0  0  0  0  0  0  0
   -3.9010    0.7760    0.7330 C   0  0  0  0  0  0  0  0  0  0  0  0
   -4.7160    1.3850    1.6760 O   0  0  0  0  0  0  0  0  0  0  0  0
   -4.4130    0.2400   -0.4300 C   0  0  0  0  0  0  0  0  0  0  0  0
   -3.6200   -0.3650   -1.3720 C   0  0  0  0  0  0  0  0  0  0  0  0
   -2.2560   -0.4380   -1.1440 C   0  0  0  0  0  0  0  0  0  0  0  0
   -1.4190   -1.0430   -2.0750 O   0  0  0  0  0  0  0  0  0  0  0  0
  1  2  2  0
  2  3  1  0
  2 12  1  0
  3  4  1  0
  4  5  2  0
  4 10  1  0
  5  6  1  0
  5  7  1  0
  7  8  2  0
  8  9  1  0
  9 10  2  0
 10 11  1  0
 11 12  2  0
 12 13  1  0
 13 14  2  0
 13 19  1  0
 14 15  1  0
 15 16  1  0
 15 17  2  0
 17 18  1  0
 18 19  2  0
 19 20  1  0
M  END
