
     RDKit          3D

 20 21  0  0  0  0  0  0  0  0999 V2000
   -4.6090    0.6450    1.4890 C   0  0  0  0  0  0  0  0  0  0  0  0
   -3.4960    0.1600    0.6420 C   0  0  0  0  0  0  0  0  0  0  0  0
   -2.3040    0.7400    0.6960 C   0  0  0  0  0  0  0  0  0  0  0  0
   -2.0470    1.8260    1.5470 O   0  0  0  0  0  0  0  0  0  0  0  0
   -1.2170    0.2190   -0.1690 C   0  0  0  0  0  0  0  0  0  0  0  0
    0.0220    0.4110    0.2470 C   0  0  0  0  0  0  0  0  0  0  0  0
    1.1520   -0.0570   -0.5200 C   0  0  0  0  0  0  0  0  0  0  0  0
    2.3930    0.1410   -0.0990 C   0  0  0  0  0  0  0  0  0  0  0  0
    2.6940    0.8250    1.1300 C   0  0  0  0  0  0  0  0  0  0  0  0
    3.9490    1.0170    1.5390 C   0  0  0  0  0  0  0  0  0  0  0  0
    4.9630    0.5370    0.7460 O   0  0  0  0  0  0  0  0  0  0  0  0
    4.2540    1.6990    2.7650 C   0  0  0  0  0  0  0  0  0  0  0  0
    3.3850    2.1680    3.5490 O   0  0  0  0  0  0  0  0  0  0  0  0
    3.3930   -0.3590   -0.9300 O   0  0  0  0  0  0  0  0  0  0  0  0
    3.2010   -1.6210   -1.5350 C   0  0  0  0  0  0  0  0  0  0  0  0
    1.8040   -1.8230   -2.0670 C   0  0  0  0  0  0  0  0  0  0  0  0
    0.9540   -0.7400   -1.7430 O   0  0  0  0  0  0  0  0  0  0  0  0
   -1.5200   -0.4720   -1.4290 C   0  0  0  0  0  0  0  0  0  0  0  0
   -3.0280   -0.5080   -1.6320 C   0  0  0  0  0  0  0  0  0  0  0  0
   -3.6580   -0.9900   -0.3210 C   0  0  0  0  0  0  0  0  0  0  0  0
  1  2  1  0
  2  3  2  0
  2 20  1  0
  3  4  1  0
  3  5  1  0
  5  6  2  3
  5 18  1  0
  6  7  1  0
  7  8  2  0
  7 17  1  0
  8  9  1  0
  8 14  1  0
  9 10  2  3
 10 11  1  0
 10 12  1  0
 12 13  2  0
 14 15  1  0
 15 16  1  0
 16 17  1  0
 18 19  1  0
 19 20  1  0
M  END
