
     RDKit          3D

 20 22  0  0  0  0  0  0  0  0999 V2000
    2.9820   -2.3240    0.1560 C   0  0  0  0  0  0  0  0  0  0  0  0
    2.2740   -1.7260   -0.9170 O   0  0  0  0  0  0  0  0  0  0  0  0
    1.1200   -0.9850   -0.5930 C   0  0  0  0  0  0  0  0  0  0  0  0
    1.2720    0.3740   -0.3300 C   0  0  0  0  0  0  0  0  0  0  0  0
    0.1800    1.1810   -0.0020 C   0  0  0  0  0  0  0  0  0  0  0  0
   -1.0890    0.6010    0.0600 C   0  0  0  0  0  0  0  0  0  0  0  0
   -2.1980    1.3280    0.3730 C   0  0  0  0  0  0  0  0  0  0  0  0
   -3.4290    0.6890    0.4180 C   0  0  0  0  0  0  0  0  0  0  0  0
   -4.5500    1.4380    0.7370 O   0  0  0  0  0  0  0  0  0  0  0  0
   -3.5840   -0.6480    0.1590 C   0  0  0  0  0  0  0  0  0  0  0  0
   -2.4470   -1.3570   -0.1550 C   0  0  0  0  0  0  0  0  0  0  0  0
   -2.5410   -2.7350   -0.4310 O   0  0  0  0  0  0  0  0  0  0  0  0
   -1.1890   -0.7690   -0.2130 C   0  0  0  0  0  0  0  0  0  0  0  0
   -0.1140   -1.5610   -0.5360 C   0  0  0  0  0  0  0  0  0  0  0  0
   -0.2920   -2.9090   -0.7930 O   0  0  0  0  0  0  0  0  0  0  0  0
    0.3520    2.5820    0.2670 C   0  0  0  0  0  0  0  0  0  0  0  0
   -0.5910    3.3320    0.5610 O   0  0  0  0  0  0  0  0  0  0  0  0
    1.7040    3.1760    0.1960 C   0  0  0  0  0  0  0  0  0  0  0  0
    2.7060    2.4000   -0.1120 C   0  0  0  0  0  0  0  0  0  0  0  0
    2.6150    0.9660   -0.4000 C   0  0  0  0  0  0  0  0  0  0  0  0
  1  2  1  0
  2  3  1  0
  3  4  2  0
  3 14  1  0
  4  5  1  0
  4 20  1  0
  5  6  2  0
  5 16  1  0
  6  7  1  0
  6 13  1  0
  7  8  2  0
  8  9  1  0
  8 10  1  0
 10 11  2  0
 11 12  1  0
 11 13  1  0
 13 14  2  0
 14 15  1  0
 16 17  2  0
 16 18  1  0
 18 19  2  0
 19 20  1  0
M  END
