
     RDKit          3D

 29 31  0  0  0  0  0  0  0  0999 V2000
   -1.9470    0.1850   -3.8930 C   0  0  0  0  0  0  0  0  0  0  0  0
   -0.8540   -0.2250   -3.1380 O   0  0  0  0  0  0  0  0  0  0  0  0
   -0.9430   -0.4690   -1.7860 C   0  0  0  0  0  0  0  0  0  0  0  0
   -2.0500   -0.3580   -1.0050 C   0  0  0  0  0  0  0  0  0  0  0  0
   -2.0790   -0.6200    0.3730 C   0  0  0  0  0  0  0  0  0  0  0  0
   -3.3320   -0.4690    1.1220 C   0  0  0  0  0  0  0  0  0  0  0  0
   -3.6150   -1.2580    2.2220 C   0  0  0  0  0  0  0  0  0  0  0  0
   -4.8030   -1.1340    2.9550 C   0  0  0  0  0  0  0  0  0  0  0  0
   -5.0760   -2.0060    4.1390 C   0  0  0  0  0  0  0  0  0  0  0  0
   -5.6880   -0.1740    2.5230 C   0  0  0  0  0  0  0  0  0  0  0  0
   -5.4630    0.6430    1.4350 C   0  0  0  0  0  0  0  0  0  0  0  0
   -6.4940    1.6590    1.0520 C   0  0  0  0  0  0  0  0  0  0  0  0
   -4.2780    0.4750    0.7510 C   0  0  0  0  0  0  0  0  0  0  0  0
   -0.8910   -1.0140    0.9440 C   0  0  0  0  0  0  0  0  0  0  0  0
    0.2540   -1.1430    0.2100 C   0  0  0  0  0  0  0  0  0  0  0  0
    1.5510   -1.5680    0.8270 C   0  0  1  0  0  0  0  0  0  0  0  0
    1.8760   -3.0020    0.4070 C   0  0  0  0  0  0  0  0  0  0  0  0
    2.6670   -0.7270    0.3960 C   0  0  0  0  0  0  0  0  0  0  0  0
    3.5790   -0.0250    0.0350 C   0  0  0  0  0  0  0  0  0  0  0  0
    4.6700    0.8130   -0.4230 C   0  0  0  0  0  0  0  0  0  0  0  0
    4.4860    2.1000   -0.8820 C   0  0  0  0  0  0  0  0  0  0  0  0
    3.1150    2.6620   -0.9110 C   0  0  0  0  0  0  0  0  0  0  0  0
    5.5120    2.8540   -1.3030 N   0  0  0  0  0  0  0  0  0  0  0  0
    6.7730    2.3820   -1.2930 C   0  0  0  0  0  0  0  0  0  0  0  0
    7.8470    3.2050   -1.7460 N   0  0  0  0  0  0  0  0  0  0  0  0
    6.9530    1.1370   -0.8490 N   0  0  0  0  0  0  0  0  0  0  0  0
    5.9760    0.3320   -0.4150 C   0  0  0  0  0  0  0  0  0  0  0  0
    6.2010   -0.9780    0.0500 N   0  0  0  0  0  0  0  0  0  0  0  0
    0.2330   -0.8760   -1.1370 C   0  0  0  0  0  0  0  0  0  0  0  0
  1  2  1  0
  2  3  1  0
  3  4  2  0
  3 29  1  0
  4  5  1  0
  5  6  1  0
  5 14  2  0
  6  7  2  0
  6 13  1  0
  7  8  1  0
  8  9  1  0
  8 10  2  0
 10 11  1  0
 11 12  1  0
 11 13  2  0
 14 15  1  0
 15 16  1  0
 15 29  2  0
 16 17  1  6
 16 18  1  0
 18 19  3  0
 19 20  1  0
 20 21  2  0
 20 27  1  0
 21 22  1  0
 21 23  1  0
 23 24  2  0
 24 25  1  0
 24 26  1  0
 26 27  2  0
 27 28  1  0
M  END
