
     RDKit          3D

 30 31  0  0  0  0  0  0  0  0999 V2000
   -5.7310    3.5150   -0.5460 C   0  0  0  0  0  0  0  0  0  0  0  0
   -5.7940    2.2000    0.2420 C   0  0  1  0  0  0  0  0  0  0  0  0
   -6.8670    1.3850   -0.3480 C   0  0  0  0  0  0  0  0  0  0  0  0
   -6.3680    0.7020   -1.3130 N   0  0  0  0  0  0  0  0  0  0  0  0
   -5.0250    0.9650   -1.4580 O   0  0  0  0  0  0  0  0  0  0  0  0
   -4.5810    1.3990   -0.1800 C   0  0  2  0  0  0  0  0  0  0  0  0
   -4.3350    0.2240    0.6360 C   0  0  0  0  0  0  0  0  0  0  0  0
   -5.1210   -0.1000    1.7170 C   0  0  0  0  0  0  0  0  0  0  0  0
   -4.8950   -1.2100    2.4980 C   0  0  0  0  0  0  0  0  0  0  0  0
   -5.7290   -1.5010    3.5970 N   0  0  0  0  0  0  0  0  0  0  0  0
   -3.8580   -2.0220    2.1990 C   0  0  0  0  0  0  0  0  0  0  0  0
   -3.0350   -1.7360    1.1160 C   0  0  0  0  0  0  0  0  0  0  0  0
   -3.2770   -0.6160    0.3410 C   0  0  0  0  0  0  0  0  0  0  0  0
   -2.4690   -0.3070   -0.7560 N   0  0  0  0  0  0  0  0  0  0  0  0
   -1.3430   -0.9770   -1.2580 C   0  0  0  0  0  0  0  0  0  0  0  0
   -0.9410   -2.0130   -0.6950 O   0  0  0  0  0  0  0  0  0  0  0  0
   -0.6550   -0.4680   -2.4220 N   0  0  0  0  0  0  0  0  0  0  0  0
    0.4880   -1.1530   -2.9290 C   0  0  0  0  0  0  0  0  0  0  0  0
    1.6140   -1.2580   -1.9450 C   0  0  0  0  0  0  0  0  0  0  0  0
    2.1020    0.0230   -1.5080 N   0  0  0  0  0  0  0  0  0  0  0  0
    3.1760    0.0270   -0.5690 C   0  0  0  0  0  0  0  0  0  0  0  0
    3.6580   -1.0680   -0.1570 O   0  0  0  0  0  0  0  0  0  0  0  0
    3.7520    1.2200   -0.0570 N   0  0  0  0  0  0  0  0  0  0  0  0
    4.8450    1.1750    0.8980 C   0  0  0  0  0  0  0  0  0  0  0  0
    6.0350    0.4590    0.3080 C   0  0  0  0  0  0  0  0  0  0  0  0
    5.9570    0.0210   -0.8410 O   0  0  0  0  0  0  0  0  0  0  0  0
    7.1690    0.3310    1.0990 N   0  0  0  0  0  0  0  0  0  0  0  0
    8.3620   -0.3230    0.6930 C   0  0  0  0  0  0  0  0  0  0  0  0
    8.1900   -1.7720    0.4160 C   0  0  0  0  0  0  0  0  0  0  0  0
    7.2970   -2.0520   -0.5830 O   0  0  0  0  0  0  0  0  0  0  0  0
  2  1  1  6
  2  3  1  0
  2  6  1  0
  3  4  2  0
  4  5  1  0
  5  6  1  0
  6  7  1  1
  7  8  2  0
  7 13  1  0
  8  9  1  0
  9 10  1  0
  9 11  2  0
 11 12  1  0
 12 13  2  0
 13 14  1  0
 14 15  1  0
 15 16  2  0
 15 17  1  0
 17 18  1  0
 18 19  1  0
 19 20  1  0
 20 21  1  0
 21 22  2  0
 21 23  1  0
 23 24  1  0
 24 25  1  0
 25 26  2  0
 25 27  1  0
 27 28  1  0
 28 29  1  0
 29 30  1  0
M  END
