
     RDKit          3D

 30 31  0  0  0  0  0  0  0  0999 V2000
    7.8770   -0.1520   -2.0290 C   0  0  0  0  0  0  0  0  0  0  0  0
    6.8410    0.8350   -1.9240 O   0  0  0  0  0  0  0  0  0  0  0  0
    5.5200    0.4900   -1.7620 C   0  0  0  0  0  0  0  0  0  0  0  0
    5.2530   -0.7470   -1.7080 O   0  0  0  0  0  0  0  0  0  0  0  0
    4.4330    1.4980   -1.6530 C   0  0  0  0  0  0  0  0  0  0  0  0
    4.2010    1.9200    0.0910 S   0  0  0  0  0  0  0  0  0  0  0  0
    3.5690    0.4850    1.0290 C   0  0  0  0  0  0  0  0  0  0  0  0
    2.1980    0.1950    0.5230 C   0  0  0  0  0  0  0  0  0  0  0  0
    1.5110   -0.9540    1.1730 C   0  0  1  0  0  0  0  0  0  0  0  0
    2.2180   -2.2610    1.0320 C   0  0  0  0  0  0  0  0  0  0  0  0
    1.1950   -0.6570    2.5440 N   0  0  0  0  0  0  0  0  0  0  0  0
    0.0770    0.3160    2.4710 C   0  0  0  0  0  0  0  0  0  0  0  0
   -0.6840   -0.0880    1.3170 C   0  0  0  0  0  0  0  0  0  0  0  0
   -1.9330    0.3070    0.9110 C   0  0  0  0  0  0  0  0  0  0  0  0
   -2.4330   -0.2880   -0.3040 C   0  0  0  0  0  0  0  0  0  0  0  0
   -3.4600   -0.1550   -1.0210 C   0  0  0  0  0  0  0  0  0  0  0  0
   -4.5320    0.7650   -0.7850 C   0  0  0  0  0  0  0  0  0  0  0  0
   -5.8520    0.5700   -0.8520 C   0  0  0  0  0  0  0  0  0  0  0  0
   -6.6920    1.7460   -0.5370 C   0  0  0  0  0  0  0  0  0  0  0  0
   -6.4930   -0.6370   -1.1950 O   0  0  0  0  0  0  0  0  0  0  0  0
   -6.1120   -1.5210   -2.2350 C   0  0  0  0  0  0  0  0  0  0  0  0
   -6.9980   -2.2140   -2.7620 O   0  0  0  0  0  0  0  0  0  0  0  0
   -4.7730   -1.6890   -2.7420 N   0  0  0  0  0  0  0  0  0  0  0  0
   -3.5680   -1.1380   -2.1690 C   0  0  0  0  0  0  0  0  0  0  0  0
   -2.4760   -1.4740   -2.6280 O   0  0  0  0  0  0  0  0  0  0  0  0
   -2.5890    1.2120    1.7990 C   0  0  0  0  0  0  0  0  0  0  0  0
   -1.9870    1.7520    2.9950 N   0  0  0  0  0  0  0  0  0  0  0  0
   -3.7760    1.6090    1.5820 O   0  0  0  0  0  0  0  0  0  0  0  0
    0.1110   -1.0480    0.5140 C   0  0  2  0  0  0  0  0  0  0  0  0
   -0.3380   -2.3460    0.5700 O   0  0  0  0  0  0  0  0  0  0  0  0
  1  2  1  0
  2  3  1  0
  3  4  2  0
  3  5  1  0
  5  6  1  0
  6  7  1  0
  7  8  1  0
  8  9  1  0
  9 10  1  1
  9 11  1  0
  9 29  1  0
 11 12  1  0
 12 13  1  0
 13 14  2  3
 13 29  1  0
 14 15  1  0
 14 26  1  0
 15 16  2  3
 16 17  1  0
 16 24  1  0
 17 18  2  0
 18 19  1  0
 18 20  1  0
 20 21  1  0
 21 22  2  0
 21 23  1  0
 23 24  1  0
 24 25  2  0
 26 27  1  0
 26 28  2  0
 29 30  1  1
M  CHG  2  11   1  30  -1
M  END
