
     RDKit          3D

 30 32  0  0  0  0  0  0  0  0999 V2000
    2.5490   -3.4000    0.8370 C   0  0  0  0  0  0  0  0  0  0  0  0
    2.2510   -2.1420    0.0910 N   0  0  0  0  0  0  0  0  0  0  0  0
    0.9880   -1.5470    0.1820 C   0  0  0  0  0  0  0  0  0  0  0  0
    0.0850   -2.1300    0.8770 O   0  0  0  0  0  0  0  0  0  0  0  0
    0.6350   -0.2960   -0.4560 C   0  0  0  0  0  0  0  0  0  0  0  0
    1.5500    0.6180   -0.9650 C   0  0  0  0  0  0  0  0  0  0  0  0
    2.9540    0.4480   -1.4070 C   0  0  0  0  0  0  0  0  0  0  0  0
    3.8090    0.7030   -0.2550 N   0  0  0  0  0  0  0  0  0  0  0  0
    5.2310    0.8500   -0.4090 C   0  0  0  0  0  0  0  0  0  0  0  0
    5.7750    0.8520   -1.5290 O   0  0  0  0  0  0  0  0  0  0  0  0
    6.0790    0.9900    0.7540 N   0  0  0  0  0  0  0  0  0  0  0  0
    7.4400    1.2220    0.7130 C   0  0  0  0  0  0  0  0  0  0  0  0
    8.2300    1.5630   -0.3230 C   0  0  0  0  0  0  0  0  0  0  0  0
    9.5630    1.6130    0.0900 C   0  0  0  0  0  0  0  0  0  0  0  0
    9.5230    1.2990    1.3990 N   0  0  0  0  0  0  0  0  0  0  0  0
    8.2670    1.0560    1.8080 N   0  0  0  0  0  0  0  0  0  0  0  0
    0.7690    1.7640   -1.2710 C   0  0  0  0  0  0  0  0  0  0  0  0
   -0.4920    1.5140   -0.9640 N   0  0  0  0  0  0  0  0  0  0  0  0
   -0.6450    0.2800   -0.4600 C   0  0  0  0  0  0  0  0  0  0  0  0
   -1.8440   -0.2770    0.0230 N   0  0  0  0  0  0  0  0  0  0  0  0
   -3.1270    0.3610   -0.0270 C   0  0  0  0  0  0  0  0  0  0  0  0
   -3.1980    1.4870   -0.5840 O   0  0  0  0  0  0  0  0  0  0  0  0
   -4.3680   -0.2480    0.5420 C   0  0  2  0  0  0  0  0  0  0  0  0
   -4.8250   -1.4940   -0.1140 C   0  0  0  0  0  0  0  0  0  0  0  0
   -6.3440   -1.3170   -0.3260 C   0  0  1  0  0  0  0  0  0  0  0  0
   -7.0170   -1.6510    0.8430 O   0  0  0  0  0  0  0  0  0  0  0  0
   -6.4790    0.1920   -0.4650 C   0  0  1  0  0  0  0  0  0  0  0  0
   -7.8250    0.6980   -0.0700 C   0  0  0  0  0  0  0  0  0  0  0  0
   -8.8080    0.1080   -0.9010 O   0  0  0  0  0  0  0  0  0  0  0  0
   -5.4700    0.7750    0.4790 C   0  0  0  0  0  0  0  0  0  0  0  0
  1  2  1  0
  2  3  1  0
  3  4  2  0
  3  5  1  0
  5  6  1  0
  5 19  2  0
  6  7  1  0
  6 17  2  0
  7  8  1  0
  8  9  1  0
  9 10  2  0
  9 11  1  0
 11 12  1  0
 12 13  1  0
 12 16  2  0
 13 14  2  0
 14 15  1  0
 15 16  1  0
 17 18  1  0
 18 19  1  0
 19 20  1  0
 20 21  1  0
 21 22  2  0
 23 21  1  6
 23 24  1  0
 23 30  1  0
 24 25  1  0
 25 26  1  1
 25 27  1  0
 27 28  1  1
 27 30  1  0
 28 29  1  0
M  END
