
     RDKit          3D

 31 32  0  0  0  0  0  0  0  0999 V2000
    7.9510    1.2590   -1.6630 C   0  0  0  0  0  0  0  0  0  0  0  0
    6.8240    1.5080   -0.8520 O   0  0  0  0  0  0  0  0  0  0  0  0
    5.6210    0.8380   -0.9970 C   0  0  0  0  0  0  0  0  0  0  0  0
    5.4980   -0.0410   -1.8870 O   0  0  0  0  0  0  0  0  0  0  0  0
    4.4770    1.1270   -0.1350 C   0  0  0  0  0  0  0  0  0  0  0  0
    4.4860    2.0680    0.8720 C   0  0  0  0  0  0  0  0  0  0  0  0
    3.2290    2.0330    1.4370 C   0  0  0  0  0  0  0  0  0  0  0  0
    2.4560    1.0920    0.7970 C   0  0  0  0  0  0  0  0  0  0  0  0
    1.0730    0.7740    1.1150 C   0  0  0  0  0  0  0  0  0  0  0  0
    0.4940    1.3940    2.0530 O   0  0  0  0  0  0  0  0  0  0  0  0
    0.3090   -0.1970    0.4410 N   0  0  0  0  0  0  0  0  0  0  0  0
   -1.0530   -0.4650    0.8010 C   0  0  2  0  0  0  0  0  0  0  0  0
   -1.2610   -1.8470    1.2990 C   0  0  0  0  0  0  0  0  0  0  0  0
   -0.7250   -2.9530    0.6730 C   0  0  0  0  0  0  0  0  0  0  0  0
   -0.9650   -4.1910    1.2030 C   0  0  0  0  0  0  0  0  0  0  0  0
   -0.4370   -5.3140    0.5920 O   0  0  0  0  0  0  0  0  0  0  0  0
   -1.6860   -4.3850    2.2850 O   0  0  0  0  0  0  0  0  0  0  0  0
   -2.2280   -3.3770    2.9340 C   0  0  0  0  0  0  0  0  0  0  0  0
   -2.9350   -3.5600    3.9940 N   0  0  0  0  0  0  0  0  0  0  0  0
   -3.4970   -2.5140    4.6650 O   0  0  0  0  0  0  0  0  0  0  0  0
   -2.0090   -2.1150    2.4310 C   0  0  0  0  0  0  0  0  0  0  0  0
   -1.9980   -0.1260   -0.3470 C   0  0  2  0  0  0  0  0  0  0  0  0
   -3.3960   -0.4490    0.1570 C   0  0  0  0  0  0  0  0  0  0  0  0
   -1.7260   -1.0670   -1.4980 C   0  0  0  0  0  0  0  0  0  0  0  0
   -1.7720    1.5880   -0.7560 S   0  0  0  0  0  0  0  0  0  0  0  0
   -2.7770    2.2020   -2.0890 C   0  0  1  0  0  0  0  0  0  0  0  0
   -4.2420    2.2420   -1.8170 C   0  0  0  0  0  0  0  0  0  0  0  0
   -2.3280    3.5920   -2.4040 C   0  0  0  0  0  0  0  0  0  0  0  0
   -1.8940    3.9500   -3.5120 O   0  0  0  0  0  0  0  0  0  0  0  0
   -2.4080    4.5240   -1.3870 O   0  0  0  0  0  0  0  0  0  0  0  0
    3.2540    0.5680   -0.1500 N   0  0  0  0  0  0  0  0  0  0  0  0
  1  2  1  0
  2  3  1  0
  3  4  2  0
  3  5  1  0
  5  6  2  0
  5 31  1  0
  6  7  1  0
  7  8  2  0
  8  9  1  0
  8 31  1  0
  9 10  2  0
  9 11  1  0
 12 11  1  6
 12 13  1  0
 12 22  1  0
 13 14  1  0
 13 21  2  0
 14 15  2  0
 15 16  1  0
 15 17  1  0
 17 18  1  0
 18 19  2  3
 18 21  1  0
 19 20  1  0
 22 23  1  1
 22 24  1  0
 22 25  1  0
 25 26  1  0
 26 27  1  1
 26 28  1  0
 28 29  2  0
 28 30  1  0
M  CHG  2  19   1  20  -1
M  END
