
     RDKit          3D

 30 32  0  0  0  0  0  0  0  0999 V2000
    5.5180    2.5700    1.6530 C   0  0  0  0  0  0  0  0  0  0  0  0
    5.1270    1.4430    0.8320 N   0  0  0  0  0  0  0  0  0  0  0  0
    3.8040    1.2320    0.4170 C   0  0  0  0  0  0  0  0  0  0  0  0
    2.9380    2.0680    0.7810 O   0  0  0  0  0  0  0  0  0  0  0  0
    3.3520    0.1060   -0.4130 C   0  0  1  0  0  0  0  0  0  0  0  0
    3.4580   -1.1860    0.3770 C   0  0  0  0  0  0  0  0  0  0  0  0
    2.2810   -1.0280    1.3150 C   0  0  0  0  0  0  0  0  0  0  0  0
    1.3280   -0.2080    0.4780 C   0  0  2  0  0  0  0  0  0  0  0  0
    0.1100   -1.0730    0.2160 C   0  0  0  0  0  0  0  0  0  0  0  0
   -0.8570   -0.4320   -0.6090 N   0  0  0  0  0  0  0  0  0  0  0  0
   -2.0580   -1.0920   -0.9550 C   0  0  0  0  0  0  0  0  0  0  0  0
   -2.2530   -2.2500   -0.5190 O   0  0  0  0  0  0  0  0  0  0  0  0
   -3.0830   -0.4210   -1.8260 C   0  0  2  0  0  0  0  0  0  0  0  0
   -3.3990    0.9150   -1.2330 C   0  0  0  0  0  0  0  0  0  0  0  0
   -4.2830    0.7570    0.0100 C   0  0  0  0  0  0  0  0  0  0  0  0
   -5.4940    0.0370   -0.4480 C   0  0  0  0  0  0  0  0  0  0  0  0
   -6.7180    0.4790   -0.2310 C   0  0  0  0  0  0  0  0  0  0  0  0
   -6.8570    1.7030    0.4770 N   0  0  0  0  0  0  0  0  0  0  0  0
   -6.4030    1.5800    1.7670 O   0  0  0  0  0  0  0  0  0  0  0  0
   -5.3010   -1.2100   -1.1680 C   0  0  0  0  0  0  0  0  0  0  0  0
   -6.1140   -2.2380   -1.0480 C   0  0  0  0  0  0  0  0  0  0  0  0
   -5.8860   -3.4220   -1.7670 O   0  0  0  0  0  0  0  0  0  0  0  0
   -7.2090   -2.2090   -0.2280 O   0  0  0  0  0  0  0  0  0  0  0  0
   -4.1760   -1.2620   -2.0180 O   0  0  0  0  0  0  0  0  0  0  0  0
    1.9910    0.1470   -0.6800 O   0  0  0  0  0  0  0  0  0  0  0  0
    6.2210    0.5440    0.4700 C   0  0  0  0  0  0  0  0  0  0  0  0
    6.6730    0.2540   -0.8200 C   0  0  0  0  0  0  0  0  0  0  0  0
    7.6780   -0.5860   -0.9550 C   0  0  0  0  0  0  0  0  0  0  0  0
    8.2610   -1.1560    0.1370 C   0  0  0  0  0  0  0  0  0  0  0  0
    7.2510   -0.3990    1.4870 S   0  0  0  0  0  0  0  0  0  0  0  0
  1  2  1  0
  2  3  1  0
  2 26  1  0
  3  4  2  0
  5  3  1  1
  5  6  1  0
  5 25  1  0
  6  7  1  0
  7  8  1  0
  8  9  1  6
  8 25  1  0
  9 10  1  0
 10 11  1  0
 11 12  2  0
 13 11  1  1
 13 14  1  0
 13 24  1  0
 14 15  1  0
 15 16  1  0
 16 17  2  3
 16 20  1  0
 17 18  1  0
 18 19  1  0
 20 21  2  3
 20 24  1  0
 21 22  1  0
 21 23  1  0
 26 27  2  0
 26 30  1  0
 27 28  1  0
 28 29  2  0
 29 30  1  0
M  CHG  2  18   1  22  -1
M  END
