
     RDKit          3D

 30 31  0  0  0  0  0  0  0  0999 V2000
    3.9370   -0.9190   -4.2670 O   0  0  0  0  0  0  0  0  0  0  0  0
    3.6340   -1.9910   -3.1860 P   0  0  0  0  0  0  0  0  0  0  0  0
    2.8020   -1.4840   -1.6640 N   0  0  0  0  0  0  0  0  0  0  0  0
    2.1150   -0.2430   -1.5620 C   0  0  0  0  0  0  0  0  0  0  0  0
    2.1080    0.4970   -2.5790 O   0  0  0  0  0  0  0  0  0  0  0  0
    1.4300    0.1440   -0.2680 C   0  0  1  0  0  0  0  0  0  0  0  0
    2.4350    0.1770    0.8610 C   0  0  0  0  0  0  0  0  0  0  0  0
    3.4910    1.0430    0.5860 O   0  0  0  0  0  0  0  0  0  0  0  0
    4.6370    1.0750    1.8840 P   0  0  0  0  0  0  0  0  0  0  0  0
    6.1220    1.7910    1.3420 O   0  0  0  0  0  0  0  0  0  0  0  0
    4.9760   -0.5170    2.4780 O   0  0  0  0  0  0  0  0  0  0  0  0
    0.8520    1.4330   -0.5230 N   0  0  0  0  0  0  0  0  0  0  0  0
   -0.4990    1.1480   -0.8810 C   0  0  0  0  0  0  0  0  0  0  0  0
   -1.2010    1.7300   -1.7670 O   0  0  0  0  0  0  0  0  0  0  0  0
   -0.8210    0.0480    0.0150 C   0  0  1  0  0  0  0  0  0  0  0  0
   -1.2030    0.4470    1.3760 C   0  0  0  0  0  0  0  0  0  0  0  0
   -2.3600    1.2000    1.4530 O   0  0  0  0  0  0  0  0  0  0  0  0
   -2.6290    2.4780    1.1090 C   0  0  0  0  0  0  0  0  0  0  0  0
   -1.7210    3.1880    0.6490 O   0  0  0  0  0  0  0  0  0  0  0  0
   -3.8870    3.0770    1.2370 O   0  0  0  0  0  0  0  0  0  0  0  0
   -4.1060    4.7510    0.7530 P   0  0  0  0  0  0  0  0  0  0  0  0
   -5.3160    5.5430    1.3380 O   0  0  0  0  0  0  0  0  0  0  0  0
   -1.8490   -0.8840   -0.5140 C   0  0  0  0  0  0  0  0  0  0  0  0
   -2.4110   -0.7470   -1.6510 N   0  0  0  0  0  0  0  0  0  0  0  0
   -3.4020   -1.6620   -2.1390 C   0  0  0  0  0  0  0  0  0  0  0  0
   -3.9370   -1.5070   -3.2540 O   0  0  0  0  0  0  0  0  0  0  0  0
   -3.7920   -2.7730   -1.3460 N   0  0  0  0  0  0  0  0  0  0  0  0
   -3.3540   -2.8390    0.0190 C   0  0  0  0  0  0  0  0  0  0  0  0
   -2.2220   -1.9880    0.3000 N   0  0  0  0  0  0  0  0  0  0  0  0
    0.3840   -0.6940    0.0060 O   0  0  0  0  0  0  0  0  0  0  0  0
  1  2  2  0
  2  3  1  0
  3  4  1  0
  4  5  2  0
  4  6  1  0
  6  7  1  1
  6 12  1  0
  6 30  1  0
  7  8  1  0
  8  9  1  0
  9 10  1  0
  9 11  1  0
 12 13  1  0
 13 14  2  0
 13 15  1  0
 15 16  1  1
 15 23  1  0
 15 30  1  0
 16 17  1  0
 17 18  1  0
 18 19  2  0
 18 20  1  0
 20 21  1  0
 21 22  2  0
 23 24  2  0
 23 29  1  0
 24 25  1  0
 25 26  2  0
 25 27  1  0
 27 28  1  0
 28 29  1  0
M  END
