
     RDKit          3D

 31 33  0  0  0  0  0  0  0  0999 V2000
   -8.1910   -1.1190   -0.8570 N   0  0  0  0  0  0  0  0  0  0  0  0
   -6.9860   -0.7590   -0.2050 C   0  0  0  0  0  0  0  0  0  0  0  0
   -6.8910   -0.8080    1.1340 N   0  0  0  0  0  0  0  0  0  0  0  0
   -5.7630   -0.4730    1.7800 C   0  0  0  0  0  0  0  0  0  0  0  0
   -4.6960   -0.0760    1.0690 N   0  0  0  0  0  0  0  0  0  0  0  0
   -4.6910    0.0060   -0.2520 C   0  0  0  0  0  0  0  0  0  0  0  0
   -5.8730   -0.3470   -0.9090 C   0  0  0  0  0  0  0  0  0  0  0  0
   -5.6280   -0.1870   -2.2120 N   0  0  0  0  0  0  0  0  0  0  0  0
   -4.3620    0.2430   -2.3590 C   0  0  0  0  0  0  0  0  0  0  0  0
   -3.7630    0.3690   -1.1660 N   0  0  0  0  0  0  0  0  0  0  0  0
   -2.4260    0.7980   -0.9250 C   0  0  2  0  0  0  0  0  0  0  0  0
   -1.5000   -0.2660   -0.8770 O   0  0  0  0  0  0  0  0  0  0  0  0
   -0.3270    0.3620   -0.5260 C   0  0  2  0  0  0  0  0  0  0  0  0
    0.6360   -0.5720    0.1850 C   0  0  0  0  0  0  0  0  0  0  0  0
    1.7950    0.1390    0.5060 O   0  0  0  0  0  0  0  0  0  0  0  0
    2.9200   -0.8120    1.2970 P   0  0  1  0  0  0  0  0  0  0  0  0
    2.4760   -1.1640    2.7060 O   0  0  0  0  0  0  0  0  0  0  0  0
    3.2210   -2.2660    0.4880 O   0  0  0  0  0  0  0  0  0  0  0  0
    4.3720    0.0650    1.3810 O   0  0  0  0  0  0  0  0  0  0  0  0
    5.6090   -0.6800    0.5290 P   0  0  2  0  0  0  0  0  0  0  0  0
    5.0810   -1.6740   -0.4660 O   0  0  0  0  0  0  0  0  0  0  0  0
    6.7120   -1.4650    1.5450 O   0  0  0  0  0  0  0  0  0  0  0  0
    6.4580    0.5030   -0.3560 O   0  0  0  0  0  0  0  0  0  0  0  0
    8.1210    0.3490   -0.1550 P   0  0  2  0  0  0  0  0  0  0  0  0
    8.6150    1.1920    1.0210 O   0  0  0  0  0  0  0  0  0  0  0  0
    8.8910    0.9670   -1.5490 O   0  0  0  0  0  0  0  0  0  0  0  0
    8.6050   -1.2530    0.0370 O   0  0  0  0  0  0  0  0  0  0  0  0
   -0.6650    1.4740    0.4480 C   0  0  1  0  0  0  0  0  0  0  0  0
   -0.2770    2.7190   -0.0020 O   0  0  0  0  0  0  0  0  0  0  0  0
   -2.1990    1.4050    0.4450 C   0  0  1  0  0  0  0  0  0  0  0  0
   -2.7800    2.6320    0.5930 O   0  0  0  0  0  0  0  0  0  0  0  0
  1  2  1  0
  2  3  2  0
  2  7  1  0
  3  4  1  0
  4  5  2  0
  5  6  1  0
  6  7  2  0
  6 10  1  0
  7  8  1  0
  8  9  2  0
  9 10  1  0
 11 10  1  1
 11 12  1  0
 11 30  1  0
 12 13  1  0
 13 14  1  1
 13 28  1  0
 14 15  1  0
 15 16  1  0
 16 17  2  0
 16 18  1  6
 16 19  1  0
 19 20  1  0
 20 21  2  0
 20 22  1  1
 20 23  1  0
 23 24  1  0
 24 25  2  0
 24 26  1  6
 24 27  1  0
 28 29  1  6
 28 30  1  0
 30 31  1  6
M  END
