
     RDKit          3D

 31 33  0  0  0  0  0  0  0  0999 V2000
   -0.7920   -3.6790   -0.4390 O   0  0  0  0  0  0  0  0  0  0  0  0
   -1.5080   -2.6410   -0.3440 C   0  0  0  0  0  0  0  0  0  0  0  0
   -0.9520   -1.3510   -0.3730 O   0  0  0  0  0  0  0  0  0  0  0  0
   -1.8290   -0.3110    0.0100 C   0  0  1  0  0  0  0  0  0  0  0  0
   -2.0630   -0.2820    1.4680 C   0  0  0  0  0  0  0  0  0  0  0  0
   -1.5360   -1.0960    2.2770 O   0  0  0  0  0  0  0  0  0  0  0  0
   -2.9070    0.6950    1.9700 O   0  0  0  0  0  0  0  0  0  0  0  0
   -1.3740    1.0270   -0.4270 C   0  0  0  0  0  0  0  0  0  0  0  0
   -0.1680    1.4990   -0.4680 N   0  0  0  0  0  0  0  0  0  0  0  0
    0.8460    0.6710   -0.0570 O   0  0  0  0  0  0  0  0  0  0  0  0
    1.6410    0.9600    1.4840 P   0  0  0  0  0  0  0  0  0  0  0  0
    1.6920    2.6400    1.8840 O   0  0  0  0  0  0  0  0  0  0  0  0
    3.2520    0.3500    1.3820 O   0  0  0  0  0  0  0  0  0  0  0  0
    3.9070    0.7730   -0.1590 P   0  0  0  0  0  0  0  0  0  0  0  0
    4.3800    2.4420   -0.0870 O   0  0  0  0  0  0  0  0  0  0  0  0
    5.3410   -0.2700   -0.4780 N   0  0  0  0  0  0  0  0  0  0  0  0
    5.9180   -1.2610    0.4230 C   0  0  0  0  0  0  0  0  0  0  0  0
    7.3850   -1.2080    0.0240 C   0  0  0  0  0  0  0  0  0  0  0  0
    7.3180   -1.0550   -1.3760 O   0  0  0  0  0  0  0  0  0  0  0  0
    6.1590   -0.3200   -1.6430 C   0  0  0  0  0  0  0  0  0  0  0  0
    5.8370    0.2360   -2.7280 O   0  0  0  0  0  0  0  0  0  0  0  0
   -2.5580    1.7310   -0.8120 N   0  0  0  0  0  0  0  0  0  0  0  0
   -3.5380    0.9070   -0.9470 C   0  0  0  0  0  0  0  0  0  0  0  0
   -4.8580    1.3120   -1.3270 N   0  0  0  0  0  0  0  0  0  0  0  0
   -5.5280    2.9080   -0.8550 P   0  0  0  0  0  0  0  0  0  0  0  0
   -6.3520    2.6930    0.6740 O   0  0  0  0  0  0  0  0  0  0  0  0
   -4.2120    4.0130   -0.5560 O   0  0  0  0  0  0  0  0  0  0  0  0
   -3.1110   -0.4210   -0.6670 N   0  0  0  0  0  0  0  0  0  0  0  0
   -3.7170   -1.6830   -0.9370 C   0  0  0  0  0  0  0  0  0  0  0  0
   -2.9650   -2.7720   -0.1990 C   0  0  1  0  0  0  0  0  0  0  0  0
   -3.3470   -4.0430   -0.6560 O   0  0  0  0  0  0  0  0  0  0  0  0
  1  2  2  0
  2  3  1  0
  2 30  1  0
  3  4  1  0
  4  5  1  1
  4  8  1  0
  4 28  1  0
  5  6  2  0
  5  7  1  0
  8  9  2  3
  8 22  1  0
  9 10  1  0
 10 11  1  0
 11 12  1  0
 11 13  1  0
 13 14  1  0
 14 15  1  0
 14 16  1  0
 16 17  1  0
 16 20  1  0
 17 18  1  0
 18 19  1  0
 19 20  1  0
 20 21  2  0
 22 23  2  0
 23 24  1  0
 23 28  1  0
 24 25  1  0
 25 26  1  0
 25 27  1  0
 28 29  1  0
 29 30  1  0
 30 31  1  6
M  END
