
     RDKit          3D

 30 31  0  0  0  0  0  0  0  0999 V2000
    3.8400    1.9060    1.1440 N   0  0  0  0  0  0  0  0  0  0  0  0
    3.1790    1.6120    0.1000 C   0  0  0  0  0  0  0  0  0  0  0  0
    3.3280    2.4160   -1.0610 N   0  0  0  0  0  0  0  0  0  0  0  0
    4.0220    4.0780   -0.8600 P   0  0  0  0  0  0  0  0  0  0  0  0
    3.3900    5.1630   -2.0460 O   0  0  0  0  0  0  0  0  0  0  0  0
    3.6350    4.6740    0.7270 O   0  0  0  0  0  0  0  0  0  0  0  0
    2.2980    0.4730    0.1260 N   0  0  0  0  0  0  0  0  0  0  0  0
    0.8750    0.6440    0.0040 C   0  0  0  0  0  0  0  0  0  0  0  0
    0.0950   -0.6070    0.0460 C   0  0  0  0  0  0  0  0  0  0  0  0
    0.7040   -1.6940    0.1790 O   0  0  0  0  0  0  0  0  0  0  0  0
   -1.3240   -0.5780   -0.0620 N   0  0  0  0  0  0  0  0  0  0  0  0
   -2.1560   -1.7580   -0.0200 C   0  0  0  0  0  0  0  0  0  0  0  0
   -3.4670   -1.2640   -0.5690 C   0  0  1  0  0  0  0  0  0  0  0  0
   -3.3830   -1.1880   -1.9500 O   0  0  0  0  0  0  0  0  0  0  0  0
   -4.6260   -2.1420   -0.2080 C   0  0  0  0  0  0  0  0  0  0  0  0
   -4.8280   -2.3060    1.1970 N   0  0  0  0  0  0  0  0  0  0  0  0
   -3.5600    0.1100    0.0600 C   0  0  2  0  0  0  0  0  0  0  0  0
   -4.4980    0.9200   -0.5220 O   0  0  0  0  0  0  0  0  0  0  0  0
   -4.0590    2.2240   -0.7470 C   0  0  0  0  0  0  0  0  0  0  0  0
   -3.1140    2.1300   -1.8300 O   0  0  0  0  0  0  0  0  0  0  0  0
   -2.1820    1.0880   -1.6410 C   0  0  0  0  0  0  0  0  0  0  0  0
   -1.4770    0.6230   -2.5660 O   0  0  0  0  0  0  0  0  0  0  0  0
   -2.1310    0.6020   -0.2220 C   0  0  2  0  0  0  0  0  0  0  0  0
    3.0220   -1.1430    0.3130 P   0  0  0  0  0  0  0  0  0  0  0  0
    4.7310   -1.1090    0.0210 O   0  0  0  0  0  0  0  0  0  0  0  0
    5.4220   -0.8970    1.1060 O   0  0  0  0  0  0  0  0  0  0  0  0
    2.7730   -1.7950    1.8980 O   0  0  0  0  0  0  0  0  0  0  0  0
    3.2640   -3.4620    1.8880 P   0  0  0  0  0  0  0  0  0  0  0  0
    4.9960   -3.5310    1.8170 O   0  0  0  0  0  0  0  0  0  0  0  0
    2.6520   -4.1650    0.4060 O   0  0  0  0  0  0  0  0  0  0  0  0
  1  2  2  0
  2  3  1  0
  2  7  1  0
  3  4  1  0
  4  5  1  0
  4  6  1  0
  7  8  1  0
  7 24  1  0
  8  9  1  0
  9 10  2  0
  9 11  1  0
 11 12  1  0
 23 11  1  6
 12 13  1  0
 13 14  1  6
 13 15  1  0
 13 17  1  0
 15 16  1  0
 17 18  1  6
 17 23  1  0
 18 19  1  0
 19 20  1  0
 20 21  1  0
 21 22  2  0
 21 23  1  0
 24 25  1  0
 24 27  1  0
 25 26  1  0
 27 28  1  0
 28 29  1  0
 28 30  1  0
M  END
