
     RDKit          3D

 26 26  0  0  0  0  0  0  0  0999 V2000
   -4.0210   -2.3250   -0.8260 N   0  0  0  0  0  0  0  0  0  0  0  0
   -4.4550   -1.3050   -0.2320 C   0  0  0  0  0  0  0  0  0  0  0  0
   -6.2380   -1.2360    0.0610 S   0  0  0  0  0  0  0  0  0  0  0  0
   -6.6770    0.2720    0.9320 C   0  0  0  0  0  0  0  0  0  0  0  0
   -6.4070    1.4310    0.0390 C   0  0  0  0  0  0  0  0  0  0  0  0
   -6.6370    2.5820    0.4310 O   0  0  0  0  0  0  0  0  0  0  0  0
   -3.4830    0.0120    0.3310 S   0  0  0  0  0  0  0  0  0  0  0  0
   -1.7360   -0.0560   -0.0400 C   0  0  0  0  0  0  0  0  0  0  0  0
   -1.2300   -0.9310   -0.9050 C   0  0  0  0  0  0  0  0  0  0  0  0
    0.2070   -1.1520   -1.3370 C   0  0  0  0  0  0  0  0  0  0  0  0
    0.2710   -0.8960   -2.8160 C   0  0  0  0  0  0  0  0  0  0  0  0
    0.0810    0.8160   -3.2400 Cl  0  0  0  0  0  0  0  0  0  0  0  0
    1.2080   -1.6110   -0.6370 C   0  0  0  0  0  0  0  0  0  0  0  0
    2.6420   -1.9360   -0.6740 C   0  0  0  0  0  0  0  0  0  0  0  0
    3.6950   -1.1220   -0.5320 C   0  0  0  0  0  0  0  0  0  0  0  0
    5.0490   -1.7030   -0.6280 N   0  0  0  0  0  0  0  0  0  0  0  0
    3.6970    0.2960   -0.2200 C   0  0  0  0  0  0  0  0  0  0  0  0
    3.1600    0.9020    0.8610 C   0  0  0  0  0  0  0  0  0  0  0  0
    3.2550    2.3640    1.0290 C   0  0  0  0  0  0  0  0  0  0  0  0
    3.8930    3.1620    0.0560 N   0  0  0  0  0  0  0  0  0  0  0  0
    2.7730    2.8930    2.0320 O   0  0  0  0  0  0  0  0  0  0  0  0
    2.4990    0.0620    1.8650 C   0  0  0  0  0  0  0  0  0  0  0  0
    1.0610    0.3370    2.0790 C   0  0  0  0  0  0  0  0  0  0  0  0
    0.4080    1.0070    0.9960 N   0  0  0  0  0  0  0  0  0  0  0  0
   -0.9370    1.0180    0.5850 C   0  0  0  0  0  0  0  0  0  0  0  0
   -1.5300    2.1580    0.7960 O   0  0  0  0  0  0  0  0  0  0  0  0
  1  2  2  0
  2  3  1  0
  2  7  1  0
  3  4  1  0
  4  5  1  0
  5  6  2  0
  7  8  1  0
  8  9  2  0
  8 25  1  0
  9 10  1  0
 10 11  1  0
 10 13  2  0
 11 12  1  0
 13 14  1  0
 14 15  2  0
 15 16  1  0
 15 17  1  0
 17 18  2  0
 18 19  1  0
 18 22  1  0
 19 20  1  0
 19 21  2  0
 22 23  1  0
 23 24  1  0
 24 25  1  0
 25 26  2  0
M  END
