
     RDKit          3D

 26 27  0  0  0  0  0  0  0  0999 V2000
   -2.8000   -0.9000   -2.8620 O   0  0  0  0  0  0  0  0  0  0  0  0
   -2.5340   -0.2400   -1.8500 C   0  0  0  0  0  0  0  0  0  0  0  0
   -3.5990    0.4070   -1.0630 C   0  0  0  0  0  0  0  0  0  0  0  0
   -4.9310    0.1110   -1.7100 C   0  0  0  0  0  0  0  0  0  0  0  0
   -6.0510    0.7010   -1.0290 N   0  0  0  0  0  0  0  0  0  0  0  0
   -6.3790    0.1810    0.2800 C   0  0  0  0  0  0  0  0  0  0  0  0
   -6.0860    0.8650    1.3410 C   0  0  0  0  0  0  0  0  0  0  0  0
   -6.2950    0.5920    2.7550 C   0  0  0  0  0  0  0  0  0  0  0  0
   -7.1150   -0.9860    2.9960 S   0  0  0  0  0  0  0  0  0  0  0  0
   -7.4040   -1.7150    1.4030 C   0  0  0  0  0  0  0  0  0  0  0  0
   -7.0400   -1.1150    0.2840 C   0  0  0  0  0  0  0  0  0  0  0  0
   -7.3940   -1.9580   -1.2080 Cl  0  0  0  0  0  0  0  0  0  0  0  0
   -1.1410   -0.1250   -1.4660 N   0  0  0  0  0  0  0  0  0  0  0  0
   -0.1410   -0.7490   -2.2360 C   0  0  0  0  0  0  0  0  0  0  0  0
   -0.5710   -1.6190   -3.5920 S   0  0  0  0  0  0  0  0  0  0  0  0
    1.2150   -0.6930   -1.9560 N   0  0  0  0  0  0  0  0  0  0  0  0
    1.7630   -0.0130   -0.8600 C   0  0  0  0  0  0  0  0  0  0  0  0
    1.0820    0.6070   -0.0260 O   0  0  0  0  0  0  0  0  0  0  0  0
    3.1860   -0.0030   -0.6490 N   0  0  0  0  0  0  0  0  0  0  0  0
    3.7220    0.7000    0.4880 C   0  0  0  0  0  0  0  0  0  0  0  0
    5.2330    0.5860    0.4990 C   0  0  2  0  0  0  0  0  0  0  0  0
    5.6880   -0.8450    0.5780 C   0  0  0  0  0  0  0  0  0  0  0  0
    7.1570   -0.8340    0.1400 C   0  0  0  0  0  0  0  0  0  0  0  0
    7.7960    0.2470    0.7460 O   0  0  0  0  0  0  0  0  0  0  0  0
    7.1990    0.6300    1.9350 C   0  0  0  0  0  0  0  0  0  0  0  0
    5.8600    1.3190    1.6620 C   0  0  0  0  0  0  0  0  0  0  0  0
  1  2  2  0
  2  3  1  0
  2 13  1  0
  3  4  1  0
  4  5  1  0
  5  6  1  0
  6  7  2  0
  6 11  1  0
  7  8  1  0
  8  9  1  0
  9 10  1  0
 10 11  2  0
 11 12  1  0
 13 14  1  0
 14 15  2  0
 14 16  1  0
 16 17  1  0
 17 18  2  0
 17 19  1  0
 19 20  1  0
 21 20  1  1
 21 22  1  0
 21 26  1  0
 22 23  1  0
 23 24  1  0
 24 25  1  0
 25 26  1  0
M  END
