
     RDKit          3D

 26 27  0  0  0  0  0  0  0  0999 V2000
    2.3730    3.4670    0.6120 C   0  0  0  0  0  0  0  0  0  0  0  0
    3.0220    2.2070    0.1650 C   0  0  0  0  0  0  0  0  0  0  0  0
    4.2040    2.3930   -1.1150 Cl  0  0  0  0  0  0  0  0  0  0  0  0
    2.7140    1.0130    0.7260 C   0  0  0  0  0  0  0  0  0  0  0  0
    1.7380    1.0820    1.7560 N   0  0  0  0  0  0  0  0  0  0  0  0
    0.6850    0.2560    2.1300 C   0  0  0  0  0  0  0  0  0  0  0  0
    0.7990   -0.4310    3.6580 S   0  0  0  0  0  0  0  0  0  0  0  0
   -0.5030   -0.0950    1.4520 N   0  0  0  0  0  0  0  0  0  0  0  0
   -1.1570    0.6970    0.4580 C   0  0  0  0  0  0  0  0  0  0  0  0
   -2.2600    0.0660   -0.2620 C   0  0  1  0  0  0  0  0  0  0  0  0
   -3.3500   -0.5490    0.5240 C   0  0  0  0  0  0  0  0  0  0  0  0
   -4.4600    0.3740    0.9310 C   0  0  0  0  0  0  0  0  0  0  0  0
   -4.1300    1.8230    0.8950 C   0  0  0  0  0  0  0  0  0  0  0  0
   -3.4350    2.2760   -0.3490 C   0  0  0  0  0  0  0  0  0  0  0  0
   -2.9040    1.1320   -1.1630 C   0  0  0  0  0  0  0  0  0  0  0  0
   -1.7310   -0.9880   -1.2470 C   0  0  0  0  0  0  0  0  0  0  0  0
   -1.2060   -2.1420   -0.5760 N   0  0  0  0  0  0  0  0  0  0  0  0
   -0.2450   -3.0490   -1.6850 S   0  0  2  0  0  0  0  0  0  0  0  0
   -0.4620   -2.5330   -3.0790 O   0  0  0  0  0  0  0  0  0  0  0  0
   -0.6760   -4.5080   -1.7080 O   0  0  0  0  0  0  0  0  0  0  0  0
    1.4740   -2.9400   -1.2530 C   0  0  0  0  0  0  0  0  0  0  0  0
    1.6140   -1.7590   -0.2780 C   0  0  0  0  0  0  0  0  0  0  0  0
    2.9960   -1.2840   -0.2050 C   0  0  0  0  0  0  0  0  0  0  0  0
    3.9960   -2.2520   -0.6590 N   0  0  0  0  0  0  0  0  0  0  0  0
    3.4530   -0.1190    0.2150 C   0  0  0  0  0  0  0  0  0  0  0  0
    4.9830   -0.0310    0.0780 C   0  0  0  0  0  0  0  0  0  0  0  0
  1  2  1  0
  2  3  1  0
  2  4  2  3
  4  5  1  0
  4 25  1  0
  5  6  1  0
  6  7  2  0
  6  8  1  0
  8  9  1  0
 10  9  1  1
 10 11  1  0
 10 15  1  0
 10 16  1  0
 11 12  1  0
 12 13  1  0
 13 14  1  0
 14 15  1  0
 16 17  1  0
 17 18  1  0
 18 19  2  0
 18 20  2  0
 18 21  1  1
 21 22  1  0
 22 23  1  0
 23 24  1  0
 23 25  2  0
 25 26  1  0
M  END
