
     RDKit          3D

 26 27  0  0  0  0  0  0  0  0999 V2000
   -0.1340    5.5190   -1.2740 C   0  0  0  0  0  0  0  0  0  0  0  0
   -0.4850    4.2650   -1.2340 C   0  0  0  0  0  0  0  0  0  0  0  0
   -0.1280    3.3770   -0.1260 C   0  0  0  0  0  0  0  0  0  0  0  0
    0.5590    3.8300    0.8560 O   0  0  0  0  0  0  0  0  0  0  0  0
   -0.5030    2.0390   -0.0840 N   0  0  0  0  0  0  0  0  0  0  0  0
   -0.0990    1.1940    1.1090 C   0  0  2  0  0  0  0  0  0  0  0  0
    1.1760    0.6280    0.6320 C   0  0  0  0  0  0  0  0  0  0  0  0
    1.0330   -0.1810   -0.5160 O   0  0  0  0  0  0  0  0  0  0  0  0
    2.2160   -0.6970   -0.9490 C   0  0  1  0  0  0  0  0  0  0  0  0
    2.2690   -2.2030   -0.9770 C   0  0  0  0  0  0  0  0  0  0  0  0
    3.3260   -2.4240   -2.0700 C   0  0  0  0  0  0  0  0  0  0  0  0
    2.8960   -1.5110   -3.0310 O   0  0  0  0  0  0  0  0  0  0  0  0
    2.5300   -0.3530   -2.3920 C   0  0  0  0  0  0  0  0  0  0  0  0
   -1.2650    0.5050    1.3820 N   0  0  0  0  0  0  0  0  0  0  0  0
   -2.4550    1.3220    1.5190 C   0  0  0  0  0  0  0  0  0  0  0  0
   -2.3150    2.8370    2.0380 S   0  0  0  0  0  0  0  0  0  0  0  0
   -4.1600    0.8450    1.1570 S   0  0  0  0  0  0  0  0  0  0  0  0
   -4.0920   -0.4810   -0.0360 C   0  0  0  0  0  0  0  0  0  0  0  0
   -3.2100   -1.4630   -0.0790 C   0  0  0  0  0  0  0  0  0  0  0  0
   -3.4090   -2.3680   -1.1430 N   0  0  0  0  0  0  0  0  0  0  0  0
   -2.1160   -1.7220    0.8060 C   0  0  0  0  0  0  0  0  0  0  0  0
   -1.2750   -0.9010    1.4450 C   0  0  0  0  0  0  0  0  0  0  0  0
   -0.3020   -1.4820    2.2570 C   0  0  0  0  0  0  0  0  0  0  0  0
   -0.2190   -2.9330    2.2380 N   0  0  0  0  0  0  0  0  0  0  0  0
    0.5690   -0.9470    3.0310 C   0  0  0  0  0  0  0  0  0  0  0  0
    1.7330   -1.8860    3.9810 Cl  0  0  0  0  0  0  0  0  0  0  0  0
  1  2  2  0
  2  3  1  0
  3  4  2  0
  3  5  1  0
  5  6  1  0
  6  7  1  6
  6 14  1  0
  7  8  1  0
  9  8  1  6
  9 10  1  0
  9 13  1  0
 10 11  1  0
 11 12  1  0
 12 13  1  0
 14 15  1  0
 14 22  1  0
 15 16  2  0
 15 17  1  0
 17 18  1  0
 18 19  2  0
 19 20  1  0
 19 21  1  0
 21 22  2  0
 22 23  1  0
 23 24  1  0
 23 25  2  3
 25 26  1  0
M  END
