
     RDKit          3D

 26 27  0  0  0  0  0  0  0  0999 V2000
   -2.9610    2.0970    0.4360 C   0  0  0  0  0  0  0  0  0  0  0  0
   -3.0780    1.0870   -0.7170 C   0  0  1  0  0  0  0  0  0  0  0  0
   -3.6270    1.9150   -1.8910 C   0  0  0  0  0  0  0  0  0  0  0  0
   -1.7270    0.5670   -1.0160 C   0  0  0  0  0  0  0  0  0  0  0  0
   -1.5110   -0.8940   -0.9780 C   0  0  1  0  0  0  0  0  0  0  0  0
   -0.3490   -1.1830   -0.1550 N   0  0  0  0  0  0  0  0  0  0  0  0
    0.9610   -0.6560   -0.5030 C   0  0  0  0  0  0  0  0  0  0  0  0
    0.9940    0.2470   -1.8440 S   0  0  0  0  0  0  0  0  0  0  0  0
    2.0300   -0.9790    0.3400 N   0  0  0  0  0  0  0  0  0  0  0  0
    3.3780   -0.5910    0.2130 C   0  0  0  0  0  0  0  0  0  0  0  0
    3.8950    0.1950   -0.7850 C   0  0  0  0  0  0  0  0  0  0  0  0
    5.2330    0.5330   -0.8410 C   0  0  0  0  0  0  0  0  0  0  0  0
    6.1100    0.0930    0.1100 C   0  0  0  0  0  0  0  0  0  0  0  0
    7.8040    0.4990    0.0730 S   0  0  2  0  0  0  0  0  0  0  0  0
    8.0690    1.9630    0.9500 N   0  0  0  0  0  0  0  0  0  0  0  0
    8.2450    0.7510   -1.3520 O   0  0  0  0  0  0  0  0  0  0  0  0
    8.6540   -0.5920    0.6630 O   0  0  0  0  0  0  0  0  0  0  0  0
    5.6330   -0.7000    1.1320 C   0  0  0  0  0  0  0  0  0  0  0  0
    4.3100   -1.0260    1.1740 C   0  0  0  0  0  0  0  0  0  0  0  0
    3.7430   -2.0420    2.4980 Cl  0  0  0  0  0  0  0  0  0  0  0  0
   -2.6430   -1.7300   -0.4560 C   0  0  0  0  0  0  0  0  0  0  0  0
   -3.6440   -0.9920    0.3560 C   0  0  2  0  0  0  0  0  0  0  0  0
   -3.1770   -0.6630    1.7400 C   0  0  0  0  0  0  0  0  0  0  0  0
   -4.8630   -1.9130    0.5180 C   0  0  0  0  0  0  0  0  0  0  0  0
   -4.0930    0.1390   -0.4020 N   0  0  1  0  0  0  0  0  0  0  0  0
   -5.1170    0.8000    0.2290 O   0  0  0  0  0  0  0  0  0  0  0  0
  2  1  1  1
  2  3  1  0
  2  4  1  0
  2 25  1  0
  4  5  1  0
  5  6  1  1
  5 21  1  0
  6  7  1  0
  7  8  2  0
  7  9  1  0
  9 10  1  0
 10 11  2  0
 10 19  1  0
 11 12  1  0
 12 13  2  0
 13 14  1  0
 13 18  1  0
 14 15  1  1
 14 16  2  0
 14 17  2  0
 18 19  2  0
 19 20  1  0
 21 22  1  0
 22 23  1  1
 22 24  1  0
 22 25  1  0
 25 26  1  1
M  CHG  1  25   1
M  END
