
     RDKit          3D

 26 27  0  0  0  0  0  0  0  0999 V2000
   -7.0420    0.6960   -1.7710 C   0  0  0  0  0  0  0  0  0  0  0  0
   -5.9150    0.5010   -1.1170 C   0  0  0  0  0  0  0  0  0  0  0  0
   -4.6620    0.6490   -1.8690 C   0  0  0  0  0  0  0  0  0  0  0  0
   -3.6120   -0.0690   -1.4000 C   0  0  0  0  0  0  0  0  0  0  0  0
   -2.3600    0.0850   -2.1890 C   0  0  0  0  0  0  0  0  0  0  0  0
   -2.3620    0.7780   -3.2780 O   0  0  0  0  0  0  0  0  0  0  0  0
   -1.0570   -0.4780   -1.7630 C   0  0  0  0  0  0  0  0  0  0  0  0
   -0.7180    0.2860   -0.0650 S   0  0  0  0  0  0  0  0  0  0  0  0
    0.9300   -0.0360    0.3660 C   0  0  0  0  0  0  0  0  0  0  0  0
    1.1610   -0.4070    1.8310 C   0  0  0  0  0  0  0  0  0  0  0  0
    2.5740   -0.7530    1.9360 N   0  0  0  0  0  0  0  0  0  0  0  0
    3.5970    0.2810    1.6040 C   0  0  0  0  0  0  0  0  0  0  0  0
    3.2270    1.3730    1.3630 O   0  0  0  0  0  0  0  0  0  0  0  0
    4.8520   -0.2950    1.6080 N   0  0  0  0  0  0  0  0  0  0  0  0
    5.5030    0.4580    0.1600 C   0  0  0  0  0  0  0  0  0  0  0  0
    4.8530    1.4020   -0.1680 O   0  0  0  0  0  0  0  0  0  0  0  0
    6.6610   -0.1800   -0.3910 C   0  0  1  0  0  0  0  0  0  0  0  0
    7.6880    0.8280   -0.8680 C   0  0  0  0  0  0  0  0  0  0  0  0
    7.2430   -1.2200    0.4500 N   0  0  0  0  0  0  0  0  0  0  0  0
   -3.6860   -0.8040   -0.1350 C   0  0  0  0  0  0  0  0  0  0  0  0
   -2.3760   -1.8790    0.3880 Cl  0  0  0  0  0  0  0  0  0  0  0  0
   -4.7370   -0.7550    0.5910 C   0  0  0  0  0  0  0  0  0  0  0  0
   -5.2680   -1.4590    2.1490 S   0  0  0  0  0  0  0  0  0  0  0  0
   -6.9200   -0.8470    2.0210 C   0  0  0  0  0  0  0  0  0  0  0  0
   -6.9840   -0.0700    1.0530 N   0  0  0  0  0  0  0  0  0  0  0  0
   -5.8280    0.1930    0.3100 C   0  0  2  0  0  0  0  0  0  0  0  0
  1  2  2  0
  2  3  1  0
  2 26  1  0
  3  4  2  0
  4  5  1  0
  4 20  1  0
  5  6  2  0
  5  7  1  0
  7  8  1  0
  8  9  1  0
  9 10  1  0
 10 11  1  0
 11 12  1  0
 12 13  2  0
 12 14  1  0
 14 15  1  0
 15 16  2  0
 15 17  1  0
 17 18  1  1
 17 19  1  0
 20 21  1  0
 20 22  2  0
 22 23  1  0
 22 26  1  0
 23 24  1  0
 24 25  2  0
 26 25  1  6
M  CHG  1  25   1
M  END
