
     RDKit          3D

 26 27  0  0  0  0  0  0  0  0999 V2000
   -2.7670    2.9110    4.2600 C   0  0  0  0  0  0  0  0  0  0  0  0
   -2.2620    2.0650    3.2050 N   0  0  0  0  0  0  0  0  0  0  0  0
   -3.1890    1.2540    2.4690 C   0  0  0  0  0  0  0  0  0  0  0  0
   -4.3800    1.3190    2.7750 O   0  0  0  0  0  0  0  0  0  0  0  0
   -2.6800    0.3830    1.3870 C   0  0  0  0  0  0  0  0  0  0  0  0
   -3.4110   -0.3970    0.6450 C   0  0  0  0  0  0  0  0  0  0  0  0
   -4.8770   -0.5120    0.7940 C   0  0  0  0  0  0  0  0  0  0  0  0
   -5.2050   -1.9160    1.1380 N   0  0  0  0  0  0  0  0  0  0  0  0
   -2.8070   -1.1980   -0.3810 N   0  0  0  0  0  0  0  0  0  0  0  0
   -1.3950   -1.1460   -0.5950 C   0  0  0  0  0  0  0  0  0  0  0  0
   -0.8260   -1.9390   -1.7200 C   0  0  0  0  0  0  0  0  0  0  0  0
   -0.6350   -0.3740    0.1360 C   0  0  0  0  0  0  0  0  0  0  0  0
    0.7900   -0.2040    0.0630 C   0  0  0  0  0  0  0  0  0  0  0  0
    1.0840    0.7860    1.0070 O   0  0  0  0  0  0  0  0  0  0  0  0
    1.9420   -0.6130   -0.5390 N   0  0  0  0  0  0  0  0  0  0  0  0
    2.2500   -1.6010   -1.4950 C   0  0  0  0  0  0  0  0  0  0  0  0
    2.5820   -2.9530   -0.7990 C   0  0  0  0  0  0  0  0  0  0  0  0
    3.6400   -2.4070    0.6080 S   0  0  0  0  0  0  0  0  0  0  0  0
    4.3220   -0.8120    0.0670 C   0  0  0  0  0  0  0  0  0  0  0  0
    3.1870    0.1440   -0.0930 C   0  0  1  0  0  0  0  0  0  0  0  0
    3.5280    1.2120   -1.0250 C   0  0  0  0  0  0  0  0  0  0  0  0
    3.7580    2.4260   -0.5560 C   0  0  0  0  0  0  0  0  0  0  0  0
    3.6770    2.8330    1.1410 Cl  0  0  0  0  0  0  0  0  0  0  0  0
    3.6770    0.9490   -2.7880 S   0  0  0  0  0  0  0  0  0  0  0  0
    4.1140    2.5070   -3.6040 C   0  0  0  0  0  0  0  0  0  0  0  0
   -1.3250    0.3870    1.1310 O   0  0  0  0  0  0  0  0  0  0  0  0
  1  2  1  0
  2  3  1  0
  3  4  2  0
  3  5  1  0
  5  6  2  0
  5 26  1  0
  6  7  1  0
  6  9  1  0
  7  8  1  0
  9 10  1  0
 10 11  1  0
 10 12  2  0
 12 13  1  0
 12 26  1  0
 13 14  2  0
 13 15  1  0
 15 16  1  0
 15 20  1  0
 16 17  1  0
 17 18  1  0
 18 19  1  0
 19 20  1  0
 20 21  1  6
 21 22  2  3
 21 24  1  0
 22 23  1  0
 24 25  1  0
M  CHG  1   8   1
M  END
