
     RDKit          3D

 16 16  0  0  0  0  0  0  0  0999 V2000
    3.2570   -0.8750   -0.2370 O   0  0  0  0  0  0  0  0  0  0  0  0
    3.5780    0.3290   -0.3810 C   0  0  0  0  0  0  0  0  0  0  0  0
    4.6140    0.8300    0.4000 O   0  0  0  0  0  0  0  0  0  0  0  0
    5.2140    0.0130    1.2610 O   0  0  0  0  0  0  0  0  0  0  0  0
    2.8910    1.0780   -1.2980 O   0  0  0  0  0  0  0  0  0  0  0  0
    1.8480    0.6420   -2.1090 C   0  0  0  0  0  0  0  0  0  0  0  0
    0.6470    0.1390   -1.2850 C   0  0  0  0  0  0  0  0  0  0  0  0
    0.1820    1.1490   -0.4990 O   0  0  0  0  0  0  0  0  0  0  0  0
   -0.8070    0.9100    0.2510 O   0  0  0  0  0  0  0  0  0  0  0  0
   -1.4000   -0.3250    0.2280 C   0  0  2  0  0  0  0  0  0  0  0  0
   -2.8680   -0.1260   -0.1450 C   0  0  0  0  0  0  0  0  0  0  0  0
   -3.4170    0.6970    0.8380 O   0  0  0  0  0  0  0  0  0  0  0  0
   -3.7670   -0.1670    1.9030 C   0  0  0  0  0  0  0  0  0  0  0  0
   -2.5660   -0.7630    2.3880 O   0  0  0  0  0  0  0  0  0  0  0  0
   -1.4370   -0.9190    1.6110 C   0  0  0  0  0  0  0  0  0  0  0  0
   -0.4540   -1.5500    2.0560 O   0  0  0  0  0  0  0  0  0  0  0  0
  1  2  2  0
  2  3  1  0
  2  5  1  0
  3  4  1  0
  5  6  1  0
  6  7  1  0
  7  8  1  0
  8  9  1  0
 10  9  1  1
 10 11  1  0
 10 15  1  0
 11 12  1  0
 12 13  1  0
 13 14  1  0
 14 15  1  0
 15 16  2  0
M  END
