
     RDKit          3D

 24 24  0  0  0  0  0  0  0  0999 V2000
    6.8640   -0.0580   -3.1860 C   0  0  0  0  0  0  0  0  0  0  0  0
    7.2630    0.0800   -1.7560 C   0  0  0  0  0  0  0  0  0  0  0  0
    6.0850   -0.0780   -0.8180 C   0  0  0  0  0  0  0  0  0  0  0  0
    5.5130   -1.4570   -1.0460 C   0  0  0  0  0  0  0  0  0  0  0  0
    4.3210   -1.7440   -0.1590 C   0  0  0  0  0  0  0  0  0  0  0  0
    3.1970   -0.7660   -0.3970 C   0  0  0  0  0  0  0  0  0  0  0  0
    2.0690   -1.1510    0.5360 C   0  0  0  0  0  0  0  0  0  0  0  0
    0.9590   -0.3040    0.4030 O   0  0  0  0  0  0  0  0  0  0  0  0
   -0.1760   -0.4970    1.1740 C   0  0  0  0  0  0  0  0  0  0  0  0
   -0.2070   -1.5390    2.0850 C   0  0  0  0  0  0  0  0  0  0  0  0
   -1.3500   -1.6960    2.8290 C   0  0  0  0  0  0  0  0  0  0  0  0
   -2.4460   -0.8780    2.7140 C   0  0  0  0  0  0  0  0  0  0  0  0
   -2.4060    0.1330    1.8260 N   0  0  0  0  0  0  0  0  0  0  0  0
   -3.4840    1.0380    1.6520 C   0  0  0  0  0  0  0  0  0  0  0  0
   -4.5220    0.5980    0.6320 C   0  0  1  0  0  0  0  0  0  0  0  0
   -5.6920    1.9210    0.6640 P   0  0  0  0  0  0  0  0  0  0  0  0
   -5.2050    3.2550    1.6440 O   0  0  0  0  0  0  0  0  0  0  0  0
   -7.1400    1.8140    0.0280 O   0  0  0  0  0  0  0  0  0  0  0  0
   -5.0270    2.7090   -0.4750 O   0  0  0  0  0  0  0  0  0  0  0  0
   -4.0240    0.1960   -0.9670 P   0  0  0  0  0  0  0  0  0  0  0  0
   -5.3360    0.5450   -1.6920 O   0  0  0  0  0  0  0  0  0  0  0  0
   -3.2080    1.2740   -1.9010 O   0  0  0  0  0  0  0  0  0  0  0  0
   -4.2420   -1.3890   -1.5420 O   0  0  0  0  0  0  0  0  0  0  0  0
   -1.2910    0.2900    1.0960 C   0  0  0  0  0  0  0  0  0  0  0  0
  1  2  1  0
  2  3  1  0
  3  4  1  0
  4  5  1  0
  5  6  1  0
  6  7  1  0
  7  8  1  0
  8  9  1  0
  9 10  2  0
  9 24  1  0
 10 11  1  0
 11 12  2  0
 12 13  1  0
 13 14  1  0
 13 24  2  0
 15 14  1  1
 15 16  1  0
 15 20  1  0
 16 17  1  0
 16 18  1  0
 16 19  1  0
 20 21  1  0
 20 22  1  0
 20 23  1  0
M  CHG  1  13   1
M  END
