
     RDKit          3D

 16 16  0  0  0  0  0  0  0  0999 V2000
    5.6250    0.4860   -1.2130 O   0  0  0  0  0  0  0  0  0  0  0  0
    5.0480    0.3650   -0.0830 C   0  0  0  0  0  0  0  0  0  0  0  0
    5.7960    0.4890    1.0590 O   0  0  0  0  0  0  0  0  0  0  0  0
    3.6850    0.1150   -0.0890 O   0  0  0  0  0  0  0  0  0  0  0  0
    2.9350   -0.0090   -1.2790 C   0  0  0  0  0  0  0  0  0  0  0  0
    1.5200   -0.2740   -0.8740 C   0  0  0  0  0  0  0  0  0  0  0  0
    0.5970   -0.4340   -1.7320 O   0  0  0  0  0  0  0  0  0  0  0  0
    1.1260   -0.3640    0.4520 O   0  0  0  0  0  0  0  0  0  0  0  0
   -0.1650   -0.6060    0.8140 O   0  0  0  0  0  0  0  0  0  0  0  0
   -1.1980    0.2790    0.6130 C   0  0  0  0  0  0  0  0  0  0  0  0
   -0.8970    1.3770    0.0550 O   0  0  0  0  0  0  0  0  0  0  0  0
   -2.5520   -0.0730    1.0370 C   0  0  2  0  0  0  0  0  0  0  0  0
   -3.1510   -1.2080    0.1960 C   0  0  0  0  0  0  0  0  0  0  0  0
   -4.4980   -1.0390    0.5040 O   0  0  0  0  0  0  0  0  0  0  0  0
   -4.6540    0.3360    0.3910 C   0  0  0  0  0  0  0  0  0  0  0  0
   -3.4740    0.9340    0.7590 O   0  0  0  0  0  0  0  0  0  0  0  0
  1  2  2  0
  2  3  1  0
  2  4  1  0
  4  5  1  0
  5  6  1  0
  6  7  2  0
  6  8  1  0
  8  9  1  0
  9 10  1  0
 10 11  2  0
 12 10  1  6
 12 13  1  0
 12 16  1  0
 13 14  1  0
 14 15  1  0
 15 16  1  0
M  END
