
     RDKit          3D

 16 16  0  0  0  0  0  0  0  0999 V2000
    2.1200    0.3640   -2.3060 O   0  0  0  0  0  0  0  0  0  0  0  0
    2.7370    0.0350   -1.3310 C   0  0  0  0  0  0  0  0  0  0  0  0
    4.2630    0.0370   -1.2440 C   0  0  0  0  0  0  0  0  0  0  0  0
    4.5100   -0.7220   -0.0900 O   0  0  0  0  0  0  0  0  0  0  0  0
    5.1350   -0.1100    0.8540 O   0  0  0  0  0  0  0  0  0  0  0  0
    2.0920   -0.4110   -0.1290 O   0  0  0  0  0  0  0  0  0  0  0  0
    0.6740   -0.4700   -0.2050 C   0  0  0  0  0  0  0  0  0  0  0  0
    0.0440    0.8400   -0.4290 C   0  0  2  0  0  0  0  0  0  0  0  0
   -0.6370    1.2280    0.9550 C   0  0  0  0  0  0  0  0  0  0  0  0
   -1.4120    0.0210    1.0900 O   0  0  0  0  0  0  0  0  0  0  0  0
   -1.8300   -0.2190   -0.2380 C   0  0  1  0  0  0  0  0  0  0  0  0
   -3.3380   -0.2780   -0.1700 C   0  0  0  0  0  0  0  0  0  0  0  0
   -3.8000    0.7530    0.6690 O   0  0  0  0  0  0  0  0  0  0  0  0
   -5.0480    0.4830    1.0470 O   0  0  0  0  0  0  0  0  0  0  0  0
   -4.9130   -0.1830    2.2410 O   0  0  0  0  0  0  0  0  0  0  0  0
   -1.2190    0.6040   -1.0660 O   0  0  0  0  0  0  0  0  0  0  0  0
  1  2  2  0
  2  3  1  0
  2  6  1  0
  3  4  1  0
  4  5  1  0
  6  7  1  0
  8  7  1  1
  8  9  1  0
  8 16  1  0
  9 10  1  0
 10 11  1  0
 11 12  1  1
 11 16  1  0
 12 13  1  0
 13 14  1  0
 14 15  1  0
M  END
