
     RDKit          3D

 16 16  0  0  0  0  0  0  0  0999 V2000
    4.1470    2.0390   -0.5840 O   0  0  0  0  0  0  0  0  0  0  0  0
    4.7130    0.9120   -0.5260 C   0  0  0  0  0  0  0  0  0  0  0  0
    6.0840    0.8820   -0.6360 O   0  0  0  0  0  0  0  0  0  0  0  0
    3.9130   -0.1920   -0.3590 O   0  0  0  0  0  0  0  0  0  0  0  0
    2.5580   -0.1120   -0.2550 O   0  0  0  0  0  0  0  0  0  0  0  0
    1.8010   -1.0680    0.3990 C   0  0  0  0  0  0  0  0  0  0  0  0
    2.4110   -2.0430    0.9110 O   0  0  0  0  0  0  0  0  0  0  0  0
    0.3370   -1.0270    0.5370 C   0  0  2  0  0  0  0  0  0  0  0  0
   -0.3570   -2.1840   -0.1180 C   0  0  0  0  0  0  0  0  0  0  0  0
   -0.9330   -1.6420   -1.2410 O   0  0  0  0  0  0  0  0  0  0  0  0
   -1.3010   -0.3680   -0.8250 C   0  0  1  0  0  0  0  0  0  0  0  0
   -2.6030   -0.4310   -0.0590 C   0  0  0  0  0  0  0  0  0  0  0  0
   -3.0210    0.9520    0.4030 C   0  0  0  0  0  0  0  0  0  0  0  0
   -3.1950    1.7970   -0.7010 O   0  0  0  0  0  0  0  0  0  0  0  0
   -3.5540    2.9750   -0.2510 O   0  0  0  0  0  0  0  0  0  0  0  0
   -0.2490    0.0660   -0.0480 O   0  0  0  0  0  0  0  0  0  0  0  0
  1  2  2  0
  2  3  1  0
  2  4  1  0
  4  5  1  0
  5  6  1  0
  6  7  2  0
  8  6  1  6
  8  9  1  0
  8 16  1  0
  9 10  1  0
 10 11  1  0
 11 12  1  1
 11 16  1  0
 12 13  1  0
 13 14  1  0
 14 15  1  0
M  END
