
     RDKit          3D

 16 16  0  0  0  0  0  0  0  0999 V2000
   -4.2830    1.3920   -1.4580 O   0  0  0  0  0  0  0  0  0  0  0  0
   -3.4910    0.6180   -0.8410 C   0  0  0  0  0  0  0  0  0  0  0  0
   -4.0640   -0.4220    0.0200 C   0  0  0  0  0  0  0  0  0  0  0  0
   -3.2290   -0.8570    1.0470 O   0  0  0  0  0  0  0  0  0  0  0  0
   -2.0020   -0.2510    1.2610 C   0  0  0  0  0  0  0  0  0  0  0  0
   -1.4900   -0.0780    2.3900 O   0  0  0  0  0  0  0  0  0  0  0  0
   -1.2560    0.2190    0.0740 C   0  0  2  0  0  0  0  0  0  0  0  0
   -0.2790    1.3030    0.4540 C   0  0  0  0  0  0  0  0  0  0  0  0
    0.5580    0.8820    1.4470 O   0  0  0  0  0  0  0  0  0  0  0  0
    1.2980   -0.2200    1.1370 C   0  0  0  0  0  0  0  0  0  0  0  0
    2.1650    0.0220   -0.0520 C   0  0  0  0  0  0  0  0  0  0  0  0
    2.9000   -1.1600   -0.3010 O   0  0  0  0  0  0  0  0  0  0  0  0
    3.6890   -0.9920   -1.3550 O   0  0  0  0  0  0  0  0  0  0  0  0
    4.9150   -1.4260   -1.0860 O   0  0  0  0  0  0  0  0  0  0  0  0
    5.1860   -1.0540    0.1430 O   0  0  0  0  0  0  0  0  0  0  0  0
   -2.1090    0.7180   -0.9500 O   0  0  0  0  0  0  0  0  0  0  0  0
  1  2  2  0
  2  3  1  0
  2 16  1  0
  3  4  1  0
  4  5  1  0
  5  6  2  0
  5  7  1  0
  7  8  1  1
  7 16  1  0
  8  9  1  0
  9 10  1  0
 10 11  1  0
 11 12  1  0
 12 13  1  0
 13 14  1  0
 14 15  1  0
M  END
