
     RDKit          3D

 16 16  0  0  0  0  0  0  0  0999 V2000
    4.9280    1.0090    0.0240 O   0  0  0  0  0  0  0  0  0  0  0  0
    3.9990    1.9240    0.2040 O   0  0  0  0  0  0  0  0  0  0  0  0
    2.8430    1.3270    0.1940 O   0  0  0  0  0  0  0  0  0  0  0  0
    2.9970   -0.0740    0.1620 C   0  0  0  0  0  0  0  0  0  0  0  0
    1.5850   -0.7130    0.1520 C   0  0  0  0  0  0  0  0  0  0  0  0
    0.9730   -0.2500   -0.9600 O   0  0  0  0  0  0  0  0  0  0  0  0
   -0.2690   -0.6460   -1.2990 C   0  0  0  0  0  0  0  0  0  0  0  0
   -1.2750   -0.2850   -0.2360 C   0  0  1  0  0  0  0  0  0  0  0  0
   -1.1800    1.2020    0.0170 C   0  0  0  0  0  0  0  0  0  0  0  0
   -2.0400    1.6100    1.0370 O   0  0  0  0  0  0  0  0  0  0  0  0
   -1.8760    2.9130    1.1730 O   0  0  0  0  0  0  0  0  0  0  0  0
   -2.7970    3.6040    0.5680 O   0  0  0  0  0  0  0  0  0  0  0  0
   -2.5680   -0.6580   -0.6140 O   0  0  0  0  0  0  0  0  0  0  0  0
   -2.9590   -1.7300    0.1600 C   0  0  0  0  0  0  0  0  0  0  0  0
   -1.6430   -2.2250    0.7230 C   0  0  0  0  0  0  0  0  0  0  0  0
   -0.9890   -1.0090    0.9100 O   0  0  0  0  0  0  0  0  0  0  0  0
  1  2  1  0
  2  3  1  0
  3  4  1  0
  4  5  1  0
  5  6  1  0
  6  7  1  0
  8  7  1  6
  8  9  1  0
  8 13  1  0
  8 16  1  0
  9 10  1  0
 10 11  1  0
 11 12  1  0
 13 14  1  0
 14 15  1  0
 15 16  1  0
M  END
