
     RDKit          3D

 16 16  0  0  0  0  0  0  0  0999 V2000
    3.9560   -0.5820    1.1650 O   0  0  0  0  0  0  0  0  0  0  0  0
    2.7250   -0.5710    0.9350 C   0  0  0  0  0  0  0  0  0  0  0  0
    2.0910   -1.7070    0.2440 C   0  0  0  0  0  0  0  0  0  0  0  0
    0.7000   -1.5230    0.0700 O   0  0  0  0  0  0  0  0  0  0  0  0
    0.1220   -0.4990   -0.6230 C   0  0  0  0  0  0  0  0  0  0  0  0
    0.8540    0.3670   -1.1610 O   0  0  0  0  0  0  0  0  0  0  0  0
   -1.3370   -0.3840   -0.7540 C   0  0  1  0  0  0  0  0  0  0  0  0
   -1.9980   -1.4210   -0.1000 O   0  0  0  0  0  0  0  0  0  0  0  0
   -1.8800    0.9100   -0.1830 C   0  0  0  0  0  0  0  0  0  0  0  0
   -3.2260    0.9670   -0.8770 C   0  0  0  0  0  0  0  0  0  0  0  0
   -2.8930    0.5440   -2.1920 O   0  0  0  0  0  0  0  0  0  0  0  0
   -1.7870   -0.2840   -2.1600 C   0  0  0  0  0  0  0  0  0  0  0  0
   -1.2670   -0.8430   -3.1440 O   0  0  0  0  0  0  0  0  0  0  0  0
    1.9910    0.5260    1.3450 O   0  0  0  0  0  0  0  0  0  0  0  0
    2.6230    1.5220    1.9660 O   0  0  0  0  0  0  0  0  0  0  0  0
    3.2670    2.3000    1.1220 O   0  0  0  0  0  0  0  0  0  0  0  0
  1  2  2  0
  2  3  1  0
  2 14  1  0
  3  4  1  0
  4  5  1  0
  5  6  2  0
  5  7  1  0
  7  8  1  1
  7  9  1  0
  7 12  1  0
  9 10  1  0
 10 11  1  0
 11 12  1  0
 12 13  2  0
 14 15  1  0
 15 16  1  0
M  END
