
     RDKit          3D

 18 19  0  0  0  0  0  0  0  0999 V2000
    3.5240    1.3250    1.8210 C   0  0  0  0  0  0  0  0  0  0  0  0
    3.0560    0.5640    0.8810 C   0  0  0  0  0  0  0  0  0  0  0  0
    1.5980    0.2770    0.8590 C   0  0  0  0  0  0  0  0  0  0  0  0
    0.9780    0.3180   -0.2920 C   0  0  0  0  0  0  0  0  0  0  0  0
   -0.3780    0.0980   -0.6550 C   0  0  0  0  0  0  0  0  0  0  0  0
   -0.5100    0.2620   -1.9590 O   0  0  0  0  0  0  0  0  0  0  0  0
   -1.5510   -0.2470    0.0950 C   0  0  0  0  0  0  0  0  0  0  0  0
   -1.6120   -0.4610    1.4280 N   0  0  0  0  0  0  0  0  0  0  0  0
   -2.7870   -0.7840    2.0420 C   0  0  0  0  0  0  0  0  0  0  0  0
   -2.7610   -1.0230    3.6570 S   0  0  0  0  0  0  0  0  0  0  0  0
   -3.9150   -0.8980    1.3330 N   0  0  0  0  0  0  0  0  0  0  0  0
   -3.9090   -0.6960    0.0060 C   0  0  0  0  0  0  0  0  0  0  0  0
   -5.0130   -0.8160   -0.6280 O   0  0  0  0  0  0  0  0  0  0  0  0
   -2.7480   -0.3690   -0.6520 C   0  0  0  0  0  0  0  0  0  0  0  0
   -2.8060   -0.1640   -2.0780 C   0  0  0  0  0  0  0  0  0  0  0  0
    1.9840    0.7050   -1.4130 C   0  0  0  0  0  0  0  0  0  0  0  0
    3.1060   -0.1900   -1.4160 N   0  0  0  0  0  0  0  0  0  0  0  0
    3.8810   -0.0660   -0.1850 C   0  0  0  0  0  0  0  0  0  0  0  0
  1  2  2  0
  2  3  1  0
  2 18  1  0
  3  4  2  0
  4  5  1  0
  4 16  1  0
  5  6  2  0
  5  7  1  0
  7  8  1  0
  7 14  2  0
  8  9  1  0
  9 10  2  0
  9 11  1  0
 11 12  1  0
 12 13  2  0
 12 14  1  0
 14 15  1  0
 16 17  1  0
 17 18  1  0
M  END
