
     RDKit          3D

 16 17  0  0  0  0  0  0  0  0999 V2000
    5.5430    0.8760    0.2340 C   0  0  0  0  0  0  0  0  0  0  0  0
    4.7270   -0.3770    0.1440 C   0  0  0  0  0  0  0  0  0  0  0  0
    3.2820    0.0230    0.0620 C   0  0  0  0  0  0  0  0  0  0  0  0
    2.9670    1.2160    0.0760 O   0  0  0  0  0  0  0  0  0  0  0  0
    2.3500   -1.0260   -0.0290 N   0  0  0  0  0  0  0  0  0  0  0  0
    0.9710   -0.8410   -0.1060 C   0  0  0  0  0  0  0  0  0  0  0  0
    0.1980   -1.9020   -0.6050 C   0  0  0  0  0  0  0  0  0  0  0  0
   -1.1650   -1.7450   -0.6670 C   0  0  0  0  0  0  0  0  0  0  0  0
   -1.7700   -0.5810   -0.2520 C   0  0  0  0  0  0  0  0  0  0  0  0
   -1.0010    0.4420    0.2320 C   0  0  0  0  0  0  0  0  0  0  0  0
    0.3850    0.3230    0.3110 C   0  0  0  0  0  0  0  0  0  0  0  0
   -1.8830    1.4650    0.5640 C   0  0  0  0  0  0  0  0  0  0  0  0
   -3.1690    1.0580    0.2820 C   0  0  0  0  0  0  0  0  0  0  0  0
   -4.4320    1.8550    0.4870 C   0  0  0  0  0  0  0  0  0  0  0  0
   -3.0750   -0.1860   -0.2130 N   0  0  0  0  0  0  0  0  0  0  0  0
   -4.2090   -0.9980   -0.6450 C   0  0  0  0  0  0  0  0  0  0  0  0
  1  2  1  0
  2  3  1  0
  3  4  2  0
  3  5  1  0
  5  6  1  0
  6  7  2  0
  6 11  1  0
  7  8  1  0
  8  9  2  0
  9 10  1  0
  9 15  1  0
 10 11  2  0
 10 12  1  0
 12 13  2  0
 13 14  1  0
 13 15  1  0
 15 16  1  0
M  END
