
     RDKit          3D

 18 19  0  0  0  0  0  0  0  0999 V2000
    4.5370    2.3460   -0.5650 C   0  0  0  0  0  0  0  0  0  0  0  0
    3.4880    1.7360   -0.0450 C   0  0  0  0  0  0  0  0  0  0  0  0
    3.4860    0.3430    0.0600 N   0  0  0  0  0  0  0  0  0  0  0  0
    2.4540   -0.4180   -0.0800 C   0  0  0  0  0  0  0  0  0  0  0  0
    2.7720   -1.8660    0.0900 C   0  0  0  0  0  0  0  0  0  0  0  0
    1.6860   -2.7110   -0.3540 N   0  0  0  0  0  0  0  0  0  0  0  0
    0.5620   -2.7010    0.5320 C   0  0  0  0  0  0  0  0  0  0  0  0
   -0.3980   -1.6160    0.1950 C   0  0  0  0  0  0  0  0  0  0  0  0
   -1.7160   -1.9770    0.3010 C   0  0  0  0  0  0  0  0  0  0  0  0
   -2.7090   -1.0640    0.0170 C   0  0  0  0  0  0  0  0  0  0  0  0
   -2.4100    0.2230   -0.3770 C   0  0  0  0  0  0  0  0  0  0  0  0
   -3.6550    1.3890   -0.7400 S   0  0  2  0  0  0  0  0  0  0  0  0
   -4.0390    2.2440    0.7820 C   0  0  0  0  0  0  0  0  0  0  0  0
   -4.8590    0.6550   -1.2300 O   0  0  0  0  0  0  0  0  0  0  0  0
   -3.1500    2.3580   -1.7690 O   0  0  0  0  0  0  0  0  0  0  0  0
   -1.0920    0.6090   -0.4900 C   0  0  0  0  0  0  0  0  0  0  0  0
   -0.1020   -0.3260   -0.2000 C   0  0  0  0  0  0  0  0  0  0  0  0
    1.2190    0.2270   -0.3640 N   0  0  0  0  0  0  0  0  0  0  0  0
  1  2  2  0
  2  3  1  0
  3  4  2  3
  4  5  1  0
  4 18  1  0
  5  6  1  0
  6  7  1  0
  7  8  1  0
  8  9  2  0
  8 17  1  0
  9 10  1  0
 10 11  2  0
 11 12  1  0
 11 16  1  0
 12 13  1  1
 12 14  2  0
 12 15  2  0
 16 17  2  0
 17 18  1  0
M  END
