
     RDKit          3D

 18 19  0  0  0  0  0  0  0  0999 V2000
   -4.8960    0.4200    0.1500 C   0  0  0  0  0  0  0  0  0  0  0  0
   -3.5820    0.4690   -0.1070 C   0  0  0  0  0  0  0  0  0  0  0  0
   -2.7420   -0.7090    0.0100 C   0  0  0  0  0  0  0  0  0  0  0  0
   -1.6550   -0.7940   -0.7370 C   0  0  0  0  0  0  0  0  0  0  0  0
   -0.6550   -2.2030   -0.5950 S   0  0  2  0  0  0  0  0  0  0  0  0
    0.0470   -2.3930   -1.9180 O   0  0  0  0  0  0  0  0  0  0  0  0
   -1.4840   -3.4420   -0.3250 O   0  0  0  0  0  0  0  0  0  0  0  0
    0.4540   -2.0240    0.6910 N   0  0  0  0  0  0  0  0  0  0  0  0
    1.4650   -1.0650    0.8390 C   0  0  0  0  0  0  0  0  0  0  0  0
    2.7660   -1.5200    1.1170 C   0  0  0  0  0  0  0  0  0  0  0  0
    3.8280   -0.6610    1.2620 C   0  0  0  0  0  0  0  0  0  0  0  0
    3.6450    0.6960    1.1380 C   0  0  0  0  0  0  0  0  0  0  0  0
    4.8200    1.5870    1.3020 C   0  0  0  0  0  0  0  0  0  0  0  0
    2.4160    1.1340    0.8740 N   0  0  0  0  0  0  0  0  0  0  0  0
    1.3440    0.2940    0.7260 C   0  0  0  0  0  0  0  0  0  0  0  0
   -1.3460    0.3160   -1.6700 C   0  0  0  0  0  0  0  0  0  0  0  0
   -1.6540    1.5700   -1.0870 N   0  0  0  0  0  0  0  0  0  0  0  0
   -2.9470    1.7300   -0.5200 C   0  0  0  0  0  0  0  0  0  0  0  0
  1  2  2  0
  2  3  1  0
  2 18  1  0
  3  4  2  0
  4  5  1  0
  4 16  1  0
  5  6  2  0
  5  7  2  0
  5  8  1  1
  8  9  1  0
  9 10  2  0
  9 15  1  0
 10 11  1  0
 11 12  2  0
 12 13  1  0
 12 14  1  0
 14 15  2  0
 16 17  1  0
 17 18  1  0
M  END
