
     RDKit          3D

 16 17  0  0  0  0  0  0  0  0999 V2000
    5.4450   -0.2100    0.2640 C   0  0  0  0  0  0  0  0  0  0  0  0
    3.9740    0.0660    0.1860 C   0  0  0  0  0  0  0  0  0  0  0  0
    3.1460   -0.9520   -0.1890 C   0  0  0  0  0  0  0  0  0  0  0  0
    1.7960   -0.7470   -0.2730 C   0  0  0  0  0  0  0  0  0  0  0  0
    1.2240    0.4750    0.0110 C   0  0  0  0  0  0  0  0  0  0  0  0
   -0.2340    0.6540   -0.0900 C   0  0  0  0  0  0  0  0  0  0  0  0
   -0.9100   -0.5280    0.3920 N   0  0  0  0  0  0  0  0  0  0  0  0
   -2.3270   -0.6310    0.3990 C   0  0  0  0  0  0  0  0  0  0  0  0
   -3.0720    0.4370   -0.0730 C   0  0  0  0  0  0  0  0  0  0  0  0
   -4.4640    0.4040   -0.0960 C   0  0  0  0  0  0  0  0  0  0  0  0
   -5.2180    1.4720   -0.5680 O   0  0  0  0  0  0  0  0  0  0  0  0
   -5.0490   -0.7540    0.3790 C   0  0  0  0  0  0  0  0  0  0  0  0
   -4.2850   -1.8080    0.8460 C   0  0  0  0  0  0  0  0  0  0  0  0
   -2.9480   -1.7270    0.8460 N   0  0  0  0  0  0  0  0  0  0  0  0
    2.0790    1.4970    0.3900 C   0  0  0  0  0  0  0  0  0  0  0  0
    3.4310    1.2900    0.4750 C   0  0  0  0  0  0  0  0  0  0  0  0
  1  2  1  0
  2  3  2  0
  2 16  1  0
  3  4  1  0
  4  5  2  0
  5  6  1  0
  5 15  1  0
  6  7  1  0
  7  8  1  0
  8  9  2  0
  8 14  1  0
  9 10  1  0
 10 11  1  0
 10 12  2  0
 12 13  1  0
 13 14  2  0
 15 16  2  0
M  END
