
     RDKit          3D

 24 25  0  0  0  0  0  0  0  0999 V2000
   -5.0520    0.5380   -0.5170 C   0  0  0  0  0  0  0  0  0  0  0  0
   -4.6270    0.2230    0.8740 C   0  0  2  0  0  0  0  0  0  0  0  0
   -4.1500    1.5100    1.5790 C   0  0  0  0  0  0  0  0  0  0  0  0
   -3.7440   -0.9110    1.1210 C   0  0  0  0  0  0  0  0  0  0  0  0
   -2.3780   -1.0020    0.5830 C   0  0  1  0  0  0  0  0  0  0  0  0
   -1.7350   -2.2500    0.9930 N   0  0  0  0  0  0  0  0  0  0  0  0
   -0.4010   -2.1330    1.9750 S   0  0  1  0  0  0  0  0  0  0  0  0
   -0.5980   -1.4980    3.3070 O   0  0  0  0  0  0  0  0  0  0  0  0
    0.1440   -3.5140    2.2190 O   0  0  0  0  0  0  0  0  0  0  0  0
    0.8850   -1.2490    1.1410 C   0  0  0  0  0  0  0  0  0  0  0  0
    1.0420    0.1110    1.2390 C   0  0  0  0  0  0  0  0  0  0  0  0
    2.0710    0.7590    0.5580 C   0  0  0  0  0  0  0  0  0  0  0  0
    2.9660    0.0720   -0.2350 C   0  0  0  0  0  0  0  0  0  0  0  0
    4.0550    0.7110   -0.9690 C   0  0  0  0  0  0  0  0  0  0  0  0
    3.9140    1.9920   -1.4590 C   0  0  0  0  0  0  0  0  0  0  0  0
    4.9570    2.5990   -2.1600 C   0  0  0  0  0  0  0  0  0  0  0  0
    6.1510    1.9520   -2.3880 C   0  0  0  0  0  0  0  0  0  0  0  0
    6.2900    0.6720   -1.8980 C   0  0  0  0  0  0  0  0  0  0  0  0
    5.2580    0.0720   -1.2040 C   0  0  0  0  0  0  0  0  0  0  0  0
    2.8070   -1.2930   -0.3320 C   0  0  0  0  0  0  0  0  0  0  0  0
    1.7920   -1.9430    0.3380 C   0  0  0  0  0  0  0  0  0  0  0  0
   -2.1540   -0.9250   -0.8520 C   0  0  0  0  0  0  0  0  0  0  0  0
   -1.6710   -1.8870   -1.4970 O   0  0  0  0  0  0  0  0  0  0  0  0
   -2.4470    0.1950   -1.5780 O   0  0  0  0  0  0  0  0  0  0  0  0
  2  1  1  6
  2  3  1  0
  2  4  1  0
  5  4  1  6
  5  6  1  0
  5 22  1  0
  7  6  1  6
  7  8  2  0
  7  9  2  0
  7 10  1  0
 10 11  2  0
 10 21  1  0
 11 12  1  0
 12 13  2  0
 13 14  1  0
 13 20  1  0
 14 15  2  0
 14 19  1  0
 15 16  1  0
 16 17  2  0
 17 18  1  0
 18 19  2  0
 20 21  2  0
 22 23  2  0
 22 24  1  0
M  END
