
     RDKit          3D

 18 19  0  0  0  0  0  0  0  0999 V2000
   -2.2570   -0.7200   -2.0950 C   0  0  0  0  0  0  0  0  0  0  0  0
   -2.9980   -0.3710   -1.0580 C   0  0  0  0  0  0  0  0  0  0  0  0
   -4.4110    0.0540   -1.1830 C   0  0  0  0  0  0  0  0  0  0  0  0
   -5.1670   -0.0670   -0.0660 O   0  0  0  0  0  0  0  0  0  0  0  0
   -4.6860   -0.8400    0.9420 C   0  0  0  0  0  0  0  0  0  0  0  0
   -3.2640   -0.6250    1.2750 C   0  0  0  0  0  0  0  0  0  0  0  0
   -2.4280   -0.3930    0.2840 C   0  0  0  0  0  0  0  0  0  0  0  0
   -0.9600   -0.1590    0.4750 C   0  0  0  0  0  0  0  0  0  0  0  0
   -0.4520    1.4320   -0.1250 S   0  0  0  0  0  0  0  0  0  0  0  0
    1.2650    1.7500    0.1390 C   0  0  0  0  0  0  0  0  0  0  0  0
    1.7050    2.9750    0.1850 N   0  0  0  0  0  0  0  0  0  0  0  0
    3.1290    2.9670    0.4200 C   0  0  0  0  0  0  0  0  0  0  0  0
    3.2490    1.6290    1.2310 C   0  0  0  0  0  0  0  0  0  0  0  0
    2.3500    0.8800    0.3510 N   0  0  0  0  0  0  0  0  0  0  0  0
    2.6010   -0.4020   -0.1470 C   0  0  0  0  0  0  0  0  0  0  0  0
    1.8710   -1.0100   -0.9520 O   0  0  0  0  0  0  0  0  0  0  0  0
    3.8270   -1.1150    0.3050 C   0  0  0  0  0  0  0  0  0  0  0  0
    3.9370   -2.4180   -0.2970 N   0  0  0  0  0  0  0  0  0  0  0  0
  1  2  2  0
  2  3  1  0
  2  7  1  0
  3  4  1  0
  4  5  1  0
  5  6  1  0
  6  7  2  0
  7  8  1  0
  8  9  1  0
  9 10  1  0
 10 11  2  0
 10 14  1  0
 11 12  1  0
 12 13  1  0
 13 14  1  0
 14 15  1  0
 15 16  2  0
 15 17  1  0
 17 18  1  0
M  END
