
     RDKit          3D

 18 19  0  0  0  0  0  0  0  0999 V2000
    5.2430    1.0860    1.1010 C   0  0  0  0  0  0  0  0  0  0  0  0
    4.3990   -0.0770    0.7300 C   0  0  0  0  0  0  0  0  0  0  0  0
    4.4630   -1.2880    1.0900 N   0  0  0  0  0  0  0  0  0  0  0  0
    3.4250   -2.0560    0.4650 C   0  0  0  0  0  0  0  0  0  0  0  0
    3.1690   -3.2880    0.5750 O   0  0  0  0  0  0  0  0  0  0  0  0
    2.6750   -1.1160   -0.3690 C   0  0  0  0  0  0  0  0  0  0  0  0
    1.4750   -1.4200   -1.2190 C   0  0  0  0  0  0  0  0  0  0  0  0
    0.9080    0.1500   -1.9470 S   0  0  0  0  0  0  0  0  0  0  0  0
    0.1870    1.2170   -0.6520 C   0  0  0  0  0  0  0  0  0  0  0  0
   -1.0470    0.5780   -0.2190 C   0  0  0  0  0  0  0  0  0  0  0  0
   -1.1060   -0.5460    0.3150 O   0  0  0  0  0  0  0  0  0  0  0  0
   -2.3140    1.1200   -0.3350 N   0  0  0  0  0  0  0  0  0  0  0  0
   -3.5220    0.4440    0.0380 C   0  0  0  0  0  0  0  0  0  0  0  0
   -4.4550    1.2470    0.2260 N   0  0  0  0  0  0  0  0  0  0  0  0
   -5.6720    0.5810    0.5890 C   0  0  0  0  0  0  0  0  0  0  0  0
   -5.3490   -0.8720    0.4830 C   0  0  0  0  0  0  0  0  0  0  0  0
   -4.0890   -0.8640    0.1750 C   0  0  0  0  0  0  0  0  0  0  0  0
    3.2630    0.0550   -0.2030 C   0  0  0  0  0  0  0  0  0  0  0  0
  1  2  1  0
  2  3  2  0
  2 18  1  0
  3  4  1  0
  4  5  2  0
  4  6  1  0
  6  7  1  0
  6 18  2  0
  7  8  1  0
  8  9  1  0
  9 10  1  0
 10 11  2  0
 10 12  1  0
 12 13  1  0
 13 14  2  0
 13 17  1  0
 14 15  1  0
 15 16  1  0
 16 17  2  0
M  END
