
     RDKit          3D

 17 17  0  0  0  0  0  0  0  0999 V2000
   -3.3630    2.0040    0.6030 C   0  0  0  0  0  0  0  0  0  0  0  0
   -2.4120    0.9920    0.3650 O   0  0  0  0  0  0  0  0  0  0  0  0
   -2.6620   -0.0580   -0.5570 C   0  0  0  0  0  0  0  0  0  0  0  0
   -3.8270   -0.1130   -1.2330 C   0  0  0  0  0  0  0  0  0  0  0  0
   -3.7210   -1.5770   -2.2710 S   0  0  0  0  0  0  0  0  0  0  0  0
   -2.0110   -2.0020   -1.6560 C   0  0  0  0  0  0  0  0  0  0  0  0
   -1.7210   -0.9870   -0.7390 C   0  0  0  0  0  0  0  0  0  0  0  0
   -0.4510   -1.0800   -0.1150 O   0  0  0  0  0  0  0  0  0  0  0  0
   -0.2320   -1.7530    1.0490 C   0  0  0  0  0  0  0  0  0  0  0  0
   -1.2680   -2.2870    1.5210 O   0  0  0  0  0  0  0  0  0  0  0  0
    1.0780   -1.8730    1.7320 C   0  0  0  0  0  0  0  0  0  0  0  0
    2.1050   -1.2110    1.0510 O   0  0  0  0  0  0  0  0  0  0  0  0
    2.1250    0.1420    0.7770 C   0  0  0  0  0  0  0  0  0  0  0  0
    1.1450    0.8250    1.1710 O   0  0  0  0  0  0  0  0  0  0  0  0
    3.2490    0.7970    0.0440 C   0  0  1  0  0  0  0  0  0  0  0  0
    3.5300    0.1350   -1.2660 C   0  0  0  0  0  0  0  0  0  0  0  0
    2.9790    2.2000   -0.0840 N   0  0  0  0  0  0  0  0  0  0  0  0
  1  2  1  0
  2  3  1  0
  3  4  2  0
  3  7  1  0
  4  5  1  0
  5  6  1  0
  6  7  2  0
  7  8  1  0
  8  9  1  0
  9 10  2  0
  9 11  1  0
 11 12  1  0
 12 13  1  0
 13 14  2  0
 13 15  1  0
 15 16  1  6
 15 17  1  0
M  END
