
     RDKit          3D

 17 17  0  0  0  0  0  0  0  0999 V2000
    4.6490    1.1620    1.5730 C   0  0  0  0  0  0  0  0  0  0  0  0
    3.6780    0.2030    1.8620 O   0  0  0  0  0  0  0  0  0  0  0  0
    2.6330   -0.1090    0.9760 C   0  0  0  0  0  0  0  0  0  0  0  0
    1.6980   -1.0590    1.2980 C   0  0  0  0  0  0  0  0  0  0  0  0
    0.6760   -1.3600    0.4250 C   0  0  0  0  0  0  0  0  0  0  0  0
    0.5410   -0.7330   -0.7940 C   0  0  0  0  0  0  0  0  0  0  0  0
   -0.7860   -1.1720   -1.8350 S   0  0  2  0  0  0  0  0  0  0  0  0
   -1.1270   -2.6050   -1.5430 O   0  0  0  0  0  0  0  0  0  0  0  0
   -0.2770   -1.0610   -3.2530 O   0  0  0  0  0  0  0  0  0  0  0  0
   -2.0680   -0.1040   -1.5270 N   0  0  0  0  0  0  0  0  0  0  0  0
   -2.6070   -0.1020   -0.2220 C   0  0  2  0  0  0  0  0  0  0  0  0
   -4.0590   -0.5160   -0.1440 C   0  0  0  0  0  0  0  0  0  0  0  0
   -2.3840    1.2000    0.4530 C   0  0  0  0  0  0  0  0  0  0  0  0
   -1.7760    2.0960   -0.1830 O   0  0  0  0  0  0  0  0  0  0  0  0
   -2.8350    1.4260    1.7520 O   0  0  0  0  0  0  0  0  0  0  0  0
    1.4730    0.2170   -1.1200 C   0  0  0  0  0  0  0  0  0  0  0  0
    2.5110    0.5340   -0.2530 C   0  0  0  0  0  0  0  0  0  0  0  0
  1  2  1  0
  2  3  1  0
  3  4  2  0
  3 17  1  0
  4  5  1  0
  5  6  2  0
  6  7  1  0
  6 16  1  0
  7  8  2  0
  7  9  2  0
  7 10  1  6
 10 11  1  0
 11 12  1  6
 11 13  1  0
 13 14  2  0
 13 15  1  0
 16 17  2  0
M  END
