
     RDKit          3D

 16 16  0  0  0  0  0  0  0  0999 V2000
    5.1260   -0.8760   -1.0980 C   0  0  0  0  0  0  0  0  0  0  0  0
    3.9610    0.0250   -1.2800 C   0  0  0  0  0  0  0  0  0  0  0  0
    3.5800    0.3220   -2.4140 O   0  0  0  0  0  0  0  0  0  0  0  0
    3.1800    0.6270   -0.1680 C   0  0  0  0  0  0  0  0  0  0  0  0
    1.8860   -0.1180    0.0670 C   0  0  0  0  0  0  0  0  0  0  0  0
    1.0900    0.5030    1.1960 C   0  0  0  0  0  0  0  0  0  0  0  0
   -0.1890   -0.2680    1.3990 C   0  0  0  0  0  0  0  0  0  0  0  0
   -0.1910   -1.2850    2.1260 O   0  0  0  0  0  0  0  0  0  0  0  0
   -1.3540    0.1280    0.7950 O   0  0  0  0  0  0  0  0  0  0  0  0
   -2.5810   -0.4930    0.8990 C   0  0  0  0  0  0  0  0  0  0  0  0
   -2.7420   -1.5110    1.5980 N   0  0  0  0  0  0  0  0  0  0  0  0
   -3.7240    0.1070    0.1350 C   0  0  0  0  0  0  0  0  0  0  0  0
   -4.9390   -0.3510    0.1220 C   0  0  0  0  0  0  0  0  0  0  0  0
   -5.7590    0.4400   -0.6890 O   0  0  0  0  0  0  0  0  0  0  0  0
   -4.9420    1.4520   -1.2570 C   0  0  0  0  0  0  0  0  0  0  0  0
   -3.6760    1.2190   -0.6650 O   0  0  0  0  0  0  0  0  0  0  0  0
  1  2  1  0
  2  3  2  0
  2  4  1  0
  4  5  1  0
  5  6  1  0
  6  7  1  0
  7  8  2  0
  7  9  1  0
  9 10  1  0
 10 11  2  0
 10 12  1  0
 12 13  2  0
 12 16  1  0
 13 14  1  0
 14 15  1  0
 15 16  1  0
M  END
