
     RDKit          3D

 17 17  0  0  0  0  0  0  0  0999 V2000
    5.4410    1.5340    1.2470 O   0  0  0  0  0  0  0  0  0  0  0  0
    5.3180    0.5590    0.5180 C   0  0  0  0  0  0  0  0  0  0  0  0
    4.5130   -0.9560    1.0150 S   0  0  0  0  0  0  0  0  0  0  0  0
    3.5340   -1.6440   -0.3500 C   0  0  0  0  0  0  0  0  0  0  0  0
    2.4020   -0.7580   -0.6750 C   0  0  0  0  0  0  0  0  0  0  0  0
    1.5890   -1.0210   -1.5900 O   0  0  0  0  0  0  0  0  0  0  0  0
    2.2130    0.4580    0.0780 N   0  0  0  0  0  0  0  0  0  0  0  0
    1.1080    1.2960   -0.2610 C   0  0  0  0  0  0  0  0  0  0  0  0
   -0.1910    0.5650   -0.1030 C   0  0  0  0  0  0  0  0  0  0  0  0
   -0.2450   -0.6340    0.2850 O   0  0  0  0  0  0  0  0  0  0  0  0
   -1.4040    1.1750   -0.3760 O   0  0  0  0  0  0  0  0  0  0  0  0
   -2.6250    0.5330   -0.2410 C   0  0  0  0  0  0  0  0  0  0  0  0
   -3.3240    0.5430    0.8790 C   0  0  0  0  0  0  0  0  0  0  0  0
   -4.5770   -0.2180    0.7310 C   0  0  0  0  0  0  0  0  0  0  0  0
   -4.5270   -0.6950   -0.6700 C   0  0  0  0  0  0  0  0  0  0  0  0
   -3.4000   -0.2440   -1.1840 C   0  0  0  0  0  0  0  0  0  0  0  0
   -3.0210   -0.5040   -2.4970 O   0  0  0  0  0  0  0  0  0  0  0  0
  1  2  2  0
  2  3  1  0
  3  4  1  0
  4  5  1  0
  5  6  2  0
  5  7  1  0
  7  8  1  0
  8  9  1  0
  9 10  2  0
  9 11  1  0
 11 12  1  0
 12 13  2  0
 12 16  1  0
 13 14  1  0
 14 15  1  0
 15 16  2  0
 16 17  1  0
M  END
