
     RDKit          3D

 17 17  0  0  0  0  0  0  0  0999 V2000
   -1.7670   -2.3100    0.3650 N   0  0  0  0  0  0  0  0  0  0  0  0
   -2.3930   -0.9930    0.2950 C   0  0  0  0  0  0  0  0  0  0  0  0
   -1.7250    0.0820   -0.0140 C   0  0  0  0  0  0  0  0  0  0  0  0
   -0.2690    0.0960   -0.3270 C   0  0  0  0  0  0  0  0  0  0  0  0
    0.3450    1.1420   -0.6190 O   0  0  0  0  0  0  0  0  0  0  0  0
    0.4470   -1.0650   -0.3010 O   0  0  0  0  0  0  0  0  0  0  0  0
    1.8060   -1.2170   -0.5680 C   0  0  0  0  0  0  0  0  0  0  0  0
    2.6920   -0.4160    0.3700 C   0  0  0  0  0  0  0  0  0  0  0  0
    4.1290   -0.6860   -0.0470 C   0  0  0  0  0  0  0  0  0  0  0  0
    5.0310   -0.0000    0.7470 O   0  0  0  0  0  0  0  0  0  0  0  0
   -2.4720    1.3270   -0.0540 C   0  0  0  0  0  0  0  0  0  0  0  0
   -2.2160    2.4840   -0.5920 C   0  0  0  0  0  0  0  0  0  0  0  0
   -3.1790    3.5700   -0.4620 C   0  0  0  0  0  0  0  0  0  0  0  0
   -4.2640    3.3710    0.1780 O   0  0  0  0  0  0  0  0  0  0  0  0
   -3.9830    0.9290    0.8710 S   0  0  0  0  0  0  0  0  0  0  0  0
   -3.8030   -0.8240    0.5780 C   0  0  0  0  0  0  0  0  0  0  0  0
   -4.6770   -1.7030    0.6070 O   0  0  0  0  0  0  0  0  0  0  0  0
  1  2  1  0
  2  3  2  0
  2 16  1  0
  3  4  1  0
  3 11  1  0
  4  5  2  0
  4  6  1  0
  6  7  1  0
  7  8  1  0
  8  9  1  0
  9 10  1  0
 11 12  2  3
 11 15  1  0
 12 13  1  0
 13 14  2  0
 15 16  1  0
 16 17  2  0
M  END
