
     RDKit          3D

 17 17  0  0  0  0  0  0  0  0999 V2000
   -4.7620   -0.2030    1.9040 C   0  0  0  0  0  0  0  0  0  0  0  0
   -4.5030    0.2410    0.6900 C   0  0  0  0  0  0  0  0  0  0  0  0
   -5.7320    0.9330   -0.4590 S   0  0  0  0  0  0  0  0  0  0  0  0
   -4.7000    0.6500   -1.8890 C   0  0  0  0  0  0  0  0  0  0  0  0
   -5.1160    0.5940   -3.0550 O   0  0  0  0  0  0  0  0  0  0  0  0
   -3.3700    0.5180   -1.3430 C   0  0  0  0  0  0  0  0  0  0  0  0
   -3.2720    0.3150   -0.0590 C   0  0  0  0  0  0  0  0  0  0  0  0
   -1.9540    0.1680    0.5970 C   0  0  0  0  0  0  0  0  0  0  0  0
   -1.9340   -0.0250    1.8340 O   0  0  0  0  0  0  0  0  0  0  0  0
   -0.7230    0.2360   -0.1140 N   0  0  0  0  0  0  0  0  0  0  0  0
    0.5000    0.0740    0.6570 C   0  0  0  0  0  0  0  0  0  0  0  0
    1.6990    0.1700   -0.2230 C   0  0  0  0  0  0  0  0  0  0  0  0
    1.5590    0.3660   -1.4520 O   0  0  0  0  0  0  0  0  0  0  0  0
    2.9760    0.0490    0.2740 O   0  0  0  0  0  0  0  0  0  0  0  0
    4.1440    0.1340   -0.5360 C   0  0  0  0  0  0  0  0  0  0  0  0
    5.3210   -0.0560    0.4290 C   0  0  0  0  0  0  0  0  0  0  0  0
    6.5350    0.0030   -0.2200 O   0  0  0  0  0  0  0  0  0  0  0  0
  1  2  2  0
  2  3  1  0
  2  7  1  0
  3  4  1  0
  4  5  2  0
  4  6  1  0
  6  7  2  0
  7  8  1  0
  8  9  2  0
  8 10  1  0
 10 11  1  0
 11 12  1  0
 12 13  2  0
 12 14  1  0
 14 15  1  0
 15 16  1  0
 16 17  1  0
M  END
