
     RDKit          3D

 17 17  0  0  0  0  0  0  0  0999 V2000
    6.6510   -0.7210   -0.3700 C   0  0  0  0  0  0  0  0  0  0  0  0
    5.5110   -0.0010   -0.7360 O   0  0  0  0  0  0  0  0  0  0  0  0
    4.2210   -0.2900   -0.3330 C   0  0  0  0  0  0  0  0  0  0  0  0
    4.0550   -1.2750    0.4210 O   0  0  0  0  0  0  0  0  0  0  0  0
    3.0680    0.4900   -0.7410 C   0  0  0  0  0  0  0  0  0  0  0  0
    3.1540    1.4940   -1.4960 O   0  0  0  0  0  0  0  0  0  0  0  0
    1.7870    0.1210   -0.2800 N   0  0  0  0  0  0  0  0  0  0  0  0
    0.6010    0.8900   -0.6750 C   0  0  0  0  0  0  0  0  0  0  0  0
   -0.5840    0.2430   -0.0220 C   0  0  0  0  0  0  0  0  0  0  0  0
   -1.7890    0.9100   -0.3390 O   0  0  0  0  0  0  0  0  0  0  0  0
   -3.0130    0.5200    0.1290 C   0  0  0  0  0  0  0  0  0  0  0  0
   -3.7130    1.2790    0.9860 C   0  0  0  0  0  0  0  0  0  0  0  0
   -5.0360    0.9030    1.5180 C   0  0  0  0  0  0  0  0  0  0  0  0
   -5.4800   -0.3330    1.0290 O   0  0  0  0  0  0  0  0  0  0  0  0
   -4.7750   -1.1190    0.1520 C   0  0  0  0  0  0  0  0  0  0  0  0
   -3.5970   -0.7400   -0.2950 C   0  0  0  0  0  0  0  0  0  0  0  0
   -2.7310   -1.7950   -1.4260 S   0  0  0  0  0  0  0  0  0  0  0  0
  1  2  1  0
  2  3  1  0
  3  4  2  0
  3  5  1  0
  5  6  2  0
  5  7  1  0
  7  8  1  0
  8  9  1  0
  9 10  1  0
 10 11  1  0
 11 12  2  0
 11 16  1  0
 12 13  1  0
 13 14  1  0
 14 15  1  0
 15 16  2  0
 16 17  1  0
M  END
