
     RDKit          3D

 21 22  0  0  0  0  0  0  0  0999 V2000
    2.6520   -2.0280    0.8810 C   0  0  0  0  0  0  0  0  0  0  0  0
    2.4350   -1.1390   -0.0620 C   0  0  0  0  0  0  0  0  0  0  0  0
    1.4730   -1.4330   -1.1490 C   0  0  0  0  0  0  0  0  0  0  0  0
    0.6920   -0.1920   -1.5430 C   0  0  1  0  0  0  0  0  0  0  0  0
   -0.3000    0.1340   -0.6190 O   0  0  0  0  0  0  0  0  0  0  0  0
   -1.6550    0.1930   -0.9060 C   0  0  0  0  0  0  0  0  0  0  0  0
   -1.9890   -0.0710   -2.0900 O   0  0  0  0  0  0  0  0  0  0  0  0
   -2.6790    0.5370    0.0780 C   0  0  2  0  0  0  0  0  0  0  0  0
   -2.7450   -0.3590    1.2770 C   0  0  0  0  0  0  0  0  0  0  0  0
   -4.2320   -0.3150    1.6130 C   0  0  1  0  0  0  0  0  0  0  0  0
   -4.4190    0.3580    2.9570 C   0  0  0  0  0  0  0  0  0  0  0  0
   -4.8390    0.4930    0.6640 O   0  0  0  0  0  0  0  0  0  0  0  0
   -4.0620    0.3520   -0.5100 C   0  0  2  0  0  0  0  0  0  0  0  0
   -4.3110   -1.0640   -0.9820 C   0  0  0  0  0  0  0  0  0  0  0  0
    1.6030    1.0060   -1.6950 C   0  0  0  0  0  0  0  0  0  0  0  0
    2.3200    1.3450   -0.4010 C   0  0  1  0  0  0  0  0  0  0  0  0
    3.2130    2.5410   -0.6470 C   0  0  0  0  0  0  0  0  0  0  0  0
    1.4670    1.6490    0.6270 O   0  0  0  0  0  0  0  0  0  0  0  0
    3.1360    0.1320   -0.0530 C   0  0  0  0  0  0  0  0  0  0  0  0
    4.4160    0.2140    0.2210 C   0  0  0  0  0  0  0  0  0  0  0  0
    5.3050   -0.8260    0.5350 N   0  0  0  0  0  0  0  0  0  0  0  0
  1  2  2  0
  2  3  1  0
  2 19  1  0
  3  4  1  0
  4  5  1  1
  4 15  1  0
  5  6  1  0
  6  7  2  0
  8  6  1  6
  8  9  1  0
  8 13  1  0
  9 10  1  0
 10 11  1  1
 10 12  1  0
 12 13  1  0
 13 14  1  1
 15 16  1  0
 16 17  1  6
 16 18  1  0
 16 19  1  0
 19 20  2  3
 20 21  1  0
M  CHG  1  21   1
M  END
