
     RDKit          3D

 21 22  0  0  0  0  0  0  0  0999 V2000
    4.0810   -1.9940   -1.1980 C   0  0  0  0  0  0  0  0  0  0  0  0
    2.7030   -1.6050   -0.7290 C   0  0  0  0  0  0  0  0  0  0  0  0
    2.7310   -0.7740    0.5180 C   0  0  1  0  0  0  0  0  0  0  0  0
    3.3600   -1.5530    1.5120 O   0  0  0  0  0  0  0  0  0  0  0  0
    3.5180    0.4860    0.3870 C   0  0  0  0  0  0  0  0  0  0  0  0
    2.5680    1.6390    0.7220 C   0  0  1  0  0  0  0  0  0  0  0  0
    3.2440    2.8560    0.6570 O   0  0  0  0  0  0  0  0  0  0  0  0
    1.4730    1.5620   -0.3280 C   0  0  0  0  0  0  0  0  0  0  0  0
    0.5500    0.4160    0.1120 C   0  0  2  0  0  0  0  0  0  0  0  0
   -0.5450    1.0270    0.7920 N   0  0  0  0  0  0  0  0  0  0  0  0
   -1.8500    0.8000    0.1320 C   0  0  2  0  0  0  0  0  0  0  0  0
   -2.1890   -0.5920    0.3180 C   0  0  0  0  0  0  0  0  0  0  0  0
   -3.4260   -1.1890   -0.2160 C   0  0  2  0  0  0  0  0  0  0  0  0
   -3.5070   -2.6840    0.1860 C   0  0  0  0  0  0  0  0  0  0  0  0
   -3.3890   -1.2230   -1.7480 C   0  0  0  0  0  0  0  0  0  0  0  0
   -1.9020    1.4230   -1.2130 C   0  0  0  0  0  0  0  0  0  0  0  0
   -1.6870    2.8310   -0.8970 O   0  0  0  0  0  0  0  0  0  0  0  0
   -2.1360    3.0620    0.3820 C   0  0  0  0  0  0  0  0  0  0  0  0
   -2.0410    4.1270    1.0060 O   0  0  0  0  0  0  0  0  0  0  0  0
   -2.7490    1.8080    0.8670 C   0  0  0  0  0  0  0  0  0  0  0  0
    1.3160   -0.5570    0.9980 C   0  0  0  0  0  0  0  0  0  0  0  0
  1  2  1  0
  2  3  1  0
  3  4  1  1
  3  5  1  0
  3 21  1  0
  5  6  1  0
  6  7  1  6
  6  8  1  0
  8  9  1  0
  9 10  1  1
  9 21  1  0
 10 11  1  0
 11 12  1  6
 11 16  1  0
 11 20  1  0
 12 13  1  0
 13 14  1  1
 13 15  1  0
 16 17  1  0
 17 18  1  0
 18 19  2  0
 18 20  1  0
M  CHG  1  10   1
M  END
