
     RDKit          3D

 21 22  0  0  0  0  0  0  0  0999 V2000
   -4.7080    1.8770   -1.0060 C   0  0  0  0  0  0  0  0  0  0  0  0
   -3.4520    1.7050   -1.4910 O   0  0  0  0  0  0  0  0  0  0  0  0
   -2.6610    0.7270   -0.9140 C   0  0  1  0  0  0  0  0  0  0  0  0
   -3.3980   -0.6170   -1.0620 C   0  0  0  0  0  0  0  0  0  0  0  0
   -1.4590    0.6010   -1.8300 C   0  0  0  0  0  0  0  0  0  0  0  0
   -2.3730    1.0360    0.4950 C   0  0  2  0  0  0  0  0  0  0  0  0
   -1.6920    2.2500    0.6690 O   0  0  0  0  0  0  0  0  0  0  0  0
   -1.6800    0.0050    1.3140 C   0  0  1  0  0  0  0  0  0  0  0  0
   -0.2980   -0.3910    0.8290 C   0  0  0  0  0  0  0  0  0  0  0  0
    0.4940   -0.5570    2.0370 C   0  0  0  0  0  0  0  0  0  0  0  0
    1.7700   -0.8440    2.2110 C   0  0  0  0  0  0  0  0  0  0  0  0
    2.7980   -1.0790    1.2580 C   0  0  0  0  0  0  0  0  0  0  0  0
    4.0340   -1.3920    1.7200 C   0  0  0  0  0  0  0  0  0  0  0  0
    5.1440   -1.6640    0.8360 C   0  0  0  0  0  0  0  0  0  0  0  0
    4.9900   -1.6300   -0.4560 C   0  0  0  0  0  0  0  0  0  0  0  0
    3.7020   -1.3280   -1.0800 C   0  0  0  0  0  0  0  0  0  0  0  0
    2.6110   -0.8480   -0.1880 C   0  0  2  0  0  0  0  0  0  0  0  0
    2.6450    0.6530   -0.2940 N   0  0  0  0  0  0  0  0  0  0  0  0
   -0.3980   -0.3410    3.1370 O   0  0  0  0  0  0  0  0  0  0  0  0
   -1.4140    0.5060    2.6740 C   0  0  0  0  0  0  0  0  0  0  0  0
   -1.9600    1.4660    3.2930 O   0  0  0  0  0  0  0  0  0  0  0  0
  1  2  1  0
  2  3  1  0
  3  4  1  1
  3  5  1  0
  3  6  1  0
  6  7  1  6
  6  8  1  0
  8  9  1  6
  8 20  1  0
  9 10  1  0
 10 11  2  3
 10 19  1  0
 11 12  1  0
 12 13  2  0
 12 17  1  0
 13 14  1  0
 14 15  2  0
 15 16  1  0
 16 17  1  0
 17 18  1  1
 19 20  1  0
 20 21  2  0
M  CHG  1  18   1
M  END
