
     RDKit          3D

 21 23  0  0  0  0  0  0  0  0999 V2000
    2.0290   -1.9860   -0.6710 O   0  0  0  0  0  0  0  0  0  0  0  0
    2.0970   -0.7560   -0.4730 C   0  0  0  0  0  0  0  0  0  0  0  0
    0.9060    0.1090   -0.3640 C   0  0  0  0  0  0  0  0  0  0  0  0
   -0.3450   -0.6770   -0.4120 C   0  0  1  0  0  0  0  0  0  0  0  0
   -0.4750   -1.6480    0.6980 C   0  0  0  0  0  0  0  0  0  0  0  0
   -1.7810   -2.4110    0.6930 C   0  0  0  0  0  0  0  0  0  0  0  0
   -2.9210   -1.5950    0.0770 C   0  0  1  0  0  0  0  0  0  0  0  0
   -4.1560   -1.9890    0.5650 O   0  0  0  0  0  0  0  0  0  0  0  0
   -2.5740   -0.1740    0.3310 C   0  0  2  0  0  0  0  0  0  0  0  0
   -3.6140    0.8290   -0.1520 C   0  0  2  0  0  0  0  0  0  0  0  0
   -3.9410    0.5490   -1.4740 O   0  0  0  0  0  0  0  0  0  0  0  0
   -2.7320    2.0870   -0.1770 C   0  0  2  0  0  0  0  0  0  0  0  0
   -3.0210    2.8760   -1.2730 O   0  0  0  0  0  0  0  0  0  0  0  0
   -1.2950    1.5510   -0.2450 C   0  0  0  0  0  0  0  0  0  0  0  0
   -1.4980    0.1690   -0.5940 N   0  0  1  0  0  0  0  0  0  0  0  0
    3.4430   -0.1490   -0.3420 C   0  0  0  0  0  0  0  0  0  0  0  0
    4.5690   -0.9170   -0.4370 C   0  0  0  0  0  0  0  0  0  0  0  0
    5.8440   -0.3820   -0.3200 C   0  0  0  0  0  0  0  0  0  0  0  0
    5.9820    0.9720   -0.0990 C   0  0  0  0  0  0  0  0  0  0  0  0
    4.8460    1.7470   -0.0030 C   0  0  0  0  0  0  0  0  0  0  0  0
    3.5630    1.2040   -0.1220 C   0  0  0  0  0  0  0  0  0  0  0  0
  1  2  2  0
  2  3  1  0
  2 16  1  0
  4  3  1  1
  4  5  1  0
  4 15  1  0
  5  6  1  0
  6  7  1  0
  7  8  1  1
  9  7  1  6
  9 10  1  0
  9 15  1  0
 10 11  1  6
 10 12  1  0
 12 13  1  6
 12 14  1  0
 15 14  1  1
 16 17  2  0
 16 21  1  0
 17 18  1  0
 18 19  2  0
 19 20  1  0
 20 21  2  0
M  CHG  1  15   1
M  END
