
     RDKit          3D

 20 21  0  0  0  0  0  0  0  0999 V2000
   -4.2490    1.4490    0.8650 C   0  0  0  0  0  0  0  0  0  0  0  0
   -3.3060    0.2990    1.0090 C   0  0  0  0  0  0  0  0  0  0  0  0
   -2.6270   -0.0380   -0.3060 C   0  0  1  0  0  0  0  0  0  0  0  0
   -3.7810   -0.3940   -1.2630 C   0  0  0  0  0  0  0  0  0  0  0  0
   -2.0240    1.2170   -0.8710 C   0  0  0  0  0  0  0  0  0  0  0  0
   -1.0200    1.8700    0.0060 C   0  0  0  0  0  0  0  0  0  0  0  0
    0.3420    1.3010   -0.0120 C   0  0  0  0  0  0  0  0  0  0  0  0
    0.4430   -0.0570   -0.6440 C   0  0  1  0  0  0  0  0  0  0  0  0
    1.7920   -0.4690   -0.8680 N   0  0  0  0  0  0  0  0  0  0  0  0
    2.7600    0.0180    0.0410 C   0  0  1  0  0  0  0  0  0  0  0  0
    2.9860   -0.9030    1.2310 C   0  0  0  0  0  0  0  0  0  0  0  0
    4.1600   -1.7410    0.7240 C   0  0  0  0  0  0  0  0  0  0  0  0
    4.9550   -0.7700    0.1480 O   0  0  0  0  0  0  0  0  0  0  0  0
    4.1270    0.0030   -0.6270 C   0  0  2  0  0  0  0  0  0  0  0  0
    4.7210    1.4140   -0.6570 C   0  0  0  0  0  0  0  0  0  0  0  0
    3.9100    2.2600   -1.4420 O   0  0  0  0  0  0  0  0  0  0  0  0
   -0.3520   -0.9930    0.2240 C   0  0  0  0  0  0  0  0  0  0  0  0
   -1.7540   -1.2110   -0.2380 C   0  0  1  0  0  0  0  0  0  0  0  0
   -2.3690   -2.1990    0.7690 C   0  0  0  0  0  0  0  0  0  0  0  0
   -1.7040   -1.9220   -1.4540 O   0  0  0  0  0  0  0  0  0  0  0  0
  1  2  1  0
  2  3  1  0
  3  4  1  6
  3  5  1  0
  3 18  1  0
  5  6  1  0
  6  7  1  0
  7  8  1  0
  8  9  1  1
  8 17  1  0
 10  9  1  6
 10 11  1  0
 10 14  1  0
 11 12  1  0
 12 13  1  0
 13 14  1  0
 14 15  1  1
 15 16  1  0
 17 18  1  0
 18 19  1  1
 18 20  1  0
M  CHG  1   9   1
M  END
