
     RDKit          3D

 21 22  0  0  0  0  0  0  0  0999 V2000
   -5.5720   -1.1930    0.1410 C   0  0  0  0  0  0  0  0  0  0  0  0
   -4.3280   -0.7780   -0.0350 C   0  0  0  0  0  0  0  0  0  0  0  0
   -3.2810   -1.7870   -0.1580 C   0  0  0  0  0  0  0  0  0  0  0  0
   -1.8900   -1.2720   -0.3070 C   0  0  2  0  0  0  0  0  0  0  0  0
   -1.0560   -2.2810    0.2490 O   0  0  0  0  0  0  0  0  0  0  0  0
   -1.6110    0.0260    0.3800 C   0  0  1  0  0  0  0  0  0  0  0  0
   -0.4180    0.6530   -0.0730 N   0  0  0  0  0  0  0  0  0  0  0  0
    0.8070   -0.1700    0.0750 C   0  0  2  0  0  0  0  0  0  0  0  0
    1.0830   -0.3190    1.5410 C   0  0  0  0  0  0  0  0  0  0  0  0
    2.1480   -1.1520    1.8160 O   0  0  0  0  0  0  0  0  0  0  0  0
    1.8530    0.7020   -0.5940 C   0  0  0  0  0  0  0  0  0  0  0  0
    3.0870    0.3950   -0.7440 O   0  0  0  0  0  0  0  0  0  0  0  0
    4.1360    0.1950    0.0010 C   0  0  1  0  0  0  0  0  0  0  0  0
    4.6850   -1.2170   -0.2640 C   0  0  0  0  0  0  0  0  0  0  0  0
    6.1070   -1.0090    0.2730 C   0  0  0  0  0  0  0  0  0  0  0  0
    6.4560    0.1410   -0.3840 O   0  0  0  0  0  0  0  0  0  0  0  0
    5.3820    0.9920   -0.4680 C   0  0  0  0  0  0  0  0  0  0  0  0
   -2.7230    1.0090    0.0850 C   0  0  0  0  0  0  0  0  0  0  0  0
   -2.3990    2.4500    0.0170 C   0  0  0  0  0  0  0  0  0  0  0  0
   -3.9740    0.6280   -0.1060 C   0  0  0  0  0  0  0  0  0  0  0  0
   -5.0300    1.6290   -0.4020 C   0  0  0  0  0  0  0  0  0  0  0  0
  1  2  2  0
  2  3  1  0
  2 20  1  0
  3  4  1  0
  4  5  1  1
  4  6  1  0
  6  7  1  6
  6 18  1  0
  7  8  1  0
  8  9  1  1
  8 11  1  0
  9 10  1  0
 11 12  1  0
 13 12  1  6
 13 14  1  0
 13 17  1  0
 14 15  1  0
 15 16  1  0
 16 17  1  0
 18 19  1  0
 18 20  2  0
 20 21  1  0
M  CHG  1   7   1
M  END
