
     RDKit          3D

 20 21  0  0  0  0  0  0  0  0999 V2000
   -4.0170    0.3380    1.6310 C   0  0  0  0  0  0  0  0  0  0  0  0
   -2.7800    0.9200    0.9760 C   0  0  0  0  0  0  0  0  0  0  0  0
   -2.5310    0.2280   -0.3300 C   0  0  2  0  0  0  0  0  0  0  0  0
   -3.7280    0.4150   -1.2740 C   0  0  0  0  0  0  0  0  0  0  0  0
   -2.3920   -1.1200   -0.0720 O   0  0  0  0  0  0  0  0  0  0  0  0
   -1.1110   -1.5210   -0.3420 C   0  0  2  0  0  0  0  0  0  0  0  0
   -0.5600   -2.5210    0.6120 C   0  0  0  0  0  0  0  0  0  0  0  0
    0.8620   -2.8610    0.2850 C   0  0  0  0  0  0  0  0  0  0  0  0
    1.8500   -2.3930    1.3000 C   0  0  0  0  0  0  0  0  0  0  0  0
    2.7680   -1.3040    0.7410 C   0  0  0  0  0  0  0  0  0  0  0  0
    1.9610   -0.1310    0.4260 C   0  0  0  0  0  0  0  0  0  0  0  0
    2.5800    0.8920   -0.1370 C   0  0  0  0  0  0  0  0  0  0  0  0
    3.9650    0.9290   -0.4540 C   0  0  0  0  0  0  0  0  0  0  0  0
    4.7230   -0.0330   -0.2180 O   0  0  0  0  0  0  0  0  0  0  0  0
    4.5720    2.1260   -1.0850 C   0  0  0  0  0  0  0  0  0  0  0  0
    3.5770    3.1040   -1.2760 O   0  0  0  0  0  0  0  0  0  0  0  0
    0.4960    0.1650    0.6180 C   0  0  0  0  0  0  0  0  0  0  0  0
   -0.2690   -0.2980   -0.5550 C   0  0  2  0  0  0  0  0  0  0  0  0
   -1.3240    0.6430   -1.0630 C   0  0  2  0  0  0  0  0  0  0  0  0
   -0.9790    2.0230   -1.0140 N   0  0  0  0  0  0  0  0  0  0  0  0
  1  2  1  0
  2  3  1  0
  3  4  1  6
  3  5  1  0
  3 19  1  0
  5  6  1  0
  6  7  1  1
  6 18  1  0
  7  8  1  0
  8  9  1  0
  9 10  1  0
 10 11  1  0
 11 12  2  3
 11 17  1  0
 12 13  1  0
 13 14  2  0
 13 15  1  0
 15 16  1  0
 18 17  1  1
 18 19  1  0
 19 20  1  1
M  CHG  1  20   1
M  END
