
     RDKit          3D

  9  9  0  0  0  0  0  0  0  0999 V2000
    1.2570   -1.1830   -1.0700 N   0  0  0  0  0  0  0  0  0  0  0  0
    0.8370    0.1520   -0.7140 C   0  0  2  0  0  0  0  0  0  0  0  0
    1.5480    0.6570    0.5040 C   0  0  0  0  0  0  0  0  0  0  0  0
    1.3660   -0.0820    1.6320 O   0  0  0  0  0  0  0  0  0  0  0  0
   -0.6420    0.1910   -0.6420 C   0  0  1  0  0  0  0  0  0  0  0  0
   -1.2710   -0.7230    0.3600 C   0  0  0  0  0  0  0  0  0  0  0  0
   -2.5980   -0.2180    0.2820 O   0  0  0  0  0  0  0  0  0  0  0  0
   -2.3160    1.1540    0.4580 C   0  0  0  0  0  0  0  0  0  0  0  0
   -1.1840    1.4110   -0.3100 O   0  0  0  0  0  0  0  0  0  0  0  0
  2  1  1  1
  2  3  1  0
  2  5  1  0
  3  4  1  0
  5  6  1  1
  5  9  1  0
  6  7  1  0
  7  8  1  0
  8  9  1  0
M  CHG  1   1   1
M  END
