
     RDKit          3D

 20 20  0  0  0  0  0  0  0  0999 V2000
   -5.7360    1.3870    0.2530 C   0  0  0  0  0  0  0  0  0  0  0  0
   -4.8530    0.9600   -0.7820 O   0  0  0  0  0  0  0  0  0  0  0  0
   -3.7430    0.1820   -0.5270 C   0  0  0  0  0  0  0  0  0  0  0  0
   -3.5020   -0.1580    0.6370 O   0  0  0  0  0  0  0  0  0  0  0  0
   -2.8140   -0.2710   -1.5960 C   0  0  0  0  0  0  0  0  0  0  0  0
   -1.4620   -1.2470   -0.9170 S   0  0  0  0  0  0  0  0  0  0  0  0
   -0.4380   -0.1660    0.1130 C   0  0  0  0  0  0  0  0  0  0  0  0
    0.7380   -0.8900    0.7010 C   0  0  2  0  0  0  0  0  0  0  0  0
    1.5530    0.0390    1.5330 C   0  0  0  0  0  0  0  0  0  0  0  0
    2.2050    1.4540    0.6860 S   0  0  0  0  0  0  0  0  0  0  0  0
    3.4730    1.0520   -0.5050 C   0  0  0  0  0  0  0  0  0  0  0  0
    3.9730    2.3320   -1.1340 C   0  0  0  0  0  0  0  0  0  0  0  0
    3.4000    2.7450   -2.1730 O   0  0  0  0  0  0  0  0  0  0  0  0
    5.0270    3.0640   -0.6180 O   0  0  0  0  0  0  0  0  0  0  0  0
    1.5240   -1.6100   -0.2690 N   0  0  0  0  0  0  0  0  0  0  0  0
    2.1200   -2.7520    0.3740 C   0  0  0  0  0  0  0  0  0  0  0  0
    3.1370   -3.4050    0.0320 O   0  0  0  0  0  0  0  0  0  0  0  0
    1.2960   -3.0050    1.5190 N   0  0  0  0  0  0  0  0  0  0  0  0
    0.2580   -2.0470    1.5470 C   0  0  0  0  0  0  0  0  0  0  0  0
   -0.8370   -2.0780    2.1190 O   0  0  0  0  0  0  0  0  0  0  0  0
  1  2  1  0
  2  3  1  0
  3  4  2  0
  3  5  1  0
  5  6  1  0
  6  7  1  0
  8  7  1  6
  8  9  1  0
  8 15  1  0
  8 19  1  0
  9 10  1  0
 10 11  1  0
 11 12  1  0
 12 13  2  0
 12 14  1  0
 15 16  1  0
 16 17  2  0
 16 18  1  0
 18 19  1  0
 19 20  2  0
M  END
