
     RDKit          3D

 19 18  0  0  0  0  0  0  0  0999 V2000
    3.7070    1.4170   -0.4450 C   0  0  0  0  0  0  0  0  0  0  0  0
    3.3480    0.5210    1.0750 S   0  0  0  0  0  0  0  0  0  0  0  0
    2.3330   -0.9280    0.7700 C   0  0  2  0  0  0  0  0  0  0  0  0
    2.0490   -1.6550    2.0470 C   0  0  0  0  0  0  0  0  0  0  0  0
    3.1210   -1.8810   -0.1300 C   0  0  0  0  0  0  0  0  0  0  0  0
    1.0780   -0.5580    0.0150 C   0  0  0  0  0  0  0  0  0  0  0  0
    1.4530   -0.0000   -1.1810 O   0  0  0  0  0  0  0  0  0  0  0  0
    0.2070    0.4720   -2.1520 S   0  0  1  0  0  0  0  0  0  0  0  0
    0.6770    1.6030   -3.0230 O   0  0  0  0  0  0  0  0  0  0  0  0
   -0.1350   -0.6840   -3.0700 O   0  0  0  0  0  0  0  0  0  0  0  0
   -1.2270    0.9380   -1.2430 C   0  0  0  0  0  0  0  0  0  0  0  0
   -2.0860    0.0010   -0.9760 C   0  0  0  0  0  0  0  0  0  0  0  0
   -3.3640    0.0960   -0.2390 C   0  0  0  0  0  0  0  0  0  0  0  0
   -3.3340   -0.7800    0.9760 C   0  0  0  0  0  0  0  0  0  0  0  0
   -4.4390   -0.8610    1.8440 N   0  0  0  0  0  0  0  0  0  0  0  0
   -2.3090   -1.4480    1.2210 O   0  0  0  0  0  0  0  0  0  0  0  0
   -1.3730    2.2960   -0.8450 C   0  0  0  0  0  0  0  0  0  0  0  0
   -2.4200    2.8820   -0.1160 N   0  0  0  0  0  0  0  0  0  0  0  0
   -0.4380    3.1260   -1.1810 O   0  0  0  0  0  0  0  0  0  0  0  0
  1  2  1  0
  2  3  1  0
  3  4  1  1
  3  5  1  0
  3  6  1  0
  6  7  1  0
  8  7  1  1
  8  9  2  0
  8 10  2  0
  8 11  1  0
 11 12  2  3
 11 17  1  0
 12 13  1  0
 13 14  1  0
 14 15  1  0
 14 16  2  0
 17 18  1  0
 17 19  2  0
M  END
