
     RDKit          3D

 19 18  0  0  0  0  0  0  0  0999 V2000
    7.9610    0.0620   -0.8250 N   0  0  0  0  0  0  0  0  0  0  0  0
    6.7410   -0.4910   -0.3780 C   0  0  0  0  0  0  0  0  0  0  0  0
    6.6470   -1.7190   -0.1160 O   0  0  0  0  0  0  0  0  0  0  0  0
    5.5700    0.3860   -0.2190 C   0  0  0  0  0  0  0  0  0  0  0  0
    4.1080   -0.5090    0.3540 S   0  0  0  0  0  0  0  0  0  0  0  0
    2.7650    0.6530    0.5000 C   0  0  0  0  0  0  0  0  0  0  0  0
    2.9770    1.8670    0.2160 O   0  0  0  0  0  0  0  0  0  0  0  0
    1.4670    0.2580    0.9260 N   0  0  0  0  0  0  0  0  0  0  0  0
    0.4340    1.2360    1.0220 C   0  0  0  0  0  0  0  0  0  0  0  0
   -1.1510    0.8410    1.4670 S   0  0  0  0  0  0  0  0  0  0  0  0
   -2.4210    0.0690    0.6260 C   0  0  2  0  0  0  0  0  0  0  0  0
   -2.8940    1.0690   -0.5150 C   0  0  0  0  0  0  0  0  0  0  0  0
   -3.3290    2.2440    0.0860 O   0  0  0  0  0  0  0  0  0  0  0  0
   -3.6360    0.0690    1.5810 C   0  0  0  0  0  0  0  0  0  0  0  0
   -4.8600   -0.5660    1.1210 C   0  0  0  0  0  0  0  0  0  0  0  0
   -4.7170   -1.9290    0.9200 O   0  0  0  0  0  0  0  0  0  0  0  0
   -2.3630   -1.2160   -0.0650 C   0  0  0  0  0  0  0  0  0  0  0  0
   -1.4310   -1.4220   -1.2010 C   0  0  0  0  0  0  0  0  0  0  0  0
   -0.1060   -1.3100   -1.0280 O   0  0  0  0  0  0  0  0  0  0  0  0
  1  2  1  0
  2  3  2  0
  2  4  1  0
  4  5  1  0
  5  6  1  0
  6  7  2  0
  6  8  1  0
  8  9  1  0
  9 10  1  0
 10 11  1  0
 11 12  1  6
 11 14  1  0
 11 17  1  0
 12 13  1  0
 14 15  1  0
 15 16  1  0
 17 18  1  0
 18 19  1  0
M  END
