
     RDKit          3D

  9  9  0  0  0  0  0  0  0  0999 V2000
   -1.5070   -1.1950    0.2620 N   0  0  0  0  0  0  0  0  0  0  0  0
   -0.7650    0.0210    0.4980 C   0  0  2  0  0  0  0  0  0  0  0  0
   -1.3190    1.0760   -0.4370 C   0  0  0  0  0  0  0  0  0  0  0  0
   -0.7130    2.2950   -0.1340 O   0  0  0  0  0  0  0  0  0  0  0  0
    0.6570    2.1360    0.0430 C   0  0  0  0  0  0  0  0  0  0  0  0
    1.1090    0.9700   -0.5420 O   0  0  0  0  0  0  0  0  0  0  0  0
    0.6930   -0.0990    0.2830 C   0  0  2  0  0  0  0  0  0  0  0  0
    1.1300   -1.3620   -0.4080 C   0  0  0  0  0  0  0  0  0  0  0  0
    2.5380   -1.2840   -0.5210 O   0  0  0  0  0  0  0  0  0  0  0  0
  2  1  1  6
  2  3  1  0
  2  7  1  0
  3  4  1  0
  4  5  1  0
  5  6  1  0
  6  7  1  0
  7  8  1  6
  8  9  1  0
M  CHG  1   1   1
M  END
