
     RDKit          3D

 20 21  0  0  0  0  0  0  0  0999 V2000
   -4.2640    0.1870    2.1980 C   0  0  0  0  0  0  0  0  0  0  0  0
   -2.9410    0.8380    1.8690 C   0  0  0  0  0  0  0  0  0  0  0  0
   -2.3690    0.2520    0.5830 C   0  0  0  0  0  0  0  0  0  0  0  0
   -1.2150   -0.3260    0.6710 C   0  0  0  0  0  0  0  0  0  0  0  0
   -0.4450   -0.9580   -0.3700 C   0  0  0  0  0  0  0  0  0  0  0  0
   -0.8450   -1.0070   -1.5620 O   0  0  0  0  0  0  0  0  0  0  0  0
    0.8320   -1.5650   -0.0780 N   0  0  0  0  0  0  0  0  0  0  0  0
    1.3120   -1.5630    1.2610 C   0  0  0  0  0  0  0  0  0  0  0  0
    2.1040   -0.3200    1.6040 C   0  0  0  0  0  0  0  0  0  0  0  0
    2.9080    0.1300    0.4360 C   0  0  0  0  0  0  0  0  0  0  0  0
    3.2890    1.3790    0.6170 C   0  0  0  0  0  0  0  0  0  0  0  0
    4.1040    2.0900   -0.3860 C   0  0  0  0  0  0  0  0  0  0  0  0
    4.4280    1.3500   -1.5280 O   0  0  0  0  0  0  0  0  0  0  0  0
    4.0060    0.0470   -1.6700 C   0  0  0  0  0  0  0  0  0  0  0  0
    3.2880   -0.5850   -0.7810 C   0  0  0  0  0  0  0  0  0  0  0  0
    2.9770   -1.9760   -1.1830 C   0  0  0  0  0  0  0  0  0  0  0  0
    1.4630   -2.0980   -1.3010 C   0  0  0  0  0  0  0  0  0  0  0  0
   -3.1540    0.3680   -0.6400 C   0  0  0  0  0  0  0  0  0  0  0  0
   -3.3940    1.7050   -0.9930 O   0  0  0  0  0  0  0  0  0  0  0  0
   -4.1470    1.7410   -2.1690 C   0  0  0  0  0  0  0  0  0  0  0  0
  1  2  1  0
  2  3  1  0
  3  4  2  3
  3 18  1  0
  4  5  1  0
  5  6  2  0
  5  7  1  0
  7  8  1  0
  7 17  1  0
  8  9  1  0
  9 10  1  0
 10 11  2  0
 10 15  1  0
 11 12  1  0
 12 13  1  0
 13 14  1  0
 14 15  2  0
 15 16  1  0
 16 17  1  0
 18 19  1  0
 19 20  1  0
M  END
