
     RDKit          3D

 20 21  0  0  0  0  0  0  0  0999 V2000
    6.2160   -1.1370   -1.9710 C   0  0  0  0  0  0  0  0  0  0  0  0
    5.4860   -0.8770   -0.8690 C   0  0  0  0  0  0  0  0  0  0  0  0
    5.6440    0.3940   -0.1980 C   0  0  0  0  0  0  0  0  0  0  0  0
    4.9810    0.7260    0.8670 C   0  0  0  0  0  0  0  0  0  0  0  0
    4.0000   -0.1370    1.5140 C   0  0  0  0  0  0  0  0  0  0  0  0
    2.7070    0.4720    1.5550 O   0  0  0  0  0  0  0  0  0  0  0  0
    2.0940    0.8140    0.3870 C   0  0  0  0  0  0  0  0  0  0  0  0
    2.6420    0.6040   -0.7160 O   0  0  0  0  0  0  0  0  0  0  0  0
    0.7280    1.4590    0.3970 C   0  0  1  0  0  0  0  0  0  0  0  0
    0.2720    1.7350   -0.9970 C   0  0  0  0  0  0  0  0  0  0  0  0
   -1.1870    1.4980   -0.9290 C   0  0  0  0  0  0  0  0  0  0  0  0
   -2.0670    2.0490   -1.6400 O   0  0  0  0  0  0  0  0  0  0  0  0
   -1.4280    0.5300    0.0860 N   0  0  0  0  0  0  0  0  0  0  0  0
   -2.6140   -0.2400    0.3480 C   0  0  2  0  0  0  0  0  0  0  0  0
   -3.0280   -1.1060   -0.8140 C   0  0  0  0  0  0  0  0  0  0  0  0
   -4.1110   -2.0350   -0.3030 C   0  0  0  0  0  0  0  0  0  0  0  0
   -4.9950   -1.3350    0.7340 C   0  0  0  0  0  0  0  0  0  0  0  0
   -5.0880    0.1370    0.3170 C   0  0  0  0  0  0  0  0  0  0  0  0
   -3.7420    0.7440    0.6040 C   0  0  0  0  0  0  0  0  0  0  0  0
   -0.2290    0.4080    0.8900 C   0  0  0  0  0  0  0  0  0  0  0  0
  1  2  2  0
  2  3  1  0
  3  4  2  3
  4  5  1  0
  5  6  1  0
  6  7  1  0
  7  8  2  0
  9  7  1  6
  9 10  1  0
  9 20  1  0
 10 11  1  0
 11 12  2  0
 11 13  1  0
 14 13  1  6
 13 20  1  0
 14 15  1  0
 14 19  1  0
 15 16  1  0
 16 17  1  0
 17 18  1  0
 18 19  1  0
M  END
