
     RDKit          3D

 25 27  0  0  0  0  0  0  0  0999 V2000
    6.5280   -0.5140    1.0630 C   0  0  0  0  0  0  0  0  0  0  0  0
    5.7440    0.0220   -0.0810 C   0  0  1  0  0  0  0  0  0  0  0  0
    6.1200    1.4940   -0.2650 C   0  0  0  0  0  0  0  0  0  0  0  0
    6.0710   -0.6720   -1.4090 C   0  0  0  0  0  0  0  0  0  0  0  0
    4.2580   -0.0790    0.1210 C   0  0  0  0  0  0  0  0  0  0  0  0
    3.6880   -1.2580    0.4860 C   0  0  0  0  0  0  0  0  0  0  0  0
    2.2950   -1.3600    0.6160 C   0  0  0  0  0  0  0  0  0  0  0  0
    1.4910   -0.2900    0.3800 C   0  0  0  0  0  0  0  0  0  0  0  0
    0.0170   -0.3470    0.5640 C   0  0  0  0  0  0  0  0  0  0  0  0
   -0.4350   -1.3700    1.1340 O   0  0  0  0  0  0  0  0  0  0  0  0
   -0.8080    0.7750    0.0750 C   0  0  0  0  0  0  0  0  0  0  0  0
   -2.2110    0.7570    0.4890 C   0  0  1  0  0  0  0  0  0  0  0  0
   -2.8810    2.0250   -0.1500 C   0  0  0  0  0  0  0  0  0  0  0  0
   -4.0570    2.4190    0.6650 C   0  0  0  0  0  0  0  0  0  0  0  0
   -4.7290    1.1320    1.2200 C   0  0  1  0  0  0  0  0  0  0  0  0
   -6.0560    1.3700    1.4790 O   0  0  0  0  0  0  0  0  0  0  0  0
   -4.4500    0.1120    0.2110 C   0  0  2  0  0  0  0  0  0  0  0  0
   -5.1380   -1.2120    0.3450 C   0  0  2  0  0  0  0  0  0  0  0  0
   -4.9700   -1.6780    1.6360 O   0  0  0  0  0  0  0  0  0  0  0  0
   -4.2470   -2.0350   -0.5810 C   0  0  2  0  0  0  0  0  0  0  0  0
   -3.9530   -3.2730   -0.0500 O   0  0  0  0  0  0  0  0  0  0  0  0
   -2.9820   -1.1770   -0.7960 C   0  0  0  0  0  0  0  0  0  0  0  0
   -3.0400   -0.3500    0.3720 N   0  0  1  0  0  0  0  0  0  0  0  0
    2.0710    0.9110    0.0080 C   0  0  0  0  0  0  0  0  0  0  0  0
    3.4410    1.0170   -0.1190 C   0  0  0  0  0  0  0  0  0  0  0  0
  2  1  1  1
  2  3  1  0
  2  4  1  0
  2  5  1  0
  5  6  2  0
  5 25  1  0
  6  7  1  0
  7  8  2  0
  8  9  1  0
  8 24  1  0
  9 10  2  0
  9 11  1  0
 12 11  1  6
 12 13  1  0
 12 23  1  0
 13 14  1  0
 14 15  1  0
 15 16  1  6
 17 15  1  1
 17 18  1  0
 17 23  1  0
 18 19  1  1
 18 20  1  0
 20 21  1  1
 20 22  1  0
 23 22  1  6
 24 25  2  0
M  CHG  1  23   1
M  END
