
     RDKit          3D

 20 21  0  0  0  0  0  0  0  0999 V2000
   -2.1210    3.2220   -0.8160 C   0  0  0  0  0  0  0  0  0  0  0  0
   -1.6650    2.0450   -1.1310 C   0  0  0  0  0  0  0  0  0  0  0  0
   -1.4860    1.5950   -2.5850 C   0  0  0  0  0  0  0  0  0  0  0  0
   -1.3420    0.0630   -2.7560 C   0  0  0  0  0  0  0  0  0  0  0  0
   -1.6670   -0.6040   -1.5700 C   0  0  1  0  0  0  0  0  0  0  0  0
   -1.9610   -1.7780   -0.8590 C   0  0  0  0  0  0  0  0  0  0  0  0
   -2.8850   -1.4600    0.3420 C   0  0  0  0  0  0  0  0  0  0  0  0
   -2.3460   -0.9860    1.5950 C   0  0  0  0  0  0  0  0  0  0  0  0
   -2.6820    0.4700    2.0380 C   0  0  0  0  0  0  0  0  0  0  0  0
   -1.9490    1.3510    0.9970 C   0  0  0  0  0  0  0  0  0  0  0  0
   -1.3270    1.0560   -0.0960 C   0  0  0  0  0  0  0  0  0  0  0  0
   -0.5790    0.0310   -0.6460 N   0  0  0  0  0  0  0  0  0  0  0  0
    0.6770   -0.5410   -0.6500 C   0  0  0  0  0  0  0  0  0  0  0  0
    0.8670   -1.5460   -1.3920 O   0  0  0  0  0  0  0  0  0  0  0  0
    1.8480   -0.0990    0.1350 C   0  0  0  0  0  0  0  0  0  0  0  0
    3.0590   -0.9580   -0.1120 C   0  0  0  0  0  0  0  0  0  0  0  0
    4.2280   -0.5130    0.6750 C   0  0  0  0  0  0  0  0  0  0  0  0
    4.1500    0.4790    1.4450 O   0  0  0  0  0  0  0  0  0  0  0  0
    5.4300   -1.1970    0.5660 O   0  0  0  0  0  0  0  0  0  0  0  0
    6.5820   -0.8400    1.2750 C   0  0  0  0  0  0  0  0  0  0  0  0
  1  2  2  0
  2  3  1  0
  2 11  1  0
  3  4  1  0
  5  4  1  6
  5  6  1  0
  5 12  1  0
  6  7  1  0
  7  8  1  0
  8  9  1  0
  9 10  1  0
 10 11  2  0
 11 12  1  0
 12 13  1  0
 13 14  2  0
 13 15  1  0
 15 16  1  0
 16 17  1  0
 17 18  2  0
 17 19  1  0
 19 20  1  0
M  END
