
     RDKit          3D

 16 18  0  0  0  0  0  0  0  0999 V2000
   -0.5930   -1.6590    1.5060 Cl  0  0  0  0  0  0  0  0  0  0  0  0
   -0.4270   -0.2230    0.5220 C   0  0  0  0  0  0  0  0  0  0  0  0
    0.8740    0.1830    0.1900 C   0  0  0  0  0  0  0  0  0  0  0  0
    1.9820   -0.5720    0.6530 N   0  0  0  0  0  0  0  0  0  0  0  0
    3.3110   -0.1160    0.3070 C   0  0  1  0  0  0  0  0  0  0  0  0
    4.4270   -0.9750    0.7970 C   0  0  0  0  0  0  0  0  0  0  0  0
    4.1040   -0.8490   -0.6910 C   0  0  0  0  0  0  0  0  0  0  0  0
    1.0300    1.2970   -0.5750 C   0  0  0  0  0  0  0  0  0  0  0  0
   -0.0770    2.0000   -1.0060 C   0  0  0  0  0  0  0  0  0  0  0  0
   -1.3510    1.5730   -0.6600 C   0  0  0  0  0  0  0  0  0  0  0  0
   -1.5480    0.4480    0.1130 C   0  0  0  0  0  0  0  0  0  0  0  0
   -2.8530   -0.0050    0.4770 N   0  0  0  0  0  0  0  0  0  0  0  0
   -3.9880    0.2250   -0.2310 C   0  0  0  0  0  0  0  0  0  0  0  0
   -5.0680   -0.3500    0.4000 C   0  0  0  0  0  0  0  0  0  0  0  0
   -4.5520   -0.9460    1.5300 C   0  0  0  0  0  0  0  0  0  0  0  0
   -3.2330   -0.7050    1.5170 N   0  0  0  0  0  0  0  0  0  0  0  0
  1  2  1  0
  2  3  2  0
  2 11  1  0
  3  4  1  0
  3  8  1  0
  5  4  1  1
  5  6  1  0
  5  7  1  0
  6  7  1  0
  8  9  2  0
  9 10  1  0
 10 11  2  0
 11 12  1  0
 12 13  1  0
 12 16  1  0
 13 14  2  0
 14 15  1  0
 15 16  2  0
M  END
