
     RDKit          3D

 20 22  0  0  0  0  0  0  0  0999 V2000
   -4.3720    1.3190   -0.0210 C   0  0  0  0  0  0  0  0  0  0  0  0
   -5.1580    0.0270   -0.0190 C   0  0  0  0  0  0  0  0  0  0  0  0
   -4.3100   -1.1630    0.0240 C   0  0  0  0  0  0  0  0  0  0  0  0
   -4.8730   -2.2900    0.0530 O   0  0  0  0  0  0  0  0  0  0  0  0
   -2.8360   -1.1120    0.0350 C   0  0  0  0  0  0  0  0  0  0  0  0
   -2.0200   -2.2130    0.0790 C   0  0  0  0  0  0  0  0  0  0  0  0
   -0.6970   -1.7360    0.0750 C   0  0  0  0  0  0  0  0  0  0  0  0
   -0.7610   -0.3920    0.0290 C   0  0  0  0  0  0  0  0  0  0  0  0
    0.2890    0.6380   -0.0000 C   0  0  0  0  0  0  0  0  0  0  0  0
    0.0220    1.9680    0.0630 C   0  0  0  0  0  0  0  0  0  0  0  0
    1.2580    2.7120    0.0100 C   0  0  0  0  0  0  0  0  0  0  0  0
    2.2560    1.8550   -0.0850 C   0  0  0  0  0  0  0  0  0  0  0  0
    3.6970    1.7530   -0.1820 C   0  0  0  0  0  0  0  0  0  0  0  0
    4.4900    2.7320   -0.1960 O   0  0  0  0  0  0  0  0  0  0  0  0
    3.9680    0.3720   -0.2520 N   0  0  0  0  0  0  0  0  0  0  0  0
    5.2750   -0.2200   -0.3580 C   0  0  0  0  0  0  0  0  0  0  0  0
    2.7360   -0.3790   -0.2010 C   0  0  0  0  0  0  0  0  0  0  0  0
    2.6410   -1.8650   -0.2710 C   0  0  0  0  0  0  0  0  0  0  0  0
    1.7240    0.4690   -0.1010 C   0  0  0  0  0  0  0  0  0  0  0  0
   -2.0660   -0.0950    0.0080 O   0  0  0  0  0  0  0  0  0  0  0  0
  1  2  1  0
  2  3  1  0
  3  4  2  0
  3  5  1  0
  5  6  2  0
  5 20  1  0
  6  7  1  0
  7  8  2  0
  8  9  1  0
  8 20  1  0
  9 10  2  0
  9 19  1  0
 10 11  1  0
 11 12  2  0
 12 13  1  0
 12 19  1  0
 13 14  2  0
 13 15  1  0
 15 16  1  0
 15 17  1  0
 17 18  1  0
 17 19  2  0
M  END
