
     RDKit          3D

 12 12  0  0  0  0  0  0  0  0999 V2000
   -2.3710   -0.6220   -1.0770 N   0  0  0  0  0  0  0  0  0  0  0  0
   -1.1180   -0.7950   -0.4380 C   0  0  0  0  0  0  0  0  0  0  0  0
   -0.7260   -2.0920   -0.0820 N   0  0  0  0  0  0  0  0  0  0  0  0
   -0.3510    0.2470   -0.1930 C   0  0  0  0  0  0  0  0  0  0  0  0
   -0.6840    1.6550   -0.5360 C   0  0  0  0  0  0  0  0  0  0  0  0
    0.2950    2.4450   -0.1550 C   0  0  0  0  0  0  0  0  0  0  0  0
    1.3240    1.6240    0.4560 C   0  0  0  0  0  0  0  0  0  0  0  0
    0.9550    0.3330    0.4390 C   0  0  0  0  0  0  0  0  0  0  0  0
    1.7650   -0.7910    0.9860 C   0  0  2  0  0  0  0  0  0  0  0  0
    2.0200   -1.7040   -0.0110 F   0  0  0  0  0  0  0  0  0  0  0  0
    1.2190   -1.3390    2.1200 F   0  0  0  0  0  0  0  0  0  0  0  0
    3.5080   -0.0970    1.5190 Br  0  0  0  0  0  0  0  0  0  0  0  0
  1  2  1  0
  2  3  1  0
  2  4  2  3
  4  5  1  0
  4  8  1  0
  5  6  2  0
  6  7  1  0
  7  8  2  0
  8  9  1  0
  9 10  1  6
  9 11  1  0
  9 12  1  0
M  END
