
     RDKit          3D

 12 12  0  0  0  0  0  0  0  0999 V2000
   -0.3480   -1.3700    1.2710 N   0  0  0  0  0  0  0  0  0  0  0  0
   -1.1000   -0.4170    0.5390 C   0  0  0  0  0  0  0  0  0  0  0  0
   -2.3730   -0.0770    0.7030 C   0  0  0  0  0  0  0  0  0  0  0  0
   -2.7200    0.9320   -0.2630 C   0  0  0  0  0  0  0  0  0  0  0  0
   -1.6750    1.2330   -1.0360 C   0  0  0  0  0  0  0  0  0  0  0  0
   -0.5730    0.3960   -0.5800 C   0  0  0  0  0  0  0  0  0  0  0  0
    0.6700    0.3550   -1.0590 C   0  0  0  0  0  0  0  0  0  0  0  0
    1.6410   -0.5110   -0.5160 N   0  0  0  0  0  0  0  0  0  0  0  0
    2.8470    0.0150    0.1100 C   0  0  1  0  0  0  0  0  0  0  0  0
    3.5790    0.7690   -0.8070 F   0  0  0  0  0  0  0  0  0  0  0  0
    2.4880    0.7780    1.1850 F   0  0  0  0  0  0  0  0  0  0  0  0
    3.6570   -1.0010    0.5480 F   0  0  0  0  0  0  0  0  0  0  0  0
  1  2  1  0
  2  3  2  0
  2  6  1  0
  3  4  1  0
  4  5  2  0
  5  6  1  0
  6  7  2  3
  7  8  1  0
  8  9  1  0
  9 10  1  6
  9 11  1  0
  9 12  1  0
M  END
