
     RDKit          3D

 16 17  0  0  0  0  0  0  0  0999 V2000
    0.7690   -1.9970    0.7960 O   0  0  0  0  0  0  0  0  0  0  0  0
    0.7340   -0.7790    0.3120 C   0  0  0  0  0  0  0  0  0  0  0  0
   -0.6060   -0.3050    0.1180 C   0  0  0  0  0  0  0  0  0  0  0  0
   -1.0270    0.8990   -0.3610 C   0  0  0  0  0  0  0  0  0  0  0  0
   -0.1120    1.8400   -0.7310 O   0  0  0  0  0  0  0  0  0  0  0  0
   -2.3880    1.2220   -0.4960 C   0  0  0  0  0  0  0  0  0  0  0  0
   -3.3630    0.3450   -0.1520 C   0  0  0  0  0  0  0  0  0  0  0  0
   -4.7040    0.5930   -0.2560 O   0  0  0  0  0  0  0  0  0  0  0  0
   -2.9780   -0.8690    0.3320 C   0  0  0  0  0  0  0  0  0  0  0  0
   -1.6620   -1.2020    0.4700 C   0  0  0  0  0  0  0  0  0  0  0  0
   -1.3260   -2.4690    0.9740 O   0  0  0  0  0  0  0  0  0  0  0  0
    2.0120   -0.2510    0.1080 N   0  0  0  0  0  0  0  0  0  0  0  0
    2.4620    0.9120   -0.3510 C   0  0  0  0  0  0  0  0  0  0  0  0
    3.8670    0.9050   -0.3420 C   0  0  0  0  0  0  0  0  0  0  0  0
    4.2530   -0.2740    0.1280 C   0  0  0  0  0  0  0  0  0  0  0  0
    3.1350   -0.9930    0.4080 C   0  0  0  0  0  0  0  0  0  0  0  0
  1  2  2  0
  2  3  1  0
  2 12  1  0
  3  4  2  0
  3 10  1  0
  4  5  1  0
  4  6  1  0
  6  7  2  0
  7  8  1  0
  7  9  1  0
  9 10  2  0
 10 11  1  0
 12 13  1  0
 12 16  1  0
 13 14  2  0
 14 15  1  0
 15 16  2  0
M  END
