
     RDKit          3D

 12 12  0  0  0  0  0  0  0  0999 V2000
    1.5310    0.1150   -2.5540 N   0  0  0  0  0  0  0  0  0  0  0  0
    1.0200   -0.8330   -1.6240 C   0  0  0  0  0  0  0  0  0  0  0  0
    0.7750   -2.0860   -2.0630 F   0  0  0  0  0  0  0  0  0  0  0  0
    0.7820   -0.5320   -0.3680 C   0  0  0  0  0  0  0  0  0  0  0  0
    0.2520   -1.6490    0.4510 C   0  0  0  0  0  0  0  0  0  0  0  0
   -1.1390   -1.4040    0.4150 N   0  0  0  0  0  0  0  0  0  0  0  0
   -1.6530   -0.4200    1.2850 C   0  0  0  0  0  0  0  0  0  0  0  0
   -1.3920    1.0040    1.0230 C   0  0  0  0  0  0  0  0  0  0  0  0
   -0.1210    1.5700    0.6760 C   0  0  0  0  0  0  0  0  0  0  0  0
    1.0310    0.8100    0.1520 C   0  0  1  0  0  0  0  0  0  0  0  0
    2.0450    0.6090    1.1140 F   0  0  0  0  0  0  0  0  0  0  0  0
    1.7230    1.4660   -0.8620 F   0  0  0  0  0  0  0  0  0  0  0  0
  1  2  1  0
  2  3  1  0
  2  4  2  3
  4  5  1  0
  4 10  1  0
  5  6  1  0
  6  7  1  0
  7  8  1  0
  8  9  1  0
  9 10  1  0
 10 11  1  1
 10 12  1  0
M  END
