
     RDKit          3D

 16 17  0  0  0  0  0  0  0  0999 V2000
    5.2150    0.4900    0.0910 C   0  0  0  0  0  0  0  0  0  0  0  0
    3.9700    0.2150   -0.2770 C   0  0  0  0  0  0  0  0  0  0  0  0
    2.7550    0.2580    0.5130 C   0  0  0  0  0  0  0  0  0  0  0  0
    1.7060   -0.0840   -0.2050 C   0  0  0  0  0  0  0  0  0  0  0  0
    0.3090   -0.1460    0.2910 C   0  0  0  0  0  0  0  0  0  0  0  0
   -0.6400   -0.5080   -0.5510 C   0  0  0  0  0  0  0  0  0  0  0  0
   -2.0030   -0.5660   -0.0530 C   0  0  0  0  0  0  0  0  0  0  0  0
   -3.0280   -0.9080   -0.7860 C   0  0  0  0  0  0  0  0  0  0  0  0
   -4.3110   -0.9550   -0.2920 O   0  0  0  0  0  0  0  0  0  0  0  0
   -5.0680    0.2150   -0.0410 C   0  0  0  0  0  0  0  0  0  0  0  0
   -2.1930   -0.2280    1.2940 O   0  0  0  0  0  0  0  0  0  0  0  0
   -1.1220   -0.3910    2.2200 C   0  0  0  0  0  0  0  0  0  0  0  0
    0.0160    0.1700    1.6060 O   0  0  0  0  0  0  0  0  0  0  0  0
    2.1450   -0.3800   -1.5220 N   0  0  0  0  0  0  0  0  0  0  0  0
    3.5580   -0.2050   -1.6100 C   0  0  0  0  0  0  0  0  0  0  0  0
    4.3260   -0.3620   -2.5900 O   0  0  0  0  0  0  0  0  0  0  0  0
  1  2  2  0
  2  3  1  0
  2 15  1  0
  3  4  2  0
  4  5  1  0
  4 14  1  0
  5  6  2  0
  5 13  1  0
  6  7  1  0
  7  8  2  3
  7 11  1  0
  8  9  1  0
  9 10  1  0
 11 12  1  0
 12 13  1  0
 14 15  1  0
 15 16  2  0
M  END
