
     RDKit          3D

 13 13  0  0  0  0  0  0  0  0999 V2000
   -1.4500   -2.2520   -0.7760 N   0  0  0  0  0  0  0  0  0  0  0  0
   -0.9890   -1.0020   -0.2800 C   0  0  0  0  0  0  0  0  0  0  0  0
    0.3200   -0.8010   -0.3580 C   0  0  0  0  0  0  0  0  0  0  0  0
    1.3290   -2.2210   -1.1160 Br  0  0  0  0  0  0  0  0  0  0  0  0
    1.1380    0.3420    0.0440 C   0  0  0  0  0  0  0  0  0  0  0  0
    2.6090    0.1280    0.0510 C   0  0  2  0  0  0  0  0  0  0  0  0
    2.9310   -0.8870    0.9230 F   0  0  0  0  0  0  0  0  0  0  0  0
    3.1870    1.3070    0.5330 F   0  0  0  0  0  0  0  0  0  0  0  0
    3.1250   -0.0920   -1.1860 F   0  0  0  0  0  0  0  0  0  0  0  0
    0.6750    1.5390    0.3990 C   0  0  0  0  0  0  0  0  0  0  0  0
   -0.6840    1.9950    0.4750 N   0  0  0  0  0  0  0  0  0  0  0  0
   -1.8430    1.1610    0.5530 C   0  0  0  0  0  0  0  0  0  0  0  0
   -2.0210   -0.1170    0.2440 C   0  0  0  0  0  0  0  0  0  0  0  0
  1  2  1  0
  2  3  2  0
  2 13  1  0
  3  4  1  0
  3  5  1  0
  5  6  1  0
  5 10  2  0
  6  7  1  1
  6  8  1  0
  6  9  1  0
 10 11  1  0
 11 12  1  0
 12 13  2  0
M  END
