
     RDKit          3D

 16 17  0  0  0  0  0  0  0  0999 V2000
   -1.6370   -2.1070   -1.3610 C   0  0  0  0  0  0  0  0  0  0  0  0
   -1.2020   -1.1000   -0.6180 C   0  0  0  0  0  0  0  0  0  0  0  0
    0.2240   -0.7130   -0.6800 C   0  0  0  0  0  0  0  0  0  0  0  0
    0.6830    0.2800    0.0440 C   0  0  0  0  0  0  0  0  0  0  0  0
    2.0900    0.6590   -0.0190 C   0  0  0  0  0  0  0  0  0  0  0  0
    2.6190    1.6350    0.6700 O   0  0  0  0  0  0  0  0  0  0  0  0
    3.9110    1.7560    0.4190 C   0  0  0  0  0  0  0  0  0  0  0  0
    4.6600    2.6040    0.9380 O   0  0  0  0  0  0  0  0  0  0  0  0
    4.2770    0.8290   -0.4760 N   0  0  0  0  0  0  0  0  0  0  0  0
    3.1310    0.1390   -0.7510 C   0  0  0  0  0  0  0  0  0  0  0  0
    3.0670   -0.9230   -1.6430 O   0  0  0  0  0  0  0  0  0  0  0  0
   -0.1820    1.0720    0.9600 C   0  0  0  0  0  0  0  0  0  0  0  0
   -1.5050    0.6980    1.0040 O   0  0  0  0  0  0  0  0  0  0  0  0
   -2.0650   -0.3450    0.2660 C   0  0  0  0  0  0  0  0  0  0  0  0
   -3.3570   -0.6260    0.3800 C   0  0  0  0  0  0  0  0  0  0  0  0
   -4.2010    0.1780    1.3010 C   0  0  0  0  0  0  0  0  0  0  0  0
  1  2  2  0
  2  3  1  0
  2 14  1  0
  3  4  2  0
  4  5  1  0
  4 12  1  0
  5  6  1  0
  5 10  2  0
  6  7  1  0
  7  8  2  0
  7  9  1  0
  9 10  1  0
 10 11  1  0
 12 13  1  0
 13 14  1  0
 14 15  2  3
 15 16  1  0
M  END
