
     RDKit          3D

 13 14  0  0  0  0  0  0  0  0999 V2000
    1.8620    2.0630    0.2850 N   0  0  0  0  0  0  0  0  0  0  0  0
    1.7330    0.6380    0.1930 C   0  0  0  0  0  0  0  0  0  0  0  0
    0.2880    0.3060    0.0410 C   0  0  0  0  0  0  0  0  0  0  0  0
   -0.5810    1.2870    0.0170 C   0  0  0  0  0  0  0  0  0  0  0  0
   -0.0190    3.1260    0.1740 Br  0  0  0  0  0  0  0  0  0  0  0  0
   -1.9600    1.0420   -0.1230 N   0  0  0  0  0  0  0  0  0  0  0  0
   -2.4790   -0.2940   -0.2480 C   0  0  0  0  0  0  0  0  0  0  0  0
   -1.4390   -1.3250   -0.2120 C   0  0  0  0  0  0  0  0  0  0  0  0
   -0.1550   -1.0750   -0.0790 C   0  0  0  0  0  0  0  0  0  0  0  0
    0.8730   -2.1730   -0.0480 C   0  0  2  0  0  0  0  0  0  0  0  0
    1.7410   -1.9600   -1.1020 F   0  0  0  0  0  0  0  0  0  0  0  0
    0.2410   -3.4040   -0.1570 F   0  0  0  0  0  0  0  0  0  0  0  0
    1.5530   -2.0750    1.1490 F   0  0  0  0  0  0  0  0  0  0  0  0
  1  2  1  0
  2  3  1  0
  3  4  2  0
  3  9  1  0
  4  5  1  0
  4  6  1  0
  6  7  1  0
  7  8  1  0
  8  9  2  0
  9 10  1  0
 10 11  1  6
 10 12  1  0
 10 13  1  0
  5  1  1  0
M  END
