
     RDKit          3D

 34 37  0  0  0  0  0  0  0  0999 V2000
   -1.5790   -0.9440    0.1230 C   0  0  0  0  0  0  0  0  0  0  0  0
   -1.6020   -0.2870   -1.1970 C   0  0  1  0  0  0  0  0  0  0  0  0
   -1.3000   -1.3820   -2.2450 C   0  0  0  0  0  0  0  0  0  0  0  0
   -2.8680    0.3500   -1.6450 C   0  0  0  0  0  0  0  0  0  0  0  0
   -3.4320    1.4370   -0.8790 C   0  0  0  0  0  0  0  0  0  0  0  0
   -3.0610    2.6780   -1.2660 O   0  0  0  0  0  0  0  0  0  0  0  0
   -3.4870    3.7460   -0.6660 C   0  0  0  0  0  0  0  0  0  0  0  0
   -4.3440    3.6810    0.4010 C   0  0  0  0  0  0  0  0  0  0  0  0
   -4.7540    2.4430    0.8370 C   0  0  0  0  0  0  0  0  0  0  0  0
   -5.5420    2.3080    1.8160 O   0  0  0  0  0  0  0  0  0  0  0  0
   -4.2710    1.3070    0.1610 C   0  0  0  0  0  0  0  0  0  0  0  0
   -4.7400    0.0120    0.6300 C   0  0  0  0  0  0  0  0  0  0  0  0
   -4.3430   -0.4270    1.8780 C   0  0  0  0  0  0  0  0  0  0  0  0
   -4.7630   -1.6410    2.3630 C   0  0  0  0  0  0  0  0  0  0  0  0
   -5.5900   -2.4360    1.6030 C   0  0  0  0  0  0  0  0  0  0  0  0
   -5.9830   -1.9920    0.3560 C   0  0  0  0  0  0  0  0  0  0  0  0
   -7.0500   -3.0010   -0.6460 Cl  0  0  0  0  0  0  0  0  0  0  0  0
   -5.5640   -0.7810   -0.1280 C   0  0  0  0  0  0  0  0  0  0  0  0
   -0.4540    0.6960   -1.3160 C   0  0  0  0  0  0  0  0  0  0  0  0
    1.1200   -0.0240   -1.1560 S   0  0  1  0  0  0  0  0  0  0  0  0
    1.3590   -0.6360    0.2180 O   0  0  0  0  0  0  0  0  0  0  0  0
    1.4290   -1.0650   -2.1630 O   0  0  0  0  0  0  0  0  0  0  0  0
    2.3750    1.2650   -1.3540 C   0  0  0  0  0  0  0  0  0  0  0  0
    3.7230    0.6620   -1.2200 C   0  0  0  0  0  0  0  0  0  0  0  0
    4.4840    0.4980   -0.0730 C   0  0  0  0  0  0  0  0  0  0  0  0
    5.6830   -0.1080   -0.3980 C   0  0  0  0  0  0  0  0  0  0  0  0
    6.7520   -0.4480    0.5320 C   0  0  0  0  0  0  0  0  0  0  0  0
    7.8970   -1.0370    0.1540 N   0  0  0  0  0  0  0  0  0  0  0  0
    8.8830   -1.3550    0.9850 C   0  0  0  0  0  0  0  0  0  0  0  0
    8.7420   -1.0690    2.3370 C   0  0  0  0  0  0  0  0  0  0  0  0
    7.5740   -0.4650    2.7410 C   0  0  0  0  0  0  0  0  0  0  0  0
    6.6200   -0.1730    1.8420 N   0  0  0  0  0  0  0  0  0  0  0  0
    5.6320   -0.3000   -1.7270 N   0  0  0  0  0  0  0  0  0  0  0  0
    4.4740    0.1530   -2.2170 N   0  0  0  0  0  0  0  0  0  0  0  0
  2  1  1  1
  2  3  1  0
  2  4  1  0
  2 19  1  0
  4  5  1  0
  5  6  1  0
  5 11  2  0
  6  7  1  0
  7  8  2  0
  8  9  1  0
  9 10  2  0
  9 11  1  0
 11 12  1  0
 12 13  2  0
 12 18  1  0
 13 14  1  0
 14 15  2  0
 15 16  1  0
 16 17  1  0
 16 18  2  0
 20 19  1  1
 20 21  2  0
 20 22  2  0
 20 23  1  0
 23 24  1  0
 24 25  1  0
 24 34  2  0
 25 26  2  0
 26 27  1  0
 26 33  1  0
 27 28  2  0
 27 32  1  0
 28 29  1  0
 29 30  2  0
 30 31  1  0
 31 32  2  0
 33 34  1  0
M  END
