
     RDKit          3D

 34 37  0  0  0  0  0  0  0  0999 V2000
    5.8830    4.2090    1.5860 C   0  0  0  0  0  0  0  0  0  0  0  0
    6.2750    2.7530    1.5210 C   0  0  0  0  0  0  0  0  0  0  0  0
    5.7270    1.9140    0.6370 N   0  0  0  0  0  0  0  0  0  0  0  0
    6.0510    0.6020    0.5450 C   0  0  0  0  0  0  0  0  0  0  0  0
    5.3530   -0.2730   -0.4500 C   0  0  0  0  0  0  0  0  0  0  0  0
    4.0120   -0.4650    0.1540 N   0  0  0  0  0  0  0  0  0  0  0  0
    3.8570   -1.3700    1.2090 C   0  0  0  0  0  0  0  0  0  0  0  0
    4.9320   -1.9950    1.5580 O   0  0  0  0  0  0  0  0  0  0  0  0
    2.6530   -1.6860    1.9530 C   0  0  0  0  0  0  0  0  0  0  0  0
    1.5140   -1.2580    1.8360 C   0  0  0  0  0  0  0  0  0  0  0  0
    0.4480   -0.4840    1.2990 C   0  0  0  0  0  0  0  0  0  0  0  0
    0.3290    0.0840    0.0490 C   0  0  0  0  0  0  0  0  0  0  0  0
   -0.8740    0.7540   -0.0240 C   0  0  0  0  0  0  0  0  0  0  0  0
   -1.4400    1.4780   -1.0990 C   0  0  0  0  0  0  0  0  0  0  0  0
   -1.9050    2.0980   -2.0290 N   0  0  0  0  0  0  0  0  0  0  0  0
   -1.4890    0.5810    1.2300 C   0  0  0  0  0  0  0  0  0  0  0  0
   -3.0600    1.2460    1.6780 S   0  0  0  0  0  0  0  0  0  0  0  0
   -4.3570    0.0490    1.6100 C   0  0  0  0  0  0  0  0  0  0  0  0
   -4.6980   -0.4980    0.2720 C   0  0  0  0  0  0  0  0  0  0  0  0
   -4.0280   -1.5180   -0.2950 C   0  0  0  0  0  0  0  0  0  0  0  0
   -4.5110   -2.0490   -1.5130 C   0  0  0  0  0  0  0  0  0  0  0  0
   -5.6280   -1.5380   -2.0910 C   0  0  0  0  0  0  0  0  0  0  0  0
   -6.1420   -2.0790   -3.2690 C   0  0  0  0  0  0  0  0  0  0  0  0
   -7.2920   -1.5980   -3.8300 C   0  0  0  0  0  0  0  0  0  0  0  0
   -7.9960   -0.5300   -3.2330 C   0  0  0  0  0  0  0  0  0  0  0  0
   -9.4840    0.0410   -3.9480 Cl  0  0  0  0  0  0  0  0  0  0  0  0
   -7.4640   -0.0310   -2.0950 C   0  0  0  0  0  0  0  0  0  0  0  0
   -6.3130   -0.4760   -1.4820 C   0  0  0  0  0  0  0  0  0  0  0  0
   -5.8250    0.0060   -0.3290 N   0  0  0  0  0  0  0  0  0  0  0  0
   -0.6710   -0.1330    1.9130 O   0  0  0  0  0  0  0  0  0  0  0  0
    6.9930    0.1060    1.4000 C   0  0  0  0  0  0  0  0  0  0  0  0
    7.5430    1.0080    2.3050 C   0  0  0  0  0  0  0  0  0  0  0  0
    8.4190    0.5290    3.0980 O   0  0  0  0  0  0  0  0  0  0  0  0
    7.1680    2.2610    2.3270 O   0  0  0  0  0  0  0  0  0  0  0  0
  1  2  1  0
  2  3  2  0
  2 34  1  0
  3  4  1  0
  4  5  1  0
  4 31  2  0
  5  6  1  0
  6  7  1  0
  7  8  2  0
  7  9  1  0
  9 10  2  3
 10 11  1  0
 11 12  2  0
 11 30  1  0
 12 13  1  0
 13 14  1  0
 13 16  2  0
 14 15  3  0
 16 17  1  0
 16 30  1  0
 17 18  1  0
 18 19  1  0
 19 20  2  0
 19 29  1  0
 20 21  1  0
 21 22  2  0
 22 23  1  0
 22 28  1  0
 23 24  2  0
 24 25  1  0
 25 26  1  0
 25 27  2  0
 27 28  1  0
 28 29  2  0
 31 32  1  0
 32 33  2  0
 32 34  1  0
M  END
