
     RDKit          3D

 34 36  0  0  0  0  0  0  0  0999 V2000
    1.5620   -2.6170    0.6860 C   0  0  0  0  0  0  0  0  0  0  0  0
    1.0670   -2.0680   -0.4810 O   0  0  0  0  0  0  0  0  0  0  0  0
   -0.1430   -1.4260   -0.6410 C   0  0  0  0  0  0  0  0  0  0  0  0
   -1.3000   -2.0290   -1.0800 C   0  0  0  0  0  0  0  0  0  0  0  0
   -1.4000   -3.4700   -1.3610 C   0  0  0  0  0  0  0  0  0  0  0  0
   -1.9270   -4.3470   -0.2990 C   0  0  1  0  0  0  0  0  0  0  0  0
   -1.8940   -5.7840   -0.8400 C   0  0  0  0  0  0  0  0  0  0  0  0
   -1.2830   -4.2770    1.0400 C   0  0  0  0  0  0  0  0  0  0  0  0
   -3.4260   -4.0380   -0.0370 C   0  0  0  0  0  0  0  0  0  0  0  0
   -2.4580   -1.3170   -1.2220 N   0  0  0  0  0  0  0  0  0  0  0  0
   -2.4640   -0.0200   -0.9290 C   0  0  0  0  0  0  0  0  0  0  0  0
   -3.5460    0.6410   -1.0630 O   0  0  0  0  0  0  0  0  0  0  0  0
   -1.3350    0.6300   -0.4860 C   0  0  0  0  0  0  0  0  0  0  0  0
   -1.3910    2.0530   -0.1780 C   0  0  0  0  0  0  0  0  0  0  0  0
   -2.5100    2.6710   -0.3320 N   0  0  0  0  0  0  0  0  0  0  0  0
   -2.6090    4.0690   -0.0410 C   0  0  0  0  0  0  0  0  0  0  0  0
   -1.5530    4.8790   -0.0630 C   0  0  0  0  0  0  0  0  0  0  0  0
   -1.9640    6.2640    0.2780 C   0  0  0  0  0  0  0  0  0  0  0  0
   -3.4270    6.1480    0.5060 C   0  0  0  0  0  0  0  0  0  0  0  0
   -4.5500    7.4290    0.9500 Cl  0  0  0  0  0  0  0  0  0  0  0  0
   -3.7500    4.8710    0.3110 C   0  0  0  0  0  0  0  0  0  0  0  0
   -5.1410    4.3210    0.4410 C   0  0  0  0  0  0  0  0  0  0  0  0
   -0.1670   -0.0510   -0.3350 C   0  0  0  0  0  0  0  0  0  0  0  0
    1.0570    0.5930    0.1390 C   0  0  0  0  0  0  0  0  0  0  0  0
    1.2690    0.6200    1.3850 O   0  0  0  0  0  0  0  0  0  0  0  0
    2.0240    1.1880   -0.7080 N   0  0  0  0  0  0  0  0  0  0  0  0
    3.2670    1.1060   -0.5130 C   0  0  0  0  0  0  0  0  0  0  0  0
    4.0450    0.5180    0.4240 N   0  0  0  0  0  0  0  0  0  0  0  0
    5.3220    0.5740    0.3910 C   0  0  0  0  0  0  0  0  0  0  0  0
    5.9900    1.2460   -0.6140 C   0  0  0  0  0  0  0  0  0  0  0  0
    7.3620    1.4740   -0.9170 C   0  0  0  0  0  0  0  0  0  0  0  0
    8.5020    0.9830   -0.1310 C   0  0  0  0  0  0  0  0  0  0  0  0
    7.6260    2.1610   -1.9550 O   0  0  0  0  0  0  0  0  0  0  0  0
    4.5570    1.8480   -1.5990 S   0  0  0  0  0  0  0  0  0  0  0  0
  1  2  1  0
  2  3  1  0
  3  4  2  0
  3 23  1  0
  4  5  1  0
  4 10  1  0
  5  6  1  0
  6  7  1  6
  6  8  1  0
  6  9  1  0
 10 11  1  0
 11 12  2  0
 11 13  1  0
 13 14  1  0
 13 23  2  0
 14 15  2  3
 15 16  1  0
 16 17  2  0
 16 21  1  0
 17 18  1  0
 18 19  1  0
 19 20  1  0
 19 21  2  0
 21 22  1  0
 23 24  1  0
 24 25  2  0
 24 26  1  0
 26 27  2  3
 27 28  1  0
 27 34  1  0
 28 29  1  0
 29 30  2  0
 30 31  1  0
 30 34  1  0
 31 32  1  0
 31 33  2  0
M  END
