
     RDKit          3D

 34 37  0  0  0  0  0  0  0  0999 V2000
   -3.8760    6.0260   -0.3070 C   0  0  0  0  0  0  0  0  0  0  0  0
   -2.5780    6.7900   -0.3020 C   0  0  0  0  0  0  0  0  0  0  0  0
   -1.4430    6.1210   -0.2920 C   0  0  0  0  0  0  0  0  0  0  0  0
   -1.4010    4.6420   -0.2870 C   0  0  0  0  0  0  0  0  0  0  0  0
   -0.2400    4.0480   -0.2790 C   0  0  0  0  0  0  0  0  0  0  0  0
    1.1700    5.1580   -0.2800 Cl  0  0  0  0  0  0  0  0  0  0  0  0
    0.0200    2.6200   -0.2350 C   0  0  0  0  0  0  0  0  0  0  0  0
    1.2510    2.0720   -0.4770 N   0  0  0  0  0  0  0  0  0  0  0  0
    1.2110    0.7810   -0.4010 N   0  0  0  0  0  0  0  0  0  0  0  0
    2.3250   -0.1260   -0.5980 C   0  0  0  0  0  0  0  0  0  0  0  0
    3.3400   -0.2210    0.3010 C   0  0  0  0  0  0  0  0  0  0  0  0
    4.3760   -1.1100    0.0500 C   0  0  0  0  0  0  0  0  0  0  0  0
    4.3920   -1.8920   -1.0860 C   0  0  0  0  0  0  0  0  0  0  0  0
    5.4570   -2.8350   -1.3870 C   0  0  0  0  0  0  0  0  0  0  0  0
    5.3900   -3.5050   -2.4440 O   0  0  0  0  0  0  0  0  0  0  0  0
    6.5420   -3.0250   -0.5570 O   0  0  0  0  0  0  0  0  0  0  0  0
    7.5810   -3.9620   -0.8750 C   0  0  0  0  0  0  0  0  0  0  0  0
    3.3300   -1.7400   -1.9490 C   0  0  0  0  0  0  0  0  0  0  0  0
    2.3250   -0.8800   -1.7090 N   0  0  0  0  0  0  0  0  0  0  0  0
   -0.0740    0.3900   -0.0930 C   0  0  0  0  0  0  0  0  0  0  0  0
   -0.4330   -0.9540    0.0230 N   0  0  0  0  0  0  0  0  0  0  0  0
   -1.5040   -1.5920    0.6280 C   0  0  0  0  0  0  0  0  0  0  0  0
   -2.3120   -0.9580    1.3160 O   0  0  0  0  0  0  0  0  0  0  0  0
   -1.7270   -3.0690    0.4750 C   0  0  2  0  0  0  0  0  0  0  0  0
   -1.5500   -3.7540    1.8040 C   0  0  0  0  0  0  0  0  0  0  0  0
   -1.2870   -5.1900    1.3740 C   0  0  0  0  0  0  0  0  0  0  0  0
   -0.9720   -5.0200   -0.0910 C   0  0  0  0  0  0  0  0  0  0  0  0
   -0.7670   -3.6580   -0.3080 O   0  0  0  0  0  0  0  0  0  0  0  0
   -0.7960    1.5460    0.0040 C   0  0  0  0  0  0  0  0  0  0  0  0
   -2.2360    1.6940    0.4080 C   0  0  0  0  0  0  0  0  0  0  0  0
   -3.2190    1.2070   -0.2550 C   0  0  0  0  0  0  0  0  0  0  0  0
   -4.5910    1.4060    0.2210 C   0  0  0  0  0  0  0  0  0  0  0  0
   -4.3190    2.7430    1.4480 S   0  0  0  0  0  0  0  0  0  0  0  0
   -2.5460    2.3280    1.7150 C   0  0  0  0  0  0  0  0  0  0  0  0
  1  2  1  0
  2  3  2  3
  3  4  1  0
  4  5  2  3
  5  6  1  0
  5  7  1  0
  7  8  2  0
  7 29  1  0
  8  9  1  0
  9 10  1  0
  9 20  1  0
 10 11  2  0
 10 19  1  0
 11 12  1  0
 12 13  2  0
 13 14  1  0
 13 18  1  0
 14 15  2  0
 14 16  1  0
 16 17  1  0
 18 19  2  0
 20 21  1  0
 20 29  2  0
 21 22  1  0
 22 23  2  0
 24 22  1  1
 24 25  1  0
 24 28  1  0
 25 26  1  0
 26 27  1  0
 27 28  1  0
 29 30  1  0
 30 31  2  0
 30 34  1  0
 31 32  1  0
 32 33  1  0
 33 34  1  0
M  END
