
     RDKit          3D

 11 11  0  0  0  0  0  0  0  0999 V2000
    2.7810   -1.0040   -0.0650 C   0  0  0  0  0  0  0  0  0  0  0  0
    1.9920    0.1260    0.5380 C   0  0  1  0  0  0  0  0  0  0  0  0
    2.8120    1.3300    0.5860 N   0  0  0  0  0  0  0  0  0  0  0  0
    0.7970    0.4350   -0.3280 C   0  0  0  0  0  0  0  0  0  0  0  0
   -0.1020   -0.6720   -0.4810 N   0  0  0  0  0  0  0  0  0  0  0  0
   -0.7960   -1.0120    0.7380 C   0  0  0  0  0  0  0  0  0  0  0  0
   -1.6930    0.1030    1.1680 C   0  0  0  0  0  0  0  0  0  0  0  0
   -3.0980   -0.0730    0.6540 C   0  0  0  0  0  0  0  0  0  0  0  0
   -3.1900   -0.1080   -0.7080 O   0  0  0  0  0  0  0  0  0  0  0  0
   -2.1220    0.4300   -1.3980 C   0  0  0  0  0  0  0  0  0  0  0  0
   -0.9760   -0.5140   -1.6080 C   0  0  0  0  0  0  0  0  0  0  0  0
  2  1  1  6
  2  3  1  0
  2  4  1  0
  4  5  1  0
  5  6  1  0
  5 11  1  0
  6  7  1  0
  7  8  1  0
  8  9  1  0
  9 10  1  0
 10 11  1  0
M  CHG  1   3   1
M  END
