
     RDKit          3D

  8  8  0  0  0  0  0  0  0  0999 V2000
    2.5270    2.0180    0.2610 S   0  0  0  0  0  0  0  0  0  0  0  0
    1.3810    0.8720    0.2190 C   0  0  0  0  0  0  0  0  0  0  0  0
    1.6990   -0.4620   -0.3400 C   0  0  0  0  0  0  0  0  0  0  0  0
    0.7360   -0.7240   -1.3250 O   0  0  0  0  0  0  0  0  0  0  0  0
   -0.4500   -1.1830   -0.8100 C   0  0  0  0  0  0  0  0  0  0  0  0
   -1.4130   -0.1030   -0.4150 C   0  0  0  0  0  0  0  0  0  0  0  0
   -1.0720    0.5130    0.9290 C   0  0  0  0  0  0  0  0  0  0  0  0
    0.1340    1.2850    0.7470 N   0  0  0  0  0  0  0  0  0  0  0  0
  1  2  2  0
  2  3  1  0
  2  8  1  0
  3  4  1  0
  4  5  1  0
  5  6  1  0
  6  7  1  0
  7  8  1  0
M  END
