
     RDKit          3D

  8  8  0  0  0  0  0  0  0  0999 V2000
   -3.2080    0.5450    0.0890 C   0  0  0  0  0  0  0  0  0  0  0  0
   -1.8450    0.6750    0.0110 O   0  0  0  0  0  0  0  0  0  0  0  0
   -1.1820   -0.5510   -0.0120 C   0  0  0  0  0  0  0  0  0  0  0  0
    0.2830   -0.3970   -0.0960 C   0  0  0  0  0  0  0  0  0  0  0  0
    1.1720   -0.7700    0.7020 N   0  0  0  0  0  0  0  0  0  0  0  0
    2.5100   -0.5240    0.4310 C   0  0  0  0  0  0  0  0  0  0  0  0
    2.6800    0.6950   -0.4510 C   0  0  0  0  0  0  0  0  0  0  0  0
    1.1370    0.4320   -1.4410 S   0  0  0  0  0  0  0  0  0  0  0  0
  1  2  1  0
  2  3  1  0
  3  4  1  0
  4  5  2  0
  4  8  1  0
  5  6  1  0
  6  7  1  0
  7  8  1  0
M  END
