
     RDKit          3D

 12 12  0  0  0  0  0  0  0  0999 V2000
   -1.3840    2.0780   -0.0260 C   0  0  0  0  0  0  0  0  0  0  0  0
   -1.5760    0.5930    0.3290 C   0  0  1  0  0  0  0  0  0  0  0  0
   -2.8430    0.1930   -0.3850 C   0  0  0  0  0  0  0  0  0  0  0  0
   -3.2430   -1.1660   -0.2090 N   0  0  0  0  0  0  0  0  0  0  0  0
   -0.4160   -0.1350   -0.1380 N   0  0  0  0  0  0  0  0  0  0  0  0
   -0.3110   -1.4730    0.3120 C   0  0  0  0  0  0  0  0  0  0  0  0
    1.0240   -1.5950    1.0650 C   0  0  0  0  0  0  0  0  0  0  0  0
    1.9950   -1.4360    0.1090 O   0  0  0  0  0  0  0  0  0  0  0  0
    2.0490   -0.1040   -0.2590 C   0  0  2  0  0  0  0  0  0  0  0  0
    2.7190   -0.0680   -1.6410 C   0  0  0  0  0  0  0  0  0  0  0  0
    3.0480    0.5650    0.6820 C   0  0  0  0  0  0  0  0  0  0  0  0
    0.7720    0.6200   -0.2600 C   0  0  0  0  0  0  0  0  0  0  0  0
  2  1  1  6
  2  3  1  0
  2  5  1  0
  3  4  1  0
  5  6  1  0
  5 12  1  0
  6  7  1  0
  7  8  1  0
  8  9  1  0
  9 10  1  6
  9 11  1  0
  9 12  1  0
M  CHG  1   4   1
M  END
