
     RDKit          3D

 12 12  0  0  0  0  0  0  0  0999 V2000
   -3.3270    1.2560   -0.5000 C   0  0  0  0  0  0  0  0  0  0  0  0
   -2.1160    0.3880   -0.1250 C   0  0  2  0  0  0  0  0  0  0  0  0
   -2.2880   -0.0010    1.3000 C   0  0  0  0  0  0  0  0  0  0  0  0
   -0.9050    1.1680   -0.4510 C   0  0  0  0  0  0  0  0  0  0  0  0
    0.3980    0.6360    0.0950 C   0  0  0  0  0  0  0  0  0  0  0  0
    0.8850   -0.5210   -0.4870 N   0  0  0  0  0  0  0  0  0  0  0  0
    2.2290   -0.5400   -0.9470 C   0  0  0  0  0  0  0  0  0  0  0  0
    3.3160   -0.5340    0.0580 C   0  0  0  0  0  0  0  0  0  0  0  0
    3.3660    0.6070    0.9270 N   0  0  0  0  0  0  0  0  0  0  0  0
    0.0630   -1.3660   -1.2560 C   0  0  0  0  0  0  0  0  0  0  0  0
   -1.2650   -1.7050   -0.6260 C   0  0  0  0  0  0  0  0  0  0  0  0
   -2.1790   -0.7330   -0.9480 O   0  0  0  0  0  0  0  0  0  0  0  0
  2  1  1  6
  2  3  1  0
  2  4  1  0
  2 12  1  0
  4  5  1  0
  5  6  1  0
  6  7  1  0
  6 10  1  0
  7  8  1  0
  8  9  1  0
 10 11  1  0
 11 12  1  0
M  CHG  1   9   1
M  END
