
     RDKit          3D

 12 12  0  0  0  0  0  0  0  0999 V2000
    3.6280    1.1140    0.2620 C   0  0  0  0  0  0  0  0  0  0  0  0
    2.3750    0.4170   -0.2400 C   0  0  2  0  0  0  0  0  0  0  0  0
    1.1510    0.9060    0.4320 C   0  0  0  0  0  0  0  0  0  0  0  0
    0.0890   -0.1240    0.3140 N   0  0  0  0  0  0  0  0  0  0  0  0
   -1.0910    0.6600    0.0080 C   0  0  0  0  0  0  0  0  0  0  0  0
   -2.3950   -0.0230    0.1030 C   0  0  2  0  0  0  0  0  0  0  0  0
   -3.4370    1.0570   -0.3240 C   0  0  0  0  0  0  0  0  0  0  0  0
   -2.7690   -0.3410    1.5440 C   0  0  0  0  0  0  0  0  0  0  0  0
   -2.6080   -1.1300   -0.6620 O   0  0  0  0  0  0  0  0  0  0  0  0
    0.3670   -0.9030   -0.9090 C   0  0  0  0  0  0  0  0  0  0  0  0
    1.6430   -1.6970   -0.8200 C   0  0  0  0  0  0  0  0  0  0  0  0
    2.5450   -1.0030    0.0630 N   0  0  0  0  0  0  0  0  0  0  0  0
  2  1  1  1
  2  3  1  0
  2 12  1  0
  3  4  1  0
  4  5  1  0
  4 10  1  0
  5  6  1  0
  6  7  1  6
  6  8  1  0
  6  9  1  0
 10 11  1  0
 11 12  1  0
M  CHG  1  12   1
M  END
