
     RDKit          3D

 12 12  0  0  0  0  0  0  0  0999 V2000
   -1.7210    1.1760   -0.5830 C   0  0  0  0  0  0  0  0  0  0  0  0
   -1.5730   -0.2150   -0.0320 C   0  0  2  0  0  0  0  0  0  0  0  0
   -2.6650   -0.6590    0.8820 C   0  0  0  0  0  0  0  0  0  0  0  0
   -3.9680   -0.6520    0.2320 N   0  0  0  0  0  0  0  0  0  0  0  0
   -0.2590   -0.2240    0.7400 C   0  0  0  0  0  0  0  0  0  0  0  0
    0.8290    0.0740   -0.1580 N   0  0  0  0  0  0  0  0  0  0  0  0
    1.0280   -1.0250   -1.0250 C   0  0  0  0  0  0  0  0  0  0  0  0
    2.3760   -1.2630   -1.5690 C   0  0  0  0  0  0  0  0  0  0  0  0
    3.4230   -0.6640   -0.8860 O   0  0  0  0  0  0  0  0  0  0  0  0
    3.1230    0.6120   -0.4690 C   0  0  0  0  0  0  0  0  0  0  0  0
    1.9950    0.4240    0.5680 C   0  0  1  0  0  0  0  0  0  0  0  0
    1.8350    1.7120    1.3620 C   0  0  0  0  0  0  0  0  0  0  0  0
  2  1  1  1
  2  3  1  0
  2  5  1  0
  3  4  1  0
  5  6  1  0
  6  7  1  0
  6 11  1  0
  7  8  1  0
  8  9  1  0
  9 10  1  0
 10 11  1  0
 11 12  1  6
M  CHG  1   4   1
M  END
