
     RDKit          3D

  8  8  0  0  0  0  0  0  0  0999 V2000
   -1.2550    1.1890   -0.5770 C   0  0  0  0  0  0  0  0  0  0  0  0
   -0.3860    0.0030   -0.1550 C   0  0  1  0  0  0  0  0  0  0  0  0
   -1.2090   -1.1910    0.2120 C   0  0  0  0  0  0  0  0  0  0  0  0
    0.5170   -0.2330   -1.1700 O   0  0  0  0  0  0  0  0  0  0  0  0
    1.7470   -0.5190   -0.5900 C   0  0  0  0  0  0  0  0  0  0  0  0
    1.8150    0.2660    0.6260 N   0  0  0  0  0  0  0  0  0  0  0  0
    0.4600    0.4830    0.9970 C   0  0  0  0  0  0  0  0  0  0  0  0
   -0.1120    1.1210    2.3870 S   0  0  0  0  0  0  0  0  0  0  0  0
  2  1  1  6
  2  3  1  0
  2  4  1  0
  2  7  1  0
  4  5  1  0
  5  6  1  0
  6  7  1  0
  7  8  2  0
M  END
