
     RDKit          3D

 12 12  0  0  0  0  0  0  0  0999 V2000
    2.0460   -0.8070   -0.8330 C   0  0  0  0  0  0  0  0  0  0  0  0
    1.7040   -0.1780    0.4610 C   0  0  0  0  0  0  0  0  0  0  0  0
    2.4360    0.8100    0.9130 C   0  0  0  0  0  0  0  0  0  0  0  0
    3.5470    1.2890    0.1880 N   0  0  0  0  0  0  0  0  0  0  0  0
    0.5490   -0.6460    1.2540 C   0  0  0  0  0  0  0  0  0  0  0  0
   -0.7180   -0.5880    0.6670 N   0  0  0  0  0  0  0  0  0  0  0  0
   -0.9830   -1.4870   -0.4200 C   0  0  0  0  0  0  0  0  0  0  0  0
   -2.5040   -1.4010   -0.6310 C   0  0  0  0  0  0  0  0  0  0  0  0
   -2.7120   -0.2060   -1.2980 O   0  0  0  0  0  0  0  0  0  0  0  0
   -1.7570    0.7580   -1.0310 C   0  0  0  0  0  0  0  0  0  0  0  0
   -1.2550    0.7130    0.4170 C   0  0  1  0  0  0  0  0  0  0  0  0
   -2.4720    1.0000    1.2780 C   0  0  0  0  0  0  0  0  0  0  0  0
  1  2  1  0
  2  3  2  3
  2  5  1  0
  3  4  1  0
  5  6  1  0
  6  7  1  0
  6 11  1  0
  7  8  1  0
  8  9  1  0
  9 10  1  0
 10 11  1  0
 11 12  1  1
M  CHG  1   4   1
M  END
