
     RDKit          3D

 38 42  0  0  0  0  0  0  0  0999 V2000
   -6.9030   -0.0910   -2.5270 C   0  0  0  0  0  0  0  0  0  0  0  0
   -5.6800   -0.7210   -1.9430 C   0  0  0  0  0  0  0  0  0  0  0  0
   -5.3920   -2.0000   -2.3030 C   0  0  0  0  0  0  0  0  0  0  0  0
   -4.2760   -2.6020   -1.7810 C   0  0  0  0  0  0  0  0  0  0  0  0
   -3.4460   -1.9070   -0.8870 C   0  0  0  0  0  0  0  0  0  0  0  0
   -3.7320   -0.6180   -0.5200 C   0  0  0  0  0  0  0  0  0  0  0  0
   -2.9080    0.1920    0.3870 C   0  0  0  0  0  0  0  0  0  0  0  0
   -1.8000   -0.4640    0.9480 O   0  0  0  0  0  0  0  0  0  0  0  0
   -1.9460   -1.5490    1.7840 C   0  0  0  0  0  0  0  0  0  0  0  0
   -3.1050   -1.9530    2.0520 O   0  0  0  0  0  0  0  0  0  0  0  0
   -0.7470   -2.2510    2.3750 C   0  0  0  0  0  0  0  0  0  0  0  0
    0.3920   -1.6030    1.8900 O   0  0  0  0  0  0  0  0  0  0  0  0
    1.6430   -2.0150    2.2690 C   0  0  0  0  0  0  0  0  0  0  0  0
    1.8140   -2.9590    3.0440 O   0  0  0  0  0  0  0  0  0  0  0  0
    2.8330   -1.2810    1.7100 C   0  0  0  0  0  0  0  0  0  0  0  0
    4.0570   -1.8150    2.1710 N   0  0  1  0  0  0  0  0  0  0  0  0
    4.1140   -3.2710    2.0600 C   0  0  0  0  0  0  0  0  0  0  0  0
    5.1980   -1.2210    1.6080 C   0  0  0  0  0  0  0  0  0  0  0  0
    6.4650   -1.6470    1.9280 N   0  0  0  0  0  0  0  0  0  0  0  0
    7.3510   -0.9360    1.2770 N   0  0  0  0  0  0  0  0  0  0  0  0
    6.6790   -0.0560    0.5400 C   0  0  0  0  0  0  0  0  0  0  0  0
    5.3370   -0.2230    0.7380 N   0  0  0  0  0  0  0  0  0  0  0  0
    4.6950    0.7450   -0.0720 C   0  0  0  0  0  0  0  0  0  0  0  0
    3.4640    0.9600   -0.2070 O   0  0  0  0  0  0  0  0  0  0  0  0
    5.7150    1.5370   -0.7980 C   0  0  0  0  0  0  0  0  0  0  0  0
    5.6300    2.5730   -1.6900 C   0  0  0  0  0  0  0  0  0  0  0  0
    6.8100    3.0940   -2.1890 C   0  0  0  0  0  0  0  0  0  0  0  0
    8.0530    2.6190   -1.8290 C   0  0  0  0  0  0  0  0  0  0  0  0
    8.0930    1.5760   -0.9290 C   0  0  0  0  0  0  0  0  0  0  0  0
    6.9220    1.0310   -0.4090 C   0  0  0  0  0  0  0  0  0  0  0  0
   -4.8750   -0.0380   -1.0720 C   0  0  0  0  0  0  0  0  0  0  0  0
   -5.1950    1.3320   -0.6960 C   0  0  0  0  0  0  0  0  0  0  0  0
   -6.1130    1.6630    0.2620 C   0  0  0  0  0  0  0  0  0  0  0  0
   -6.3510    3.0080    0.5560 C   0  0  0  0  0  0  0  0  0  0  0  0
   -5.6930    3.9780   -0.0840 N   0  0  0  0  0  0  0  0  0  0  0  0
   -4.7720    3.6890   -1.0420 C   0  0  0  0  0  0  0  0  0  0  0  0
   -3.9330    4.9670   -1.8560 Cl  0  0  0  0  0  0  0  0  0  0  0  0
   -4.5330    2.3530   -1.3380 C   0  0  0  0  0  0  0  0  0  0  0  0
  1  2  1  0
  2  3  2  0
  2 31  1  0
  3  4  1  0
  4  5  2  0
  5  6  1  0
  6  7  1  0
  6 31  2  0
  7  8  1  0
  8  9  1  0
  9 10  2  0
  9 11  1  0
 11 12  1  0
 12 13  1  0
 13 14  2  0
 13 15  1  0
 15 16  1  0
 16 17  1  6
 16 18  1  0
 18 19  2  0
 18 22  1  0
 19 20  1  0
 20 21  2  0
 21 22  1  0
 21 30  1  0
 22 23  1  0
 23 24  2  0
 23 25  1  0
 25 26  2  0
 25 30  1  0
 26 27  1  0
 27 28  2  0
 28 29  1  0
 29 30  2  0
 31 32  1  0
 32 33  2  0
 32 38  1  0
 33 34  1  0
 34 35  2  0
 35 36  1  0
 36 37  1  0
 36 38  2  0
M  CHG  2  16   1  35   1
M  END
