
     RDKit          3D

 38 42  0  0  0  0  0  0  0  0999 V2000
    6.6200   -4.8310    0.8350 C   0  0  0  0  0  0  0  0  0  0  0  0
    5.5000   -4.0750    1.4970 C   0  0  0  0  0  0  0  0  0  0  0  0
    5.3090   -2.7700    0.7640 C   0  0  0  0  0  0  0  0  0  0  0  0
    4.3580   -1.9100    1.1760 N   0  0  0  0  0  0  0  0  0  0  0  0
    4.2270   -0.7490    0.4820 C   0  0  0  0  0  0  0  0  0  0  0  0
    5.0370   -0.4750   -0.5970 C   0  0  0  0  0  0  0  0  0  0  0  0
    5.9850   -1.3830   -0.9710 C   0  0  0  0  0  0  0  0  0  0  0  0
    6.7430   -1.1520   -1.9600 O   0  0  0  0  0  0  0  0  0  0  0  0
    6.0790   -2.4990   -0.2670 O   0  0  0  0  0  0  0  0  0  0  0  0
    4.8210    0.8030   -1.3040 C   0  0  0  0  0  0  0  0  0  0  0  0
    3.2970    0.8600   -1.5040 C   0  0  0  0  0  0  0  0  0  0  0  0
    2.5840    0.8910   -0.2480 N   0  0  2  0  0  0  0  0  0  0  0  0
    2.1760    2.2460    0.0050 C   0  0  0  0  0  0  0  0  0  0  0  0
    0.7540    2.4810    0.1880 C   0  0  0  0  0  0  0  0  0  0  0  0
   -0.2470    1.6030    0.1530 N   0  0  0  0  0  0  0  0  0  0  0  0
   -1.4280    2.2170    0.3710 C   0  0  0  0  0  0  0  0  0  0  0  0
   -2.8090    1.6510    0.4200 C   0  0  2  0  0  0  0  0  0  0  0  0
   -2.8480    0.6620    1.5440 C   0  0  0  0  0  0  0  0  0  0  0  0
   -4.2450    0.1040    1.7650 C   0  0  0  0  0  0  0  0  0  0  0  0
   -5.0880    0.3760    0.5110 C   0  0  0  0  0  0  0  0  0  0  0  0
   -4.2710    0.0300   -0.6000 N   0  0  0  0  0  0  0  0  0  0  0  0
   -4.1840   -1.0600   -1.4240 C   0  0  0  0  0  0  0  0  0  0  0  0
   -3.2190   -0.8570   -2.3490 O   0  0  0  0  0  0  0  0  0  0  0  0
   -4.8000   -2.3260   -1.5980 C   0  0  0  0  0  0  0  0  0  0  0  0
   -4.3980   -3.1280   -2.6310 O   0  0  0  0  0  0  0  0  0  0  0  0
   -5.0440   -4.2320   -2.6540 C   0  0  0  0  0  0  0  0  0  0  0  0
   -5.9270   -4.2380   -1.6260 C   0  0  0  0  0  0  0  0  0  0  0  0
   -5.7610   -3.0090   -0.9550 C   0  0  0  0  0  0  0  0  0  0  0  0
   -6.5520   -2.6320    0.2510 C   0  0  0  0  0  0  0  0  0  0  0  0
   -3.2760    1.1570   -0.8990 C   0  0  0  0  0  0  0  0  0  0  0  0
   -1.1280    3.5030    0.5420 N   0  0  0  0  0  0  0  0  0  0  0  0
    0.1910    3.7460    0.4450 C   0  0  0  0  0  0  0  0  0  0  0  0
    0.8950    5.0060    0.5730 C   0  0  0  0  0  0  0  0  0  0  0  0
    0.4040    6.1850    0.8060 C   0  0  0  0  0  0  0  0  0  0  0  0
   -0.9620    6.5500    0.9960 C   0  0  0  0  0  0  0  0  0  0  0  0
   -1.9700    5.8120    0.9790 O   0  0  0  0  0  0  0  0  0  0  0  0
   -1.3110    8.2610    1.2980 Cl  0  0  0  0  0  0  0  0  0  0  0  0
    3.2280    0.2730    0.8570 C   0  0  0  0  0  0  0  0  0  0  0  0
  1  2  1  0
  2  3  1  0
  3  4  2  0
  3  9  1  0
  4  5  1  0
  5  6  2  0
  5 38  1  0
  6  7  1  0
  6 10  1  0
  7  8  2  0
  7  9  1  0
 10 11  1  0
 11 12  1  0
 12 13  1  1
 12 38  1  0
 13 14  1  0
 14 15  1  0
 14 32  2  0
 15 16  1  0
 17 16  1  6
 16 31  2  0
 17 18  1  0
 17 30  1  0
 18 19  1  0
 19 20  1  0
 20 21  1  0
 21 22  1  0
 21 30  1  0
 22 23  2  0
 22 24  1  0
 24 25  1  0
 24 28  2  0
 25 26  1  0
 26 27  2  0
 27 28  1  0
 28 29  1  0
 31 32  1  0
 32 33  1  0
 33 34  2  3
 34 35  1  0
 35 36  2  0
 35 37  1  0
M  CHG  2   4   1  12   1
M  END
