
     RDKit          3D

 38 42  0  0  0  0  0  0  0  0999 V2000
    7.8630   -2.1490   -2.4040 C   0  0  0  0  0  0  0  0  0  0  0  0
    6.7080   -1.6350   -1.7830 O   0  0  0  0  0  0  0  0  0  0  0  0
    6.8430   -0.7840   -0.6820 C   0  0  0  0  0  0  0  0  0  0  0  0
    8.0770   -0.4400   -0.1910 C   0  0  0  0  0  0  0  0  0  0  0  0
    8.1760    0.4050    0.8990 C   0  0  0  0  0  0  0  0  0  0  0  0
    7.0190    0.8760    1.4590 C   0  0  0  0  0  0  0  0  0  0  0  0
    5.7650    0.5190    0.9500 C   0  0  0  0  0  0  0  0  0  0  0  0
    5.6490   -0.3110   -0.1230 C   0  0  0  0  0  0  0  0  0  0  0  0
    4.4210   -0.7460   -0.6770 N   0  0  0  0  0  0  0  0  0  0  0  0
    3.1730   -0.1960   -0.3230 C   0  0  0  0  0  0  0  0  0  0  0  0
    3.0200    0.7280    0.4960 O   0  0  0  0  0  0  0  0  0  0  0  0
    1.9820   -0.8010   -1.0120 C   0  0  0  0  0  0  0  0  0  0  0  0
    0.7870   -0.1680   -0.7860 O   0  0  0  0  0  0  0  0  0  0  0  0
    0.1360    0.0990    0.3960 C   0  0  0  0  0  0  0  0  0  0  0  0
    0.6650   -0.2520    1.4660 O   0  0  0  0  0  0  0  0  0  0  0  0
   -1.1490    0.7990    0.2940 C   0  0  0  0  0  0  0  0  0  0  0  0
   -1.1000    2.2000    0.2180 C   0  0  0  0  0  0  0  0  0  0  0  0
    0.2170    2.8760    0.2340 C   0  0  0  0  0  0  0  0  0  0  0  0
    0.8700    2.8840    1.8820 Cl  0  0  0  0  0  0  0  0  0  0  0  0
   -2.2410    2.8800    0.1340 N   0  0  0  0  0  0  0  0  0  0  0  0
   -3.4300    2.2310    0.1230 C   0  0  0  0  0  0  0  0  0  0  0  0
   -4.6100    2.9970    0.0080 N   0  0  0  0  0  0  0  0  0  0  0  0
   -5.1290    3.8860    1.0000 C   0  0  0  0  0  0  0  0  0  0  0  0
   -6.0800    4.8200    0.3250 C   0  0  0  0  0  0  0  0  0  0  0  0
   -6.4230    4.1510   -0.9770 C   0  0  0  0  0  0  0  0  0  0  0  0
   -5.4870    2.9890   -1.1320 C   0  0  0  0  0  0  0  0  0  0  0  0
   -3.4510    0.9040    0.1970 N   0  0  0  0  0  0  0  0  0  0  0  0
   -2.3310    0.1290    0.2860 C   0  0  0  0  0  0  0  0  0  0  0  0
   -2.5100   -1.3170    0.4640 C   0  0  0  0  0  0  0  0  0  0  0  0
   -3.7700   -1.7750    0.8510 C   0  0  0  0  0  0  0  0  0  0  0  0
   -4.0590   -3.1300    1.0080 C   0  0  0  0  0  0  0  0  0  0  0  0
   -3.1070   -4.0860    0.7890 C   0  0  0  0  0  0  0  0  0  0  0  0
   -1.8650   -3.6600    0.4100 C   0  0  0  0  0  0  0  0  0  0  0  0
   -1.5880   -2.2920    0.2540 C   0  0  0  0  0  0  0  0  0  0  0  0
   -1.0170   -4.8380    0.2280 C   0  0  0  0  0  0  0  0  0  0  0  0
    0.2160   -4.8820    0.0270 O   0  0  0  0  0  0  0  0  0  0  0  0
   -1.8960   -6.0290    0.3230 C   0  0  0  0  0  0  0  0  0  0  0  0
   -3.1280   -5.5220    0.8780 N   0  0  0  0  0  0  0  0  0  0  0  0
  1  2  1  0
  2  3  1  0
  3  4  2  0
  3  8  1  0
  4  5  1  0
  5  6  2  0
  6  7  1  0
  7  8  2  0
  8  9  1  0
  9 10  1  0
 10 11  2  0
 10 12  1  0
 12 13  1  0
 13 14  1  0
 14 15  2  0
 14 16  1  0
 16 17  2  0
 16 28  1  0
 17 18  1  0
 17 20  1  0
 18 19  1  0
 20 21  2  0
 21 22  1  0
 21 27  1  0
 22 23  1  0
 22 26  1  0
 23 24  1  0
 24 25  1  0
 25 26  1  0
 27 28  2  0
 28 29  1  0
 29 30  2  0
 29 34  1  0
 30 31  1  0
 31 32  2  0
 32 33  1  0
 32 38  1  0
 33 34  2  0
 33 35  1  0
 35 36  2  0
 35 37  1  0
 37 38  1  0
M  CHG  2  20   1  27   1
M  END
