
     RDKit          3D

 38 42  0  0  0  0  0  0  0  0999 V2000
    7.1580   -1.7100    0.4600 C   0  0  0  0  0  0  0  0  0  0  0  0
    6.5270   -1.6180   -0.7920 O   0  0  0  0  0  0  0  0  0  0  0  0
    5.8470   -2.7550   -1.1050 C   0  0  2  0  0  0  0  0  0  0  0  0
    6.6030   -3.5020   -2.2320 C   0  0  0  0  0  0  0  0  0  0  0  0
    4.4010   -2.6160   -1.4740 C   0  0  0  0  0  0  0  0  0  0  0  0
    3.6800   -2.0470   -0.4250 O   0  0  0  0  0  0  0  0  0  0  0  0
    3.7770   -0.7880    0.1040 C   0  0  0  0  0  0  0  0  0  0  0  0
    4.6030    0.0130   -0.3870 O   0  0  0  0  0  0  0  0  0  0  0  0
    2.9570   -0.2970    1.2410 C   0  0  0  0  0  0  0  0  0  0  0  0
    1.7230    0.3180    0.8150 N   0  0  0  0  0  0  0  0  0  0  0  0
    0.5930   -0.3340    0.6550 C   0  0  0  0  0  0  0  0  0  0  0  0
    0.5590   -1.5830    0.8820 O   0  0  0  0  0  0  0  0  0  0  0  0
   -0.6200    0.3160    0.2290 C   0  0  0  0  0  0  0  0  0  0  0  0
   -1.7130   -0.5800    0.1220 C   0  0  0  0  0  0  0  0  0  0  0  0
   -3.0330   -0.4320   -0.2400 N   0  0  2  0  0  0  0  0  0  0  0  0
   -3.7930    0.0290    0.9270 C   0  0  0  0  0  0  0  0  0  0  0  0
   -4.2180   -1.0730    1.8390 C   0  0  0  0  0  0  0  0  0  0  0  0
   -5.2310   -1.9150    1.2010 N   0  0  0  0  0  0  0  0  0  0  0  0
   -5.0640   -3.2990    1.5650 C   0  0  0  0  0  0  0  0  0  0  0  0
   -5.8040   -4.0010    0.5630 N   0  0  0  0  0  0  0  0  0  0  0  0
   -5.5160   -3.2800   -0.6570 C   0  0  0  0  0  0  0  0  0  0  0  0
   -5.0250   -1.9050   -0.2440 C   0  0  1  0  0  0  0  0  0  0  0  0
   -5.9050   -0.8940   -0.9160 C   0  0  0  0  0  0  0  0  0  0  0  0
   -3.5900   -1.7940   -0.6030 C   0  0  0  0  0  0  0  0  0  0  0  0
   -0.5070    1.6550    0.0040 C   0  0  0  0  0  0  0  0  0  0  0  0
   -1.6370    2.3490   -0.4110 C   0  0  0  0  0  0  0  0  0  0  0  0
   -1.5560    3.6910   -0.6440 C   0  0  0  0  0  0  0  0  0  0  0  0
   -0.3690    4.3400   -0.4690 C   0  0  0  0  0  0  0  0  0  0  0  0
   -0.2790    5.7090   -0.7050 C   0  0  0  0  0  0  0  0  0  0  0  0
    0.8950    6.4040   -0.5420 C   0  0  0  0  0  0  0  0  0  0  0  0
    0.9110    8.1280   -0.8640 Cl  0  0  0  0  0  0  0  0  0  0  0  0
    2.0150    5.7150   -0.1300 C   0  0  0  0  0  0  0  0  0  0  0  0
    3.2920    6.4620    0.0490 C   0  0  0  0  0  0  0  0  0  0  0  0
    1.9660    4.3390    0.1180 C   0  0  0  0  0  0  0  0  0  0  0  0
    0.7800    3.6780   -0.0550 C   0  0  0  0  0  0  0  0  0  0  0  0
    0.6810    2.3400    0.1730 N   0  0  0  0  0  0  0  0  0  0  0  0
    1.7590    1.6640    0.5710 C   0  0  0  0  0  0  0  0  0  0  0  0
    2.8560    2.1820    0.7480 O   0  0  0  0  0  0  0  0  0  0  0  0
  1  2  1  0
  2  3  1  0
  3  4  1  6
  3  5  1  0
  5  6  1  0
  6  7  1  0
  7  8  2  0
  7  9  1  0
  9 10  1  0
 10 11  1  0
 10 37  1  0
 11 12  2  0
 11 13  1  0
 13 14  1  0
 13 25  2  0
 15 14  1  1
 15 16  1  0
 15 24  1  0
 16 17  1  0
 17 18  1  0
 18 19  1  0
 18 22  1  0
 19 20  1  0
 20 21  1  0
 21 22  1  0
 22 23  1  6
 22 24  1  0
 25 26  1  0
 25 36  1  0
 26 27  2  0
 27 28  1  0
 28 29  2  0
 28 35  1  0
 29 30  1  0
 30 31  1  0
 30 32  2  0
 32 33  1  0
 32 34  1  0
 34 35  2  0
 35 36  1  0
 36 37  1  0
 37 38  2  0
M  CHG  2  15   1  20   1
M  END
