
     RDKit          3D

 38 42  0  0  0  0  0  0  0  0999 V2000
   10.8100   -0.3870    0.6570 C   0  0  0  0  0  0  0  0  0  0  0  0
   10.3610    0.5690   -0.3140 N   0  0  0  0  0  0  0  0  0  0  0  0
    9.7460   -0.0300   -1.4730 C   0  0  0  0  0  0  0  0  0  0  0  0
    8.3480   -0.4950   -1.2170 C   0  0  0  0  0  0  0  0  0  0  0  0
    7.7900   -0.3770    0.0300 C   0  0  0  0  0  0  0  0  0  0  0  0
    6.4870   -0.8280    0.2300 C   0  0  0  0  0  0  0  0  0  0  0  0
    5.7430   -1.3860   -0.7800 C   0  0  0  0  0  0  0  0  0  0  0  0
    4.4790   -1.8090   -0.5110 O   0  0  0  0  0  0  0  0  0  0  0  0
    3.3340   -1.0670   -0.6290 C   0  0  0  0  0  0  0  0  0  0  0  0
    2.9760   -0.2330    0.4230 C   0  0  0  0  0  0  0  0  0  0  0  0
    1.8590    0.5370    0.4090 C   0  0  0  0  0  0  0  0  0  0  0  0
    0.9780    0.5280   -0.7130 C   0  0  0  0  0  0  0  0  0  0  0  0
   -0.0900    1.3450   -0.5800 O   0  0  0  0  0  0  0  0  0  0  0  0
   -1.3920    1.0230   -0.4410 C   0  0  0  0  0  0  0  0  0  0  0  0
   -1.7480    0.8520    0.8940 N   0  0  0  0  0  0  0  0  0  0  0  0
   -2.9350    0.5470    1.2490 N   0  0  0  0  0  0  0  0  0  0  0  0
   -3.8970    0.3760    0.3700 C   0  0  0  0  0  0  0  0  0  0  0  0
   -5.2190   -0.0200    0.8020 N   0  0  0  0  0  0  0  0  0  0  0  0
   -6.1600    0.8360    0.8680 C   0  0  0  0  0  0  0  0  0  0  0  0
   -5.7170    2.1980    0.4550 C   0  0  0  0  0  0  0  0  0  0  0  0
   -4.4880    2.4570    0.5270 O   0  0  0  0  0  0  0  0  0  0  0  0
   -6.5940    3.1650    0.0060 O   0  0  0  0  0  0  0  0  0  0  0  0
   -7.8970    3.0600   -0.4340 C   0  0  0  0  0  0  0  0  0  0  0  0
   -8.8930    2.2480    0.2170 C   0  0  0  0  0  0  0  0  0  0  0  0
   -8.6300    1.4550    1.4390 C   0  0  0  0  0  0  0  0  0  0  0  0
   -7.5040    0.5090    1.3590 C   0  0  0  0  0  0  0  0  0  0  0  0
   -7.7270   -0.7220    1.7510 C   0  0  0  0  0  0  0  0  0  0  0  0
   -6.6990   -1.7620    1.7250 C   0  0  0  0  0  0  0  0  0  0  0  0
   -5.4470   -1.4120    1.0840 C   0  0  2  0  0  0  0  0  0  0  0  0
   -4.2270   -1.9980    1.8200 C   0  0  0  0  0  0  0  0  0  0  0  0
   -3.6570    0.5190   -0.9210 N   0  0  0  0  0  0  0  0  0  0  0  0
   -2.3960    0.8470   -1.3320 C   0  0  0  0  0  0  0  0  0  0  0  0
   -2.2230    0.9810   -2.5670 O   0  0  0  0  0  0  0  0  0  0  0  0
    1.3080   -0.2700   -1.7440 C   0  0  0  0  0  0  0  0  0  0  0  0
    0.3480   -0.3350   -3.2030 Cl  0  0  0  0  0  0  0  0  0  0  0  0
    2.4810   -1.0650   -1.7030 C   0  0  0  0  0  0  0  0  0  0  0  0
    6.2920   -1.5090   -2.0250 C   0  0  0  0  0  0  0  0  0  0  0  0
    7.5980   -1.0590   -2.2320 C   0  0  0  0  0  0  0  0  0  0  0  0
  1  2  1  0
  2  3  1  0
  3  4  1  0
  4  5  2  0
  4 38  1  0
  5  6  1  0
  6  7  2  0
  7  8  1  0
  7 37  1  0
  8  9  1  0
  9 10  2  0
  9 36  1  0
 10 11  1  0
 11 12  2  0
 12 13  1  0
 12 34  1  0
 13 14  1  0
 14 15  2  0
 14 32  1  0
 15 16  1  0
 16 17  2  0
 17 18  1  0
 17 31  1  0
 18 19  2  0
 18 29  1  0
 19 20  1  0
 19 26  1  0
 20 21  2  0
 20 22  1  0
 22 23  1  0
 23 24  1  0
 24 25  1  0
 25 26  1  0
 26 27  2  0
 27 28  1  0
 28 29  1  0
 29 30  1  1
 31 32  1  0
 32 33  2  0
 34 35  1  0
 34 36  2  0
 37 38  2  0
M  CHG  2   2   1  18   1
M  END
