
     RDKit          3D

 38 41  0  0  0  0  0  0  0  0999 V2000
   -5.0200    1.3690   -0.8910 C   0  0  0  0  0  0  0  0  0  0  0  0
   -3.8860    1.4490   -1.8820 C   0  0  2  0  0  0  0  0  0  0  0  0
   -4.0170    0.3970   -2.9670 C   0  0  0  0  0  0  0  0  0  0  0  0
   -2.5280    1.5520   -1.3140 C   0  0  0  0  0  0  0  0  0  0  0  0
   -2.0360    0.5380   -0.4740 N   0  0  0  0  0  0  0  0  0  0  0  0
   -0.7110    0.1540   -0.9060 C   0  0  0  0  0  0  0  0  0  0  0  0
   -0.4280   -1.3240   -0.7940 C   0  0  1  0  0  0  0  0  0  0  0  0
   -1.3340   -2.0710   -1.5830 O   0  0  0  0  0  0  0  0  0  0  0  0
    0.9160   -1.5200   -1.4880 C   0  0  2  0  0  0  0  0  0  0  0  0
    1.2950   -2.9690   -1.6120 C   0  0  0  0  0  0  0  0  0  0  0  0
    1.4150   -3.6640   -0.3090 C   0  0  0  0  0  0  0  0  0  0  0  0
    2.6190   -3.6940    0.3690 C   0  0  0  0  0  0  0  0  0  0  0  0
    2.7470   -4.3450    1.5910 C   0  0  0  0  0  0  0  0  0  0  0  0
    1.6750   -4.9780    2.1610 C   0  0  0  0  0  0  0  0  0  0  0  0
    0.4780   -4.9600    1.5070 C   0  0  0  0  0  0  0  0  0  0  0  0
    0.3490   -4.3060    0.2790 C   0  0  0  0  0  0  0  0  0  0  0  0
    1.9670   -0.7980   -0.7830 N   0  0  0  0  0  0  0  0  0  0  0  0
    2.7000    0.2740   -1.3440 C   0  0  0  0  0  0  0  0  0  0  0  0
    2.4240    0.6160   -2.5150 O   0  0  0  0  0  0  0  0  0  0  0  0
    3.6940    0.9610   -0.6850 O   0  0  0  0  0  0  0  0  0  0  0  0
    4.4330    2.0180   -1.2030 C   0  0  1  0  0  0  0  0  0  0  0  0
    4.2610    3.1760   -0.2100 C   0  0  0  0  0  0  0  0  0  0  0  0
    5.0250    2.8490    0.8820 O   0  0  0  0  0  0  0  0  0  0  0  0
    5.9290    1.8780    0.5390 C   0  0  1  0  0  0  0  0  0  0  0  0
    5.4110    0.6230    0.8750 O   0  0  0  0  0  0  0  0  0  0  0  0
    6.0250   -0.3000    0.0570 C   0  0  0  0  0  0  0  0  0  0  0  0
    6.3480    0.3890   -1.2340 C   0  0  0  0  0  0  0  0  0  0  0  0
    5.9260    1.7940   -0.9880 C   0  0  1  0  0  0  0  0  0  0  0  0
   -1.9280    0.8830    1.1990 S   0  0  2  0  0  0  0  0  0  0  0  0
   -0.8780    1.9330    1.4810 O   0  0  0  0  0  0  0  0  0  0  0  0
   -1.3830   -0.3630    1.9040 O   0  0  0  0  0  0  0  0  0  0  0  0
   -3.4070    1.2490    1.9980 C   0  0  0  0  0  0  0  0  0  0  0  0
   -3.7750    2.5810    2.1230 C   0  0  0  0  0  0  0  0  0  0  0  0
   -4.9600    2.8570    2.7690 C   0  0  0  0  0  0  0  0  0  0  0  0
   -5.7670    1.8500    3.2810 C   0  0  0  0  0  0  0  0  0  0  0  0
   -6.9850    2.1710    3.9430 N   0  0  0  0  0  0  0  0  0  0  0  0
   -5.3780    0.5420    3.1440 C   0  0  0  0  0  0  0  0  0  0  0  0
   -4.1960    0.2660    2.4990 C   0  0  0  0  0  0  0  0  0  0  0  0
  2  1  1  1
  2  3  1  0
  2  4  1  0
  4  5  1  0
  5  6  1  0
 29  5  1  6
  6  7  1  0
  7  8  1  6
  7  9  1  0
  9 10  1  1
  9 17  1  0
 10 11  1  0
 11 12  2  0
 11 16  1  0
 12 13  1  0
 13 14  2  0
 14 15  1  0
 15 16  2  0
 17 18  1  0
 18 19  2  0
 18 20  1  0
 21 20  1  1
 21 22  1  0
 21 28  1  0
 22 23  1  0
 24 23  1  6
 24 25  1  0
 24 28  1  0
 25 26  1  0
 26 27  1  0
 28 27  1  1
 29 30  2  0
 29 31  2  0
 29 32  1  0
 32 33  2  0
 32 38  1  0
 33 34  1  0
 34 35  2  0
 35 36  1  0
 35 37  1  0
 37 38  2  0
M  END
