
     RDKit          3D

 38 42  0  0  0  0  0  0  0  0999 V2000
    7.2540    2.4700   -1.0370 C   0  0  0  0  0  0  0  0  0  0  0  0
    7.3530    2.7730    0.3120 O   0  0  0  0  0  0  0  0  0  0  0  0
    7.0060    1.6630    1.0520 C   0  0  0  0  0  0  0  0  0  0  0  0
    7.9180    0.5580    0.7300 C   0  0  0  0  0  0  0  0  0  0  0  0
    9.2690    0.7600    0.7070 C   0  0  0  0  0  0  0  0  0  0  0  0
   10.1410   -0.2560    0.4290 C   0  0  0  0  0  0  0  0  0  0  0  0
    9.6320   -1.5370    0.1640 C   0  0  0  0  0  0  0  0  0  0  0  0
   10.7080   -2.8660   -0.1910 Cl  0  0  0  0  0  0  0  0  0  0  0  0
    8.2730   -1.6450    0.2090 C   0  0  0  0  0  0  0  0  0  0  0  0
    7.4000   -0.6920    0.4710 N   0  0  0  0  0  0  0  0  0  0  0  0
    6.0000   -0.8560    0.4970 C   0  0  0  0  0  0  0  0  0  0  0  0
    5.3360   -1.2190    1.6380 C   0  0  0  0  0  0  0  0  0  0  0  0
    3.9890   -1.3520    1.6670 C   0  0  0  0  0  0  0  0  0  0  0  0
    3.2450   -1.1130    0.4970 C   0  0  0  0  0  0  0  0  0  0  0  0
    1.8090   -1.2380    0.5920 C   0  0  0  0  0  0  0  0  0  0  0  0
    1.2950   -1.7230    1.6310 O   0  0  0  0  0  0  0  0  0  0  0  0
    0.9300   -0.8250   -0.4470 N   0  0  0  0  0  0  0  0  0  0  0  0
   -0.4820   -0.9010   -0.4170 C   0  0  0  0  0  0  0  0  0  0  0  0
   -1.1940   -1.8100    0.3080 C   0  0  0  0  0  0  0  0  0  0  0  0
   -2.5570   -1.7990    0.3980 C   0  0  0  0  0  0  0  0  0  0  0  0
   -3.2580   -0.7870   -0.3000 C   0  0  0  0  0  0  0  0  0  0  0  0
   -4.5450   -0.8060   -0.1940 O   0  0  0  0  0  0  0  0  0  0  0  0
   -5.8400   -0.8220   -0.0890 C   0  0  1  0  0  0  0  0  0  0  0  0
   -6.5310   -2.1390   -0.5150 C   0  0  0  0  0  0  0  0  0  0  0  0
   -6.4360   -2.9530    0.7300 C   0  0  0  0  0  0  0  0  0  0  0  0
   -6.2790   -2.0510    1.8300 N   0  0  0  0  0  0  0  0  0  0  0  0
   -6.3700   -0.7080    1.3570 C   0  0  0  0  0  0  0  0  0  0  0  0
   -2.5960    0.1530   -1.0450 C   0  0  0  0  0  0  0  0  0  0  0  0
   -3.2330    1.2950   -1.6590 C   0  0  0  0  0  0  0  0  0  0  0  0
   -2.5420    2.0190   -2.4640 O   0  0  0  0  0  0  0  0  0  0  0  0
   -4.5280    1.7350   -1.4800 O   0  0  0  0  0  0  0  0  0  0  0  0
   -4.9370    2.9140   -2.2030 C   0  0  0  0  0  0  0  0  0  0  0  0
   -6.2590    3.4000   -1.6890 C   0  0  1  0  0  0  0  0  0  0  0  0
   -7.4720    2.5080   -1.7250 C   0  0  0  0  0  0  0  0  0  0  0  0
   -6.8360    2.9000   -0.4170 C   0  0  0  0  0  0  0  0  0  0  0  0
   -1.1980    0.0870   -1.1010 C   0  0  0  0  0  0  0  0  0  0  0  0
    3.9330   -0.7710   -0.5690 N   0  0  0  0  0  0  0  0  0  0  0  0
    5.2400   -0.6360   -0.6200 N   0  0  0  0  0  0  0  0  0  0  0  0
  1  2  1  0
  2  3  1  0
  3  4  1  0
  4  5  2  0
  4 10  1  0
  5  6  1  0
  6  7  2  0
  7  8  1  0
  7  9  1  0
  9 10  2  0
 10 11  1  0
 11 12  2  0
 11 38  1  0
 12 13  1  0
 13 14  2  0
 14 15  1  0
 14 37  1  0
 15 16  2  0
 15 17  1  0
 17 18  1  0
 18 19  2  0
 18 36  1  0
 19 20  1  0
 20 21  2  0
 21 22  1  0
 21 28  1  0
 23 22  1  1
 23 24  1  0
 23 27  1  0
 24 25  1  0
 25 26  1  0
 26 27  1  0
 28 29  1  0
 28 36  2  0
 29 30  2  0
 29 31  1  0
 31 32  1  0
 33 32  1  6
 33 34  1  0
 33 35  1  0
 34 35  1  0
 37 38  2  0
M  CHG  2  10   1  26   1
M  END
