
     RDKit          3D

 35 37  0  0  0  0  0  0  0  0999 V2000
   -2.2650   -3.4060   -2.7450 C   0  0  0  0  0  0  0  0  0  0  0  0
   -2.1660   -1.8710   -2.6660 C   0  0  1  0  0  0  0  0  0  0  0  0
   -3.1980   -1.3570   -3.6060 C   0  0  0  0  0  0  0  0  0  0  0  0
   -2.3090   -1.5180   -1.2370 C   0  0  0  0  0  0  0  0  0  0  0  0
   -2.2580   -0.1880   -0.8340 N   0  0  0  0  0  0  0  0  0  0  0  0
   -1.0220    0.4760   -0.7890 C   0  0  0  0  0  0  0  0  0  0  0  0
   -0.4770    0.5100    0.6310 C   0  0  1  0  0  0  0  0  0  0  0  0
   -0.3200   -0.8080    1.0460 O   0  0  0  0  0  0  0  0  0  0  0  0
    0.8470    1.1920    0.7200 C   0  0  2  0  0  0  0  0  0  0  0  0
    0.7450    2.6860    0.4520 C   0  0  0  0  0  0  0  0  0  0  0  0
    2.0770    3.3320    0.5480 C   0  0  0  0  0  0  0  0  0  0  0  0
    2.5010    3.8230    1.7640 C   0  0  0  0  0  0  0  0  0  0  0  0
    3.7470    4.4360    1.8920 C   0  0  0  0  0  0  0  0  0  0  0  0
    4.5500    4.5440    0.7830 C   0  0  0  0  0  0  0  0  0  0  0  0
    4.1170    4.0500   -0.4270 C   0  0  0  0  0  0  0  0  0  0  0  0
    2.8780    3.4380   -0.5670 C   0  0  0  0  0  0  0  0  0  0  0  0
    1.8600    0.5770   -0.1060 N   0  0  0  0  0  0  0  0  0  0  0  0
    3.0440   -0.0020    0.4320 C   0  0  0  0  0  0  0  0  0  0  0  0
    3.1890    0.0380    1.7000 O   0  0  0  0  0  0  0  0  0  0  0  0
    4.0310   -0.5960   -0.3110 O   0  0  0  0  0  0  0  0  0  0  0  0
    5.1960   -1.1620    0.2570 C   0  0  1  0  0  0  0  0  0  0  0  0
    5.3270   -2.6300   -0.0780 C   0  0  0  0  0  0  0  0  0  0  0  0
    6.8360   -2.7910   -0.1270 C   0  0  0  0  0  0  0  0  0  0  0  0
    7.2400   -1.6390   -0.7620 O   0  0  0  0  0  0  0  0  0  0  0  0
    6.4580   -0.5940   -0.3410 C   0  0  0  0  0  0  0  0  0  0  0  0
   -3.6530    0.7030   -0.6230 S   0  0  2  0  0  0  0  0  0  0  0  0
   -4.4310    0.7650   -1.9050 O   0  0  0  0  0  0  0  0  0  0  0  0
   -3.3880    2.1550   -0.2540 O   0  0  0  0  0  0  0  0  0  0  0  0
   -4.7250    0.0760    0.6090 C   0  0  0  0  0  0  0  0  0  0  0  0
   -4.6500    0.4550    1.9310 C   0  0  0  0  0  0  0  0  0  0  0  0
   -5.4990   -0.0440    2.8990 C   0  0  0  0  0  0  0  0  0  0  0  0
   -6.4700   -0.9580    2.5610 C   0  0  0  0  0  0  0  0  0  0  0  0
   -7.3540   -1.4840    3.5420 N   0  0  0  0  0  0  0  0  0  0  0  0
   -6.5640   -1.3500    1.2540 C   0  0  0  0  0  0  0  0  0  0  0  0
   -5.7140   -0.8460    0.3030 C   0  0  0  0  0  0  0  0  0  0  0  0
  2  1  1  1
  2  3  1  0
  2  4  1  0
  4  5  1  0
  5  6  1  0
 26  5  1  6
  6  7  1  0
  7  8  1  6
  7  9  1  0
  9 10  1  6
  9 17  1  0
 10 11  1  0
 11 12  2  0
 11 16  1  0
 12 13  1  0
 13 14  2  0
 14 15  1  0
 15 16  2  0
 17 18  1  0
 18 19  2  0
 18 20  1  0
 21 20  1  6
 21 22  1  0
 21 25  1  0
 22 23  1  0
 23 24  1  0
 24 25  1  0
 26 27  2  0
 26 28  2  0
 26 29  1  0
 29 30  2  0
 29 35  1  0
 30 31  1  0
 31 32  2  0
 32 33  1  0
 32 34  1  0
 34 35  2  0
M  END
