
     RDKit          3D

 34 37  0  0  0  0  0  0  0  0999 V2000
   -0.7800    2.1690   -0.4340 C   0  0  0  0  0  0  0  0  0  0  0  0
   -1.3880    0.7510   -0.4410 C   0  0  1  0  0  0  0  0  0  0  0  0
   -1.7450    0.3950    0.9520 C   0  0  0  0  0  0  0  0  0  0  0  0
   -2.6160    0.8440   -1.3020 C   0  0  0  0  0  0  0  0  0  0  0  0
   -3.3970   -0.3590   -1.5000 C   0  0  0  0  0  0  0  0  0  0  0  0
   -3.0320   -1.1130   -2.5440 O   0  0  0  0  0  0  0  0  0  0  0  0
   -3.5830   -2.2160   -2.8940 C   0  0  0  0  0  0  0  0  0  0  0  0
   -4.6410   -2.6960   -2.1580 C   0  0  0  0  0  0  0  0  0  0  0  0
   -5.0830   -1.9810   -1.0670 C   0  0  0  0  0  0  0  0  0  0  0  0
   -6.0540   -2.3770   -0.3540 O   0  0  0  0  0  0  0  0  0  0  0  0
   -4.4220   -0.7810   -0.7540 C   0  0  0  0  0  0  0  0  0  0  0  0
   -4.9470   -0.0380    0.3820 C   0  0  0  0  0  0  0  0  0  0  0  0
   -4.8500   -0.4850    1.6780 C   0  0  0  0  0  0  0  0  0  0  0  0
   -5.3500    0.2240    2.7230 C   0  0  0  0  0  0  0  0  0  0  0  0
   -5.9710    1.4210    2.4930 C   0  0  0  0  0  0  0  0  0  0  0  0
   -6.0880    1.9030    1.2120 C   0  0  0  0  0  0  0  0  0  0  0  0
   -6.9020    3.4540    0.9980 Cl  0  0  0  0  0  0  0  0  0  0  0  0
   -5.5860    1.1870    0.1770 C   0  0  0  0  0  0  0  0  0  0  0  0
   -0.4630   -0.2250   -1.1030 C   0  0  0  0  0  0  0  0  0  0  0  0
    1.1030   -0.4710   -0.4150 S   0  0  1  0  0  0  0  0  0  0  0  0
    0.8880   -1.0470    0.9870 O   0  0  0  0  0  0  0  0  0  0  0  0
    1.7420   -1.6390   -1.1660 O   0  0  0  0  0  0  0  0  0  0  0  0
    2.1620    0.8970   -0.3020 C   0  0  0  0  0  0  0  0  0  0  0  0
    3.4890    0.5710    0.2820 C   0  0  0  0  0  0  0  0  0  0  0  0
    4.6440    0.1860   -0.3400 C   0  0  0  0  0  0  0  0  0  0  0  0
    5.5570    0.0050    0.6630 C   0  0  0  0  0  0  0  0  0  0  0  0
    6.9480   -0.4170    0.4680 C   0  0  0  0  0  0  0  0  0  0  0  0
    7.4450   -0.6600   -0.7560 N   0  0  0  0  0  0  0  0  0  0  0  0
    8.7220   -1.0490   -0.9260 C   0  0  0  0  0  0  0  0  0  0  0  0
    9.5830   -1.2160    0.1500 C   0  0  0  0  0  0  0  0  0  0  0  0
    9.0570   -0.9630    1.3970 C   0  0  0  0  0  0  0  0  0  0  0  0
    7.7830   -0.5790    1.5130 N   0  0  0  0  0  0  0  0  0  0  0  0
    4.9650    0.2750    1.8530 N   0  0  0  0  0  0  0  0  0  0  0  0
    3.7130    0.6170    1.6130 N   0  0  0  0  0  0  0  0  0  0  0  0
  2  1  1  1
  2  3  1  0
  2  4  1  0
  2 19  1  0
  4  5  1  0
  5  6  1  0
  5 11  2  0
  6  7  1  0
  7  8  2  0
  8  9  1  0
  9 10  2  0
  9 11  1  0
 11 12  1  0
 12 13  2  0
 12 18  1  0
 13 14  1  0
 14 15  2  0
 15 16  1  0
 16 17  1  0
 16 18  2  0
 20 19  1  6
 20 21  2  0
 20 22  2  0
 20 23  1  0
 23 24  1  0
 24 25  1  0
 24 34  2  0
 25 26  2  0
 26 27  1  0
 26 33  1  0
 27 28  2  0
 27 32  1  0
 28 29  1  0
 29 30  2  0
 30 31  1  0
 31 32  2  0
 33 34  1  0
M  END
