
     RDKit          3D

 34 37  0  0  0  0  0  0  0  0999 V2000
    8.3190   -0.2680    0.4010 C   0  0  0  0  0  0  0  0  0  0  0  0
    6.8360   -0.0580    0.5410 C   0  0  0  0  0  0  0  0  0  0  0  0
    5.8920   -0.9900    0.1710 C   0  0  0  0  0  0  0  0  0  0  0  0
    4.6610   -0.4040    0.4650 C   0  0  0  0  0  0  0  0  0  0  0  0
    4.9090    0.8410    0.9910 C   0  0  0  0  0  0  0  0  0  0  0  0
    3.8820    1.8380    1.4540 C   0  0  2  0  0  0  0  0  0  0  0  0
    2.9170    1.2180    2.3700 C   0  0  0  0  0  0  0  0  0  0  0  0
    2.7800    1.6360    3.5280 O   0  0  0  0  0  0  0  0  0  0  0  0
    3.1300    2.5670   -0.0200 S   0  0  0  0  0  0  0  0  0  0  0  0
    2.1950    1.3170   -0.8820 C   0  0  0  0  0  0  0  0  0  0  0  0
    2.7210    0.5560   -1.8650 N   0  0  0  0  0  0  0  0  0  0  0  0
    1.9610   -0.3630   -2.4860 C   0  0  0  0  0  0  0  0  0  0  0  0
    2.3960   -1.1040   -3.4130 O   0  0  0  0  0  0  0  0  0  0  0  0
    0.6250   -0.5510   -2.1360 C   0  0  0  0  0  0  0  0  0  0  0  0
    0.0990    0.2240   -1.1380 C   0  0  0  0  0  0  0  0  0  0  0  0
   -1.2440    0.1330   -0.6920 N   0  0  0  0  0  0  0  0  0  0  0  0
   -1.8080   -0.9150   -0.2310 C   0  0  0  0  0  0  0  0  0  0  0  0
   -3.2250   -0.8400    0.1940 C   0  0  0  0  0  0  0  0  0  0  0  0
   -3.7010    0.4700   -0.0300 O   0  0  0  0  0  0  0  0  0  0  0  0
   -4.9800    0.8940    0.2560 C   0  0  0  0  0  0  0  0  0  0  0  0
   -5.8810    0.0170    0.7970 C   0  0  0  0  0  0  0  0  0  0  0  0
   -7.1870    0.3970    1.1050 C   0  0  0  0  0  0  0  0  0  0  0  0
   -7.5420    1.7090    0.8410 C   0  0  0  0  0  0  0  0  0  0  0  0
   -9.1710    2.2020    1.2200 Cl  0  0  0  0  0  0  0  0  0  0  0  0
   -6.6200    2.5950    0.2910 C   0  0  0  0  0  0  0  0  0  0  0  0
   -5.3390    2.2010   -0.0060 C   0  0  0  0  0  0  0  0  0  0  0  0
   -4.3150    3.0960   -0.5930 C   0  0  0  0  0  0  0  0  0  0  0  0
   -1.0470   -2.1130   -0.1460 N   0  0  0  0  0  0  0  0  0  0  0  0
   -1.2640   -3.2140   -0.8920 C   0  0  0  0  0  0  0  0  0  0  0  0
   -0.3510   -4.1910   -0.5550 C   0  0  0  0  0  0  0  0  0  0  0  0
    0.4480   -3.6710    0.4260 C   0  0  0  0  0  0  0  0  0  0  0  0
    0.0070   -2.3970    0.6640 C   0  0  0  0  0  0  0  0  0  0  0  0
    0.9000    1.1210   -0.5550 N   0  0  0  0  0  0  0  0  0  0  0  0
    6.2110    0.9830    1.0090 O   0  0  0  0  0  0  0  0  0  0  0  0
  1  2  1  0
  2  3  2  0
  2 34  1  0
  3  4  1  0
  4  5  2  0
  5  6  1  0
  5 34  1  0
  6  7  1  0
  6  9  1  6
  7  8  2  0
  9 10  1  0
 10 11  2  0
 10 33  1  0
 11 12  1  0
 12 13  2  0
 12 14  1  0
 14 15  2  0
 15 16  1  0
 15 33  1  0
 16 17  2  3
 17 18  1  0
 17 28  1  0
 18 19  1  0
 19 20  1  0
 20 21  2  0
 20 26  1  0
 21 22  1  0
 22 23  2  0
 23 24  1  0
 23 25  1  0
 25 26  2  0
 26 27  1  0
 28 29  1  0
 28 32  1  0
 29 30  2  0
 30 31  1  0
 31 32  2  0
M  END
