
     RDKit          3D

 34 37  0  0  0  0  0  0  0  0999 V2000
   -6.7560   -1.2510    0.1330 C   0  0  0  0  0  0  0  0  0  0  0  0
   -6.4730   -2.6940    0.2390 C   0  0  0  0  0  0  0  0  0  0  0  0
   -5.2340   -3.1180    0.2560 C   0  0  0  0  0  0  0  0  0  0  0  0
   -4.1440   -2.1220    0.1680 C   0  0  0  0  0  0  0  0  0  0  0  0
   -2.9220   -2.5300    0.1850 C   0  0  0  0  0  0  0  0  0  0  0  0
   -2.6200   -4.2820    0.3060 Cl  0  0  0  0  0  0  0  0  0  0  0  0
   -1.7530   -1.6710    0.1790 C   0  0  0  0  0  0  0  0  0  0  0  0
   -0.5360   -2.1250   -0.2600 N   0  0  0  0  0  0  0  0  0  0  0  0
    0.3500   -1.1170   -0.1910 N   0  0  0  0  0  0  0  0  0  0  0  0
    1.7020   -1.3870   -0.5660 C   0  0  0  0  0  0  0  0  0  0  0  0
    2.6970   -1.5960    0.3960 C   0  0  0  0  0  0  0  0  0  0  0  0
    3.9720   -1.9000    0.0560 C   0  0  0  0  0  0  0  0  0  0  0  0
    4.3120   -2.0100   -1.2750 C   0  0  0  0  0  0  0  0  0  0  0  0
    5.6810   -2.3360   -1.6240 C   0  0  0  0  0  0  0  0  0  0  0  0
    6.0070   -2.4400   -2.8230 O   0  0  0  0  0  0  0  0  0  0  0  0
    6.6160   -2.5310   -0.6400 O   0  0  0  0  0  0  0  0  0  0  0  0
    7.9630   -2.8500   -0.9020 C   0  0  0  0  0  0  0  0  0  0  0  0
    3.3370   -1.8050   -2.2330 C   0  0  0  0  0  0  0  0  0  0  0  0
    2.0800   -1.5050   -1.8720 N   0  0  0  0  0  0  0  0  0  0  0  0
   -0.2580   -0.0340    0.2780 C   0  0  0  0  0  0  0  0  0  0  0  0
    0.2480    1.2510    0.4530 N   0  0  0  0  0  0  0  0  0  0  0  0
    1.4420    1.8000    0.0010 C   0  0  0  0  0  0  0  0  0  0  0  0
    2.2470    1.2270   -0.7200 O   0  0  0  0  0  0  0  0  0  0  0  0
    1.8030    3.2030    0.4130 C   0  0  2  0  0  0  0  0  0  0  0  0
    0.7440    4.1180   -0.1090 C   0  0  0  0  0  0  0  0  0  0  0  0
    1.3440    4.5600   -1.4400 C   0  0  0  0  0  0  0  0  0  0  0  0
    2.7870    4.2170   -1.3160 C   0  0  0  0  0  0  0  0  0  0  0  0
    3.0010    3.6150   -0.1010 O   0  0  0  0  0  0  0  0  0  0  0  0
   -1.6270   -0.3650    0.5350 C   0  0  0  0  0  0  0  0  0  0  0  0
   -2.5860    0.5110    1.2800 C   0  0  0  0  0  0  0  0  0  0  0  0
   -3.3980    0.0220    2.1690 C   0  0  0  0  0  0  0  0  0  0  0  0
   -4.3270    0.9530    2.8560 C   0  0  0  0  0  0  0  0  0  0  0  0
   -4.5170    2.1480    1.4320 S   0  0  0  0  0  0  0  0  0  0  0  0
   -2.6980    1.9640    1.0160 C   0  0  0  0  0  0  0  0  0  0  0  0
  1  2  1  0
  2  3  2  3
  3  4  1  0
  4  5  2  3
  5  6  1  0
  5  7  1  0
  7  8  2  0
  7 29  1  0
  8  9  1  0
  9 10  1  0
  9 20  1  0
 10 11  2  0
 10 19  1  0
 11 12  1  0
 12 13  2  0
 13 14  1  0
 13 18  1  0
 14 15  2  0
 14 16  1  0
 16 17  1  0
 18 19  2  0
 20 21  1  0
 20 29  2  0
 21 22  1  0
 22 23  2  0
 24 22  1  6
 24 25  1  0
 24 28  1  0
 25 26  1  0
 26 27  1  0
 27 28  1  0
 29 30  1  0
 30 31  2  0
 30 34  1  0
 31 32  1  0
 32 33  1  0
 33 34  1  0
M  END
