
     RDKit          3D

 34 37  0  0  0  0  0  0  0  0999 V2000
    8.3300   -0.3620   -1.7930 C   0  0  0  0  0  0  0  0  0  0  0  0
    7.0110   -0.5630   -1.1130 C   0  0  0  0  0  0  0  0  0  0  0  0
    6.7050    0.3090   -0.1380 N   0  0  0  0  0  0  0  0  0  0  0  0
    5.5190    0.1440    0.4880 C   0  0  0  0  0  0  0  0  0  0  0  0
    5.1810    1.1240    1.5750 C   0  0  0  0  0  0  0  0  0  0  0  0
    3.8920    0.8670    2.1350 N   0  0  0  0  0  0  0  0  0  0  0  0
    2.6630    1.2290    1.4240 C   0  0  0  0  0  0  0  0  0  0  0  0
    2.8980    1.7680    0.3060 O   0  0  0  0  0  0  0  0  0  0  0  0
    1.3840    0.9650    2.0040 C   0  0  0  0  0  0  0  0  0  0  0  0
    0.1890    1.1580    1.6290 C   0  0  0  0  0  0  0  0  0  0  0  0
   -0.4700    1.7210    0.4710 C   0  0  0  0  0  0  0  0  0  0  0  0
    0.0050    2.2470   -0.6840 C   0  0  0  0  0  0  0  0  0  0  0  0
   -1.0790    2.6610   -1.4970 C   0  0  0  0  0  0  0  0  0  0  0  0
   -1.0050    3.2650   -2.7930 C   0  0  0  0  0  0  0  0  0  0  0  0
   -0.9510    3.7710   -3.8320 N   0  0  0  0  0  0  0  0  0  0  0  0
   -2.1770    2.3400   -0.7390 C   0  0  0  0  0  0  0  0  0  0  0  0
   -3.8560    2.6650   -1.3230 S   0  0  0  0  0  0  0  0  0  0  0  0
   -4.4680    1.2070   -2.2490 C   0  0  0  0  0  0  0  0  0  0  0  0
   -4.6170    0.0680   -1.3040 C   0  0  0  0  0  0  0  0  0  0  0  0
   -3.5420   -0.7610   -1.1080 C   0  0  0  0  0  0  0  0  0  0  0  0
   -3.6080   -1.8360   -0.2470 C   0  0  0  0  0  0  0  0  0  0  0  0
   -4.7830   -2.0770    0.4310 C   0  0  0  0  0  0  0  0  0  0  0  0
   -4.9240   -3.1390    1.3150 C   0  0  0  0  0  0  0  0  0  0  0  0
   -6.1020   -3.3780    1.9910 C   0  0  0  0  0  0  0  0  0  0  0  0
   -7.1650   -2.5240    1.7720 C   0  0  0  0  0  0  0  0  0  0  0  0
   -8.6790   -2.8150    2.6280 Cl  0  0  0  0  0  0  0  0  0  0  0  0
   -7.0210   -1.4740    0.8960 C   0  0  0  0  0  0  0  0  0  0  0  0
   -5.8400   -1.2210    0.2070 C   0  0  0  0  0  0  0  0  0  0  0  0
   -5.7670   -0.1690   -0.6410 N   0  0  0  0  0  0  0  0  0  0  0  0
   -1.8180    1.8050    0.3800 O   0  0  0  0  0  0  0  0  0  0  0  0
    4.6990   -0.8760    0.1140 C   0  0  0  0  0  0  0  0  0  0  0  0
    5.0690   -1.7350   -0.8920 C   0  0  0  0  0  0  0  0  0  0  0  0
    4.3040   -2.6880   -1.2420 O   0  0  0  0  0  0  0  0  0  0  0  0
    6.2290   -1.5450   -1.4780 O   0  0  0  0  0  0  0  0  0  0  0  0
  1  2  1  0
  2  3  2  0
  2 34  1  0
  3  4  1  0
  4  5  1  0
  4 31  2  0
  5  6  1  0
  6  7  1  0
  7  8  2  0
  7  9  1  0
  9 10  2  3
 10 11  1  0
 11 12  2  0
 11 30  1  0
 12 13  1  0
 13 14  1  0
 13 16  2  0
 14 15  3  0
 16 17  1  0
 16 30  1  0
 17 18  1  0
 18 19  1  0
 19 20  2  0
 19 29  1  0
 20 21  1  0
 21 22  2  0
 22 23  1  0
 22 28  1  0
 23 24  2  0
 24 25  1  0
 25 26  1  0
 25 27  2  0
 27 28  1  0
 28 29  2  0
 31 32  1  0
 32 33  2  0
 32 34  1  0
M  END
