
     RDKit          3D

 34 37  0  0  0  0  0  0  0  0999 V2000
    6.0090   -0.4200   -0.7710 C   0  0  0  0  0  0  0  0  0  0  0  0
    4.8780   -1.1390   -0.6790 C   0  0  0  0  0  0  0  0  0  0  0  0
    4.3870   -1.6130    0.6360 C   0  0  0  0  0  0  0  0  0  0  0  0
    3.5980   -2.7770    0.5100 O   0  0  0  0  0  0  0  0  0  0  0  0
    2.8670   -3.0960   -0.6010 C   0  0  0  0  0  0  0  0  0  0  0  0
    1.9610   -3.9780   -0.5660 O   0  0  0  0  0  0  0  0  0  0  0  0
    3.1600   -2.3880   -1.8400 C   0  0  0  0  0  0  0  0  0  0  0  0
    4.1060   -1.4690   -1.8710 C   0  0  0  0  0  0  0  0  0  0  0  0
    4.4290   -0.7350   -3.1110 C   0  0  0  0  0  0  0  0  0  0  0  0
    4.2000    1.0560   -2.9450 S   0  0  0  0  0  0  0  0  0  0  0  0
    2.5030    1.4950   -2.7110 C   0  0  0  0  0  0  0  0  0  0  0  0
    2.0030    1.5680   -1.4190 C   0  0  0  0  0  0  0  0  0  0  0  0
    0.6980    1.9020   -1.1690 C   0  0  0  0  0  0  0  0  0  0  0  0
    0.1060    1.9990    0.1560 C   0  0  0  0  0  0  0  0  0  0  0  0
    0.8370    1.7550    1.2980 C   0  0  0  0  0  0  0  0  0  0  0  0
    0.2000    1.8690    2.5330 C   0  0  0  0  0  0  0  0  0  0  0  0
   -1.1290    2.2180    2.5980 C   0  0  0  0  0  0  0  0  0  0  0  0
   -1.7410    2.3310    3.6960 O   0  0  0  0  0  0  0  0  0  0  0  0
   -1.8190    2.4510    1.4540 N   0  0  0  0  0  0  0  0  0  0  0  0
   -3.2310    2.8220    1.5600 C   0  0  0  0  0  0  0  0  0  0  0  0
   -4.0970    1.6090    1.5430 C   0  0  0  0  0  0  0  0  0  0  0  0
   -5.3290    1.7520    1.6190 O   0  0  0  0  0  0  0  0  0  0  0  0
   -3.5340    0.3210    1.4420 N   0  0  0  0  0  0  0  0  0  0  0  0
   -4.2270   -0.9110    1.4180 C   0  0  0  0  0  0  0  0  0  0  0  0
   -3.4520   -2.0530    1.1640 C   0  0  0  0  0  0  0  0  0  0  0  0
   -4.0260   -3.2970    1.1280 C   0  0  0  0  0  0  0  0  0  0  0  0
   -5.3890   -3.4290    1.3450 C   0  0  0  0  0  0  0  0  0  0  0  0
   -6.1600   -4.9970    1.3070 Cl  0  0  0  0  0  0  0  0  0  0  0  0
   -6.1540   -2.3180    1.5940 C   0  0  0  0  0  0  0  0  0  0  0  0
   -5.5640   -1.0360    1.6320 C   0  0  0  0  0  0  0  0  0  0  0  0
   -1.1960    2.3360    0.3220 N   0  0  0  0  0  0  0  0  0  0  0  0
   -0.0950    2.1620   -2.2810 C   0  0  0  0  0  0  0  0  0  0  0  0
    0.4030    2.0900   -3.5850 C   0  0  0  0  0  0  0  0  0  0  0  0
    1.7170    1.7500   -3.7610 N   0  0  0  0  0  0  0  0  0  0  0  0
  1  2  2  0
  2  3  1  0
  2  8  1  0
  3  4  1  0
  4  5  1  0
  5  6  2  0
  5  7  1  0
  7  8  2  0
  8  9  1  0
  9 10  1  0
 10 11  1  0
 11 12  2  0
 11 34  1  0
 12 13  1  0
 13 14  1  0
 13 32  2  0
 14 15  1  0
 14 31  2  0
 15 16  2  0
 16 17  1  0
 17 18  2  0
 17 19  1  0
 19 20  1  0
 19 31  1  0
 20 21  1  0
 21 22  2  0
 21 23  1  0
 23 24  1  0
 24 25  2  0
 24 30  1  0
 25 26  1  0
 26 27  2  0
 27 28  1  0
 27 29  1  0
 29 30  2  0
 32 33  1  0
 33 34  2  0
M  END
