
     RDKit          3D

 34 37  0  0  0  0  0  0  0  0999 V2000
    5.8190   -2.9060    1.2820 C   0  0  0  0  0  0  0  0  0  0  0  0
    5.7190   -1.8410    0.2120 C   0  0  0  0  0  0  0  0  0  0  0  0
    5.2600   -0.5250    0.8110 C   0  0  2  0  0  0  0  0  0  0  0  0
    3.9290   -0.6780    1.4430 C   0  0  0  0  0  0  0  0  0  0  0  0
    3.3520   -1.7920    1.4190 O   0  0  0  0  0  0  0  0  0  0  0  0
    3.3060    0.4080    2.0680 N   0  0  0  0  0  0  0  0  0  0  0  0
    2.0110    0.3560    2.7090 C   0  0  0  0  0  0  0  0  0  0  0  0
    0.9920   -0.0380    1.7020 C   0  0  0  0  0  0  0  0  0  0  0  0
    0.3300    0.4090    0.8900 N   0  0  0  0  0  0  0  0  0  0  0  0
   -0.5440   -0.1560    0.0810 C   0  0  0  0  0  0  0  0  0  0  0  0
   -1.3520    0.5720   -0.9500 C   0  0  0  0  0  0  0  0  0  0  0  0
   -2.7260    0.7320   -0.4600 C   0  0  0  0  0  0  0  0  0  0  0  0
   -3.0480    0.2880    0.6650 O   0  0  0  0  0  0  0  0  0  0  0  0
   -3.6890    1.3770   -1.2330 O   0  0  0  0  0  0  0  0  0  0  0  0
   -4.9640    1.4890   -0.6990 C   0  0  0  0  0  0  0  0  0  0  0  0
   -5.2930    2.6060    0.0310 C   0  0  0  0  0  0  0  0  0  0  0  0
   -4.0720    3.8410    0.2480 Cl  0  0  0  0  0  0  0  0  0  0  0  0
   -6.5630    2.7670    0.5900 C   0  0  0  0  0  0  0  0  0  0  0  0
   -7.4930    1.7570    0.3870 C   0  0  0  0  0  0  0  0  0  0  0  0
   -7.1640    0.6380   -0.3440 C   0  0  0  0  0  0  0  0  0  0  0  0
   -5.9070    0.5150   -0.8780 C   0  0  0  0  0  0  0  0  0  0  0  0
   -5.8330   -0.7600   -1.5970 C   0  0  0  0  0  0  0  0  0  0  0  0
   -6.9990   -1.3650   -1.4930 C   0  0  0  0  0  0  0  0  0  0  0  0
   -7.9580   -0.5620   -0.7000 C   0  0  0  0  0  0  0  0  0  0  0  0
   -0.6760   -1.5160    0.2510 C   0  0  0  0  0  0  0  0  0  0  0  0
   -1.5070   -2.5250   -0.4100 C   0  0  0  0  0  0  0  0  0  0  0  0
    0.4750   -1.8630    1.5660 S   0  0  0  0  0  0  0  0  0  0  0  0
    5.2560    0.4780   -0.2280 N   0  0  0  0  0  0  0  0  0  0  0  0
    4.5700    0.2780   -1.3670 C   0  0  0  0  0  0  0  0  0  0  0  0
    4.5480    1.1940   -2.3520 N   0  0  0  0  0  0  0  0  0  0  0  0
    5.2160    2.3760   -2.2570 C   0  0  0  0  0  0  0  0  0  0  0  0
    5.9250    2.5950   -1.0940 C   0  0  0  0  0  0  0  0  0  0  0  0
    5.9290    1.6360   -0.1020 C   0  0  0  0  0  0  0  0  0  0  0  0
    6.5790    1.8490    0.9510 O   0  0  0  0  0  0  0  0  0  0  0  0
  1  2  1  0
  3  2  1  6
  3  4  1  0
  3 28  1  0
  4  5  2  0
  4  6  1  0
  6  7  1  0
  7  8  1  0
  8  9  2  0
  8 27  1  0
  9 10  1  0
 10 11  1  0
 10 25  2  0
 11 12  1  0
 12 13  2  0
 12 14  1  0
 14 15  1  0
 15 16  2  0
 15 21  1  0
 16 17  1  0
 16 18  1  0
 18 19  2  0
 19 20  1  0
 20 21  2  0
 20 24  1  0
 21 22  1  0
 22 23  2  0
 23 24  1  0
 25 26  1  0
 25 27  1  0
 28 29  1  0
 28 33  1  0
 29 30  2  0
 30 31  1  0
 31 32  2  0
 32 33  1  0
 33 34  2  0
M  END
