
     RDKit          3D

 40 44  0  0  0  0  0  0  0  0999 V2000
   -4.6880   -0.8950   -2.2560 C   0  0  0  0  0  0  0  0  0  0  0  0
   -5.7470    0.0790   -1.8750 C   0  0  0  0  0  0  0  0  0  0  0  0
   -6.4820    0.7530   -2.8270 C   0  0  0  0  0  0  0  0  0  0  0  0
   -7.4760    1.6550   -2.5390 C   0  0  0  0  0  0  0  0  0  0  0  0
   -7.7240    1.8730   -1.1970 C   0  0  0  0  0  0  0  0  0  0  0  0
   -8.8240    2.8200   -0.8200 C   0  0  0  0  0  0  0  0  0  0  0  0
   -8.9260    2.9750    0.6090 N   0  0  0  0  0  0  0  0  0  0  0  0
   -7.0390    1.2450   -0.1880 C   0  0  0  0  0  0  0  0  0  0  0  0
   -6.0300    0.3270   -0.5380 C   0  0  0  0  0  0  0  0  0  0  0  0
   -5.3590   -0.4150    0.4960 C   0  0  2  0  0  0  0  0  0  0  0  0
   -5.7890    0.1900    1.8690 C   0  0  0  0  0  0  0  0  0  0  0  0
   -3.9400   -0.4990    0.5900 N   0  0  0  0  0  0  0  0  0  0  0  0
   -3.4150   -1.8360    0.8510 C   0  0  0  0  0  0  0  0  0  0  0  0
   -4.2700   -2.7910    0.9260 O   0  0  0  0  0  0  0  0  0  0  0  0
   -2.0460   -2.1880    1.0510 C   0  0  0  0  0  0  0  0  0  0  0  0
   -1.7960   -3.4680    1.6000 C   0  0  0  0  0  0  0  0  0  0  0  0
   -0.5660   -3.8840    2.0160 C   0  0  0  0  0  0  0  0  0  0  0  0
    0.5190   -3.0470    1.9150 C   0  0  0  0  0  0  0  0  0  0  0  0
    0.3060   -1.8060    1.3870 C   0  0  0  0  0  0  0  0  0  0  0  0
   -0.9460   -1.3910    0.9640 C   0  0  0  0  0  0  0  0  0  0  0  0
   -1.0700   -0.1380    0.4210 O   0  0  0  0  0  0  0  0  0  0  0  0
   -0.0300    0.7670    0.2970 C   0  0  0  0  0  0  0  0  0  0  0  0
    1.1040    0.2770   -0.4860 C   0  0  0  0  0  0  0  0  0  0  0  0
    1.0830   -0.7300   -1.3920 C   0  0  0  0  0  0  0  0  0  0  0  0
    2.2500   -1.1320   -2.0260 C   0  0  0  0  0  0  0  0  0  0  0  0
    3.4570   -0.5240   -1.7580 C   0  0  0  0  0  0  0  0  0  0  0  0
    3.4900    0.4860   -0.8550 C   0  0  0  0  0  0  0  0  0  0  0  0
    2.3390    0.8940   -0.2200 C   0  0  0  0  0  0  0  0  0  0  0  0
    4.8090    0.9810   -0.7250 N   0  0  0  0  0  0  0  0  0  0  0  0
    5.6630    0.1650   -1.5560 C   0  0  1  0  0  0  0  0  0  0  0  0
    6.7000   -0.4920   -0.6910 C   0  0  1  0  0  0  0  0  0  0  0  0
    6.0940   -1.3740    0.3500 C   0  0  0  0  0  0  0  0  0  0  0  0
    7.4990   -1.2980   -1.5270 O   0  0  0  0  0  0  0  0  0  0  0  0
    7.5550    0.5770   -0.1400 C   0  0  0  0  0  0  0  0  0  0  0  0
    7.5250    0.9100    1.1820 C   0  0  0  0  0  0  0  0  0  0  0  0
    8.3590    1.9230    1.6320 C   0  0  0  0  0  0  0  0  0  0  0  0
    9.2170    2.6040    0.8030 C   0  0  0  0  0  0  0  0  0  0  0  0
    9.2430    2.2570   -0.5430 C   0  0  0  0  0  0  0  0  0  0  0  0
    8.4160    1.2560   -0.9900 C   0  0  0  0  0  0  0  0  0  0  0  0
    4.7810   -0.7380   -2.2310 N   0  0  0  0  0  0  0  0  0  0  0  0
  1  2  1  0
  2  3  2  0
  2  9  1  0
  3  4  1  0
  4  5  2  0
  5  6  1  0
  5  8  1  0
  6  7  1  0
  8  9  2  0
  9 10  1  0
 10 11  1  1
 10 12  1  0
 12 13  1  0
 13 14  2  0
 13 15  1  0
 15 16  2  0
 15 20  1  0
 16 17  1  0
 17 18  2  0
 18 19  1  0
 19 20  2  0
 20 21  1  0
 21 22  1  0
 22 23  1  0
 23 24  2  0
 23 28  1  0
 24 25  1  0
 25 26  2  0
 26 27  1  0
 26 40  1  0
 27 28  2  0
 27 29  1  0
 30 29  1  1
 30 31  1  0
 30 40  1  0
 31 32  1  1
 31 33  1  0
 31 34  1  0
 34 35  2  0
 34 39  1  0
 35 36  1  0
 36 37  2  0
 37 38  1  0
 38 39  2  0
M  END
