
     RDKit          3D

 40 42  0  0  0  0  0  0  0  0999 V2000
   -5.5060   -1.4820    0.4230 C   0  0  0  0  0  0  0  0  0  0  0  0
   -4.9950   -0.7120   -0.7020 C   0  0  0  0  0  0  0  0  0  0  0  0
   -3.8940   -1.1840   -1.5440 C   0  0  0  0  0  0  0  0  0  0  0  0
   -2.6200   -1.4280   -0.9880 N   0  0  0  0  0  0  0  0  0  0  0  0
   -1.8290   -0.3600   -0.4410 C   0  0  0  0  0  0  0  0  0  0  0  0
   -0.7560    0.4550   -0.9090 C   0  0  1  0  0  0  0  0  0  0  0  0
   -1.0110    1.3870   -2.0430 C   0  0  1  0  0  0  0  0  0  0  0  0
   -1.4690    0.7870   -3.3340 C   0  0  0  0  0  0  0  0  0  0  0  0
   -2.0450    2.8210   -1.6480 S   0  0  0  0  0  0  0  0  0  0  0  0
   -1.1280    4.1870   -0.9780 C   0  0  0  0  0  0  0  0  0  0  0  0
   -0.6380    5.1230   -2.0420 C   0  0  0  0  0  0  0  0  0  0  0  0
    0.2030    4.5890   -3.0650 N   0  0  0  0  0  0  0  0  0  0  0  0
   -0.0660    1.0220    0.2760 N   0  0  0  0  0  0  0  0  0  0  0  0
   -0.7700    1.3630    1.4930 C   0  0  0  0  0  0  0  0  0  0  0  0
   -0.9820    2.6810    2.0750 C   0  0  0  0  0  0  0  0  0  0  0  0
   -1.7370    2.2170    3.7360 S   0  0  0  0  0  0  0  0  0  0  0  0
   -2.0630    3.6340    4.7190 C   0  0  0  0  0  0  0  0  0  0  0  0
   -0.7790    1.2160    4.3380 O   0  0  0  0  0  0  0  0  0  0  0  0
    1.2790    0.8900    0.4190 C   0  0  0  0  0  0  0  0  0  0  0  0
    1.6680    1.4170    1.6580 O   0  0  0  0  0  0  0  0  0  0  0  0
    2.5110    0.4160   -0.2040 C   0  0  0  0  0  0  0  0  0  0  0  0
    3.1150   -0.5730    0.7870 C   0  0  0  0  0  0  0  0  0  0  0  0
    4.4670   -1.0680    0.5950 C   0  0  0  0  0  0  0  0  0  0  0  0
    4.7350   -2.1860   -0.1350 C   0  0  0  0  0  0  0  0  0  0  0  0
    6.0440   -2.6910   -0.1640 C   0  0  0  0  0  0  0  0  0  0  0  0
    6.4470   -3.8210   -0.7860 C   0  0  0  0  0  0  0  0  0  0  0  0
    6.8500   -4.9090   -1.3980 N   0  0  0  0  0  0  0  0  0  0  0  0
    7.0780   -2.0170    0.5660 C   0  0  0  0  0  0  0  0  0  0  0  0
    8.3490   -2.2370    0.7200 O   0  0  0  0  0  0  0  0  0  0  0  0
    8.9260   -1.3730    1.4780 C   0  0  0  0  0  0  0  0  0  0  0  0
    7.9280   -0.4650    1.8790 C   0  0  0  0  0  0  0  0  0  0  0  0
    6.7590   -0.8880    1.2850 C   0  0  0  0  0  0  0  0  0  0  0  0
    5.4410   -0.4170    1.2910 C   0  0  0  0  0  0  0  0  0  0  0  0
   -2.0350   -2.7200   -0.6720 C   0  0  0  0  0  0  0  0  0  0  0  0
   -0.7820   -2.6970   -0.3410 O   0  0  0  0  0  0  0  0  0  0  0  0
   -2.6980   -3.9730   -0.6860 C   0  0  0  0  0  0  0  0  0  0  0  0
   -3.8790   -4.4640   -0.8420 C   0  0  0  0  0  0  0  0  0  0  0  0
   -3.9120   -5.8340   -0.7420 C   0  0  0  0  0  0  0  0  0  0  0  0
   -2.6120   -6.1960   -0.4970 C   0  0  0  0  0  0  0  0  0  0  0  0
   -1.8340   -5.1030   -0.4580 O   0  0  0  0  0  0  0  0  0  0  0  0
  1  2  1  0
  2  3  1  0
  3  4  1  0
  4  5  1  0
  4 34  1  0
  6  5  1  1
  6  7  1  0
  6 13  1  0
  7  8  1  6
  7  9  1  0
  9 10  1  0
 10 11  1  0
 11 12  1  0
 13 14  1  0
 13 19  1  0
 14 15  1  0
 15 16  1  0
 16 17  1  1
 16 18  2  0
 19 20  2  0
 19 21  1  0
 21 22  1  0
 22 23  1  0
 23 24  2  0
 23 33  1  0
 24 25  1  0
 25 26  1  0
 25 28  2  0
 26 27  3  0
 28 29  1  0
 28 32  1  0
 29 30  1  0
 30 31  2  0
 31 32  1  0
 32 33  2  0
 34 35  2  0
 34 36  1  0
 36 37  2  0
 36 40  1  0
 37 38  1  0
 38 39  2  0
 39 40  1  0
M  END
