
     RDKit          3D

 40 44  0  0  0  0  0  0  0  0999 V2000
   -5.8310   -0.2730    5.5100 C   0  0  0  0  0  0  0  0  0  0  0  0
   -5.0930   -0.1050    4.2130 C   0  0  0  0  0  0  0  0  0  0  0  0
   -4.0980   -0.9630    3.8170 C   0  0  0  0  0  0  0  0  0  0  0  0
   -3.4550   -0.7570    2.6130 C   0  0  0  0  0  0  0  0  0  0  0  0
   -3.7760    0.2900    1.7810 C   0  0  0  0  0  0  0  0  0  0  0  0
   -3.0830    0.4990    0.5020 C   0  0  1  0  0  0  0  0  0  0  0  0
   -1.6040    0.1790    0.5930 C   0  0  0  0  0  0  0  0  0  0  0  0
   -0.9800    0.4250   -0.7710 C   0  0  0  0  0  0  0  0  0  0  0  0
   -1.6790    0.8240   -1.7160 O   0  0  0  0  0  0  0  0  0  0  0  0
    0.3880    0.1900   -0.9200 N   0  0  0  0  0  0  0  0  0  0  0  0
    1.1160    0.3650   -2.1230 C   0  0  0  0  0  0  0  0  0  0  0  0
    0.5220    0.5910   -3.3380 C   0  0  0  0  0  0  0  0  0  0  0  0
    1.2250    0.7180   -4.5390 C   0  0  0  0  0  0  0  0  0  0  0  0
    2.5870    0.6130   -4.5360 C   0  0  0  0  0  0  0  0  0  0  0  0
    3.2230    0.3820   -3.3110 C   0  0  0  0  0  0  0  0  0  0  0  0
    2.5230    0.2600   -2.1340 C   0  0  0  0  0  0  0  0  0  0  0  0
    3.2130    0.0760   -0.9200 N   0  0  0  0  0  0  0  0  0  0  0  0
    4.5850   -0.1890   -0.7310 C   0  0  0  0  0  0  0  0  0  0  0  0
    5.3370   -0.2900   -1.7040 O   0  0  0  0  0  0  0  0  0  0  0  0
    5.1780   -0.3560    0.6330 C   0  0  1  0  0  0  0  0  0  0  0  0
    6.6310   -0.6320    0.5500 C   0  0  0  0  0  0  0  0  0  0  0  0
    7.4410   -1.3400   -0.3280 C   0  0  0  0  0  0  0  0  0  0  0  0
    8.8040   -1.4220   -0.1390 C   0  0  0  0  0  0  0  0  0  0  0  0
    9.3770   -0.7870    0.9490 C   0  0  0  0  0  0  0  0  0  0  0  0
    8.6100   -0.0750    1.8440 C   0  0  0  0  0  0  0  0  0  0  0  0
    7.2460   -0.0160    1.6190 C   0  0  0  0  0  0  0  0  0  0  0  0
    6.2240    0.6900    2.4490 C   0  0  0  0  0  0  0  0  0  0  0  0
    5.1060    0.9000    1.4350 C   0  0  2  0  0  0  0  0  0  0  0  0
    3.8790    1.0600    2.1590 N   0  0  0  0  0  0  0  0  0  0  0  0
   -3.7350   -0.2240   -0.6070 C   0  0  0  0  0  0  0  0  0  0  0  0
   -3.3550   -1.4960   -0.9540 C   0  0  0  0  0  0  0  0  0  0  0  0
   -3.9810   -2.1730   -2.0070 C   0  0  0  0  0  0  0  0  0  0  0  0
   -4.9940   -1.5590   -2.7100 C   0  0  0  0  0  0  0  0  0  0  0  0
   -5.6370   -2.2220   -3.7720 O   0  0  0  0  0  0  0  0  0  0  0  0
   -5.3820   -0.2890   -2.3720 C   0  0  0  0  0  0  0  0  0  0  0  0
   -6.4770    0.3670   -3.1360 C   0  0  0  0  0  0  0  0  0  0  0  0
   -6.7460    1.7020   -2.6340 N   0  0  0  0  0  0  0  0  0  0  0  0
   -4.7480    0.3720   -1.3210 C   0  0  0  0  0  0  0  0  0  0  0  0
   -4.7730    1.1420    2.1870 C   0  0  0  0  0  0  0  0  0  0  0  0
   -5.4380    0.9520    3.4030 C   0  0  0  0  0  0  0  0  0  0  0  0
  1  2  1  0
  2  3  2  0
  2 40  1  0
  3  4  1  0
  4  5  2  0
  5  6  1  0
  5 39  1  0
  6  7  1  1
  6 30  1  0
  7  8  1  0
  8  9  2  0
  8 10  1  0
 10 11  1  0
 11 12  2  0
 11 16  1  0
 12 13  1  0
 13 14  2  0
 14 15  1  0
 15 16  2  0
 16 17  1  0
 17 18  1  0
 18 19  2  0
 20 18  1  6
 20 21  1  0
 20 28  1  0
 21 22  2  0
 21 26  1  0
 22 23  1  0
 23 24  2  0
 24 25  1  0
 25 26  2  0
 26 27  1  0
 27 28  1  0
 28 29  1  1
 30 31  2  0
 30 38  1  0
 31 32  1  0
 32 33  2  0
 33 34  1  0
 33 35  1  0
 35 36  1  0
 35 38  2  0
 36 37  1  0
 39 40  2  0
M  END
