
     RDKit          3D

 40 44  0  0  0  0  0  0  0  0999 V2000
    6.4320    2.5740   -0.5990 C   0  0  0  0  0  0  0  0  0  0  0  0
    7.1090    1.2760   -0.6660 C   0  0  0  0  0  0  0  0  0  0  0  0
    6.5880    0.1790   -0.1700 C   0  0  0  0  0  0  0  0  0  0  0  0
    5.2890    0.2120    0.4840 C   0  0  0  0  0  0  0  0  0  0  0  0
    4.3470   -0.7810    0.1860 C   0  0  0  0  0  0  0  0  0  0  0  0
    3.1080   -0.8010    0.7830 C   0  0  0  0  0  0  0  0  0  0  0  0
    2.7310    0.1550    1.7050 C   0  0  0  0  0  0  0  0  0  0  0  0
    1.3640    0.1090    2.3130 C   0  0  2  0  0  0  0  0  0  0  0  0
    1.0800   -1.1560    3.0420 C   0  0  0  0  0  0  0  0  0  0  0  0
    0.2500   -2.1240    2.2560 C   0  0  0  0  0  0  0  0  0  0  0  0
    0.5430   -3.4670    2.2420 C   0  0  0  0  0  0  0  0  0  0  0  0
   -0.2610   -4.3020    1.4970 C   0  0  0  0  0  0  0  0  0  0  0  0
   -1.3430   -3.8070    0.7750 C   0  0  0  0  0  0  0  0  0  0  0  0
   -1.5890   -2.4480    0.8260 C   0  0  0  0  0  0  0  0  0  0  0  0
   -0.8150   -1.5810    1.5550 C   0  0  0  0  0  0  0  0  0  0  0  0
   -0.9920   -0.1340    1.6780 C   0  0  2  0  0  0  0  0  0  0  0  0
   -2.1090    0.4800    0.9770 C   0  0  0  0  0  0  0  0  0  0  0  0
   -3.0130    1.0600    1.6780 O   0  0  0  0  0  0  0  0  0  0  0  0
   -2.3350    0.5330   -0.4190 N   0  0  0  0  0  0  0  0  0  0  0  0
   -3.4190    1.1630   -1.0670 C   0  0  0  0  0  0  0  0  0  0  0  0
   -3.3780    2.5590   -1.2800 C   0  0  0  0  0  0  0  0  0  0  0  0
   -2.1890    3.2730   -0.7530 C   0  0  0  0  0  0  0  0  0  0  0  0
   -4.3740    3.2350   -1.9390 C   0  0  0  0  0  0  0  0  0  0  0  0
   -5.4700    2.5560   -2.4230 C   0  0  0  0  0  0  0  0  0  0  0  0
   -6.5250    3.3230   -3.1300 C   0  0  0  0  0  0  0  0  0  0  0  0
   -5.5350    1.2040   -2.2310 C   0  0  0  0  0  0  0  0  0  0  0  0
   -6.6150    0.4940   -2.7010 O   0  0  0  0  0  0  0  0  0  0  0  0
   -4.5010    0.5120   -1.5490 C   0  0  0  0  0  0  0  0  0  0  0  0
   -4.6640   -0.9540   -1.4000 C   0  0  0  0  0  0  0  0  0  0  0  0
   -5.1780   -1.3260   -0.0360 C   0  0  0  0  0  0  0  0  0  0  0  0
   -5.3350   -2.8180    0.0790 C   0  0  0  0  0  0  0  0  0  0  0  0
   -5.8320   -3.4300    1.2540 N   0  0  0  0  0  0  0  0  0  0  0  0
   -5.0220   -3.5740   -0.8840 O   0  0  0  0  0  0  0  0  0  0  0  0
    0.3390    0.4890    1.2720 C   0  0  0  0  0  0  0  0  0  0  0  0
    3.6450    1.1390    2.0110 C   0  0  0  0  0  0  0  0  0  0  0  0
    4.9020    1.1580    1.4030 C   0  0  0  0  0  0  0  0  0  0  0  0
    7.3240   -1.0630   -0.2820 N   0  0  0  0  0  0  0  0  0  0  0  0
    8.5910   -1.1320   -0.9120 C   0  0  0  0  0  0  0  0  0  0  0  0
    9.1030   -0.0210   -1.4060 C   0  0  0  0  0  0  0  0  0  0  0  0
    8.3800    1.2090   -1.2980 N   0  0  0  0  0  0  0  0  0  0  0  0
  1  2  1  0
  2  3  2  0
  2 40  1  0
  3  4  1  0
  3 37  1  0
  4  5  2  0
  4 36  1  0
  5  6  1  0
  6  7  2  0
  8  7  1  6
  7 35  1  0
  8  9  1  0
  8 34  1  0
  9 10  1  0
 10 11  2  0
 10 15  1  0
 11 12  1  0
 12 13  2  0
 13 14  1  0
 14 15  2  0
 15 16  1  0
 16 17  1  6
 16 34  1  0
 17 18  2  0
 17 19  1  0
 19 20  1  0
 20 21  2  0
 20 28  1  0
 21 22  1  0
 21 23  1  0
 23 24  2  0
 24 25  1  0
 24 26  1  0
 26 27  1  0
 26 28  2  0
 28 29  1  0
 29 30  1  0
 30 31  1  0
 31 32  1  0
 31 33  2  0
 35 36  2  0
 37 38  1  0
 38 39  2  0
 39 40  1  0
M  END
