
     RDKit          3D

 40 42  0  0  0  0  0  0  0  0999 V2000
   -6.7150    3.3340    1.4950 C   0  0  0  0  0  0  0  0  0  0  0  0
   -7.1720    1.8940    1.5490 C   0  0  0  0  0  0  0  0  0  0  0  0
   -6.1300    1.1060    0.9550 O   0  0  0  0  0  0  0  0  0  0  0  0
   -4.8680    1.1410    1.4850 C   0  0  0  0  0  0  0  0  0  0  0  0
   -4.6980    1.9040    2.5030 O   0  0  0  0  0  0  0  0  0  0  0  0
   -3.6870    0.3620    0.9720 C   0  0  0  0  0  0  0  0  0  0  0  0
   -2.7210    1.2350    0.2500 C   0  0  2  0  0  0  0  0  0  0  0  0
   -3.1820    1.9570   -0.9120 C   0  0  2  0  0  0  0  0  0  0  0  0
   -4.8660    1.7730   -1.4260 S   0  0  0  0  0  0  0  0  0  0  0  0
   -5.3490    0.4100   -2.4130 C   0  0  0  0  0  0  0  0  0  0  0  0
   -5.3290   -0.9490   -1.8170 C   0  0  0  0  0  0  0  0  0  0  0  0
   -2.2860    1.4560   -2.0390 C   0  0  0  0  0  0  0  0  0  0  0  0
   -2.3450    1.7790   -3.3670 C   0  0  0  0  0  0  0  0  0  0  0  0
   -1.4580    1.1420   -4.2040 C   0  0  0  0  0  0  0  0  0  0  0  0
   -0.5510    0.2260   -3.7590 C   0  0  0  0  0  0  0  0  0  0  0  0
   -0.5100   -0.0830   -2.4090 C   0  0  0  0  0  0  0  0  0  0  0  0
   -1.4050    0.5550   -1.5270 C   0  0  0  0  0  0  0  0  0  0  0  0
   -1.5300    0.4480   -0.1090 N   0  0  0  0  0  0  0  0  0  0  0  0
   -0.6990   -0.2140    0.8260 C   0  0  0  0  0  0  0  0  0  0  0  0
   -1.0140   -0.1350    2.0620 O   0  0  0  0  0  0  0  0  0  0  0  0
    0.5020   -0.9870    0.4950 C   0  0  0  0  0  0  0  0  0  0  0  0
    1.2370   -1.4110    1.7560 C   0  0  0  0  0  0  0  0  0  0  0  0
    2.4560   -2.1840    1.5340 C   0  0  0  0  0  0  0  0  0  0  0  0
    2.6550   -3.5260    1.5340 C   0  0  0  0  0  0  0  0  0  0  0  0
    1.7940   -4.7000    1.7240 C   0  0  2  0  0  0  0  0  0  0  0  0
    2.6660   -5.8640    2.3080 C   0  0  0  0  0  0  0  0  0  0  0  0
    1.4260   -5.3180    0.4020 C   0  0  0  0  0  0  0  0  0  0  0  0
    0.6590   -4.5810   -0.5900 C   0  0  0  0  0  0  0  0  0  0  0  0
   -0.6000   -4.2730   -0.0390 O   0  0  0  0  0  0  0  0  0  0  0  0
    4.0040   -3.6960    1.2770 N   0  0  0  0  0  0  0  0  0  0  0  0
    4.5900   -2.5310    1.1300 N   0  0  0  0  0  0  0  0  0  0  0  0
    3.7030   -1.5400    1.2730 C   0  0  0  0  0  0  0  0  0  0  0  0
    3.8660   -0.1470    1.1800 N   0  0  0  0  0  0  0  0  0  0  0  0
    5.0380    0.5850    0.9390 C   0  0  0  0  0  0  0  0  0  0  0  0
    6.4670   -0.1380    0.7290 S   0  0  0  0  0  0  0  0  0  0  0  0
    5.0420    1.9820    0.8640 O   0  0  0  0  0  0  0  0  0  0  0  0
    5.5240    2.6710   -0.2730 C   0  0  0  0  0  0  0  0  0  0  0  0
    5.3820    4.1470   -0.0560 C   0  0  2  0  0  0  0  0  0  0  0  0
    5.9100    4.8360   -1.3020 C   0  0  0  0  0  0  0  0  0  0  0  0
    6.0170    4.6580    1.1970 C   0  0  0  0  0  0  0  0  0  0  0  0
  1  2  1  0
  2  3  1  0
  3  4  1  0
  4  5  2  0
  4  6  1  0
  7  6  1  6
  7  8  1  0
  7 18  1  0
  8  9  1  6
  8 12  1  0
  9 10  1  0
 10 11  1  0
 12 13  2  0
 12 17  1  0
 13 14  1  0
 14 15  2  0
 15 16  1  0
 16 17  2  0
 17 18  1  0
 18 19  1  0
 19 20  2  0
 19 21  1  0
 21 22  1  0
 22 23  1  0
 23 24  1  0
 23 32  2  0
 24 25  1  0
 24 30  2  0
 25 26  1  1
 25 27  1  0
 27 28  1  0
 28 29  1  0
 30 31  1  0
 31 32  1  0
 32 33  1  0
 33 34  1  0
 34 35  2  0
 34 36  1  0
 36 37  1  0
 37 38  1  0
 38 39  1  6
 38 40  1  0
M  END
