
     RDKit          3D

 40 44  0  0  0  0  0  0  0  0999 V2000
    8.3190    2.7780    2.6350 C   0  0  0  0  0  0  0  0  0  0  0  0
    7.2990    2.6340    1.5480 C   0  0  0  0  0  0  0  0  0  0  0  0
    6.6560    1.4160    1.2540 C   0  0  0  0  0  0  0  0  0  0  0  0
    5.7600    1.6090    0.2160 C   0  0  0  0  0  0  0  0  0  0  0  0
    4.8540    0.7860   -0.4450 N   0  0  0  0  0  0  0  0  0  0  0  0
    4.6180   -0.6030   -0.2840 C   0  0  0  0  0  0  0  0  0  0  0  0
    5.2990   -1.2330    0.5300 O   0  0  0  0  0  0  0  0  0  0  0  0
    3.5430   -1.2110   -1.1150 C   0  0  0  0  0  0  0  0  0  0  0  0
    3.6520   -1.3780   -2.4460 C   0  0  0  0  0  0  0  0  0  0  0  0
    2.5670   -1.8080   -3.2340 C   0  0  0  0  0  0  0  0  0  0  0  0
    1.4050   -2.0360   -2.5250 C   0  0  0  0  0  0  0  0  0  0  0  0
    0.2480   -2.4250   -3.2410 C   0  0  0  0  0  0  0  0  0  0  0  0
   -0.9190   -2.6200   -2.5480 C   0  0  0  0  0  0  0  0  0  0  0  0
   -1.0700   -2.4690   -1.1970 C   0  0  0  0  0  0  0  0  0  0  0  0
   -2.2660   -2.6880   -0.5330 N   0  0  0  0  0  0  0  0  0  0  0  0
   -2.6960   -2.1040    0.6920 C   0  0  1  0  0  0  0  0  0  0  0  0
   -3.1500   -0.6950    0.4070 C   0  0  0  0  0  0  0  0  0  0  0  0
   -2.8400    0.3770    1.2180 C   0  0  0  0  0  0  0  0  0  0  0  0
   -3.3190    1.6350    0.9330 C   0  0  0  0  0  0  0  0  0  0  0  0
   -4.1180    1.9100   -0.1470 C   0  0  0  0  0  0  0  0  0  0  0  0
   -4.4400    0.8420   -0.9780 C   0  0  0  0  0  0  0  0  0  0  0  0
   -3.9620   -0.4160   -0.6960 C   0  0  0  0  0  0  0  0  0  0  0  0
   -5.3130    1.3660   -2.0720 C   0  0  0  0  0  0  0  0  0  0  0  0
   -6.0240    2.4750   -1.3150 C   0  0  0  0  0  0  0  0  0  0  0  0
   -4.7920    3.1470   -0.6640 C   0  0  0  0  0  0  0  0  0  0  0  0
   -3.6350   -2.8670    1.5470 C   0  0  1  0  0  0  0  0  0  0  0  0
   -3.0380   -4.1780    1.9690 C   0  0  0  0  0  0  0  0  0  0  0  0
   -3.7750   -2.0400    2.7870 C   0  0  0  0  0  0  0  0  0  0  0  0
   -3.9040   -1.3700    3.7810 N   0  0  0  0  0  0  0  0  0  0  0  0
   -5.0120   -3.0820    1.0270 C   0  0  1  0  0  0  0  0  0  0  0  0
   -5.8570   -3.8970    2.0300 C   0  0  0  0  0  0  0  0  0  0  0  0
   -5.7170   -1.8870    0.8680 O   0  0  0  0  0  0  0  0  0  0  0  0
    0.0740   -2.0860   -0.5160 C   0  0  0  0  0  0  0  0  0  0  0  0
    1.2580   -1.8860   -1.1920 C   0  0  0  0  0  0  0  0  0  0  0  0
    2.3740   -1.4570   -0.4540 C   0  0  0  0  0  0  0  0  0  0  0  0
    5.8840    2.9750   -0.1060 C   0  0  0  0  0  0  0  0  0  0  0  0
    5.1460    3.7030   -1.1410 C   0  0  2  0  0  0  0  0  0  0  0  0
    5.4490    5.1590   -1.2580 C   0  0  0  0  0  0  0  0  0  0  0  0
    3.7630    3.5360   -1.0320 O   0  0  0  0  0  0  0  0  0  0  0  0
    6.8110    3.5220    0.7150 N   0  0  0  0  0  0  0  0  0  0  0  0
  1  2  1  0
  2  3  2  0
  2 40  1  0
  3  4  1  0
  4  5  1  0
  4 36  2  0
  5  6  1  0
  6  7  2  0
  6  8  1  0
  8  9  2  0
  8 35  1  0
  9 10  1  0
 10 11  2  0
 11 12  1  0
 11 34  1  0
 12 13  2  0
 13 14  1  0
 14 15  1  0
 14 33  2  0
 16 15  1  6
 16 17  1  0
 16 26  1  0
 17 18  2  0
 17 22  1  0
 18 19  1  0
 19 20  2  0
 20 21  1  0
 20 25  1  0
 21 22  2  0
 21 23  1  0
 23 24  1  0
 24 25  1  0
 26 27  1  1
 26 28  1  0
 26 30  1  0
 28 29  3  0
 30 31  1  1
 30 32  1  0
 33 34  1  0
 34 35  2  0
 36 37  1  0
 36 40  1  0
 37 38  1  1
 37 39  1  0
M  END
