
     RDKit          3D

 40 42  0  0  0  0  0  0  0  0999 V2000
   12.4890   -1.7150    0.5140 C   0  0  0  0  0  0  0  0  0  0  0  0
   12.1550   -2.3780   -0.5400 C   0  0  0  0  0  0  0  0  0  0  0  0
   11.1490   -2.4040   -1.5380 C   0  0  0  0  0  0  0  0  0  0  0  0
   10.1430   -1.3240   -1.3620 C   0  0  0  0  0  0  0  0  0  0  0  0
   10.1500   -0.0220   -1.3310 N   0  0  0  0  0  0  0  0  0  0  0  0
    9.0770    0.7050   -1.2470 C   0  0  0  0  0  0  0  0  0  0  0  0
    9.1010    2.2250   -1.1900 C   0  0  0  0  0  0  0  0  0  0  0  0
    7.8470    0.0790   -1.1860 C   0  0  0  0  0  0  0  0  0  0  0  0
    6.5090    0.4070   -1.1380 C   0  0  0  0  0  0  0  0  0  0  0  0
    5.6960   -0.6740   -1.1300 O   0  0  0  0  0  0  0  0  0  0  0  0
    5.7640    1.5740   -1.1050 N   0  0  0  0  0  0  0  0  0  0  0  0
    4.3130    1.5050   -1.1220 C   0  0  0  0  0  0  0  0  0  0  0  0
    3.8630    0.7860    0.1260 C   0  0  0  0  0  0  0  0  0  0  0  0
    4.6510    0.5240    1.0160 O   0  0  0  0  0  0  0  0  0  0  0  0
    2.5230    0.4600    0.1620 N   0  0  0  0  0  0  0  0  0  0  0  0
    1.7070   -0.1510    1.2180 C   0  0  0  0  0  0  0  0  0  0  0  0
    0.3710   -0.3100    0.4780 C   0  0  0  0  0  0  0  0  0  0  0  0
    0.2490   -1.0790   -0.6470 C   0  0  0  0  0  0  0  0  0  0  0  0
   -0.8950   -1.2030   -1.3910 C   0  0  0  0  0  0  0  0  0  0  0  0
   -2.0100   -0.4610   -0.9250 C   0  0  0  0  0  0  0  0  0  0  0  0
   -1.9160    0.3040    0.1790 C   0  0  0  0  0  0  0  0  0  0  0  0
   -2.9530    1.0770    0.6600 O   0  0  0  0  0  0  0  0  0  0  0  0
   -4.1740    1.2450    0.0560 C   0  0  0  0  0  0  0  0  0  0  0  0
   -5.0460    0.0780   -0.0520 C   0  0  0  0  0  0  0  0  0  0  0  0
   -4.6880   -1.0170    0.3980 O   0  0  0  0  0  0  0  0  0  0  0  0
   -6.3210    0.2430   -0.6740 N   0  0  0  0  0  0  0  0  0  0  0  0
   -7.2820   -0.8070   -0.8110 C   0  0  1  0  0  0  0  0  0  0  0  0
   -6.7070   -2.1940   -1.0290 C   0  0  0  0  0  0  0  0  0  0  0  0
   -7.8160   -3.0830   -1.4580 C   0  0  0  0  0  0  0  0  0  0  0  0
   -9.1180   -2.9320   -0.7780 C   0  0  0  0  0  0  0  0  0  0  0  0
   -9.3760   -1.6970    0.0090 C   0  0  0  0  0  0  0  0  0  0  0  0
   -8.1520   -0.9350    0.3980 C   0  0  2  0  0  0  0  0  0  0  0  0
   -8.5210    0.5840    1.2540 S   0  0  0  0  0  0  0  0  0  0  0  0
   -9.5310    1.7220    0.3560 C   0  0  0  0  0  0  0  0  0  0  0  0
   -0.7190    0.3850    0.9040 C   0  0  0  0  0  0  0  0  0  0  0  0
   -0.6740    1.1340    1.9990 O   0  0  0  0  0  0  0  0  0  0  0  0
   -0.8780    1.2310    3.3200 C   0  0  0  0  0  0  0  0  0  0  0  0
   -0.4150    2.6680    3.7180 C   0  0  0  0  0  0  0  0  0  0  0  0
   -1.1740    3.6750    2.9130 C   0  0  0  0  0  0  0  0  0  0  0  0
    8.4100   -1.6720   -1.2560 S   0  0  0  0  0  0  0  0  0  0  0  0
  1  2  2  0
  2  3  1  0
  3  4  1  0
  4  5  2  0
  4 40  1  0
  5  6  1  0
  6  7  1  0
  6  8  2  0
  8  9  1  0
  8 40  1  0
  9 10  2  0
  9 11  1  0
 11 12  1  0
 12 13  1  0
 13 14  2  0
 13 15  1  0
 15 16  1  0
 16 17  1  0
 17 18  2  0
 17 35  1  0
 18 19  1  0
 19 20  2  0
 20 21  1  0
 21 22  1  0
 21 35  2  0
 22 23  1  0
 23 24  1  0
 24 25  2  0
 24 26  1  0
 27 26  1  1
 27 28  1  0
 27 32  1  0
 28 29  1  0
 29 30  1  0
 30 31  1  0
 31 32  1  0
 32 33  1  6
 33 34  1  0
 35 36  1  0
 36 37  1  0
 37 38  1  0
 38 39  1  0
M  END
