
     RDKit          3D

 40 44  0  0  0  0  0  0  0  0999 V2000
   -5.6290   -1.7030   -5.0700 C   0  0  0  0  0  0  0  0  0  0  0  0
   -5.1830   -1.4570   -3.8430 C   0  0  0  0  0  0  0  0  0  0  0  0
   -5.2440   -0.1530   -3.2710 N   0  0  0  0  0  0  0  0  0  0  0  0
   -4.7600    0.1000   -1.9440 C   0  0  0  0  0  0  0  0  0  0  0  0
   -4.2420   -0.8310   -1.1910 C   0  0  0  0  0  0  0  0  0  0  0  0
   -3.7490   -0.5450    0.1760 C   0  0  1  0  0  0  0  0  0  0  0  0
   -2.4010   -0.7990    0.3400 O   0  0  0  0  0  0  0  0  0  0  0  0
   -1.7400   -1.5720    1.2400 C   0  0  0  0  0  0  0  0  0  0  0  0
   -2.4140   -2.2740    2.2040 C   0  0  0  0  0  0  0  0  0  0  0  0
   -1.6490   -3.0460    3.0900 C   0  0  0  0  0  0  0  0  0  0  0  0
   -0.2790   -3.0860    2.9820 C   0  0  0  0  0  0  0  0  0  0  0  0
    0.4530   -3.8710    3.8880 N   0  0  0  0  0  0  0  0  0  0  0  0
    0.4090   -2.3780    2.0100 C   0  0  0  0  0  0  0  0  0  0  0  0
    1.8070   -2.5040    1.9460 N   0  0  0  0  0  0  0  0  0  0  0  0
    2.7070   -1.7340    1.1610 C   0  0  0  0  0  0  0  0  0  0  0  0
    3.8340   -2.3260    0.5880 C   0  0  0  0  0  0  0  0  0  0  0  0
    4.7660   -1.6550   -0.1480 C   0  0  0  0  0  0  0  0  0  0  0  0
    4.6080   -0.3040   -0.3540 C   0  0  0  0  0  0  0  0  0  0  0  0
    3.5000    0.3300    0.1970 C   0  0  0  0  0  0  0  0  0  0  0  0
    2.5840   -0.3800    0.9330 C   0  0  0  0  0  0  0  0  0  0  0  0
    3.1420    1.7920    0.0830 C   0  0  0  0  0  0  0  0  0  0  0  0
    3.5070    2.2430   -1.3380 C   0  0  0  0  0  0  0  0  0  0  0  0
    3.6070    1.0700   -2.2890 C   0  0  0  0  0  0  0  0  0  0  0  0
    5.0500    0.6240   -2.5160 C   0  0  0  0  0  0  0  0  0  0  0  0
    5.6420    0.3640   -1.1580 C   0  0  2  0  0  0  0  0  0  0  0  0
    6.9950   -0.2320   -1.1430 C   0  0  0  0  0  0  0  0  0  0  0  0
    7.5600   -0.2520    0.2650 C   0  0  0  0  0  0  0  0  0  0  0  0
    7.6570    1.0440    0.7810 O   0  0  0  0  0  0  0  0  0  0  0  0
   -0.3350   -1.6230    1.1420 C   0  0  0  0  0  0  0  0  0  0  0  0
   -3.9470    0.9160    0.5050 C   0  0  0  0  0  0  0  0  0  0  0  0
   -4.9660    1.3550    1.2940 C   0  0  0  0  0  0  0  0  0  0  0  0
   -5.0650    2.7150    1.5390 C   0  0  0  0  0  0  0  0  0  0  0  0
   -6.1790    3.2260    2.4050 C   0  0  0  0  0  0  0  0  0  0  0  0
   -4.1480    3.5920    0.9900 C   0  0  0  0  0  0  0  0  0  0  0  0
   -3.1320    3.1430    0.2020 C   0  0  0  0  0  0  0  0  0  0  0  0
   -2.1380    4.0770   -0.3950 C   0  0  0  0  0  0  0  0  0  0  0  0
   -3.0260    1.7900   -0.0470 C   0  0  0  0  0  0  0  0  0  0  0  0
   -4.1520   -2.1840   -1.7170 C   0  0  0  0  0  0  0  0  0  0  0  0
   -3.6690   -3.1520   -1.0720 O   0  0  0  0  0  0  0  0  0  0  0  0
   -4.6210   -2.4960   -3.0380 N   0  0  0  0  0  0  0  0  0  0  0  0
  1  2  2  0
  2  3  1  0
  2 40  1  0
  3  4  1  0
  4  5  2  0
  5  6  1  0
  5 38  1  0
  6  7  1  6
  6 30  1  0
  7  8  1  0
  8  9  2  0
  8 29  1  0
  9 10  1  0
 10 11  2  0
 11 12  1  0
 11 13  1  0
 13 14  1  0
 13 29  2  0
 14 15  1  0
 15 16  2  0
 15 20  1  0
 16 17  1  0
 17 18  2  0
 18 19  1  0
 18 25  1  0
 19 20  2  0
 19 21  1  0
 21 22  1  0
 22 23  1  0
 23 24  1  0
 24 25  1  0
 25 26  1  6
 26 27  1  0
 27 28  1  0
 30 31  2  0
 30 37  1  0
 31 32  1  0
 32 33  1  0
 32 34  2  0
 34 35  1  0
 35 36  1  0
 35 37  2  0
 38 39  2  0
 38 40  1  0
M  END
