
     RDKit          3D

 40 43  0  0  0  0  0  0  0  0999 V2000
   -5.6510    4.0110    1.1130 C   0  0  0  0  0  0  0  0  0  0  0  0
   -5.0410    4.2300   -0.2950 C   0  0  2  0  0  0  0  0  0  0  0  0
   -6.0860    4.8360   -1.1060 C   0  0  0  0  0  0  0  0  0  0  0  0
   -6.5300    5.9890   -0.7570 O   0  0  0  0  0  0  0  0  0  0  0  0
   -6.6340    4.1850   -2.2830 C   0  0  0  0  0  0  0  0  0  0  0  0
   -6.1930    3.0150   -2.6790 C   0  0  0  0  0  0  0  0  0  0  0  0
   -5.1300    2.4000   -1.8800 C   0  0  0  0  0  0  0  0  0  0  0  0
   -4.5980    2.9250   -0.8110 C   0  0  0  0  0  0  0  0  0  0  0  0
   -3.5070    2.2140   -0.0940 C   0  0  0  0  0  0  0  0  0  0  0  0
   -3.0040    2.7500    0.9540 O   0  0  0  0  0  0  0  0  0  0  0  0
   -2.9660    0.9760   -0.4740 N   0  0  0  0  0  0  0  0  0  0  0  0
   -1.8910    0.3720    0.3120 C   0  0  1  0  0  0  0  0  0  0  0  0
   -2.2980   -0.9950    0.8100 C   0  0  0  0  0  0  0  0  0  0  0  0
   -2.6700   -2.0980   -0.5800 S   0  0  0  0  0  0  0  0  0  0  0  0
   -3.1030   -3.7010    0.0300 C   0  0  0  0  0  0  0  0  0  0  0  0
   -4.4040   -4.0620    0.3400 C   0  0  0  0  0  0  0  0  0  0  0  0
   -4.6830   -5.3430    0.8140 C   0  0  0  0  0  0  0  0  0  0  0  0
   -3.6900   -6.2850    0.9910 C   0  0  0  0  0  0  0  0  0  0  0  0
   -2.3920   -5.9060    0.6770 C   0  0  0  0  0  0  0  0  0  0  0  0
   -2.1330   -4.6510    0.2140 C   0  0  0  0  0  0  0  0  0  0  0  0
   -0.6520    0.3060   -0.5510 C   0  0  2  0  0  0  0  0  0  0  0  0
   -0.8730   -0.4690   -1.6720 O   0  0  0  0  0  0  0  0  0  0  0  0
    0.5580   -0.1330    0.2610 C   0  0  0  0  0  0  0  0  0  0  0  0
    1.7790   -0.0800   -0.4610 N   0  0  2  0  0  0  0  0  0  0  0  0
    1.7120   -0.7160   -1.7740 C   0  0  0  0  0  0  0  0  0  0  0  0
    3.0840   -1.1480   -2.2450 C   0  0  1  0  0  0  0  0  0  0  0  0
    3.0440   -1.3010   -3.7560 C   0  0  0  0  0  0  0  0  0  0  0  0
    3.1940    0.0270   -4.4550 C   0  0  0  0  0  0  0  0  0  0  0  0
    4.5070    0.6340   -4.0120 C   0  0  0  0  0  0  0  0  0  0  0  0
    4.3030    1.0240   -2.5440 C   0  0  0  0  0  0  0  0  0  0  0  0
    4.1890   -0.2780   -1.7880 C   0  0  1  0  0  0  0  0  0  0  0  0
    4.1420    0.0380   -0.3250 C   0  0  0  0  0  0  0  0  0  0  0  0
    2.8900   -0.5540    0.2850 C   0  0  1  0  0  0  0  0  0  0  0  0
    2.8830   -0.3650    1.7170 C   0  0  0  0  0  0  0  0  0  0  0  0
    1.8150   -0.5300    2.3930 O   0  0  0  0  0  0  0  0  0  0  0  0
    4.0100    0.0090    2.4940 N   0  0  0  0  0  0  0  0  0  0  0  0
    3.9140    0.1780    3.9530 C   0  0  2  0  0  0  0  0  0  0  0  0
    3.4900   -1.1210    4.5620 C   0  0  0  0  0  0  0  0  0  0  0  0
    2.9260    1.2700    4.2990 C   0  0  0  0  0  0  0  0  0  0  0  0
    5.2570    0.5620    4.4960 C   0  0  0  0  0  0  0  0  0  0  0  0
  2  1  1  1
  2  3  1  0
  2  8  1  0
  3  4  2  0
  3  5  1  0
  5  6  2  0
  6  7  1  0
  7  8  2  0
  8  9  1  0
  9 10  2  0
  9 11  1  0
 11 12  1  0
 12 13  1  6
 12 21  1  0
 13 14  1  0
 14 15  1  0
 15 16  2  0
 15 20  1  0
 16 17  1  0
 17 18  2  0
 18 19  1  0
 19 20  2  0
 21 22  1  6
 21 23  1  0
 24 23  1  1
 24 25  1  0
 24 33  1  0
 26 25  1  6
 26 27  1  0
 26 31  1  0
 27 28  1  0
 28 29  1  0
 29 30  1  0
 31 30  1  6
 31 32  1  0
 32 33  1  0
 33 34  1  1
 34 35  2  0
 34 36  1  0
 36 37  1  0
 37 38  1  1
 37 39  1  0
 37 40  1  0
M  CHG  1  24   1
M  END
