
     RDKit          3D

 48 54  0  0  0  0  0  0  0  0999 V2000
    4.2330   -0.5850   -3.1750 C   0  0  0  0  0  0  0  0  0  0  0  0
    3.2340   -0.7650   -2.0110 C   0  0  0  0  0  0  0  0  0  0  0  0
    3.2000    0.4380   -1.2800 N   0  0  1  0  0  0  0  0  0  0  0  0
    2.0360    1.2000   -1.7090 C   0  0  0  0  0  0  0  0  0  0  0  0
    3.2720    0.4000    0.1390 C   0  0  2  0  0  0  0  0  0  0  0  0
    4.1940   -0.6740    0.6700 C   0  0  0  0  0  0  0  0  0  0  0  0
    5.4810   -0.4490    0.1630 O   0  0  0  0  0  0  0  0  0  0  0  0
    6.3050    0.6160    0.3610 C   0  0  0  0  0  0  0  0  0  0  0  0
    5.9030    1.5500    1.1000 O   0  0  0  0  0  0  0  0  0  0  0  0
    7.6240    0.7380   -0.2320 C   0  0  0  0  0  0  0  0  0  0  0  0
    8.1590   -0.2320   -1.0470 C   0  0  0  0  0  0  0  0  0  0  0  0
    9.4210   -0.0910   -1.6090 C   0  0  0  0  0  0  0  0  0  0  0  0
   10.1670    1.0350   -1.3590 C   0  0  0  0  0  0  0  0  0  0  0  0
   11.4390    1.2200   -1.9040 C   0  0  0  0  0  0  0  0  0  0  0  0
   12.2050    2.3340   -1.6710 C   0  0  0  0  0  0  0  0  0  0  0  0
   11.6660    3.3120   -0.8500 C   0  0  0  0  0  0  0  0  0  0  0  0
   10.3940    3.1260   -0.3050 C   0  0  0  0  0  0  0  0  0  0  0  0
    9.6430    2.0090   -0.5470 C   0  0  0  0  0  0  0  0  0  0  0  0
    8.3770    1.8580    0.0120 C   0  0  0  0  0  0  0  0  0  0  0  0
    1.9620    0.4430    0.8660 C   0  0  0  0  0  0  0  0  0  0  0  0
    1.0150   -0.6370    0.6160 C   0  0  0  0  0  0  0  0  0  0  0  0
    1.2110   -1.6070   -0.1380 O   0  0  0  0  0  0  0  0  0  0  0  0
   -0.2290   -0.5580    1.3000 N   0  0  0  0  0  0  0  0  0  0  0  0
   -0.5390    0.6190    2.1060 C   0  0  0  0  0  0  0  0  0  0  0  0
   -1.9760    0.6740    2.5400 C   0  0  0  0  0  0  0  0  0  0  0  0
   -2.8520    0.2150    1.3730 C   0  0  0  0  0  0  0  0  0  0  0  0
   -2.5690   -1.2540    1.2410 C   0  0  0  0  0  0  0  0  0  0  0  0
   -3.5410   -2.2270    1.1670 C   0  0  0  0  0  0  0  0  0  0  0  0
   -4.9080   -1.8400    1.1410 N   0  0  0  0  0  0  0  0  0  0  0  0
   -5.9650   -2.7480    1.2850 C   0  0  0  0  0  0  0  0  0  0  0  0
   -5.7880   -3.9990    1.4600 O   0  0  0  0  0  0  0  0  0  0  0  0
   -7.3590   -2.2870    1.2400 C   0  0  0  0  0  0  0  0  0  0  0  0
   -8.3760   -3.2390    1.4180 C   0  0  0  0  0  0  0  0  0  0  0  0
   -9.6890   -2.8380    1.3950 C   0  0  0  0  0  0  0  0  0  0  0  0
  -10.0570   -1.5210    1.2030 C   0  0  0  0  0  0  0  0  0  0  0  0
   -9.0550   -0.5910    1.0280 C   0  0  0  0  0  0  0  0  0  0  0  0
   -7.7060   -0.9760    1.0470 C   0  0  0  0  0  0  0  0  0  0  0  0
   -7.0120    0.2020    0.8420 O   0  0  0  0  0  0  0  0  0  0  0  0
   -7.8790    1.1300    0.2530 C   0  0  1  0  0  0  0  0  0  0  0  0
   -7.4830    2.5490    0.4890 C   0  0  0  0  0  0  0  0  0  0  0  0
   -8.0720    3.3210   -0.6880 C   0  0  0  0  0  0  0  0  0  0  0  0
   -8.4740    2.2840   -1.7170 C   0  0  0  0  0  0  0  0  0  0  0  0
   -7.8770    0.9630   -1.2370 C   0  0  0  0  0  0  0  0  0  0  0  0
   -9.1440    0.7880    0.8160 O   0  0  0  0  0  0  0  0  0  0  0  0
   -3.1250   -3.5260    1.0800 C   0  0  0  0  0  0  0  0  0  0  0  0
   -1.7580   -3.8720    1.0660 C   0  0  0  0  0  0  0  0  0  0  0  0
   -0.8170   -2.8740    1.1420 C   0  0  0  0  0  0  0  0  0  0  0  0
   -1.2250   -1.5760    1.2280 C   0  0  0  0  0  0  0  0  0  0  0  0
  1  2  1  0
  2  3  1  0
  3  4  1  1
  3  5  1  0
  5  6  1  6
  5 20  1  0
  6  7  1  0
  7  8  1  0
  8  9  2  0
  8 10  1  0
 10 11  2  0
 10 19  1  0
 11 12  1  0
 12 13  2  0
 13 14  1  0
 13 18  1  0
 14 15  2  0
 15 16  1  0
 16 17  2  0
 17 18  1  0
 18 19  2  0
 20 21  1  0
 21 22  2  0
 21 23  1  0
 23 24  1  0
 23 48  1  0
 24 25  1  0
 25 26  1  0
 26 27  1  0
 27 28  2  0
 27 48  1  0
 28 29  1  0
 28 45  1  0
 29 30  1  0
 30 31  2  0
 30 32  1  0
 32 33  2  0
 32 37  1  0
 33 34  1  0
 34 35  2  0
 35 36  1  0
 36 37  2  0
 36 44  1  0
 37 38  1  0
 38 39  1  0
 39 40  1  6
 39 43  1  0
 39 44  1  0
 40 41  1  0
 41 42  1  0
 42 43  1  0
 45 46  2  0
 46 47  1  0
 47 48  2  0
M  CHG  1   3   1
M  END
