
     RDKit          3D

 47 51  0  0  0  0  0  0  0  0999 V2000
    7.7610    2.1900    0.5900 C   0  0  0  0  0  0  0  0  0  0  0  0
    6.8380    1.3760   -0.2040 C   0  0  0  0  0  0  0  0  0  0  0  0
    6.0520    2.0290   -1.1610 C   0  0  0  0  0  0  0  0  0  0  0  0
    5.1650    1.3440   -1.9430 C   0  0  0  0  0  0  0  0  0  0  0  0
    5.0400   -0.0280   -1.7850 C   0  0  0  0  0  0  0  0  0  0  0  0
    4.0730   -0.7320   -2.6580 C   0  0  0  0  0  0  0  0  0  0  0  0
    2.7320   -0.7850   -2.1150 N   0  0  2  0  0  0  0  0  0  0  0  0
    2.2370    0.5380   -1.9630 C   0  0  0  0  0  0  0  0  0  0  0  0
    0.7550    0.6490   -1.6590 C   0  0  0  0  0  0  0  0  0  0  0  0
    0.5340    0.1900   -0.2370 C   0  0  2  0  0  0  0  0  0  0  0  0
    0.2320   -1.2950   -0.3870 C   0  0  0  0  0  0  0  0  0  0  0  0
   -0.9710   -1.9400   -0.2810 C   0  0  0  0  0  0  0  0  0  0  0  0
   -0.9820   -3.3120   -0.4540 C   0  0  0  0  0  0  0  0  0  0  0  0
    0.1970   -4.0180   -0.7310 C   0  0  0  0  0  0  0  0  0  0  0  0
    1.4220   -3.4110   -0.8470 C   0  0  0  0  0  0  0  0  0  0  0  0
    1.4030   -2.0590   -0.6710 C   0  0  0  0  0  0  0  0  0  0  0  0
    2.8250   -1.5530   -0.8730 C   0  0  0  0  0  0  0  0  0  0  0  0
   -2.0650   -4.1780   -0.3910 O   0  0  0  0  0  0  0  0  0  0  0  0
   -3.0130   -4.5350    0.5470 C   0  0  0  0  0  0  0  0  0  0  0  0
   -4.4460   -4.3080    0.1110 C   0  0  1  0  0  0  0  0  0  0  0  0
   -5.2210   -5.4510    0.3850 O   0  0  0  0  0  0  0  0  0  0  0  0
   -4.9890   -3.1070    0.8150 C   0  0  0  0  0  0  0  0  0  0  0  0
   -5.7750   -2.2390   -0.0700 N   0  0  1  0  0  0  0  0  0  0  0  0
   -6.9620   -2.9870   -0.4410 C   0  0  0  0  0  0  0  0  0  0  0  0
   -6.1250   -1.0060    0.6200 C   0  0  0  0  0  0  0  0  0  0  0  0
   -6.4040    0.1100   -0.3230 C   0  0  0  0  0  0  0  0  0  0  0  0
   -5.5170    0.8950   -0.8710 C   0  0  0  0  0  0  0  0  0  0  0  0
   -4.0420    0.8420   -0.6700 C   0  0  0  0  0  0  0  0  0  0  0  0
   -3.7910    0.7170    0.6600 O   0  0  0  0  0  0  0  0  0  0  0  0
   -2.5660    1.1690    1.0880 C   0  0  2  0  0  0  0  0  0  0  0  0
   -2.8150    2.3580    1.9830 C   0  0  0  0  0  0  0  0  0  0  0  0
   -3.5110    3.4650    1.3380 C   0  0  0  0  0  0  0  0  0  0  0  0
   -2.8160    4.4960    0.7540 C   0  0  0  0  0  0  0  0  0  0  0  0
   -3.5480    5.5090    0.1500 C   0  0  0  0  0  0  0  0  0  0  0  0
   -4.9180    5.5140    0.1180 C   0  0  0  0  0  0  0  0  0  0  0  0
   -5.6190    6.5420   -0.4930 O   0  0  0  0  0  0  0  0  0  0  0  0
   -5.6080    4.4610    0.7150 C   0  0  0  0  0  0  0  0  0  0  0  0
   -4.8820    3.4580    1.3130 C   0  0  0  0  0  0  0  0  0  0  0  0
   -1.5440    1.3710    0.0420 C   0  0  0  0  0  0  0  0  0  0  0  0
   -0.2410    1.0100    0.5740 N   0  0  2  0  0  0  0  0  0  0  0  0
    0.4990    2.1960    0.9370 C   0  0  0  0  0  0  0  0  0  0  0  0
    5.8230   -0.6360   -0.8400 C   0  0  0  0  0  0  0  0  0  0  0  0
    6.7340    0.0130   -0.0260 C   0  0  0  0  0  0  0  0  0  0  0  0
    7.5680   -0.6740    0.9800 C   0  0  2  0  0  0  0  0  0  0  0  0
    7.3270   -0.2530    2.3930 C   0  0  0  0  0  0  0  0  0  0  0  0
    9.0460   -0.6390    0.6150 C   0  0  0  0  0  0  0  0  0  0  0  0
    7.2060   -2.0430    0.8950 O   0  0  0  0  0  0  0  0  0  0  0  0
  1  2  1  0
  2  3  2  0
  2 43  1  0
  3  4  1  0
  4  5  2  0
  5  6  1  0
  5 42  1  0
  7  6  1  1
  7  8  1  0
  7 17  1  0
  8  9  1  0
 10  9  1  6
 10 11  1  0
 10 40  1  0
 11 12  2  0
 11 16  1  0
 12 13  1  0
 13 14  2  0
 13 18  1  0
 14 15  1  0
 15 16  2  0
 16 17  1  0
 18 19  1  0
 19 20  1  0
 20 21  1  1
 20 22  1  0
 22 23  1  0
 23 24  1  1
 23 25  1  0
 25 26  1  0
 26 27  2  0
 27 28  1  0
 28 29  1  0
 29 30  1  0
 30 31  1  6
 30 39  1  0
 31 32  1  0
 32 33  2  0
 32 38  1  0
 33 34  1  0
 34 35  2  0
 35 36  1  0
 35 37  1  0
 37 38  2  0
 39 40  1  0
 40 41  1  6
 42 43  2  0
 43 44  1  0
 44 45  1  1
 44 46  1  0
 44 47  1  0
M  CHG  3   7   1  23   1  40   1
M  END
