
     RDKit          3D

 47 50  0  0  0  0  0  0  0  0999 V2000
   -3.0990    2.3030   -5.0370 C   0  0  0  0  0  0  0  0  0  0  0  0
   -3.6470    1.8260   -3.6450 C   0  0  0  0  0  0  0  0  0  0  0  0
   -2.5360    1.9360   -2.6900 C   0  0  0  0  0  0  0  0  0  0  0  0
   -2.5990    1.6350   -1.3250 C   0  0  0  0  0  0  0  0  0  0  0  0
   -3.3160    1.2360   -0.2950 C   0  0  0  0  0  0  0  0  0  0  0  0
   -2.5430    1.1720    0.9680 C   0  0  0  0  0  0  0  0  0  0  0  0
   -2.5220    0.8910    2.1720 C   0  0  0  0  0  0  0  0  0  0  0  0
   -1.1850    1.1520    2.8770 C   0  0  0  0  0  0  0  0  0  0  0  0
   -1.1940    0.9120    4.1040 O   0  0  0  0  0  0  0  0  0  0  0  0
   -0.0260    1.6060    2.2950 N   0  0  0  0  0  0  0  0  0  0  0  0
    1.2220    1.8520    2.9790 C   0  0  0  0  0  0  0  0  0  0  0  0
    1.2460    2.1970    4.3290 C   0  0  0  0  0  0  0  0  0  0  0  0
    2.4190    2.5480    4.9680 C   0  0  0  0  0  0  0  0  0  0  0  0
    3.5930    2.5620    4.2720 C   0  0  0  0  0  0  0  0  0  0  0  0
    3.5950    2.2230    2.9330 C   0  0  0  0  0  0  0  0  0  0  0  0
    2.4090    1.8660    2.2860 C   0  0  0  0  0  0  0  0  0  0  0  0
    2.4720    1.4080    0.9030 C   0  0  0  0  0  0  0  0  0  0  0  0
    1.4670    0.9520    0.2750 O   0  0  0  0  0  0  0  0  0  0  0  0
    3.6990    1.4570    0.1920 N   0  0  0  0  0  0  0  0  0  0  0  0
    3.8420    1.0210   -1.1730 C   0  0  0  0  0  0  0  0  0  0  0  0
    2.8460    0.9720   -2.1030 C   0  0  0  0  0  0  0  0  0  0  0  0
    3.0850    0.4790   -3.3890 C   0  0  0  0  0  0  0  0  0  0  0  0
    4.3560    0.0200   -3.7600 C   0  0  0  0  0  0  0  0  0  0  0  0
    5.3640    0.0640   -2.8390 C   0  0  0  0  0  0  0  0  0  0  0  0
    5.0880    0.5550   -1.5880 C   0  0  0  0  0  0  0  0  0  0  0  0
    6.7110   -0.4290   -3.2170 C   0  0  2  0  0  0  0  0  0  0  0  0
    7.7850    0.1890   -2.4870 N   0  0  0  0  0  0  0  0  0  0  0  0
    8.1120   -0.6320   -1.3600 C   0  0  0  0  0  0  0  0  0  0  0  0
    6.9070   -0.1990   -4.6960 C   0  0  0  0  0  0  0  0  0  0  0  0
    5.8610   -1.0870   -5.3770 C   0  0  0  0  0  0  0  0  0  0  0  0
    4.5130   -0.4870   -5.1550 C   0  0  0  0  0  0  0  0  0  0  0  0
   -3.4190    0.1860    3.0630 C   0  0  0  0  0  0  0  0  0  0  0  0
   -3.0880    0.1430    4.3490 O   0  0  0  0  0  0  0  0  0  0  0  0
   -4.5770   -0.4840    2.8570 O   0  0  0  0  0  0  0  0  0  0  0  0
   -5.3150   -1.1460    3.8820 C   0  0  1  0  0  0  0  0  0  0  0  0
   -6.6910   -0.5230    3.9220 C   0  0  0  0  0  0  0  0  0  0  0  0
   -5.3880   -2.5980    3.5930 C   0  0  0  0  0  0  0  0  0  0  0  0
   -6.5850   -3.2860    3.5090 C   0  0  0  0  0  0  0  0  0  0  0  0
   -6.6910   -4.6300    3.2430 C   0  0  0  0  0  0  0  0  0  0  0  0
   -5.5260   -5.3540    3.0440 C   0  0  0  0  0  0  0  0  0  0  0  0
   -4.3090   -4.7120    3.1190 C   0  0  0  0  0  0  0  0  0  0  0  0
   -4.2420   -3.3460    3.3910 C   0  0  0  0  0  0  0  0  0  0  0  0
   -2.9800   -2.7820    3.4480 O   0  0  0  0  0  0  0  0  0  0  0  0
   -1.7970   -3.4930    3.2520 C   0  0  0  0  0  0  0  0  0  0  0  0
   -4.7000    0.9150   -0.2890 C   0  0  0  0  0  0  0  0  0  0  0  0
   -5.6520    0.8760   -1.4320 C   0  0  0  0  0  0  0  0  0  0  0  0
   -5.2610    0.6080    0.8030 O   0  0  0  0  0  0  0  0  0  0  0  0
  1  2  1  0
  2  3  1  0
  3  4  1  0
  4  5  2  3
  5  6  1  0
  5 45  1  0
  6  7  2  3
  7  8  1  0
  7 32  1  0
  8  9  2  0
  8 10  1  0
 10 11  1  0
 11 12  2  0
 11 16  1  0
 12 13  1  0
 13 14  2  0
 14 15  1  0
 15 16  2  0
 16 17  1  0
 17 18  2  0
 17 19  1  0
 19 20  1  0
 20 21  2  0
 20 25  1  0
 21 22  1  0
 22 23  2  0
 23 24  1  0
 23 31  1  0
 24 25  2  0
 24 26  1  0
 26 27  1  1
 26 29  1  0
 27 28  1  0
 29 30  1  0
 30 31  1  0
 32 33  2  0
 32 34  1  0
 34 35  1  0
 35 36  1  6
 35 37  1  0
 37 38  2  0
 37 42  1  0
 38 39  1  0
 39 40  2  0
 40 41  1  0
 41 42  2  0
 42 43  1  0
 43 44  1  0
 45 46  1  0
 45 47  2  0
M  CHG  1  27   1
M  END
