
     RDKit          3D

 40 44  0  0  0  0  0  0  0  0999 V2000
    1.4520   -0.6600   -3.2450 C   0  0  0  0  0  0  0  0  0  0  0  0
    0.9330   -1.2980   -2.1100 O   0  0  0  0  0  0  0  0  0  0  0  0
   -0.3780   -1.1170   -1.7020 C   0  0  0  0  0  0  0  0  0  0  0  0
   -1.1500   -0.2560   -2.4980 C   0  0  0  0  0  0  0  0  0  0  0  0
   -2.4550   -0.0300   -2.1640 C   0  0  0  0  0  0  0  0  0  0  0  0
   -3.0540   -0.6380   -1.0370 C   0  0  0  0  0  0  0  0  0  0  0  0
   -4.4300   -0.3430   -0.7470 C   0  0  0  0  0  0  0  0  0  0  0  0
   -5.0940    0.2360   -1.6990 O   0  0  0  0  0  0  0  0  0  0  0  0
   -5.1840   -0.5760    0.4020 N   0  0  0  0  0  0  0  0  0  0  0  0
   -6.5630   -0.1860    0.4480 C   0  0  0  0  0  0  0  0  0  0  0  0
   -7.5480   -1.0450    0.0340 C   0  0  0  0  0  0  0  0  0  0  0  0
   -7.1800   -2.6410   -0.5690 Cl  0  0  0  0  0  0  0  0  0  0  0  0
   -8.9000   -0.6690    0.0790 C   0  0  0  0  0  0  0  0  0  0  0  0
  -10.1830   -1.7340   -0.4390 Cl  0  0  0  0  0  0  0  0  0  0  0  0
   -9.2240    0.6000    0.5560 C   0  0  0  0  0  0  0  0  0  0  0  0
   -8.2430    1.4610    0.9700 C   0  0  0  0  0  0  0  0  0  0  0  0
   -8.2970    2.7340    1.4700 C   0  0  0  0  0  0  0  0  0  0  0  0
   -6.9940    3.1180    1.7210 C   0  0  0  0  0  0  0  0  0  0  0  0
   -6.2060    2.1010    1.3790 N   0  0  0  0  0  0  0  0  0  0  0  0
   -6.9050    1.0570    0.9120 C   0  0  0  0  0  0  0  0  0  0  0  0
   -2.2610   -1.4590   -0.3050 C   0  0  0  0  0  0  0  0  0  0  0  0
   -2.7490   -2.1470    0.8650 C   0  0  0  0  0  0  0  0  0  0  0  0
   -3.2880   -3.2860    0.8290 O   0  0  0  0  0  0  0  0  0  0  0  0
   -0.9010   -1.7250   -0.6110 C   0  0  0  0  0  0  0  0  0  0  0  0
   -0.2560   -2.5720    0.2380 O   0  0  0  0  0  0  0  0  0  0  0  0
    0.4030   -2.3970    1.4120 C   0  0  0  0  0  0  0  0  0  0  0  0
    1.6400   -1.6590    1.5220 C   0  0  0  0  0  0  0  0  0  0  0  0
    1.9400   -1.0030    2.5800 O   0  0  0  0  0  0  0  0  0  0  0  0
    2.6120   -1.6020    0.5040 N   0  0  0  0  0  0  0  0  0  0  0  0
    3.7960   -0.8720    0.6140 C   0  0  0  0  0  0  0  0  0  0  0  0
    4.3930   -0.0630    1.5490 C   0  0  0  0  0  0  0  0  0  0  0  0
    5.5940    0.4820    1.2810 C   0  0  0  0  0  0  0  0  0  0  0  0
    6.3330    1.3370    2.1480 C   0  0  0  0  0  0  0  0  0  0  0  0
    7.5530    1.8300    1.7570 C   0  0  0  0  0  0  0  0  0  0  0  0
    8.1380    1.5500    0.5430 C   0  0  0  0  0  0  0  0  0  0  0  0
    9.4500    2.0730    0.1080 C   0  0  0  0  0  0  0  0  0  0  0  0
    7.4340    0.7260   -0.3020 C   0  0  0  0  0  0  0  0  0  0  0  0
    7.9200    0.3250   -1.6430 C   0  0  0  0  0  0  0  0  0  0  0  0
    6.2160    0.2440    0.1090 C   0  0  0  0  0  0  0  0  0  0  0  0
    5.0560   -0.8360   -0.7310 S   0  0  0  0  0  0  0  0  0  0  0  0
  1  2  1  0
  2  3  1  0
  3  4  2  0
  3 24  1  0
  4  5  1  0
  5  6  2  0
  6  7  1  0
  6 21  1  0
  7  8  2  0
  7  9  1  0
  9 10  1  0
 10 11  2  0
 10 20  1  0
 11 12  1  0
 11 13  1  0
 13 14  1  0
 13 15  2  0
 15 16  1  0
 16 17  1  0
 16 20  2  0
 17 18  2  0
 18 19  1  0
 19 20  1  0
 21 22  1  0
 21 24  2  0
 22 23  2  0
 24 25  1  0
 25 26  1  0
 26 27  1  0
 27 28  2  0
 27 29  1  0
 29 30  1  0
 30 31  2  0
 30 40  1  0
 31 32  1  0
 32 33  2  0
 32 39  1  0
 33 34  1  0
 34 35  2  0
 35 36  1  0
 35 37  1  0
 37 38  1  0
 37 39  2  0
 39 40  1  0
M  END
