
     RDKit          3D

 40 44  0  0  0  0  0  0  0  0999 V2000
    8.4400    0.0950    0.2070 C   0  0  0  0  0  0  0  0  0  0  0  0
    7.0580    0.6310    0.0970 C   0  0  0  0  0  0  0  0  0  0  0  0
    6.8320    1.9780    0.0600 C   0  0  0  0  0  0  0  0  0  0  0  0
    5.5350    2.4250   -0.0430 C   0  0  0  0  0  0  0  0  0  0  0  0
    4.4670    1.5650   -0.1100 C   0  0  0  0  0  0  0  0  0  0  0  0
    3.1890    2.0220   -0.2120 C   0  0  0  0  0  0  0  0  0  0  0  0
    2.9120    3.2610   -0.2500 O   0  0  0  0  0  0  0  0  0  0  0  0
    2.0680    1.1520   -0.2830 C   0  0  0  0  0  0  0  0  0  0  0  0
    0.7610    1.7220   -0.4300 C   0  0  0  0  0  0  0  0  0  0  0  0
   -0.4250    0.9570   -0.4020 N   0  0  0  0  0  0  0  0  0  0  0  0
   -0.9670    0.3510    0.7620 C   0  0  0  0  0  0  0  0  0  0  0  0
   -0.2040    0.5720    1.7990 O   0  0  0  0  0  0  0  0  0  0  0  0
   -2.1710   -0.4120    0.9300 C   0  0  0  0  0  0  0  0  0  0  0  0
   -2.3040   -1.1450    2.1430 C   0  0  0  0  0  0  0  0  0  0  0  0
   -3.3500   -2.0230    2.3000 C   0  0  0  0  0  0  0  0  0  0  0  0
   -3.5030   -2.9240    3.8090 Cl  0  0  0  0  0  0  0  0  0  0  0  0
   -4.2860   -2.2280    1.3240 C   0  0  0  0  0  0  0  0  0  0  0  0
   -5.4250   -3.1830    1.4770 C   0  0  0  0  0  0  0  0  0  0  0  0
   -5.7770   -4.0550    0.5280 C   0  0  0  0  0  0  0  0  0  0  0  0
   -6.8140   -4.9170    0.6830 C   0  0  0  0  0  0  0  0  0  0  0  0
   -7.4060   -4.4750    2.3830 S   0  0  0  0  0  0  0  0  0  0  0  0
   -6.1930   -3.1930    2.6740 C   0  0  0  0  0  0  0  0  0  0  0  0
   -4.1750   -1.5330    0.1600 C   0  0  0  0  0  0  0  0  0  0  0  0
   -3.1050   -0.6250   -0.0110 C   0  0  0  0  0  0  0  0  0  0  0  0
   -3.1000    0.0380   -1.2280 O   0  0  0  0  0  0  0  0  0  0  0  0
   -3.3790    1.4260   -1.1590 C   0  0  0  0  0  0  0  0  0  0  0  0
   -3.6280    2.0950   -0.0040 C   0  0  0  0  0  0  0  0  0  0  0  0
   -3.8990    3.4550    0.0390 C   0  0  0  0  0  0  0  0  0  0  0  0
   -4.1520    4.1330    1.2160 O   0  0  0  0  0  0  0  0  0  0  0  0
   -3.9110    4.1170   -1.1240 N   0  0  0  0  0  0  0  0  0  0  0  0
   -3.6700    3.4890   -2.2790 C   0  0  0  0  0  0  0  0  0  0  0  0
   -3.4000    2.1400   -2.3320 C   0  0  0  0  0  0  0  0  0  0  0  0
   -3.0930    1.3750   -3.8860 Cl  0  0  0  0  0  0  0  0  0  0  0  0
    2.3810   -0.1700   -0.2430 C   0  0  0  0  0  0  0  0  0  0  0  0
    1.3940   -1.2770   -0.3720 C   0  0  0  0  0  0  0  0  0  0  0  0
    3.6780   -0.6060   -0.1390 N   0  0  0  0  0  0  0  0  0  0  0  0
    4.7200    0.2160   -0.0710 C   0  0  0  0  0  0  0  0  0  0  0  0
    6.0220   -0.2790    0.0330 C   0  0  0  0  0  0  0  0  0  0  0  0
    6.2500   -1.7190    0.0710 C   0  0  0  0  0  0  0  0  0  0  0  0
    6.4300   -2.3630   -0.9940 O   0  0  0  0  0  0  0  0  0  0  0  0
  1  2  1  0
  2  3  2  0
  2 38  1  0
  3  4  1  0
  4  5  2  0
  5  6  1  0
  5 37  1  0
  6  7  2  0
  6  8  1  0
  8  9  1  0
  8 34  2  0
  9 10  1  0
 10 11  1  0
 11 12  2  0
 11 13  1  0
 13 14  2  0
 13 24  1  0
 14 15  1  0
 15 16  1  0
 15 17  2  0
 17 18  1  0
 17 23  1  0
 18 19  1  0
 18 22  2  0
 19 20  2  0
 20 21  1  0
 21 22  1  0
 23 24  2  0
 24 25  1  0
 25 26  1  0
 26 27  2  0
 26 32  1  0
 27 28  1  0
 28 29  1  0
 28 30  2  0
 30 31  1  0
 31 32  2  0
 32 33  1  0
 34 35  1  0
 34 36  1  0
 36 37  1  0
 37 38  2  0
 38 39  1  0
 39 40  2  0
M  END
