
     RDKit          3D

 40 44  0  0  0  0  0  0  0  0999 V2000
   -3.7690    5.1880    3.6940 C   0  0  0  0  0  0  0  0  0  0  0  0
   -3.2380    3.8860    3.1400 C   0  0  0  0  0  0  0  0  0  0  0  0
   -3.2650    2.6600    3.7560 C   0  0  0  0  0  0  0  0  0  0  0  0
   -2.6720    1.7960    2.8680 C   0  0  0  0  0  0  0  0  0  0  0  0
   -2.3140    2.5060    1.7670 C   0  0  0  0  0  0  0  0  0  0  0  0
   -1.6480    2.1910    0.5170 C   0  0  0  0  0  0  0  0  0  0  0  0
   -0.5690    3.0280    0.2440 N   0  0  0  0  0  0  0  0  0  0  0  0
    0.3670    2.6930   -0.6440 C   0  0  0  0  0  0  0  0  0  0  0  0
    1.7310    3.7910   -0.9650 S   0  0  0  0  0  0  0  0  0  0  0  0
    3.0640    3.3740    0.1860 C   0  0  0  0  0  0  0  0  0  0  0  0
    3.6160    1.9870   -0.1080 C   0  0  0  0  0  0  0  0  0  0  0  0
    3.0920    1.3800   -1.0490 O   0  0  0  0  0  0  0  0  0  0  0  0
    4.6590    1.4630    0.6660 N   0  0  0  0  0  0  0  0  0  0  0  0
    5.2470    0.2000    0.4840 C   0  0  0  0  0  0  0  0  0  0  0  0
    6.1880   -0.2470    1.4060 C   0  0  0  0  0  0  0  0  0  0  0  0
    6.8210   -1.4400    1.3270 C   0  0  0  0  0  0  0  0  0  0  0  0
    6.5140   -2.2700    0.2570 C   0  0  0  0  0  0  0  0  0  0  0  0
    7.1470   -3.4820    0.1620 O   0  0  0  0  0  0  0  0  0  0  0  0
    5.5990   -1.9060   -0.6950 C   0  0  0  0  0  0  0  0  0  0  0  0
    5.2650   -2.7830   -1.8370 C   0  0  0  0  0  0  0  0  0  0  0  0
    4.9810   -0.6550   -0.5500 C   0  0  0  0  0  0  0  0  0  0  0  0
    0.3050    1.5340   -1.3110 N   0  0  0  0  0  0  0  0  0  0  0  0
   -0.7050    0.6830   -1.1070 C   0  0  0  0  0  0  0  0  0  0  0  0
   -0.8090   -0.4960   -1.8060 C   0  0  0  0  0  0  0  0  0  0  0  0
    0.4630   -0.8840   -2.9400 Cl  0  0  0  0  0  0  0  0  0  0  0  0
   -1.8560   -1.3720   -1.6540 C   0  0  0  0  0  0  0  0  0  0  0  0
   -1.8820   -2.5940   -2.4240 C   0  0  0  0  0  0  0  0  0  0  0  0
   -1.3470   -3.6250   -1.9480 O   0  0  0  0  0  0  0  0  0  0  0  0
   -2.5470   -2.6000   -3.7670 C   0  0  0  0  0  0  0  0  0  0  0  0
   -2.4670   -3.9730   -4.3970 C   0  0  0  0  0  0  0  0  0  0  0  0
   -0.7980   -4.5020   -4.6270 Cl  0  0  0  0  0  0  0  0  0  0  0  0
   -2.8220   -0.9980   -0.7510 C   0  0  0  0  0  0  0  0  0  0  0  0
   -2.7720    0.1870   -0.0130 C   0  0  0  0  0  0  0  0  0  0  0  0
   -1.7150    1.0350   -0.1640 C   0  0  0  0  0  0  0  0  0  0  0  0
   -4.0170    0.6030    0.6770 C   0  0  0  0  0  0  0  0  0  0  0  0
   -4.3680    1.7940    0.5200 O   0  0  0  0  0  0  0  0  0  0  0  0
   -4.7220   -0.4260    1.4640 C   0  0  0  0  0  0  0  0  0  0  0  0
   -4.2740   -1.8190    1.0170 C   0  0  0  0  0  0  0  0  0  0  0  0
   -4.0050   -1.8540   -0.4880 C   0  0  0  0  0  0  0  0  0  0  0  0
   -2.6850    3.7600    2.0010 O   0  0  0  0  0  0  0  0  0  0  0  0
  1  2  1  0
  2  3  2  0
  2 40  1  0
  3  4  1  0
  4  5  2  0
  5  6  1  0
  5 40  1  0
  6  7  2  0
  6 34  1  0
  7  8  1  0
  8  9  1  0
  8 22  2  0
  9 10  1  0
 10 11  1  0
 11 12  2  0
 11 13  1  0
 13 14  1  0
 14 15  2  0
 14 21  1  0
 15 16  1  0
 16 17  2  0
 17 18  1  0
 17 19  1  0
 19 20  1  0
 19 21  2  0
 22 23  1  0
 23 24  2  0
 23 34  1  0
 24 25  1  0
 24 26  1  0
 26 27  1  0
 26 32  2  0
 27 28  2  0
 27 29  1  0
 29 30  1  0
 30 31  1  0
 32 33  1  0
 32 39  1  0
 33 34  2  0
 33 35  1  0
 35 36  2  0
 35 37  1  0
 37 38  1  0
 38 39  1  0
M  END
