
     RDKit          3D

 40 44  0  0  0  0  0  0  0  0999 V2000
    8.8870    1.3780   -1.7830 C   0  0  0  0  0  0  0  0  0  0  0  0
    9.3490    1.2960   -0.5180 C   0  0  0  0  0  0  0  0  0  0  0  0
   10.7940    1.5590   -0.2440 C   0  0  0  0  0  0  0  0  0  0  0  0
   10.7390    1.7840    1.5510 S   0  0  0  0  0  0  0  0  0  0  0  0
    9.1020    1.1310    1.8060 C   0  0  0  0  0  0  0  0  0  0  0  0
    8.5670    0.9550    0.6220 C   0  0  0  0  0  0  0  0  0  0  0  0
    7.2180    0.3990    0.5120 N   0  0  0  0  0  0  0  0  0  0  0  0
    6.1210    1.1580    0.0540 C   0  0  0  0  0  0  0  0  0  0  0  0
    6.2760    2.3720   -0.2690 O   0  0  0  0  0  0  0  0  0  0  0  0
    4.7720    0.5710   -0.0690 C   0  0  0  0  0  0  0  0  0  0  0  0
    3.8070    1.1910   -0.8410 C   0  0  0  0  0  0  0  0  0  0  0  0
    2.5460    0.6710   -0.9820 C   0  0  0  0  0  0  0  0  0  0  0  0
    2.1770   -0.5220   -0.3440 C   0  0  0  0  0  0  0  0  0  0  0  0
    0.9140   -1.0430   -0.4900 O   0  0  0  0  0  0  0  0  0  0  0  0
    0.0770   -1.1510    0.6000 C   0  0  0  0  0  0  0  0  0  0  0  0
    0.3910   -0.7120    1.8690 C   0  0  0  0  0  0  0  0  0  0  0  0
   -0.5190   -0.8620    2.9210 C   0  0  0  0  0  0  0  0  0  0  0  0
   -0.0860   -0.2910    4.5240 Cl  0  0  0  0  0  0  0  0  0  0  0  0
   -1.7420   -1.4510    2.7130 C   0  0  0  0  0  0  0  0  0  0  0  0
   -2.0540   -1.8930    1.4270 C   0  0  0  0  0  0  0  0  0  0  0  0
   -1.1690   -1.7510    0.3840 C   0  0  0  0  0  0  0  0  0  0  0  0
   -1.4420   -2.1740   -0.9020 O   0  0  0  0  0  0  0  0  0  0  0  0
   -2.6850   -2.7510   -1.2010 C   0  0  0  0  0  0  0  0  0  0  0  0
   -3.7520   -1.7060   -0.9650 C   0  0  0  0  0  0  0  0  0  0  0  0
   -3.4430   -0.5450   -0.6200 O   0  0  0  0  0  0  0  0  0  0  0  0
   -5.1130   -2.0340   -1.1350 N   0  0  0  0  0  0  0  0  0  0  0  0
   -6.2260   -1.2160   -0.9700 C   0  0  0  0  0  0  0  0  0  0  0  0
   -7.4860   -1.7440   -1.2610 C   0  0  0  0  0  0  0  0  0  0  0  0
   -8.6290   -0.9860   -1.1270 C   0  0  0  0  0  0  0  0  0  0  0  0
   -8.5820    0.3160   -0.7040 C   0  0  0  0  0  0  0  0  0  0  0  0
   -9.5310    1.2670   -0.4930 N   0  0  0  0  0  0  0  0  0  0  0  0
   -8.9090    2.3820   -0.0760 C   0  0  0  0  0  0  0  0  0  0  0  0
   -7.5540    2.1640   -0.0130 C   0  0  0  0  0  0  0  0  0  0  0  0
   -6.5390    3.1220    0.3900 C   0  0  0  0  0  0  0  0  0  0  0  0
   -6.8980    4.2690    0.7330 O   0  0  0  0  0  0  0  0  0  0  0  0
   -7.3490    0.8520   -0.4130 C   0  0  0  0  0  0  0  0  0  0  0  0
   -6.1760    0.0860   -0.5460 C   0  0  0  0  0  0  0  0  0  0  0  0
    3.1320   -1.1350    0.4190 C   0  0  0  0  0  0  0  0  0  0  0  0
    2.7920   -2.6410    1.2330 Cl  0  0  0  0  0  0  0  0  0  0  0  0
    4.4180   -0.6000    0.5610 C   0  0  0  0  0  0  0  0  0  0  0  0
  1  2  2  0
  2  3  1  0
  2  6  1  0
  3  4  1  0
  4  5  1  0
  5  6  2  0
  6  7  1  0
  7  8  1  0
  8  9  2  0
  8 10  1  0
 10 11  2  0
 10 40  1  0
 11 12  1  0
 12 13  2  0
 13 14  1  0
 13 38  1  0
 14 15  1  0
 15 16  2  0
 15 21  1  0
 16 17  1  0
 17 18  1  0
 17 19  2  0
 19 20  1  0
 20 21  2  0
 21 22  1  0
 22 23  1  0
 23 24  1  0
 24 25  2  0
 24 26  1  0
 26 27  1  0
 27 28  2  0
 27 37  1  0
 28 29  1  0
 29 30  2  0
 30 31  1  0
 30 36  1  0
 31 32  1  0
 32 33  2  0
 33 34  1  0
 33 36  1  0
 34 35  2  0
 36 37  2  0
 38 39  1  0
 38 40  2  0
M  END
