
     RDKit          3D

 40 44  0  0  0  0  0  0  0  0999 V2000
   -7.9690    3.9160   -0.4370 C   0  0  0  0  0  0  0  0  0  0  0  0
   -8.1190    2.3920   -0.4520 C   0  0  0  0  0  0  0  0  0  0  0  0
   -6.7590    1.8230   -0.2070 C   0  0  0  0  0  0  0  0  0  0  0  0
   -6.7230    0.3500   -0.1900 C   0  0  0  0  0  0  0  0  0  0  0  0
   -7.7100   -0.4840   -0.3660 C   0  0  0  0  0  0  0  0  0  0  0  0
   -9.0900   -0.1730   -0.6230 N   0  0  0  0  0  0  0  0  0  0  0  0
   -7.1910   -1.8450   -0.2600 C   0  0  0  0  0  0  0  0  0  0  0  0
   -7.8420   -2.9340   -0.3720 O   0  0  0  0  0  0  0  0  0  0  0  0
   -5.7630   -1.7490    0.0030 C   0  0  0  0  0  0  0  0  0  0  0  0
   -4.7360   -2.6540    0.2010 C   0  0  0  0  0  0  0  0  0  0  0  0
   -3.4380   -2.2560    0.4400 C   0  0  0  0  0  0  0  0  0  0  0  0
   -2.4250   -3.1780    0.6350 O   0  0  0  0  0  0  0  0  0  0  0  0
   -2.6250   -4.5680    0.6080 C   0  0  0  0  0  0  0  0  0  0  0  0
   -3.1490   -0.9070    0.4830 C   0  0  0  0  0  0  0  0  0  0  0  0
   -1.8270   -0.4610    0.7280 N   0  0  0  0  0  0  0  0  0  0  0  0
   -1.4460    0.5530    1.6440 C   0  0  0  0  0  0  0  0  0  0  0  0
   -2.1760    1.2380    2.3990 O   0  0  0  0  0  0  0  0  0  0  0  0
    0.0160    0.6940    1.5780 C   0  0  0  0  0  0  0  0  0  0  0  0
    0.9410    1.4760    2.1970 C   0  0  0  0  0  0  0  0  0  0  0  0
    2.2790    1.3580    1.9000 C   0  0  0  0  0  0  0  0  0  0  0  0
    2.7570    0.4400    0.9580 C   0  0  0  0  0  0  0  0  0  0  0  0
    4.1530    0.4130    0.7490 N   0  0  0  0  0  0  0  0  0  0  0  0
    4.8530   -0.3390   -0.2010 C   0  0  0  0  0  0  0  0  0  0  0  0
    4.2030   -1.0920   -0.9830 O   0  0  0  0  0  0  0  0  0  0  0  0
    6.3220   -0.3360   -0.3810 C   0  0  0  0  0  0  0  0  0  0  0  0
    7.0910   -1.3600   -1.6560 S   0  0  0  0  0  0  0  0  0  0  0  0
    8.7740   -0.8280   -1.2520 C   0  0  0  0  0  0  0  0  0  0  0  0
    9.9660   -1.3720   -1.9830 C   0  0  0  0  0  0  0  0  0  0  0  0
    8.6100    0.0430   -0.2300 C   0  0  0  0  0  0  0  0  0  0  0  0
    9.8350    0.7310    0.3660 C   0  0  0  0  0  0  0  0  0  0  0  0
   10.2700    1.9200   -0.4020 C   0  0  0  0  0  0  0  0  0  0  0  0
   10.7230    1.6780   -2.0670 Cl  0  0  0  0  0  0  0  0  0  0  0  0
    7.3440    0.2730    0.1940 C   0  0  0  0  0  0  0  0  0  0  0  0
    7.0730    1.4250    1.5520 Cl  0  0  0  0  0  0  0  0  0  0  0  0
    1.8100   -0.3330    0.3500 C   0  0  0  0  0  0  0  0  0  0  0  0
    0.4530   -0.2130    0.6520 C   0  0  0  0  0  0  0  0  0  0  0  0
   -0.6710   -0.9610    0.0920 C   0  0  0  0  0  0  0  0  0  0  0  0
   -0.6290   -1.8720   -0.7840 O   0  0  0  0  0  0  0  0  0  0  0  0
   -4.1880    0.0090    0.2830 C   0  0  0  0  0  0  0  0  0  0  0  0
   -5.4820   -0.4020    0.0450 C   0  0  0  0  0  0  0  0  0  0  0  0
  1  2  1  0
  2  3  1  0
  3  4  1  0
  4  5  2  0
  4 40  1  0
  5  6  1  0
  5  7  1  0
  7  8  2  0
  7  9  1  0
  9 10  2  0
  9 40  1  0
 10 11  1  0
 11 12  1  0
 11 14  2  0
 12 13  1  0
 14 15  1  0
 14 39  1  0
 15 16  1  0
 15 37  1  0
 16 17  2  0
 16 18  1  0
 18 19  2  0
 18 36  1  0
 19 20  1  0
 20 21  2  0
 21 22  1  0
 21 35  1  0
 22 23  1  0
 23 24  2  0
 23 25  1  0
 25 26  1  0
 25 33  2  0
 26 27  1  0
 27 28  1  0
 27 29  2  0
 29 30  1  0
 29 33  1  0
 30 31  1  0
 31 32  1  0
 33 34  1  0
 35 36  2  0
 36 37  1  0
 37 38  2  0
 39 40  2  0
M  END
