
     RDKit          3D

 40 44  0  0  0  0  0  0  0  0999 V2000
   -5.7010   -4.3260   -1.3220 C   0  0  0  0  0  0  0  0  0  0  0  0
   -4.3260   -4.0030   -1.2490 O   0  0  0  0  0  0  0  0  0  0  0  0
   -3.9440   -2.8910   -0.4930 C   0  0  0  0  0  0  0  0  0  0  0  0
   -4.8370   -2.2450    0.0770 O   0  0  0  0  0  0  0  0  0  0  0  0
   -2.5370   -2.5120   -0.3850 C   0  0  0  0  0  0  0  0  0  0  0  0
   -1.5100   -3.2410   -0.9620 N   0  0  0  0  0  0  0  0  0  0  0  0
   -0.3320   -2.6790   -0.6570 C   0  0  0  0  0  0  0  0  0  0  0  0
    1.0350   -3.1300   -1.0650 C   0  0  0  0  0  0  0  0  0  0  0  0
   -0.5450   -1.5710    0.1240 C   0  0  0  0  0  0  0  0  0  0  0  0
    0.3950   -0.6310    0.7070 C   0  0  0  0  0  0  0  0  0  0  0  0
    0.7840    0.4100    0.1330 O   0  0  0  0  0  0  0  0  0  0  0  0
    0.8890   -0.9020    1.9720 O   0  0  0  0  0  0  0  0  0  0  0  0
    1.7960   -0.1250    2.6900 C   0  0  0  0  0  0  0  0  0  0  0  0
    3.0600   -0.0430    1.8710 C   0  0  0  0  0  0  0  0  0  0  0  0
    3.9050   -1.1060    1.7510 C   0  0  0  0  0  0  0  0  0  0  0  0
    5.0460   -0.9920    0.9970 C   0  0  0  0  0  0  0  0  0  0  0  0
    6.0250   -2.1000    0.8100 C   0  0  0  0  0  0  0  0  0  0  0  0
    5.3420    0.2190    0.3510 C   0  0  0  0  0  0  0  0  0  0  0  0
    4.5020    1.2910    0.4650 C   0  0  0  0  0  0  0  0  0  0  0  0
    3.3420    1.1140    1.2550 C   0  0  0  0  0  0  0  0  0  0  0  0
    4.6840    2.5970   -0.1450 C   0  0  0  0  0  0  0  0  0  0  0  0
    5.9540    2.6640   -0.9730 C   0  0  0  0  0  0  0  0  0  0  0  0
    6.7750    1.6320   -1.0910 C   0  0  0  0  0  0  0  0  0  0  0  0
    7.9180    1.7670   -1.8630 C   0  0  0  0  0  0  0  0  0  0  0  0
    7.8140    3.4500   -2.4500 S   0  0  0  0  0  0  0  0  0  0  0  0
    6.2880    3.8620   -1.6480 C   0  0  0  0  0  0  0  0  0  0  0  0
    5.4260    5.3770   -1.6910 Cl  0  0  0  0  0  0  0  0  0  0  0  0
    6.4960    0.3570   -0.4250 N   0  0  0  0  0  0  0  0  0  0  0  0
   -1.9470   -1.4840    0.2810 C   0  0  0  0  0  0  0  0  0  0  0  0
   -2.5570   -0.3640    0.9780 C   0  0  0  0  0  0  0  0  0  0  0  0
   -2.0410    0.0700    2.0680 O   0  0  0  0  0  0  0  0  0  0  0  0
   -3.7100    0.3360    0.5540 N   0  0  0  0  0  0  0  0  0  0  0  0
   -4.2500    1.4370    1.3350 C   0  0  0  0  0  0  0  0  0  0  0  0
   -5.4020    2.0840    0.7090 C   0  0  0  0  0  0  0  0  0  0  0  0
   -6.3270    2.7130    1.5440 C   0  0  0  0  0  0  0  0  0  0  0  0
   -7.4470    3.3590    1.0700 C   0  0  0  0  0  0  0  0  0  0  0  0
   -7.6870    3.3990   -0.2960 C   0  0  0  0  0  0  0  0  0  0  0  0
   -6.7900    2.7870   -1.1440 C   0  0  0  0  0  0  0  0  0  0  0  0
   -7.1160    2.8530   -2.8630 Cl  0  0  0  0  0  0  0  0  0  0  0  0
   -5.6710    2.1440   -0.6380 C   0  0  0  0  0  0  0  0  0  0  0  0
  1  2  1  0
  2  3  1  0
  3  4  2  0
  3  5  1  0
  5  6  1  0
  5 29  2  0
  6  7  1  0
  7  8  1  0
  7  9  2  0
  9 10  1  0
  9 29  1  0
 10 11  2  0
 10 12  1  0
 12 13  1  0
 13 14  1  0
 14 15  2  0
 14 20  1  0
 15 16  1  0
 16 17  1  0
 16 18  2  0
 18 19  1  0
 18 28  1  0
 19 20  2  0
 19 21  1  0
 21 22  1  0
 22 23  1  0
 22 26  2  0
 23 24  2  0
 23 28  1  0
 24 25  1  0
 25 26  1  0
 26 27  1  0
 29 30  1  0
 30 31  2  0
 30 32  1  0
 32 33  1  0
 33 34  1  0
 34 35  2  0
 34 40  1  0
 35 36  1  0
 36 37  2  0
 37 38  1  0
 38 39  1  0
 38 40  2  0
M  END
