
     RDKit          3D

 40 44  0  0  0  0  0  0  0  0999 V2000
   -8.0230   -3.1700    1.3770 C   0  0  0  0  0  0  0  0  0  0  0  0
   -6.8710   -3.5520    2.2040 C   0  0  0  0  0  0  0  0  0  0  0  0
   -7.0670   -4.6640    3.5180 Cl  0  0  0  0  0  0  0  0  0  0  0  0
   -5.6090   -3.0400    1.9640 C   0  0  0  0  0  0  0  0  0  0  0  0
   -4.3780   -3.6110    3.0450 Cl  0  0  0  0  0  0  0  0  0  0  0  0
   -5.4890   -2.1020    0.9300 C   0  0  0  0  0  0  0  0  0  0  0  0
   -4.5720   -1.3790    0.3310 C   0  0  0  0  0  0  0  0  0  0  0  0
   -5.0930   -0.4350   -0.8430 C   0  0  0  0  0  0  0  0  0  0  0  0
   -3.9590    0.6830   -0.9890 S   0  0  1  0  0  0  0  0  0  0  0  0
   -3.6930    0.9340   -2.4390 O   0  0  0  0  0  0  0  0  0  0  0  0
   -4.2420    2.0340   -0.0730 N   0  0  0  0  0  0  0  0  0  0  0  0
   -5.1710    3.0360   -0.4480 C   0  0  0  0  0  0  0  0  0  0  0  0
   -5.8640    2.9280   -1.6530 C   0  0  0  0  0  0  0  0  0  0  0  0
   -6.7660    3.9080   -1.9940 C   0  0  0  0  0  0  0  0  0  0  0  0
   -7.0080    5.0010   -1.1770 C   0  0  0  0  0  0  0  0  0  0  0  0
   -6.3170    5.0930    0.0070 C   0  0  0  0  0  0  0  0  0  0  0  0
   -5.3990    4.1310    0.3940 C   0  0  0  0  0  0  0  0  0  0  0  0
   -2.5950   -0.2870   -0.3750 C   0  0  0  0  0  0  0  0  0  0  0  0
   -1.2670   -0.0970   -0.5400 C   0  0  0  0  0  0  0  0  0  0  0  0
   -0.3460   -0.8550    0.1760 C   0  0  0  0  0  0  0  0  0  0  0  0
    1.0920   -0.6820    0.0020 C   0  0  0  0  0  0  0  0  0  0  0  0
    1.4990   -0.1770   -1.0720 O   0  0  0  0  0  0  0  0  0  0  0  0
    2.0270   -1.0550    0.9820 N   0  0  0  0  0  0  0  0  0  0  0  0
    3.4280   -0.8930    0.8090 C   0  0  0  0  0  0  0  0  0  0  0  0
    4.3950   -0.9550    1.8130 C   0  0  0  0  0  0  0  0  0  0  0  0
    5.6040   -0.7720    1.2750 N   0  0  0  0  0  0  0  0  0  0  0  0
    5.5010   -0.5880   -0.0540 C   0  0  0  0  0  0  0  0  0  0  0  0
    6.5690   -0.3520   -1.0070 C   0  0  0  0  0  0  0  0  0  0  0  0
    6.2870   -0.2160   -2.2320 O   0  0  0  0  0  0  0  0  0  0  0  0
    7.9020   -0.2650   -0.6420 O   0  0  0  0  0  0  0  0  0  0  0  0
    8.8580   -0.0350   -1.6550 C   0  0  0  0  0  0  0  0  0  0  0  0
   10.2030    0.0280   -0.9770 C   0  0  0  0  0  0  0  0  0  0  0  0
   10.8090    1.1990   -0.5770 C   0  0  0  0  0  0  0  0  0  0  0  0
   12.0130    0.8360   -0.0040 C   0  0  0  0  0  0  0  0  0  0  0  0
   12.0530   -0.5300   -0.0980 C   0  0  0  0  0  0  0  0  0  0  0  0
   10.9660   -0.9720   -0.6780 O   0  0  0  0  0  0  0  0  0  0  0  0
    4.1430   -0.6620   -0.3420 C   0  0  0  0  0  0  0  0  0  0  0  0
   -0.8880   -1.7780    1.0310 C   0  0  0  0  0  0  0  0  0  0  0  0
   -2.2480   -1.9660    1.1900 C   0  0  0  0  0  0  0  0  0  0  0  0
   -3.1590   -1.1940    0.4570 C   0  0  0  0  0  0  0  0  0  0  0  0
  1  2  1  0
  2  3  1  0
  2  4  2  3
  4  5  1  0
  4  6  1  0
  6  7  2  3
  7  8  1  0
  7 40  1  0
  8  9  2  0
  9 10  2  0
  9 11  1  1
  9 18  1  0
 11 12  1  0
 12 13  2  0
 12 17  1  0
 13 14  1  0
 14 15  2  0
 15 16  1  0
 16 17  2  0
 18 19  2  0
 18 40  1  0
 19 20  1  0
 20 21  1  0
 20 38  2  0
 21 22  2  0
 21 23  1  0
 23 24  1  0
 24 25  2  0
 24 37  1  0
 25 26  1  0
 26 27  1  0
 27 28  1  0
 27 37  2  0
 28 29  2  0
 28 30  1  0
 30 31  1  0
 31 32  1  0
 32 33  2  0
 32 36  1  0
 33 34  1  0
 34 35  2  0
 35 36  1  0
 38 39  1  0
 39 40  2  0
M  END
