
     RDKit          3D

 40 44  0  0  0  0  0  0  0  0999 V2000
    0.5020    4.8740   -1.0780 C   0  0  0  0  0  0  0  0  0  0  0  0
    0.6890    3.4080   -0.8460 C   0  0  0  0  0  0  0  0  0  0  0  0
    2.2190    2.6310   -0.7080 S   0  0  0  0  0  0  0  0  0  0  0  0
    1.5700    0.9910   -0.4470 C   0  0  0  0  0  0  0  0  0  0  0  0
    2.4100   -0.1440   -0.2560 N   0  0  0  0  0  0  0  0  0  0  0  0
    3.8370   -0.0070   -0.2780 C   0  0  0  0  0  0  0  0  0  0  0  0
    4.3250    1.1350   -0.4670 O   0  0  0  0  0  0  0  0  0  0  0  0
    4.7030   -1.2040   -0.0780 C   0  0  0  0  0  0  0  0  0  0  0  0
    6.0560   -0.8550   -0.1360 O   0  0  0  0  0  0  0  0  0  0  0  0
    7.0910   -1.7330    0.0060 C   0  0  0  0  0  0  0  0  0  0  0  0
    6.8500   -3.0730    0.2230 C   0  0  0  0  0  0  0  0  0  0  0  0
    7.9150   -3.9530    0.3650 C   0  0  0  0  0  0  0  0  0  0  0  0
    9.2280   -3.5490    0.2990 C   0  0  0  0  0  0  0  0  0  0  0  0
   10.5060   -4.7100    0.4860 Cl  0  0  0  0  0  0  0  0  0  0  0  0
    9.4560   -2.2020    0.0810 C   0  0  0  0  0  0  0  0  0  0  0  0
    8.4160   -1.3280   -0.0600 C   0  0  0  0  0  0  0  0  0  0  0  0
    8.7520    0.3610   -0.3330 Cl  0  0  0  0  0  0  0  0  0  0  0  0
    0.1910    1.1550   -0.4820 C   0  0  0  0  0  0  0  0  0  0  0  0
   -0.6040   -0.0660   -0.2960 C   0  0  0  0  0  0  0  0  0  0  0  0
   -0.0360   -1.2170   -0.2810 O   0  0  0  0  0  0  0  0  0  0  0  0
   -1.9970   -0.1420   -0.1100 N   0  0  0  0  0  0  0  0  0  0  0  0
   -2.7020   -1.4000    0.0360 C   0  0  0  0  0  0  0  0  0  0  0  0
   -2.2510   -2.5410   -0.5430 C   0  0  0  0  0  0  0  0  0  0  0  0
   -2.9600   -3.7420   -0.3400 C   0  0  0  0  0  0  0  0  0  0  0  0
   -4.0960   -3.7820    0.4270 C   0  0  0  0  0  0  0  0  0  0  0  0
   -4.7680   -4.9750    0.6060 C   0  0  0  0  0  0  0  0  0  0  0  0
   -5.8360   -4.9860    1.3330 O   0  0  0  0  0  0  0  0  0  0  0  0
   -6.2900   -3.8950    1.9010 C   0  0  0  0  0  0  0  0  0  0  0  0
   -7.3370   -3.9590    2.6020 O   0  0  0  0  0  0  0  0  0  0  0  0
   -5.6850   -2.6690    1.7760 C   0  0  0  0  0  0  0  0  0  0  0  0
   -4.5350   -2.6080    1.0040 C   0  0  0  0  0  0  0  0  0  0  0  0
   -3.8520   -1.4380    0.8130 C   0  0  0  0  0  0  0  0  0  0  0  0
   -0.2530    2.3990   -0.6910 C   0  0  0  0  0  0  0  0  0  0  0  0
   -1.6840    2.8320   -0.8320 C   0  0  0  0  0  0  0  0  0  0  0  0
   -2.2450    3.4600    0.3970 C   0  0  0  0  0  0  0  0  0  0  0  0
   -3.6560    3.8780    0.2390 C   0  0  0  0  0  0  0  0  0  0  0  0
   -4.7470    3.0870    0.5140 C   0  0  0  0  0  0  0  0  0  0  0  0
   -5.9090    3.8190    0.2440 C   0  0  0  0  0  0  0  0  0  0  0  0
   -5.4810    5.0240   -0.1840 N   0  0  0  0  0  0  0  0  0  0  0  0
   -4.1380    5.0850   -0.1960 C   0  0  0  0  0  0  0  0  0  0  0  0
  1  2  1  0
  2  3  1  0
  2 33  2  0
  3  4  1  0
  4  5  1  0
  4 18  2  0
  5  6  1  0
  6  7  2  0
  6  8  1  0
  8  9  1  0
  9 10  1  0
 10 11  2  0
 10 16  1  0
 11 12  1  0
 12 13  2  0
 13 14  1  0
 13 15  1  0
 15 16  2  0
 16 17  1  0
 18 19  1  0
 18 33  1  0
 19 20  2  0
 19 21  1  0
 21 22  1  0
 22 23  1  0
 22 32  2  0
 23 24  2  0
 24 25  1  0
 25 26  2  0
 25 31  1  0
 26 27  1  0
 27 28  1  0
 28 29  2  0
 28 30  1  0
 30 31  2  0
 31 32  1  0
 33 34  1  0
 34 35  1  0
 35 36  1  0
 36 37  1  0
 36 40  2  0
 37 38  2  0
 38 39  1  0
 39 40  1  0
M  END
