
     RDKit          3D

 40 44  0  0  0  0  0  0  0  0999 V2000
    8.8420    4.1900    0.1320 C   0  0  0  0  0  0  0  0  0  0  0  0
    8.0020    2.9670    0.1150 C   0  0  0  0  0  0  0  0  0  0  0  0
    6.6760    2.8740   -0.0300 N   0  0  0  0  0  0  0  0  0  0  0  0
    6.3010    1.5680    0.0110 C   0  0  0  0  0  0  0  0  0  0  0  0
    4.9500    1.0380   -0.1090 C   0  0  0  0  0  0  0  0  0  0  0  0
    4.7450   -0.3160   -0.0450 C   0  0  0  0  0  0  0  0  0  0  0  0
    3.4580   -0.8910   -0.1550 C   0  0  0  0  0  0  0  0  0  0  0  0
    2.3710   -0.0980   -0.3310 C   0  0  0  0  0  0  0  0  0  0  0  0
    1.0520   -0.5920   -0.4510 N   0  0  0  0  0  0  0  0  0  0  0  0
    0.5790   -1.8950   -0.4190 C   0  0  0  0  0  0  0  0  0  0  0  0
    1.5370   -2.7810   -0.2510 O   0  0  0  0  0  0  0  0  0  0  0  0
   -0.7230   -2.4820   -0.5300 C   0  0  0  0  0  0  0  0  0  0  0  0
   -1.9150   -2.0680   -0.6920 C   0  0  0  0  0  0  0  0  0  0  0  0
   -2.3470   -0.6760   -0.8300 C   0  0  0  0  0  0  0  0  0  0  0  0
   -3.2590   -0.4480    0.2750 O   0  0  0  0  0  0  0  0  0  0  0  0
   -3.8470    0.7860    0.4280 C   0  0  0  0  0  0  0  0  0  0  0  0
   -3.5650    1.7880   -0.4670 C   0  0  0  0  0  0  0  0  0  0  0  0
   -4.1450    3.0500   -0.3410 C   0  0  0  0  0  0  0  0  0  0  0  0
   -5.0100    3.2590    0.7100 C   0  0  0  0  0  0  0  0  0  0  0  0
   -5.6230    4.5720    0.8560 C   0  0  0  0  0  0  0  0  0  0  0  0
   -6.6600    4.9850   -0.0130 N   0  0  0  0  0  0  0  0  0  0  0  0
   -5.0940    5.5500    2.0320 S   0  0  0  0  0  0  0  0  0  0  0  0
   -5.3170    2.2820    1.6260 C   0  0  0  0  0  0  0  0  0  0  0  0
   -6.4190    2.6480    2.9160 Cl  0  0  0  0  0  0  0  0  0  0  0  0
   -4.7150    1.0300    1.4650 C   0  0  0  0  0  0  0  0  0  0  0  0
   -3.0290   -3.0770   -0.7310 C   0  0  0  0  0  0  0  0  0  0  0  0
   -4.3110   -2.6670   -0.9810 C   0  0  0  0  0  0  0  0  0  0  0  0
   -5.3840   -3.5570   -1.0120 C   0  0  0  0  0  0  0  0  0  0  0  0
   -5.1190   -4.8850   -0.7810 C   0  0  0  0  0  0  0  0  0  0  0  0
   -3.8570   -5.3410   -0.5270 C   0  0  0  0  0  0  0  0  0  0  0  0
   -2.8040   -4.4090   -0.5050 C   0  0  0  0  0  0  0  0  0  0  0  0
   -3.9500   -6.7040   -0.3440 O   0  0  0  0  0  0  0  0  0  0  0  0
   -5.2260   -7.1350   -0.7990 C   0  0  0  0  0  0  0  0  0  0  0  0
   -5.9990   -5.9530   -0.7570 O   0  0  0  0  0  0  0  0  0  0  0  0
    2.5980    1.2830   -0.3950 C   0  0  0  0  0  0  0  0  0  0  0  0
    1.1790    2.3130   -0.6240 Cl  0  0  0  0  0  0  0  0  0  0  0  0
    3.8540    1.8450   -0.2870 C   0  0  0  0  0  0  0  0  0  0  0  0
    7.4050    0.8850    0.1810 O   0  0  0  0  0  0  0  0  0  0  0  0
    8.4550    1.6720    0.2510 C   0  0  0  0  0  0  0  0  0  0  0  0
    9.8860    1.2700    0.4400 C   0  0  0  0  0  0  0  0  0  0  0  0
  1  2  1  0
  2  3  1  0
  2 39  2  0
  3  4  2  0
  4  5  1  0
  4 38  1  0
  5  6  2  0
  5 37  1  0
  6  7  1  0
  7  8  2  0
  8  9  1  0
  8 35  1  0
  9 10  1  0
 10 11  2  0
 10 12  1  0
 12 13  2  3
 13 14  1  0
 13 26  1  0
 14 15  1  0
 15 16  1  0
 16 17  2  0
 16 25  1  0
 17 18  1  0
 18 19  2  0
 19 20  1  0
 19 23  1  0
 20 21  1  0
 20 22  2  0
 23 24  1  0
 23 25  2  0
 26 27  2  0
 26 31  1  0
 27 28  1  0
 28 29  2  0
 29 30  1  0
 29 34  1  0
 30 31  2  0
 30 32  1  0
 32 33  1  0
 33 34  1  0
 35 36  1  0
 35 37  2  0
 38 39  1  0
 39 40  1  0
M  END
