
     RDKit          3D

 40 43  0  0  0  0  0  0  0  0999 V2000
    4.0880    2.7080    0.8630 C   0  0  0  0  0  0  0  0  0  0  0  0
    4.1810    2.4340   -0.5910 C   0  0  0  0  0  0  0  0  0  0  0  0
    4.9130    3.3600   -1.3600 C   0  0  0  0  0  0  0  0  0  0  0  0
    5.4580    4.4890   -0.7300 O   0  0  0  0  0  0  0  0  0  0  0  0
    5.1140    3.1970   -2.7040 C   0  0  0  0  0  0  0  0  0  0  0  0
    4.5720    2.0790   -3.3120 C   0  0  0  0  0  0  0  0  0  0  0  0
    3.8640    1.1890   -2.5620 C   0  0  0  0  0  0  0  0  0  0  0  0
    3.6480    1.3480   -1.1670 C   0  0  0  0  0  0  0  0  0  0  0  0
    2.8370    0.3550   -0.4950 C   0  0  0  0  0  0  0  0  0  0  0  0
    2.7680   -0.8340   -1.0020 O   0  0  0  0  0  0  0  0  0  0  0  0
    2.0850    0.5230    0.6770 N   0  0  0  0  0  0  0  0  0  0  0  0
    1.3100   -0.5970    1.2580 C   0  0  1  0  0  0  0  0  0  0  0  0
    2.2140   -1.2970    2.2970 C   0  0  0  0  0  0  0  0  0  0  0  0
    3.6630   -1.8880    1.4420 S   0  0  0  0  0  0  0  0  0  0  0  0
    4.8250   -2.7450    2.4710 C   0  0  0  0  0  0  0  0  0  0  0  0
    5.8410   -2.0880    3.1160 C   0  0  0  0  0  0  0  0  0  0  0  0
    6.7530   -2.7590    3.9220 C   0  0  0  0  0  0  0  0  0  0  0  0
    6.6510   -4.1280    4.0920 C   0  0  0  0  0  0  0  0  0  0  0  0
    5.6330   -4.8000    3.4480 C   0  0  0  0  0  0  0  0  0  0  0  0
    4.7280   -4.1070    2.6430 C   0  0  0  0  0  0  0  0  0  0  0  0
    0.0320   -0.1970    1.8510 C   0  0  2  0  0  0  0  0  0  0  0  0
   -0.6300   -1.2760    2.4410 O   0  0  0  0  0  0  0  0  0  0  0  0
   -0.8600    0.5800    0.9350 C   0  0  0  0  0  0  0  0  0  0  0  0
   -1.5090   -0.1390   -0.1100 N   0  0  2  0  0  0  0  0  0  0  0  0
   -0.8090   -0.1430   -1.3830 C   0  0  0  0  0  0  0  0  0  0  0  0
   -1.4990    0.7660   -2.4230 C   0  0  1  0  0  0  0  0  0  0  0  0
   -0.5310    0.8850   -3.5570 C   0  0  0  0  0  0  0  0  0  0  0  0
   -0.6440   -0.3060   -4.4460 C   0  0  0  0  0  0  0  0  0  0  0  0
   -2.0350   -0.2300   -5.0600 C   0  0  0  0  0  0  0  0  0  0  0  0
   -3.1100   -0.3650   -4.0310 C   0  0  0  0  0  0  0  0  0  0  0  0
   -2.8630    0.3180   -2.7430 C   0  0  1  0  0  0  0  0  0  0  0  0
   -3.3360   -0.5250   -1.5560 C   0  0  0  0  0  0  0  0  0  0  0  0
   -2.8940    0.2950   -0.3240 C   0  0  1  0  0  0  0  0  0  0  0  0
   -3.8000    0.0810    0.7890 C   0  0  0  0  0  0  0  0  0  0  0  0
   -3.4330   -0.4580    1.8390 O   0  0  0  0  0  0  0  0  0  0  0  0
   -5.1840    0.4950    0.7110 N   0  0  0  0  0  0  0  0  0  0  0  0
   -6.1150    0.3110    1.7760 C   0  0  1  0  0  0  0  0  0  0  0  0
   -7.4550    0.8850    1.3260 C   0  0  0  0  0  0  0  0  0  0  0  0
   -6.3460   -1.1530    2.0980 C   0  0  0  0  0  0  0  0  0  0  0  0
   -5.7260    1.0340    3.0420 C   0  0  0  0  0  0  0  0  0  0  0  0
  1  2  1  0
  2  3  2  0
  2  8  1  0
  3  4  1  0
  3  5  1  0
  5  6  2  0
  6  7  1  0
  7  8  2  0
  8  9  1  0
  9 10  2  0
  9 11  1  0
 11 12  1  0
 12 13  1  1
 12 21  1  0
 13 14  1  0
 14 15  1  0
 15 16  2  0
 15 20  1  0
 16 17  1  0
 17 18  2  0
 18 19  1  0
 19 20  2  0
 21 22  1  6
 21 23  1  0
 24 23  1  1
 24 25  1  0
 24 33  1  0
 26 25  1  1
 26 27  1  0
 26 31  1  0
 27 28  1  0
 28 29  1  0
 29 30  1  0
 31 30  1  6
 31 32  1  0
 32 33  1  0
 33 34  1  1
 34 35  2  0
 34 36  1  0
 36 37  1  0
 37 38  1  6
 37 39  1  0
 37 40  1  0
M  CHG  1  24   1
M  END
