
     RDKit          3D

 10 10  0  0  0  0  0  0  0  0999 V2000
    3.6190    0.2260   -0.2750 C   0  0  0  0  0  0  0  0  0  0  0  0
    2.2220    0.4410   -0.3640 O   0  0  0  0  0  0  0  0  0  0  0  0
    1.3180   -0.3630    0.3170 C   0  0  0  0  0  0  0  0  0  0  0  0
    1.7710   -1.2960    1.0230 O   0  0  0  0  0  0  0  0  0  0  0  0
   -0.1410   -0.1170    0.2080 C   0  0  0  0  0  0  0  0  0  0  0  0
   -0.9420   -0.9020    0.8680 C   0  0  0  0  0  0  0  0  0  0  0  0
   -2.3930   -0.7690    0.8460 C   0  0  0  0  0  0  0  0  0  0  0  0
   -2.8200    0.3150    0.0210 N   0  0  0  0  0  0  0  0  0  0  0  0
   -1.9130    1.1440   -0.6800 C   0  0  0  0  0  0  0  0  0  0  0  0
   -0.6000    0.9660   -0.6150 C   0  0  0  0  0  0  0  0  0  0  0  0
  1  2  1  0
  2  3  1  0
  3  4  2  0
  3  5  1  0
  5  6  2  0
  5 10  1  0
  6  7  1  0
  7  8  1  0
  8  9  1  0
  9 10  2  0
M  END
