
     RDKit          3D

 18 19  0  0  0  0  0  0  0  0999 V2000
    5.2960   -0.0390    0.1870 N   0  0  0  0  0  0  0  0  0  0  0  0
    4.0010   -0.1290    0.1190 C   0  0  0  0  0  0  0  0  0  0  0  0
    3.1950    0.9380    0.0250 N   0  0  0  0  0  0  0  0  0  0  0  0
    1.8590    0.7980   -0.0430 C   0  0  0  0  0  0  0  0  0  0  0  0
    1.1240    1.8180   -0.1310 O   0  0  0  0  0  0  0  0  0  0  0  0
    1.2660   -0.4020   -0.0220 N   0  0  0  0  0  0  0  0  0  0  0  0
   -0.1590   -0.5830   -0.0930 C   0  0  2  0  0  0  0  0  0  0  0  0
   -0.7410    0.2460   -1.0750 O   0  0  0  0  0  0  0  0  0  0  0  0
   -2.0840    0.1660   -0.7210 C   0  0  2  0  0  0  0  0  0  0  0  0
   -2.9700    1.0480   -1.5450 C   0  0  0  0  0  0  0  0  0  0  0  0
   -4.2760    0.8760   -1.0950 O   0  0  0  0  0  0  0  0  0  0  0  0
   -2.0040    0.6190    0.7260 C   0  0  1  0  0  0  0  0  0  0  0  0
   -3.1770    0.3800    1.4140 O   0  0  0  0  0  0  0  0  0  0  0  0
   -0.8680   -0.2800    1.1930 C   0  0  1  0  0  0  0  0  0  0  0  0
   -1.4840   -1.4560    1.6730 O   0  0  0  0  0  0  0  0  0  0  0  0
    2.0690   -1.4810    0.0720 C   0  0  0  0  0  0  0  0  0  0  0  0
    3.4450   -1.3900    0.1450 C   0  0  0  0  0  0  0  0  0  0  0  0
    4.2510   -2.4710    0.2390 F   0  0  0  0  0  0  0  0  0  0  0  0
  1  2  2  0
  2  3  1  0
  2 17  1  0
  3  4  1  0
  4  5  2  0
  4  6  1  0
  7  6  1  1
  6 16  1  0
  7  8  1  0
  7 14  1  0
  8  9  1  0
  9 10  1  6
  9 12  1  0
 10 11  1  0
 12 13  1  1
 12 14  1  0
 14 15  1  6
 16 17  2  0
 17 18  1  0
M  END
