
     RDKit          3D

 10 10  0  0  0  0  0  0  0  0999 V2000
    2.8140   -0.5840   -0.2070 C   0  0  0  0  0  0  0  0  0  0  0  0
    1.6930    0.3270    0.0040 C   0  0  0  0  0  0  0  0  0  0  0  0
    1.9380    1.5400    0.2380 O   0  0  0  0  0  0  0  0  0  0  0  0
    0.2820   -0.1090   -0.0430 C   0  0  0  0  0  0  0  0  0  0  0  0
   -0.0430   -1.3670   -0.2840 C   0  0  0  0  0  0  0  0  0  0  0  0
   -1.3270   -1.7920   -0.3330 O   0  0  0  0  0  0  0  0  0  0  0  0
   -2.4430   -0.9810   -0.1420 C   0  0  0  0  0  0  0  0  0  0  0  0
   -2.0550    0.4150    0.1240 C   0  0  0  0  0  0  0  0  0  0  0  0
   -0.8140    0.8140    0.1690 C   0  0  0  0  0  0  0  0  0  0  0  0
   -0.4850    2.1910    0.4330 N   0  0  0  0  0  0  0  0  0  0  0  0
  1  2  1  0
  2  3  2  0
  2  4  1  0
  4  5  2  0
  4  9  1  0
  5  6  1  0
  6  7  1  0
  7  8  1  0
  8  9  2  0
  9 10  1  0
M  END
