
     RDKit          3D

 10 10  0  0  0  0  0  0  0  0999 V2000
    3.2830    0.0080    0.0170 C   0  0  0  0  0  0  0  0  0  0  0  0
    1.8520    0.5500    0.0890 C   0  0  0  0  0  0  0  0  0  0  0  0
    0.9830   -0.5220   -0.0120 O   0  0  0  0  0  0  0  0  0  0  0  0
   -0.4000   -0.4980    0.0090 C   0  0  0  0  0  0  0  0  0  0  0  0
   -1.0210   -1.6330    0.2230 C   0  0  0  0  0  0  0  0  0  0  0  0
   -2.4790   -1.7550    0.2720 C   0  0  0  0  0  0  0  0  0  0  0  0
   -3.1220   -0.5390    0.0650 O   0  0  0  0  0  0  0  0  0  0  0  0
   -2.4800    0.6580   -0.1610 C   0  0  0  0  0  0  0  0  0  0  0  0
   -1.1370    0.7250   -0.1970 C   0  0  0  0  0  0  0  0  0  0  0  0
   -0.4490    1.9290   -0.4250 N   0  0  0  0  0  0  0  0  0  0  0  0
  1  2  1  0
  2  3  1  0
  3  4  1  0
  4  5  2  0
  4  9  1  0
  5  6  1  0
  6  7  1  0
  7  8  1  0
  8  9  2  0
  9 10  1  0
M  END
