
     RDKit          3D

 10 10  0  0  0  0  0  0  0  0999 V2000
    3.9650    0.1730   -1.0930 O   0  0  0  0  0  0  0  0  0  0  0  0
    3.1970    0.3030    0.0590 C   0  0  0  0  0  0  0  0  0  0  0  0
    1.7550    0.1220   -0.3260 C   0  0  0  0  0  0  0  0  0  0  0  0
    0.8820    0.2360    0.7810 O   0  0  0  0  0  0  0  0  0  0  0  0
   -0.4750    0.0840    0.5330 C   0  0  0  0  0  0  0  0  0  0  0  0
   -1.2800    1.0000    1.0390 C   0  0  0  0  0  0  0  0  0  0  0  0
   -2.7130    0.8690    0.7960 C   0  0  0  0  0  0  0  0  0  0  0  0
   -3.1920   -0.1500    0.0820 C   0  0  0  0  0  0  0  0  0  0  0  0
   -2.3310   -1.1370   -0.4630 N   0  0  0  0  0  0  0  0  0  0  0  0
   -0.9170   -1.0780   -0.2700 C   0  0  0  0  0  0  0  0  0  0  0  0
  1  2  1  0
  2  3  1  0
  3  4  1  0
  4  5  1  0
  5  6  2  0
  5 10  1  0
  6  7  1  0
  7  8  2  0
  8  9  1  0
  9 10  1  0
M  END
