
     RDKit          3D

 10 10  0  0  0  0  0  0  0  0999 V2000
    3.3160   -0.2990    0.7140 N   0  0  0  0  0  0  0  0  0  0  0  0
    2.4260   -0.1100   -0.3950 C   0  0  0  0  0  0  0  0  0  0  0  0
    1.1260    0.4780   -0.0140 C   0  0  0  0  0  0  0  0  0  0  0  0
   -0.0300   -0.1270   -0.2180 C   0  0  0  0  0  0  0  0  0  0  0  0
   -0.2780   -1.4660   -0.8440 C   0  0  0  0  0  0  0  0  0  0  0  0
   -1.5840   -1.3230   -1.3270 O   0  0  0  0  0  0  0  0  0  0  0  0
   -2.2820   -0.7430   -0.2540 C   0  0  0  0  0  0  0  0  0  0  0  0
   -1.3600    0.3610    0.1160 C   0  0  0  0  0  0  0  0  0  0  0  0
   -1.6390    1.5440    0.6380 C   0  0  0  0  0  0  0  0  0  0  0  0
   -2.9680    1.8370    0.8910 O   0  0  0  0  0  0  0  0  0  0  0  0
  1  2  1  0
  2  3  1  0
  3  4  2  3
  4  5  1  0
  4  8  1  0
  5  6  1  0
  6  7  1  0
  7  8  1  0
  8  9  2  3
  9 10  1  0
M  END
