
     RDKit          3D

 10 10  0  0  0  0  0  0  0  0999 V2000
   -3.6400   -0.3810   -0.5390 C   0  0  0  0  0  0  0  0  0  0  0  0
   -2.2050   -0.3600   -0.5970 O   0  0  0  0  0  0  0  0  0  0  0  0
   -1.4520    0.1680    0.4440 C   0  0  0  0  0  0  0  0  0  0  0  0
   -2.0360    0.6260    1.4350 O   0  0  0  0  0  0  0  0  0  0  0  0
   -0.0010    0.1480    0.2980 C   0  0  0  0  0  0  0  0  0  0  0  0
    0.8330    0.6160    1.2100 C   0  0  0  0  0  0  0  0  0  0  0  0
    2.2360    0.6090    1.0950 N   0  0  0  0  0  0  0  0  0  0  0  0
    2.8810    0.0740   -0.0610 C   0  0  0  0  0  0  0  0  0  0  0  0
    1.9410   -0.4370   -1.0540 C   0  0  0  0  0  0  0  0  0  0  0  0
    0.6510   -0.4000   -0.8850 C   0  0  0  0  0  0  0  0  0  0  0  0
  1  2  1  0
  2  3  1  0
  3  4  2  0
  3  5  1  0
  5  6  2  0
  5 10  1  0
  6  7  1  0
  7  8  1  0
  8  9  1  0
  9 10  2  0
M  END
