
     RDKit          3D

 10 10  0  0  0  0  0  0  0  0999 V2000
    0.6780    1.8950    0.3810 C   0  0  0  0  0  0  0  0  0  0  0  0
    1.0100    0.6340    0.4580 C   0  0  0  0  0  0  0  0  0  0  0  0
    2.3330    0.2870    0.8950 O   0  0  0  0  0  0  0  0  0  0  0  0
    2.6570   -0.9830    0.3440 C   0  0  0  0  0  0  0  0  0  0  0  0
    1.3280   -1.6520    0.5060 C   0  0  0  0  0  0  0  0  0  0  0  0
    1.0330   -2.8100    0.8280 O   0  0  0  0  0  0  0  0  0  0  0  0
    0.3010   -0.5870    0.1860 C   0  0  0  0  0  0  0  0  0  0  0  0
   -0.8870   -0.8340   -0.2290 C   0  0  0  0  0  0  0  0  0  0  0  0
   -2.0830   -0.1320   -0.6250 C   0  0  0  0  0  0  0  0  0  0  0  0
   -2.1870    1.2580   -0.6300 N   0  0  0  0  0  0  0  0  0  0  0  0
  1  2  2  0
  2  3  1  0
  2  7  1  0
  3  4  1  0
  4  5  1  0
  5  6  2  0
  5  7  1  0
  7  8  2  3
  8  9  1  0
  9 10  1  0
M  END
