
     RDKit          3D

 10 10  0  0  0  0  0  0  0  0999 V2000
    2.7310   -1.2390   -0.0200 N   0  0  0  0  0  0  0  0  0  0  0  0
    2.8400    0.1280    0.3400 C   0  0  0  0  0  0  0  0  0  0  0  0
    1.5730    0.8490    0.5300 C   0  0  0  0  0  0  0  0  0  0  0  0
    0.3580    0.3890    0.4130 C   0  0  0  0  0  0  0  0  0  0  0  0
    0.1480   -1.0320    0.0450 C   0  0  0  0  0  0  0  0  0  0  0  0
   -1.2100   -1.4030    0.0930 O   0  0  0  0  0  0  0  0  0  0  0  0
   -1.9870   -0.7050   -0.8160 C   0  0  0  0  0  0  0  0  0  0  0  0
   -2.7980    0.2870    0.0320 C   0  0  0  0  0  0  0  0  0  0  0  0
   -1.9550    1.5060    0.1690 C   0  0  0  0  0  0  0  0  0  0  0  0
   -0.6500    1.2910    0.6480 O   0  0  0  0  0  0  0  0  0  0  0  0
  1  2  1  0
  2  3  1  0
  3  4  2  3
  4  5  1  0
  4 10  1  0
  5  6  1  0
  6  7  1  0
  7  8  1  0
  8  9  1  0
  9 10  1  0
M  END
