
     RDKit          3D

 37 41  0  0  0  0  0  0  0  0999 V2000
   -4.0380    3.8580   -2.4370 C   0  0  0  0  0  0  0  0  0  0  0  0
   -3.8530    2.8240   -1.3050 C   0  0  1  0  0  0  0  0  0  0  0  0
   -5.2060    2.4000   -0.8450 C   0  0  0  0  0  0  0  0  0  0  0  0
   -2.9710    1.7310   -1.7890 C   0  0  0  0  0  0  0  0  0  0  0  0
   -2.6220    0.7000   -1.0260 O   0  0  0  0  0  0  0  0  0  0  0  0
   -3.0470   -0.3650   -0.3850 C   0  0  0  0  0  0  0  0  0  0  0  0
   -4.3170   -0.8650   -0.3230 C   0  0  0  0  0  0  0  0  0  0  0  0
   -4.6840   -2.0100    0.3820 C   0  0  0  0  0  0  0  0  0  0  0  0
   -3.7330   -2.7040    1.0690 C   0  0  0  0  0  0  0  0  0  0  0  0
   -4.0250   -3.8810    1.7830 N   0  0  0  0  0  0  0  0  0  0  0  0
   -5.2750   -4.4660    1.9820 C   0  0  0  0  0  0  0  0  0  0  0  0
   -6.3150   -3.9800    1.5260 O   0  0  0  0  0  0  0  0  0  0  0  0
   -2.4180   -2.2150    1.0230 C   0  0  0  0  0  0  0  0  0  0  0  0
   -2.0800   -1.0900    0.3250 C   0  0  0  0  0  0  0  0  0  0  0  0
   -0.6560   -0.7010    0.3580 C   0  0  1  0  0  0  0  0  0  0  0  0
   -0.2730    0.5520   -0.3050 C   0  0  0  0  0  0  0  0  0  0  0  0
    1.2080    0.7220   -0.1240 C   0  0  0  0  0  0  0  0  0  0  0  0
    1.6770    1.3990    0.8070 O   0  0  0  0  0  0  0  0  0  0  0  0
    2.0600    0.0800   -1.0560 N   0  0  0  0  0  0  0  0  0  0  0  0
    1.7050   -0.6780   -2.0990 N   0  0  0  0  0  0  0  0  0  0  0  0
    2.8070   -1.0960   -2.7350 C   0  0  0  0  0  0  0  0  0  0  0  0
    2.9110   -1.8190   -3.7510 O   0  0  0  0  0  0  0  0  0  0  0  0
    3.8870   -0.5740   -2.0560 C   0  0  0  0  0  0  0  0  0  0  0  0
    5.2640   -0.6490   -2.2260 C   0  0  0  0  0  0  0  0  0  0  0  0
    5.6710   -1.3330   -3.2000 O   0  0  0  0  0  0  0  0  0  0  0  0
    6.1260   -0.0230   -1.3930 N   0  0  0  0  0  0  0  0  0  0  0  0
    5.6940    0.7090   -0.3510 C   0  0  0  0  0  0  0  0  0  0  0  0
    6.6400    1.3790    0.5370 C   0  0  0  0  0  0  0  0  0  0  0  0
    6.3330    2.1550    1.6340 C   0  0  0  0  0  0  0  0  0  0  0  0
    7.5110    2.6060    2.2060 C   0  0  0  0  0  0  0  0  0  0  0  0
    8.5050    2.0640    1.4000 C   0  0  0  0  0  0  0  0  0  0  0  0
    7.9420    1.3630    0.4510 O   0  0  0  0  0  0  0  0  0  0  0  0
    4.3280    0.7940   -0.1660 C   0  0  0  0  0  0  0  0  0  0  0  0
    3.4240    0.1670   -0.9990 C   0  0  0  0  0  0  0  0  0  0  0  0
   -0.2010   -0.8310    1.7850 C   0  0  0  0  0  0  0  0  0  0  0  0
   -0.1120   -2.3300    2.0240 C   0  0  0  0  0  0  0  0  0  0  0  0
   -1.4260   -3.0240    1.8240 C   0  0  0  0  0  0  0  0  0  0  0  0
  2  1  1  6
  2  3  1  0
  2  4  1  0
  4  5  1  0
  5  6  1  0
  6  7  2  0
  6 14  1  0
  7  8  1  0
  8  9  2  0
  9 10  1  0
  9 13  1  0
 10 11  1  0
 11 12  2  0
 13 14  2  0
 13 37  1  0
 14 15  1  0
 15 16  1  1
 15 35  1  0
 16 17  1  0
 17 18  2  0
 17 19  1  0
 19 20  1  0
 19 34  1  0
 20 21  1  0
 21 22  2  0
 21 23  1  0
 23 24  1  0
 23 34  2  0
 24 25  2  0
 24 26  1  0
 26 27  1  0
 27 28  1  0
 27 33  2  0
 28 29  2  0
 28 32  1  0
 29 30  1  0
 30 31  2  0
 31 32  1  0
 33 34  1  0
 35 36  1  0
 36 37  1  0
M  END
