
     RDKit          3D

 37 42  0  0  0  0  0  0  0  0999 V2000
   -7.8360    0.4960    1.5820 O   0  0  0  0  0  0  0  0  0  0  0  0
   -7.5330    0.6770    0.3650 C   0  0  0  0  0  0  0  0  0  0  0  0
   -6.6170   -0.1820   -0.1750 O   0  0  0  0  0  0  0  0  0  0  0  0
   -5.9750   -1.2510    0.4900 C   0  0  1  0  0  0  0  0  0  0  0  0
   -6.1840   -2.5660   -0.1530 C   0  0  0  0  0  0  0  0  0  0  0  0
   -4.9680   -3.3610    0.3260 C   0  0  0  0  0  0  0  0  0  0  0  0
   -3.9590   -2.3920    0.5860 N   0  0  0  0  0  0  0  0  0  0  0  0
   -2.5610   -2.6810    0.8150 C   0  0  0  0  0  0  0  0  0  0  0  0
   -2.2180   -3.8650    0.7600 O   0  0  0  0  0  0  0  0  0  0  0  0
   -1.6410   -1.6640    1.0860 N   0  0  0  0  0  0  0  0  0  0  0  0
   -0.2750   -1.8250    1.3110 C   0  0  0  0  0  0  0  0  0  0  0  0
    0.4700   -0.8010    1.9150 C   0  0  0  0  0  0  0  0  0  0  0  0
    1.8180   -0.8940    2.1360 C   0  0  0  0  0  0  0  0  0  0  0  0
    2.5020   -2.0280    1.7620 C   0  0  0  0  0  0  0  0  0  0  0  0
    3.9530   -2.1190    2.0070 C   0  0  0  0  0  0  0  0  0  0  0  0
    4.6250   -1.3870    0.9130 C   0  0  0  0  0  0  0  0  0  0  0  0
    4.9400   -2.0170   -0.2660 C   0  0  0  0  0  0  0  0  0  0  0  0
    5.5760   -1.2970   -1.2840 C   0  0  0  0  0  0  0  0  0  0  0  0
    5.8780    0.0310   -1.0920 C   0  0  0  0  0  0  0  0  0  0  0  0
    5.5640    0.6650    0.0870 C   0  0  0  0  0  0  0  0  0  0  0  0
    4.9360   -0.0630    1.0820 C   0  0  0  0  0  0  0  0  0  0  0  0
    5.9060    2.0920    0.2420 C   0  0  0  0  0  0  0  0  0  0  0  0
    7.1480    2.3950   -0.4060 N   0  0  0  0  0  0  0  0  0  0  0  0
    8.1280    3.4510   -0.3090 C   0  0  0  0  0  0  0  0  0  0  0  0
    8.8240    3.4950   -1.4280 C   0  0  0  0  0  0  0  0  0  0  0  0
    8.3500    2.4990   -2.2960 N   0  0  0  0  0  0  0  0  0  0  0  0
    7.7030    1.5400   -1.4380 C   0  0  2  0  0  0  0  0  0  0  0  0
    6.5550    0.8210   -2.1490 C   0  0  0  0  0  0  0  0  0  0  0  0
    1.8160   -3.0610    1.1660 C   0  0  0  0  0  0  0  0  0  0  0  0
    0.4280   -2.9370    0.9510 C   0  0  0  0  0  0  0  0  0  0  0  0
   -4.5000   -1.0710    0.5770 C   0  0  0  0  0  0  0  0  0  0  0  0
   -8.1130    1.7360   -0.4370 C   0  0  0  0  0  0  0  0  0  0  0  0
   -7.7640    1.8630   -1.7600 C   0  0  0  0  0  0  0  0  0  0  0  0
   -8.2860    2.8580   -2.5600 C   0  0  0  0  0  0  0  0  0  0  0  0
   -9.2010    3.7850   -2.0460 C   0  0  0  0  0  0  0  0  0  0  0  0
   -9.5400    3.6420   -0.7160 C   0  0  0  0  0  0  0  0  0  0  0  0
   -9.0070    2.6330    0.0850 C   0  0  0  0  0  0  0  0  0  0  0  0
  1  2  2  0
  2  3  1  0
  2 32  1  0
  4  3  1  6
  4  5  1  0
  4 31  1  0
  5  6  1  0
  6  7  1  0
  7  8  1  0
  7 31  1  0
  8  9  2  0
  8 10  1  0
 10 11  1  0
 11 12  2  0
 11 30  1  0
 12 13  1  0
 13 14  2  0
 14 15  1  0
 14 29  1  0
 15 16  1  0
 16 17  2  0
 16 21  1  0
 17 18  1  0
 18 19  2  0
 19 20  1  0
 19 28  1  0
 20 21  2  0
 20 22  1  0
 22 23  1  0
 23 24  1  0
 23 27  1  0
 24 25  2  0
 25 26  1  0
 26 27  1  0
 27 28  1  6
 29 30  2  0
 32 33  2  0
 32 37  1  0
 33 34  1  0
 34 35  2  0
 35 36  1  0
 36 37  2  0
M  CHG  1  26   1
M  END
