
     RDKit          3D

 37 41  0  0  0  0  0  0  0  0999 V2000
   -7.3950    0.7810    1.8910 C   0  0  0  0  0  0  0  0  0  0  0  0
   -7.0260    0.3710    0.4850 C   0  0  1  0  0  0  0  0  0  0  0  0
   -7.0750   -1.1330    0.3470 C   0  0  0  0  0  0  0  0  0  0  0  0
   -8.0340    0.9430   -0.5010 C   0  0  0  0  0  0  0  0  0  0  0  0
   -5.7060    0.8100    0.0940 N   0  0  0  0  0  0  0  0  0  0  0  0
   -5.1560    1.8060    0.9480 C   0  0  0  0  0  0  0  0  0  0  0  0
   -3.6560    1.8340    0.7930 C   0  0  0  0  0  0  0  0  0  0  0  0
   -3.1330    0.4950    1.1530 C   0  0  0  0  0  0  0  0  0  0  0  0
   -2.3540   -0.2750    0.4290 C   0  0  0  0  0  0  0  0  0  0  0  0
   -1.8160    0.0030   -0.9040 C   0  0  0  0  0  0  0  0  0  0  0  0
   -2.6360    0.3710   -1.9430 C   0  0  0  0  0  0  0  0  0  0  0  0
   -2.1530    0.6540   -3.2030 C   0  0  0  0  0  0  0  0  0  0  0  0
   -0.8010    0.5690   -3.4440 C   0  0  0  0  0  0  0  0  0  0  0  0
    0.0620    0.1980   -2.4080 C   0  0  0  0  0  0  0  0  0  0  0  0
   -0.4310   -0.0800   -1.1620 C   0  0  0  0  0  0  0  0  0  0  0  0
    0.4150   -0.4070   -0.0670 C   0  0  0  0  0  0  0  0  0  0  0  0
    1.6750   -0.6590    0.1340 C   0  0  0  0  0  0  0  0  0  0  0  0
    2.8320   -0.7250   -0.6960 C   0  0  0  0  0  0  0  0  0  0  0  0
    4.0650   -1.0250   -0.2400 C   0  0  0  0  0  0  0  0  0  0  0  0
    5.1080   -1.0210   -1.2850 C   0  0  0  0  0  0  0  0  0  0  0  0
    6.3850   -0.5060   -0.8740 N   0  0  0  0  0  0  0  0  0  0  0  0
    7.3260   -0.1950   -1.9340 C   0  0  0  0  0  0  0  0  0  0  0  0
    7.1610   -0.3230   -3.1820 O   0  0  0  0  0  0  0  0  0  0  0  0
    8.5420    0.3100   -1.3080 C   0  0  0  0  0  0  0  0  0  0  0  0
    9.7280    0.7430   -1.8600 C   0  0  0  0  0  0  0  0  0  0  0  0
   10.7340    1.1780   -1.0290 C   0  0  0  0  0  0  0  0  0  0  0  0
   10.5290    1.1690    0.3440 C   0  0  0  0  0  0  0  0  0  0  0  0
    9.3440    0.7370    0.9010 C   0  0  0  0  0  0  0  0  0  0  0  0
    8.3440    0.3040    0.0530 C   0  0  0  0  0  0  0  0  0  0  0  0
    6.9970   -0.2050    0.3580 C   0  0  0  0  0  0  0  0  0  0  0  0
    6.5180   -0.3310    1.5410 N   0  0  0  0  0  0  0  0  0  0  0  0
    5.2730   -0.7940    1.9890 N   0  0  0  0  0  0  0  0  0  0  0  0
    4.2460   -1.3520    1.1480 C   0  0  0  0  0  0  0  0  0  0  0  0
    3.4520   -2.1870    1.6560 O   0  0  0  0  0  0  0  0  0  0  0  0
   -2.1130   -1.4490    1.1590 O   0  0  0  0  0  0  0  0  0  0  0  0
   -2.4860   -1.2870    2.5020 C   0  0  0  0  0  0  0  0  0  0  0  0
   -3.4710   -0.1400    2.4610 C   0  0  0  0  0  0  0  0  0  0  0  0
  2  1  1  1
  2  3  1  0
  2  4  1  0
  2  5  1  0
  5  6  1  0
  6  7  1  0
  7  8  1  0
  8  9  2  0
  8 37  1  0
  9 10  1  0
  9 35  1  0
 10 11  2  0
 10 15  1  0
 11 12  1  0
 12 13  2  0
 13 14  1  0
 14 15  2  0
 15 16  1  0
 16 17  2  3
 17 18  1  0
 18 19  2  3
 19 20  1  0
 19 33  1  0
 20 21  1  0
 21 22  1  0
 21 30  1  0
 22 23  2  0
 22 24  1  0
 24 25  2  0
 24 29  1  0
 25 26  1  0
 26 27  2  0
 27 28  1  0
 28 29  2  0
 29 30  1  0
 30 31  2  0
 31 32  1  0
 32 33  1  0
 33 34  2  0
 35 36  1  0
 36 37  1  0
M  CHG  1   5   1
M  END
