
     RDKit          3D

 37 42  0  0  0  0  0  0  0  0999 V2000
   -4.3290   -3.4120    1.3270 C   0  0  0  0  0  0  0  0  0  0  0  0
   -4.2330   -1.9390    1.4030 C   0  0  0  0  0  0  0  0  0  0  0  0
   -3.5550   -1.1450    0.5400 N   0  0  0  0  0  0  0  0  0  0  0  0
   -3.7210    0.1100    0.9600 C   0  0  0  0  0  0  0  0  0  0  0  0
   -3.1750    1.3540    0.3410 C   0  0  2  0  0  0  0  0  0  0  0  0
   -3.8510    1.6480   -0.9190 C   0  0  0  0  0  0  0  0  0  0  0  0
   -5.2330    1.8450   -0.9290 C   0  0  0  0  0  0  0  0  0  0  0  0
   -5.9270    2.1020   -2.0840 C   0  0  0  0  0  0  0  0  0  0  0  0
   -5.2900    2.1790   -3.3020 C   0  0  0  0  0  0  0  0  0  0  0  0
   -5.9920    2.4390   -4.4700 O   0  0  0  0  0  0  0  0  0  0  0  0
   -3.9030    1.9850   -3.3090 C   0  0  0  0  0  0  0  0  0  0  0  0
   -3.2270    1.7290   -2.1390 C   0  0  0  0  0  0  0  0  0  0  0  0
   -1.7360    1.5610   -2.2330 C   0  0  0  0  0  0  0  0  0  0  0  0
   -1.2020    2.1180   -0.9170 C   0  0  0  0  0  0  0  0  0  0  0  0
   -1.7220    1.2710    0.1260 N   0  0  0  0  0  0  0  0  0  0  0  0
   -0.9340    0.3990    0.9190 C   0  0  0  0  0  0  0  0  0  0  0  0
   -1.5260   -0.2530    1.8680 O   0  0  0  0  0  0  0  0  0  0  0  0
    0.4960    0.1080    0.8270 C   0  0  0  0  0  0  0  0  0  0  0  0
    1.1290    0.7470   -0.2250 O   0  0  0  0  0  0  0  0  0  0  0  0
    2.4570    0.6570   -0.5450 C   0  0  0  0  0  0  0  0  0  0  0  0
    3.0000    1.3300   -1.6110 C   0  0  0  0  0  0  0  0  0  0  0  0
    4.3310    1.2510   -1.9450 C   0  0  0  0  0  0  0  0  0  0  0  0
    5.1760    0.4410   -1.1540 C   0  0  0  0  0  0  0  0  0  0  0  0
    4.6650   -0.2480   -0.0830 C   0  0  0  0  0  0  0  0  0  0  0  0
    3.3240   -0.1400    0.2180 C   0  0  0  0  0  0  0  0  0  0  0  0
    5.4850   -1.1740    0.6990 C   0  0  0  0  0  0  0  0  0  0  0  0
    5.0140   -1.8060    1.8500 C   0  0  0  0  0  0  0  0  0  0  0  0
    5.8250   -2.6040    2.6240 C   0  0  0  0  0  0  0  0  0  0  0  0
    7.1370   -2.7690    2.2320 C   0  0  0  0  0  0  0  0  0  0  0  0
    7.6240   -2.1550    1.0980 C   0  0  0  0  0  0  0  0  0  0  0  0
    6.7900   -1.3450    0.3140 C   0  0  0  0  0  0  0  0  0  0  0  0
    7.3050   -0.7790   -0.9330 C   0  0  0  0  0  0  0  0  0  0  0  0
    6.6140    0.4210   -1.4410 C   0  0  0  0  0  0  0  0  0  0  0  0
   -4.4850    0.1110    2.0650 N   0  0  0  0  0  0  0  0  0  0  0  0
   -4.8280   -1.1390    2.3790 C   0  0  0  0  0  0  0  0  0  0  0  0
   -5.6430   -1.5400    3.4980 C   0  0  0  0  0  0  0  0  0  0  0  0
   -6.1130   -0.6660    4.3030 N   0  0  0  0  0  0  0  0  0  0  0  0
  1  2  1  0
  2  3  1  0
  2 35  2  0
  3  4  1  0
  5  4  1  6
  4 34  2  0
  5  6  1  0
  5 15  1  0
  6  7  2  0
  6 12  1  0
  7  8  1  0
  8  9  2  0
  9 10  1  0
  9 11  1  0
 11 12  2  0
 12 13  1  0
 13 14  1  0
 14 15  1  0
 15 16  1  0
 16 17  2  0
 16 18  1  0
 18 19  1  0
 19 20  1  0
 20 21  2  0
 20 25  1  0
 21 22  1  0
 22 23  2  0
 23 24  1  0
 23 33  1  0
 24 25  2  0
 24 26  1  0
 26 27  2  0
 26 31  1  0
 27 28  1  0
 28 29  2  0
 29 30  1  0
 30 31  2  0
 31 32  1  0
 32 33  1  0
 34 35  1  0
 35 36  1  0
 36 37  2  0
M  CHG  1  34   1
M  END
