
     RDKit          3D

 37 42  0  0  0  0  0  0  0  0999 V2000
   -2.8580    6.4040    1.4280 C   0  0  0  0  0  0  0  0  0  0  0  0
   -1.9750    5.2470    1.2660 N   0  0  0  0  0  0  0  0  0  0  0  0
   -2.4750    3.9910    0.8380 C   0  0  0  0  0  0  0  0  0  0  0  0
   -3.6980    3.8750    0.5940 O   0  0  0  0  0  0  0  0  0  0  0  0
   -1.6370    2.8160    0.6630 C   0  0  0  0  0  0  0  0  0  0  0  0
   -0.4100    2.7890    1.2730 C   0  0  0  0  0  0  0  0  0  0  0  0
    0.3810    1.6830    1.0830 C   0  0  0  0  0  0  0  0  0  0  0  0
   -0.0150    0.6270    0.3140 C   0  0  0  0  0  0  0  0  0  0  0  0
    0.8070   -0.4830    0.1340 N   0  0  0  0  0  0  0  0  0  0  0  0
    0.5410   -1.6430    0.9440 C   0  0  0  0  0  0  0  0  0  0  0  0
   -0.5880   -1.8040    1.4730 O   0  0  0  0  0  0  0  0  0  0  0  0
    1.5390   -2.6670    1.1900 C   0  0  0  0  0  0  0  0  0  0  0  0
    1.2760   -3.7770    1.9400 C   0  0  0  0  0  0  0  0  0  0  0  0
    2.2420   -4.7330    2.1340 C   0  0  0  0  0  0  0  0  0  0  0  0
    3.4690   -4.5680    1.5720 C   0  0  0  0  0  0  0  0  0  0  0  0
    3.7840   -3.4570    0.8030 C   0  0  0  0  0  0  0  0  0  0  0  0
    2.8150   -2.5060    0.6150 C   0  0  0  0  0  0  0  0  0  0  0  0
    3.0370   -1.3060   -0.1850 C   0  0  0  0  0  0  0  0  0  0  0  0
    4.3320   -1.0390   -0.1590 C   0  0  0  0  0  0  0  0  0  0  0  0
    4.9430    0.0900   -0.8530 C   0  0  0  0  0  0  0  0  0  0  0  0
    4.4230    1.2290   -1.2930 C   0  0  0  0  0  0  0  0  0  0  0  0
    5.3030    2.1950   -1.9680 C   0  0  0  0  0  0  0  0  0  0  0  0
    3.0300    1.5760   -1.1350 N   0  0  0  0  0  0  0  0  0  0  0  0
    2.2000    0.5500   -1.6370 C   0  0  0  0  0  0  0  0  0  0  0  0
    1.8960   -0.6280   -0.8110 C   0  0  2  0  0  0  0  0  0  0  0  0
   -1.2610    0.6340   -0.3150 C   0  0  0  0  0  0  0  0  0  0  0  0
   -1.7320   -0.4420   -1.1410 C   0  0  0  0  0  0  0  0  0  0  0  0
   -1.1660   -0.9780   -2.2410 N   0  0  0  0  0  0  0  0  0  0  0  0
   -1.9010   -1.9460   -2.6890 O   0  0  0  0  0  0  0  0  0  0  0  0
   -2.9700   -2.1000   -1.9280 C   0  0  0  0  0  0  0  0  0  0  0  0
   -4.0390   -2.9990   -2.0080 C   0  0  0  0  0  0  0  0  0  0  0  0
   -5.0470   -2.9680   -1.0910 C   0  0  0  0  0  0  0  0  0  0  0  0
   -4.9560   -2.0040   -0.0830 C   0  0  0  0  0  0  0  0  0  0  0  0
   -6.0270   -1.9370    0.9380 C   0  0  0  0  0  0  0  0  0  0  0  0
   -3.9030   -1.1180   -0.0060 C   0  0  0  0  0  0  0  0  0  0  0  0
   -2.8900   -1.1620   -0.9400 C   0  0  0  0  0  0  0  0  0  0  0  0
   -2.0470    1.7450   -0.1180 C   0  0  0  0  0  0  0  0  0  0  0  0
  1  2  1  0
  2  3  1  0
  3  4  2  0
  3  5  1  0
  5  6  2  0
  5 37  1  0
  6  7  1  0
  7  8  2  0
  8  9  1  0
  8 26  1  0
  9 10  1  0
  9 25  1  0
 10 11  2  0
 10 12  1  0
 12 13  2  0
 12 17  1  0
 13 14  1  0
 14 15  2  0
 15 16  1  0
 16 17  2  0
 17 18  1  0
 18 19  2  0
 18 25  1  0
 19 20  1  0
 20 21  2  0
 21 22  1  0
 21 23  1  0
 23 24  1  0
 25 24  1  1
 26 27  1  0
 26 37  2  0
 27 28  2  0
 27 36  1  0
 28 29  1  0
 29 30  1  0
 30 31  2  0
 30 36  1  0
 31 32  1  0
 32 33  2  0
 33 34  1  0
 33 35  1  0
 35 36  2  0
M  CHG  1  23   1
M  END
