
     RDKit          3D

 37 41  0  0  0  0  0  0  0  0999 V2000
    4.0640   -1.5770   -3.6500 C   0  0  0  0  0  0  0  0  0  0  0  0
    3.9410   -2.3950   -2.4500 N   0  0  0  0  0  0  0  0  0  0  0  0
    3.6580   -1.7540   -1.2110 C   0  0  0  0  0  0  0  0  0  0  0  0
    3.5020   -0.3880   -1.1490 C   0  0  0  0  0  0  0  0  0  0  0  0
    3.2220    0.2740    0.0510 C   0  0  0  0  0  0  0  0  0  0  0  0
    3.0920   -0.4340    1.2230 C   0  0  0  0  0  0  0  0  0  0  0  0
    2.8060    0.2020    2.5220 C   0  0  0  0  0  0  0  0  0  0  0  0
    3.3210    1.3260    2.9720 C   0  0  0  0  0  0  0  0  0  0  0  0
    4.3050    2.1780    2.2400 C   0  0  0  0  0  0  0  0  0  0  0  0
    2.7840    1.5720    4.2430 O   0  0  0  0  0  0  0  0  0  0  0  0
    1.5690    0.8870    4.3250 N   0  0  0  0  0  0  0  0  0  0  0  0
    1.8880   -0.2930    3.5770 C   0  0  1  0  0  0  0  0  0  0  0  0
    0.7100   -0.9800    3.0290 C   0  0  0  0  0  0  0  0  0  0  0  0
    0.0020   -0.4330    1.9430 C   0  0  0  0  0  0  0  0  0  0  0  0
   -1.0990   -1.0380    1.3990 C   0  0  0  0  0  0  0  0  0  0  0  0
   -1.8050   -0.4910    0.3100 C   0  0  0  0  0  0  0  0  0  0  0  0
   -1.3280    0.7280   -0.1820 N   0  0  0  0  0  0  0  0  0  0  0  0
   -1.8880    1.3890   -1.3210 C   0  0  0  0  0  0  0  0  0  0  0  0
   -2.8290    0.9580   -1.9770 O   0  0  0  0  0  0  0  0  0  0  0  0
   -1.3060    2.7100   -1.7790 C   0  0  0  0  0  0  0  0  0  0  0  0
   -2.0280    3.1190   -2.9130 O   0  0  0  0  0  0  0  0  0  0  0  0
   -3.3780    3.3640   -2.9620 C   0  0  0  0  0  0  0  0  0  0  0  0
   -4.0920    4.0560   -2.0820 C   0  0  0  0  0  0  0  0  0  0  0  0
   -5.4980    4.1040   -2.4670 C   0  0  0  0  0  0  0  0  0  0  0  0
   -6.4770    4.6510   -1.9070 O   0  0  0  0  0  0  0  0  0  0  0  0
   -5.5960    3.3930   -3.6440 O   0  0  0  0  0  0  0  0  0  0  0  0
   -4.3390    2.9140   -4.0030 C   0  0  0  0  0  0  0  0  0  0  0  0
   -2.9010   -1.1440   -0.2010 C   0  0  0  0  0  0  0  0  0  0  0  0
   -3.3200   -2.3510    0.3580 C   0  0  0  0  0  0  0  0  0  0  0  0
   -4.5010   -3.0800   -0.1720 C   0  0  0  0  0  0  0  0  0  0  0  0
   -2.6300   -2.8800    1.4180 C   0  0  0  0  0  0  0  0  0  0  0  0
   -1.5250   -2.2480    1.9530 C   0  0  0  0  0  0  0  0  0  0  0  0
   -0.8480   -2.7690    2.9900 N   0  0  0  0  0  0  0  0  0  0  0  0
    0.2320   -2.1690    3.5190 C   0  0  0  0  0  0  0  0  0  0  0  0
    0.8310   -2.7080    4.4960 O   0  0  0  0  0  0  0  0  0  0  0  0
    3.2490   -1.8030    1.1520 C   0  0  0  0  0  0  0  0  0  0  0  0
    3.5270   -2.4630   -0.0350 C   0  0  0  0  0  0  0  0  0  0  0  0
  1  2  1  0
  2  3  1  0
  3  4  2  0
  3 37  1  0
  4  5  1  0
  5  6  2  0
  6  7  1  0
  6 36  1  0
  7  8  2  0
  7 12  1  0
  8  9  1  0
  8 10  1  0
 10 11  1  0
 11 12  1  0
 12 13  1  6
 13 14  2  0
 13 34  1  0
 14 15  1  0
 15 16  2  0
 15 32  1  0
 16 17  1  0
 16 28  1  0
 17 18  1  0
 18 19  2  0
 18 20  1  0
 20 21  1  0
 21 22  1  0
 22 23  2  0
 22 27  1  0
 23 24  1  0
 24 25  2  0
 24 26  1  0
 26 27  1  0
 28 29  2  0
 29 30  1  0
 29 31  1  0
 31 32  2  0
 32 33  1  0
 33 34  1  0
 34 35  2  0
 36 37  2  0
M  END
