
     RDKit          3D

 29 31  0  0  0  0  0  0  0  0999 V2000
   -3.7640    1.6270   -1.9740 N   0  0  0  0  0  0  0  0  0  0  0  0
   -3.5550    1.7280   -0.6630 O   0  0  0  0  0  0  0  0  0  0  0  0
   -2.6260    0.7920   -0.1920 C   0  0  2  0  0  0  0  0  0  0  0  0
   -1.4350    1.0770   -0.9040 O   0  0  0  0  0  0  0  0  0  0  0  0
   -0.7700    1.9550   -0.1220 C   0  0  2  0  0  0  0  0  0  0  0  0
    0.1120    2.8270   -0.7470 O   0  0  0  0  0  0  0  0  0  0  0  0
    1.0080    3.1670    0.1490 O   0  0  0  0  0  0  0  0  0  0  0  0
    0.6700    2.6740    1.3160 O   0  0  0  0  0  0  0  0  0  0  0  0
    0.1580    1.3880    0.9100 C   0  0  2  0  0  0  0  0  0  0  0  0
    1.6600    0.5620    0.2040 P   0  0  0  0  0  0  0  0  0  0  0  0
    1.4830   -0.5150   -1.0180 C   0  0  0  0  0  0  0  0  0  0  0  0
    0.2370   -0.8060   -1.5190 O   0  0  0  0  0  0  0  0  0  0  0  0
    2.6480   -1.1690   -1.5800 C   0  0  0  0  0  0  0  0  0  0  0  0
    2.5340   -2.0080   -2.5290 O   0  0  0  0  0  0  0  0  0  0  0  0
    3.9400   -0.9360   -1.1370 O   0  0  0  0  0  0  0  0  0  0  0  0
    5.0540   -1.6160   -1.7350 C   0  0  0  0  0  0  0  0  0  0  0  0
    6.3200   -1.2230   -1.1180 C   0  0  0  0  0  0  0  0  0  0  0  0
    6.3580   -0.2790   -0.0630 N   0  0  0  0  0  0  0  0  0  0  0  0
    7.3960   -1.7200   -1.5180 O   0  0  0  0  0  0  0  0  0  0  0  0
   -0.3700    0.7140    1.9350 O   0  0  0  0  0  0  0  0  0  0  0  0
   -1.6520    0.2370    1.8900 C   0  0  2  0  0  0  0  0  0  0  0  0
   -2.1770    0.3460    3.3060 C   0  0  0  0  0  0  0  0  0  0  0  0
   -3.3330    0.0020    3.5880 O   0  0  0  0  0  0  0  0  0  0  0  0
   -1.3350    0.8370    4.2680 O   0  0  0  0  0  0  0  0  0  0  0  0
   -1.6550   -1.2580    1.6450 C   0  0  0  0  0  0  0  0  0  0  0  0
   -3.0210   -1.7280    1.2140 C   0  0  0  0  0  0  0  0  0  0  0  0
   -3.2150   -0.9430   -0.4930 P   0  0  0  0  0  0  0  0  0  0  0  0
   -4.8420   -1.0080   -1.0270 O   0  0  0  0  0  0  0  0  0  0  0  0
   -2.4870    0.9840    1.1370 O   0  0  0  0  0  0  0  0  0  0  0  0
  1  2  1  0
  3  2  1  6
  3  4  1  0
  3 27  1  0
  3 29  1  0
  5  4  1  6
  5  6  1  0
  5  9  1  0
  6  7  1  0
  7  8  1  0
  8  9  1  0
  9 10  1  6
  9 20  1  0
 10 11  2  3
 11 12  1  0
 11 13  1  0
 13 14  2  0
 13 15  1  0
 15 16  1  0
 16 17  1  0
 17 18  1  0
 17 19  2  0
 20 21  1  0
 21 22  1  1
 21 25  1  0
 21 29  1  0
 22 23  2  0
 22 24  1  0
 25 26  1  0
 26 27  1  0
 27 28  1  0
M  END
