
     RDKit          3D

 32 34  0  0  0  0  0  0  0  0999 V2000
    6.0570   -2.0170    1.4440 C   0  0  0  0  0  0  0  0  0  0  0  0
    5.7830   -0.9780    0.6870 C   0  0  0  0  0  0  0  0  0  0  0  0
    6.8210    0.0380    0.5160 C   0  0  0  0  0  0  0  0  0  0  0  0
    7.9340   -0.0680    1.0660 O   0  0  0  0  0  0  0  0  0  0  0  0
    6.5280    1.1330   -0.2830 O   0  0  0  0  0  0  0  0  0  0  0  0
    4.4810   -0.8650    0.0500 C   0  0  0  0  0  0  0  0  0  0  0  0
    3.6240   -1.7610    0.2260 O   0  0  0  0  0  0  0  0  0  0  0  0
    4.1790    0.2110   -0.7410 O   0  0  0  0  0  0  0  0  0  0  0  0
    2.9480    0.4020   -1.3950 C   0  0  0  0  0  0  0  0  0  0  0  0
    1.8140    0.4690   -0.4350 C   0  0  0  0  0  0  0  0  0  0  0  0
    2.0950    0.3500    0.7970 O   0  0  0  0  0  0  0  0  0  0  0  0
    0.4450    0.6620   -0.8880 C   0  0  0  0  0  0  0  0  0  0  0  0
    0.2440    0.7720   -2.1240 O   0  0  0  0  0  0  0  0  0  0  0  0
   -0.5570    0.7150    0.0550 O   0  0  0  0  0  0  0  0  0  0  0  0
   -1.8830    0.9050   -0.4210 C   0  0  1  0  0  0  0  0  0  0  0  0
   -1.8750    2.5300   -1.3260 P   0  0  0  0  0  0  0  0  0  0  0  0
   -3.3110    2.7360   -2.2700 O   0  0  0  0  0  0  0  0  0  0  0  0
   -1.7910    3.7830   -0.1070 O   0  0  0  0  0  0  0  0  0  0  0  0
   -2.1740   -0.1180   -1.2980 O   0  0  0  0  0  0  0  0  0  0  0  0
   -1.9410   -1.3870   -0.8220 C   0  0  2  0  0  0  0  0  0  0  0  0
   -1.0610   -2.1380   -1.5600 O   0  0  0  0  0  0  0  0  0  0  0  0
   -1.5490   -2.2580   -2.7680 O   0  0  0  0  0  0  0  0  0  0  0  0
   -3.1810   -2.1140   -0.6230 N   0  0  0  0  0  0  0  0  0  0  0  0
   -3.1930   -3.0060    0.4410 C   0  0  0  0  0  0  0  0  0  0  0  0
   -2.3860   -2.8250    1.4080 N   0  0  0  0  0  0  0  0  0  0  0  0
   -1.4440   -1.3500    1.0010 P   0  0  0  0  0  0  0  0  0  0  0  0
   -2.2840    0.0860    1.8300 C   0  0  0  0  0  0  0  0  0  0  0  0
   -2.9050    0.8980    0.6880 C   0  0  2  0  0  0  0  0  0  0  0  0
   -4.0910    0.2790    0.3370 O   0  0  0  0  0  0  0  0  0  0  0  0
   -5.0640    1.2560    0.3970 C   0  0  0  0  0  0  0  0  0  0  0  0
   -4.4160    2.4470    0.6240 O   0  0  0  0  0  0  0  0  0  0  0  0
   -3.2300    2.1800    1.1140 O   0  0  0  0  0  0  0  0  0  0  0  0
  1  2  2  0
  2  3  1  0
  2  6  1  0
  3  4  2  0
  3  5  1  0
  6  7  2  0
  6  8  1  0
  8  9  1  0
  9 10  1  0
 10 11  2  0
 10 12  1  0
 12 13  2  0
 12 14  1  0
 15 14  1  1
 15 16  1  0
 15 19  1  0
 15 28  1  0
 16 17  1  0
 16 18  1  0
 19 20  1  0
 20 21  1  6
 20 23  1  0
 20 26  1  0
 21 22  1  0
 23 24  1  0
 24 25  2  0
 25 26  1  0
 26 27  1  0
 28 27  1  1
 28 29  1  0
 28 32  1  0
 29 30  1  0
 30 31  1  0
 31 32  1  0
M  END
