
     RDKit          3D

 32 33  0  0  0  0  0  0  0  0999 V2000
    2.3490    0.2130   -1.8830 C   0  0  0  0  0  0  0  0  0  0  0  0
    1.5640    0.1000   -0.5670 C   0  0  1  0  0  0  0  0  0  0  0  0
    2.3400    0.9240    0.4390 C   0  0  0  0  0  0  0  0  0  0  0  0
    3.6290    0.3430    0.5370 O   0  0  0  0  0  0  0  0  0  0  0  0
    4.5710    1.2650    1.6960 P   0  0  0  0  0  0  0  0  0  0  0  0
    3.9330    0.9140    3.2630 O   0  0  0  0  0  0  0  0  0  0  0  0
    6.2190    0.7920    1.6390 O   0  0  0  0  0  0  0  0  0  0  0  0
    0.2760    0.5720   -0.7670 O   0  0  0  0  0  0  0  0  0  0  0  0
   -0.1920    1.8830   -0.5750 C   0  0  0  0  0  0  0  0  0  0  0  0
   -0.5990    2.6010   -1.5630 N   0  0  0  0  0  0  0  0  0  0  0  0
   -1.0550    3.8650   -1.4170 O   0  0  0  0  0  0  0  0  0  0  0  0
   -0.3070    4.9580   -1.3390 O   0  0  0  0  0  0  0  0  0  0  0  0
   -0.2290    2.4700    0.7580 C   0  0  0  0  0  0  0  0  0  0  0  0
   -0.7120    1.9000    1.8460 C   0  0  0  0  0  0  0  0  0  0  0  0
   -1.3070    0.5870    1.9520 C   0  0  0  0  0  0  0  0  0  0  0  0
   -0.7630   -0.2500    2.7520 O   0  0  0  0  0  0  0  0  0  0  0  0
   -2.5140    0.1280    1.1970 C   0  0  2  0  0  0  0  0  0  0  0  0
   -2.6880    0.7610   -0.0100 O   0  0  0  0  0  0  0  0  0  0  0  0
   -4.0740    0.7940   -0.1810 C   0  0  0  0  0  0  0  0  0  0  0  0
   -4.5450    0.9160    1.1090 O   0  0  0  0  0  0  0  0  0  0  0  0
   -3.6790    0.4070    1.9270 O   0  0  0  0  0  0  0  0  0  0  0  0
   -2.4090   -1.3200    1.0140 C   0  0  0  0  0  0  0  0  0  0  0  0
   -2.8850   -2.0910    1.8190 O   0  0  0  0  0  0  0  0  0  0  0  0
   -1.7080   -1.8700   -0.1760 C   0  0  2  0  0  0  0  0  0  0  0  0
   -2.4540   -3.1720   -0.5100 C   0  0  0  0  0  0  0  0  0  0  0  0
   -1.8880   -3.8660   -1.5430 O   0  0  0  0  0  0  0  0  0  0  0  0
   -0.4220   -2.0840    0.1830 O   0  0  0  0  0  0  0  0  0  0  0  0
    0.5820   -1.9980   -0.6900 C   0  0  2  0  0  0  0  0  0  0  0  0
    0.3600   -1.4920   -1.9850 N   0  0  0  0  0  0  0  0  0  0  0  0
    1.3430   -3.7090   -0.8610 P   0  0  0  0  0  0  0  0  0  0  0  0
    2.5020   -3.8430   -1.9100 O   0  0  0  0  0  0  0  0  0  0  0  0
    1.6020   -1.2130   -0.0970 O   0  0  0  0  0  0  0  0  0  0  0  0
  2  1  1  6
  2  3  1  0
  2  8  1  0
  2 32  1  0
  3  4  1  0
  4  5  1  0
  5  6  1  0
  5  7  1  0
  8  9  1  0
  9 10  2  3
  9 13  1  0
 10 11  1  0
 11 12  1  0
 13 14  2  0
 14 15  1  0
 15 16  2  0
 15 17  1  0
 17 18  1  6
 17 21  1  0
 17 22  1  0
 18 19  1  0
 19 20  1  0
 20 21  1  0
 22 23  2  0
 22 24  1  0
 24 25  1  1
 24 27  1  0
 25 26  1  0
 27 28  1  0
 28 29  1  6
 28 30  1  0
 28 32  1  0
 30 31  2  0
M  END
