
     RDKit          3D

 32 35  0  0  0  0  0  0  0  0999 V2000
   -1.4070    4.3150   -0.1820 C   0  0  0  0  0  0  0  0  0  0  0  0
   -0.6700    3.3890   -0.9050 O   0  0  0  0  0  0  0  0  0  0  0  0
   -1.4290    1.8580   -1.0900 P   0  0  0  0  0  0  0  0  0  0  0  0
   -2.8170    1.8650   -2.0940 O   0  0  0  0  0  0  0  0  0  0  0  0
   -1.6250    0.9600    0.4250 N   0  0  0  0  0  0  0  0  0  0  0  0
   -2.3750    1.5670    1.4990 C   0  0  0  0  0  0  0  0  0  0  0  0
   -3.3000    2.3700    1.2510 O   0  0  0  0  0  0  0  0  0  0  0  0
   -2.0410    1.1970    2.8130 O   0  0  0  0  0  0  0  0  0  0  0  0
   -1.6320   -0.0710    2.9480 O   0  0  0  0  0  0  0  0  0  0  0  0
   -0.6900   -0.4340    2.1350 N   0  0  0  0  0  0  0  0  0  0  0  0
   -1.0630   -0.3270    0.6610 C   0  0  2  0  0  0  0  0  0  0  0  0
    0.3050   -0.5140    0.0660 C   0  0  0  0  0  0  0  0  0  0  0  0
    1.2110    0.6300   -0.0450 C   0  0  0  0  0  0  0  0  0  0  0  0
    2.5490    0.0830   -0.0840 O   0  0  0  0  0  0  0  0  0  0  0  0
    3.0500    0.5690    1.0540 O   0  0  0  0  0  0  0  0  0  0  0  0
    4.6730    0.8790    1.0670 P   0  0  0  0  0  0  0  0  0  0  0  0
    5.4770    0.4930   -0.5490 C   0  0  0  0  0  0  0  0  0  0  0  0
    4.8680    2.5870    1.4780 O   0  0  0  0  0  0  0  0  0  0  0  0
    0.7940   -1.7420    0.0240 C   0  0  0  0  0  0  0  0  0  0  0  0
    2.4640   -2.0120   -0.6980 P   0  0  0  0  0  0  0  0  0  0  0  0
    2.1830   -2.4890   -2.3660 O   0  0  0  0  0  0  0  0  0  0  0  0
    3.2130   -3.3620    0.0750 O   0  0  0  0  0  0  0  0  0  0  0  0
    0.0850   -2.8350    0.5010 O   0  0  0  0  0  0  0  0  0  0  0  0
   -1.1560   -2.6900    1.0140 C   0  0  0  0  0  0  0  0  0  0  0  0
   -1.7090   -3.2970    1.8840 O   0  0  0  0  0  0  0  0  0  0  0  0
   -1.8800   -1.5150    0.3740 C   0  0  1  0  0  0  0  0  0  0  0  0
   -3.3010   -1.4350    0.8400 C   0  0  0  0  0  0  0  0  0  0  0  0
   -3.8700   -0.6710   -0.2120 O   0  0  0  0  0  0  0  0  0  0  0  0
   -3.3800   -1.3010   -1.3730 C   0  0  2  0  0  0  0  0  0  0  0  0
   -3.2130   -2.6780   -1.2810 O   0  0  0  0  0  0  0  0  0  0  0  0
   -2.0920   -1.7340   -1.1090 C   0  0  2  0  0  0  0  0  0  0  0  0
   -1.0680   -2.0500   -1.9470 O   0  0  0  0  0  0  0  0  0  0  0  0
  1  2  1  0
  2  3  1  0
  3  4  1  0
  3  5  1  0
  5  6  1  0
  5 11  1  0
  6  7  2  0
  6  8  1  0
  8  9  1  0
  9 10  1  0
 11 10  1  1
 11 12  1  0
 11 26  1  0
 12 13  1  0
 12 19  2  0
 13 14  1  0
 14 15  1  0
 15 16  1  0
 16 17  1  0
 16 18  1  0
 19 20  1  0
 19 23  1  0
 20 21  1  0
 20 22  1  0
 23 24  1  0
 24 25  2  0
 24 26  1  0
 26 27  1  1
 26 31  1  0
 27 28  1  0
 29 28  1  1
 29 30  1  0
 29 31  1  0
 30 31  1  0
 31 32  1  6
M  END
