
     RDKit          3D

 30 31  0  0  0  0  0  0  0  0999 V2000
   -2.6040    1.5290   -2.9480 C   0  0  0  0  0  0  0  0  0  0  0  0
   -1.6630    0.7600   -2.2580 O   0  0  0  0  0  0  0  0  0  0  0  0
   -2.0140    0.6710   -0.9140 C   0  0  1  0  0  0  0  0  0  0  0  0
   -3.3570    0.0310   -0.7720 C   0  0  0  0  0  0  0  0  0  0  0  0
   -4.3710    0.6560   -0.6080 O   0  0  0  0  0  0  0  0  0  0  0  0
   -3.2950   -1.8080   -0.8750 P   0  0  0  0  0  0  0  0  0  0  0  0
   -4.0230   -2.3680   -2.3370 O   0  0  0  0  0  0  0  0  0  0  0  0
   -1.5960   -2.1690   -0.8210 O   0  0  0  0  0  0  0  0  0  0  0  0
   -1.0550   -1.4030    0.1930 C   0  0  2  0  0  0  0  0  0  0  0  0
    0.2340   -1.8480    0.5360 O   0  0  0  0  0  0  0  0  0  0  0  0
   -1.8730   -1.6310    1.4060 C   0  0  0  0  0  0  0  0  0  0  0  0
   -1.2840   -2.1940    2.5920 N   0  0  0  0  0  0  0  0  0  0  0  0
   -3.0960   -1.3680    1.5090 O   0  0  0  0  0  0  0  0  0  0  0  0
   -0.9500    0.0560   -0.0590 C   0  0  1  0  0  0  0  0  0  0  0  0
    0.4280    0.5150   -0.4520 C   0  0  2  0  0  0  0  0  0  0  0  0
    0.9540    0.0080   -1.7460 C   0  0  0  0  0  0  0  0  0  0  0  0
    1.0490   -1.3730   -1.8550 O   0  0  0  0  0  0  0  0  0  0  0  0
    1.3680    0.0620    0.5560 O   0  0  0  0  0  0  0  0  0  0  0  0
    2.7140    0.3700    0.4070 C   0  0  0  0  0  0  0  0  0  0  0  0
    3.1230    1.5640   -0.1880 O   0  0  0  0  0  0  0  0  0  0  0  0
    3.6750   -0.4430    0.8150 C   0  0  0  0  0  0  0  0  0  0  0  0
    5.1170   -0.1310    0.6640 C   0  0  0  0  0  0  0  0  0  0  0  0
    3.3220   -1.6360    1.4090 O   0  0  0  0  0  0  0  0  0  0  0  0
    3.9720   -2.1790    2.4930 N   0  0  0  0  0  0  0  0  0  0  0  0
    0.5300    1.9100   -0.4410 O   0  0  0  0  0  0  0  0  0  0  0  0
   -0.3790    2.7720    0.1360 C   0  0  0  0  0  0  0  0  0  0  0  0
   -0.1260    3.7030    0.9230 O   0  0  0  0  0  0  0  0  0  0  0  0
   -2.1230    2.4740   -0.3370 P   0  0  0  0  0  0  0  0  0  0  0  0
   -3.0390    2.3890    1.1600 O   0  0  0  0  0  0  0  0  0  0  0  0
   -3.4940    3.5460    1.5170 O   0  0  0  0  0  0  0  0  0  0  0  0
  1  2  1  0
  3  2  1  6
  3  4  1  0
  3 14  1  0
  3 28  1  0
  4  5  2  0
  4  6  1  0
  6  7  1  0
  6  8  1  0
  8  9  1  0
  9 10  1  1
  9 11  1  0
 14  9  1  6
 11 12  1  0
 11 13  2  0
 14 15  1  0
 15 16  1  6
 15 18  1  0
 15 25  1  0
 16 17  1  0
 18 19  1  0
 19 20  1  0
 19 21  2  3
 21 22  1  0
 21 23  1  0
 23 24  1  0
 25 26  1  0
 26 27  2  0
 26 28  1  0
 28 29  1  0
 29 30  1  0
M  END
