
     RDKit          3D

 32 34  0  0  0  0  0  0  0  0999 V2000
    1.8540   -0.4430   -2.3110 C   0  0  0  0  0  0  0  0  0  0  0  0
    0.5370   -0.3570   -1.5640 C   0  0  1  0  0  0  0  0  0  0  0  0
    0.3850    0.4120   -0.5630 O   0  0  0  0  0  0  0  0  0  0  0  0
    0.7740    0.7230    0.6070 C   0  0  0  0  0  0  0  0  0  0  0  0
    2.1890    1.1790    0.8900 C   0  0  1  0  0  0  0  0  0  0  0  0
    2.5660    2.2840    0.1510 O   0  0  0  0  0  0  0  0  0  0  0  0
    2.2780    1.7060    2.3530 C   0  0  0  0  0  0  0  0  0  0  0  0
    3.3460    2.5660    2.4910 O   0  0  0  0  0  0  0  0  0  0  0  0
    4.7560    2.1000    1.6190 P   0  0  0  0  0  0  0  0  0  0  0  0
    5.0660    3.1080    0.2500 O   0  0  0  0  0  0  0  0  0  0  0  0
    4.5230    0.4530    1.0350 O   0  0  0  0  0  0  0  0  0  0  0  0
    3.1760    0.0740    0.9030 C   0  0  0  0  0  0  0  0  0  0  0  0
    2.8930   -1.1390    0.8090 O   0  0  0  0  0  0  0  0  0  0  0  0
   -0.2840    0.3670   -2.6310 N   0  0  0  0  0  0  0  0  0  0  0  0
   -1.5600    0.2460   -2.5820 C   0  0  0  0  0  0  0  0  0  0  0  0
   -2.6390    0.7160   -3.3250 O   0  0  0  0  0  0  0  0  0  0  0  0
   -3.7910    0.3500   -2.7420 O   0  0  0  0  0  0  0  0  0  0  0  0
   -3.5200   -0.8580   -2.0950 C   0  0  0  0  0  0  0  0  0  0  0  0
   -2.1560   -0.5750   -1.5080 C   0  0  2  0  0  0  0  0  0  0  0  0
   -2.3100    0.2590   -0.3660 O   0  0  0  0  0  0  0  0  0  0  0  0
   -2.8590   -0.2640    0.8150 C   0  0  0  0  0  0  0  0  0  0  0  0
   -3.1890   -1.4720    0.7910 O   0  0  0  0  0  0  0  0  0  0  0  0
   -3.0420    0.5670    2.0410 C   0  0  2  0  0  0  0  0  0  0  0  0
   -4.4300    0.5760    2.4650 N   0  0  0  0  0  0  0  0  0  0  0  0
   -2.6020    1.8690    1.8230 O   0  0  0  0  0  0  0  0  0  0  0  0
   -1.4370   -1.6730   -1.1850 O   0  0  0  0  0  0  0  0  0  0  0  0
   -0.1180   -1.7140   -1.6230 C   0  0  2  0  0  0  0  0  0  0  0  0
    0.5610   -2.8130   -0.9610 C   0  0  0  0  0  0  0  0  0  0  0  0
    1.7670   -3.1660   -1.1700 O   0  0  0  0  0  0  0  0  0  0  0  0
   -0.0910   -3.6070    0.0060 O   0  0  0  0  0  0  0  0  0  0  0  0
    0.6900   -4.9310    0.8200 P   0  0  0  0  0  0  0  0  0  0  0  0
    1.6650   -4.7120    2.0310 O   0  0  0  0  0  0  0  0  0  0  0  0
  2  1  1  6
  2  3  1  0
  2 14  1  0
  2 27  1  0
  3  4  1  0
  4  5  1  0
  5  6  1  6
  5  7  1  0
  5 12  1  0
  7  8  1  0
  8  9  1  0
  9 10  1  0
  9 11  1  0
 11 12  1  0
 12 13  2  0
 14 15  2  0
 15 16  1  0
 15 19  1  0
 16 17  1  0
 17 18  1  0
 18 19  1  0
 19 20  1  1
 19 26  1  0
 20 21  1  0
 21 22  2  0
 21 23  1  0
 23 24  1  6
 23 25  1  0
 26 27  1  0
 27 28  1  1
 28 29  2  0
 28 30  1  0
 30 31  1  0
 31 32  2  0
M  END
