
     RDKit          3D

 32 34  0  0  0  0  0  0  0  0999 V2000
    6.0050   -0.2770   -1.6030 C   0  0  0  0  0  0  0  0  0  0  0  0
    5.6030    0.8650   -0.9840 O   0  0  0  0  0  0  0  0  0  0  0  0
    4.7190    0.7740    0.0450 C   0  0  1  0  0  0  0  0  0  0  0  0
    5.1930   -0.0010    1.1120 O   0  0  0  0  0  0  0  0  0  0  0  0
    4.6100    2.0880    0.5910 O   0  0  0  0  0  0  0  0  0  0  0  0
    3.3090    0.3970   -0.3200 C   0  0  1  0  0  0  0  0  0  0  0  0
    3.2870   -0.8200   -0.9020 O   0  0  0  0  0  0  0  0  0  0  0  0
    2.1320   -1.1110   -1.5080 O   0  0  0  0  0  0  0  0  0  0  0  0
    1.0370   -1.4010   -0.1770 P   0  0  0  0  0  0  0  0  0  0  0  0
   -0.5900   -0.8040   -0.5160 N   0  0  0  0  0  0  0  0  0  0  0  0
   -1.7930   -1.3070    0.0860 C   0  0  0  0  0  0  0  0  0  0  0  0
   -2.7290   -0.3890    0.0540 C   0  0  0  0  0  0  0  0  0  0  0  0
   -3.9870   -0.6700    0.5890 O   0  0  0  0  0  0  0  0  0  0  0  0
   -4.4480   -1.9870    0.8090 C   0  0  2  0  0  0  0  0  0  0  0  0
   -5.5380   -2.0050    1.8570 C   0  0  0  0  0  0  0  0  0  0  0  0
   -3.3760   -2.8280    1.2080 O   0  0  0  0  0  0  0  0  0  0  0  0
   -2.1100   -2.6060    0.6920 C   0  0  0  0  0  0  0  0  0  0  0  0
   -1.2520   -3.5210    0.7500 O   0  0  0  0  0  0  0  0  0  0  0  0
   -2.1750    0.8230   -0.5980 C   0  0  2  0  0  0  0  0  0  0  0  0
   -1.7040    1.7180    0.4760 C   0  0  0  0  0  0  0  0  0  0  0  0
   -2.1170    2.8560    0.5980 O   0  0  0  0  0  0  0  0  0  0  0  0
   -3.1220    1.4430   -1.4180 O   0  0  0  0  0  0  0  0  0  0  0  0
   -4.1370    1.7750   -0.6440 O   0  0  0  0  0  0  0  0  0  0  0  0
   -4.7960    2.8100   -1.2070 N   0  0  0  0  0  0  0  0  0  0  0  0
   -1.0370    0.2460   -1.4100 C   0  0  1  0  0  0  0  0  0  0  0  0
    0.0460    1.2680   -1.6630 C   0  0  0  0  0  0  0  0  0  0  0  0
   -0.3650    2.2710   -2.5080 O   0  0  0  0  0  0  0  0  0  0  0  0
    1.8450   -0.5000    1.2610 C   0  0  1  0  0  0  0  0  0  0  0  0
    2.6510   -1.3680    1.9870 O   0  0  0  0  0  0  0  0  0  0  0  0
    2.0900   -1.6220    3.5980 P   0  0  0  0  0  0  0  0  0  0  0  0
    1.5820   -3.0040    4.1000 O   0  0  0  0  0  0  0  0  0  0  0  0
    2.4870    0.5900    0.7620 O   0  0  0  0  0  0  0  0  0  0  0  0
  1  2  1  0
  2  3  1  0
  3  4  1  1
  3  5  1  0
  3  6  1  0
  6  7  1  1
  6 32  1  0
  7  8  1  0
  8  9  1  0
  9 10  1  0
  9 28  1  0
 10 11  1  0
 10 25  1  0
 11 12  2  0
 11 17  1  0
 12 13  1  0
 12 19  1  0
 13 14  1  0
 14 15  1  1
 14 16  1  0
 16 17  1  0
 17 18  2  0
 19 20  1  0
 19 22  1  6
 19 25  1  0
 20 21  2  0
 22 23  1  0
 23 24  1  0
 25 26  1  1
 26 27  1  0
 28 29  1  6
 28 32  1  0
 29 30  1  0
 30 31  2  0
M  END
