
     RDKit          3D

 11 12  0  0  0  0  0  0  0  0999 V2000
    3.6040   -0.2360   -0.7520 O   0  0  0  0  0  0  0  0  0  0  0  0
    2.3580   -0.1550   -0.4920 C   0  0  0  0  0  0  0  0  0  0  0  0
    1.5460   -1.1920   -0.2430 N   0  0  0  0  0  0  0  0  0  0  0  0
    0.3090   -0.7320   -0.0120 C   0  0  0  0  0  0  0  0  0  0  0  0
   -0.9140   -1.3220    0.2920 C   0  0  0  0  0  0  0  0  0  0  0  0
   -2.0250   -0.5250    0.4710 C   0  0  0  0  0  0  0  0  0  0  0  0
   -1.9900    0.8110    0.3650 N   0  0  0  0  0  0  0  0  0  0  0  0
   -3.1520    1.5460    0.5600 O   0  0  0  0  0  0  0  0  0  0  0  0
   -0.8220    1.4040    0.0730 C   0  0  0  0  0  0  0  0  0  0  0  0
    0.3230    0.6430   -0.1160 C   0  0  0  0  0  0  0  0  0  0  0  0
    1.6090    0.9560   -0.4140 N   0  0  0  0  0  0  0  0  0  0  0  0
  1  2  2  0
  2  3  1  0
  2 11  1  0
  3  4  1  0
  4  5  2  0
  4 10  1  0
  5  6  1  0
  6  7  2  0
  7  8  1  0
  7  9  1  0
  9 10  2  0
 10 11  1  0
M  CHG  2   7   1   8  -1
M  END
