
     RDKit          3D

 11 11  0  0  0  0  0  0  0  0999 V2000
    3.0740   -0.4170    0.2700 N   0  0  0  0  0  0  0  0  0  0  0  0
    1.6810   -0.5380    0.4650 C   0  0  0  0  0  0  0  0  0  0  0  0
    0.8080    0.1840   -0.2190 C   0  0  0  0  0  0  0  0  0  0  0  0
   -0.6260    0.0270    0.0140 C   0  0  0  0  0  0  0  0  0  0  0  0
   -1.1860   -0.8500    0.9290 C   0  0  0  0  0  0  0  0  0  0  0  0
   -2.5560   -0.7070    0.8560 C   0  0  0  0  0  0  0  0  0  0  0  0
   -2.8220    0.2510   -0.0980 C   0  0  0  0  0  0  0  0  0  0  0  0
   -1.6340    0.6610   -0.5740 N   0  0  0  0  0  0  0  0  0  0  0  0
    1.2270    1.1220   -1.1870 N   0  0  0  0  0  0  0  0  0  0  0  0
    1.6740    2.2140   -0.8160 O   0  0  0  0  0  0  0  0  0  0  0  0
    1.1350    0.8150   -2.5130 O   0  0  0  0  0  0  0  0  0  0  0  0
  1  2  1  0
  2  3  2  3
  3  4  1  0
  3  9  1  0
  4  5  2  0
  4  8  1  0
  5  6  1  0
  6  7  2  0
  7  8  1  0
  9 10  2  0
  9 11  1  0
M  CHG  2   9   1  11  -1
M  END
