
     RDKit          3D

 11 11  0  0  0  0  0  0  0  0999 V2000
   -2.3360    1.8720   -0.7790 N   0  0  0  0  0  0  0  0  0  0  0  0
   -1.3900    0.9310   -0.3580 C   0  0  0  0  0  0  0  0  0  0  0  0
   -0.1500    1.1490   -0.6890 N   0  0  0  0  0  0  0  0  0  0  0  0
    1.0350    0.3720   -0.4070 C   0  0  0  0  0  0  0  0  0  0  0  0
    2.0600    1.1160   -0.2200 N   0  0  0  0  0  0  0  0  0  0  0  0
    1.9710    2.4690   -0.2940 O   0  0  0  0  0  0  0  0  0  0  0  0
    3.3250    0.6110    0.0690 O   0  0  0  0  0  0  0  0  0  0  0  0
    1.3370   -1.0440   -0.2990 C   0  0  0  0  0  0  0  0  0  0  0  0
    0.3360   -1.8760    0.5690 C   0  0  0  0  0  0  0  0  0  0  0  0
   -0.8490   -1.1380    0.5480 C   0  0  0  0  0  0  0  0  0  0  0  0
   -1.9490   -0.2520    0.4580 C   0  0  0  0  0  0  0  0  0  0  0  0
  1  2  1  0
  2  3  2  0
  2 11  1  0
  3  4  1  0
  4  5  2  3
  4  8  1  0
  5  6  1  0
  5  7  1  0
  8  9  1  0
  9 10  1  0
 10 11  1  0
M  CHG  2   5   1   6  -1
M  END
