
     RDKit          3D

 11 11  0  0  0  0  0  0  0  0999 V2000
   -1.6210   -1.0370   -0.0500 C   0  0  0  0  0  0  0  0  0  0  0  0
   -0.8280    0.2510    0.0370 C   0  0  2  0  0  0  0  0  0  0  0  0
   -1.2370    1.1870   -1.0610 C   0  0  0  0  0  0  0  0  0  0  0  0
    0.6360   -0.0420    0.0290 C   0  0  0  0  0  0  0  0  0  0  0  0
    1.5620    0.9080    0.2070 N   0  0  0  0  0  0  0  0  0  0  0  0
    2.7950    0.3670    0.1590 C   0  0  0  0  0  0  0  0  0  0  0  0
    2.6250   -0.9750   -0.0600 C   0  0  0  0  0  0  0  0  0  0  0  0
    1.2990   -1.1850   -0.1340 N   0  0  0  0  0  0  0  0  0  0  0  0
   -1.1660    0.8510    1.3050 N   0  0  0  0  0  0  0  0  0  0  0  0
   -1.8120    1.8820    1.3540 O   0  0  0  0  0  0  0  0  0  0  0  0
   -0.7550    0.2280    2.4660 O   0  0  0  0  0  0  0  0  0  0  0  0
  2  1  1  6
  2  3  1  0
  2  4  1  0
  2  9  1  0
  4  5  2  0
  4  8  1  0
  5  6  1  0
  6  7  2  0
  7  8  1  0
  9 10  2  0
  9 11  1  0
M  CHG  2   9   1  11  -1
M  END
