
     RDKit          3D

 11 10  0  0  0  0  0  0  0  0999 V2000
   -0.6200    1.4400    1.6040 C   0  0  0  0  0  0  0  0  0  0  0  0
   -0.8570    0.2580    0.6940 C   0  0  0  0  0  0  0  0  0  0  0  0
   -2.0270   -0.3270    0.8090 C   0  0  0  0  0  0  0  0  0  0  0  0
   -2.5120   -1.4370    0.0940 N   0  0  0  0  0  0  0  0  0  0  0  0
    0.1390   -0.1950   -0.2370 C   0  0  0  0  0  0  0  0  0  0  0  0
    1.3310    0.3070   -0.4370 C   0  0  0  0  0  0  0  0  0  0  0  0
    2.2180   -0.3040   -1.4480 C   0  0  0  0  0  0  0  0  0  0  0  0
    1.8090    1.4120    0.2730 N   0  0  0  0  0  0  0  0  0  0  0  0
   -0.1940   -1.3370   -1.0560 N   0  0  0  0  0  0  0  0  0  0  0  0
    0.3090   -2.4130   -0.7450 O   0  0  0  0  0  0  0  0  0  0  0  0
   -1.0280   -1.1140   -2.1100 O   0  0  0  0  0  0  0  0  0  0  0  0
  1  2  1  0
  2  3  2  3
  2  5  1  0
  3  4  1  0
  5  6  2  3
  5  9  1  0
  6  7  1  0
  6  8  1  0
  9 10  2  0
  9 11  1  0
M  CHG  2   9   1  11  -1
M  END
