
     RDKit          3D

 11 11  0  0  0  0  0  0  0  0999 V2000
   -2.5630    0.2170   -0.6700 C   0  0  0  0  0  0  0  0  0  0  0  0
   -1.8380   -0.9160    0.0510 C   0  0  0  0  0  0  0  0  0  0  0  0
   -0.5540   -0.3750    0.5690 C   0  0  0  0  0  0  0  0  0  0  0  0
   -0.2950    0.0120    1.8520 N   0  0  0  0  0  0  0  0  0  0  0  0
    0.9550    0.4490    1.9400 N   0  0  0  0  0  0  0  0  0  0  0  0
    1.5670    0.3740    0.7500 C   0  0  0  0  0  0  0  0  0  0  0  0
    2.9580    0.7560    0.3820 C   0  0  0  0  0  0  0  0  0  0  0  0
    0.6140   -0.1500   -0.1260 C   0  0  0  0  0  0  0  0  0  0  0  0
    0.8370   -0.4060   -1.5200 N   0  0  0  0  0  0  0  0  0  0  0  0
    1.9560   -0.2040   -2.0190 O   0  0  0  0  0  0  0  0  0  0  0  0
   -0.1550   -0.8800   -2.3250 O   0  0  0  0  0  0  0  0  0  0  0  0
  1  2  1  0
  2  3  1  0
  3  4  1  0
  3  8  2  0
  4  5  1  0
  5  6  2  0
  6  7  1  0
  6  8  1  0
  8  9  1  0
  9 10  2  0
  9 11  1  0
M  CHG  2   9   1  11  -1
M  END
