
     RDKit          3D

 35 40  0  0  0  0  0  0  0  0999 V2000
   -6.7650    1.3800   -2.1220 O   0  0  0  0  0  0  0  0  0  0  0  0
   -7.1910    2.2970   -1.3880 C   0  0  0  0  0  0  0  0  0  0  0  0
   -7.4390    3.5410   -1.9400 O   0  0  0  0  0  0  0  0  0  0  0  0
   -7.4120    1.9970    0.0640 C   0  0  1  0  0  0  0  0  0  0  0  0
   -8.0380    0.5950    0.3330 C   0  0  0  0  0  0  0  0  0  0  0  0
   -6.6530    0.9360    0.7370 C   0  0  1  0  0  0  0  0  0  0  0  0
   -5.4720    0.2630    0.0750 C   0  0  0  0  0  0  0  0  0  0  0  0
   -4.6910   -0.3550    1.2160 C   0  0  1  0  0  0  0  0  0  0  0  0
   -3.2270   -0.3760    0.9710 C   0  0  0  0  0  0  0  0  0  0  0  0
   -2.5150   -1.5260    0.7170 C   0  0  0  0  0  0  0  0  0  0  0  0
   -1.1530   -1.4660    0.5020 C   0  0  0  0  0  0  0  0  0  0  0  0
   -0.4550   -0.2760    0.5300 C   0  0  0  0  0  0  0  0  0  0  0  0
    0.9130   -0.2410    0.3100 O   0  0  0  0  0  0  0  0  0  0  0  0
    1.5860   -1.4360    0.0570 C   0  0  0  0  0  0  0  0  0  0  0  0
    3.0290   -1.2750   -0.1570 C   0  0  0  0  0  0  0  0  0  0  0  0
    3.6820   -0.0600   -0.1150 C   0  0  0  0  0  0  0  0  0  0  0  0
    5.0390    0.0310   -0.3230 C   0  0  0  0  0  0  0  0  0  0  0  0
    5.7560    1.2970   -0.2840 C   0  0  0  0  0  0  0  0  0  0  0  0
    7.1150    1.3330   -0.5000 C   0  0  0  0  0  0  0  0  0  0  0  0
    7.8390    2.5190   -0.4720 C   0  0  0  0  0  0  0  0  0  0  0  0
    7.1800    3.6960   -0.2210 C   0  0  0  0  0  0  0  0  0  0  0  0
    5.8270    3.6930   -0.0020 C   0  0  0  0  0  0  0  0  0  0  0  0
    5.1280    2.4920   -0.0360 C   0  0  0  0  0  0  0  0  0  0  0  0
    5.7150   -1.1030   -0.5700 N   0  0  0  0  0  0  0  0  0  0  0  0
    5.1340   -2.2940   -0.6210 C   0  0  0  0  0  0  0  0  0  0  0  0
    5.8820   -3.4420   -0.8820 C   0  0  0  0  0  0  0  0  0  0  0  0
    5.2410   -4.6570   -0.9270 C   0  0  0  0  0  0  0  0  0  0  0  0
    3.8900   -4.7930   -0.7250 C   0  0  0  0  0  0  0  0  0  0  0  0
    3.1630   -3.6520   -0.4690 C   0  0  0  0  0  0  0  0  0  0  0  0
    3.7850   -2.4020   -0.4170 C   0  0  0  0  0  0  0  0  0  0  0  0
   -1.2060    0.8610    0.7890 C   0  0  0  0  0  0  0  0  0  0  0  0
   -2.5670    0.8390    1.0090 C   0  0  0  0  0  0  0  0  0  0  0  0
   -5.0160    0.4860    2.3340 N   0  0  0  0  0  0  0  0  0  0  0  0
   -6.3270    1.0100    2.1740 C   0  0  0  0  0  0  0  0  0  0  0  0
   -7.0980    1.4640    3.0740 O   0  0  0  0  0  0  0  0  0  0  0  0
  1  2  2  0
  2  3  1  0
  4  2  1  6
  4  5  1  0
  4  6  1  0
  6  5  1  1
  6  7  1  0
  6 34  1  0
  7  8  1  0
  8  9  1  6
  8 33  1  0
  9 10  2  0
  9 32  1  0
 10 11  1  0
 11 12  2  0
 12 13  1  0
 12 31  1  0
 13 14  1  0
 14 15  1  0
 15 16  2  0
 15 30  1  0
 16 17  1  0
 17 18  1  0
 17 24  2  0
 18 19  2  0
 18 23  1  0
 19 20  1  0
 20 21  2  0
 21 22  1  0
 22 23  2  0
 24 25  1  0
 25 26  2  0
 25 30  1  0
 26 27  1  0
 27 28  2  0
 28 29  1  0
 29 30  2  0
 31 32  2  0
 33 34  1  0
 34 35  2  0
M  END
