
     RDKit          3D

 34 37  0  0  0  0  0  0  0  0999 V2000
   -7.4590   -1.1930   -2.9440 C   0  0  0  0  0  0  0  0  0  0  0  0
   -6.3450   -1.8300   -2.6510 C   0  0  0  0  0  0  0  0  0  0  0  0
   -5.5670   -1.4550   -1.4560 C   0  0  0  0  0  0  0  0  0  0  0  0
   -5.9130   -0.4570   -0.5750 C   0  0  0  0  0  0  0  0  0  0  0  0
   -4.9130   -0.4580    0.3730 C   0  0  0  0  0  0  0  0  0  0  0  0
   -4.7950    0.3380    1.4990 C   0  0  0  0  0  0  0  0  0  0  0  0
   -5.8080    1.3840    1.8070 C   0  0  1  0  0  0  0  0  0  0  0  0
   -5.5000    2.0850    3.1100 C   0  0  0  0  0  0  0  0  0  0  0  0
   -5.9570    2.3850    0.7000 C   0  0  0  0  0  0  0  0  0  0  0  0
   -3.7040    0.1070    2.3030 C   0  0  0  0  0  0  0  0  0  0  0  0
   -2.7840   -0.8650    1.9920 C   0  0  0  0  0  0  0  0  0  0  0  0
   -2.8830   -1.6850    0.8510 C   0  0  0  0  0  0  0  0  0  0  0  0
   -1.8130   -2.6640    0.5610 C   0  0  0  0  0  0  0  0  0  0  0  0
   -0.7590   -2.2230   -0.3060 N   0  0  0  0  0  0  0  0  0  0  0  0
   -0.6980   -2.4140   -1.6220 C   0  0  0  0  0  0  0  0  0  0  0  0
   -1.5850   -3.0410   -2.2190 O   0  0  0  0  0  0  0  0  0  0  0  0
    0.3070   -1.9600   -2.4110 N   0  0  0  0  0  0  0  0  0  0  0  0
    1.3400   -1.2720   -1.9220 C   0  0  0  0  0  0  0  0  0  0  0  0
    2.3540   -0.8180   -2.7410 C   0  0  0  0  0  0  0  0  0  0  0  0
    3.4000   -0.1130   -2.1930 C   0  0  0  0  0  0  0  0  0  0  0  0
    4.5270    0.3980   -3.0540 C   0  0  0  0  0  0  0  0  0  0  0  0
    3.4050    0.1210   -0.8340 C   0  0  0  0  0  0  0  0  0  0  0  0
    4.4710    0.8350   -0.3030 O   0  0  0  0  0  0  0  0  0  0  0  0
    4.5060    1.0910    1.0840 C   0  0  0  0  0  0  0  0  0  0  0  0
    5.7400    1.8700    1.4170 C   0  0  0  0  0  0  0  0  0  0  0  0
    6.9600    1.0790    1.0240 C   0  0  0  0  0  0  0  0  0  0  0  0
    8.1970    1.8860    1.3710 C   0  0  0  0  0  0  0  0  0  0  0  0
    9.4570    1.1220    0.9900 C   0  0  0  0  0  0  0  0  0  0  0  0
    2.3890   -0.3360   -0.0250 C   0  0  0  0  0  0  0  0  0  0  0  0
    1.3360   -1.0430   -0.5610 C   0  0  0  0  0  0  0  0  0  0  0  0
    0.2990   -1.5170    0.2150 C   0  0  0  0  0  0  0  0  0  0  0  0
    0.3880   -1.2580    1.4420 O   0  0  0  0  0  0  0  0  0  0  0  0
   -3.9780   -1.4490    0.0550 C   0  0  0  0  0  0  0  0  0  0  0  0
   -4.4160   -2.0380   -1.0710 N   0  0  0  0  0  0  0  0  0  0  0  0
  1  2  2  0
  2  3  1  0
  3  4  2  0
  3 34  1  0
  4  5  1  0
  5  6  2  0
  5 33  1  0
  6  7  1  0
  6 10  1  0
  7  8  1  1
  7  9  1  0
 10 11  2  0
 11 12  1  0
 12 13  1  0
 12 33  2  0
 13 14  1  0
 14 15  1  0
 14 31  1  0
 15 16  2  0
 15 17  1  0
 17 18  1  0
 18 19  2  0
 18 30  1  0
 19 20  1  0
 20 21  1  0
 20 22  2  0
 22 23  1  0
 22 29  1  0
 23 24  1  0
 24 25  1  0
 25 26  1  0
 26 27  1  0
 27 28  1  0
 29 30  2  0
 30 31  1  0
 31 32  2  0
 33 34  1  0
M  END
