
     RDKit          3D

 34 37  0  0  0  0  0  0  0  0999 V2000
   -5.6710   -2.3490   -2.2120 C   0  0  0  0  0  0  0  0  0  0  0  0
   -6.4980   -1.1320   -2.3790 C   0  0  0  0  0  0  0  0  0  0  0  0
   -5.8220    0.1470   -2.6750 C   0  0  0  0  0  0  0  0  0  0  0  0
   -4.8550    0.5810   -1.6260 C   0  0  0  0  0  0  0  0  0  0  0  0
   -5.2800    1.4530   -0.6570 N   0  0  0  0  0  0  0  0  0  0  0  0
   -4.4960    1.8670    0.3260 C   0  0  0  0  0  0  0  0  0  0  0  0
   -4.9540    2.7530    1.3040 C   0  0  0  0  0  0  0  0  0  0  0  0
   -6.3550    3.2120    1.1850 C   0  0  0  0  0  0  0  0  0  0  0  0
   -4.1040    3.1580    2.3160 C   0  0  0  0  0  0  0  0  0  0  0  0
   -2.8000    2.7240    2.4150 C   0  0  0  0  0  0  0  0  0  0  0  0
   -1.8690    3.1390    3.4950 C   0  0  0  0  0  0  0  0  0  0  0  0
   -2.3660    1.8450    1.4340 C   0  0  0  0  0  0  0  0  0  0  0  0
   -3.1920    1.4210    0.4080 C   0  0  0  0  0  0  0  0  0  0  0  0
   -2.6910    0.5430   -0.5300 C   0  0  0  0  0  0  0  0  0  0  0  0
   -1.3610    0.1310   -0.4180 N   0  0  0  0  0  0  0  0  0  0  0  0
   -0.8710   -1.0020    0.3260 C   0  0  0  0  0  0  0  0  0  0  0  0
    0.6280   -1.0630    0.1890 C   0  0  0  0  0  0  0  0  0  0  0  0
    1.2130   -0.1980   -0.5010 O   0  0  0  0  0  0  0  0  0  0  0  0
    1.3920   -2.0720    0.8190 N   0  0  0  0  0  0  0  0  0  0  0  0
    2.7870   -2.2390    0.7740 C   0  0  0  0  0  0  0  0  0  0  0  0
    3.3350   -3.3510    1.3910 C   0  0  0  0  0  0  0  0  0  0  0  0
    4.6910   -3.5910    1.4000 C   0  0  0  0  0  0  0  0  0  0  0  0
    5.5570   -2.7210    0.7880 C   0  0  0  0  0  0  0  0  0  0  0  0
    5.0410   -1.6070    0.1670 C   0  0  0  0  0  0  0  0  0  0  0  0
    3.6630   -1.3800    0.1670 C   0  0  0  0  0  0  0  0  0  0  0  0
    5.9960   -0.7150   -0.4690 C   0  0  0  0  0  0  0  0  0  0  0  0
    7.2950   -0.9540   -0.4560 C   0  0  0  0  0  0  0  0  0  0  0  0
    8.1840   -0.0710   -1.0800 O   0  0  0  0  0  0  0  0  0  0  0  0
    7.9980    1.3120   -1.0520 C   0  0  0  0  0  0  0  0  0  0  0  0
    7.9830    1.9030    0.3270 C   0  0  0  0  0  0  0  0  0  0  0  0
    7.8660   -2.1310    0.1980 C   0  0  0  0  0  0  0  0  0  0  0  0
    6.8950   -2.9360    0.7840 O   0  0  0  0  0  0  0  0  0  0  0  0
   -3.5580    0.1400   -1.5420 C   0  0  0  0  0  0  0  0  0  0  0  0
   -2.9700   -0.7720   -2.5460 C   0  0  0  0  0  0  0  0  0  0  0  0
  1  2  1  0
  2  3  1  0
  3  4  1  0
  4  5  2  0
  4 33  1  0
  5  6  1  0
  6  7  2  0
  6 13  1  0
  7  8  1  0
  7  9  1  0
  9 10  2  0
 10 11  1  0
 10 12  1  0
 12 13  2  0
 13 14  1  0
 14 15  1  0
 14 33  2  0
 15 16  1  0
 16 17  1  0
 17 18  2  0
 17 19  1  0
 19 20  1  0
 20 21  2  0
 20 25  1  0
 21 22  1  0
 22 23  2  0
 23 24  1  0
 23 32  1  0
 24 25  2  0
 24 26  1  0
 26 27  2  0
 27 28  1  0
 27 31  1  0
 28 29  1  0
 29 30  1  0
 31 32  1  0
 33 34  1  0
M  END
