
     RDKit          3D

 35 36  0  0  0  0  0  0  0  0999 V2000
   -2.4300    3.3370    3.6580 C   0  0  0  0  0  0  0  0  0  0  0  0
   -3.2400    2.9990    2.6790 C   0  0  0  0  0  0  0  0  0  0  0  0
   -3.3270    1.5610    2.2210 C   0  0  0  0  0  0  0  0  0  0  0  0
   -2.9370    1.4920    0.7640 C   0  0  1  0  0  0  0  0  0  0  0  0
   -1.6390    1.9900    0.6790 O   0  0  0  0  0  0  0  0  0  0  0  0
   -2.9380    0.0200    0.3260 C   0  0  1  0  0  0  0  0  0  0  0  0
   -4.4160   -0.3880    0.5570 C   0  0  0  0  0  0  0  0  0  0  0  0
   -5.1420    0.5190   -0.2530 O   0  0  0  0  0  0  0  0  0  0  0  0
   -2.6250   -0.1760   -1.1020 C   0  0  2  0  0  0  0  0  0  0  0  0
   -2.5510   -1.5840   -1.5560 C   0  0  0  0  0  0  0  0  0  0  0  0
   -2.3740   -1.7790   -2.7960 O   0  0  0  0  0  0  0  0  0  0  0  0
   -2.6560   -2.7260   -0.7320 N   0  0  0  0  0  0  0  0  0  0  0  0
   -2.5820   -4.0810   -1.2710 C   0  0  0  0  0  0  0  0  0  0  0  0
   -2.7300   -5.0490   -0.1220 C   0  0  0  0  0  0  0  0  0  0  0  0
   -1.7470   -4.9030    0.8350 O   0  0  0  0  0  0  0  0  0  0  0  0
   -1.6250    0.6420   -1.7230 N   0  0  0  0  0  0  0  0  0  0  0  0
   -1.9310    1.5790   -2.7730 C   0  0  0  0  0  0  0  0  0  0  0  0
   -2.2000    2.9780   -2.3640 C   0  0  0  0  0  0  0  0  0  0  0  0
   -2.4610    3.6970   -3.5670 O   0  0  0  0  0  0  0  0  0  0  0  0
   -0.2330    0.5200   -1.3650 C   0  0  0  0  0  0  0  0  0  0  0  0
    0.5750    1.3430   -1.9190 O   0  0  0  0  0  0  0  0  0  0  0  0
    0.2700   -0.4300   -0.4660 N   0  0  0  0  0  0  0  0  0  0  0  0
    1.6260   -0.5650   -0.0880 C   0  0  0  0  0  0  0  0  0  0  0  0
    2.6610    0.2600   -0.3990 C   0  0  0  0  0  0  0  0  0  0  0  0
    3.9750    0.0080    0.0330 C   0  0  0  0  0  0  0  0  0  0  0  0
    4.2850   -1.0880    0.7950 C   0  0  0  0  0  0  0  0  0  0  0  0
    5.5890   -1.3190    1.2100 O   0  0  0  0  0  0  0  0  0  0  0  0
    6.5710   -0.4170    0.8390 C   0  0  0  0  0  0  0  0  0  0  0  0
    6.8700    0.6640    1.6240 C   0  0  0  0  0  0  0  0  0  0  0  0
    7.8440    1.5890    1.2890 C   0  0  0  0  0  0  0  0  0  0  0  0
    8.5180    1.3780    0.1110 C   0  0  0  0  0  0  0  0  0  0  0  0
    8.2360    0.2860   -0.7100 C   0  0  0  0  0  0  0  0  0  0  0  0
    7.2460   -0.6300   -0.3440 C   0  0  0  0  0  0  0  0  0  0  0  0
    3.2490   -1.9350    1.1190 C   0  0  0  0  0  0  0  0  0  0  0  0
    1.9710   -1.6850    0.6950 C   0  0  0  0  0  0  0  0  0  0  0  0
  1  2  2  0
  2  3  1  0
  3  4  1  0
  4  5  1  1
  4  6  1  0
  6  7  1  6
  6  9  1  0
  7  8  1  0
  9 10  1  0
  9 16  1  1
 10 11  2  0
 10 12  1  0
 12 13  1  0
 13 14  1  0
 14 15  1  0
 16 17  1  0
 16 20  1  0
 17 18  1  0
 18 19  1  0
 20 21  2  0
 20 22  1  0
 22 23  1  0
 23 24  2  0
 23 35  1  0
 24 25  1  0
 25 26  2  0
 26 27  1  0
 26 34  1  0
 27 28  1  0
 28 29  2  0
 28 33  1  0
 29 30  1  0
 30 31  2  0
 31 32  1  0
 32 33  2  0
 34 35  2  0
M  END
