
     RDKit          3D

 35 36  0  0  0  0  0  0  0  0999 V2000
   -8.2760   -0.6960    2.7700 C   0  0  0  0  0  0  0  0  0  0  0  0
   -7.7820   -1.8940    2.0340 C   0  0  0  0  0  0  0  0  0  0  0  0
   -6.5980   -1.6090    1.1300 C   0  0  1  0  0  0  0  0  0  0  0  0
   -6.2570   -2.8170    0.5040 O   0  0  0  0  0  0  0  0  0  0  0  0
   -7.0360   -0.6160    0.0930 C   0  0  0  0  0  0  0  0  0  0  0  0
   -7.3670    0.6020    0.6880 O   0  0  0  0  0  0  0  0  0  0  0  0
   -5.3990   -1.1490    1.8800 C   0  0  0  0  0  0  0  0  0  0  0  0
   -4.2190   -0.8850    1.0250 C   0  0  0  0  0  0  0  0  0  0  0  0
   -3.1390   -0.4470    1.5570 O   0  0  0  0  0  0  0  0  0  0  0  0
   -4.1620   -1.0710   -0.3400 O   0  0  0  0  0  0  0  0  0  0  0  0
   -3.0300   -0.8200   -1.1370 C   0  0  0  0  0  0  0  0  0  0  0  0
   -2.5740    0.6060   -1.0540 C   0  0  0  0  0  0  0  0  0  0  0  0
   -3.1760    1.4000   -0.3300 O   0  0  0  0  0  0  0  0  0  0  0  0
   -1.4600    0.9730   -1.8190 N   0  0  0  0  0  0  0  0  0  0  0  0
   -0.8520    2.2460   -1.8990 C   0  0  0  0  0  0  0  0  0  0  0  0
   -1.4530    3.3860   -1.3430 C   0  0  0  0  0  0  0  0  0  0  0  0
   -0.8410    4.6350   -1.5040 C   0  0  0  0  0  0  0  0  0  0  0  0
    0.3350    4.7510   -2.1980 C   0  0  0  0  0  0  0  0  0  0  0  0
    0.9340    3.6300   -2.7490 C   0  0  0  0  0  0  0  0  0  0  0  0
    0.3220    2.3800   -2.5870 C   0  0  0  0  0  0  0  0  0  0  0  0
    1.0480    1.2180   -3.1370 C   0  0  0  0  0  0  0  0  0  0  0  0
    1.8470    0.6090   -2.0370 C   0  0  0  0  0  0  0  0  0  0  0  0
    1.5280   -0.4750   -1.2910 C   0  0  0  0  0  0  0  0  0  0  0  0
    2.3370   -0.9590   -0.2720 C   0  0  0  0  0  0  0  0  0  0  0  0
    3.5390   -0.3360    0.0330 C   0  0  0  0  0  0  0  0  0  0  0  0
    4.3540   -0.8070    1.0870 N   0  0  0  0  0  0  0  0  0  0  0  0
    5.7290   -0.5910    1.2760 C   0  0  0  0  0  0  0  0  0  0  0  0
    6.3380    0.0750    0.4150 O   0  0  0  0  0  0  0  0  0  0  0  0
    6.4500   -1.0920    2.3890 N   0  0  0  0  0  0  0  0  0  0  0  0
    7.8360   -0.9720    2.6680 C   0  0  0  0  0  0  0  0  0  0  0  0
    8.7860   -1.7190    1.8460 C   0  0  0  0  0  0  0  0  0  0  0  0
    8.7540   -1.4670    0.3870 C   0  0  0  0  0  0  0  0  0  0  0  0
    9.8050   -2.2400   -0.2010 O   0  0  0  0  0  0  0  0  0  0  0  0
    3.8770    0.7590   -0.7080 C   0  0  0  0  0  0  0  0  0  0  0  0
    3.0570    1.2380   -1.7310 C   0  0  0  0  0  0  0  0  0  0  0  0
  1  2  1  0
  2  3  1  0
  3  4  1  6
  3  5  1  0
  3  7  1  0
  5  6  1  0
  7  8  1  0
  8  9  2  0
  8 10  1  0
 10 11  1  0
 11 12  1  0
 12 13  2  0
 12 14  1  0
 14 15  1  0
 15 16  2  0
 15 20  1  0
 16 17  1  0
 17 18  2  0
 18 19  1  0
 19 20  2  0
 20 21  1  0
 21 22  1  0
 22 23  2  0
 22 35  1  0
 23 24  1  0
 24 25  2  0
 25 26  1  0
 25 34  1  0
 26 27  1  0
 27 28  2  0
 27 29  1  0
 29 30  1  0
 30 31  1  0
 31 32  1  0
 32 33  1  0
 34 35  2  0
M  END
