
     RDKit          3D

 34 37  0  0  0  0  0  0  0  0999 V2000
   -7.1510    1.8000   -0.8750 C   0  0  0  0  0  0  0  0  0  0  0  0
   -7.2110    0.4040   -1.4280 C   0  0  0  0  0  0  0  0  0  0  0  0
   -6.6470   -0.5150   -0.4110 C   0  0  0  0  0  0  0  0  0  0  0  0
   -5.2840   -0.6630   -0.1410 C   0  0  0  0  0  0  0  0  0  0  0  0
   -4.2570    0.0650   -0.7750 N   0  0  0  0  0  0  0  0  0  0  0  0
   -2.8720   -0.0590   -0.5930 C   0  0  0  0  0  0  0  0  0  0  0  0
   -2.2790   -1.2630   -0.3570 C   0  0  0  0  0  0  0  0  0  0  0  0
   -0.9110   -1.3950   -0.1430 C   0  0  0  0  0  0  0  0  0  0  0  0
   -0.1570   -0.2470   -0.1790 C   0  0  0  0  0  0  0  0  0  0  0  0
   -0.6830    1.0040   -0.4130 C   0  0  0  0  0  0  0  0  0  0  0  0
   -2.0480    1.0700   -0.6170 C   0  0  0  0  0  0  0  0  0  0  0  0
    0.4150    1.9980   -0.3830 C   0  0  0  0  0  0  0  0  0  0  0  0
    1.6160    1.1950   -0.1040 C   0  0  0  0  0  0  0  0  0  0  0  0
    2.8840    1.6300    0.0270 C   0  0  0  0  0  0  0  0  0  0  0  0
    3.2010    3.0390   -0.1060 C   0  0  0  0  0  0  0  0  0  0  0  0
    2.2680    3.8400   -0.3460 O   0  0  0  0  0  0  0  0  0  0  0  0
    4.5840    3.5260    0.0370 C   0  0  0  0  0  0  0  0  0  0  0  0
    5.4180    2.3330    0.3700 N   0  0  0  0  0  0  0  0  0  0  0  0
    5.5350    2.0850    1.7790 C   0  0  0  0  0  0  0  0  0  0  0  0
    5.9710    1.6210   -0.6740 C   0  0  0  0  0  0  0  0  0  0  0  0
    5.7030    2.0900   -1.8580 O   0  0  0  0  0  0  0  0  0  0  0  0
    6.7880    0.4540   -0.6800 C   0  0  0  0  0  0  0  0  0  0  0  0
    7.1980   -0.2140    0.3580 C   0  0  0  0  0  0  0  0  0  0  0  0
    8.0640   -1.4400    0.2120 C   0  0  2  0  0  0  0  0  0  0  0  0
    8.3240   -1.7270   -1.2450 C   0  0  0  0  0  0  0  0  0  0  0  0
    7.3720   -2.6360    0.8120 C   0  0  0  0  0  0  0  0  0  0  0  0
    1.2090   -0.1260    0.0040 O   0  0  0  0  0  0  0  0  0  0  0  0
   -5.2140   -1.5780    0.8310 N   0  0  0  0  0  0  0  0  0  0  0  0
   -6.4650   -2.0030    1.1750 C   0  0  0  0  0  0  0  0  0  0  0  0
   -6.9150   -2.9150    2.0990 C   0  0  0  0  0  0  0  0  0  0  0  0
   -8.2710   -3.1830    2.2660 C   0  0  0  0  0  0  0  0  0  0  0  0
   -9.1990   -2.5140    1.4820 C   0  0  0  0  0  0  0  0  0  0  0  0
   -8.7340   -1.6060    0.5640 C   0  0  0  0  0  0  0  0  0  0  0  0
   -7.3910   -1.3410    0.3980 C   0  0  0  0  0  0  0  0  0  0  0  0
  1  2  1  0
  2  3  1  0
  3  4  2  0
  3 34  1  0
  4  5  1  0
  4 28  1  0
  5  6  1  0
  6  7  2  0
  6 11  1  0
  7  8  1  0
  8  9  2  0
  9 10  1  0
  9 27  1  0
 10 11  2  0
 10 12  1  0
 12 13  1  0
 13 14  2  3
 13 27  1  0
 14 15  1  0
 15 16  2  0
 15 17  1  0
 17 18  1  0
 18 19  1  0
 18 20  1  0
 20 21  2  0
 20 22  1  0
 22 23  2  3
 23 24  1  0
 24 25  1  6
 24 26  1  0
 28 29  1  0
 29 30  2  0
 29 34  1  0
 30 31  1  0
 31 32  2  0
 32 33  1  0
 33 34  2  0
M  END
