
     RDKit          3D

 28 30  0  0  0  0  0  0  0  0999 V2000
   -5.5050    0.8110    2.7600 N   0  0  0  0  0  0  0  0  0  0  0  0
   -5.3740   -0.1190    1.7000 C   0  0  0  0  0  0  0  0  0  0  0  0
   -6.2740   -0.9770    1.5360 O   0  0  0  0  0  0  0  0  0  0  0  0
   -4.2040   -0.1170    0.7690 C   0  0  2  0  0  0  0  0  0  0  0  0
   -2.9820   -0.3050    1.6150 C   0  0  0  0  0  0  0  0  0  0  0  0
   -1.7430   -0.3140    0.9000 N   0  0  0  0  0  0  0  0  0  0  0  0
   -1.0720    0.8250    0.7030 O   0  0  0  0  0  0  0  0  0  0  0  0
   -0.0560    0.7420   -0.2170 C   0  0  0  0  0  0  0  0  0  0  0  0
    0.8590   -0.4430    0.0290 C   0  0  2  0  0  0  0  0  0  0  0  0
    1.9550   -0.3770   -0.9470 C   0  0  0  0  0  0  0  0  0  0  0  0
    1.9360   -0.5960   -2.2820 N   0  0  0  0  0  0  0  0  0  0  0  0
    3.1470   -0.4280   -2.7810 N   0  0  0  0  0  0  0  0  0  0  0  0
    3.9720   -0.0960   -1.7660 C   0  0  0  0  0  0  0  0  0  0  0  0
    5.4290    0.1920   -1.8360 C   0  0  0  0  0  0  0  0  0  0  0  0
    5.9270    0.5080   -0.5100 N   0  0  0  0  0  0  0  0  0  0  0  0
    7.2320    0.7780   -0.4980 O   0  0  0  0  0  0  0  0  0  0  0  0
    7.6950    0.4240    0.6920 O   0  0  0  0  0  0  0  0  0  0  0  0
    8.9760    0.5870    0.8110 O   0  0  0  0  0  0  0  0  0  0  0  0
    9.2820    0.6090    2.0850 O   0  0  0  0  0  0  0  0  0  0  0  0
    3.2300   -0.0700   -0.6650 N   0  0  0  0  0  0  0  0  0  0  0  0
    0.0570   -1.6080   -0.1660 O   0  0  0  0  0  0  0  0  0  0  0  0
   -1.2280   -1.5400    0.4050 C   0  0  0  0  0  0  0  0  0  0  0  0
   -1.8910   -2.6000    0.4580 O   0  0  0  0  0  0  0  0  0  0  0  0
   -4.1070    1.1670    0.0030 C   0  0  0  0  0  0  0  0  0  0  0  0
   -4.7100    0.7670   -1.3130 C   0  0  0  0  0  0  0  0  0  0  0  0
   -4.7920    1.4120   -2.3430 O   0  0  0  0  0  0  0  0  0  0  0  0
   -5.2070   -0.6210   -1.1130 C   0  0  0  0  0  0  0  0  0  0  0  0
   -4.3250   -1.1310   -0.1780 O   0  0  0  0  0  0  0  0  0  0  0  0
  1  2  1  0
  2  3  2  0
  2  4  1  0
  4  5  1  1
  4 24  1  0
  4 28  1  0
  5  6  1  0
  6  7  1  0
  6 22  1  0
  7  8  1  0
  8  9  1  0
  9 10  1  6
  9 21  1  0
 10 11  2  0
 10 20  1  0
 11 12  1  0
 12 13  1  0
 13 14  1  0
 13 20  2  0
 14 15  1  0
 15 16  1  0
 16 17  1  0
 17 18  1  0
 18 19  1  0
 21 22  1  0
 22 23  2  0
 24 25  1  0
 25 26  2  0
 25 27  1  0
 27 28  1  0
M  END
