
     RDKit          3D

 27 28  0  0  0  0  0  0  0  0999 V2000
   -0.2250   -4.1030   -1.1930 C   0  0  0  0  0  0  0  0  0  0  0  0
    0.0400   -2.7280   -0.9800 O   0  0  0  0  0  0  0  0  0  0  0  0
    1.1730   -2.2490   -0.3270 C   0  0  0  0  0  0  0  0  0  0  0  0
    1.9710   -3.1230    0.0760 O   0  0  0  0  0  0  0  0  0  0  0  0
    1.4010   -0.8260   -0.1360 C   0  0  0  0  0  0  0  0  0  0  0  0
    2.4320   -0.2120    0.4940 C   0  0  0  0  0  0  0  0  0  0  0  0
    3.5660   -0.7690    1.2070 C   0  0  0  0  0  0  0  0  0  0  0  0
    3.6740   -2.0070    1.4150 O   0  0  0  0  0  0  0  0  0  0  0  0
    4.6100    0.0480    1.7030 N   0  0  0  0  0  0  0  0  0  0  0  0
    5.6860   -0.4290    2.3800 O   0  0  0  0  0  0  0  0  0  0  0  0
    5.4240   -0.6850    3.6460 O   0  0  0  0  0  0  0  0  0  0  0  0
    2.2050    1.1500    0.3740 N   0  0  0  0  0  0  0  0  0  0  0  0
    1.0710    1.3600   -0.3070 C   0  0  0  0  0  0  0  0  0  0  0  0
    0.4780    2.6400   -0.6590 C   0  0  0  0  0  0  0  0  0  0  0  0
   -0.7520    2.6720   -1.3750 N   0  0  0  0  0  0  0  0  0  0  0  0
    1.0580    3.7560   -0.3140 N   0  0  0  0  0  0  0  0  0  0  0  0
    0.5030    4.9520   -0.6450 O   0  0  0  0  0  0  0  0  0  0  0  0
    1.1170    6.1030   -0.2830 O   0  0  0  0  0  0  0  0  0  0  0  0
    0.5670    0.1570   -0.6250 N   0  0  0  0  0  0  0  0  0  0  0  0
   -0.6010   -0.1340   -1.3390 N   0  0  0  0  0  0  0  0  0  0  0  0
   -1.7520   -0.2610   -0.8080 C   0  0  0  0  0  0  0  0  0  0  0  0
   -2.0020   -0.1290    0.5520 O   0  0  0  0  0  0  0  0  0  0  0  0
   -3.3520    0.1600    0.9360 C   0  0  0  0  0  0  0  0  0  0  0  0
   -4.2890   -0.8610    0.3160 C   0  0  0  0  0  0  0  0  0  0  0  0
   -4.2220   -0.7210   -1.1240 N   0  0  0  0  0  0  0  0  0  0  0  0
   -2.8930   -0.5650   -1.6680 C   0  0  0  0  0  0  0  0  0  0  0  0
   -2.7130   -0.6920   -2.9010 O   0  0  0  0  0  0  0  0  0  0  0  0
  1  2  1  0
  2  3  1  0
  3  4  2  0
  3  5  1  0
  5  6  2  0
  5 19  1  0
  6  7  1  0
  6 12  1  0
  7  8  2  0
  7  9  1  0
  9 10  1  0
 10 11  1  0
 12 13  2  0
 13 14  1  0
 13 19  1  0
 14 15  1  0
 14 16  2  3
 16 17  1  0
 17 18  1  0
 19 20  1  0
 20 21  2  3
 21 22  1  0
 21 26  1  0
 22 23  1  0
 23 24  1  0
 24 25  1  0
 25 26  1  0
 26 27  2  0
M  END
