
     RDKit          3D

 26 27  0  0  0  0  0  0  0  0999 V2000
   -2.0020   -0.8390    0.4600 C   0  0  0  0  0  0  0  0  0  0  0  0
   -1.2750   -0.3080   -0.7590 C   0  0  0  0  0  0  0  0  0  0  0  0
    0.0090    0.0310   -0.6090 C   0  0  0  0  0  0  0  0  0  0  0  0
    0.8160    0.0310    0.5600 C   0  0  0  0  0  0  0  0  0  0  0  0
    1.7520   -0.9380    1.0680 C   0  0  0  0  0  0  0  0  0  0  0  0
    2.7920   -1.1810    0.1720 O   0  0  0  0  0  0  0  0  0  0  0  0
    4.1330   -0.5320    0.8300 P   0  0  0  0  0  0  0  0  0  0  0  0
    3.9530    0.9940    1.5370 O   0  0  0  0  0  0  0  0  0  0  0  0
    4.1010   -1.2880    2.1040 O   0  0  0  0  0  0  0  0  0  0  0  0
    5.6330   -1.0370    0.4570 O   0  0  0  0  0  0  0  0  0  0  0  0
    6.7390    0.1860    0.3150 P   0  0  0  0  0  0  0  0  0  0  0  0
    6.3490    1.6010   -0.3790 O   0  0  0  0  0  0  0  0  0  0  0  0
    7.3620   -0.4750   -0.9090 O   0  0  0  0  0  0  0  0  0  0  0  0
    8.1750   -0.0190    1.1360 O   0  0  0  0  0  0  0  0  0  0  0  0
    0.5970    0.2900   -2.3170 S   0  0  0  0  0  0  0  0  0  0  0  0
   -0.9830   -0.0810   -3.1170 C   0  0  0  0  0  0  0  0  0  0  0  0
   -1.8460    0.0810   -1.9610 N   0  0  0  0  0  0  0  0  0  0  0  0
   -3.2480    0.5360   -2.2000 C   0  0  0  0  0  0  0  0  0  0  0  0
   -3.9770    0.7880   -0.9250 C   0  0  0  0  0  0  0  0  0  0  0  0
   -3.4740    1.3770    0.1340 C   0  0  0  0  0  0  0  0  0  0  0  0
   -4.2520    1.3670    1.2820 N   0  0  0  0  0  0  0  0  0  0  0  0
   -5.4430    0.7830    1.2650 C   0  0  0  0  0  0  0  0  0  0  0  0
   -6.2180    0.5700    2.5450 C   0  0  0  0  0  0  0  0  0  0  0  0
   -5.9730    0.2030    0.1730 N   0  0  0  0  0  0  0  0  0  0  0  0
   -5.2290    0.2080   -0.9360 C   0  0  0  0  0  0  0  0  0  0  0  0
   -5.7520   -0.3850   -2.1370 N   0  0  0  0  0  0  0  0  0  0  0  0
  1  2  1  0
  2  3  2  0
  2 17  1  0
  3  4  1  0
  3 15  1  0
  4  5  1  0
  5  6  1  0
  6  7  1  0
  7  8  1  0
  7  9  1  0
  7 10  1  0
 10 11  1  0
 11 12  1  0
 11 13  1  0
 11 14  1  0
 15 16  1  0
 16 17  1  0
 17 18  1  0
 18 19  1  0
 19 20  2  0
 19 25  1  0
 20 21  1  0
 21 22  2  0
 22 23  1  0
 22 24  1  0
 24 25  2  0
 25 26  1  0
M  END
