
     RDKit          3D

 28 28  0  0  0  0  0  0  0  0999 V2000
    3.5490   -3.5950    1.0630 C   0  0  0  0  0  0  0  0  0  0  0  0
    4.1720   -2.4670    0.7970 C   0  0  0  0  0  0  0  0  0  0  0  0
    5.6290   -2.4550    0.6240 C   0  0  0  0  0  0  0  0  0  0  0  0
    6.0250   -1.9600   -0.7630 C   0  0  0  0  0  0  0  0  0  0  0  0
    3.4490   -1.2950    0.6810 O   0  0  0  0  0  0  0  0  0  0  0  0
    4.0290   -0.0390    0.6630 C   0  0  0  0  0  0  0  0  0  0  0  0
    3.1580    1.2860    0.2020 P   0  0  0  0  0  0  0  0  0  0  0  0
    1.3750    1.1900   -0.3160 C   0  0  1  0  0  0  0  0  0  0  0  0
    0.5310    1.8050    0.7760 C   0  0  0  0  0  0  0  0  0  0  0  0
   -0.5790    2.6550    0.2310 C   0  0  0  0  0  0  0  0  0  0  0  0
   -1.8170    2.0990    0.5510 O   0  0  0  0  0  0  0  0  0  0  0  0
   -2.8610    2.7800   -0.0410 C   0  0  0  0  0  0  0  0  0  0  0  0
   -3.6810    1.9560   -0.9730 C   0  0  0  0  0  0  0  0  0  0  0  0
   -4.4140    0.8750   -0.2000 C   0  0  0  0  0  0  0  0  0  0  0  0
   -5.7280    1.2940    0.2040 C   0  0  0  0  0  0  0  0  0  0  0  0
   -6.5350    0.6540    0.8420 O   0  0  0  0  0  0  0  0  0  0  0  0
   -6.2470    2.9430   -0.2800 Cl  0  0  0  0  0  0  0  0  0  0  0  0
   -3.8450   -0.2630    0.0390 C   0  0  0  0  0  0  0  0  0  0  0  0
   -4.4010   -1.3980    0.7600 C   0  0  0  0  0  0  0  0  0  0  0  0
   -5.9640   -1.4330    1.4550 Cl  0  0  0  0  0  0  0  0  0  0  0  0
   -2.4640   -0.5120   -0.4220 N   0  0  0  0  0  0  0  0  0  0  0  0
   -1.6120   -1.2870    0.4660 C   0  0  0  0  0  0  0  0  0  0  0  0
   -1.9550   -0.0980   -1.5730 O   0  0  0  0  0  0  0  0  0  0  0  0
   -0.7320   -0.5980   -1.7620 O   0  0  0  0  0  0  0  0  0  0  0  0
    0.1890   -0.0550   -2.6800 C   0  0  0  0  0  0  0  0  0  0  0  0
    0.6600   -0.7800   -3.6340 O   0  0  0  0  0  0  0  0  0  0  0  0
    0.6640    1.3190   -2.6270 C   0  0  0  0  0  0  0  0  0  0  0  0
    1.1920    1.8770   -1.5750 N   0  0  0  0  0  0  0  0  0  0  0  0
  1  2  2  0
  2  3  1  0
  2  5  1  0
  3  4  1  0
  5  6  1  0
  6  7  2  3
  8  7  1  1
  8  9  1  0
  8 28  1  0
  9 10  1  0
 10 11  1  0
 11 12  1  0
 12 13  1  0
 13 14  1  0
 14 15  1  0
 14 18  2  0
 15 16  2  0
 15 17  1  0
 18 19  1  0
 18 21  1  0
 19 20  1  0
 21 22  1  0
 21 23  1  0
 23 24  1  0
 24 25  1  0
 25 26  2  0
 25 27  1  0
 27 28  2  0
M  END
