
     RDKit          3D

 28 30  0  0  0  0  0  0  0  0999 V2000
   -5.8060   -1.1880    0.1380 C   0  0  0  0  0  0  0  0  0  0  0  0
   -5.6250    0.3120    0.5090 C   0  0  1  0  0  0  0  0  0  0  0  0
   -6.8580    1.0250   -0.1080 C   0  0  0  0  0  0  0  0  0  0  0  0
   -5.5610    0.5470    2.1840 Cl  0  0  0  0  0  0  0  0  0  0  0  0
   -4.4700    0.7730   -0.3750 C   0  0  0  0  0  0  0  0  0  0  0  0
   -3.3200   -0.1160   -0.2430 C   0  0  0  0  0  0  0  0  0  0  0  0
   -2.4460   -0.1960    0.9300 C   0  0  0  0  0  0  0  0  0  0  0  0
   -1.6120    0.9620    0.8770 O   0  0  0  0  0  0  0  0  0  0  0  0
   -0.6850    0.8610    0.0130 N   0  0  0  0  0  0  0  0  0  0  0  0
    0.0040    2.5200   -0.2430 P   0  0  0  0  0  0  0  0  0  0  0  0
   -0.0760    3.5210    0.9750 O   0  0  0  0  0  0  0  0  0  0  0  0
    0.1850   -0.1450   -0.2620 N   0  0  0  0  0  0  0  0  0  0  0  0
   -0.1880   -1.3220   -0.8760 O   0  0  0  0  0  0  0  0  0  0  0  0
    0.9100   -2.4460   -0.0620 P   0  0  0  0  0  0  0  0  0  0  0  0
    1.3950   -3.7250   -1.1420 O   0  0  0  0  0  0  0  0  0  0  0  0
    2.2070   -1.2010    0.1730 C   0  0  0  0  0  0  0  0  0  0  0  0
    1.5890   -0.0810    0.0040 C   0  0  0  0  0  0  0  0  0  0  0  0
    2.5870    1.0180    0.1610 C   0  0  0  0  0  0  0  0  0  0  0  0
    3.8410    0.3770    0.4940 C   0  0  0  0  0  0  0  0  0  0  0  0
    5.0220    0.9760    0.7740 O   0  0  0  0  0  0  0  0  0  0  0  0
    6.3140    0.7080    0.4520 C   0  0  0  0  0  0  0  0  0  0  0  0
    6.9450   -0.4530    0.9050 C   0  0  0  0  0  0  0  0  0  0  0  0
    8.2290   -0.4120    0.4300 C   0  0  0  0  0  0  0  0  0  0  0  0
    9.5630   -1.7270    0.7780 Br  0  0  0  0  0  0  0  0  0  0  0  0
    8.3050    0.7590   -0.2890 C   0  0  0  0  0  0  0  0  0  0  0  0
    9.7510    1.3230   -1.1300 Cl  0  0  0  0  0  0  0  0  0  0  0  0
    7.1680    1.3700   -0.2560 O   0  0  0  0  0  0  0  0  0  0  0  0
    3.6040   -0.9510    0.4850 C   0  0  0  0  0  0  0  0  0  0  0  0
  2  1  1  1
  2  3  1  0
  2  4  1  0
  2  5  1  0
  5  6  1  0
  6  7  1  0
  7  8  1  0
  8  9  1  0
  9 10  1  0
  9 12  1  0
 10 11  2  0
 12 13  1  0
 12 17  1  0
 13 14  1  0
 14 15  1  0
 14 16  1  0
 16 17  2  0
 16 28  1  0
 17 18  1  0
 18 19  1  0
 19 20  1  0
 19 28  2  0
 20 21  1  0
 21 22  2  0
 21 27  1  0
 22 23  1  0
 23 24  1  0
 23 25  2  0
 25 26  1  0
 25 27  1  0
M  END
