
     RDKit          3D

 28 28  0  0  0  0  0  0  0  0999 V2000
    6.4170   -1.4840   -0.7740 C   0  0  0  0  0  0  0  0  0  0  0  0
    5.3610   -0.7150   -0.9750 C   0  0  0  0  0  0  0  0  0  0  0  0
    4.8220    0.0770    0.0860 N   0  0  0  0  0  0  0  0  0  0  0  0
    5.2430   -0.1630    1.4330 C   0  0  0  0  0  0  0  0  0  0  0  0
    4.8380   -1.8980    1.9350 P   0  0  0  0  0  0  0  0  0  0  0  0
    3.9110    1.0450   -0.2420 O   0  0  0  0  0  0  0  0  0  0  0  0
    2.6980    1.2080    0.3860 C   0  0  0  0  0  0  0  0  0  0  0  0
    1.6120    0.7180   -0.1700 C   0  0  0  0  0  0  0  0  0  0  0  0
    1.6410    0.0040   -1.4350 C   0  0  0  0  0  0  0  0  0  0  0  0
    0.5860   -0.4380   -1.9150 O   0  0  0  0  0  0  0  0  0  0  0  0
    0.3840    0.9050    0.5060 O   0  0  0  0  0  0  0  0  0  0  0  0
   -0.7260    0.1610    0.2220 C   0  0  0  0  0  0  0  0  0  0  0  0
   -1.6760    0.6540   -0.5460 C   0  0  0  0  0  0  0  0  0  0  0  0
   -1.5040    2.0190   -1.0830 C   0  0  0  0  0  0  0  0  0  0  0  0
   -2.8720    3.1520   -0.5290 P   0  0  0  0  0  0  0  0  0  0  0  0
   -3.3370    4.2440   -1.7990 O   0  0  0  0  0  0  0  0  0  0  0  0
   -2.3550    4.0120    0.8880 O   0  0  0  0  0  0  0  0  0  0  0  0
   -3.1290    5.1550    1.0440 C   0  0  0  0  0  0  0  0  0  0  0  0
   -2.8850   -0.0900   -0.8870 C   0  0  0  0  0  0  0  0  0  0  0  0
   -3.0680   -1.3360   -0.4120 C   0  0  0  0  0  0  0  0  0  0  0  0
   -4.2570   -2.0790   -0.7420 C   0  0  0  0  0  0  0  0  0  0  0  0
   -4.6470   -3.2660   -0.4120 C   0  0  0  0  0  0  0  0  0  0  0  0
   -6.2620   -3.7170   -1.1200 Cl  0  0  0  0  0  0  0  0  0  0  0  0
   -4.0730   -4.2940    0.3920 C   0  0  0  0  0  0  0  0  0  0  0  0
   -4.7170   -5.4500    0.5630 N   0  0  0  0  0  0  0  0  0  0  0  0
   -2.5510   -4.2370    1.2290 Cl  0  0  0  0  0  0  0  0  0  0  0  0
   -2.0760   -1.8190    0.3750 O   0  0  0  0  0  0  0  0  0  0  0  0
   -0.8930   -1.2060    0.7620 C   0  0  0  0  0  0  0  0  0  0  0  0
  1  2  2  0
  2  3  1  0
  3  4  1  0
  3  6  1  0
  4  5  1  0
  6  7  1  0
  7  8  2  3
  8  9  1  0
  8 11  1  0
  9 10  2  0
 11 12  1  0
 12 13  2  0
 12 28  1  0
 13 14  1  0
 13 19  1  0
 14 15  1  0
 15 16  1  0
 15 17  1  0
 17 18  1  0
 19 20  2  0
 20 21  1  0
 20 27  1  0
 21 22  2  3
 22 23  1  0
 22 24  1  0
 24 25  2  0
 24 26  1  0
 27 28  1  0
M  END
