
     RDKit          3D

 28 29  0  0  0  0  0  0  0  0999 V2000
   -8.8930   -0.8020    0.1720 C   0  0  0  0  0  0  0  0  0  0  0  0
   -7.6210   -0.3540    0.1180 C   0  0  0  0  0  0  0  0  0  0  0  0
   -6.7900   -0.6820   -1.0120 C   0  0  0  0  0  0  0  0  0  0  0  0
   -5.5550   -0.2710   -1.1060 C   0  0  0  0  0  0  0  0  0  0  0  0
   -4.8980    0.5370   -0.1190 C   0  0  0  0  0  0  0  0  0  0  0  0
   -3.6330    0.9190   -0.2870 C   0  0  0  0  0  0  0  0  0  0  0  0
   -2.8540    0.5200   -1.5120 C   0  0  0  0  0  0  0  0  0  0  0  0
   -1.5420    1.8440   -1.5100 P   0  0  0  0  0  0  0  0  0  0  0  0
    0.0850    1.2070   -1.5610 N   0  0  0  0  0  0  0  0  0  0  0  0
    0.7470    0.9260   -0.4920 C   0  0  0  0  0  0  0  0  0  0  0  0
   -0.1170    1.2310    1.1630 Br  0  0  0  0  0  0  0  0  0  0  0  0
    2.0670    0.4110   -0.6330 C   0  0  0  0  0  0  0  0  0  0  0  0
    2.5040    0.2640   -1.8300 O   0  0  0  0  0  0  0  0  0  0  0  0
    2.9750    0.0330    0.4400 C   0  0  0  0  0  0  0  0  0  0  0  0
    2.7890    0.0790    1.8000 C   0  0  0  0  0  0  0  0  0  0  0  0
    3.9550   -0.3900    2.3810 C   0  0  0  0  0  0  0  0  0  0  0  0
    4.2440   -0.5380    4.1060 Cl  0  0  0  0  0  0  0  0  0  0  0  0
    4.8180   -0.7100    1.4410 N   0  0  0  0  0  0  0  0  0  0  0  0
    6.4980   -1.3720    1.6110 P   0  0  0  0  0  0  0  0  0  0  0  0
    7.6400   -0.0850    1.3760 O   0  0  0  0  0  0  0  0  0  0  0  0
    7.9940   -0.0540    0.0260 C   0  0  0  0  0  0  0  0  0  0  0  0
    4.2700   -0.4710    0.2520 C   0  0  0  0  0  0  0  0  0  0  0  0
    4.8840   -0.6860   -1.0420 N   0  0  0  0  0  0  0  0  0  0  0  0
    5.0750   -1.8790   -1.4720 C   0  0  0  0  0  0  0  0  0  0  0  0
    4.7760   -2.8690   -2.1860 O   0  0  0  0  0  0  0  0  0  0  0  0
   -2.0390    2.5850    0.0860 C   0  0  0  0  0  0  0  0  0  0  0  0
   -1.6160    3.6630    0.5350 O   0  0  0  0  0  0  0  0  0  0  0  0
   -2.9370    1.6750    0.5880 O   0  0  0  0  0  0  0  0  0  0  0  0
  1  2  2  0
  2  3  1  0
  3  4  2  3
  4  5  1  0
  5  6  2  3
  6  7  1  0
  6 28  1  0
  7  8  1  0
  8  9  1  0
  8 26  1  0
  9 10  2  3
 10 11  1  0
 10 12  1  0
 12 13  2  0
 12 14  1  0
 14 15  1  0
 14 22  2  0
 15 16  2  0
 16 17  1  0
 16 18  1  0
 18 19  1  0
 18 22  1  0
 19 20  1  0
 20 21  1  0
 22 23  1  0
 23 24  2  0
 24 25  2  0
 26 27  2  0
 26 28  1  0
M  END
