
     RDKit          3D

 27 30  0  0  0  0  0  0  0  0999 V2000
   -5.6040    2.3880    0.2820 O   0  0  0  0  0  0  0  0  0  0  0  0
   -4.3430    2.3070    0.0980 C   0  0  0  0  0  0  0  0  0  0  0  0
   -3.5670    3.4580    0.0820 O   0  0  0  0  0  0  0  0  0  0  0  0
   -2.2330    3.2840   -0.1220 O   0  0  0  0  0  0  0  0  0  0  0  0
   -1.6330    2.0490   -0.3100 C   0  0  0  0  0  0  0  0  0  0  0  0
   -0.4500    1.9340   -0.9090 C   0  0  0  0  0  0  0  0  0  0  0  0
    0.2210    0.6110   -1.1250 C   0  0  1  0  0  0  0  0  0  0  0  0
    1.2130    0.3740   -0.1260 N   0  0  0  0  0  0  0  0  0  0  0  0
    1.9940   -0.7910   -0.0940 C   0  0  0  0  0  0  0  0  0  0  0  0
    1.6810   -1.9180   -0.6060 N   0  0  0  0  0  0  0  0  0  0  0  0
    2.7440   -2.8450   -0.3550 C   0  0  0  0  0  0  0  0  0  0  0  0
    3.7430   -2.0650    0.3970 C   0  0  0  0  0  0  0  0  0  0  0  0
    5.0180   -2.5120    0.9060 N   0  0  0  0  0  0  0  0  0  0  0  0
    5.9780   -1.5850    1.1230 O   0  0  0  0  0  0  0  0  0  0  0  0
    5.4960   -0.3840    1.0020 O   0  0  0  0  0  0  0  0  0  0  0  0
    6.2570    0.4040    0.2740 O   0  0  0  0  0  0  0  0  0  0  0  0
    6.3380    1.6250    0.8030 O   0  0  0  0  0  0  0  0  0  0  0  0
    3.2670   -0.8770    0.5280 N   0  0  0  0  0  0  0  0  0  0  0  0
   -0.7810   -0.4410   -1.2550 C   0  0  0  0  0  0  0  0  0  0  0  0
   -0.5710   -1.4400   -1.9670 O   0  0  0  0  0  0  0  0  0  0  0  0
   -2.0190   -0.3320   -0.5600 N   0  0  0  0  0  0  0  0  0  0  0  0
   -3.1570   -1.2150   -0.3880 C   0  0  0  0  0  0  0  0  0  0  0  0
   -4.3080   -0.2210   -0.5210 C   0  0  0  0  0  0  0  0  0  0  0  0
   -3.7620    1.0400   -0.0880 N   0  0  0  0  0  0  0  0  0  0  0  0
   -2.3680    0.8590    0.1870 C   0  0  2  0  0  0  0  0  0  0  0  0
   -2.1880    0.6520    1.6660 C   0  0  0  0  0  0  0  0  0  0  0  0
   -2.6560    1.7510    2.3490 O   0  0  0  0  0  0  0  0  0  0  0  0
  1  2  2  0
  2  3  1  0
  2 24  1  0
  3  4  1  0
  4  5  1  0
  5  6  2  0
  5 25  1  0
  6  7  1  0
  7  8  1  1
  7 19  1  0
  8  9  1  0
  9 10  2  0
  9 18  1  0
 10 11  1  0
 11 12  1  0
 12 13  1  0
 12 18  2  0
 13 14  1  0
 14 15  1  0
 15 16  1  0
 16 17  1  0
 19 20  2  0
 19 21  1  0
 21 22  1  0
 21 25  1  0
 22 23  1  0
 23 24  1  0
 24 25  1  0
 25 26  1  1
 26 27  1  0
M  END
