
     RDKit          3D

 13 14  0  0  0  0  0  0  0  0999 V2000
   -1.7810   -1.4700   -0.2620 C   0  0  0  0  0  0  0  0  0  0  0  0
   -1.1660   -0.1390   -0.0850 C   0  0  0  0  0  0  0  0  0  0  0  0
   -1.9590    1.0030   -0.0070 C   0  0  0  0  0  0  0  0  0  0  0  0
   -3.3680    0.8280   -0.1050 C   0  0  0  0  0  0  0  0  0  0  0  0
   -4.5210    0.6770   -0.1660 N   0  0  0  0  0  0  0  0  0  0  0  0
   -1.3920    2.2610    0.1600 C   0  0  0  0  0  0  0  0  0  0  0  0
   -0.0530    2.3450    0.2440 N   0  0  0  0  0  0  0  0  0  0  0  0
    0.7650    1.2870    0.1770 C   0  0  0  0  0  0  0  0  0  0  0  0
    0.1980    0.0480    0.0120 C   0  0  0  0  0  0  0  0  0  0  0  0
    1.0310   -1.1000   -0.0640 N   0  0  0  0  0  0  0  0  0  0  0  0
    2.3850   -0.9750    0.4700 C   0  0  0  0  0  0  0  0  0  0  0  0
    2.9580    0.2940   -0.1750 C   0  0  0  0  0  0  0  0  0  0  0  0
    2.1350    1.3670    0.2620 O   0  0  0  0  0  0  0  0  0  0  0  0
  1  2  1  0
  2  3  2  0
  2  9  1  0
  3  4  1  0
  3  6  1  0
  4  5  3  0
  6  7  2  0
  7  8  1  0
  8  9  2  0
  8 13  1  0
  9 10  1  0
 10 11  1  0
 11 12  1  0
 12 13  1  0
M  END
