
     RDKit          3D

 13 14  0  0  0  0  0  0  0  0999 V2000
    4.0520   -0.1660    0.1040 C   0  0  0  0  0  0  0  0  0  0  0  0
    2.6510    0.1180   -0.3610 C   0  0  0  0  0  0  0  0  0  0  0  0
    2.2770    0.7070   -1.4650 O   0  0  0  0  0  0  0  0  0  0  0  0
    0.9870    0.7910   -1.5530 C   0  0  0  0  0  0  0  0  0  0  0  0
    0.4370    0.2010   -0.3990 C   0  0  0  0  0  0  0  0  0  0  0  0
   -0.9930    0.0970   -0.1210 C   0  0  0  0  0  0  0  0  0  0  0  0
   -1.4810   -0.4850    1.0150 C   0  0  0  0  0  0  0  0  0  0  0  0
   -2.8540   -0.5780    1.2670 C   0  0  0  0  0  0  0  0  0  0  0  0
   -3.7110   -0.0590    0.3250 C   0  0  0  0  0  0  0  0  0  0  0  0
   -3.2320    0.5270   -0.8190 C   0  0  0  0  0  0  0  0  0  0  0  0
   -1.9050    0.5860   -1.0040 N   0  0  0  0  0  0  0  0  0  0  0  0
    1.5020   -0.1940    0.2960 N   0  0  0  0  0  0  0  0  0  0  0  0
    1.4530   -0.8330    1.5180 O   0  0  0  0  0  0  0  0  0  0  0  0
  1  2  1  0
  2  3  1  0
  2 12  2  0
  3  4  1  0
  4  5  2  0
  5  6  1  0
  5 12  1  0
  6  7  2  0
  6 11  1  0
  7  8  1  0
  8  9  2  0
  9 10  1  0
 10 11  2  0
 12 13  1  0
M  CHG  2  12   1  13  -1
M  END
