
     RDKit          3D

 13 14  0  0  0  0  0  0  0  0999 V2000
   -3.2280   -1.8610   -0.0430 O   0  0  0  0  0  0  0  0  0  0  0  0
   -2.0860   -1.6300    0.4600 N   0  0  0  0  0  0  0  0  0  0  0  0
   -1.5730   -2.5900    1.2500 O   0  0  0  0  0  0  0  0  0  0  0  0
   -1.4920   -0.3990    0.1350 C   0  0  0  0  0  0  0  0  0  0  0  0
   -2.3120    0.7130   -0.1460 C   0  0  0  0  0  0  0  0  0  0  0  0
   -1.7870    1.8960   -0.4630 N   0  0  0  0  0  0  0  0  0  0  0  0
   -0.4650    2.1000   -0.5340 C   0  0  0  0  0  0  0  0  0  0  0  0
    0.3560    1.0310   -0.2650 C   0  0  0  0  0  0  0  0  0  0  0  0
    1.7240    1.2020   -0.3370 C   0  0  0  0  0  0  0  0  0  0  0  0
    2.5910    0.1640   -0.0860 C   0  0  0  0  0  0  0  0  0  0  0  0
    2.1070   -1.0800    0.2450 C   0  0  0  0  0  0  0  0  0  0  0  0
    0.7420   -1.2740    0.3230 C   0  0  0  0  0  0  0  0  0  0  0  0
   -0.1290   -0.2360    0.0730 C   0  0  0  0  0  0  0  0  0  0  0  0
  1  2  2  0
  2  3  1  0
  2  4  1  0
  4  5  2  0
  4 13  1  0
  5  6  1  0
  6  7  2  0
  7  8  1  0
  8  9  2  0
  8 13  1  0
  9 10  1  0
 10 11  2  0
 11 12  1  0
 12 13  2  0
M  CHG  2   2   1   3  -1
M  END
