
     RDKit          3D

 13 14  0  0  0  0  0  0  0  0999 V2000
    3.7920   -1.3280    1.3200 O   0  0  0  0  0  0  0  0  0  0  0  0
    3.2950   -0.3950    0.6900 N   0  0  0  0  0  0  0  0  0  0  0  0
    3.4630    0.8820    1.1410 O   0  0  0  0  0  0  0  0  0  0  0  0
    2.5450   -0.6450   -0.5090 C   0  0  0  0  0  0  0  0  0  0  0  0
    1.1410   -0.1620   -0.4030 C   0  0  0  0  0  0  0  0  0  0  0  0
    0.8150    1.1290   -0.7840 C   0  0  0  0  0  0  0  0  0  0  0  0
   -0.4890    1.5740   -0.6850 C   0  0  0  0  0  0  0  0  0  0  0  0
   -1.4630    0.7500   -0.2120 N   0  0  0  0  0  0  0  0  0  0  0  0
   -2.7900    0.9740   -0.0330 C   0  0  0  0  0  0  0  0  0  0  0  0
   -3.3800   -0.1780    0.4780 C   0  0  0  0  0  0  0  0  0  0  0  0
   -2.3810   -1.1020    0.6030 C   0  0  0  0  0  0  0  0  0  0  0  0
   -1.1920   -0.5060    0.1670 C   0  0  0  0  0  0  0  0  0  0  0  0
    0.1090   -0.9470    0.0680 C   0  0  0  0  0  0  0  0  0  0  0  0
  1  2  2  0
  2  3  1  0
  2  4  1  0
  4  5  1  0
  5  6  1  0
  5 13  2  0
  6  7  2  0
  7  8  1  0
  8  9  1  0
  8 12  1  0
  9 10  2  0
 10 11  1  0
 11 12  2  0
 12 13  1  0
M  CHG  2   2   1   3  -1
M  END
