
     RDKit          3D

 12 13  0  0  0  0  0  0  0  0999 V2000
   -1.7440    2.6080    0.6290 O   0  0  0  0  0  0  0  0  0  0  0  0
   -1.5860    1.2430    0.3920 N   0  0  0  0  0  0  0  0  0  0  0  0
   -2.6330    0.4010    0.4270 C   0  0  0  0  0  0  0  0  0  0  0  0
   -2.4880   -0.9510    0.1940 C   0  0  0  0  0  0  0  0  0  0  0  0
   -1.2390   -1.4550   -0.0810 C   0  0  0  0  0  0  0  0  0  0  0  0
   -0.1580   -0.6070   -0.1190 C   0  0  0  0  0  0  0  0  0  0  0  0
    1.0980   -1.1230   -0.3970 C   0  0  0  0  0  0  0  0  0  0  0  0
    2.2060   -0.3030   -0.4440 C   0  0  0  0  0  0  0  0  0  0  0  0
    3.4770   -0.8080   -0.7230 O   0  0  0  0  0  0  0  0  0  0  0  0
    1.9950    1.0380   -0.2030 C   0  0  0  0  0  0  0  0  0  0  0  0
    0.7460    1.5530    0.0730 C   0  0  0  0  0  0  0  0  0  0  0  0
   -0.3650    0.7350    0.1210 C   0  0  0  0  0  0  0  0  0  0  0  0
  1  2  1  0
  2  3  2  0
  2 12  1  0
  3  4  1  0
  4  5  2  0
  5  6  1  0
  6  7  2  0
  6 12  1  0
  7  8  1  0
  8  9  1  0
  8 10  2  0
 10 11  1  0
 11 12  2  0
M  CHG  2   1  -1   2   1
M  END
