
     RDKit          3D

 13 14  0  0  0  0  0  0  0  0999 V2000
   -2.3880   -0.9300   -0.0110 C   0  0  0  0  0  0  0  0  0  0  0  0
   -1.3550    0.0750   -0.0280 N   0  0  0  0  0  0  0  0  0  0  0  0
   -1.6300    1.4000   -0.0790 C   0  0  0  0  0  0  0  0  0  0  0  0
   -0.7200    2.4020   -0.0980 C   0  0  0  0  0  0  0  0  0  0  0  0
    0.6170    2.0660   -0.0610 C   0  0  0  0  0  0  0  0  0  0  0  0
    0.9940    0.7430   -0.0070 C   0  0  0  0  0  0  0  0  0  0  0  0
    2.3160    0.3400    0.0310 C   0  0  0  0  0  0  0  0  0  0  0  0
    2.6800   -0.9860    0.0850 C   0  0  0  0  0  0  0  0  0  0  0  0
    1.6690   -1.9190    0.0990 C   0  0  0  0  0  0  0  0  0  0  0  0
    1.9370   -3.1460    0.1470 O   0  0  0  0  0  0  0  0  0  0  0  0
    0.3510   -1.5700    0.0620 N   0  0  0  0  0  0  0  0  0  0  0  0
   -0.5900   -2.5390    0.0790 O   0  0  0  0  0  0  0  0  0  0  0  0
   -0.0400   -0.2820    0.0090 C   0  0  0  0  0  0  0  0  0  0  0  0
  1  2  1  0
  2  3  1  0
  2 13  1  0
  3  4  2  0
  4  5  1  0
  5  6  2  0
  6  7  1  0
  6 13  1  0
  7  8  2  0
  8  9  1  0
  9 10  2  0
  9 11  1  0
 11 12  1  0
 11 13  2  0
M  CHG  2  11   1  12  -1
M  END
