
     RDKit          3D

 13 14  0  0  0  0  0  0  0  0999 V2000
   -4.2350   -0.0090    0.5180 C   0  0  0  0  0  0  0  0  0  0  0  0
   -2.8660   -0.0440    0.6320 O   0  0  0  0  0  0  0  0  0  0  0  0
   -2.2230    0.1130   -0.5900 C   0  0  0  0  0  0  0  0  0  0  0  0
   -0.7400    0.0590   -0.3420 C   0  0  0  0  0  0  0  0  0  0  0  0
   -0.1200   -0.1100    0.8380 N   0  0  0  0  0  0  0  0  0  0  0  0
    1.2090   -0.1010    0.6310 C   0  0  0  0  0  0  0  0  0  0  0  0
    2.3180   -0.2290    1.4550 C   0  0  0  0  0  0  0  0  0  0  0  0
    3.6040   -0.1800    0.9600 C   0  0  0  0  0  0  0  0  0  0  0  0
    3.8340   -0.0000   -0.3850 C   0  0  0  0  0  0  0  0  0  0  0  0
    2.7440    0.1290   -1.2210 C   0  0  0  0  0  0  0  0  0  0  0  0
    1.4510    0.0790   -0.7160 C   0  0  0  0  0  0  0  0  0  0  0  0
    0.2220    0.1720   -1.2740 N   0  0  0  0  0  0  0  0  0  0  0  0
    0.0140    0.3580   -2.6180 O   0  0  0  0  0  0  0  0  0  0  0  0
  1  2  1  0
  2  3  1  0
  3  4  1  0
  4  5  1  0
  4 12  2  0
  5  6  1  0
  6  7  2  0
  6 11  1  0
  7  8  1  0
  8  9  2  0
  9 10  1  0
 10 11  2  0
 11 12  1  0
 12 13  1  0
M  CHG  2  12   1  13  -1
M  END
