
     RDKit          3D

 12 13  0  0  0  0  0  0  0  0999 V2000
   -0.9090    1.4830    1.7890 O   0  0  0  0  0  0  0  0  0  0  0  0
   -1.5090    0.6390    0.8770 C   0  0  0  0  0  0  0  0  0  0  0  0
   -2.8630    0.5380    0.8520 N   0  0  0  0  0  0  0  0  0  0  0  0
   -3.4810   -0.2700   -0.0170 C   0  0  0  0  0  0  0  0  0  0  0  0
   -2.7450   -1.0190   -0.9090 C   0  0  0  0  0  0  0  0  0  0  0  0
   -1.4210   -0.8940   -0.8530 N   0  0  0  0  0  0  0  0  0  0  0  0
   -0.7460   -0.0930    0.0040 C   0  0  0  0  0  0  0  0  0  0  0  0
    0.7170   -0.0550   -0.0470 C   0  0  0  0  0  0  0  0  0  0  0  0
    1.5630    0.6380    0.6780 C   0  0  0  0  0  0  0  0  0  0  0  0
    2.9500    0.3400    0.2530 C   0  0  0  0  0  0  0  0  0  0  0  0
    2.7630   -0.6340   -0.8320 C   0  0  0  0  0  0  0  0  0  0  0  0
    1.4790   -0.8520   -0.9940 C   0  0  0  0  0  0  0  0  0  0  0  0
  1  2  1  0
  2  3  2  0
  2  7  1  0
  3  4  1  0
  4  5  2  0
  5  6  1  0
  6  7  2  0
  7  8  1  0
  8  9  2  0
  8 12  1  0
  9 10  1  0
 10 11  1  0
 11 12  2  0
M  END
