
     RDKit          3D

 19 19  0  0  0  0  0  0  0  0999 V2000
   -4.5130   -2.1870   -0.7130 C   0  0  0  0  0  0  0  0  0  0  0  0
   -3.3190   -2.6440   -0.1110 O   0  0  0  0  0  0  0  0  0  0  0  0
   -2.3580   -1.6950    0.2040 C   0  0  0  0  0  0  0  0  0  0  0  0
   -1.2030   -2.1340    0.7860 C   0  0  0  0  0  0  0  0  0  0  0  0
   -0.2290   -1.1890    1.1080 C   0  0  0  0  0  0  0  0  0  0  0  0
   -0.3940    0.1550    0.8600 C   0  0  0  0  0  0  0  0  0  0  0  0
    0.5330    1.1080    1.1610 O   0  0  0  0  0  0  0  0  0  0  0  0
    1.7850    1.0600    1.7230 C   0  0  0  0  0  0  0  0  0  0  0  0
    2.7160    0.2690    0.8770 C   0  0  0  0  0  0  0  0  0  0  0  0
    2.9280    0.7710   -0.5300 C   0  0  0  0  0  0  0  0  0  0  0  0
    3.3420   -0.8190    1.3010 C   0  0  0  0  0  0  0  0  0  0  0  0
    4.2670   -1.6400    0.5250 C   0  0  0  0  0  0  0  0  0  0  0  0
    4.5290   -1.2530   -0.7970 N   0  0  0  0  0  0  0  0  0  0  0  0
   -1.6080    0.5990    0.2510 C   0  0  0  0  0  0  0  0  0  0  0  0
   -1.7290    2.0420    0.0110 C   0  0  0  0  0  0  0  0  0  0  0  0
   -2.9610    2.4400   -0.6000 N   0  0  0  0  0  0  0  0  0  0  0  0
   -3.1360    3.8620   -0.8630 C   0  0  0  0  0  0  0  0  0  0  0  0
   -2.2310    4.6740   -0.5550 O   0  0  0  0  0  0  0  0  0  0  0  0
   -2.5480   -0.3320   -0.0570 C   0  0  0  0  0  0  0  0  0  0  0  0
  1  2  1  0
  2  3  1  0
  3  4  2  0
  3 19  1  0
  4  5  1  0
  5  6  2  0
  6  7  1  0
  6 14  1  0
  7  8  1  0
  8  9  1  0
  9 10  1  0
  9 11  2  3
 11 12  1  0
 12 13  1  0
 14 15  1  0
 14 19  2  0
 15 16  1  0
 16 17  1  0
 17 18  2  0
M  END
