
     RDKit          3D

 19 19  0  0  0  0  0  0  0  0999 V2000
   -4.1450    2.0020   -0.0710 C   0  0  0  0  0  0  0  0  0  0  0  0
   -4.9420    0.7050   -0.1730 C   0  0  0  0  0  0  0  0  0  0  0  0
   -4.3190   -0.2320    0.8570 C   0  0  0  0  0  0  0  0  0  0  0  0
   -2.8870   -0.4360    0.5140 C   0  0  0  0  0  0  0  0  0  0  0  0
   -2.3980   -1.2440   -0.4940 C   0  0  0  0  0  0  0  0  0  0  0  0
   -3.2350   -2.0700   -1.4240 C   0  0  0  0  0  0  0  0  0  0  0  0
   -1.0550   -1.1680   -0.5000 N   0  0  0  0  0  0  0  0  0  0  0  0
   -0.6210   -0.3320    0.4740 C   0  0  0  0  0  0  0  0  0  0  0  0
    0.7850   -0.0010    0.7650 C   0  0  0  0  0  0  0  0  0  0  0  0
    1.0620    0.7910    1.6970 O   0  0  0  0  0  0  0  0  0  0  0  0
    1.8160   -0.5770   -0.0070 N   0  0  0  0  0  0  0  0  0  0  0  0
    3.1740   -0.2220    0.3150 C   0  0  0  0  0  0  0  0  0  0  0  0
    4.0880   -0.9680   -0.6540 C   0  0  1  0  0  0  0  0  0  0  0  0
    3.7500   -0.5640   -1.9230 O   0  0  0  0  0  0  0  0  0  0  0  0
    5.4880   -0.6420   -0.2480 C   0  0  0  0  0  0  0  0  0  0  0  0
    5.7470    0.6740   -0.1910 O   0  0  0  0  0  0  0  0  0  0  0  0
    5.6230    1.4160   -1.3210 C   0  0  0  0  0  0  0  0  0  0  0  0
   -1.7600    0.1210    1.1030 C   0  0  0  0  0  0  0  0  0  0  0  0
   -1.8040    1.0680    2.2430 C   0  0  0  0  0  0  0  0  0  0  0  0
  1  2  1  0
  2  3  1  0
  3  4  1  0
  4  5  2  0
  4 18  1  0
  5  6  1  0
  5  7  1  0
  7  8  1  0
  8  9  1  0
  8 18  2  0
  9 10  2  0
  9 11  1  0
 11 12  1  0
 12 13  1  0
 13 14  1  6
 13 15  1  0
 15 16  1  0
 16 17  1  0
 18 19  1  0
M  END
