
     RDKit          3D

 27 30  0  0  0  0  0  0  0  0999 V2000
   -1.2900   -3.9330   -0.6250 C   0  0  0  0  0  0  0  0  0  0  0  0
   -1.3840   -2.5620   -1.0060 O   0  0  0  0  0  0  0  0  0  0  0  0
   -0.4230   -1.6860   -0.4610 C   0  0  0  0  0  0  0  0  0  0  0  0
    0.8210   -1.8630   -0.8620 C   0  0  0  0  0  0  0  0  0  0  0  0
    2.0810   -1.1510   -0.5140 C   0  0  0  0  0  0  0  0  0  0  0  0
    2.3170   -0.3390    0.4560 C   0  0  0  0  0  0  0  0  0  0  0  0
    3.5660    0.3250    0.7380 C   0  0  0  0  0  0  0  0  0  0  0  0
    3.7760    1.0310    1.9140 N   0  0  0  0  0  0  0  0  0  0  0  0
    4.9660    1.5580    1.9240 N   0  0  0  0  0  0  0  0  0  0  0  0
    5.6320    1.2620    0.7970 C   0  0  0  0  0  0  0  0  0  0  0  0
    6.8540    1.5620    0.3200 N   0  0  0  0  0  0  0  0  0  0  0  0
    7.2890    1.1440   -0.8770 C   0  0  0  0  0  0  0  0  0  0  0  0
    8.6510    1.4880   -1.3860 C   0  0  0  0  0  0  0  0  0  0  0  0
    6.4350    0.4000   -1.5910 N   0  0  0  0  0  0  0  0  0  0  0  0
    5.1840    0.0670   -1.1530 C   0  0  0  0  0  0  0  0  0  0  0  0
    4.7400    0.4870    0.0590 C   0  0  0  0  0  0  0  0  0  0  0  0
    1.2330    0.0400    1.4630 C   0  0  0  0  0  0  0  0  0  0  0  0
    0.0010    0.4640    0.7000 C   0  0  0  0  0  0  0  0  0  0  0  0
   -0.9670   -0.7080    0.4740 C   0  0  1  0  0  0  0  0  0  0  0  0
   -2.2350   -0.1480    0.1830 N   0  0  2  0  0  0  0  0  0  0  0  0
   -3.2170   -0.5330    1.1960 C   0  0  0  0  0  0  0  0  0  0  0  0
   -4.5060    0.1900    1.0430 C   0  0  0  0  0  0  0  0  0  0  0  0
   -4.7670    0.8860   -0.2280 C   0  0  2  0  0  0  0  0  0  0  0  0
   -4.7840    2.4080   -0.0240 C   0  0  0  0  0  0  0  0  0  0  0  0
   -6.2050    0.5450   -0.6570 C   0  0  0  0  0  0  0  0  0  0  0  0
   -3.8940    0.5470   -1.3950 C   0  0  0  0  0  0  0  0  0  0  0  0
   -2.8410   -0.4910   -1.0660 C   0  0  0  0  0  0  0  0  0  0  0  0
  1  2  1  0
  2  3  1  0
  3  4  2  0
  3 19  1  0
  4  5  1  0
  5  6  2  0
  6  7  1  0
  6 17  1  0
  7  8  2  0
  7 16  1  0
  8  9  1  0
  9 10  1  0
 10 11  2  0
 10 16  1  0
 11 12  1  0
 12 13  1  0
 12 14  2  0
 14 15  1  0
 15 16  2  0
 17 18  1  0
 19 18  1  6
 19 20  1  0
 20 21  1  1
 20 27  1  0
 21 22  1  0
 22 23  1  0
 23 24  1  1
 23 25  1  0
 23 26  1  0
 26 27  1  0
M  CHG  1  20   1
M  END
