
     RDKit          3D

 19 19  0  0  0  0  0  0  0  0999 V2000
   -4.2640   -2.4700   -0.7650 C   0  0  0  0  0  0  0  0  0  0  0  0
   -4.8710   -1.5100   -0.0890 C   0  0  0  0  0  0  0  0  0  0  0  0
   -4.2450   -0.2180    0.1380 C   0  0  0  0  0  0  0  0  0  0  0  0
   -4.8510    0.7280    0.8080 C   0  0  0  0  0  0  0  0  0  0  0  0
   -4.2020    2.0430    1.0330 C   0  0  0  0  0  0  0  0  0  0  0  0
   -2.9870   -0.0000   -0.3700 O   0  0  0  0  0  0  0  0  0  0  0  0
   -1.8750   -0.2860    0.4300 C   0  0  0  0  0  0  0  0  0  0  0  0
   -0.6000    0.0270   -0.3250 C   0  0  0  0  0  0  0  0  0  0  0  0
   -0.6790    0.4670   -1.4780 O   0  0  0  0  0  0  0  0  0  0  0  0
    0.6170   -0.1970    0.3180 N   0  0  0  0  0  0  0  0  0  0  0  0
    1.8850    0.0510   -0.2590 C   0  0  0  0  0  0  0  0  0  0  0  0
    2.1260    0.6570   -1.4600 C   0  0  0  0  0  0  0  0  0  0  0  0
    3.4230    0.8450   -1.9440 C   0  0  0  0  0  0  0  0  0  0  0  0
    4.5350    0.4320   -1.2410 C   0  0  0  0  0  0  0  0  0  0  0  0
    5.8540    0.6250   -1.7360 N   0  0  0  0  0  0  0  0  0  0  0  0
    4.3090   -0.1840   -0.0220 C   0  0  0  0  0  0  0  0  0  0  0  0
    5.4680   -0.6290    0.7370 C   0  0  0  0  0  0  0  0  0  0  0  0
    6.6140   -0.4420    0.2690 O   0  0  0  0  0  0  0  0  0  0  0  0
    3.0230   -0.3640    0.4430 C   0  0  0  0  0  0  0  0  0  0  0  0
  1  2  2  0
  2  3  1  0
  3  4  2  3
  3  6  1  0
  4  5  1  0
  6  7  1  0
  7  8  1  0
  8  9  2  0
  8 10  1  0
 10 11  1  0
 11 12  2  0
 11 19  1  0
 12 13  1  0
 13 14  2  0
 14 15  1  0
 14 16  1  0
 16 17  1  0
 16 19  2  0
 17 18  2  0
M  END
