
     RDKit          3D

 19 19  0  0  0  0  0  0  0  0999 V2000
    4.3570   -1.7880   -1.0200 C   0  0  0  0  0  0  0  0  0  0  0  0
    4.8610   -0.7460   -0.0430 C   0  0  0  0  0  0  0  0  0  0  0  0
    3.8920   -0.5630    1.0910 C   0  0  0  0  0  0  0  0  0  0  0  0
    2.5640   -0.1260    0.6670 C   0  0  0  0  0  0  0  0  0  0  0  0
    1.4320   -0.7870    0.8740 C   0  0  0  0  0  0  0  0  0  0  0  0
    1.2910   -2.0400    1.5420 N   0  0  0  0  0  0  0  0  0  0  0  0
    0.3070   -0.0350    0.3050 C   0  0  0  0  0  0  0  0  0  0  0  0
   -1.1010   -0.4260    0.3250 C   0  0  0  0  0  0  0  0  0  0  0  0
   -1.3930   -1.5130    0.8820 O   0  0  0  0  0  0  0  0  0  0  0  0
   -2.1080    0.3140   -0.2200 O   0  0  0  0  0  0  0  0  0  0  0  0
   -3.4750   -0.0320   -0.2190 C   0  0  2  0  0  0  0  0  0  0  0  0
   -4.2190    1.0830   -0.9340 C   0  0  0  0  0  0  0  0  0  0  0  0
   -4.0390   -0.1050    1.1830 C   0  0  0  0  0  0  0  0  0  0  0  0
   -3.7600   -1.3180   -0.9450 C   0  0  0  0  0  0  0  0  0  0  0  0
    0.7370    1.0910   -0.2540 C   0  0  0  0  0  0  0  0  0  0  0  0
   -0.0760    2.0630   -0.8990 N   0  0  0  0  0  0  0  0  0  0  0  0
   -0.2270    3.4150   -0.4130 C   0  0  0  0  0  0  0  0  0  0  0  0
    2.1780    1.0990   -0.0590 C   0  0  0  0  0  0  0  0  0  0  0  0
    2.9810    1.9720   -0.4270 O   0  0  0  0  0  0  0  0  0  0  0  0
  1  2  1  0
  2  3  1  0
  3  4  1  0
  4  5  2  0
  4 18  1  0
  5  6  1  0
  5  7  1  0
  7  8  1  0
  7 15  2  0
  8  9  2  0
  8 10  1  0
 10 11  1  0
 11 12  1  6
 11 13  1  0
 11 14  1  0
 15 16  1  0
 15 18  1  0
 16 17  1  0
 18 19  2  0
M  END
