
     RDKit          3D

 19 19  0  0  0  0  0  0  0  0999 V2000
    0.7820   -3.0580   -0.1990 C   0  0  0  0  0  0  0  0  0  0  0  0
    1.7590   -1.9500   -0.2110 C   0  0  0  0  0  0  0  0  0  0  0  0
    1.4300   -0.7180   -0.9670 C   0  0  2  0  0  0  0  0  0  0  0  0
    1.2270   -1.1390   -2.4170 C   0  0  0  0  0  0  0  0  0  0  0  0
    2.6250    0.1270   -0.9770 N   0  0  0  0  0  0  0  0  0  0  0  0
    3.2390    0.6420    0.1890 C   0  0  0  0  0  0  0  0  0  0  0  0
    2.7490    0.3720    1.3040 O   0  0  0  0  0  0  0  0  0  0  0  0
    4.4740    1.5070    0.1010 C   0  0  0  0  0  0  0  0  0  0  0  0
    4.9260    1.9220    1.4770 C   0  0  0  0  0  0  0  0  0  0  0  0
    5.2120    0.7690    2.2020 O   0  0  0  0  0  0  0  0  0  0  0  0
    0.2420    0.0290   -0.5610 C   0  0  0  0  0  0  0  0  0  0  0  0
    0.3790    1.2550   -0.2560 O   0  0  0  0  0  0  0  0  0  0  0  0
   -1.0820   -0.4550   -0.4630 N   0  0  0  0  0  0  0  0  0  0  0  0
   -2.2290    0.3070   -0.0590 C   0  0  2  0  0  0  0  0  0  0  0  0
   -2.9860   -0.2560    1.0930 C   0  0  0  0  0  0  0  0  0  0  0  0
   -4.1380    0.6770    1.4030 C   0  0  0  0  0  0  0  0  0  0  0  0
   -4.9620    1.0340    0.2190 C   0  0  0  0  0  0  0  0  0  0  0  0
   -4.1750    1.4120   -1.0020 C   0  0  0  0  0  0  0  0  0  0  0  0
   -3.1800    0.3050   -1.2650 C   0  0  0  0  0  0  0  0  0  0  0  0
  1  2  1  0
  2  3  1  0
  3  4  1  6
  3  5  1  0
  3 11  1  0
  5  6  1  0
  6  7  2  0
  6  8  1  0
  8  9  1  0
  9 10  1  0
 11 12  2  0
 11 13  1  0
 14 13  1  6
 14 15  1  0
 14 19  1  0
 15 16  1  0
 16 17  1  0
 17 18  1  0
 18 19  1  0
M  END
