
     RDKit          3D

 19 19  0  0  0  0  0  0  0  0999 V2000
    5.1760    1.4100    0.4720 C   0  0  0  0  0  0  0  0  0  0  0  0
    4.0600    1.2130    1.3420 O   0  0  0  0  0  0  0  0  0  0  0  0
    3.0370    0.3760    0.9890 C   0  0  0  0  0  0  0  0  0  0  0  0
    1.9750    0.2230    1.8760 C   0  0  0  0  0  0  0  0  0  0  0  0
    0.9130   -0.6050    1.5820 C   0  0  0  0  0  0  0  0  0  0  0  0
    0.9090   -1.2890    0.3860 C   0  0  0  0  0  0  0  0  0  0  0  0
   -0.4390   -2.3360    0.0130 S   0  0  1  0  0  0  0  0  0  0  0  0
    0.0780   -3.4420   -0.8780 O   0  0  0  0  0  0  0  0  0  0  0  0
   -0.9250   -2.8970    1.3290 O   0  0  0  0  0  0  0  0  0  0  0  0
   -1.6780   -1.5380   -0.8430 N   0  0  0  0  0  0  0  0  0  0  0  0
   -2.2670   -0.4280   -0.0910 C   0  0  2  0  0  0  0  0  0  0  0  0
   -3.7610   -0.7120    0.1190 C   0  0  0  0  0  0  0  0  0  0  0  0
   -4.2950    0.3370    0.8340 O   0  0  0  0  0  0  0  0  0  0  0  0
   -2.1850    0.7860   -0.9380 C   0  0  0  0  0  0  0  0  0  0  0  0
   -1.7090    0.7380   -2.1250 O   0  0  0  0  0  0  0  0  0  0  0  0
   -2.6280    2.0390   -0.4630 N   0  0  0  0  0  0  0  0  0  0  0  0
   -2.5340    3.1190   -1.2760 O   0  0  0  0  0  0  0  0  0  0  0  0
    1.9550   -1.1620   -0.5290 C   0  0  0  0  0  0  0  0  0  0  0  0
    2.9980   -0.3240   -0.1960 C   0  0  0  0  0  0  0  0  0  0  0  0
  1  2  1  0
  2  3  1  0
  3  4  2  0
  3 19  1  0
  4  5  1  0
  5  6  2  0
  6  7  1  0
  6 18  1  0
  7  8  2  0
  7  9  2  0
  7 10  1  6
 10 11  1  0
 11 12  1  6
 11 14  1  0
 12 13  1  0
 14 15  2  0
 14 16  1  0
 16 17  1  0
 18 19  2  0
M  END
