
     RDKit          3D

 19 19  0  0  0  0  0  0  0  0999 V2000
    7.2820    0.7090   -0.1050 C   0  0  0  0  0  0  0  0  0  0  0  0
    6.3830    0.5760    1.0360 C   0  0  0  0  0  0  0  0  0  0  0  0
    5.0570    0.4240    0.8370 C   0  0  0  0  0  0  0  0  0  0  0  0
    4.1890    0.2950    1.9590 C   0  0  0  0  0  0  0  0  0  0  0  0
    2.9390    0.1440    2.0870 C   0  0  0  0  0  0  0  0  0  0  0  0
    1.8220    0.0330    1.2030 C   0  0  0  0  0  0  0  0  0  0  0  0
    0.6280   -0.1220    1.7280 O   0  0  0  0  0  0  0  0  0  0  0  0
    1.8580    0.0720   -0.2040 N   0  0  0  0  0  0  0  0  0  0  0  0
    0.6240   -0.0680   -0.9620 C   0  0  0  0  0  0  0  0  0  0  0  0
   -0.0550   -1.3920   -0.7640 C   0  0  0  0  0  0  0  0  0  0  0  0
   -1.3270   -1.4580   -1.5880 C   0  0  0  0  0  0  0  0  0  0  0  0
   -2.2640   -0.4350   -1.2330 N   0  0  0  0  0  0  0  0  0  0  0  0
   -2.8160   -0.3040    0.0700 C   0  0  0  0  0  0  0  0  0  0  0  0
   -2.4940   -1.1020    0.9870 O   0  0  0  0  0  0  0  0  0  0  0  0
   -3.7880    0.7600    0.4310 C   0  0  2  0  0  0  0  0  0  0  0  0
   -5.0630    0.0580    0.8520 C   0  0  0  0  0  0  0  0  0  0  0  0
   -5.8200    0.0240   -0.4650 C   0  0  0  0  0  0  0  0  0  0  0  0
   -5.3020    1.2470   -1.1450 C   0  0  0  0  0  0  0  0  0  0  0  0
   -4.0940    1.5900   -0.6070 O   0  0  0  0  0  0  0  0  0  0  0  0
  1  2  1  0
  2  3  2  3
  3  4  1  0
  4  5  2  3
  5  6  1  0
  6  7  2  0
  6  8  1  0
  8  9  1  0
  9 10  1  0
 10 11  1  0
 11 12  1  0
 12 13  1  0
 13 14  2  0
 15 13  1  6
 15 16  1  0
 15 19  1  0
 16 17  1  0
 17 18  1  0
 18 19  1  0
M  END
