
     RDKit          3D

 21 22  0  0  0  0  0  0  0  0999 V2000
   -3.8450    2.7210   -0.8020 C   0  0  0  0  0  0  0  0  0  0  0  0
   -3.5370    1.3690   -0.5820 O   0  0  0  0  0  0  0  0  0  0  0  0
   -4.2990    0.5140    0.1870 C   0  0  0  0  0  0  0  0  0  0  0  0
   -5.3470    1.0070    0.7220 O   0  0  0  0  0  0  0  0  0  0  0  0
   -3.9730   -0.9120    0.4190 C   0  0  1  0  0  0  0  0  0  0  0  0
   -2.7160   -1.3820   -0.2600 C   0  0  0  0  0  0  0  0  0  0  0  0
   -1.6030   -0.5970    0.2350 N   0  0  0  0  0  0  0  0  0  0  0  0
   -0.3050   -0.8550   -0.2590 C   0  0  0  0  0  0  0  0  0  0  0  0
   -0.0760   -1.7440   -1.1150 O   0  0  0  0  0  0  0  0  0  0  0  0
    0.8360   -0.0470    0.2500 C   0  0  0  0  0  0  0  0  0  0  0  0
    0.6330    0.8400    1.0990 O   0  0  0  0  0  0  0  0  0  0  0  0
    2.1500   -0.2680   -0.2130 N   0  0  0  0  0  0  0  0  0  0  0  0
    3.3350    0.4070    0.1660 C   0  0  0  0  0  0  0  0  0  0  0  0
    3.3290    1.3600    1.0450 C   0  0  0  0  0  0  0  0  0  0  0  0
    4.8190    2.2110    1.5240 S   0  0  0  0  0  0  0  0  0  0  0  0
    6.1950    1.5240    0.6170 C   0  0  0  0  0  0  0  0  0  0  0  0
    5.7530    0.4560   -0.2770 C   0  0  0  0  0  0  0  0  0  0  0  0
    4.5770   -0.0360   -0.4930 C   0  0  0  0  0  0  0  0  0  0  0  0
    4.4850   -1.1550   -1.5090 C   0  0  0  0  0  0  0  0  0  0  0  0
   -4.4340   -1.6040    1.6460 C   0  0  0  0  0  0  0  0  0  0  0  0
   -5.1830   -1.8360    0.3990 C   0  0  0  0  0  0  0  0  0  0  0  0
  1  2  1  0
  2  3  1  0
  3  4  2  0
  3  5  1  0
  5  6  1  6
  5 20  1  0
  5 21  1  0
  6  7  1  0
  7  8  1  0
  8  9  2  0
  8 10  1  0
 10 11  2  0
 10 12  1  0
 12 13  1  0
 13 14  2  0
 13 18  1  0
 14 15  1  0
 15 16  1  0
 16 17  1  0
 17 18  2  0
 18 19  1  0
 20 21  1  0
M  END
