
     RDKit          3D

 21 22  0  0  0  0  0  0  0  0999 V2000
   -7.2290    0.4360    1.2080 C   0  0  0  0  0  0  0  0  0  0  0  0
   -6.3850   -0.5500    0.5990 O   0  0  0  0  0  0  0  0  0  0  0  0
   -5.0950   -0.2440    0.1930 C   0  0  0  0  0  0  0  0  0  0  0  0
   -4.6960    0.9390    0.3830 O   0  0  0  0  0  0  0  0  0  0  0  0
   -4.2140   -1.2760   -0.4430 C   0  0  0  0  0  0  0  0  0  0  0  0
   -2.9220   -0.7190   -0.7770 N   0  0  0  0  0  0  0  0  0  0  0  0
   -2.7850    0.3780   -1.6710 C   0  0  0  0  0  0  0  0  0  0  0  0
   -3.8710    0.8340   -2.1560 O   0  0  0  0  0  0  0  0  0  0  0  0
   -1.5160    0.9760   -2.0400 C   0  0  0  0  0  0  0  0  0  0  0  0
   -0.3580    0.5810   -1.5990 C   0  0  0  0  0  0  0  0  0  0  0  0
    1.1600    1.3700   -2.1020 S   0  0  0  0  0  0  0  0  0  0  0  0
    2.4950    0.9340   -0.9690 C   0  0  0  0  0  0  0  0  0  0  0  0
    2.6700    1.7640    0.1160 C   0  0  0  0  0  0  0  0  0  0  0  0
    3.6590    1.5210    1.0390 C   0  0  0  0  0  0  0  0  0  0  0  0
    4.4640    0.3950    0.8120 C   0  0  0  0  0  0  0  0  0  0  0  0
    4.2680   -0.4140   -0.2740 C   0  0  0  0  0  0  0  0  0  0  0  0
    3.2670   -0.1260   -1.1640 N   0  0  0  0  0  0  0  0  0  0  0  0
    5.0400   -1.4650   -0.4620 C   0  0  0  0  0  0  0  0  0  0  0  0
    6.1410   -1.8590    0.4370 C   0  0  0  0  0  0  0  0  0  0  0  0
    6.2460   -0.9690    1.5010 O   0  0  0  0  0  0  0  0  0  0  0  0
    5.4310    0.1130    1.6700 C   0  0  0  0  0  0  0  0  0  0  0  0
  1  2  1  0
  2  3  1  0
  3  4  2  0
  3  5  1  0
  5  6  1  0
  6  7  1  0
  7  8  2  0
  7  9  1  0
  9 10  2  3
 10 11  1  0
 11 12  1  0
 12 13  1  0
 12 17  2  0
 13 14  2  0
 14 15  1  0
 15 16  1  0
 15 21  2  0
 16 17  1  0
 16 18  2  0
 18 19  1  0
 19 20  1  0
 20 21  1  0
M  END
