
     RDKit          3D

 21 22  0  0  0  0  0  0  0  0999 V2000
    7.0040   -1.3550    0.1190 C   0  0  0  0  0  0  0  0  0  0  0  0
    5.7890   -1.4770    0.8340 O   0  0  0  0  0  0  0  0  0  0  0  0
    4.6780   -0.8040    0.3270 C   0  0  0  0  0  0  0  0  0  0  0  0
    3.4470   -0.8790    0.9790 C   0  0  0  0  0  0  0  0  0  0  0  0
    2.3570   -0.1980    0.4490 C   0  0  0  0  0  0  0  0  0  0  0  0
    2.4590    0.5500   -0.7030 C   0  0  0  0  0  0  0  0  0  0  0  0
    1.4210    1.1640   -1.1550 N   0  0  0  0  0  0  0  0  0  0  0  0
    0.1710    1.0680   -0.4620 C   0  0  0  0  0  0  0  0  0  0  0  0
    0.0540    1.7750    0.7170 C   0  0  0  0  0  0  0  0  0  0  0  0
   -1.1270    1.7150    1.4190 C   0  0  0  0  0  0  0  0  0  0  0  0
   -2.1860    0.9400    0.9280 C   0  0  0  0  0  0  0  0  0  0  0  0
   -2.0800    0.2320   -0.2460 C   0  0  0  0  0  0  0  0  0  0  0  0
   -3.0560   -0.5420   -0.7960 O   0  0  0  0  0  0  0  0  0  0  0  0
   -4.3400   -0.8380   -0.4330 C   0  0  0  0  0  0  0  0  0  0  0  0
   -5.3260    0.2760   -0.3720 C   0  0  0  0  0  0  0  0  0  0  0  0
   -6.9090   -0.3770    0.1240 S   0  0  2  0  0  0  0  0  0  0  0  0
   -6.7700   -1.6070    0.9460 O   0  0  0  0  0  0  0  0  0  0  0  0
   -7.7070   -0.6920   -1.1320 O   0  0  0  0  0  0  0  0  0  0  0  0
   -0.8600    0.3050   -0.9540 C   0  0  0  0  0  0  0  0  0  0  0  0
    3.6510    0.6110   -1.3160 N   0  0  0  0  0  0  0  0  0  0  0  0
    4.7280   -0.0470   -0.8160 C   0  0  0  0  0  0  0  0  0  0  0  0
  1  2  1  0
  2  3  1  0
  3  4  1  0
  3 21  2  0
  4  5  2  0
  5  6  1  0
  6  7  2  3
  6 20  1  0
  7  8  1  0
  8  9  2  0
  8 19  1  0
  9 10  1  0
 10 11  2  0
 11 12  1  0
 12 13  1  0
 12 19  2  0
 13 14  1  0
 14 15  1  0
 16 15  1  6
 16 17  2  0
 16 18  2  0
 20 21  1  0
M  END
