
     RDKit          3D

 21 22  0  0  0  0  0  0  0  0999 V2000
   -5.8790    1.2860    0.6850 C   0  0  0  0  0  0  0  0  0  0  0  0
   -4.7160    0.6780   -0.0640 C   0  0  0  0  0  0  0  0  0  0  0  0
   -4.8900    0.0770   -1.2180 C   0  0  0  0  0  0  0  0  0  0  0  0
   -3.7720   -0.5030   -1.9300 C   0  0  0  0  0  0  0  0  0  0  0  0
   -3.9000   -1.0880   -3.0410 O   0  0  0  0  0  0  0  0  0  0  0  0
   -2.4040   -0.4310   -1.3660 C   0  0  0  0  0  0  0  0  0  0  0  0
   -1.4150   -0.9710   -2.0440 C   0  0  0  0  0  0  0  0  0  0  0  0
   -1.6790   -1.7850   -3.6190 S   0  0  0  0  0  0  0  0  0  0  0  0
   -2.2760    0.2520   -0.0750 C   0  0  0  0  0  0  0  0  0  0  0  0
   -0.9890    0.3500    0.5090 N   0  0  0  0  0  0  0  0  0  0  0  0
   -0.6230    0.9480    1.7210 C   0  0  0  0  0  0  0  0  0  0  0  0
   -1.4770    1.4880    2.4420 O   0  0  0  0  0  0  0  0  0  0  0  0
    0.8110    0.9610    2.1960 C   0  0  0  0  0  0  0  0  0  0  0  0
    1.6270    0.2910    1.2240 O   0  0  0  0  0  0  0  0  0  0  0  0
    2.9920    0.1650    1.4230 C   0  0  0  0  0  0  0  0  0  0  0  0
    3.4570    0.6670    2.4900 O   0  0  0  0  0  0  0  0  0  0  0  0
    3.8490   -0.4840    0.5030 N   0  0  0  0  0  0  0  0  0  0  0  0
    5.2590   -0.5670    0.7950 C   0  0  1  0  0  0  0  0  0  0  0  0
    5.9950   -1.7520    0.2820 C   0  0  0  0  0  0  0  0  0  0  0  0
    6.1860   -0.4150   -0.3980 C   0  0  0  0  0  0  0  0  0  0  0  0
   -3.3650    0.7460    0.4860 C   0  0  0  0  0  0  0  0  0  0  0  0
  1  2  1  0
  2  3  2  0
  2 21  1  0
  3  4  1  0
  4  5  2  0
  4  6  1  0
  6  7  2  3
  6  9  1  0
  7  8  1  0
  9 10  1  0
  9 21  2  0
 10 11  1  0
 11 12  2  0
 11 13  1  0
 13 14  1  0
 14 15  1  0
 15 16  2  0
 15 17  1  0
 18 17  1  6
 18 19  1  0
 18 20  1  0
 19 20  1  0
M  END
