
     RDKit          3D

 21 22  0  0  0  0  0  0  0  0999 V2000
   -4.9260    0.8890   -1.9130 C   0  0  0  0  0  0  0  0  0  0  0  0
   -5.3010    1.3750   -0.5400 C   0  0  0  0  0  0  0  0  0  0  0  0
   -3.8920    1.7100    0.5170 S   0  0  0  0  0  0  0  0  0  0  0  0
   -2.9970    0.2140    0.9220 C   0  0  0  0  0  0  0  0  0  0  0  0
   -3.4450   -0.9380    0.4420 C   0  0  0  0  0  0  0  0  0  0  0  0
   -2.8250   -2.2690    0.6790 C   0  0  0  0  0  0  0  0  0  0  0  0
   -1.7120   -2.2190    1.7000 C   0  0  0  0  0  0  0  0  0  0  0  0
   -1.0360   -0.9620    1.4970 N   0  0  0  0  0  0  0  0  0  0  0  0
    0.3030   -0.9540    1.0400 C   0  0  0  0  0  0  0  0  0  0  0  0
    0.9280   -2.0450    0.7980 O   0  0  0  0  0  0  0  0  0  0  0  0
    1.0710    0.2950    0.8080 C   0  0  0  0  0  0  0  0  0  0  0  0
    2.3720   -0.0030    0.3460 O   0  0  0  0  0  0  0  0  0  0  0  0
    3.3150    0.9660    0.0490 C   0  0  0  0  0  0  0  0  0  0  0  0
    3.0050    2.1610    0.1970 O   0  0  0  0  0  0  0  0  0  0  0  0
    4.6540    0.5670   -0.4320 C   0  0  0  0  0  0  0  0  0  0  0  0
    5.0920   -0.7250   -0.6300 C   0  0  0  0  0  0  0  0  0  0  0  0
    6.3580   -0.7140   -1.0730 N   0  0  0  0  0  0  0  0  0  0  0  0
    6.7220    0.5890   -1.1550 C   0  0  0  0  0  0  0  0  0  0  0  0
    5.6900    1.3890   -0.7660 C   0  0  0  0  0  0  0  0  0  0  0  0
    5.7100    2.7730   -0.7240 O   0  0  0  0  0  0  0  0  0  0  0  0
   -1.7820    0.2310    1.7770 C   0  0  0  0  0  0  0  0  0  0  0  0
  1  2  1  0
  2  3  1  0
  3  4  1  0
  4  5  2  0
  4 21  1  0
  5  6  1  0
  6  7  1  0
  7  8  1  0
  8  9  1  0
  8 21  1  0
  9 10  2  0
  9 11  1  0
 11 12  1  0
 12 13  1  0
 13 14  2  0
 13 15  1  0
 15 16  2  0
 15 19  1  0
 16 17  1  0
 17 18  1  0
 18 19  2  0
 19 20  1  0
M  END
