
     RDKit          3D

 21 22  0  0  0  0  0  0  0  0999 V2000
    8.0990    0.1100   -1.0870 C   0  0  0  0  0  0  0  0  0  0  0  0
    6.3560    0.5410   -1.0410 S   0  0  0  0  0  0  0  0  0  0  0  0
    5.6860    0.0260    0.5400 C   0  0  0  0  0  0  0  0  0  0  0  0
    4.2010    0.3400    0.6540 C   0  0  0  0  0  0  0  0  0  0  0  0
    3.8370    1.4580    1.0760 O   0  0  0  0  0  0  0  0  0  0  0  0
    3.2420   -0.6100    0.2910 N   0  0  0  0  0  0  0  0  0  0  0  0
    1.8540   -0.4860    0.3280 C   0  0  0  0  0  0  0  0  0  0  0  0
    1.1800    0.6390    0.7180 C   0  0  0  0  0  0  0  0  0  0  0  0
   -0.2190    0.7030    0.7500 C   0  0  0  0  0  0  0  0  0  0  0  0
   -0.9670   -0.3870    0.3830 C   0  0  0  0  0  0  0  0  0  0  0  0
   -2.3470   -0.2890    0.4270 O   0  0  0  0  0  0  0  0  0  0  0  0
   -3.1630    0.0020   -0.6450 C   0  0  0  0  0  0  0  0  0  0  0  0
   -2.6380    0.1950   -1.7630 O   0  0  0  0  0  0  0  0  0  0  0  0
   -4.6190    0.0940   -0.5260 C   0  0  0  0  0  0  0  0  0  0  0  0
   -5.3880    0.3680   -1.5600 C   0  0  0  0  0  0  0  0  0  0  0  0
   -6.8590    0.4570   -1.4230 C   0  0  0  0  0  0  0  0  0  0  0  0
   -7.3330    0.2430   -0.1310 O   0  0  0  0  0  0  0  0  0  0  0  0
   -6.5490   -0.0430    0.9560 C   0  0  0  0  0  0  0  0  0  0  0  0
   -5.2510   -0.1150    0.7710 C   0  0  0  0  0  0  0  0  0  0  0  0
   -0.2770   -1.5120   -0.0070 C   0  0  0  0  0  0  0  0  0  0  0  0
    1.0580   -1.5380   -0.0260 N   0  0  0  0  0  0  0  0  0  0  0  0
  1  2  1  0
  2  3  1  0
  3  4  1  0
  4  5  2  0
  4  6  1  0
  6  7  1  0
  7  8  2  0
  7 21  1  0
  8  9  1  0
  9 10  2  0
 10 11  1  0
 10 20  1  0
 11 12  1  0
 12 13  2  0
 12 14  1  0
 14 15  2  0
 14 19  1  0
 15 16  1  0
 16 17  1  0
 17 18  1  0
 18 19  2  0
 20 21  2  0
M  END
