
     RDKit          3D

 21 22  0  0  0  0  0  0  0  0999 V2000
    5.8600    0.0180    0.6050 C   0  0  0  0  0  0  0  0  0  0  0  0
    4.4790    0.4310    0.0690 C   0  0  1  0  0  0  0  0  0  0  0  0
    4.6020    0.2640   -1.4530 C   0  0  0  0  0  0  0  0  0  0  0  0
    3.4420   -0.5010    0.5520 C   0  0  0  0  0  0  0  0  0  0  0  0
    3.7150   -1.6400    1.1720 O   0  0  0  0  0  0  0  0  0  0  0  0
    2.5850   -2.2620    1.4830 C   0  0  0  0  0  0  0  0  0  0  0  0
    1.5750   -1.4900    1.0440 N   0  0  0  0  0  0  0  0  0  0  0  0
    2.0850   -0.3810    0.4590 C   0  0  0  0  0  0  0  0  0  0  0  0
    1.3400    0.7200   -0.1330 C   0  0  0  0  0  0  0  0  0  0  0  0
    1.8990    1.7070   -0.6240 O   0  0  0  0  0  0  0  0  0  0  0  0
   -0.0590    0.7200   -0.1760 O   0  0  0  0  0  0  0  0  0  0  0  0
   -0.7740    1.7930   -0.7490 C   0  0  0  0  0  0  0  0  0  0  0  0
   -2.2380    1.4630   -0.6370 C   0  0  0  0  0  0  0  0  0  0  0  0
   -3.0300    2.3030   -1.0760 O   0  0  0  0  0  0  0  0  0  0  0  0
   -2.6770    0.2620   -0.0640 N   0  0  0  0  0  0  0  0  0  0  0  0
   -4.0500   -0.1540    0.0920 C   0  0  0  0  0  0  0  0  0  0  0  0
   -5.0780    0.5320   -0.2730 C   0  0  0  0  0  0  0  0  0  0  0  0
   -6.5220    0.2360   -0.1780 C   0  0  0  0  0  0  0  0  0  0  0  0
   -6.8640   -1.3420    0.5640 S   0  0  0  0  0  0  0  0  0  0  0  0
   -5.3110   -2.0850    0.9760 C   0  0  0  0  0  0  0  0  0  0  0  0
   -4.1880   -1.4790    0.7240 C   0  0  0  0  0  0  0  0  0  0  0  0
  2  1  1  1
  2  3  1  0
  2  4  1  0
  4  5  1  0
  4  8  2  0
  5  6  1  0
  6  7  2  0
  7  8  1  0
  8  9  1  0
  9 10  2  0
  9 11  1  0
 11 12  1  0
 12 13  1  0
 13 14  2  0
 13 15  1  0
 15 16  1  0
 16 17  2  0
 16 21  1  0
 17 18  1  0
 18 19  1  0
 19 20  1  0
 20 21  2  0
M  END
