
     RDKit          3D

 21 22  0  0  0  0  0  0  0  0999 V2000
    5.7950    2.1820    0.6420 O   0  0  0  0  0  0  0  0  0  0  0  0
    5.6960    1.6190   -0.4650 N   0  0  0  0  0  0  0  0  0  0  0  0
    4.9400    0.4280   -0.6690 C   0  0  0  0  0  0  0  0  0  0  0  0
    5.2090   -0.2100   -1.7230 O   0  0  0  0  0  0  0  0  0  0  0  0
    3.9090   -0.0260    0.2960 C   0  0  0  0  0  0  0  0  0  0  0  0
    3.8050    0.8860    1.4190 N   0  0  0  0  0  0  0  0  0  0  0  0
    2.5740    0.2270    2.4470 S   0  0  2  0  0  0  0  0  0  0  0  0
    2.5210    1.1190    3.6780 O   0  0  0  0  0  0  0  0  0  0  0  0
    2.9890   -1.1360    2.9410 O   0  0  0  0  0  0  0  0  0  0  0  0
    1.0300    0.1290    1.6780 C   0  0  0  0  0  0  0  0  0  0  0  0
    0.7270   -1.0290    0.9780 C   0  0  0  0  0  0  0  0  0  0  0  0
   -0.4860   -1.1890    0.3390 C   0  0  0  0  0  0  0  0  0  0  0  0
   -1.4280   -0.1540    0.4030 C   0  0  0  0  0  0  0  0  0  0  0  0
   -2.7050   -0.3400   -0.2730 C   0  0  0  0  0  0  0  0  0  0  0  0
   -2.8870   -1.0670   -1.4200 C   0  0  0  0  0  0  0  0  0  0  0  0
   -4.1200   -1.2190   -2.0270 C   0  0  0  0  0  0  0  0  0  0  0  0
   -5.2400   -0.6290   -1.4860 C   0  0  0  0  0  0  0  0  0  0  0  0
   -5.0830    0.1100   -0.3300 C   0  0  0  0  0  0  0  0  0  0  0  0
   -3.8320    0.2590    0.2790 C   0  0  0  0  0  0  0  0  0  0  0  0
   -1.1420    1.0080    1.0980 C   0  0  0  0  0  0  0  0  0  0  0  0
    0.0730    1.1060    1.7070 C   0  0  0  0  0  0  0  0  0  0  0  0
  1  2  2  0
  2  3  1  0
  3  4  2  0
  3  5  1  0
  5  6  1  0
  7  6  1  6
  7  8  2  0
  7  9  2  0
  7 10  1  0
 10 11  2  0
 10 21  1  0
 11 12  1  0
 12 13  2  0
 13 14  1  0
 13 20  1  0
 14 15  2  0
 14 19  1  0
 15 16  1  0
 16 17  2  0
 17 18  1  0
 18 19  2  0
 20 21  2  0
M  END
