
     RDKit          3D

 21 22  0  0  0  0  0  0  0  0999 V2000
    6.8260    1.0390    0.0630 C   0  0  0  0  0  0  0  0  0  0  0  0
    6.8760   -0.2890    0.4400 O   0  0  0  0  0  0  0  0  0  0  0  0
    5.7430   -0.6800    1.1090 C   0  0  0  0  0  0  0  0  0  0  0  0
    4.5280   -0.6080    0.2700 C   0  0  0  0  0  0  0  0  0  0  0  0
    4.4610   -0.5860   -1.1050 C   0  0  0  0  0  0  0  0  0  0  0  0
    3.1010   -0.5140   -1.4030 C   0  0  0  0  0  0  0  0  0  0  0  0
    2.4240   -0.4970   -0.2070 C   0  0  0  0  0  0  0  0  0  0  0  0
    0.9840   -0.4270   -0.0600 C   0  0  0  0  0  0  0  0  0  0  0  0
    0.2160   -0.3400   -1.1260 C   0  0  0  0  0  0  0  0  0  0  0  0
   -1.2210   -0.2680   -1.0780 C   0  0  0  0  0  0  0  0  0  0  0  0
   -1.8980   -0.1750   -2.1500 O   0  0  0  0  0  0  0  0  0  0  0  0
   -1.9650   -0.2950    0.1300 N   0  0  0  0  0  0  0  0  0  0  0  0
   -3.3590   -0.2180    0.0750 N   0  0  0  0  0  0  0  0  0  0  0  0
   -4.1360    0.5540    0.9670 C   0  0  0  0  0  0  0  0  0  0  0  0
   -3.5750    1.2210    1.8790 O   0  0  0  0  0  0  0  0  0  0  0  0
   -5.5670    0.5500    0.7940 C   0  0  0  0  0  0  0  0  0  0  0  0
   -6.3810   -0.0610   -0.0930 C   0  0  0  0  0  0  0  0  0  0  0  0
   -7.6950    0.0980   -0.0520 C   0  0  0  0  0  0  0  0  0  0  0  0
   -8.1900    0.9480    0.9780 C   0  0  0  0  0  0  0  0  0  0  0  0
   -6.7290    1.4660    1.8260 S   0  0  0  0  0  0  0  0  0  0  0  0
    3.2920   -0.5530    0.7560 O   0  0  0  0  0  0  0  0  0  0  0  0
  1  2  1  0
  2  3  1  0
  3  4  1  0
  4  5  2  0
  4 21  1  0
  5  6  1  0
  6  7  2  0
  7  8  1  0
  7 21  1  0
  8  9  2  3
  9 10  1  0
 10 11  2  0
 10 12  1  0
 12 13  1  0
 13 14  1  0
 14 15  2  0
 14 16  1  0
 16 17  2  0
 16 20  1  0
 17 18  1  0
 18 19  2  0
 19 20  1  0
M  END
