
     RDKit          3D

 19 19  0  0  0  0  0  0  0  0999 V2000
   -6.6470    0.1100    0.5220 C   0  0  0  0  0  0  0  0  0  0  0  0
   -5.4930   -0.3000   -0.2540 N   0  0  0  0  0  0  0  0  0  0  0  0
   -4.2060    0.0350    0.2340 C   0  0  0  0  0  0  0  0  0  0  0  0
   -4.0150    0.6680    1.3020 O   0  0  0  0  0  0  0  0  0  0  0  0
   -3.0190   -0.3770   -0.5500 C   0  0  0  0  0  0  0  0  0  0  0  0
   -1.5130    0.1450    0.2430 S   0  0  1  0  0  0  0  0  0  0  0  0
   -1.5720    1.6580    0.3150 O   0  0  0  0  0  0  0  0  0  0  0  0
   -1.4230   -0.3570    1.6370 O   0  0  0  0  0  0  0  0  0  0  0  0
   -0.1640   -0.3880   -0.7570 C   0  0  0  0  0  0  0  0  0  0  0  0
    1.1370   -0.0110   -0.1980 C   0  0  0  0  0  0  0  0  0  0  0  0
    1.2600    0.6330    0.8940 O   0  0  0  0  0  0  0  0  0  0  0  0
    2.3270   -0.3580   -0.8710 N   0  0  0  0  0  0  0  0  0  0  0  0
    3.6030   -0.0050   -0.3500 C   0  0  0  0  0  0  0  0  0  0  0  0
    4.4750   -0.9450   -0.0590 C   0  0  0  0  0  0  0  0  0  0  0  0
    5.8320   -0.7310    0.4850 C   0  0  0  0  0  0  0  0  0  0  0  0
    6.0760    0.6250    0.6540 O   0  0  0  0  0  0  0  0  0  0  0  0
    5.1820    1.6080    0.3560 C   0  0  0  0  0  0  0  0  0  0  0  0
    3.9840    1.3820   -0.1270 C   0  0  0  0  0  0  0  0  0  0  0  0
    3.1150    2.3970   -0.4130 F   0  0  0  0  0  0  0  0  0  0  0  0
  1  2  1  0
  2  3  1  0
  3  4  2  0
  3  5  1  0
  6  5  1  6
  6  7  2  0
  6  8  2  0
  6  9  1  0
  9 10  1  0
 10 11  2  0
 10 12  1  0
 12 13  1  0
 13 14  2  0
 13 18  1  0
 14 15  1  0
 15 16  1  0
 16 17  1  0
 17 18  2  0
 18 19  1  0
M  END
