
     RDKit          3D

 19 19  0  0  0  0  0  0  0  0999 V2000
    4.6450    1.8540    0.6400 C   0  0  0  0  0  0  0  0  0  0  0  0
    3.9500    0.6390    0.5550 O   0  0  0  0  0  0  0  0  0  0  0  0
    3.6750    0.3070   -0.7820 C   0  0  0  0  0  0  0  0  0  0  0  0
    2.9600   -0.9980   -0.8270 C   0  0  0  0  0  0  0  0  0  0  0  0
    1.6710   -0.9370   -0.0780 C   0  0  0  0  0  0  0  0  0  0  0  0
    1.3430    0.1430    0.4630 O   0  0  0  0  0  0  0  0  0  0  0  0
    0.8260   -2.0550    0.0320 N   0  0  0  0  0  0  0  0  0  0  0  0
   -0.3600   -2.0020    0.7140 N   0  0  0  0  0  0  0  0  0  0  0  0
   -1.6820   -1.7620   -0.3750 S   0  0  1  0  0  0  0  0  0  0  0  0
   -1.1400   -1.9670   -1.7880 O   0  0  0  0  0  0  0  0  0  0  0  0
   -2.7610   -2.7570   -0.2020 O   0  0  0  0  0  0  0  0  0  0  0  0
   -2.2440   -0.1220   -0.3200 C   0  0  0  0  0  0  0  0  0  0  0  0
   -1.6960    0.8120   -1.0620 C   0  0  0  0  0  0  0  0  0  0  0  0
   -2.1720    2.2090   -1.0190 C   0  0  0  0  0  0  0  0  0  0  0  0
   -3.1990    2.4600   -0.1140 O   0  0  0  0  0  0  0  0  0  0  0  0
   -3.7760    1.4940    0.6600 C   0  0  0  0  0  0  0  0  0  0  0  0
   -4.8050    1.7330    1.5350 F   0  0  0  0  0  0  0  0  0  0  0  0
   -3.3480    0.2510    0.5900 C   0  0  0  0  0  0  0  0  0  0  0  0
   -3.9460   -0.8340    1.4020 C   0  0  0  0  0  0  0  0  0  0  0  0
  1  2  1  0
  2  3  1  0
  3  4  1  0
  4  5  1  0
  5  6  2  0
  5  7  1  0
  7  8  1  0
  9  8  1  1
  9 10  2  0
  9 11  2  0
  9 12  1  0
 12 13  2  0
 12 18  1  0
 13 14  1  0
 14 15  1  0
 15 16  1  0
 16 17  1  0
 16 18  2  0
 18 19  1  0
M  END
