
     RDKit          3D

 19 19  0  0  0  0  0  0  0  0999 V2000
    5.0020   -1.7120   -0.5610 O   0  0  0  0  0  0  0  0  0  0  0  0
    5.6710   -0.6740   -0.7440 C   0  0  0  0  0  0  0  0  0  0  0  0
    7.0470   -0.7550   -0.7130 O   0  0  0  0  0  0  0  0  0  0  0  0
    5.0040    0.6000   -0.9860 C   0  0  0  0  0  0  0  0  0  0  0  0
    3.6110    0.5350   -0.9910 O   0  0  0  0  0  0  0  0  0  0  0  0
    2.8290    0.1250    0.0560 C   0  0  0  0  0  0  0  0  0  0  0  0
    3.3650   -0.2260    1.1140 O   0  0  0  0  0  0  0  0  0  0  0  0
    1.3780    0.0960   -0.0570 N   0  0  0  0  0  0  0  0  0  0  0  0
    0.6350   -0.3420    1.0730 C   0  0  0  0  0  0  0  0  0  0  0  0
   -0.8010   -0.3290    0.8440 C   0  0  0  0  0  0  0  0  0  0  0  0
   -1.5530   -0.7070    1.8070 O   0  0  0  0  0  0  0  0  0  0  0  0
   -1.4410    0.0590   -0.3330 N   0  0  0  0  0  0  0  0  0  0  0  0
   -2.8760    0.0410   -0.4750 C   0  0  0  0  0  0  0  0  0  0  0  0
   -3.3770   -0.7200   -1.4190 C   0  0  0  0  0  0  0  0  0  0  0  0
   -5.1300   -0.8680   -1.7410 S   0  0  0  0  0  0  0  0  0  0  0  0
   -5.9720    0.1880   -0.5610 C   0  0  0  0  0  0  0  0  0  0  0  0
   -5.0380    0.8910    0.3500 C   0  0  0  0  0  0  0  0  0  0  0  0
   -3.7420    0.8150    0.3680 C   0  0  0  0  0  0  0  0  0  0  0  0
   -3.1050    1.5790    1.3260 F   0  0  0  0  0  0  0  0  0  0  0  0
  1  2  2  0
  2  3  1  0
  2  4  1  0
  4  5  1  0
  5  6  1  0
  6  7  2  0
  6  8  1  0
  8  9  1  0
  9 10  1  0
 10 11  2  0
 10 12  1  0
 12 13  1  0
 13 14  2  0
 13 18  1  0
 14 15  1  0
 15 16  1  0
 16 17  1  0
 17 18  2  0
 18 19  1  0
M  END
