
     RDKit          3D

 19 19  0  0  0  0  0  0  0  0999 V2000
    3.6380   -0.6880    1.3640 O   0  0  0  0  0  0  0  0  0  0  0  0
    4.4400   -0.4210    0.4340 C   0  0  0  0  0  0  0  0  0  0  0  0
    5.8160   -1.0350    0.3930 C   0  0  0  0  0  0  0  0  0  0  0  0
    5.9980   -1.8750    1.4910 O   0  0  0  0  0  0  0  0  0  0  0  0
    7.1990   -2.4150    1.4600 F   0  0  0  0  0  0  0  0  0  0  0  0
    4.0010    0.4760   -0.5710 N   0  0  0  0  0  0  0  0  0  0  0  0
    2.6900    1.0330   -0.4930 C   0  0  0  0  0  0  0  0  0  0  0  0
    1.6180    0.0120   -0.5130 C   0  0  0  0  0  0  0  0  0  0  0  0
    1.9550   -1.1920   -0.5940 O   0  0  0  0  0  0  0  0  0  0  0  0
    0.2400    0.3500   -0.4430 N   0  0  0  0  0  0  0  0  0  0  0  0
   -0.7990   -0.5770   -0.4590 C   0  0  0  0  0  0  0  0  0  0  0  0
   -0.5310   -1.7820   -0.5380 O   0  0  0  0  0  0  0  0  0  0  0  0
   -2.2330   -0.2090   -0.3860 C   0  0  0  0  0  0  0  0  0  0  0  0
   -2.8230    1.0500   -0.2920 C   0  0  0  0  0  0  0  0  0  0  0  0
   -4.1530    1.0910   -0.2410 C   0  0  0  0  0  0  0  0  0  0  0  0
   -4.8760   -0.0340   -0.2800 C   0  0  0  0  0  0  0  0  0  0  0  0
   -6.3250   -0.3260   -0.2440 C   0  0  0  0  0  0  0  0  0  0  0  0
   -7.0790    0.8210   -0.1500 O   0  0  0  0  0  0  0  0  0  0  0  0
   -3.6310   -1.2660   -0.3960 S   0  0  0  0  0  0  0  0  0  0  0  0
  1  2  2  0
  2  3  1  0
  2  6  1  0
  3  4  1  0
  4  5  1  0
  6  7  1  0
  7  8  1  0
  8  9  2  0
  8 10  1  0
 10 11  1  0
 11 12  2  0
 11 13  1  0
 13 14  2  0
 13 19  1  0
 14 15  1  0
 15 16  2  0
 16 17  1  0
 16 19  1  0
 17 18  1  0
M  END
