
     RDKit          3D

 18 18  0  0  0  0  0  0  0  0999 V2000
   -3.9800   -1.6940    1.6130 C   0  0  0  0  0  0  0  0  0  0  0  0
   -2.5570   -1.5000    1.1790 C   0  0  0  0  0  0  0  0  0  0  0  0
   -2.4710   -0.7400   -0.1550 C   0  0  0  0  0  0  0  0  0  0  0  0
   -0.9970   -0.6390   -0.4290 C   0  0  0  0  0  0  0  0  0  0  0  0
   -0.4270    0.5210   -0.6090 C   0  0  0  0  0  0  0  0  0  0  0  0
   -1.2660    2.0350   -0.5570 S   0  0  2  0  0  0  0  0  0  0  0  0
   -1.4710    2.6370    1.0530 N   0  0  0  0  0  0  0  0  0  0  0  0
   -2.5940    2.0110   -1.2310 O   0  0  0  0  0  0  0  0  0  0  0  0
   -0.4460    3.0530   -1.3610 O   0  0  0  0  0  0  0  0  0  0  0  0
    1.0410    0.5380   -0.8670 C   0  0  0  0  0  0  0  0  0  0  0  0
    1.6260    1.6490   -1.0440 O   0  0  0  0  0  0  0  0  0  0  0  0
    1.8290   -0.6760   -0.9240 C   0  0  0  0  0  0  0  0  0  0  0  0
    3.1300   -0.6990   -1.1500 C   0  0  0  0  0  0  0  0  0  0  0  0
    3.8940    0.4790   -1.3620 N   0  0  0  0  0  0  0  0  0  0  0  0
    5.0000    0.8680   -0.4890 C   0  0  0  0  0  0  0  0  0  0  0  0
    1.0910   -1.9130   -0.7120 C   0  0  0  0  0  0  0  0  0  0  0  0
    1.7160   -3.0040   -0.7500 O   0  0  0  0  0  0  0  0  0  0  0  0
   -0.2680   -1.8430   -0.4770 O   0  0  0  0  0  0  0  0  0  0  0  0
  1  2  1  0
  2  3  1  0
  3  4  1  0
  4  5  2  0
  4 18  1  0
  5  6  1  0
  5 10  1  0
  6  7  1  1
  6  8  2  0
  6  9  2  0
 10 11  2  0
 10 12  1  0
 12 13  2  3
 12 16  1  0
 13 14  1  0
 14 15  1  0
 16 17  2  0
 16 18  1  0
M  END
