
     RDKit          3D

 19 19  0  0  0  0  0  0  0  0999 V2000
   -3.8100    1.1340    1.0280 C   0  0  0  0  0  0  0  0  0  0  0  0
   -3.2600    1.7290    0.0440 C   0  0  0  0  0  0  0  0  0  0  0  0
   -3.9920    2.9260   -0.3500 O   0  0  0  0  0  0  0  0  0  0  0  0
   -2.0960    1.5110   -0.7560 C   0  0  0  0  0  0  0  0  0  0  0  0
   -1.6720    2.2290   -1.8140 C   0  0  0  0  0  0  0  0  0  0  0  0
   -2.3540    3.3190   -2.2660 F   0  0  0  0  0  0  0  0  0  0  0  0
   -0.4720    1.6150   -2.4470 C   0  0  0  0  0  0  0  0  0  0  0  0
   -0.6400    0.1480   -1.9200 C   0  0  0  0  0  0  0  0  0  0  0  0
   -1.0410    0.5340   -0.5460 N   0  0  0  0  0  0  0  0  0  0  0  0
   -0.4660    0.0460    0.6210 C   0  0  0  0  0  0  0  0  0  0  0  0
   -0.7650    0.4310    1.7650 O   0  0  0  0  0  0  0  0  0  0  0  0
    0.5890   -1.0140    0.4400 C   0  0  0  0  0  0  0  0  0  0  0  0
    1.3090   -1.3320    2.0550 S   0  0  2  0  0  0  0  0  0  0  0  0
    0.2150   -1.9330    2.9090 O   0  0  0  0  0  0  0  0  0  0  0  0
    1.7500   -0.0340    2.5960 O   0  0  0  0  0  0  0  0  0  0  0  0
    2.5910   -2.5150    1.9040 C   0  0  0  0  0  0  0  0  0  0  0  0
    3.7130   -2.1560    1.0250 C   0  0  0  0  0  0  0  0  0  0  0  0
    3.9790   -1.1230    0.1980 N   0  0  0  0  0  0  0  0  0  0  0  0
    4.6590   -3.0760    1.0870 O   0  0  0  0  0  0  0  0  0  0  0  0
  1  2  2  0
  2  3  1  0
  2  4  1  0
  4  5  2  0
  4  9  1  0
  5  6  1  0
  5  7  1  0
  7  8  1  0
  8  9  1  0
  9 10  1  0
 10 11  2  0
 10 12  1  0
 13 12  1  6
 13 14  2  0
 13 15  2  0
 13 16  1  0
 16 17  1  0
 17 18  1  0
 17 19  2  0
M  END
