
     RDKit          3D

 19 19  0  0  0  0  0  0  0  0999 V2000
    6.7900    0.6130    0.3300 C   0  0  0  0  0  0  0  0  0  0  0  0
    5.4780    1.1590    0.4550 O   0  0  0  0  0  0  0  0  0  0  0  0
    4.3630    0.3820    0.1960 C   0  0  0  0  0  0  0  0  0  0  0  0
    4.5860   -0.8170   -0.1510 O   0  0  0  0  0  0  0  0  0  0  0  0
    2.9790    0.8690    0.3020 C   0  0  0  0  0  0  0  0  0  0  0  0
    2.0160   -0.2220   -0.0450 C   0  0  0  0  0  0  0  0  0  0  0  0
    0.6160    0.2120    0.0450 N   0  0  0  0  0  0  0  0  0  0  0  0
   -0.4350   -0.6780   -0.2450 C   0  0  0  0  0  0  0  0  0  0  0  0
   -0.1420   -1.8610   -0.5850 O   0  0  0  0  0  0  0  0  0  0  0  0
   -1.8340   -0.2370   -0.1530 C   0  0  0  0  0  0  0  0  0  0  0  0
   -2.7980   -1.1200   -0.4390 C   0  0  0  0  0  0  0  0  0  0  0  0
   -4.2020   -0.8840   -0.4070 C   0  0  0  0  0  0  0  0  0  0  0  0
   -5.1280   -2.0180   -0.7660 C   0  0  0  0  0  0  0  0  0  0  0  0
   -4.9260   -3.0660    0.1050 F   0  0  0  0  0  0  0  0  0  0  0  0
   -4.7180    0.2680   -0.0830 C   0  0  0  0  0  0  0  0  0  0  0  0
   -3.7330    1.6320    0.3450 S   0  0  2  0  0  0  0  0  0  0  0  0
   -4.0470    2.1580    1.7130 O   0  0  0  0  0  0  0  0  0  0  0  0
   -3.9500    2.6900   -0.7180 O   0  0  0  0  0  0  0  0  0  0  0  0
   -2.0850    1.1020    0.2340 N   0  0  0  0  0  0  0  0  0  0  0  0
  1  2  1  0
  2  3  1  0
  3  4  2  0
  3  5  1  0
  5  6  1  0
  6  7  1  0
  7  8  1  0
  8  9  2  0
  8 10  1  0
 10 11  2  0
 10 19  1  0
 11 12  1  0
 12 13  1  0
 12 15  2  0
 13 14  1  0
 15 16  1  0
 16 17  2  0
 16 18  2  0
 16 19  1  1
M  END
