
     RDKit          3D

 18 18  0  0  0  0  0  0  0  0999 V2000
    5.9410    1.5290    1.3640 C   0  0  0  0  0  0  0  0  0  0  0  0
    5.3350    0.4810    0.7710 C   0  0  0  0  0  0  0  0  0  0  0  0
    3.9230    0.1180    1.0630 C   0  0  0  0  0  0  0  0  0  0  0  0
    3.2300    0.1930   -0.1100 O   0  0  0  0  0  0  0  0  0  0  0  0
    1.8880   -0.1220   -0.0570 C   0  0  0  0  0  0  0  0  0  0  0  0
    1.1910    0.8050    0.8720 C   0  0  0  0  0  0  0  0  0  0  0  0
   -0.2080    0.5440    0.9780 O   0  0  0  0  0  0  0  0  0  0  0  0
   -1.0880    0.6040   -0.0910 C   0  0  0  0  0  0  0  0  0  0  0  0
   -0.6020    0.9090   -1.2090 O   0  0  0  0  0  0  0  0  0  0  0  0
   -2.5400    0.3280    0.0360 C   0  0  1  0  0  0  0  0  0  0  0  0
   -3.1990    1.2970    1.0160 C   0  0  0  0  0  0  0  0  0  0  0  0
   -3.1820    0.4710   -1.3180 C   0  0  0  0  0  0  0  0  0  0  0  0
   -4.2660   -0.5320   -1.5630 C   0  0  0  0  0  0  0  0  0  0  0  0
   -5.2260   -0.6130   -0.4160 C   0  0  0  0  0  0  0  0  0  0  0  0
   -4.6850   -1.5610    0.6390 C   0  0  0  0  0  0  0  0  0  0  0  0
   -2.8630   -1.3510    0.6270 S   0  0  0  0  0  0  0  0  0  0  0  0
    6.2650   -0.4870   -0.3910 S   0  0  0  0  0  0  0  0  0  0  0  0
    5.2090   -1.8130   -1.0220 C   0  0  0  0  0  0  0  0  0  0  0  0
  1  2  2  0
  2  3  1  0
  2 17  1  0
  3  4  1  0
  4  5  1  0
  5  6  1  0
  6  7  1  0
  7  8  1  0
  8  9  2  0
  8 10  1  0
 10 11  1  1
 10 12  1  0
 10 16  1  0
 12 13  1  0
 13 14  1  0
 14 15  1  0
 15 16  1  0
 17 18  1  0
M  END
