
     RDKit          3D

 16 16  0  0  0  0  0  0  0  0999 V2000
    2.7780   -0.0880    2.6640 O   0  0  0  0  0  0  0  0  0  0  0  0
    2.7120   -0.2050    1.4120 C   0  0  0  0  0  0  0  0  0  0  0  0
    1.4330   -0.7220    0.8620 C   0  0  0  0  0  0  0  0  0  0  0  0
    1.4530   -0.8210   -0.5760 N   0  0  0  0  0  0  0  0  0  0  0  0
   -0.0860   -1.4300   -1.0690 S   0  0  2  0  0  0  0  0  0  0  0  0
   -0.3470   -2.7780   -0.5130 O   0  0  0  0  0  0  0  0  0  0  0  0
   -0.0790   -1.5030   -2.5870 O   0  0  0  0  0  0  0  0  0  0  0  0
   -1.3870   -0.3540   -0.6150 C   0  0  0  0  0  0  0  0  0  0  0  0
   -1.9890   -0.5220    0.6080 C   0  0  0  0  0  0  0  0  0  0  0  0
   -3.0290    0.2910    1.0420 C   0  0  0  0  0  0  0  0  0  0  0  0
   -3.4930    1.3100    0.2380 C   0  0  0  0  0  0  0  0  0  0  0  0
   -4.5030    2.1370    0.6020 F   0  0  0  0  0  0  0  0  0  0  0  0
   -2.8810    1.4720   -0.9920 C   0  0  0  0  0  0  0  0  0  0  0  0
   -1.8450    0.6620   -1.4260 C   0  0  0  0  0  0  0  0  0  0  0  0
    3.8240    0.1500    0.6320 N   0  0  0  0  0  0  0  0  0  0  0  0
    4.9350    0.6090    1.2550 O   0  0  0  0  0  0  0  0  0  0  0  0
  1  2  2  0
  2  3  1  0
  2 15  1  0
  3  4  1  0
  5  4  1  1
  5  6  2  0
  5  7  2  0
  5  8  1  0
  8  9  2  0
  8 14  1  0
  9 10  1  0
 10 11  2  0
 11 12  1  0
 11 13  1  0
 13 14  2  0
 15 16  1  0
M  END
