
     RDKit          3D

 18 18  0  0  0  0  0  0  0  0999 V2000
    4.3390    2.1200    1.1690 C   0  0  0  0  0  0  0  0  0  0  0  0
    4.6390    0.6450    1.1860 C   0  0  0  0  0  0  0  0  0  0  0  0
    4.2040   -0.1790   -0.3000 S   0  0  1  0  0  0  0  0  0  0  0  0
    5.0030    0.3730   -1.4370 O   0  0  0  0  0  0  0  0  0  0  0  0
    4.4800   -1.6350   -0.1860 O   0  0  0  0  0  0  0  0  0  0  0  0
    2.4520   -0.0210   -0.6250 C   0  0  0  0  0  0  0  0  0  0  0  0
    2.0170    1.0410   -1.2610 C   0  0  0  0  0  0  0  0  0  0  0  0
    0.6320    1.2280   -1.5650 C   0  0  0  0  0  0  0  0  0  0  0  0
   -0.3030    0.2980   -1.2210 C   0  0  0  0  0  0  0  0  0  0  0  0
   -1.9820    0.6460   -1.6320 S   0  0  0  0  0  0  0  0  0  0  0  0
   -3.2830   -0.2170   -0.8600 C   0  0  0  0  0  0  0  0  0  0  0  0
   -3.4750    0.2280    0.5780 C   0  0  1  0  0  0  0  0  0  0  0  0
   -3.8090    1.7110    0.6430 C   0  0  0  0  0  0  0  0  0  0  0  0
   -4.6920   -0.5090    1.1030 C   0  0  0  0  0  0  0  0  0  0  0  0
    0.1400   -0.9440   -0.6280 C   0  0  2  0  0  0  0  0  0  0  0  0
   -0.6620   -1.5190    0.3460 O   0  0  0  0  0  0  0  0  0  0  0  0
   -0.9540   -2.8290   -0.0160 C   0  0  0  0  0  0  0  0  0  0  0  0
    1.5310   -1.0200   -0.0940 C   0  0  0  0  0  0  0  0  0  0  0  0
  1  2  1  0
  3  2  1  1
  3  4  2  0
  3  5  2  0
  3  6  1  0
  6  7  2  0
  6 18  1  0
  7  8  1  0
  8  9  2  0
  9 10  1  0
  9 15  1  0
 10 11  1  0
 11 12  1  0
 12 13  1  6
 12 14  1  0
 15 16  1  1
 15 18  1  0
 16 17  1  0
M  END
