
     RDKit          3D

 18 18  0  0  0  0  0  0  0  0999 V2000
    2.0830    1.1460   -1.8360 C   0  0  0  0  0  0  0  0  0  0  0  0
    2.8590    1.1330   -0.5910 C   0  0  0  0  0  0  0  0  0  0  0  0
    2.5350    0.4360    0.4680 C   0  0  0  0  0  0  0  0  0  0  0  0
    1.4640   -0.4060    0.6800 C   0  0  0  0  0  0  0  0  0  0  0  0
    0.4100   -0.7660   -0.2650 C   0  0  0  0  0  0  0  0  0  0  0  0
   -0.8320   -1.8990    0.4390 S   0  0  0  0  0  0  0  0  0  0  0  0
   -2.0900   -2.2890   -0.7730 C   0  0  0  0  0  0  0  0  0  0  0  0
   -2.9230   -1.1330   -1.1550 C   0  0  0  0  0  0  0  0  0  0  0  0
   -3.8310   -1.3220   -2.0020 O   0  0  0  0  0  0  0  0  0  0  0  0
   -2.7810    0.1470   -0.6510 O   0  0  0  0  0  0  0  0  0  0  0  0
   -3.6420    1.1610   -1.0990 C   0  0  0  0  0  0  0  0  0  0  0  0
   -5.0940    0.8580   -0.8110 C   0  0  0  0  0  0  0  0  0  0  0  0
    1.5820   -0.8680    1.9630 C   0  0  0  0  0  0  0  0  0  0  0  0
    0.6740   -1.7980    2.6530 C   0  0  0  0  0  0  0  0  0  0  0  0
    2.6430   -0.3630    2.5250 O   0  0  0  0  0  0  0  0  0  0  0  0
    3.2600    0.4390    1.6580 C   0  0  0  0  0  0  0  0  0  0  0  0
    4.3560    1.0580    2.0090 C   0  0  0  0  0  0  0  0  0  0  0  0
    5.3360    2.1580    1.0360 S   0  0  0  0  0  0  0  0  0  0  0  0
  1  2  1  0
  2  3  2  3
  3  4  1  0
  3 16  1  0
  4  5  1  0
  4 13  2  0
  5  6  1  0
  6  7  1  0
  7  8  1  0
  8  9  2  0
  8 10  1  0
 10 11  1  0
 11 12  1  0
 13 14  1  0
 13 15  1  0
 15 16  1  0
 16 17  2  3
 17 18  1  0
M  END
