
     RDKit          3D

 24 25  0  0  0  0  0  0  0  0999 V2000
   -1.9570   -4.0960    1.7170 C   0  0  0  0  0  0  0  0  0  0  0  0
   -1.0470   -3.3970    0.7380 C   0  0  1  0  0  0  0  0  0  0  0  0
   -0.9370   -4.2690   -0.4890 C   0  0  0  0  0  0  0  0  0  0  0  0
   -1.4910   -2.0200    0.4390 C   0  0  0  0  0  0  0  0  0  0  0  0
   -2.6030   -1.5640    0.9760 C   0  0  0  0  0  0  0  0  0  0  0  0
   -3.0860   -0.2120    0.7130 C   0  0  0  0  0  0  0  0  0  0  0  0
   -2.3780    0.9550    0.5800 C   0  0  0  0  0  0  0  0  0  0  0  0
   -3.2680    1.9440    0.3350 N   0  0  0  0  0  0  0  0  0  0  0  0
   -4.5190    1.4080    0.3140 C   0  0  0  0  0  0  0  0  0  0  0  0
   -5.7840    2.1410    0.0740 C   0  0  2  0  0  0  0  0  0  0  0  0
   -5.7920    3.2610   -0.9060 C   0  0  0  0  0  0  0  0  0  0  0  0
   -5.7640    3.5660    0.5480 C   0  0  0  0  0  0  0  0  0  0  0  0
   -4.3740    0.1110    0.5440 N   0  0  0  0  0  0  0  0  0  0  0  0
   -0.7630   -1.2000   -0.3930 O   0  0  0  0  0  0  0  0  0  0  0  0
    0.6170   -1.3480   -0.4820 C   0  0  0  0  0  0  0  0  0  0  0  0
    1.3630   -0.2850   -0.2800 C   0  0  0  0  0  0  0  0  0  0  0  0
    2.8110   -0.4160   -0.3690 C   0  0  0  0  0  0  0  0  0  0  0  0
    3.3460   -1.5200   -0.6350 O   0  0  0  0  0  0  0  0  0  0  0  0
    3.6660    0.7000   -0.1580 N   0  0  0  0  0  0  0  0  0  0  0  0
    5.0810    0.5310   -0.2550 C   0  0  0  0  0  0  0  0  0  0  0  0
    5.8360    1.8200    0.0040 C   0  0  0  0  0  0  0  0  0  0  0  0
    7.2760    1.5480   -0.1150 C   0  0  0  0  0  0  0  0  0  0  0  0
    8.2170    2.5900    0.0830 N   0  0  0  0  0  0  0  0  0  0  0  0
    7.6760    0.4040   -0.3900 O   0  0  0  0  0  0  0  0  0  0  0  0
  2  1  1  1
  2  3  1  0
  2  4  1  0
  4  5  2  3
  4 14  1  0
  5  6  1  0
  6  7  2  0
  6 13  1  0
  7  8  1  0
  8  9  1  0
 10  9  1  6
  9 13  2  0
 10 11  1  0
 10 12  1  0
 11 12  1  0
 14 15  1  0
 15 16  2  3
 16 17  1  0
 17 18  2  0
 17 19  1  0
 19 20  1  0
 20 21  1  0
 21 22  1  0
 22 23  1  0
 22 24  2  0
M  END
