
     RDKit          3D

 25 25  0  0  0  0  0  0  0  0999 V2000
   -5.2980   -3.4320   -0.6440 C   0  0  0  0  0  0  0  0  0  0  0  0
   -4.5650   -2.4480   -0.1850 C   0  0  0  0  0  0  0  0  0  0  0  0
   -3.2350   -2.7320    0.1850 O   0  0  0  0  0  0  0  0  0  0  0  0
   -2.1290   -1.8580    0.0670 C   0  0  0  0  0  0  0  0  0  0  0  0
   -1.9860   -0.5770   -0.1340 C   0  0  0  0  0  0  0  0  0  0  0  0
   -0.7200    0.0500   -0.2100 N   0  0  0  0  0  0  0  0  0  0  0  0
    0.5130   -0.5910   -0.0840 C   0  0  0  0  0  0  0  0  0  0  0  0
    0.6320   -1.7950    0.1100 O   0  0  0  0  0  0  0  0  0  0  0  0
    1.7370    0.2980   -0.2020 C   0  0  2  0  0  0  0  0  0  0  0  0
    1.5970    1.3440    0.8850 C   0  0  0  0  0  0  0  0  0  0  0  0
    1.6600    0.9520   -1.5780 C   0  0  0  0  0  0  0  0  0  0  0  0
    2.9310   -0.4660   -0.0570 N   0  0  0  0  0  0  0  0  0  0  0  0
    4.2110    0.1340   -0.1280 C   0  0  0  0  0  0  0  0  0  0  0  0
    4.3560    1.3870   -0.3240 O   0  0  0  0  0  0  0  0  0  0  0  0
    5.4120   -0.6110    0.0140 N   0  0  0  0  0  0  0  0  0  0  0  0
    6.7160    0.0150   -0.0600 C   0  0  0  0  0  0  0  0  0  0  0  0
    7.7890   -1.0200    0.1250 C   0  0  0  0  0  0  0  0  0  0  0  0
    9.0640   -0.4890    0.0660 O   0  0  0  0  0  0  0  0  0  0  0  0
   -3.1320    0.3570   -0.3040 C   0  0  0  0  0  0  0  0  0  0  0  0
   -2.7190    1.7000   -0.5220 N   0  0  0  0  0  0  0  0  0  0  0  0
   -2.7980    2.6510    0.5410 C   0  0  0  0  0  0  0  0  0  0  0  0
   -4.4290    0.1400   -0.2830 C   0  0  0  0  0  0  0  0  0  0  0  0
   -5.2950    1.3240   -0.4900 C   0  0  0  0  0  0  0  0  0  0  0  0
   -5.1560   -1.1210   -0.0830 C   0  0  0  0  0  0  0  0  0  0  0  0
   -6.4300   -1.1000    0.2240 C   0  0  0  0  0  0  0  0  0  0  0  0
  1  2  2  0
  2  3  1  0
  2 24  1  0
  3  4  1  0
  4  5  2  0
  5  6  1  0
  5 19  1  0
  6  7  1  0
  7  8  2  0
  7  9  1  0
  9 10  1  1
  9 11  1  0
  9 12  1  0
 12 13  1  0
 13 14  2  0
 13 15  1  0
 15 16  1  0
 16 17  1  0
 17 18  1  0
 19 20  1  0
 19 22  2  0
 20 21  1  0
 22 23  1  0
 22 24  1  0
 24 25  2  0
M  END
