
     RDKit          3D

 25 26  0  0  0  0  0  0  0  0999 V2000
    2.1630   -3.1670   -1.0170 C   0  0  0  0  0  0  0  0  0  0  0  0
    3.3220   -2.6430   -0.9650 C   0  0  0  0  0  0  0  0  0  0  0  0
    3.8190   -1.4660   -0.3250 C   0  0  0  0  0  0  0  0  0  0  0  0
    5.1500   -1.2530   -0.5090 C   0  0  0  0  0  0  0  0  0  0  0  0
    5.8790   -0.1420    0.0340 C   0  0  0  0  0  0  0  0  0  0  0  0
    3.1450   -0.4730    0.4580 C   0  0  0  0  0  0  0  0  0  0  0  0
    3.8480    0.5050    0.9250 O   0  0  0  0  0  0  0  0  0  0  0  0
    1.7840   -0.3830    0.8150 N   0  0  0  0  0  0  0  0  0  0  0  0
    1.2940    0.7030    1.6040 N   0  0  0  0  0  0  0  0  0  0  0  0
    0.2040    1.4170    1.0390 C   0  0  0  0  0  0  0  0  0  0  0  0
   -0.9450    0.7560    0.6180 C   0  0  0  0  0  0  0  0  0  0  0  0
   -2.0180    1.3850    0.0380 C   0  0  0  0  0  0  0  0  0  0  0  0
   -3.1750    0.7650   -0.3910 O   0  0  0  0  0  0  0  0  0  0  0  0
   -3.4600   -0.5770   -0.2480 C   0  0  2  0  0  0  0  0  0  0  0  0
   -3.4890   -1.3240   -1.5920 C   0  0  0  0  0  0  0  0  0  0  0  0
   -3.9980   -2.6780   -1.0770 C   0  0  0  0  0  0  0  0  0  0  0  0
   -5.2350   -2.2110   -0.3160 C   0  0  0  0  0  0  0  0  0  0  0  0
   -4.8840   -0.8350    0.2140 C   0  0  0  0  0  0  0  0  0  0  0  0
   -1.8730    2.7720   -0.1020 C   0  0  0  0  0  0  0  0  0  0  0  0
   -2.8050    3.4460   -0.6240 O   0  0  0  0  0  0  0  0  0  0  0  0
   -0.7920    3.4410    0.2900 N   0  0  0  0  0  0  0  0  0  0  0  0
    0.2580    2.7790    0.8630 C   0  0  0  0  0  0  0  0  0  0  0  0
    1.4060    3.5610    1.2790 C   0  0  0  0  0  0  0  0  0  0  0  0
    1.4640    4.9830    1.0930 N   0  0  0  0  0  0  0  0  0  0  0  0
    2.4240    3.0670    1.8240 O   0  0  0  0  0  0  0  0  0  0  0  0
  1  2  2  0
  2  3  1  0
  3  4  2  3
  3  6  1  0
  4  5  1  0
  6  7  2  0
  6  8  1  0
  8  9  1  0
  9 10  1  0
 10 11  1  0
 10 22  2  0
 11 12  2  0
 12 13  1  0
 12 19  1  0
 14 13  1  6
 14 15  1  0
 14 18  1  0
 15 16  1  0
 16 17  1  0
 17 18  1  0
 19 20  2  0
 19 21  1  0
 21 22  1  0
 22 23  1  0
 23 24  1  0
 23 25  2  0
M  END
