
     RDKit          3D

 18 18  0  0  0  0  0  0  0  0999 V2000
    3.3550   -0.0770   -2.6720 C   0  0  0  0  0  0  0  0  0  0  0  0
    2.4580   -1.1890   -2.3240 C   0  0  0  0  0  0  0  0  0  0  0  0
    2.5690   -2.2810   -2.9380 O   0  0  0  0  0  0  0  0  0  0  0  0
    1.4310   -1.0940   -1.2920 C   0  0  0  0  0  0  0  0  0  0  0  0
    0.6700   -2.1130   -1.0460 C   0  0  0  0  0  0  0  0  0  0  0  0
   -0.3850   -2.0840   -0.0040 C   0  0  0  0  0  0  0  0  0  0  0  0
   -1.1670   -3.0890    0.2300 C   0  0  0  0  0  0  0  0  0  0  0  0
   -2.3540   -2.8380    1.5150 S   0  0  0  0  0  0  0  0  0  0  0  0
   -1.6610   -1.4300    2.4280 C   0  0  1  0  0  0  0  0  0  0  0  0
   -2.7530   -0.4900    2.8220 C   0  0  0  0  0  0  0  0  0  0  0  0
   -0.7800   -1.8750    3.5770 C   0  0  0  0  0  0  0  0  0  0  0  0
   -0.6660   -0.6850    1.0770 S   0  0  0  0  0  0  0  0  0  0  0  0
    1.2630    0.0910   -0.5640 O   0  0  0  0  0  0  0  0  0  0  0  0
    0.3690    1.0720   -0.9940 C   0  0  0  0  0  0  0  0  0  0  0  0
   -0.2720    0.8140   -2.0540 O   0  0  0  0  0  0  0  0  0  0  0  0
    0.1420    2.3650   -0.2920 C   0  0  1  0  0  0  0  0  0  0  0  0
    0.9410    3.4780   -0.9400 C   0  0  0  0  0  0  0  0  0  0  0  0
   -1.3440    2.6450   -0.3380 C   0  0  0  0  0  0  0  0  0  0  0  0
  1  2  1  0
  2  3  2  0
  2  4  1  0
  4  5  2  3
  4 13  1  0
  5  6  1  0
  6  7  2  0
  6 12  1  0
  7  8  1  0
  8  9  1  0
  9 10  1  1
  9 11  1  0
  9 12  1  0
 13 14  1  0
 14 15  2  0
 14 16  1  0
 16 17  1  6
 16 18  1  0
M  END
