
     RDKit          3D

 19 21  0  0  0  0  0  0  0  0999 V2000
    4.3910    0.3110   -0.9980 C   0  0  0  0  0  0  0  0  0  0  0  0
    4.1620   -0.2390    0.4090 C   0  0  1  0  0  0  0  0  0  0  0  0
    3.2040    0.5690    1.0560 O   0  0  0  0  0  0  0  0  0  0  0  0
    1.8260    0.4970    0.8360 C   0  0  0  0  0  0  0  0  0  0  0  0
    1.0160    1.5280    1.0910 N   0  0  0  0  0  0  0  0  0  0  0  0
   -0.3030    1.4150    0.8650 C   0  0  0  0  0  0  0  0  0  0  0  0
   -1.1300    2.5620    1.1690 N   0  0  0  0  0  0  0  0  0  0  0  0
   -0.8640    0.3040    0.3880 N   0  0  0  0  0  0  0  0  0  0  0  0
   -2.2670    0.1440    0.1120 C   0  0  0  0  0  0  0  0  0  0  0  0
   -3.2610    0.9910    0.1890 C   0  0  0  0  0  0  0  0  0  0  0  0
   -4.5680    0.3970   -0.1950 C   0  0  0  0  0  0  0  0  0  0  0  0
   -4.2910   -0.9980   -0.2950 N   0  0  0  0  0  0  0  0  0  0  0  0
   -2.8710   -1.1610   -0.3290 C   0  0  0  0  0  0  0  0  0  0  0  0
   -0.0330   -0.7430    0.1300 C   0  0  0  0  0  0  0  0  0  0  0  0
   -0.4920   -1.8260   -0.3230 O   0  0  0  0  0  0  0  0  0  0  0  0
    1.3150   -0.6840    0.3410 C   0  0  0  0  0  0  0  0  0  0  0  0
    2.1770   -1.7860    0.0680 N   0  0  0  0  0  0  0  0  0  0  0  0
    3.5740   -1.6100    0.3260 C   0  0  0  0  0  0  0  0  0  0  0  0
    4.2920   -2.6180    0.4790 O   0  0  0  0  0  0  0  0  0  0  0  0
  2  1  1  6
  2  3  1  0
  2 18  1  0
  3  4  1  0
  4  5  1  0
  4 16  2  0
  5  6  2  0
  6  7  1  0
  6  8  1  0
  8  9  1  0
  8 14  1  0
  9 10  2  0
  9 13  1  0
 10 11  1  0
 11 12  1  0
 12 13  1  0
 14 15  2  0
 14 16  1  0
 16 17  1  0
 17 18  1  0
 18 19  2  0
M  END
