
     RDKit          3D

 19 20  0  0  0  0  0  0  0  0999 V2000
   -5.2190    0.6830   -0.0600 C   0  0  0  0  0  0  0  0  0  0  0  0
   -3.9130    0.7020   -0.0110 C   0  0  0  0  0  0  0  0  0  0  0  0
   -3.0350    0.1210   -1.1010 C   0  0  0  0  0  0  0  0  0  0  0  0
   -1.9960   -0.5820   -0.4130 N   0  0  0  0  0  0  0  0  0  0  0  0
   -1.2380    0.0400    0.6730 C   0  0  0  0  0  0  0  0  0  0  0  0
   -0.1090   -0.5460    1.3000 N   0  0  0  0  0  0  0  0  0  0  0  0
    1.0620   -0.3600    0.5280 C   0  0  0  0  0  0  0  0  0  0  0  0
    0.8350    0.3910   -0.5240 O   0  0  0  0  0  0  0  0  0  0  0  0
    2.3380   -0.8830    0.8240 C   0  0  0  0  0  0  0  0  0  0  0  0
    3.3310   -0.2790   -0.1630 C   0  0  2  0  0  0  0  0  0  0  0  0
    3.0470   -0.5760   -1.5270 N   0  0  0  0  0  0  0  0  0  0  0  0
    4.3180   -0.6360   -2.2030 C   0  0  0  0  0  0  0  0  0  0  0  0
    4.5230   -0.5470   -3.4560 O   0  0  0  0  0  0  0  0  0  0  0  0
    5.3050   -0.8150   -1.1980 N   0  0  0  0  0  0  0  0  0  0  0  0
    4.6450   -0.8650    0.0840 C   0  0  0  0  0  0  0  0  0  0  0  0
    5.1450   -1.3260    1.1510 O   0  0  0  0  0  0  0  0  0  0  0  0
   -1.8650    0.8750    1.3110 N   0  0  0  0  0  0  0  0  0  0  0  0
   -3.1570    1.2840    1.0820 C   0  0  0  0  0  0  0  0  0  0  0  0
   -3.6390    2.2990    1.7700 C   0  0  0  0  0  0  0  0  0  0  0  0
  1  2  2  0
  2  3  1  0
  2 18  1  0
  3  4  1  0
  4  5  1  0
  5  6  1  0
  5 17  2  0
  6  7  1  0
  7  8  2  0
  7  9  1  0
 10  9  1  1
 10 11  1  0
 10 15  1  0
 11 12  1  0
 12 13  2  0
 12 14  1  0
 14 15  1  0
 15 16  2  0
 17 18  1  0
 18 19  2  0
M  END
