
     RDKit          3D

 19 20  0  0  0  0  0  0  0  0999 V2000
   -2.8710    1.7080    2.0060 C   0  0  0  0  0  0  0  0  0  0  0  0
   -2.9140    0.7160    0.8720 C   0  0  0  0  0  0  0  0  0  0  0  0
   -1.5280    0.2570    0.5810 C   0  0  0  0  0  0  0  0  0  0  0  0
   -0.4120    0.6390    1.1990 C   0  0  0  0  0  0  0  0  0  0  0  0
    0.7440   -0.0310    0.6330 N   0  0  0  0  0  0  0  0  0  0  0  0
    2.0930    0.3260    0.6170 C   0  0  0  0  0  0  0  0  0  0  0  0
    2.4950    1.5940   -0.0480 C   0  0  0  0  0  0  0  0  0  0  0  0
    3.8740    1.7950    0.0290 O   0  0  0  0  0  0  0  0  0  0  0  0
    2.9670   -0.4220    1.1630 N   0  0  0  0  0  0  0  0  0  0  0  0
    4.3480   -0.1140    1.1790 C   0  0  0  0  0  0  0  0  0  0  0  0
    5.1080   -0.5310    0.2480 O   0  0  0  0  0  0  0  0  0  0  0  0
    0.1570   -1.2290    0.0520 C   0  0  2  0  0  0  0  0  0  0  0  0
    0.9040   -1.9190   -0.9160 N   0  0  0  0  0  0  0  0  0  0  0  0
    0.2930   -2.4680   -2.0730 C   0  0  0  0  0  0  0  0  0  0  0  0
    0.9740   -3.2880   -2.7580 O   0  0  0  0  0  0  0  0  0  0  0  0
   -1.0220   -2.0960   -2.4200 N   0  0  0  0  0  0  0  0  0  0  0  0
   -1.6890   -1.1620   -1.5440 C   0  0  0  0  0  0  0  0  0  0  0  0
   -3.0130   -0.7200   -1.8410 N   0  0  0  0  0  0  0  0  0  0  0  0
   -1.1190   -0.6980   -0.4740 C   0  0  0  0  0  0  0  0  0  0  0  0
  1  2  1  0
  2  3  1  0
  3  4  2  0
  3 19  1  0
  4  5  1  0
  5  6  1  0
  5 12  1  0
  6  7  1  0
  6  9  2  3
  7  8  1  0
  9 10  1  0
 10 11  2  0
 12 13  1  6
 12 19  1  0
 13 14  1  0
 14 15  2  0
 14 16  1  0
 16 17  1  0
 17 18  1  0
 17 19  2  0
M  END
