
     RDKit          3D

 19 20  0  0  0  0  0  0  0  0999 V2000
   -4.8450    0.5490   -0.5280 N   0  0  0  0  0  0  0  0  0  0  0  0
   -4.3470   -0.3890    0.2040 C   0  0  0  0  0  0  0  0  0  0  0  0
   -4.9170   -1.6810    0.0490 N   0  0  0  0  0  0  0  0  0  0  0  0
   -3.2290   -0.1300    1.1630 C   0  0  1  0  0  0  0  0  0  0  0  0
   -2.0150   -0.9510    0.8370 C   0  0  0  0  0  0  0  0  0  0  0  0
   -0.9680   -0.1900    0.1970 N   0  0  0  0  0  0  0  0  0  0  0  0
    0.3900   -0.5750    0.2000 C   0  0  0  0  0  0  0  0  0  0  0  0
    0.7660   -1.6280    0.7760 O   0  0  0  0  0  0  0  0  0  0  0  0
    1.4160    0.2520   -0.4760 C   0  0  0  0  0  0  0  0  0  0  0  0
    2.8000   -0.3670   -0.3360 C   0  0  1  0  0  0  0  0  0  0  0  0
    3.8450    0.4760   -1.0250 C   0  0  0  0  0  0  0  0  0  0  0  0
    5.1310   -0.3470   -1.0510 C   0  0  0  0  0  0  0  0  0  0  0  0
    5.5160   -0.6520    0.2740 O   0  0  0  0  0  0  0  0  0  0  0  0
    4.6040   -0.6420    1.3050 C   0  0  0  0  0  0  0  0  0  0  0  0
    4.9730   -0.7480    2.5120 O   0  0  0  0  0  0  0  0  0  0  0  0
    3.1940   -0.5090    1.0450 N   0  0  0  0  0  0  0  0  0  0  0  0
   -1.3580    1.0210   -0.4720 C   0  0  0  0  0  0  0  0  0  0  0  0
   -2.0630    1.8920    0.5240 C   0  0  0  0  0  0  0  0  0  0  0  0
   -2.9840    1.2500    1.3660 N   0  0  0  0  0  0  0  0  0  0  0  0
  1  2  2  0
  2  3  1  0
  4  2  1  6
  4  5  1  0
  4 19  1  0
  5  6  1  0
  6  7  1  0
  6 17  1  0
  7  8  2  0
  7  9  1  0
 10  9  1  1
 10 11  1  0
 10 16  1  0
 11 12  1  0
 12 13  1  0
 13 14  1  0
 14 15  2  0
 14 16  1  0
 17 18  1  0
 18 19  1  0
M  END
