
     RDKit          3D

 19 20  0  0  0  0  0  0  0  0999 V2000
    4.0080    0.4410    0.1510 C   0  0  0  0  0  0  0  0  0  0  0  0
    2.5080    0.3410    0.5330 C   0  0  1  0  0  0  0  0  0  0  0  0
    1.8180    1.2210   -0.3560 N   0  0  0  0  0  0  0  0  0  0  0  0
    0.5500    1.2450   -0.9120 C   0  0  0  0  0  0  0  0  0  0  0  0
    0.5140    1.0530   -2.2110 O   0  0  0  0  0  0  0  0  0  0  0  0
   -0.7250    1.4410   -0.3390 N   0  0  0  0  0  0  0  0  0  0  0  0
   -1.0660    1.7880    1.0000 C   0  0  0  0  0  0  0  0  0  0  0  0
   -2.3360    1.2390    1.5200 C   0  0  0  0  0  0  0  0  0  0  0  0
   -2.7380    1.8020    2.6080 O   0  0  0  0  0  0  0  0  0  0  0  0
   -3.1140    0.1860    0.9400 N   0  0  0  0  0  0  0  0  0  0  0  0
   -2.5320   -0.7630    0.0070 C   0  0  0  0  0  0  0  0  0  0  0  0
   -3.1870   -1.2400   -1.0660 C   0  0  0  0  0  0  0  0  0  0  0  0
   -2.2670   -2.1250   -1.7350 C   0  0  0  0  0  0  0  0  0  0  0  0
   -1.2120   -2.1520   -1.1250 N   0  0  0  0  0  0  0  0  0  0  0  0
   -1.1800   -1.3090    0.0810 C   0  0  0  0  0  0  0  0  0  0  0  0
   -0.2490   -1.2920    0.9930 C   0  0  0  0  0  0  0  0  0  0  0  0
    1.0830   -1.7540    1.1470 N   0  0  0  0  0  0  0  0  0  0  0  0
    2.1950   -1.0960    0.4660 C   0  0  0  0  0  0  0  0  0  0  0  0
    2.9360   -1.8380   -0.2310 O   0  0  0  0  0  0  0  0  0  0  0  0
  2  1  1  6
  2  3  1  0
  2 18  1  0
  3  4  1  0
  4  5  2  0
  4  6  1  0
  6  7  1  0
  7  8  1  0
  8  9  2  0
  8 10  1  0
 10 11  1  0
 11 12  2  0
 11 15  1  0
 12 13  1  0
 13 14  2  0
 14 15  1  0
 15 16  2  0
 16 17  1  0
 17 18  1  0
 18 19  2  0
M  END
