
     RDKit          3D

 19 20  0  0  0  0  0  0  0  0999 V2000
   -0.6910   -1.9670   -0.4960 N   0  0  0  0  0  0  0  0  0  0  0  0
   -0.9280   -0.5860   -0.2690 C   0  0  0  0  0  0  0  0  0  0  0  0
    0.0010    0.3040   -0.1740 N   0  0  0  0  0  0  0  0  0  0  0  0
    1.3590   -0.1020   -0.3010 C   0  0  0  0  0  0  0  0  0  0  0  0
    1.6190   -1.1410   -0.9580 O   0  0  0  0  0  0  0  0  0  0  0  0
    2.4440    0.6120    0.2790 N   0  0  0  0  0  0  0  0  0  0  0  0
    3.8080    0.1680    0.1280 C   0  0  0  0  0  0  0  0  0  0  0  0
    4.6780    0.9630   -0.4550 C   0  0  0  0  0  0  0  0  0  0  0  0
    6.0770    0.5510   -0.6290 C   0  0  0  0  0  0  0  0  0  0  0  0
    6.3620   -0.7100   -0.1330 O   0  0  0  0  0  0  0  0  0  0  0  0
    5.4520   -1.5270    0.4700 C   0  0  0  0  0  0  0  0  0  0  0  0
    4.2010   -1.1350    0.6150 C   0  0  0  0  0  0  0  0  0  0  0  0
   -2.3290   -0.1330   -0.1320 C   0  0  2  0  0  0  0  0  0  0  0  0
   -3.1520   -0.4310   -1.3770 C   0  0  0  0  0  0  0  0  0  0  0  0
   -4.4100   -0.8980   -1.0840 O   0  0  0  0  0  0  0  0  0  0  0  0
   -5.1640   -0.0920   -0.2840 C   0  0  0  0  0  0  0  0  0  0  0  0
   -4.7410    1.3460   -0.2520 C   0  0  0  0  0  0  0  0  0  0  0  0
   -3.6780    1.5180    0.6910 N   0  0  0  0  0  0  0  0  0  0  0  0
   -2.4160    1.2930    0.1260 N   0  0  0  0  0  0  0  0  0  0  0  0
  1  2  1  0
  2  3  2  3
 13  2  1  6
  3  4  1  0
  4  5  2  0
  4  6  1  0
  6  7  1  0
  7  8  2  0
  7 12  1  0
  8  9  1  0
  9 10  1  0
 10 11  1  0
 11 12  2  0
 13 14  1  0
 13 19  1  0
 14 15  1  0
 15 16  1  0
 16 17  1  0
 17 18  1  0
 18 19  1  0
M  END
