
     RDKit          3D

 19 21  0  0  0  0  0  0  0  0999 V2000
   -1.3650    2.4500    0.0870 O   0  0  0  0  0  0  0  0  0  0  0  0
   -1.2250    1.1960   -0.0990 C   0  0  0  0  0  0  0  0  0  0  0  0
    0.0030    0.5540    0.1550 N   0  0  0  0  0  0  0  0  0  0  0  0
    0.0610   -0.6980    0.3690 C   0  0  0  0  0  0  0  0  0  0  0  0
    1.3290   -1.2880    0.6200 N   0  0  0  0  0  0  0  0  0  0  0  0
    2.5240   -0.5320    0.4130 C   0  0  0  0  0  0  0  0  0  0  0  0
    3.5050   -1.0750   -0.2860 C   0  0  0  0  0  0  0  0  0  0  0  0
    4.7780   -0.4030   -0.5660 C   0  0  0  0  0  0  0  0  0  0  0  0
    4.8580    0.9130   -0.0060 N   0  0  0  0  0  0  0  0  0  0  0  0
    3.8020    1.4640    0.7300 C   0  0  0  0  0  0  0  0  0  0  0  0
    2.6850    0.8110    0.9480 C   0  0  0  0  0  0  0  0  0  0  0  0
   -1.1120   -1.4980    0.3520 N   0  0  0  0  0  0  0  0  0  0  0  0
   -2.3520   -0.8660    0.0900 N   0  0  0  0  0  0  0  0  0  0  0  0
   -3.5720   -1.4650    0.4820 C   0  0  0  0  0  0  0  0  0  0  0  0
   -3.5140   -2.5240    1.1630 O   0  0  0  0  0  0  0  0  0  0  0  0
   -4.7880   -0.9010    0.1260 O   0  0  0  0  0  0  0  0  0  0  0  0
   -4.8800    0.3330   -0.5480 C   0  0  0  0  0  0  0  0  0  0  0  0
   -3.6380    1.1730   -0.3100 C   0  0  0  0  0  0  0  0  0  0  0  0
   -2.3800    0.4150   -0.5910 C   0  0  1  0  0  0  0  0  0  0  0  0
  1  2  2  0
  2  3  1  0
  2 19  1  0
  3  4  2  0
  4  5  1  0
  4 12  1  0
  5  6  1  0
  6  7  2  0
  6 11  1  0
  7  8  1  0
  8  9  1  0
  9 10  1  0
 10 11  2  0
 12 13  1  0
 13 14  1  0
 13 19  1  0
 14 15  2  0
 14 16  1  0
 16 17  1  0
 17 18  1  0
 19 18  1  1
M  END
