
     RDKit          3D

 27 30  0  0  0  0  0  0  0  0999 V2000
   -7.9160    0.8100   -1.7530 C   0  0  0  0  0  0  0  0  0  0  0  0
   -7.8260   -0.3480   -0.9830 O   0  0  0  0  0  0  0  0  0  0  0  0
   -6.7020   -0.7360   -0.2680 C   0  0  0  0  0  0  0  0  0  0  0  0
   -6.7360   -1.9140    0.4630 C   0  0  0  0  0  0  0  0  0  0  0  0
   -5.6390   -2.3360    1.1880 C   0  0  0  0  0  0  0  0  0  0  0  0
   -4.4550   -1.6150    1.2260 C   0  0  0  0  0  0  0  0  0  0  0  0
   -4.4190   -0.4440    0.5000 C   0  0  0  0  0  0  0  0  0  0  0  0
   -5.5250   -0.0210   -0.2290 C   0  0  0  0  0  0  0  0  0  0  0  0
   -3.2140    0.2980    0.5330 N   0  0  0  0  0  0  0  0  0  0  0  0
   -2.2010   -0.1050    1.2110 C   0  0  0  0  0  0  0  0  0  0  0  0
   -1.0050    0.7570    1.1640 C   0  0  0  0  0  0  0  0  0  0  0  0
   -1.0070    1.7980    0.5040 O   0  0  0  0  0  0  0  0  0  0  0  0
    0.1710    0.4080    1.8770 N   0  0  0  0  0  0  0  0  0  0  0  0
    1.3840    1.1980    1.8830 C   0  0  0  0  0  0  0  0  0  0  0  0
    2.1390    1.0300    0.6020 C   0  0  0  0  0  0  0  0  0  0  0  0
    1.7420    0.2560   -0.4690 C   0  0  0  0  0  0  0  0  0  0  0  0
    2.6900    0.3780   -1.4040 N   0  0  0  0  0  0  0  0  0  0  0  0
    3.6500    1.1720   -0.9930 N   0  0  0  0  0  0  0  0  0  0  0  0
    4.8600    1.5540   -1.7300 C   0  0  0  0  0  0  0  0  0  0  0  0
    5.9360    0.5830   -1.4310 C   0  0  0  0  0  0  0  0  0  0  0  0
    5.8400   -0.4650   -0.6310 C   0  0  0  0  0  0  0  0  0  0  0  0
    7.1230   -1.2030   -0.5790 C   0  0  0  0  0  0  0  0  0  0  0  0
    7.9990   -0.4280   -1.4750 C   0  0  0  0  0  0  0  0  0  0  0  0
    7.2990    0.5780   -1.9430 C   0  0  0  0  0  0  0  0  0  0  0  0
    3.3290    1.5850    0.2400 C   0  0  0  0  0  0  0  0  0  0  0  0
   -2.1440   -1.3420    2.0150 C   0  0  0  0  0  0  0  0  0  0  0  0
   -3.3570   -2.0410    1.9540 O   0  0  0  0  0  0  0  0  0  0  0  0
  1  2  1  0
  2  3  1  0
  3  4  2  0
  3  8  1  0
  4  5  1  0
  5  6  2  0
  6  7  1  0
  6 27  1  0
  7  8  2  0
  7  9  1  0
  9 10  2  0
 10 11  1  0
 10 26  1  0
 11 12  2  0
 11 13  1  0
 13 14  1  0
 14 15  1  0
 15 16  1  0
 15 25  2  0
 16 17  2  0
 17 18  1  0
 18 19  1  0
 18 25  1  0
 19 20  1  0
 20 21  2  0
 20 24  1  0
 21 22  1  0
 22 23  1  0
 23 24  2  0
 26 27  1  0
M  END
