
     RDKit          3D

 27 30  0  0  0  0  0  0  0  0999 V2000
   -0.5580   -4.3190   -1.8330 C   0  0  0  0  0  0  0  0  0  0  0  0
    0.5540   -3.4490   -1.3660 C   0  0  0  0  0  0  0  0  0  0  0  0
    1.7880   -3.7980   -1.0640 O   0  0  0  0  0  0  0  0  0  0  0  0
    2.4960   -2.7910   -0.6940 N   0  0  0  0  0  0  0  0  0  0  0  0
    1.7420   -1.6530   -0.7280 C   0  0  0  0  0  0  0  0  0  0  0  0
    2.2530   -0.3460   -0.3590 C   0  0  0  0  0  0  0  0  0  0  0  0
    1.4950    0.6440   -0.4170 O   0  0  0  0  0  0  0  0  0  0  0  0
    3.5840   -0.1210    0.0720 N   0  0  0  0  0  0  0  0  0  0  0  0
    4.0880    1.1880    0.4410 C   0  0  0  0  0  0  0  0  0  0  0  0
    4.0150    2.1770   -0.6640 C   0  0  0  0  0  0  0  0  0  0  0  0
    4.3560    1.9710   -1.9840 C   0  0  0  0  0  0  0  0  0  0  0  0
    4.1290    3.1710   -2.6660 C   0  0  0  0  0  0  0  0  0  0  0  0
    3.6630    4.0300   -1.7170 C   0  0  0  0  0  0  0  0  0  0  0  0
    3.6130    3.4110   -0.5700 O   0  0  0  0  0  0  0  0  0  0  0  0
    0.5070   -2.0760   -1.1560 C   0  0  0  0  0  0  0  0  0  0  0  0
   -0.6570   -1.1830   -1.3390 C   0  0  0  0  0  0  0  0  0  0  0  0
   -1.6400   -1.2460   -0.2290 C   0  0  0  0  0  0  0  0  0  0  0  0
   -2.7220   -2.0840   -0.3370 C   0  0  0  0  0  0  0  0  0  0  0  0
   -3.6730   -2.1830    0.6790 C   0  0  0  0  0  0  0  0  0  0  0  0
   -3.4740   -1.3900    1.8110 C   0  0  0  0  0  0  0  0  0  0  0  0
   -2.3780   -0.5570    1.8930 C   0  0  0  0  0  0  0  0  0  0  0  0
   -2.2220    0.2650    3.1260 C   0  0  0  0  0  0  0  0  0  0  0  0
   -2.8120    1.5660    2.8120 N   0  0  0  0  0  0  0  0  0  0  0  0
   -4.0540    2.0590    2.4230 C   0  0  0  0  0  0  0  0  0  0  0  0
   -3.6200    3.2710    2.3920 C   0  0  0  0  0  0  0  0  0  0  0  0
   -2.2800    2.8760    2.7960 C   0  0  0  0  0  0  0  0  0  0  0  0
   -1.4830   -0.4900    0.8920 N   0  0  0  0  0  0  0  0  0  0  0  0
  1  2  1  0
  2  3  1  0
  2 15  2  0
  3  4  1  0
  4  5  2  0
  5  6  1  0
  5 15  1  0
  6  7  2  0
  6  8  1  0
  8  9  1  0
  9 10  1  0
 10 11  2  0
 10 14  1  0
 11 12  1  0
 12 13  2  0
 13 14  1  0
 15 16  1  0
 16 17  1  0
 17 18  2  0
 17 27  1  0
 18 19  1  0
 19 20  2  0
 20 21  1  0
 21 22  1  0
 21 27  2  0
 22 23  1  0
 23 24  1  0
 23 26  1  0
 24 25  2  0
 25 26  1  0
M  END
