
     RDKit          3D

 15 15  0  0  0  0  0  0  0  0999 V2000
    5.0730   -0.8060   -1.0200 C   0  0  0  0  0  0  0  0  0  0  0  0
    4.5790   -0.0330    0.0520 O   0  0  0  0  0  0  0  0  0  0  0  0
    3.3110    0.5230   -0.0190 C   0  0  0  0  0  0  0  0  0  0  0  0
    2.6500    0.3020   -1.0670 O   0  0  0  0  0  0  0  0  0  0  0  0
    2.7660    1.3110    1.0370 N   0  0  0  0  0  0  0  0  0  0  0  0
    1.4440    1.8940    0.9720 C   0  0  0  0  0  0  0  0  0  0  0  0
    0.3790    0.8460    0.8270 C   0  0  0  0  0  0  0  0  0  0  0  0
   -1.0070    1.4700    0.7610 C   0  0  0  0  0  0  0  0  0  0  0  0
   -2.0600    0.4100    0.6160 C   0  0  0  0  0  0  0  0  0  0  0  0
   -3.0610    0.1580    1.4360 C   0  0  0  0  0  0  0  0  0  0  0  0
   -3.8540   -0.9640    0.9130 C   0  0  0  0  0  0  0  0  0  0  0  0
   -2.9130   -1.6520   -0.0450 C   0  0  0  0  0  0  0  0  0  0  0  0
   -2.0850   -0.5120   -0.5120 C   0  0  0  0  0  0  0  0  0  0  0  0
   -1.5130   -0.3900   -1.6920 C   0  0  0  0  0  0  0  0  0  0  0  0
   -1.6690   -1.4210   -2.6530 N   0  0  0  0  0  0  0  0  0  0  0  0
  1  2  1  0
  2  3  1  0
  3  4  2  0
  3  5  1  0
  5  6  1  0
  6  7  1  0
  7  8  1  0
  8  9  1  0
  9 10  2  0
  9 13  1  0
 10 11  1  0
 11 12  1  0
 12 13  1  0
 13 14  2  3
 14 15  1  0
M  END
