
     RDKit          3D

 27 30  0  0  0  0  0  0  0  0999 V2000
   -3.9300   -2.2840   -1.2240 C   0  0  0  0  0  0  0  0  0  0  0  0
   -4.0670   -0.8910   -1.0370 O   0  0  0  0  0  0  0  0  0  0  0  0
   -3.1520   -0.1910   -0.2930 C   0  0  0  0  0  0  0  0  0  0  0  0
   -2.0730   -0.8650    0.2870 C   0  0  0  0  0  0  0  0  0  0  0  0
   -1.1620   -0.1820    1.0250 C   0  0  0  0  0  0  0  0  0  0  0  0
   -0.0070   -0.7910    1.6690 C   0  0  0  0  0  0  0  0  0  0  0  0
    0.8100   -0.1070    2.3430 O   0  0  0  0  0  0  0  0  0  0  0  0
    0.2940   -2.1900    1.5930 N   0  0  0  0  0  0  0  0  0  0  0  0
    1.4530   -2.7620    2.2470 C   0  0  0  0  0  0  0  0  0  0  0  0
    2.7180   -2.1630    1.7490 C   0  0  0  0  0  0  0  0  0  0  0  0
    3.9520   -2.4890    2.1690 N   0  0  0  0  0  0  0  0  0  0  0  0
    4.8470   -1.7430    1.4960 C   0  0  0  0  0  0  0  0  0  0  0  0
    4.1120   -0.9470    0.6470 C   0  0  0  0  0  0  0  0  0  0  0  0
    4.6850    0.0290   -0.2800 C   0  0  0  0  0  0  0  0  0  0  0  0
    5.9330    0.3420   -0.4960 C   0  0  0  0  0  0  0  0  0  0  0  0
    6.0400    1.3950   -1.5350 C   0  0  0  0  0  0  0  0  0  0  0  0
    4.6340    1.6490   -1.8970 C   0  0  0  0  0  0  0  0  0  0  0  0
    3.8850    0.8550   -1.1650 C   0  0  0  0  0  0  0  0  0  0  0  0
    2.8590   -1.2370    0.8390 O   0  0  0  0  0  0  0  0  0  0  0  0
   -1.3360    1.1770    1.1800 C   0  0  0  0  0  0  0  0  0  0  0  0
   -2.4030    1.8530    0.6080 C   0  0  0  0  0  0  0  0  0  0  0  0
   -3.3230    1.1730   -0.1360 C   0  0  0  0  0  0  0  0  0  0  0  0
   -4.4220    1.8620   -0.7270 N   0  0  0  0  0  0  0  0  0  0  0  0
   -5.3610    2.5670   -0.0680 C   0  0  0  0  0  0  0  0  0  0  0  0
   -6.2690    3.0940   -0.9820 C   0  0  0  0  0  0  0  0  0  0  0  0
   -5.8480    2.6860   -2.1800 N   0  0  0  0  0  0  0  0  0  0  0  0
   -4.7450    1.9500   -2.0300 C   0  0  0  0  0  0  0  0  0  0  0  0
  1  2  1  0
  2  3  1  0
  3  4  2  0
  3 22  1  0
  4  5  1  0
  5  6  1  0
  5 20  2  0
  6  7  2  0
  6  8  1  0
  8  9  1  0
  9 10  1  0
 10 11  2  0
 10 19  1  0
 11 12  1  0
 12 13  2  0
 13 14  1  0
 13 19  1  0
 14 15  2  0
 14 18  1  0
 15 16  1  0
 16 17  1  0
 17 18  2  0
 20 21  1  0
 21 22  2  0
 22 23  1  0
 23 24  1  0
 23 27  1  0
 24 25  2  0
 25 26  1  0
 26 27  2  0
M  END
