
     RDKit          3D

 16 15  0  0  0  0  0  0  0  0999 V2000
    1.9690   -1.0690   -0.2200 C   0  0  0  0  0  0  0  0  0  0  0  0
    1.2400   -0.3200    0.8760 C   0  0  0  0  0  0  0  0  0  0  0  0
    1.8490   -0.0990    2.0000 C   0  0  0  0  0  0  0  0  0  0  0  0
    1.3870    0.5760    3.1800 C   0  0  0  0  0  0  0  0  0  0  0  0
    2.0530    0.7680    4.2890 C   0  0  0  0  0  0  0  0  0  0  0  0
    3.3900    0.3590    4.6060 C   0  0  0  0  0  0  0  0  0  0  0  0
    4.2680   -0.3480    3.7550 N   0  0  0  0  0  0  0  0  0  0  0  0
    3.8390    0.6620    5.7740 O   0  0  0  0  0  0  0  0  0  0  0  0
   -0.0920    0.0910    0.5660 C   0  0  0  0  0  0  0  0  0  0  0  0
   -0.7790    0.7170    1.4010 O   0  0  0  0  0  0  0  0  0  0  0  0
   -0.6990   -0.1970   -0.7140 N   0  0  0  0  0  0  0  0  0  0  0  0
   -2.0380    0.2540   -0.9310 C   0  0  0  0  0  0  0  0  0  0  0  0
   -2.5570   -0.1080   -2.3000 C   0  0  1  0  0  0  0  0  0  0  0  0
   -3.9660    0.4070   -2.4310 C   0  0  0  0  0  0  0  0  0  0  0  0
   -1.7190    0.5270   -3.3960 C   0  0  0  0  0  0  0  0  0  0  0  0
   -2.5630   -1.4880   -2.5010 O   0  0  0  0  0  0  0  0  0  0  0  0
  1  2  1  0
  2  3  2  3
  2  9  1  0
  3  4  1  0
  4  5  2  3
  5  6  1  0
  6  7  1  0
  6  8  2  0
  9 10  2  0
  9 11  1  0
 11 12  1  0
 12 13  1  0
 13 14  1  1
 13 15  1  0
 13 16  1  0
M  END
