
     RDKit          3D

 27 30  0  0  0  0  0  0  0  0999 V2000
   -0.4580    0.4190    0.1880 O   0  0  0  0  0  0  0  0  0  0  0  0
   -0.4210   -0.8290    0.0570 C   0  0  0  0  0  0  0  0  0  0  0  0
    0.8950   -1.5620   -0.0200 C   0  0  0  0  0  0  0  0  0  0  0  0
    1.9090   -0.5860    0.0320 O   0  0  0  0  0  0  0  0  0  0  0  0
    3.2630   -0.8940    0.0000 C   0  0  0  0  0  0  0  0  0  0  0  0
    3.7300   -2.1860   -0.0760 C   0  0  0  0  0  0  0  0  0  0  0  0
    5.0690   -2.4560   -0.1040 C   0  0  0  0  0  0  0  0  0  0  0  0
    5.9610   -1.3960   -0.0530 C   0  0  0  0  0  0  0  0  0  0  0  0
    5.5250   -0.0830    0.0240 C   0  0  0  0  0  0  0  0  0  0  0  0
    6.4410    0.9460    0.0710 C   0  0  0  0  0  0  0  0  0  0  0  0
    6.0340    2.2440    0.1450 C   0  0  0  0  0  0  0  0  0  0  0  0
    4.6910    2.5160    0.1710 C   0  0  0  0  0  0  0  0  0  0  0  0
    3.7630    1.4870    0.1250 C   0  0  0  0  0  0  0  0  0  0  0  0
    4.1520    0.1590    0.0500 C   0  0  0  0  0  0  0  0  0  0  0  0
   -1.6320   -1.5480   -0.0180 N   0  0  0  0  0  0  0  0  0  0  0  0
   -2.8420   -0.9220    0.0460 O   0  0  0  0  0  0  0  0  0  0  0  0
   -3.2140    0.1590   -0.7380 C   0  0  0  0  0  0  0  0  0  0  0  0
   -2.3460    0.6810   -1.6570 N   0  0  0  0  0  0  0  0  0  0  0  0
   -2.7330    1.7300   -2.4030 C   0  0  0  0  0  0  0  0  0  0  0  0
   -3.9770    2.2970   -2.2730 C   0  0  0  0  0  0  0  0  0  0  0  0
   -4.8360    1.7650   -1.3510 C   0  0  0  0  0  0  0  0  0  0  0  0
   -4.4680    0.6870   -0.5680 C   0  0  0  0  0  0  0  0  0  0  0  0
   -5.3410    0.1090    0.3900 N   0  0  0  0  0  0  0  0  0  0  0  0
   -6.2380   -0.8580    0.0600 C   0  0  0  0  0  0  0  0  0  0  0  0
   -6.9070   -1.1740    1.2200 C   0  0  0  0  0  0  0  0  0  0  0  0
   -6.4040   -0.4040    2.1960 N   0  0  0  0  0  0  0  0  0  0  0  0
   -5.4380    0.3910    1.7000 C   0  0  0  0  0  0  0  0  0  0  0  0
  1  2  2  0
  2  3  1  0
  2 15  1  0
  3  4  1  0
  4  5  1  0
  5  6  2  0
  5 14  1  0
  6  7  1  0
  7  8  2  0
  8  9  1  0
  9 10  2  0
  9 14  1  0
 10 11  1  0
 11 12  2  0
 12 13  1  0
 13 14  2  0
 15 16  1  0
 16 17  1  0
 17 18  2  0
 17 22  1  0
 18 19  1  0
 19 20  2  0
 20 21  1  0
 21 22  2  0
 22 23  1  0
 23 24  1  0
 23 27  1  0
 24 25  2  0
 25 26  1  0
 26 27  2  0
M  END
