
     RDKit          3D

 10 10  0  0  0  0  0  0  0  0999 V2000
    3.5350   -0.0940    0.8400 C   0  0  0  0  0  0  0  0  0  0  0  0
    2.7410    0.3220   -0.3950 C   0  0  0  0  0  0  0  0  0  0  0  0
    1.3700   -0.2350   -0.2830 C   0  0  0  0  0  0  0  0  0  0  0  0
    0.3290    0.5820   -0.2700 C   0  0  0  0  0  0  0  0  0  0  0  0
   -1.0220   -0.0250   -0.1560 C   0  0  0  0  0  0  0  0  0  0  0  0
   -2.1630    0.6360   -0.1280 C   0  0  0  0  0  0  0  0  0  0  0  0
   -2.2370    2.0680   -0.2070 N   0  0  0  0  0  0  0  0  0  0  0  0
   -3.2700   -0.3050   -0.0090 C   0  0  0  0  0  0  0  0  0  0  0  0
   -2.7970   -1.5350    0.0340 C   0  0  0  0  0  0  0  0  0  0  0  0
   -1.3380   -1.4640   -0.0550 C   0  0  0  0  0  0  0  0  0  0  0  0
  1  2  1  0
  2  3  1  0
  3  4  2  3
  4  5  1  0
  5  6  2  0
  5 10  1  0
  6  7  1  0
  6  8  1  0
  8  9  2  0
  9 10  1  0
M  END
