
     RDKit          3D

 14 16  0  0  0  0  0  0  0  0999 V2000
    3.1750    1.0100    0.2880 C   0  0  0  0  0  0  0  0  0  0  0  0
    2.1290    1.9000    0.3140 C   0  0  0  0  0  0  0  0  0  0  0  0
    0.8530    1.3920    0.1880 C   0  0  0  0  0  0  0  0  0  0  0  0
    0.5950    0.0430    0.0390 C   0  0  0  0  0  0  0  0  0  0  0  0
   -0.6040   -0.6460   -0.1000 C   0  0  0  0  0  0  0  0  0  0  0  0
   -1.9450   -0.0750   -0.1220 C   0  0  0  0  0  0  0  0  0  0  0  0
   -3.0930   -0.8220   -0.2640 C   0  0  0  0  0  0  0  0  0  0  0  0
   -4.1320    0.0590   -0.2380 N   0  0  0  0  0  0  0  0  0  0  0  0
   -3.6140    1.2920   -0.0850 C   0  0  0  0  0  0  0  0  0  0  0  0
   -2.3030    1.1810   -0.0190 O   0  0  0  0  0  0  0  0  0  0  0  0
   -0.2460   -1.9670   -0.2090 C   0  0  0  0  0  0  0  0  0  0  0  0
    1.1070   -2.0720   -0.1400 N   0  0  0  0  0  0  0  0  0  0  0  0
    1.6490   -0.8510    0.0130 C   0  0  0  0  0  0  0  0  0  0  0  0
    2.9420   -0.3620    0.1380 C   0  0  0  0  0  0  0  0  0  0  0  0
  1  2  2  0
  1 14  1  0
  2  3  1  0
  3  4  2  0
  4  5  1  0
  4 13  1  0
  5  6  1  0
  5 11  2  0
  6  7  2  0
  6 10  1  0
  7  8  1  0
  8  9  2  0
  9 10  1  0
 11 12  1  0
 12 13  1  0
 13 14  2  0
M  END
