
     RDKit          3D

 14 16  0  0  0  0  0  0  0  0999 V2000
    3.8200   -0.3540   -0.0820 C   0  0  0  0  0  0  0  0  0  0  0  0
    2.5170    0.3970   -0.1250 C   0  0  0  0  0  0  0  0  0  0  0  0
    2.3760    1.7180   -0.2650 N   0  0  0  0  0  0  0  0  0  0  0  0
    1.0950    2.0480   -0.2630 N   0  0  0  0  0  0  0  0  0  0  0  0
    0.3580    0.9430   -0.1200 C   0  0  0  0  0  0  0  0  0  0  0  0
    1.2380   -0.1090   -0.0320 C   0  0  0  0  0  0  0  0  0  0  0  0
    0.7350   -1.4560    0.1300 C   0  0  0  0  0  0  0  0  0  0  0  0
    1.5880   -2.3840    0.2060 O   0  0  0  0  0  0  0  0  0  0  0  0
   -0.6790   -1.8320    0.2130 C   0  0  0  0  0  0  0  0  0  0  0  0
   -1.6020   -0.6890    0.1160 C   0  0  0  0  0  0  0  0  0  0  0  0
   -2.9220   -0.6920    0.1560 C   0  0  0  0  0  0  0  0  0  0  0  0
   -3.3440    0.7270    0.0130 C   0  0  0  0  0  0  0  0  0  0  0  0
   -2.0890    1.5010   -0.1080 C   0  0  0  0  0  0  0  0  0  0  0  0
   -1.0920    0.6650   -0.0470 C   0  0  0  0  0  0  0  0  0  0  0  0
  1  2  1  0
  2  3  2  0
  2  6  1  0
  3  4  1  0
  4  5  1  0
  5  6  2  0
  5 14  1  0
  6  7  1  0
  7  8  2  0
  7  9  1  0
  9 10  1  0
 10 11  2  0
 10 14  1  0
 11 12  1  0
 12 13  1  0
 13 14  2  0
M  END
