
     RDKit          3D

 14 16  0  0  0  0  0  0  0  0999 V2000
   -3.3350    1.1640    1.7010 O   0  0  0  0  0  0  0  0  0  0  0  0
   -2.5430    0.4400    0.8160 C   0  0  0  0  0  0  0  0  0  0  0  0
   -3.1340   -0.2540   -0.1300 C   0  0  0  0  0  0  0  0  0  0  0  0
   -2.4910   -1.0870   -1.1660 C   0  0  0  0  0  0  0  0  0  0  0  0
   -1.2680   -0.5090   -1.7520 C   0  0  0  0  0  0  0  0  0  0  0  0
   -0.2320    0.1250   -1.2130 C   0  0  0  0  0  0  0  0  0  0  0  0
   -0.0760    0.4020    0.1740 N   0  0  0  0  0  0  0  0  0  0  0  0
    1.0910    0.5670    0.7590 C   0  0  0  0  0  0  0  0  0  0  0  0
    2.4140    0.4570    0.1730 C   0  0  2  0  0  0  0  0  0  0  0  0
    2.9200    0.0230   -1.0460 C   0  0  0  0  0  0  0  0  0  0  0  0
    3.0870   -0.9170    0.1980 C   0  0  0  0  0  0  0  0  0  0  0  0
    0.7920    0.8410    2.1060 C   0  0  0  0  0  0  0  0  0  0  0  0
   -0.5430    0.8250    2.2610 N   0  0  0  0  0  0  0  0  0  0  0  0
   -1.1120    0.5520    1.0670 C   0  0  0  0  0  0  0  0  0  0  0  0
  1  2  1  0
  2  3  2  0
  2 14  1  0
  3  4  1  0
  4  5  1  0
  5  6  2  0
  6  7  1  0
  7  8  1  0
  7 14  1  0
  9  8  1  6
  8 12  2  0
  9 10  1  0
  9 11  1  0
 10 11  1  0
 12 13  1  0
 13 14  2  0
M  END
