
     RDKit          3D

 11 11  0  0  0  0  0  0  0  0999 V2000
    3.1240    0.6250    0.6860 C   0  0  0  0  0  0  0  0  0  0  0  0
    2.3380   -0.6730    0.8080 C   0  0  0  0  0  0  0  0  0  0  0  0
    1.1580   -0.6510   -0.1070 C   0  0  0  0  0  0  0  0  0  0  0  0
    1.1150   -1.3550   -1.2920 C   0  0  0  0  0  0  0  0  0  0  0  0
   -0.0130   -1.2840   -2.0880 C   0  0  0  0  0  0  0  0  0  0  0  0
   -1.1190   -0.5250   -1.7430 C   0  0  0  0  0  0  0  0  0  0  0  0
   -1.0660    0.1800   -0.5490 C   0  0  0  0  0  0  0  0  0  0  0  0
   -2.2390    0.9970   -0.1570 C   0  0  0  0  0  0  0  0  0  0  0  0
   -3.0910    0.3590    0.9000 C   0  0  0  0  0  0  0  0  0  0  0  0
    0.0620    0.1100    0.2500 C   0  0  0  0  0  0  0  0  0  0  0  0
    0.1350    0.8070    1.4450 O   0  0  0  0  0  0  0  0  0  0  0  0
  1  2  1  0
  2  3  1  0
  3  4  2  0
  3 10  1  0
  4  5  1  0
  5  6  2  0
  6  7  1  0
  7  8  1  0
  7 10  2  0
  8  9  1  0
 10 11  1  0
M  END
