
     RDKit          3D

 23 24  0  0  0  0  0  0  0  0999 V2000
   -6.9060    0.1630    1.7510 C   0  0  0  0  0  0  0  0  0  0  0  0
   -7.4180    0.0580    0.3150 C   0  0  0  0  0  0  0  0  0  0  0  0
   -6.7410   -1.0170   -0.4110 C   0  0  0  0  0  0  0  0  0  0  0  0
   -5.3130   -1.0020   -0.6430 C   0  0  0  0  0  0  0  0  0  0  0  0
   -4.3700   -0.1170   -0.5490 C   0  0  0  0  0  0  0  0  0  0  0  0
   -4.5110    1.2730   -0.1430 C   0  0  0  0  0  0  0  0  0  0  0  0
   -3.4700    2.0900   -0.0490 C   0  0  0  0  0  0  0  0  0  0  0  0
   -2.0990    1.6680   -0.3430 C   0  0  0  0  0  0  0  0  0  0  0  0
   -1.9610    0.2750   -0.7530 C   0  0  0  0  0  0  0  0  0  0  0  0
   -0.5950   -0.2730   -1.1020 C   0  0  0  0  0  0  0  0  0  0  0  0
    0.2340   -0.1610    0.0510 N   0  0  0  0  0  0  0  0  0  0  0  0
    1.6270   -0.4820   -0.2250 C   0  0  0  0  0  0  0  0  0  0  0  0
    2.3550   -0.3810    1.1070 C   0  0  0  0  0  0  0  0  0  0  0  0
    3.7960   -0.6800    1.0050 C   0  0  0  0  0  0  0  0  0  0  0  0
    4.3150   -1.8900    1.4330 C   0  0  0  0  0  0  0  0  0  0  0  0
    5.6740   -2.1600    1.3320 C   0  0  0  0  0  0  0  0  0  0  0  0
    6.5590   -1.2430    0.8060 C   0  0  0  0  0  0  0  0  0  0  0  0
    6.0510   -0.0380    0.3780 C   0  0  0  0  0  0  0  0  0  0  0  0
    6.8660    0.9280   -0.1580 O   0  0  0  0  0  0  0  0  0  0  0  0
    8.2480    0.6980   -0.2780 C   0  0  0  0  0  0  0  0  0  0  0  0
    4.6830    0.2340    0.4790 C   0  0  0  0  0  0  0  0  0  0  0  0
    4.1850    1.5380    0.0050 C   0  0  0  0  0  0  0  0  0  0  0  0
   -2.9830   -0.5290   -0.8450 C   0  0  0  0  0  0  0  0  0  0  0  0
  1  2  1  0
  2  3  1  0
  3  4  1  0
  4  5  2  3
  5  6  1  0
  5 23  1  0
  6  7  2  0
  7  8  1  0
  8  9  1  0
  9 10  1  0
  9 23  2  0
 10 11  1  0
 11 12  1  0
 12 13  1  0
 13 14  1  0
 14 15  2  0
 14 21  1  0
 15 16  1  0
 16 17  2  0
 17 18  1  0
 18 19  1  0
 18 21  2  0
 19 20  1  0
 21 22  1  0
M  CHG  1  11   1
M  END
