
     RDKit          3D

 23 24  0  0  0  0  0  0  0  0999 V2000
   -4.8400    0.3360   -1.6560 C   0  0  0  0  0  0  0  0  0  0  0  0
   -4.7520    0.3120   -0.3410 C   0  0  0  0  0  0  0  0  0  0  0  0
   -5.9850    0.1420    0.4540 C   0  0  0  0  0  0  0  0  0  0  0  0
   -5.7000    0.1090    1.9350 C   0  0  0  0  0  0  0  0  0  0  0  0
   -4.7330    1.2070    2.2630 C   0  0  0  0  0  0  0  0  0  0  0  0
   -3.4370    0.8820    1.5670 C   0  0  0  0  0  0  0  0  0  0  0  0
   -3.4410    0.4530    0.3190 C   0  0  0  0  0  0  0  0  0  0  0  0
   -2.1760    0.1340   -0.3730 C   0  0  0  0  0  0  0  0  0  0  0  0
   -2.0850   -1.2400   -0.8100 N   0  0  0  0  0  0  0  0  0  0  0  0
   -0.6760   -1.6770   -0.8230 C   0  0  1  0  0  0  0  0  0  0  0  0
   -0.6910   -3.1130   -0.3730 C   0  0  0  0  0  0  0  0  0  0  0  0
   -0.0800   -1.4450   -2.1460 C   0  0  0  0  0  0  0  0  0  0  0  0
    1.3220   -1.8030   -2.3890 C   0  0  0  0  0  0  0  0  0  0  0  0
    2.3730   -1.1120   -1.6540 C   0  0  0  0  0  0  0  0  0  0  0  0
    2.3020   -0.0700   -0.8880 C   0  0  0  0  0  0  0  0  0  0  0  0
    3.4380    0.5420   -0.1900 C   0  0  0  0  0  0  0  0  0  0  0  0
    3.2020    1.6670    0.6040 C   0  0  0  0  0  0  0  0  0  0  0  0
    4.1970    2.3150    1.2990 C   0  0  0  0  0  0  0  0  0  0  0  0
    5.4910    1.8500    1.2210 C   0  0  0  0  0  0  0  0  0  0  0  0
    6.5220    2.4830    1.9120 O   0  0  0  0  0  0  0  0  0  0  0  0
    7.8500    2.0190    1.8420 C   0  0  0  0  0  0  0  0  0  0  0  0
    5.7260    0.7410    0.4380 C   0  0  0  0  0  0  0  0  0  0  0  0
    4.7180    0.0850   -0.2660 C   0  0  0  0  0  0  0  0  0  0  0  0
  1  2  2  0
  2  3  1  0
  2  7  1  0
  3  4  1  0
  4  5  1  0
  5  6  1  0
  6  7  2  0
  7  8  1  0
  8  9  1  0
  9 10  1  0
 10 11  1  6
 10 12  1  0
 12 13  1  0
 13 14  1  0
 14 15  2  3
 15 16  1  0
 16 17  2  0
 16 23  1  0
 17 18  1  0
 18 19  2  0
 19 20  1  0
 19 22  1  0
 20 21  1  0
 22 23  2  0
M  CHG  1   9   1
M  END
