
     RDKit          3D

  9  9  0  0  0  0  0  0  0  0999 V2000
    2.5380   -0.7270   -0.0770 C   0  0  0  0  0  0  0  0  0  0  0  0
    1.2410    0.0100   -0.0540 C   0  0  0  0  0  0  0  0  0  0  0  0
    1.2330    1.3880   -0.1110 C   0  0  0  0  0  0  0  0  0  0  0  0
    0.0430    2.1040   -0.0910 C   0  0  0  0  0  0  0  0  0  0  0  0
   -1.1630    1.4360   -0.0130 C   0  0  0  0  0  0  0  0  0  0  0  0
   -1.1540    0.0430    0.0450 C   0  0  0  0  0  0  0  0  0  0  0  0
   -2.4300   -0.6880    0.1280 C   0  0  0  0  0  0  0  0  0  0  0  0
    0.0360   -0.6640    0.0240 C   0  0  0  0  0  0  0  0  0  0  0  0
    0.0230   -2.0590    0.0830 O   0  0  0  0  0  0  0  0  0  0  0  0
  1  2  1  0
  2  3  2  0
  2  8  1  0
  3  4  1  0
  4  5  2  0
  5  6  1  0
  6  7  1  0
  6  8  2  0
  8  9  1  0
M  END
