
     RDKit          3D

 23 24  0  0  0  0  0  0  0  0999 V2000
    7.0380   -1.5140   -1.3540 C   0  0  0  0  0  0  0  0  0  0  0  0
    7.1510   -1.0780    0.0920 C   0  0  0  0  0  0  0  0  0  0  0  0
    6.6630    0.3510    0.1980 C   0  0  0  0  0  0  0  0  0  0  0  0
    5.2350    0.3680   -0.2620 C   0  0  0  0  0  0  0  0  0  0  0  0
    4.3010    0.7670    0.5660 C   0  0  0  0  0  0  0  0  0  0  0  0
    2.8880    0.8210    0.2230 C   0  0  0  0  0  0  0  0  0  0  0  0
    1.9570    1.2550    1.1510 C   0  0  0  0  0  0  0  0  0  0  0  0
    0.6090    1.3310    0.8920 C   0  0  0  0  0  0  0  0  0  0  0  0
    0.1540    0.9610   -0.3440 C   0  0  0  0  0  0  0  0  0  0  0  0
   -1.2090    1.0330   -0.6200 O   0  0  0  0  0  0  0  0  0  0  0  0
   -2.0550   -0.0580   -0.3750 C   0  0  0  0  0  0  0  0  0  0  0  0
   -1.5830   -1.2410    0.1450 C   0  0  0  0  0  0  0  0  0  0  0  0
   -2.4290   -2.3040    0.3800 C   0  0  0  0  0  0  0  0  0  0  0  0
   -1.9250   -3.5950    0.9450 C   0  0  0  0  0  0  0  0  0  0  0  0
   -3.7590   -2.1400    0.0760 C   0  0  0  0  0  0  0  0  0  0  0  0
   -4.2350   -0.9360   -0.4530 C   0  0  0  0  0  0  0  0  0  0  0  0
   -3.3990    0.1320   -0.6910 C   0  0  0  0  0  0  0  0  0  0  0  0
   -3.8730    1.4230   -1.2500 C   0  0  0  0  0  0  0  0  0  0  0  0
   -5.2670    1.4810   -1.5290 N   0  0  0  0  0  0  0  0  0  0  0  0
   -6.1330    1.6740   -0.4220 C   0  0  0  0  0  0  0  0  0  0  0  0
   -5.4500    2.0250    0.8760 C   0  0  0  0  0  0  0  0  0  0  0  0
    1.0270    0.5250   -1.3020 C   0  0  0  0  0  0  0  0  0  0  0  0
    2.3720    0.4630   -1.0040 C   0  0  0  0  0  0  0  0  0  0  0  0
  1  2  1  0
  2  3  1  0
  3  4  1  0
  4  5  2  3
  5  6  1  0
  6  7  2  0
  6 23  1  0
  7  8  1  0
  8  9  2  0
  9 10  1  0
  9 22  1  0
 10 11  1  0
 11 12  2  0
 11 17  1  0
 12 13  1  0
 13 14  1  0
 13 15  2  0
 15 16  1  0
 16 17  2  0
 17 18  1  0
 18 19  1  0
 19 20  1  0
 20 21  1  0
 22 23  2  0
M  CHG  1  19   1
M  END
