
     RDKit          3D

 23 24  0  0  0  0  0  0  0  0999 V2000
    0.8540   -3.7950    0.5850 C   0  0  0  0  0  0  0  0  0  0  0  0
    1.4020   -2.7550    1.4950 C   0  0  0  0  0  0  0  0  0  0  0  0
    1.1780   -1.3240    1.0230 C   0  0  2  0  0  0  0  0  0  0  0  0
   -0.2750   -1.0080    0.8800 C   0  0  0  0  0  0  0  0  0  0  0  0
   -0.4460    0.4260    0.4480 C   0  0  0  0  0  0  0  0  0  0  0  0
   -1.8720    0.8230    0.2810 C   0  0  0  0  0  0  0  0  0  0  0  0
   -2.4770    1.4450    1.3450 C   0  0  0  0  0  0  0  0  0  0  0  0
   -3.7910    1.8090    1.2620 C   0  0  0  0  0  0  0  0  0  0  0  0
   -4.4740    2.4900    2.4160 C   0  0  0  0  0  0  0  0  0  0  0  0
   -4.4810    1.5390    0.1010 C   0  0  0  0  0  0  0  0  0  0  0  0
   -5.9120    1.9220   -0.0210 C   0  0  0  0  0  0  0  0  0  0  0  0
   -3.8650    0.9190   -0.9530 C   0  0  0  0  0  0  0  0  0  0  0  0
   -4.6010    0.6290   -2.1950 C   0  0  0  0  0  0  0  0  0  0  0  0
   -2.5300    0.5480   -0.8700 C   0  0  0  0  0  0  0  0  0  0  0  0
   -1.9540   -0.0660   -1.9460 O   0  0  0  0  0  0  0  0  0  0  0  0
   -1.9390   -1.4310   -2.2250 C   0  0  0  0  0  0  0  0  0  0  0  0
    1.9360   -1.1740   -0.1950 N   0  0  0  0  0  0  0  0  0  0  0  0
    3.3240   -0.8150    0.0240 C   0  0  2  0  0  0  0  0  0  0  0  0
    3.5900   -0.1600    1.3410 C   0  0  0  0  0  0  0  0  0  0  0  0
    3.7770    0.1600   -1.0560 C   0  0  0  0  0  0  0  0  0  0  0  0
    5.2140    0.5370   -0.8390 C   0  0  1  0  0  0  0  0  0  0  0  0
    5.9110    1.4700   -1.7370 C   0  0  0  0  0  0  0  0  0  0  0  0
    5.5940    1.9040   -0.3400 C   0  0  0  0  0  0  0  0  0  0  0  0
  1  2  1  0
  3  2  1  6
  3  4  1  0
  3 17  1  0
  4  5  1  0
  5  6  1  0
  6  7  2  0
  6 14  1  0
  7  8  1  0
  8  9  1  0
  8 10  2  0
 10 11  1  0
 10 12  1  0
 12 13  1  0
 12 14  2  0
 14 15  1  0
 15 16  1  0
 17 18  1  0
 18 19  1  1
 18 20  1  0
 21 20  1  6
 21 22  1  0
 21 23  1  0
 22 23  1  0
M  CHG  1  17   1
M  END
