
     RDKit          3D

 23 24  0  0  0  0  0  0  0  0999 V2000
   -6.8400   -2.0230   -0.5790 C   0  0  0  0  0  0  0  0  0  0  0  0
   -5.9010   -0.8860   -0.4290 C   0  0  0  0  0  0  0  0  0  0  0  0
   -6.3430    0.3920   -0.1170 C   0  0  0  0  0  0  0  0  0  0  0  0
   -5.4580    1.4420    0.0200 C   0  0  0  0  0  0  0  0  0  0  0  0
   -5.9350    2.8230    0.3570 C   0  0  0  0  0  0  0  0  0  0  0  0
   -4.1180    1.1660   -0.1680 C   0  0  0  0  0  0  0  0  0  0  0  0
   -3.1540    2.2800   -0.0250 C   0  0  0  0  0  0  0  0  0  0  0  0
   -3.6480   -0.0870   -0.4780 C   0  0  0  0  0  0  0  0  0  0  0  0
   -2.2980   -0.2640   -0.6460 O   0  0  0  0  0  0  0  0  0  0  0  0
   -1.5210   -0.6050    0.4790 C   0  0  0  0  0  0  0  0  0  0  0  0
   -0.0770   -0.7350    0.0040 C   0  0  0  0  0  0  0  0  0  0  0  0
    0.7390   -1.1020    1.2280 C   0  0  0  0  0  0  0  0  0  0  0  0
    2.1330   -1.2260    0.7700 N   0  0  0  0  0  0  0  0  0  0  0  0
    2.6140    0.0290    0.3760 C   0  0  0  0  0  0  0  0  0  0  0  0
    4.0370    0.2980    0.5110 C   0  0  0  0  0  0  0  0  0  0  0  0
    4.9470   -0.5290    0.9750 C   0  0  0  0  0  0  0  0  0  0  0  0
    6.3550   -0.1150    1.0530 C   0  0  0  0  0  0  0  0  0  0  0  0
    6.8020    0.6350   -0.1690 C   0  0  1  0  0  0  0  0  0  0  0  0
    7.4860   -0.3320   -1.1230 C   0  0  0  0  0  0  0  0  0  0  0  0
    5.6940    1.3630   -0.8720 C   0  0  0  0  0  0  0  0  0  0  0  0
    4.5270    1.6580    0.0800 C   0  0  0  0  0  0  0  0  0  0  0  0
   -4.5390   -1.1240   -0.6110 C   0  0  0  0  0  0  0  0  0  0  0  0
   -4.0560   -2.4880   -0.9460 C   0  0  0  0  0  0  0  0  0  0  0  0
  1  2  1  0
  2  3  2  0
  2 22  1  0
  3  4  1  0
  4  5  1  0
  4  6  2  0
  6  7  1  0
  6  8  1  0
  8  9  1  0
  8 22  2  0
  9 10  1  0
 10 11  1  0
 11 12  1  0
 12 13  1  0
 13 14  1  0
 14 15  1  0
 15 16  2  0
 15 21  1  0
 16 17  1  0
 17 18  1  0
 18 19  1  6
 18 20  1  0
 20 21  1  0
 22 23  1  0
M  CHG  1  13   1
M  END
