
     RDKit          3D

 11 10  0  0  0  0  0  0  0  0999 V2000
   -2.5830    0.4700    0.9620 C   0  0  0  0  0  0  0  0  0  0  0  0
   -1.5190    0.2020   -0.0820 C   0  0  2  0  0  0  0  0  0  0  0  0
   -1.8230    0.9610   -1.2060 O   0  0  0  0  0  0  0  0  0  0  0  0
   -1.4930   -1.2300   -0.5030 C   0  0  0  0  0  0  0  0  0  0  0  0
   -0.5310   -1.3940   -1.4930 O   0  0  0  0  0  0  0  0  0  0  0  0
   -0.1930    0.5970    0.4790 C   0  0  2  0  0  0  0  0  0  0  0  0
   -0.1780    1.9640    0.8510 O   0  0  0  0  0  0  0  0  0  0  0  0
    0.8760    0.4490   -0.3880 O   0  0  0  0  0  0  0  0  0  0  0  0
    1.8070   -0.3870    0.1800 C   0  0  0  0  0  0  0  0  0  0  0  0
    3.0120   -0.6080   -0.7120 C   0  0  0  0  0  0  0  0  0  0  0  0
    3.6120    0.6440   -0.9470 O   0  0  0  0  0  0  0  0  0  0  0  0
  2  1  1  1
  2  3  1  0
  2  4  1  0
  2  6  1  0
  4  5  1  0
  6  7  1  6
  6  8  1  0
  8  9  1  0
  9 10  1  0
 10 11  1  0
M  END
