
     RDKit          3D

 25 27  0  0  0  0  0  0  0  0999 V2000
    5.7880    0.4500    0.9220 C   0  0  0  0  0  0  0  0  0  0  0  0
    4.4050    0.4210    0.3760 N   0  0  0  0  0  0  0  0  0  0  0  0
    3.9770   -0.9350    0.3860 C   0  0  0  0  0  0  0  0  0  0  0  0
    2.7840   -1.1410   -0.5170 C   0  0  0  0  0  0  0  0  0  0  0  0
    3.0300   -1.8550   -1.5870 C   0  0  0  0  0  0  0  0  0  0  0  0
    1.9440   -2.3140   -2.8570 Cl  0  0  0  0  0  0  0  0  0  0  0  0
    1.5050   -0.5540   -0.1790 C   0  0  0  0  0  0  0  0  0  0  0  0
    1.4240    0.0860    0.9810 C   0  0  0  0  0  0  0  0  0  0  0  0
    0.2290    0.7240    1.4500 N   0  0  0  0  0  0  0  0  0  0  0  0
   -0.0580    1.4530    2.6510 C   0  0  0  0  0  0  0  0  0  0  0  0
   -1.4700    1.8840    2.5460 C   0  0  0  0  0  0  0  0  0  0  0  0
   -1.9260    1.3300    1.2380 C   0  0  0  0  0  0  0  0  0  0  0  0
   -3.2710    1.4810    0.6850 C   0  0  0  0  0  0  0  0  0  0  0  0
   -3.9600    2.6800    0.8250 C   0  0  0  0  0  0  0  0  0  0  0  0
   -5.1620    2.5090    0.2190 C   0  0  0  0  0  0  0  0  0  0  0  0
   -6.4840    3.6530    0.0570 Cl  0  0  0  0  0  0  0  0  0  0  0  0
   -5.1860    1.2600   -0.2620 N   0  0  0  0  0  0  0  0  0  0  0  0
   -4.0670    0.7120    0.0360 O   0  0  0  0  0  0  0  0  0  0  0  0
   -0.9410    0.6830    0.6500 C   0  0  0  0  0  0  0  0  0  0  0  0
   -0.8560   -0.0230   -0.6320 C   0  0  0  0  0  0  0  0  0  0  0  0
   -1.9530   -0.1010   -1.4500 O   0  0  0  0  0  0  0  0  0  0  0  0
   -2.5620   -1.2260   -1.9870 C   0  0  2  0  0  0  0  0  0  0  0  0
   -3.0610   -2.2080   -0.9410 C   0  0  0  0  0  0  0  0  0  0  0  0
   -1.8120   -1.9060   -3.1060 C   0  0  0  0  0  0  0  0  0  0  0  0
    0.3000   -0.5900   -0.9910 C   0  0  0  0  0  0  0  0  0  0  0  0
  1  2  1  0
  2  3  1  0
  3  4  1  0
  4  5  2  3
  4  7  1  0
  5  6  1  0
  7  8  2  0
  7 25  1  0
  8  9  1  0
  9 10  1  0
  9 19  1  0
 10 11  1  0
 11 12  1  0
 12 13  1  0
 12 19  2  0
 13 14  2  0
 13 18  1  0
 14 15  1  0
 15 16  1  0
 15 17  2  0
 17 18  1  0
 19 20  1  0
 20 21  1  0
 20 25  2  0
 21 22  1  0
 22 23  1  1
 22 24  1  0
M  CHG  1   2   1
M  END
