
     RDKit          3D

 11 11  0  0  0  0  0  0  0  0999 V2000
    3.4120    0.9410    1.1590 O   0  0  0  0  0  0  0  0  0  0  0  0
    2.6880   -0.0890    0.5540 C   0  0  2  0  0  0  0  0  0  0  0  0
    3.4340   -0.7120   -0.4570 O   0  0  0  0  0  0  0  0  0  0  0  0
    1.5070    0.3930    0.0050 O   0  0  0  0  0  0  0  0  0  0  0  0
    0.4450   -0.2100    0.6590 C   0  0  0  0  0  0  0  0  0  0  0  0
   -0.8430    0.3080    0.0680 C   0  0  2  0  0  0  0  0  0  0  0  0
   -0.8870    1.6910    0.2460 O   0  0  0  0  0  0  0  0  0  0  0  0
   -2.0460   -0.2790    0.7350 C   0  0  0  0  0  0  0  0  0  0  0  0
   -2.9530   -0.5610   -0.4290 C   0  0  0  0  0  0  0  0  0  0  0  0
   -2.1710   -0.7380   -1.5390 O   0  0  0  0  0  0  0  0  0  0  0  0
   -0.9680   -0.1180   -1.3510 C   0  0  0  0  0  0  0  0  0  0  0  0
  2  1  1  6
  2  3  1  0
  2  4  1  0
  4  5  1  0
  5  6  1  0
  6  7  1  6
  6  8  1  0
  6 11  1  0
  8  9  1  0
  9 10  1  0
 10 11  1  0
M  END
