
     RDKit          3D

 11 10  0  0  0  0  0  0  0  0999 V2000
   -2.5180   -1.3180   -0.6800 C   0  0  0  0  0  0  0  0  0  0  0  0
   -1.5790   -0.1290   -0.4390 C   0  0  1  0  0  0  0  0  0  0  0  0
   -1.8020    0.8510   -1.3860 O   0  0  0  0  0  0  0  0  0  0  0  0
   -1.9470    0.4250    0.9180 C   0  0  0  0  0  0  0  0  0  0  0  0
   -1.2100    1.5390    1.2690 O   0  0  0  0  0  0  0  0  0  0  0  0
   -0.1820   -0.6690   -0.4780 C   0  0  0  0  0  0  0  0  0  0  0  0
    0.7630    0.3340   -0.2450 O   0  0  0  0  0  0  0  0  0  0  0  0
    2.0380   -0.2100   -0.2900 C   0  0  1  0  0  0  0  0  0  0  0  0
    2.7740    0.4050   -1.3230 O   0  0  0  0  0  0  0  0  0  0  0  0
    2.7180    0.0250    1.0390 C   0  0  0  0  0  0  0  0  0  0  0  0
    2.7780    1.4120    1.2440 O   0  0  0  0  0  0  0  0  0  0  0  0
  2  1  1  6
  2  3  1  0
  2  4  1  0
  2  6  1  0
  4  5  1  0
  6  7  1  0
  7  8  1  0
  8  9  1  6
  8 10  1  0
 10 11  1  0
M  END
