
     RDKit          3D

 27 29  0  0  0  0  0  0  0  0999 V2000
   -2.7180   -1.7820   -0.4260 O   0  0  0  0  0  0  0  0  0  0  0  0
   -2.5420   -0.7610    0.2750 C   0  0  0  0  0  0  0  0  0  0  0  0
   -3.3410   -0.5270    1.5460 C   0  0  0  0  0  0  0  0  0  0  0  0
   -4.7530   -0.2160    1.1460 C   0  0  0  0  0  0  0  0  0  0  0  0
   -5.7720   -1.1040    1.3030 C   0  0  0  0  0  0  0  0  0  0  0  0
   -7.0620   -0.7520    0.9110 C   0  0  0  0  0  0  0  0  0  0  0  0
   -8.3760   -1.8780    1.1080 Cl  0  0  0  0  0  0  0  0  0  0  0  0
   -7.3260    0.4850    0.3640 C   0  0  0  0  0  0  0  0  0  0  0  0
   -6.2950    1.3730    0.2090 C   0  0  0  0  0  0  0  0  0  0  0  0
   -5.0060    1.0420    0.5930 C   0  0  0  0  0  0  0  0  0  0  0  0
   -3.9360    1.9110    0.4550 O   0  0  0  0  0  0  0  0  0  0  0  0
   -1.6190    0.1710   -0.1060 O   0  0  0  0  0  0  0  0  0  0  0  0
   -0.8190    0.1140   -1.2250 C   0  0  0  0  0  0  0  0  0  0  0  0
   -1.2480    0.2420   -2.5540 C   0  0  0  0  0  0  0  0  0  0  0  0
   -0.1560    0.1360   -3.3980 C   0  0  0  0  0  0  0  0  0  0  0  0
    0.9140   -0.0530   -2.5900 N   0  0  0  0  0  0  0  0  0  0  0  0
    0.5520   -0.0700   -1.3070 C   0  0  0  0  0  0  0  0  0  0  0  0
    1.4220   -0.2580   -0.1480 C   0  0  0  0  0  0  0  0  0  0  0  0
    0.9940   -0.4970    0.9980 O   0  0  0  0  0  0  0  0  0  0  0  0
    2.8630   -0.1590   -0.3030 N   0  0  0  0  0  0  0  0  0  0  0  0
    3.6920   -0.3360    0.8400 C   0  0  0  0  0  0  0  0  0  0  0  0
    5.1200   -0.1430    0.5870 C   0  0  0  0  0  0  0  0  0  0  0  0
    5.5770    0.1690   -0.5970 C   0  0  0  0  0  0  0  0  0  0  0  0
    7.0150    0.3750   -0.8920 C   0  0  0  0  0  0  0  0  0  0  0  0
    7.8450    0.2280    0.1120 C   0  0  0  0  0  0  0  0  0  0  0  0
    7.3830   -0.1020    1.3750 O   0  0  0  0  0  0  0  0  0  0  0  0
    6.0840   -0.3190    1.7530 C   0  0  0  0  0  0  0  0  0  0  0  0
  1  2  2  0
  2  3  1  0
  2 12  1  0
  3  4  1  0
  4  5  2  0
  4 10  1  0
  5  6  1  0
  6  7  1  0
  6  8  2  0
  8  9  1  0
  9 10  2  0
 10 11  1  0
 12 13  1  0
 13 14  1  0
 13 17  2  0
 14 15  2  0
 15 16  1  0
 16 17  1  0
 17 18  1  0
 18 19  2  0
 18 20  1  0
 20 21  1  0
 21 22  1  0
 22 23  2  0
 22 27  1  0
 23 24  1  0
 24 25  2  0
 25 26  1  0
 26 27  1  0
M  END
