
     RDKit          3D

 27 29  0  0  0  0  0  0  0  0999 V2000
    6.1220    1.4290   -0.2980 C   0  0  0  0  0  0  0  0  0  0  0  0
    6.6660    0.2570   -0.4970 C   0  0  0  0  0  0  0  0  0  0  0  0
    6.4080   -0.8850    0.3970 C   0  0  0  0  0  0  0  0  0  0  0  0
    5.3680   -0.6170    1.4320 C   0  0  0  0  0  0  0  0  0  0  0  0
    4.0600   -0.3250    0.9160 N   0  0  0  0  0  0  0  0  0  0  0  0
    3.3310   -1.2330    0.0960 C   0  0  0  0  0  0  0  0  0  0  0  0
    3.8600   -2.3330   -0.1820 O   0  0  0  0  0  0  0  0  0  0  0  0
    1.9930   -0.9420   -0.4380 C   0  0  2  0  0  0  0  0  0  0  0  0
    1.9940    0.3050   -1.3320 C   0  0  0  0  0  0  0  0  0  0  0  0
    0.5410    0.6260   -1.3190 C   0  0  0  0  0  0  0  0  0  0  0  0
   -0.0370    1.3260   -2.1860 O   0  0  0  0  0  0  0  0  0  0  0  0
   -0.0740    0.0260   -0.1910 N   0  0  0  0  0  0  0  0  0  0  0  0
   -1.4550   -0.0350    0.1230 C   0  0  0  0  0  0  0  0  0  0  0  0
   -1.8720   -0.6030    1.1650 O   0  0  0  0  0  0  0  0  0  0  0  0
   -2.4060    0.5330   -0.7120 O   0  0  0  0  0  0  0  0  0  0  0  0
   -3.7630    0.4530   -0.3680 C   0  0  0  0  0  0  0  0  0  0  0  0
   -4.5000   -0.6290   -0.8100 C   0  0  0  0  0  0  0  0  0  0  0  0
   -3.8440   -1.6970   -1.6470 C   0  0  0  0  0  0  0  0  0  0  0  0
   -5.8310   -0.7180   -0.4780 C   0  0  0  0  0  0  0  0  0  0  0  0
   -6.7310   -2.1180   -1.0650 Cl  0  0  0  0  0  0  0  0  0  0  0  0
   -6.4520    0.2500    0.2890 C   0  0  0  0  0  0  0  0  0  0  0  0
   -5.7140    1.3650    0.7500 C   0  0  0  0  0  0  0  0  0  0  0  0
   -4.3740    1.4220    0.3970 C   0  0  0  0  0  0  0  0  0  0  0  0
   -3.6020    2.4990    0.8250 O   0  0  0  0  0  0  0  0  0  0  0  0
   -7.1220    1.2600    1.0950 C   0  0  0  0  0  0  0  0  0  0  0  0
   -8.1740    1.7500    1.6970 C   0  0  0  0  0  0  0  0  0  0  0  0
    1.0010   -0.5320    0.6060 C   0  0  0  0  0  0  0  0  0  0  0  0
  1  2  2  0
  2  3  1  0
  3  4  1  0
  4  5  1  0
  5  6  1  0
  6  7  2  0
  8  6  1  1
  8  9  1  0
  8 27  1  0
  9 10  1  0
 10 11  2  0
 10 12  1  0
 12 13  1  0
 12 27  1  0
 13 14  2  0
 13 15  1  0
 15 16  1  0
 16 17  2  0
 16 23  1  0
 17 18  1  0
 17 19  1  0
 19 20  1  0
 19 21  2  0
 21 22  1  0
 21 25  1  0
 22 23  2  0
 22 25  1  0
 23 24  1  0
 25 26  2  0
M  END
