
     RDKit          3D

 27 29  0  0  0  0  0  0  0  0999 V2000
   -4.3740   -0.6940    0.0890 C   0  0  0  0  0  0  0  0  0  0  0  0
   -3.0930   -1.1220   -0.5770 C   0  0  0  0  0  0  0  0  0  0  0  0
   -2.9940   -1.6840   -1.7630 N   0  0  0  0  0  0  0  0  0  0  0  0
   -1.7720   -1.9710   -2.0600 N   0  0  0  0  0  0  0  0  0  0  0  0
   -0.9850   -1.5830   -1.0170 C   0  0  0  0  0  0  0  0  0  0  0  0
    0.4500   -1.7290   -0.9580 C   0  0  0  0  0  0  0  0  0  0  0  0
    1.1110   -1.3660    0.0180 O   0  0  0  0  0  0  0  0  0  0  0  0
    1.1570   -2.3170   -2.0670 C   0  0  0  0  0  0  0  0  0  0  0  0
    2.4900   -2.4770   -2.0560 C   0  0  0  0  0  0  0  0  0  0  0  0
    3.1750   -2.0600   -0.9400 O   0  0  0  0  0  0  0  0  0  0  0  0
    3.9560   -0.9270   -0.8640 C   0  0  0  0  0  0  0  0  0  0  0  0
    4.1430   -0.0760   -1.9070 C   0  0  0  0  0  0  0  0  0  0  0  0
    4.9450    1.0550   -1.7690 C   0  0  0  0  0  0  0  0  0  0  0  0
    5.5450    1.2890   -0.5490 C   0  0  0  0  0  0  0  0  0  0  0  0
    6.5720    2.7060   -0.3160 Cl  0  0  0  0  0  0  0  0  0  0  0  0
    5.3610    0.4310    0.5150 C   0  0  0  0  0  0  0  0  0  0  0  0
    4.5640   -0.6770    0.3510 C   0  0  0  0  0  0  0  0  0  0  0  0
   -1.8050   -1.0340   -0.0500 C   0  0  0  0  0  0  0  0  0  0  0  0
   -1.5520   -0.4260    1.2410 C   0  0  1  0  0  0  0  0  0  0  0  0
   -0.2790   -0.3660    1.7090 O   0  0  0  0  0  0  0  0  0  0  0  0
   -2.1270    0.9720    1.3080 C   0  0  0  0  0  0  0  0  0  0  0  0
   -2.4680    1.5670    0.2040 C   0  0  0  0  0  0  0  0  0  0  0  0
   -3.0410    2.9310    0.1910 C   0  0  0  0  0  0  0  0  0  0  0  0
   -2.9860    3.5200    1.4380 O   0  0  0  0  0  0  0  0  0  0  0  0
   -2.6300    2.9070    2.6140 C   0  0  0  0  0  0  0  0  0  0  0  0
   -2.2030    1.6530    2.5850 C   0  0  0  0  0  0  0  0  0  0  0  0
   -1.8300    0.9820    3.7290 O   0  0  0  0  0  0  0  0  0  0  0  0
  1  2  1  0
  2  3  2  0
  2 18  1  0
  3  4  1  0
  4  5  1  0
  5  6  1  0
  5 18  2  0
  6  7  2  0
  6  8  1  0
  8  9  2  3
  9 10  1  0
 10 11  1  0
 11 12  2  0
 11 17  1  0
 12 13  1  0
 13 14  2  0
 14 15  1  0
 14 16  1  0
 16 17  2  0
 18 19  1  0
 19 20  1  6
 19 21  1  0
 21 22  2  0
 21 26  1  0
 22 23  1  0
 23 24  1  0
 24 25  1  0
 25 26  2  0
 26 27  1  0
M  END
