
     RDKit          3D

 27 29  0  0  0  0  0  0  0  0999 V2000
   -7.0550    2.3150    1.9860 C   0  0  0  0  0  0  0  0  0  0  0  0
   -5.6990    1.9360    1.8550 O   0  0  0  0  0  0  0  0  0  0  0  0
   -5.3640    0.9800    0.8940 C   0  0  0  0  0  0  0  0  0  0  0  0
   -6.2670    0.5200    0.2140 O   0  0  0  0  0  0  0  0  0  0  0  0
   -4.0150    0.6160    0.7780 N   0  0  0  0  0  0  0  0  0  0  0  0
   -3.5340   -0.3320   -0.1450 C   0  0  0  0  0  0  0  0  0  0  0  0
   -4.2810   -1.0260   -1.0460 C   0  0  0  0  0  0  0  0  0  0  0  0
   -3.7010   -1.9390   -1.9100 C   0  0  0  0  0  0  0  0  0  0  0  0
   -2.3580   -2.1920   -1.9080 C   0  0  0  0  0  0  0  0  0  0  0  0
   -1.5870   -1.5040   -1.0090 C   0  0  0  0  0  0  0  0  0  0  0  0
   -2.1660   -0.5950   -0.1480 C   0  0  0  0  0  0  0  0  0  0  0  0
   -1.3230    0.0640    0.7340 O   0  0  0  0  0  0  0  0  0  0  0  0
    0.0330   -0.1540    0.7770 C   0  0  0  0  0  0  0  0  0  0  0  0
    0.4800   -1.1570    1.6350 C   0  0  0  0  0  0  0  0  0  0  0  0
    1.8200   -1.4350    1.7330 C   0  0  0  0  0  0  0  0  0  0  0  0
    2.6870   -0.6930    0.9620 C   0  0  0  0  0  0  0  0  0  0  0  0
    2.2390    0.2980    0.1140 C   0  0  0  0  0  0  0  0  0  0  0  0
    3.1190    1.0360   -0.6560 O   0  0  0  0  0  0  0  0  0  0  0  0
    4.4980    0.8160   -0.6140 C   0  0  0  0  0  0  0  0  0  0  0  0
    5.0890   -0.0930   -1.4730 C   0  0  0  0  0  0  0  0  0  0  0  0
    6.4500   -0.3190   -1.4400 C   0  0  0  0  0  0  0  0  0  0  0  0
    7.2450   -1.4570   -2.5050 Cl  0  0  0  0  0  0  0  0  0  0  0  0
    7.2140    0.3520   -0.5620 N   0  0  0  0  0  0  0  0  0  0  0  0
    6.6450    1.2400    0.2790 C   0  0  0  0  0  0  0  0  0  0  0  0
    7.3860    1.8650    1.1020 O   0  0  0  0  0  0  0  0  0  0  0  0
    5.2980    1.4880    0.2730 C   0  0  0  0  0  0  0  0  0  0  0  0
    0.9020    0.5820    0.0100 C   0  0  0  0  0  0  0  0  0  0  0  0
  1  2  1  0
  2  3  1  0
  3  4  2  0
  3  5  1  0
  5  6  1  0
  6  7  2  0
  6 11  1  0
  7  8  1  0
  8  9  2  0
  9 10  1  0
 10 11  2  0
 11 12  1  0
 12 13  1  0
 13 14  2  0
 13 27  1  0
 14 15  1  0
 15 16  2  0
 16 17  1  0
 17 18  1  0
 17 27  2  0
 18 19  1  0
 19 20  1  0
 19 26  2  0
 20 21  2  0
 21 22  1  0
 21 23  1  0
 23 24  1  0
 24 25  2  0
 24 26  1  0
M  END
