
     RDKit          3D

 27 29  0  0  0  0  0  0  0  0999 V2000
    6.5440    0.2680    0.5050 C   0  0  0  0  0  0  0  0  0  0  0  0
    5.1410    0.2300    0.9790 C   0  0  0  0  0  0  0  0  0  0  0  0
    4.1960   -0.6800    0.6040 N   0  0  0  0  0  0  0  0  0  0  0  0
    3.0390   -0.3810    1.2530 C   0  0  0  0  0  0  0  0  0  0  0  0
    1.7520   -1.1060    1.1510 C   0  0  0  0  0  0  0  0  0  0  0  0
    0.9070   -0.5600    0.0510 C   0  0  0  0  0  0  0  0  0  0  0  0
    1.3530    0.3770   -0.6280 O   0  0  0  0  0  0  0  0  0  0  0  0
   -0.3760   -1.0670   -0.2480 N   0  0  0  0  0  0  0  0  0  0  0  0
   -1.2460   -0.6070   -1.2660 C   0  0  0  0  0  0  0  0  0  0  0  0
   -2.2410    0.2790   -1.0020 C   0  0  0  0  0  0  0  0  0  0  0  0
   -2.4730    0.8440    0.3150 C   0  0  0  0  0  0  0  0  0  0  0  0
   -1.5810    1.5580    1.0500 C   0  0  0  0  0  0  0  0  0  0  0  0
   -1.9580    2.0920    2.2860 C   0  0  0  0  0  0  0  0  0  0  0  0
   -3.2260    1.9090    2.7760 C   0  0  0  0  0  0  0  0  0  0  0  0
   -4.1430    1.1930    2.0520 C   0  0  0  0  0  0  0  0  0  0  0  0
   -3.7700    0.6570    0.8180 C   0  0  0  0  0  0  0  0  0  0  0  0
   -4.7500   -0.0520    0.1600 O   0  0  0  0  0  0  0  0  0  0  0  0
   -3.0690    0.6920   -2.0450 C   0  0  0  0  0  0  0  0  0  0  0  0
   -2.8970    0.2210   -3.3280 C   0  0  0  0  0  0  0  0  0  0  0  0
   -1.8810   -0.6740   -3.5650 C   0  0  0  0  0  0  0  0  0  0  0  0
   -1.6500   -1.2820   -5.2050 Cl  0  0  0  0  0  0  0  0  0  0  0  0
   -1.0290   -1.1170   -2.5620 C   0  0  0  0  0  0  0  0  0  0  0  0
    0.0250   -2.0740   -2.8430 C   0  0  0  0  0  0  0  0  0  0  0  0
    0.1980   -2.5090   -4.0030 O   0  0  0  0  0  0  0  0  0  0  0  0
    0.8440   -2.5110   -1.8330 O   0  0  0  0  0  0  0  0  0  0  0  0
    3.3280    0.7290    2.0190 C   0  0  0  0  0  0  0  0  0  0  0  0
    4.5670    1.0480    1.8240 O   0  0  0  0  0  0  0  0  0  0  0  0
  1  2  1  0
  2  3  2  0
  2 27  1  0
  3  4  1  0
  4  5  1  0
  4 26  2  0
  5  6  1  0
  6  7  2  0
  6  8  1  0
  8  9  1  0
  9 10  1  0
  9 22  2  0
 10 11  1  0
 10 18  2  0
 11 12  2  0
 11 16  1  0
 12 13  1  0
 13 14  2  0
 14 15  1  0
 15 16  2  0
 16 17  1  0
 18 19  1  0
 19 20  2  0
 20 21  1  0
 20 22  1  0
 22 23  1  0
 23 24  2  0
 23 25  1  0
 26 27  1  0
M  END
