
     RDKit          3D

 27 29  0  0  0  0  0  0  0  0999 V2000
    1.8020    1.8930    0.7900 O   0  0  0  0  0  0  0  0  0  0  0  0
    1.1030    1.0010    0.2590 C   0  0  0  0  0  0  0  0  0  0  0  0
    1.6020   -0.1680   -0.3550 N   0  0  0  0  0  0  0  0  0  0  0  0
    2.9750   -0.4330   -0.4220 C   0  0  0  0  0  0  0  0  0  0  0  0
    4.0120    0.3970   -0.1330 C   0  0  0  0  0  0  0  0  0  0  0  0
    5.3450   -0.0030   -0.2270 C   0  0  0  0  0  0  0  0  0  0  0  0
    5.6520   -1.2710   -0.6230 C   0  0  0  0  0  0  0  0  0  0  0  0
    4.6320   -2.1420   -0.9250 C   0  0  0  0  0  0  0  0  0  0  0  0
    4.8910   -3.4610   -1.3390 O   0  0  0  0  0  0  0  0  0  0  0  0
    3.3280   -1.7290   -0.8250 C   0  0  0  0  0  0  0  0  0  0  0  0
   -0.3830    1.2520    0.3090 C   0  0  0  0  0  0  0  0  0  0  0  0
   -0.7560    2.3350    0.8730 C   0  0  0  0  0  0  0  0  0  0  0  0
   -2.0960    2.8290    1.0690 C   0  0  0  0  0  0  0  0  0  0  0  0
   -2.3760    4.0160    1.6740 C   0  0  0  0  0  0  0  0  0  0  0  0
   -3.8050    4.2380    1.7290 C   0  0  0  0  0  0  0  0  0  0  0  0
   -4.4390    3.2310    1.1820 C   0  0  0  0  0  0  0  0  0  0  0  0
   -6.1650    3.0040    0.9930 Cl  0  0  0  0  0  0  0  0  0  0  0  0
   -3.3810    2.2870    0.7380 C   0  0  0  0  0  0  0  0  0  0  0  0
   -3.6440    1.2110    0.1740 O   0  0  0  0  0  0  0  0  0  0  0  0
   -1.1890    0.2960   -0.3220 N   0  0  0  0  0  0  0  0  0  0  0  0
   -1.3710   -1.0300    0.2040 C   0  0  0  0  0  0  0  0  0  0  0  0
   -0.7970   -1.3590    1.2680 O   0  0  0  0  0  0  0  0  0  0  0  0
   -2.2080   -2.0030   -0.4740 C   0  0  0  0  0  0  0  0  0  0  0  0
   -2.4740   -3.2910   -0.0990 C   0  0  0  0  0  0  0  0  0  0  0  0
   -3.3180   -3.8050   -1.0630 C   0  0  0  0  0  0  0  0  0  0  0  0
   -3.5330   -2.8660   -1.9530 O   0  0  0  0  0  0  0  0  0  0  0  0
   -2.8870   -1.7660   -1.6420 C   0  0  0  0  0  0  0  0  0  0  0  0
  1  2  2  0
  2  3  1  0
  2 11  1  0
  3  4  1  0
  4  5  2  0
  4 10  1  0
  5  6  1  0
  6  7  2  0
  7  8  1  0
  8  9  1  0
  8 10  2  0
 11 12  2  3
 11 20  1  0
 12 13  1  0
 13 14  2  0
 13 18  1  0
 14 15  1  0
 15 16  2  0
 16 17  1  0
 16 18  1  0
 18 19  2  0
 20 21  1  0
 21 22  2  0
 21 23  1  0
 23 24  1  0
 23 27  2  0
 24 25  2  0
 25 26  1  0
 26 27  1  0
M  END
