
     RDKit          3D

 27 29  0  0  0  0  0  0  0  0999 V2000
    8.2140    0.1620    0.1560 C   0  0  0  0  0  0  0  0  0  0  0  0
    6.8330    0.3050    0.2480 O   0  0  0  0  0  0  0  0  0  0  0  0
    6.2110   -0.6980   -0.4840 C   0  0  0  0  0  0  0  0  0  0  0  0
    4.7170   -0.5680   -0.4030 C   0  0  0  0  0  0  0  0  0  0  0  0
    4.1240    0.4450    0.3260 C   0  0  0  0  0  0  0  0  0  0  0  0
    2.7560    0.6000    0.4270 C   0  0  0  0  0  0  0  0  0  0  0  0
    1.9510    1.4830    1.0600 N   0  0  0  0  0  0  0  0  0  0  0  0
    0.6650    1.1960    0.8410 C   0  0  0  0  0  0  0  0  0  0  0  0
   -0.5010    1.8930    1.3360 C   0  0  0  0  0  0  0  0  0  0  0  0
   -0.3400    2.8990    2.0660 O   0  0  0  0  0  0  0  0  0  0  0  0
   -1.7800    1.4780    1.0250 O   0  0  0  0  0  0  0  0  0  0  0  0
   -2.8640    2.2170    1.5500 C   0  0  0  0  0  0  0  0  0  0  0  0
   -4.1740    1.6000    1.0920 C   0  0  0  0  0  0  0  0  0  0  0  0
   -5.2300    2.1370    1.4720 O   0  0  0  0  0  0  0  0  0  0  0  0
   -4.1980    0.4730    0.2760 N   0  0  0  0  0  0  0  0  0  0  0  0
   -5.3470   -0.1980   -0.2200 C   0  0  0  0  0  0  0  0  0  0  0  0
   -6.6260    0.1880    0.0490 C   0  0  0  0  0  0  0  0  0  0  0  0
   -7.6910   -0.5110   -0.4670 C   0  0  0  0  0  0  0  0  0  0  0  0
   -7.5610   -1.6170   -1.2660 C   0  0  0  0  0  0  0  0  0  0  0  0
   -6.2540   -2.0030   -1.5350 C   0  0  0  0  0  0  0  0  0  0  0  0
   -5.1840   -1.3210   -1.0320 C   0  0  0  0  0  0  0  0  0  0  0  0
   -3.5830   -1.8650   -1.4120 Cl  0  0  0  0  0  0  0  0  0  0  0  0
    0.6360    0.0820    0.0340 C   0  0  0  0  0  0  0  0  0  0  0  0
    1.9350   -0.2940   -0.2280 C   0  0  0  0  0  0  0  0  0  0  0  0
    2.5180   -1.3180   -0.9650 C   0  0  0  0  0  0  0  0  0  0  0  0
    3.8860   -1.4550   -1.0520 C   0  0  0  0  0  0  0  0  0  0  0  0
    4.4680   -2.4830   -1.7920 O   0  0  0  0  0  0  0  0  0  0  0  0
  1  2  1  0
  2  3  1  0
  3  4  1  0
  4  5  2  0
  4 26  1  0
  5  6  1  0
  6  7  1  0
  6 24  2  0
  7  8  1  0
  8  9  1  0
  8 23  2  0
  9 10  2  0
  9 11  1  0
 11 12  1  0
 12 13  1  0
 13 14  2  0
 13 15  1  0
 15 16  1  0
 16 17  2  0
 16 21  1  0
 17 18  1  0
 18 19  2  0
 19 20  1  0
 20 21  2  0
 21 22  1  0
 23 24  1  0
 24 25  1  0
 25 26  2  0
 26 27  1  0
M  END
