
     RDKit          3D

 27 29  0  0  0  0  0  0  0  0999 V2000
    6.0720    0.1990   -1.5260 C   0  0  0  0  0  0  0  0  0  0  0  0
    5.0730   -0.3630   -0.7300 O   0  0  0  0  0  0  0  0  0  0  0  0
    3.7330   -0.0110   -0.8460 C   0  0  0  0  0  0  0  0  0  0  0  0
    3.4010    0.9330   -1.7930 C   0  0  0  0  0  0  0  0  0  0  0  0
    2.0700    1.2690   -1.8940 C   0  0  0  0  0  0  0  0  0  0  0  0
    1.0790    0.7030   -1.0960 C   0  0  0  0  0  0  0  0  0  0  0  0
   -0.3320    1.1210   -1.2680 C   0  0  0  0  0  0  0  0  0  0  0  0
   -0.5330    2.0210   -2.0940 O   0  0  0  0  0  0  0  0  0  0  0  0
   -1.3840    0.5360   -0.5410 N   0  0  0  0  0  0  0  0  0  0  0  0
   -2.7670    0.8360   -0.6050 C   0  0  0  0  0  0  0  0  0  0  0  0
   -3.6200    0.2020    0.1640 C   0  0  0  0  0  0  0  0  0  0  0  0
   -3.3220   -0.8070    1.1310 C   0  0  0  0  0  0  0  0  0  0  0  0
   -4.2890   -1.4630    1.8430 C   0  0  0  0  0  0  0  0  0  0  0  0
   -3.6580   -2.4310    2.7370 C   0  0  0  0  0  0  0  0  0  0  0  0
   -2.4260   -2.5260    2.2110 C   0  0  0  0  0  0  0  0  0  0  0  0
   -2.1210   -1.2990    1.7360 C   0  0  0  0  0  0  0  0  0  0  0  0
   -5.0080    0.5540    0.0280 O   0  0  0  0  0  0  0  0  0  0  0  0
   -5.5160    1.5170   -0.8030 C   0  0  0  0  0  0  0  0  0  0  0  0
   -4.4850    2.1760   -1.6270 C   0  0  0  0  0  0  0  0  0  0  0  0
   -4.9880    3.4180   -2.7620 Cl  0  0  0  0  0  0  0  0  0  0  0  0
   -3.2130    1.8880   -1.5630 C   0  0  0  0  0  0  0  0  0  0  0  0
    1.4600   -0.2340   -0.1660 C   0  0  0  0  0  0  0  0  0  0  0  0
    2.7840   -0.5900   -0.0420 C   0  0  0  0  0  0  0  0  0  0  0  0
    3.2080   -1.5430    0.8980 O   0  0  0  0  0  0  0  0  0  0  0  0
    3.5830   -1.1550    2.1910 C   0  0  0  0  0  0  0  0  0  0  0  0
    4.0150   -2.0970    3.1620 N   0  0  0  0  0  0  0  0  0  0  0  0
    3.5100    0.0820    2.4320 O   0  0  0  0  0  0  0  0  0  0  0  0
  1  2  1  0
  2  3  1  0
  3  4  2  0
  3 23  1  0
  4  5  1  0
  5  6  2  0
  6  7  1  0
  6 22  1  0
  7  8  2  0
  7  9  1  0
  9 10  1  0
 10 11  2  0
 10 21  1  0
 11 12  1  0
 11 17  1  0
 12 13  2  0
 12 16  1  0
 13 14  1  0
 14 15  2  0
 15 16  2  0
 17 18  1  0
 18 19  1  0
 19 20  1  0
 19 21  2  0
 22 23  2  0
 23 24  1  0
 24 25  1  0
 25 26  1  0
 25 27  2  0
M  END
