
     RDKit          3D

 27 29  0  0  0  0  0  0  0  0999 V2000
    8.0280    0.8470   -0.2120 C   0  0  0  0  0  0  0  0  0  0  0  0
    7.1070    0.0760    0.5830 N   0  0  0  0  0  0  0  0  0  0  0  0
    5.7120    0.1160    0.3020 C   0  0  0  0  0  0  0  0  0  0  0  0
    4.8180   -0.6190    1.0420 C   0  0  0  0  0  0  0  0  0  0  0  0
    3.4600   -0.5570    0.7400 C   0  0  0  0  0  0  0  0  0  0  0  0
    2.9850    0.2250   -0.2850 C   0  0  0  0  0  0  0  0  0  0  0  0
    1.6460    0.2980   -0.5970 O   0  0  0  0  0  0  0  0  0  0  0  0
    0.6790   -0.4280    0.1200 C   0  0  0  0  0  0  0  0  0  0  0  0
   -0.7240   -0.1760   -0.4220 C   0  0  1  0  0  0  0  0  0  0  0  0
   -0.8090   -0.5590   -1.7600 O   0  0  0  0  0  0  0  0  0  0  0  0
   -1.7670   -0.8760    0.4050 C   0  0  0  0  0  0  0  0  0  0  0  0
   -3.1150   -0.6280    0.0220 N   0  0  0  0  0  0  0  0  0  0  0  0
   -3.6700    0.6850    0.1860 C   0  0  0  0  0  0  0  0  0  0  0  0
   -2.9860    1.3450    1.0890 C   0  0  0  0  0  0  0  0  0  0  0  0
   -3.3480    2.7500    1.4620 C   0  0  0  0  0  0  0  0  0  0  0  0
   -4.4420    3.2410    0.7500 O   0  0  0  0  0  0  0  0  0  0  0  0
   -5.1560    2.5560   -0.1920 C   0  0  0  0  0  0  0  0  0  0  0  0
   -4.8230    1.3150   -0.5020 C   0  0  0  0  0  0  0  0  0  0  0  0
   -5.6320    0.7360   -1.4750 O   0  0  0  0  0  0  0  0  0  0  0  0
   -5.9170   -0.6220   -1.5560 C   0  0  0  0  0  0  0  0  0  0  0  0
   -7.0670   -0.9330   -2.0300 O   0  0  0  0  0  0  0  0  0  0  0  0
   -5.0500   -1.7080   -1.1620 C   0  0  0  0  0  0  0  0  0  0  0  0
   -5.6530   -3.2890   -1.6390 Cl  0  0  0  0  0  0  0  0  0  0  0  0
   -3.9080   -1.7050   -0.5180 C   0  0  0  0  0  0  0  0  0  0  0  0
   -3.2910   -3.0440   -0.2760 C   0  0  0  0  0  0  0  0  0  0  0  0
    3.8840    0.9580   -1.0220 C   0  0  0  0  0  0  0  0  0  0  0  0
    5.2470    0.9120   -0.7380 C   0  0  0  0  0  0  0  0  0  0  0  0
  1  2  1  0
  2  3  1  0
  3  4  2  0
  3 27  1  0
  4  5  1  0
  5  6  2  0
  6  7  1  0
  6 26  1  0
  7  8  1  0
  8  9  1  0
  9 10  1  6
  9 11  1  0
 11 12  1  0
 12 13  1  0
 12 24  1  0
 13 14  2  0
 13 18  1  0
 14 15  1  0
 15 16  1  0
 16 17  1  0
 17 18  2  0
 18 19  1  0
 19 20  1  0
 20 21  2  0
 20 22  1  0
 22 23  1  0
 22 24  2  0
 24 25  1  0
 26 27  2  0
M  END
