
     RDKit          3D

 31 32  0  0  0  0  0  0  0  0999 V2000
   -4.8490   -0.0390   -2.1490 C   0  0  0  0  0  0  0  0  0  0  0  0
   -4.6110   -1.1670   -1.5170 C   0  0  0  0  0  0  0  0  0  0  0  0
   -5.4330   -2.2200   -1.8690 F   0  0  0  0  0  0  0  0  0  0  0  0
   -3.6450   -1.4180   -0.5280 C   0  0  0  0  0  0  0  0  0  0  0  0
   -3.3990   -2.5460    0.0900 C   0  0  0  0  0  0  0  0  0  0  0  0
   -4.0450   -3.8480   -0.0670 C   0  0  0  0  0  0  0  0  0  0  0  0
   -4.6390   -4.2930    1.1080 F   0  0  0  0  0  0  0  0  0  0  0  0
   -2.6940   -0.3200   -0.0190 N   0  0  0  0  0  0  0  0  0  0  0  0
   -1.3880   -0.5970   -0.3100 C   0  0  0  0  0  0  0  0  0  0  0  0
   -1.3930   -1.7370   -1.0740 O   0  0  0  0  0  0  0  0  0  0  0  0
   -0.0660   -0.1480   -0.1190 C   0  0  0  0  0  0  0  0  0  0  0  0
    0.9560   -0.7990   -0.7390 C   0  0  0  0  0  0  0  0  0  0  0  0
    0.7010   -1.9710   -1.6140 C   0  0  0  0  0  0  0  0  0  0  0  0
    2.3040   -0.3670   -0.5510 N   0  0  0  0  0  0  0  0  0  0  0  0
    2.6840    0.7090    0.2480 C   0  0  0  0  0  0  0  0  0  0  0  0
    3.8580    1.1870    0.4870 C   0  0  0  0  0  0  0  0  0  0  0  0
    5.1610    0.8380    0.0620 C   0  0  0  0  0  0  0  0  0  0  0  0
    6.2220    1.5680    0.5120 C   0  0  0  0  0  0  0  0  0  0  0  0
    7.4650    1.0440   -0.0420 C   0  0  0  0  0  0  0  0  0  0  0  0
    7.0410   -0.0690   -0.8660 C   0  0  0  0  0  0  0  0  0  0  0  0
    5.7110   -0.1650   -0.7870 C   0  0  0  0  0  0  0  0  0  0  0  0
    5.0610   -1.1870   -1.5140 O   0  0  0  0  0  0  0  0  0  0  0  0
    1.5280    1.3900    0.9100 C   0  0  0  0  0  0  0  0  0  0  0  0
    0.2820    0.9790    0.7280 C   0  0  0  0  0  0  0  0  0  0  0  0
   -0.6960    1.6820    1.4000 O   0  0  0  0  0  0  0  0  0  0  0  0
   -0.4590    2.0550    2.7390 C   0  0  0  0  0  0  0  0  0  0  0  0
   -3.4390    0.6530    0.6550 C   0  0  1  0  0  0  0  0  0  0  0  0
   -3.4170    0.5700    2.1800 C   0  0  0  0  0  0  0  0  0  0  0  0
   -3.3310    2.0560    0.2470 C   0  0  0  0  0  0  0  0  0  0  0  0
   -2.5630    2.5390   -0.8400 N   0  0  0  0  0  0  0  0  0  0  0  0
   -3.9720    2.9230    0.9120 O   0  0  0  0  0  0  0  0  0  0  0  0
  1  2  2  0
  2  3  1  0
  2  4  1  0
  4  5  2  3
  4  8  1  0
  5  6  1  0
  6  7  1  0
  8  9  1  0
  8 27  1  0
  9 10  2  0
  9 11  1  0
 11 12  2  0
 11 24  1  0
 12 13  1  0
 12 14  1  0
 14 15  1  0
 15 16  2  3
 15 23  1  0
 16 17  1  0
 17 18  2  0
 17 21  1  0
 18 19  1  0
 19 20  1  0
 20 21  2  0
 21 22  1  0
 23 24  2  0
 24 25  1  0
 25 26  1  0
 27 28  1  1
 27 29  1  0
 29 30  1  0
 29 31  2  0
M  END
