
     RDKit          3D

 31 32  0  0  0  0  0  0  0  0999 V2000
   -1.3160   -2.8910    2.2550 C   0  0  0  0  0  0  0  0  0  0  0  0
   -1.2480   -1.7830    1.3030 C   0  0  0  0  0  0  0  0  0  0  0  0
   -1.1820   -0.8450    0.4990 C   0  0  0  0  0  0  0  0  0  0  0  0
   -1.1070    0.2310   -0.4550 C   0  0  0  0  0  0  0  0  0  0  0  0
   -2.1970    0.7030   -0.9510 C   0  0  0  0  0  0  0  0  0  0  0  0
   -3.4640    0.0780   -0.4780 C   0  0  0  0  0  0  0  0  0  0  0  0
   -4.6610    0.4030   -0.8530 C   0  0  0  0  0  0  0  0  0  0  0  0
   -5.7440   -0.3180   -0.2820 O   0  0  0  0  0  0  0  0  0  0  0  0
   -7.0830    0.0770   -0.4150 C   0  0  1  0  0  0  0  0  0  0  0  0
   -7.3100    1.2620    0.5020 C   0  0  0  0  0  0  0  0  0  0  0  0
   -7.3720    0.5580   -1.8320 C   0  0  0  0  0  0  0  0  0  0  0  0
   -6.4660    1.6410   -2.0860 N   0  0  0  0  0  0  0  0  0  0  0  0
   -5.0700    1.4270   -1.7980 C   0  0  0  0  0  0  0  0  0  0  0  0
   -4.1990    2.1220   -2.3620 O   0  0  0  0  0  0  0  0  0  0  0  0
    0.2520    0.7210   -0.7900 C   0  0  0  0  0  0  0  0  0  0  0  0
    1.2220    0.0890   -0.1690 C   0  0  0  0  0  0  0  0  0  0  0  0
    2.6420    0.2340   -0.1960 C   0  0  0  0  0  0  0  0  0  0  0  0
    3.2370    1.0820   -0.8940 O   0  0  0  0  0  0  0  0  0  0  0  0
    3.4500   -0.6200    0.6070 N   0  0  0  0  0  0  0  0  0  0  0  0
    4.8610   -0.6400    0.7080 C   0  0  0  0  0  0  0  0  0  0  0  0
    5.4350   -1.2580    1.8450 C   0  0  0  0  0  0  0  0  0  0  0  0
    4.5390   -1.7460    2.7630 F   0  0  0  0  0  0  0  0  0  0  0  0
    6.7840   -1.3710    2.0370 C   0  0  0  0  0  0  0  0  0  0  0  0
    7.6550   -0.8760    1.1090 C   0  0  0  0  0  0  0  0  0  0  0  0
    9.1030   -1.0200    1.3550 C   0  0  0  0  0  0  0  0  0  0  0  0
    7.1330   -0.2720   -0.0050 C   0  0  0  0  0  0  0  0  0  0  0  0
    5.7560   -0.1590   -0.1960 C   0  0  0  0  0  0  0  0  0  0  0  0
    5.3940    0.4200   -1.3410 F   0  0  0  0  0  0  0  0  0  0  0  0
    0.4130    1.7640   -1.7310 C   0  0  0  0  0  0  0  0  0  0  0  0
    1.5830    2.3670   -2.2480 N   0  0  0  0  0  0  0  0  0  0  0  0
   -0.6480    2.3010   -2.2460 O   0  0  0  0  0  0  0  0  0  0  0  0
  1  2  1  0
  2  3  3  0
  3  4  1  0
  4  5  2  3
  4 15  1  0
  5  6  1  0
  6  7  2  3
  7  8  1  0
  7 13  1  0
  8  9  1  0
  9 10  1  1
  9 11  1  0
 11 12  1  0
 12 13  1  0
 13 14  2  0
 15 16  2  3
 15 29  1  0
 16 17  1  0
 17 18  2  0
 17 19  1  0
 19 20  1  0
 20 21  2  0
 20 27  1  0
 21 22  1  0
 21 23  1  0
 23 24  2  0
 24 25  1  0
 24 26  1  0
 26 27  2  0
 27 28  1  0
 29 30  1  0
 29 31  2  0
M  END
