
     RDKit          3D

 31 32  0  0  0  0  0  0  0  0999 V2000
   -1.0700    4.9520   -0.0590 C   0  0  0  0  0  0  0  0  0  0  0  0
   -0.6410    3.7080   -0.3670 C   0  0  0  0  0  0  0  0  0  0  0  0
   -1.4020    2.4570   -0.3110 C   0  0  0  0  0  0  0  0  0  0  0  0
   -2.6930    2.4780   -0.1590 C   0  0  0  0  0  0  0  0  0  0  0  0
   -3.7170    1.4410   -0.0770 C   0  0  0  0  0  0  0  0  0  0  0  0
   -0.3990    1.3830   -0.5370 C   0  0  0  0  0  0  0  0  0  0  0  0
    0.8030    1.8660   -0.7380 C   0  0  0  0  0  0  0  0  0  0  0  0
    2.0590    1.1560   -0.9960 C   0  0  0  0  0  0  0  0  0  0  0  0
    2.4580    1.2160   -2.2830 O   0  0  0  0  0  0  0  0  0  0  0  0
    2.9710    0.4230   -0.2580 N   0  0  0  0  0  0  0  0  0  0  0  0
    3.0540    0.0680    1.1240 C   0  0  0  0  0  0  0  0  0  0  0  0
    3.5260   -1.3270    1.2960 C   0  0  0  0  0  0  0  0  0  0  0  0
    3.2880   -1.7840    2.4860 O   0  0  0  0  0  0  0  0  0  0  0  0
    4.1640   -2.1520    0.3630 N   0  0  0  0  0  0  0  0  0  0  0  0
    4.0830   -2.2760   -1.0270 C   0  0  0  0  0  0  0  0  0  0  0  0
    5.1570   -2.2720   -1.7500 O   0  0  0  0  0  0  0  0  0  0  0  0
    2.8550   -2.4210   -1.8490 C   0  0  0  0  0  0  0  0  0  0  0  0
    1.6790   -2.7420   -1.0760 N   0  0  0  0  0  0  0  0  0  0  0  0
    0.6720   -1.8900   -0.6430 C   0  0  0  0  0  0  0  0  0  0  0  0
    0.5400   -1.8290    0.6410 O   0  0  0  0  0  0  0  0  0  0  0  0
   -0.2650   -1.0490   -1.4290 C   0  0  0  0  0  0  0  0  0  0  0  0
   -0.8150   -0.0570   -0.4820 C   0  0  0  0  0  0  0  0  0  0  0  0
   -1.5470   -0.4910    0.5060 C   0  0  0  0  0  0  0  0  0  0  0  0
   -2.1280   -1.7340    0.8510 C   0  0  0  0  0  0  0  0  0  0  0  0
   -2.3010   -3.0080    0.1800 C   0  0  0  0  0  0  0  0  0  0  0  0
   -2.9430   -2.9690   -1.0460 F   0  0  0  0  0  0  0  0  0  0  0  0
   -2.7800   -1.7020    2.0740 C   0  0  0  0  0  0  0  0  0  0  0  0
   -3.4460   -2.8800    2.6170 C   0  0  0  0  0  0  0  0  0  0  0  0
   -2.8020   -0.5560    2.7890 F   0  0  0  0  0  0  0  0  0  0  0  0
    0.7110    3.3760   -0.8100 C   0  0  1  0  0  0  0  0  0  0  0  0
    0.7850    3.8510   -2.2520 C   0  0  0  0  0  0  0  0  0  0  0  0
  1  2  2  0
  2  3  1  0
  2 30  1  0
  3  4  2  3
  3  6  1  0
  4  5  1  0
  6  7  2  0
  6 22  1  0
  7  8  1  0
  7 30  1  0
  8  9  2  0
  8 10  1  0
 10 11  1  0
 11 12  1  0
 12 13  2  0
 12 14  1  0
 14 15  1  0
 15 16  2  0
 15 17  1  0
 17 18  1  0
 18 19  1  0
 19 20  2  0
 19 21  1  0
 21 22  1  0
 22 23  2  3
 23 24  1  0
 24 25  1  0
 24 27  2  3
 25 26  1  0
 27 28  1  0
 27 29  1  0
 30 31  1  6
M  END
