
     RDKit          3D

 30 32  0  0  0  0  0  0  0  0999 V2000
   -3.4550   -3.1130   -2.2810 C   0  0  0  0  0  0  0  0  0  0  0  0
   -2.7180   -2.3620   -1.2480 C   0  0  0  0  0  0  0  0  0  0  0  0
   -2.3700   -2.9670   -0.1840 O   0  0  0  0  0  0  0  0  0  0  0  0
   -2.4020   -0.9940   -1.4340 N   0  0  0  0  0  0  0  0  0  0  0  0
   -1.6730   -0.2130   -0.4380 C   0  0  2  0  0  0  0  0  0  0  0  0
   -2.4280    1.0410   -0.0900 C   0  0  0  0  0  0  0  0  0  0  0  0
   -3.7820    0.8600    0.4800 C   0  0  2  0  0  0  0  0  0  0  0  0
   -3.8730    0.0840    1.7540 C   0  0  0  0  0  0  0  0  0  0  0  0
   -5.2170   -0.6570    1.8050 C   0  0  0  0  0  0  0  0  0  0  0  0
   -6.3370    0.2980    1.4870 C   0  0  0  0  0  0  0  0  0  0  0  0
   -6.1900    0.8710    0.0850 C   0  0  0  0  0  0  0  0  0  0  0  0
   -4.8440    0.4230   -0.5150 C   0  0  0  0  0  0  0  0  0  0  0  0
   -0.3760    0.1780   -1.0510 C   0  0  0  0  0  0  0  0  0  0  0  0
   -0.2480   -0.0420   -2.3150 O   0  0  0  0  0  0  0  0  0  0  0  0
    0.7170    0.7580   -0.3850 N   0  0  0  0  0  0  0  0  0  0  0  0
    0.8840    1.0610    1.0070 C   0  0  0  0  0  0  0  0  0  0  0  0
    1.3050    2.5350    0.8840 C   0  0  0  0  0  0  0  0  0  0  0  0
    2.4390    2.3670   -0.1380 C   0  0  0  0  0  0  0  0  0  0  0  0
    1.9500    1.1980   -1.0060 C   0  0  1  0  0  0  0  0  0  0  0  0
    2.9370    0.0860   -0.9540 C   0  0  0  0  0  0  0  0  0  0  0  0
    2.7180   -1.0090   -0.3840 O   0  0  0  0  0  0  0  0  0  0  0  0
    4.1960    0.2840   -1.5890 N   0  0  0  0  0  0  0  0  0  0  0  0
    5.2450   -0.7100   -1.6140 C   0  0  0  0  0  0  0  0  0  0  0  0
    5.9510   -0.7430   -0.3180 C   0  0  0  0  0  0  0  0  0  0  0  0
    6.9610    0.1930   -0.1210 C   0  0  0  0  0  0  0  0  0  0  0  0
    7.6400    0.1880    1.0640 C   0  0  0  0  0  0  0  0  0  0  0  0
    7.3470   -0.7170    2.0530 C   0  0  0  0  0  0  0  0  0  0  0  0
    6.3470   -1.6420    1.8550 C   0  0  0  0  0  0  0  0  0  0  0  0
    5.9490   -2.8100    3.1000 Cl  0  0  0  0  0  0  0  0  0  0  0  0
    5.6450   -1.6550    0.6630 C   0  0  0  0  0  0  0  0  0  0  0  0
  1  2  1  0
  2  3  2  0
  2  4  1  0
  4  5  1  0
  5  6  1  6
  5 13  1  0
  7  6  1  6
  7  8  1  0
  7 12  1  0
  8  9  1  0
  9 10  1  0
 10 11  1  0
 11 12  1  0
 13 14  2  0
 13 15  1  0
 15 16  1  0
 15 19  1  0
 16 17  1  0
 17 18  1  0
 18 19  1  0
 19 20  1  1
 20 21  2  0
 20 22  1  0
 22 23  1  0
 23 24  1  0
 24 25  2  0
 24 30  1  0
 25 26  1  0
 26 27  2  0
 27 28  1  0
 28 29  1  0
 28 30  2  0
M  END
