
     RDKit          3D

 31 33  0  0  0  0  0  0  0  0999 V2000
   -5.5960    3.0860    0.3600 C   0  0  0  0  0  0  0  0  0  0  0  0
   -4.3790    2.5900    0.5410 C   0  0  0  0  0  0  0  0  0  0  0  0
   -3.3620    3.4560    0.6780 N   0  0  0  0  0  0  0  0  0  0  0  0
   -2.1520    2.9810    0.8630 C   0  0  0  0  0  0  0  0  0  0  0  0
   -1.1480    3.7690    0.9980 O   0  0  0  0  0  0  0  0  0  0  0  0
   -1.8440    1.6250    0.9290 C   0  0  0  0  0  0  0  0  0  0  0  0
   -0.5090    1.2180    1.1400 C   0  0  0  0  0  0  0  0  0  0  0  0
    0.1140    0.8390    1.9960 O   0  0  0  0  0  0  0  0  0  0  0  0
    0.3590    1.3650   -0.3790 N   0  0  0  0  0  0  0  0  0  0  0  0
    1.5800    0.8920    0.0900 C   0  0  0  0  0  0  0  0  0  0  0  0
    1.9620    0.3890    1.0970 O   0  0  0  0  0  0  0  0  0  0  0  0
    2.6360    1.1000   -0.9770 N   0  0  0  0  0  0  0  0  0  0  0  0
    3.9040    0.6420   -0.7080 C   0  0  0  0  0  0  0  0  0  0  0  0
    4.8780    1.3700   -0.2170 C   0  0  0  0  0  0  0  0  0  0  0  0
    6.2130    0.8710    0.0750 C   0  0  2  0  0  0  0  0  0  0  0  0
    6.3800    0.6720    1.4570 F   0  0  0  0  0  0  0  0  0  0  0  0
    7.1410    1.8650   -0.2540 F   0  0  0  0  0  0  0  0  0  0  0  0
    6.6120   -0.3890   -0.5810 C   0  0  0  0  0  0  0  0  0  0  0  0
    5.4860   -1.1630   -1.1110 C   0  0  0  0  0  0  0  0  0  0  0  0
    5.8080   -2.5330   -1.6600 C   0  0  0  0  0  0  0  0  0  0  0  0
    6.3140   -3.3690   -0.6740 O   0  0  0  0  0  0  0  0  0  0  0  0
    4.2630   -0.7080   -1.1720 C   0  0  0  0  0  0  0  0  0  0  0  0
   -2.8750    0.7130    0.7890 C   0  0  0  0  0  0  0  0  0  0  0  0
   -4.1740    1.2010    0.5910 C   0  0  0  0  0  0  0  0  0  0  0  0
   -5.2200    0.4120    0.4390 C   0  0  0  0  0  0  0  0  0  0  0  0
   -5.0980   -1.0470    0.4830 C   0  0  0  0  0  0  0  0  0  0  0  0
   -3.8800   -1.4480    1.2770 C   0  0  0  0  0  0  0  0  0  0  0  0
   -2.6580   -0.7210    0.7520 C   0  0  2  0  0  0  0  0  0  0  0  0
   -1.4640   -1.3330    1.3690 C   0  0  0  0  0  0  0  0  0  0  0  0
   -2.5150   -1.0530   -0.7640 C   0  0  0  0  0  0  0  0  0  0  0  0
   -2.2760   -2.5010   -1.0040 C   0  0  0  0  0  0  0  0  0  0  0  0
  1  2  2  0
  2  3  1  0
  2 24  1  0
  3  4  1  0
  4  5  2  0
  4  6  1  0
  6  7  1  0
  6 23  2  0
  7  8  2  0
  7  9  1  0
  9 10  1  0
 10 11  2  0
 10 12  1  0
 12 13  1  0
 13 14  2  0
 13 22  1  0
 14 15  1  0
 15 16  1  1
 15 17  1  0
 15 18  1  0
 18 19  1  0
 19 20  1  0
 19 22  2  0
 20 21  1  0
 23 24  1  0
 23 28  1  0
 24 25  2  0
 25 26  1  0
 26 27  1  0
 27 28  1  0
 28 29  1  1
 28 30  1  0
 30 31  1  0
M  END
