
     RDKit          3D

 31 33  0  0  0  0  0  0  0  0999 V2000
   -2.4160    4.2500    0.0500 C   0  0  0  0  0  0  0  0  0  0  0  0
   -2.5430    2.8170   -0.3490 C   0  0  0  0  0  0  0  0  0  0  0  0
   -3.1390    2.5040   -1.4090 O   0  0  0  0  0  0  0  0  0  0  0  0
   -1.9940    1.7940    0.4580 N   0  0  0  0  0  0  0  0  0  0  0  0
   -2.0690    0.4060    0.1660 C   0  0  0  0  0  0  0  0  0  0  0  0
   -0.9900   -0.3140   -0.0880 C   0  0  0  0  0  0  0  0  0  0  0  0
    0.3520    0.3390   -0.0720 C   0  0  0  0  0  0  0  0  0  0  0  0
    0.4230    1.5550    0.1810 O   0  0  0  0  0  0  0  0  0  0  0  0
    1.5360   -0.3730   -0.3320 N   0  0  0  0  0  0  0  0  0  0  0  0
    2.8840   -0.0070   -0.3510 C   0  0  0  0  0  0  0  0  0  0  0  0
    3.6040    0.3560    0.8670 C   0  0  2  0  0  0  0  0  0  0  0  0
    3.0840    1.5280    1.6170 C   0  0  0  0  0  0  0  0  0  0  0  0
    3.4860    2.6640    0.7000 C   0  0  0  0  0  0  0  0  0  0  0  0
    4.4610    2.1590   -0.1510 O   0  0  0  0  0  0  0  0  0  0  0  0
    4.9620    0.9960    0.4650 C   0  0  2  0  0  0  0  0  0  0  0  0
    5.7680    0.1440   -0.4260 C   0  0  0  0  0  0  0  0  0  0  0  0
    6.2160   -1.0140    0.3290 N   0  0  0  0  0  0  0  0  0  0  0  0
    7.1820   -2.0860   -0.6460 S   0  0  0  0  0  0  0  0  0  0  0  0
    6.4410   -2.5270   -1.9540 N   0  0  0  0  0  0  0  0  0  0  0  0
   -3.3750   -0.2300    0.1510 C   0  0  0  0  0  0  0  0  0  0  0  0
   -4.5030    0.5180    0.4930 C   0  0  0  0  0  0  0  0  0  0  0  0
   -5.7660   -0.0150    0.4860 C   0  0  0  0  0  0  0  0  0  0  0  0
   -5.9900   -1.3250    0.1410 C   0  0  0  0  0  0  0  0  0  0  0  0
   -7.2360   -1.8270    0.1410 N   0  0  0  0  0  0  0  0  0  0  0  0
   -7.3920   -3.1160   -0.2070 C   0  0  0  0  0  0  0  0  0  0  0  0
   -8.5440   -3.6390   -0.2230 O   0  0  0  0  0  0  0  0  0  0  0  0
   -6.3140   -3.9030   -0.5530 C   0  0  0  0  0  0  0  0  0  0  0  0
   -6.5500   -5.4810   -0.9740 S   0  0  0  0  0  0  0  0  0  0  0  0
   -5.0830   -3.3680   -0.5430 N   0  0  0  0  0  0  0  0  0  0  0  0
   -4.8920   -2.0730   -0.1970 C   0  0  0  0  0  0  0  0  0  0  0  0
   -3.6010   -1.5360   -0.1930 C   0  0  0  0  0  0  0  0  0  0  0  0
  1  2  1  0
  2  3  2  0
  2  4  1  0
  4  5  1  0
  5  6  2  3
  5 20  1  0
  6  7  1  0
  7  8  2  0
  7  9  1  0
  9 10  1  0
 11 10  1  6
 11 12  1  0
 11 15  1  0
 12 13  1  0
 13 14  1  0
 14 15  1  0
 15 16  1  6
 16 17  1  0
 17 18  1  0
 18 19  2  0
 20 21  2  0
 20 31  1  0
 21 22  1  0
 22 23  2  0
 23 24  1  0
 23 30  1  0
 24 25  1  0
 25 26  2  0
 25 27  1  0
 27 28  2  0
 27 29  1  0
 29 30  1  0
 30 31  2  0
M  CHG  1  19   1
M  END
