
     RDKit          3D

 31 33  0  0  0  0  0  0  0  0999 V2000
    7.8160   -1.7140    1.1060 C   0  0  0  0  0  0  0  0  0  0  0  0
    6.7920   -1.5220    0.0020 C   0  0  0  0  0  0  0  0  0  0  0  0
    5.8880   -0.3280    0.3790 C   0  0  1  0  0  0  0  0  0  0  0  0
    6.7630    0.9160    0.5010 C   0  0  0  0  0  0  0  0  0  0  0  0
    4.8830   -0.2010   -0.7170 C   0  0  0  0  0  0  0  0  0  0  0  0
    3.8690    0.8900   -0.5930 C   0  0  1  0  0  0  0  0  0  0  0  0
    3.0190    0.8330   -1.8650 C   0  0  0  0  0  0  0  0  0  0  0  0
    2.0050    1.8400   -1.8920 N   0  0  0  0  0  0  0  0  0  0  0  0
    3.0100    0.8380    0.6180 C   0  0  2  0  0  0  0  0  0  0  0  0
    3.8420    0.9430    1.7580 O   0  0  0  0  0  0  0  0  0  0  0  0
    2.2220   -0.4060    0.7880 C   0  0  1  0  0  0  0  0  0  0  0  0
    1.3730   -0.3480    1.9750 N   0  0  0  0  0  0  0  0  0  0  0  0
    0.1600   -0.9850    1.8860 C   0  0  0  0  0  0  0  0  0  0  0  0
   -0.2840   -1.3040    0.6640 C   0  0  0  0  0  0  0  0  0  0  0  0
   -1.8220   -2.1290    0.3680 S   0  0  2  0  0  0  0  0  0  0  0  0
   -2.0090   -3.2520    1.3800 O   0  0  0  0  0  0  0  0  0  0  0  0
   -1.5490   -2.8960   -0.9560 O   0  0  0  0  0  0  0  0  0  0  0  0
   -3.0740   -1.0730    0.2510 N   0  0  0  0  0  0  0  0  0  0  0  0
   -3.0910   -0.1650   -0.8430 C   0  0  0  0  0  0  0  0  0  0  0  0
   -4.3600    0.6490   -0.5990 C   0  0  0  0  0  0  0  0  0  0  0  0
   -4.5450    1.9460   -0.4230 N   0  0  0  0  0  0  0  0  0  0  0  0
   -5.8510    2.2450   -0.3300 N   0  0  0  0  0  0  0  0  0  0  0  0
   -6.4310    3.5640   -0.1730 C   0  0  0  0  0  0  0  0  0  0  0  0
   -6.5760    1.1040   -0.4450 C   0  0  0  0  0  0  0  0  0  0  0  0
   -5.6460    0.1030   -0.6190 C   0  0  0  0  0  0  0  0  0  0  0  0
   -6.3070   -1.2060   -0.7250 C   0  0  0  0  0  0  0  0  0  0  0  0
   -7.6970   -0.9050   -0.5290 N   0  0  0  0  0  0  0  0  0  0  0  0
   -8.7470   -1.8920   -0.4410 C   0  0  0  0  0  0  0  0  0  0  0  0
   -7.8880    0.5000   -0.3880 C   0  0  0  0  0  0  0  0  0  0  0  0
   -9.0190    1.0810   -0.2320 O   0  0  0  0  0  0  0  0  0  0  0  0
    0.9550   -0.7270   -0.4520 S   0  0  0  0  0  0  0  0  0  0  0  0
  1  2  1  0
  2  3  1  0
  3  4  1  6
  3  5  1  0
  6  5  1  1
  6  7  1  0
  6  9  1  0
  7  8  1  0
  9 10  1  1
  9 11  1  0
 11 12  1  1
 11 31  1  0
 12 13  1  0
 13 14  2  0
 14 15  1  0
 14 31  1  0
 15 16  2  0
 15 17  2  0
 15 18  1  6
 18 19  1  0
 19 20  1  0
 20 21  2  0
 20 25  1  0
 21 22  1  0
 22 23  1  0
 22 24  1  0
 24 25  2  0
 24 29  1  0
 25 26  1  0
 26 27  1  0
 27 28  1  0
 27 29  1  0
 29 30  2  0
M  CHG  1   8   1
M  END
