
     RDKit          3D

 23 26  0  0  0  0  0  0  0  0999 V2000
    3.1970   -0.2720   -2.4160 C   0  0  0  0  0  0  0  0  0  0  0  0
    3.5420    0.5050   -1.2070 C   0  0  0  0  0  0  0  0  0  0  0  0
    4.5600    1.4540   -1.2180 C   0  0  0  0  0  0  0  0  0  0  0  0
    4.8760    2.1740   -0.0900 C   0  0  0  0  0  0  0  0  0  0  0  0
    4.1860    1.9670    1.0760 C   0  0  0  0  0  0  0  0  0  0  0  0
    3.1600    1.0260    1.1280 C   0  0  0  0  0  0  0  0  0  0  0  0
    2.4790    0.8180    2.2690 N   0  0  0  0  0  0  0  0  0  0  0  0
    1.4900   -0.0900    2.3160 C   0  0  0  0  0  0  0  0  0  0  0  0
    0.9090   -0.2110    3.4410 O   0  0  0  0  0  0  0  0  0  0  0  0
    1.1490   -0.8140    1.2410 N   0  0  0  0  0  0  0  0  0  0  0  0
    0.0880   -1.7750    1.3260 C   0  0  0  0  0  0  0  0  0  0  0  0
   -1.2550   -1.2290    1.0030 C   0  0  0  0  0  0  0  0  0  0  0  0
   -2.0800   -0.6810    1.9690 C   0  0  0  0  0  0  0  0  0  0  0  0
   -3.3240   -0.1780    1.6540 C   0  0  0  0  0  0  0  0  0  0  0  0
   -3.7870   -0.2060    0.3580 C   0  0  0  0  0  0  0  0  0  0  0  0
   -3.0010   -0.7410   -0.6350 C   0  0  0  0  0  0  0  0  0  0  0  0
   -1.7620   -1.2340   -0.2800 C   0  0  0  0  0  0  0  0  0  0  0  0
   -3.7250   -0.6530   -1.9500 C   0  0  0  0  0  0  0  0  0  0  0  0
   -4.6040    0.5740   -1.6690 C   0  0  0  0  0  0  0  0  0  0  0  0
   -5.0570    0.2510   -0.2620 C   0  0  0  0  0  0  0  0  0  0  0  0
    1.8310   -0.6070    0.0960 C   0  0  0  0  0  0  0  0  0  0  0  0
    1.5440   -1.2710   -0.9550 O   0  0  0  0  0  0  0  0  0  0  0  0
    2.8620    0.3090   -0.0360 C   0  0  0  0  0  0  0  0  0  0  0  0
  1  2  1  0
  2  3  2  0
  2 23  1  0
  3  4  1  0
  4  5  2  0
  5  6  1  0
  6  7  1  0
  6 23  2  0
  7  8  1  0
  8  9  2  0
  8 10  1  0
 10 11  1  0
 10 21  1  0
 11 12  1  0
 12 13  2  0
 12 17  1  0
 13 14  1  0
 14 15  2  0
 15 16  1  0
 15 20  1  0
 16 17  2  0
 16 18  1  0
 18 19  1  0
 19 20  1  0
 21 22  2  0
 21 23  1  0
M  END
