
     RDKit          3D

 23 25  0  0  0  0  0  0  0  0999 V2000
   -2.7500    4.2550   -0.1160 C   0  0  0  0  0  0  0  0  0  0  0  0
   -3.5930    3.1960    0.4240 C   0  0  0  0  0  0  0  0  0  0  0  0
   -4.8330    3.3850    0.5030 O   0  0  0  0  0  0  0  0  0  0  0  0
   -3.0730    1.9040    0.8880 C   0  0  0  0  0  0  0  0  0  0  0  0
   -1.7410    1.7390    0.7860 C   0  0  0  0  0  0  0  0  0  0  0  0
   -0.9930    0.5670    1.1670 C   0  0  0  0  0  0  0  0  0  0  0  0
   -0.0430    0.1150    0.4050 C   0  0  0  0  0  0  0  0  0  0  0  0
    0.4490    0.5620   -0.8330 C   0  0  0  0  0  0  0  0  0  0  0  0
   -0.2330    1.7260   -1.5650 C   0  0  0  0  0  0  0  0  0  0  0  0
    1.4340    0.0540   -1.5150 C   0  0  0  0  0  0  0  0  0  0  0  0
    2.3240   -1.0450   -1.3110 C   0  0  0  0  0  0  0  0  0  0  0  0
    3.2340   -1.2390   -2.2940 C   0  0  0  0  0  0  0  0  0  0  0  0
    4.2200   -2.2870   -2.2820 C   0  0  0  0  0  0  0  0  0  0  0  0
    5.2300   -2.6710   -3.1790 C   0  0  0  0  0  0  0  0  0  0  0  0
    5.8050   -3.6950   -2.6490 O   0  0  0  0  0  0  0  0  0  0  0  0
    5.2780   -4.0130   -1.5110 N   0  0  0  0  0  0  0  0  0  0  0  0
    4.2710   -3.1430   -1.2470 C   0  0  0  0  0  0  0  0  0  0  0  0
    3.3680   -3.0450   -0.1100 C   0  0  0  0  0  0  0  0  0  0  0  0
    2.3450   -1.9670   -0.1750 C   0  0  0  0  0  0  0  0  0  0  0  0
   -1.2840   -0.2510    2.4280 C   0  0  0  0  0  0  0  0  0  0  0  0
   -2.6410   -0.9090    2.2690 C   0  0  0  0  0  0  0  0  0  0  0  0
   -3.7990    0.0030    2.4790 C   0  0  0  0  0  0  0  0  0  0  0  0
   -4.0160    0.9750    1.4260 N   0  0  0  0  0  0  0  0  0  0  0  0
  1  2  1  0
  2  3  2  0
  2  4  1  0
  4  5  2  0
  4 23  1  0
  5  6  1  0
  6  7  2  3
  6 20  1  0
  7  8  1  0
  8  9  1  0
  8 10  2  3
 10 11  1  0
 11 12  2  0
 11 19  1  0
 12 13  1  0
 13 14  2  0
 13 17  1  0
 14 15  1  0
 15 16  1  0
 16 17  2  0
 17 18  1  0
 18 19  1  0
 20 21  1  0
 21 22  1  0
 22 23  1  0
M  END
