
     RDKit          3D

 23 26  0  0  0  0  0  0  0  0999 V2000
   -5.0090   -0.8370    1.2660 C   0  0  0  0  0  0  0  0  0  0  0  0
   -3.6860   -0.5380    0.6440 C   0  0  0  0  0  0  0  0  0  0  0  0
   -3.6480    0.2290   -0.4310 C   0  0  0  0  0  0  0  0  0  0  0  0
   -4.9710    0.7460   -0.9480 C   0  0  0  0  0  0  0  0  0  0  0  0
   -2.3890    0.5590   -1.0860 C   0  0  1  0  0  0  0  0  0  0  0  0
   -2.1610    2.0520   -1.2150 C   0  0  0  0  0  0  0  0  0  0  0  0
   -1.2110   -0.0290   -0.4480 C   0  0  0  0  0  0  0  0  0  0  0  0
    0.0580    0.2200   -0.9910 C   0  0  0  0  0  0  0  0  0  0  0  0
    1.1730   -0.3200   -0.4110 C   0  0  0  0  0  0  0  0  0  0  0  0
    1.1250   -1.1180    0.7100 C   0  0  0  0  0  0  0  0  0  0  0  0
   -0.1080   -1.3660    1.2460 C   0  0  0  0  0  0  0  0  0  0  0  0
   -1.2660   -0.8270    0.6730 C   0  0  0  0  0  0  0  0  0  0  0  0
   -2.5410   -1.1050    1.2580 N   0  0  0  0  0  0  0  0  0  0  0  0
    2.2220   -1.7580    1.4330 C   0  0  0  0  0  0  0  0  0  0  0  0
    1.8690   -2.6650    2.2250 O   0  0  0  0  0  0  0  0  0  0  0  0
    3.6050   -1.4550    1.3210 N   0  0  0  0  0  0  0  0  0  0  0  0
    4.2240   -0.5220    0.4450 C   0  0  0  0  0  0  0  0  0  0  0  0
    5.5530   -0.2710    0.7340 C   0  0  0  0  0  0  0  0  0  0  0  0
    6.3100    0.6080   -0.0120 C   0  0  0  0  0  0  0  0  0  0  0  0
    5.7630    1.2770   -1.0860 C   0  0  0  0  0  0  0  0  0  0  0  0
    4.4330    1.0260   -1.3760 C   0  0  0  0  0  0  0  0  0  0  0  0
    3.6600    0.1460   -0.6360 C   0  0  0  0  0  0  0  0  0  0  0  0
    2.3510    0.0360   -1.0900 O   0  0  0  0  0  0  0  0  0  0  0  0
  1  2  1  0
  2  3  2  0
  2 13  1  0
  3  4  1  0
  3  5  1  0
  5  6  1  1
  5  7  1  0
  7  8  2  0
  7 12  1  0
  8  9  1  0
  9 10  2  0
  9 23  1  0
 10 11  1  0
 10 14  1  0
 11 12  2  0
 12 13  1  0
 14 15  2  0
 14 16  1  0
 16 17  1  0
 17 18  2  0
 17 22  1  0
 18 19  1  0
 19 20  2  0
 20 21  1  0
 21 22  2  0
 22 23  1  0
M  END
