
     RDKit          3D

 23 26  0  0  0  0  0  0  0  0999 V2000
    6.4060   -0.7170   -0.8910 C   0  0  0  0  0  0  0  0  0  0  0  0
    5.3080   -0.1910    0.0390 C   0  0  0  0  0  0  0  0  0  0  0  0
    4.5770    0.8670   -0.7110 C   0  0  0  0  0  0  0  0  0  0  0  0
    3.4510    1.5280    0.0410 C   0  0  0  0  0  0  0  0  0  0  0  0
    2.4570    0.4890    0.4050 C   0  0  0  0  0  0  0  0  0  0  0  0
    1.2590    0.4050   -0.1810 C   0  0  0  0  0  0  0  0  0  0  0  0
    0.9250    1.3900   -1.2260 C   0  0  0  0  0  0  0  0  0  0  0  0
    1.7600    2.1170   -1.8110 O   0  0  0  0  0  0  0  0  0  0  0  0
   -0.4590    1.5260   -1.6090 N   0  0  0  0  0  0  0  0  0  0  0  0
   -1.4050    0.6850   -0.9700 C   0  0  0  0  0  0  0  0  0  0  0  0
   -2.7530    0.9750   -1.2610 C   0  0  0  0  0  0  0  0  0  0  0  0
   -3.7580    0.3140   -0.6010 C   0  0  0  0  0  0  0  0  0  0  0  0
   -3.4660   -0.6350    0.3480 C   0  0  0  0  0  0  0  0  0  0  0  0
   -2.1440   -0.9040    0.6140 C   0  0  0  0  0  0  0  0  0  0  0  0
   -1.0850   -0.2570   -0.0360 C   0  0  0  0  0  0  0  0  0  0  0  0
    0.3080   -0.6700    0.1680 C   0  0  2  0  0  0  0  0  0  0  0  0
    0.6030   -1.3740    1.4060 C   0  0  0  0  0  0  0  0  0  0  0  0
    1.9600   -1.2090    1.9550 C   0  0  0  0  0  0  0  0  0  0  0  0
    2.7610   -0.3750    1.4980 N   0  0  0  0  0  0  0  0  0  0  0  0
   -4.6720   -1.1540    0.8710 O   0  0  0  0  0  0  0  0  0  0  0  0
   -5.6320   -0.1300    0.6920 C   0  0  2  0  0  0  0  0  0  0  0  0
   -7.0420   -0.6770    0.6970 C   0  0  0  0  0  0  0  0  0  0  0  0
   -5.2400    0.3890   -0.6750 C   0  0  0  0  0  0  0  0  0  0  0  0
  1  2  1  0
  2  3  1  0
  3  4  1  0
  4  5  1  0
  5  6  2  0
  5 19  1  0
  6  7  1  0
  6 16  1  0
  7  8  2  0
  7  9  1  0
  9 10  1  0
 10 11  2  0
 10 15  1  0
 11 12  1  0
 12 13  2  0
 12 23  1  0
 13 14  1  0
 13 20  1  0
 14 15  2  0
 15 16  1  0
 16 17  1  1
 17 18  1  0
 18 19  2  0
 20 21  1  0
 21 22  1  6
 21 23  1  0
M  END
