
     RDKit          3D

 23 25  0  0  0  0  0  0  0  0999 V2000
   -4.5700    2.8770   -0.8850 C   0  0  0  0  0  0  0  0  0  0  0  0
   -3.7020    1.7300   -0.5130 C   0  0  0  0  0  0  0  0  0  0  0  0
   -2.3440    1.8070   -0.7290 C   0  0  0  0  0  0  0  0  0  0  0  0
   -1.5070    0.7620   -0.3970 C   0  0  0  0  0  0  0  0  0  0  0  0
   -2.0390   -0.3720    0.1580 C   0  0  0  0  0  0  0  0  0  0  0  0
   -3.3880   -0.4900    0.3900 C   0  0  0  0  0  0  0  0  0  0  0  0
   -3.9320   -1.7100    0.9810 C   0  0  0  0  0  0  0  0  0  0  0  0
   -4.2120    0.5560    0.0550 C   0  0  0  0  0  0  0  0  0  0  0  0
   -5.6650    0.5260    0.2650 C   0  0  0  0  0  0  0  0  0  0  0  0
   -1.1220   -1.4900    0.5130 C   0  0  0  0  0  0  0  0  0  0  0  0
    0.2850   -0.9970    0.7150 C   0  0  0  0  0  0  0  0  0  0  0  0
    0.7360   -0.2870   -0.5240 C   0  0  2  0  0  0  0  0  0  0  0  0
    2.1860    0.1050   -0.3700 C   0  0  0  0  0  0  0  0  0  0  0  0
    2.4920    1.3110   -0.4310 O   0  0  0  0  0  0  0  0  0  0  0  0
    3.1670   -0.8740   -0.1640 N   0  0  0  0  0  0  0  0  0  0  0  0
    4.5430   -0.6680   -0.0050 C   0  0  0  0  0  0  0  0  0  0  0  0
    5.1860    0.5350   -0.0210 C   0  0  0  0  0  0  0  0  0  0  0  0
    6.5700    0.6530    0.1460 C   0  0  0  0  0  0  0  0  0  0  0  0
    7.3150   -0.4880    0.3360 C   0  0  0  0  0  0  0  0  0  0  0  0
    6.6900   -1.6870    0.3550 N   0  0  0  0  0  0  0  0  0  0  0  0
    5.3640   -1.7910    0.1930 C   0  0  0  0  0  0  0  0  0  0  0  0
    4.8490   -2.9330    0.2210 O   0  0  0  0  0  0  0  0  0  0  0  0
   -0.0630    0.9600   -0.6770 C   0  0  0  0  0  0  0  0  0  0  0  0
  1  2  1  0
  2  3  2  0
  2  8  1  0
  3  4  1  0
  4  5  2  0
  4 23  1  0
  5  6  1  0
  5 10  1  0
  6  7  1  0
  6  8  2  0
  8  9  1  0
 10 11  1  0
 11 12  1  0
 12 13  1  1
 12 23  1  0
 13 14  2  0
 13 15  1  0
 15 16  1  0
 16 17  2  0
 16 21  1  0
 17 18  1  0
 18 19  2  0
 19 20  1  0
 20 21  1  0
 21 22  2  0
M  END
