
     RDKit          3D

 23 26  0  0  0  0  0  0  0  0999 V2000
    0.8140   -1.8930   -1.5660 C   0  0  0  0  0  0  0  0  0  0  0  0
    0.9720   -0.7800   -0.5730 C   0  0  0  0  0  0  0  0  0  0  0  0
   -0.1240   -0.2430    0.0590 C   0  0  0  0  0  0  0  0  0  0  0  0
   -1.5020   -0.7650   -0.2560 C   0  0  1  0  0  0  0  0  0  0  0  0
   -1.8830   -1.6290    0.8130 N   0  0  0  0  0  0  0  0  0  0  0  0
   -3.2300   -1.6610    1.2790 C   0  0  0  0  0  0  0  0  0  0  0  0
   -3.5150   -2.1810    2.3730 O   0  0  0  0  0  0  0  0  0  0  0  0
   -4.2850   -1.0580    0.4300 C   0  0  0  0  0  0  0  0  0  0  0  0
   -3.7610    0.2390   -0.0970 C   0  0  0  0  0  0  0  0  0  0  0  0
   -2.4500    0.3870   -0.4260 C   0  0  0  0  0  0  0  0  0  0  0  0
   -1.9860    1.5860   -0.9110 C   0  0  0  0  0  0  0  0  0  0  0  0
   -2.8890    2.6180   -1.0480 C   0  0  0  0  0  0  0  0  0  0  0  0
   -4.1880    2.4550   -0.7170 N   0  0  0  0  0  0  0  0  0  0  0  0
   -4.6420    1.2850   -0.2440 C   0  0  0  0  0  0  0  0  0  0  0  0
   -5.9950    1.1120    0.1030 O   0  0  0  0  0  0  0  0  0  0  0  0
    0.0550    0.7700    0.9700 C   0  0  0  0  0  0  0  0  0  0  0  0
    1.3210    1.2380    1.2400 C   0  0  0  0  0  0  0  0  0  0  0  0
    2.4560    0.7130    0.6130 C   0  0  0  0  0  0  0  0  0  0  0  0
    2.2600   -0.3030   -0.2980 C   0  0  0  0  0  0  0  0  0  0  0  0
    3.3780   -0.9620   -1.0440 C   0  0  0  0  0  0  0  0  0  0  0  0
    4.5900   -0.0710   -0.9110 C   0  0  0  0  0  0  0  0  0  0  0  0
    4.8030    0.1660    0.5750 C   0  0  0  0  0  0  0  0  0  0  0  0
    3.8060    1.2630    0.9520 C   0  0  0  0  0  0  0  0  0  0  0  0
  1  2  1  0
  2  3  2  0
  2 19  1  0
  4  3  1  1
  3 16  1  0
  4  5  1  0
  4 10  1  0
  5  6  1  0
  6  7  2  0
  6  8  1  0
  8  9  1  0
  9 10  2  0
  9 14  1  0
 10 11  1  0
 11 12  2  0
 12 13  1  0
 13 14  2  0
 14 15  1  0
 16 17  2  0
 17 18  1  0
 18 19  2  0
 18 23  1  0
 19 20  1  0
 20 21  1  0
 21 22  1  0
 22 23  1  0
M  END
