
     RDKit          3D

 23 25  0  0  0  0  0  0  0  0999 V2000
   -2.3630   -4.3510   -0.1510 C   0  0  0  0  0  0  0  0  0  0  0  0
   -2.9080   -2.9450   -0.0970 C   0  0  0  0  0  0  0  0  0  0  0  0
   -4.1240   -2.8040   -0.0710 O   0  0  0  0  0  0  0  0  0  0  0  0
   -2.0420   -1.8500   -0.0780 N   0  0  0  0  0  0  0  0  0  0  0  0
   -2.3740   -0.4790   -0.0290 C   0  0  0  0  0  0  0  0  0  0  0  0
   -3.6730   -0.0650    0.0070 C   0  0  0  0  0  0  0  0  0  0  0  0
   -3.9920    1.3030    0.0560 C   0  0  0  0  0  0  0  0  0  0  0  0
   -5.4170    1.7420    0.0950 C   0  0  0  0  0  0  0  0  0  0  0  0
   -2.9540    2.1890    0.0660 C   0  0  0  0  0  0  0  0  0  0  0  0
   -3.2730    3.6440    0.1170 C   0  0  0  0  0  0  0  0  0  0  0  0
   -1.6380    1.8060    0.0300 C   0  0  0  0  0  0  0  0  0  0  0  0
   -1.3170    0.4700   -0.0180 C   0  0  0  0  0  0  0  0  0  0  0  0
   -0.1030    0.0320   -0.0530 O   0  0  0  0  0  0  0  0  0  0  0  0
    1.1920    0.0920   -0.0740 C   0  0  0  0  0  0  0  0  0  0  0  0
    1.9210    1.2640   -0.0500 C   0  0  0  0  0  0  0  0  0  0  0  0
    3.3000    1.2430   -0.0750 C   0  0  0  0  0  0  0  0  0  0  0  0
    4.0510    2.5240   -0.0480 C   0  0  0  0  0  0  0  0  0  0  0  0
    3.9710    0.0080   -0.1260 C   0  0  0  0  0  0  0  0  0  0  0  0
    3.2820   -1.1690   -0.1510 C   0  0  0  0  0  0  0  0  0  0  0  0
    1.9070   -1.1320   -0.1260 C   0  0  0  0  0  0  0  0  0  0  0  0
    4.2630   -2.3010   -0.2070 C   0  0  0  0  0  0  0  0  0  0  0  0
    5.5380   -1.6570    0.2330 C   0  0  0  0  0  0  0  0  0  0  0  0
    5.3570   -0.2490   -0.1570 N   0  0  0  0  0  0  0  0  0  0  0  0
  1  2  1  0
  2  3  2  0
  2  4  1  0
  4  5  1  0
  5  6  2  0
  5 12  1  0
  6  7  1  0
  7  8  1  0
  7  9  2  0
  9 10  1  0
  9 11  1  0
 11 12  2  0
 12 13  1  0
 13 14  1  0
 14 15  2  0
 14 20  1  0
 15 16  1  0
 16 17  1  0
 16 18  2  0
 18 19  1  0
 18 23  1  0
 19 20  2  0
 19 21  1  0
 21 22  1  0
 22 23  1  0
M  END
