
     RDKit          3D

 23 26  0  0  0  0  0  0  0  0999 V2000
    6.0370    1.5600    0.3150 C   0  0  0  0  0  0  0  0  0  0  0  0
    5.6330    0.6710   -0.7300 C   0  0  0  0  0  0  0  0  0  0  0  0
    4.5510    0.0850   -1.0780 C   0  0  0  0  0  0  0  0  0  0  0  0
    4.6100   -0.7900   -2.2970 C   0  0  0  0  0  0  0  0  0  0  0  0
    5.6480   -0.9610   -2.9630 O   0  0  0  0  0  0  0  0  0  0  0  0
    3.4060   -1.4640   -2.7140 C   0  0  0  0  0  0  0  0  0  0  0  0
    2.2680   -1.3340   -2.0610 C   0  0  0  0  0  0  0  0  0  0  0  0
    2.1650   -0.4960   -0.8750 C   0  0  0  0  0  0  0  0  0  0  0  0
    3.2740    0.1990   -0.3900 C   0  0  0  0  0  0  0  0  0  0  0  0
    3.1130    0.9750    0.7360 C   0  0  0  0  0  0  0  0  0  0  0  0
    1.8730    1.0660    1.3770 C   0  0  0  0  0  0  0  0  0  0  0  0
    0.8010    0.3700    0.8760 C   0  0  0  0  0  0  0  0  0  0  0  0
   -0.5350    0.2350    1.2490 C   0  0  0  0  0  0  0  0  0  0  0  0
   -1.1840   -0.6060    0.3720 C   0  0  0  0  0  0  0  0  0  0  0  0
   -2.5960   -0.9990    0.4250 C   0  0  0  0  0  0  0  0  0  0  0  0
   -3.0750   -1.7780   -0.4380 O   0  0  0  0  0  0  0  0  0  0  0  0
   -3.4680   -0.5260    1.4350 N   0  0  0  0  0  0  0  0  0  0  0  0
   -4.8560   -0.8790    1.5320 C   0  0  0  0  0  0  0  0  0  0  0  0
   -5.6330   -0.4610    0.2870 C   0  0  2  0  0  0  0  0  0  0  0  0
   -5.6270    1.0300   -0.0250 C   0  0  0  0  0  0  0  0  0  0  0  0
   -6.8700    0.3730    0.5130 C   0  0  0  0  0  0  0  0  0  0  0  0
   -0.2670   -0.9870   -0.5300 N   0  0  0  0  0  0  0  0  0  0  0  0
    0.9310   -0.4140   -0.2490 C   0  0  0  0  0  0  0  0  0  0  0  0
  1  2  1  0
  2  3  2  3
  3  4  1  0
  3  9  1  0
  4  5  2  0
  4  6  1  0
  6  7  2  0
  7  8  1  0
  8  9  2  0
  8 23  1  0
  9 10  1  0
 10 11  2  0
 11 12  1  0
 12 13  1  0
 12 23  2  0
 13 14  2  0
 14 15  1  0
 14 22  1  0
 15 16  2  0
 15 17  1  0
 17 18  1  0
 19 18  1  1
 19 20  1  0
 19 21  1  0
 20 21  1  0
 22 23  1  0
M  END
