
     RDKit          3D

 22 25  0  0  0  0  0  0  0  0999 V2000
   -4.3670    2.3340    0.1630 C   0  0  0  0  0  0  0  0  0  0  0  0
   -3.9360    1.0210    0.7400 C   0  0  2  0  0  0  0  0  0  0  0  0
   -2.4740    0.7590    0.5240 C   0  0  0  0  0  0  0  0  0  0  0  0
   -2.0390   -0.4540    0.7330 C   0  0  0  0  0  0  0  0  0  0  0  0
   -0.6630   -0.8750    0.5710 C   0  0  0  0  0  0  0  0  0  0  0  0
    0.3470   -0.0180    0.1670 C   0  0  0  0  0  0  0  0  0  0  0  0
    1.6410   -0.4650    0.0300 C   0  0  0  0  0  0  0  0  0  0  0  0
    1.9600   -1.8020    0.2980 C   0  0  0  0  0  0  0  0  0  0  0  0
    0.9650   -2.6160    0.6880 N   0  0  0  0  0  0  0  0  0  0  0  0
   -0.2940   -2.1830    0.8220 C   0  0  0  0  0  0  0  0  0  0  0  0
   -1.2020   -2.9850    1.1930 O   0  0  0  0  0  0  0  0  0  0  0  0
    3.2760   -2.2890    0.1660 N   0  0  0  0  0  0  0  0  0  0  0  0
    4.3820   -1.5000   -0.2400 C   0  0  0  0  0  0  0  0  0  0  0  0
    4.0180   -0.0900   -0.5170 C   0  0  0  0  0  0  0  0  0  0  0  0
    5.0220    0.8040   -0.9290 C   0  0  0  0  0  0  0  0  0  0  0  0
    4.7390    2.1180   -1.1980 C   0  0  0  0  0  0  0  0  0  0  0  0
    3.4510    2.5980   -1.0700 C   0  0  0  0  0  0  0  0  0  0  0  0
    2.4450    1.7390   -0.6660 C   0  0  0  0  0  0  0  0  0  0  0  0
    2.7390    0.4070   -0.3950 C   0  0  0  0  0  0  0  0  0  0  0  0
   -2.9950   -1.3920    1.1420 O   0  0  0  0  0  0  0  0  0  0  0  0
   -4.3510   -1.3680    0.7510 C   0  0  0  0  0  0  0  0  0  0  0  0
   -4.6750   -0.1000    0.0390 C   0  0  0  0  0  0  0  0  0  0  0  0
  2  1  1  6
  2  3  1  0
  2 22  1  0
  3  4  2  0
  4  5  1  0
  4 20  1  0
  5  6  2  0
  5 10  1  0
  6  7  1  0
  7  8  2  0
  7 19  1  0
  8  9  1  0
  8 12  1  0
  9 10  1  0
 10 11  2  0
 12 13  1  0
 13 14  1  0
 14 15  2  0
 14 19  1  0
 15 16  1  0
 16 17  2  0
 17 18  1  0
 18 19  2  0
 20 21  1  0
 21 22  1  0
M  END
