
     RDKit          3D

 22 24  0  0  0  0  0  0  0  0999 V2000
    7.3250   -0.7100   -1.6900 N   0  0  0  0  0  0  0  0  0  0  0  0
    6.5740   -0.3200   -0.5590 C   0  0  2  0  0  0  0  0  0  0  0  0
    4.7850   -0.6730   -1.0210 S   0  0  0  0  0  0  0  0  0  0  0  0
    4.1510    0.5940    0.0420 C   0  0  0  0  0  0  0  0  0  0  0  0
    3.0390    0.9530    0.8190 N   0  0  0  0  0  0  0  0  0  0  0  0
    1.8240    0.3680    0.6010 C   0  0  0  0  0  0  0  0  0  0  0  0
    1.8190   -0.4470   -0.3400 O   0  0  0  0  0  0  0  0  0  0  0  0
    0.6280    0.6920    1.4060 C   0  0  0  0  0  0  0  0  0  0  0  0
   -0.4470   -0.0690    0.7980 N   0  0  0  0  0  0  0  0  0  0  0  0
   -1.7450    0.0240    1.3000 C   0  0  0  0  0  0  0  0  0  0  0  0
   -1.9640    0.7630    2.2730 O   0  0  0  0  0  0  0  0  0  0  0  0
   -2.8120   -0.7860    0.6190 C   0  0  0  0  0  0  0  0  0  0  0  0
   -2.5300   -2.1340    0.4330 C   0  0  0  0  0  0  0  0  0  0  0  0
   -3.9970   -2.7170   -0.4070 S   0  0  0  0  0  0  0  0  0  0  0  0
   -4.8500   -1.1460   -0.4420 C   0  0  0  0  0  0  0  0  0  0  0  0
   -3.9950   -0.3230    0.1630 C   0  0  0  0  0  0  0  0  0  0  0  0
   -4.6970    1.0280    0.1770 C   0  0  0  0  0  0  0  0  0  0  0  0
   -5.5510    0.9580   -1.0600 C   0  0  0  0  0  0  0  0  0  0  0  0
   -6.0980   -0.4730   -0.8900 C   0  0  0  0  0  0  0  0  0  0  0  0
    5.0620    1.4110    0.1550 N   0  0  0  0  0  0  0  0  0  0  0  0
    6.2280    1.1550   -0.5410 C   0  0  0  0  0  0  0  0  0  0  0  0
    6.9440    1.9870   -1.1110 O   0  0  0  0  0  0  0  0  0  0  0  0
  2  1  1  6
  2  3  1  0
  2 21  1  0
  3  4  1  0
  4  5  1  0
  4 20  2  0
  5  6  1  0
  6  7  2  0
  6  8  1  0
  8  9  1  0
  9 10  1  0
 10 11  2  0
 10 12  1  0
 12 13  2  0
 12 16  1  0
 13 14  1  0
 14 15  1  0
 15 16  2  0
 15 19  1  0
 16 17  1  0
 17 18  1  0
 18 19  1  0
 20 21  1  0
 21 22  2  0
M  END
