
     RDKit          3D

 22 24  0  0  0  0  0  0  0  0999 V2000
    1.9180    3.2750    0.8650 C   0  0  0  0  0  0  0  0  0  0  0  0
    0.8190    3.3010   -0.5690 S   0  0  0  0  0  0  0  0  0  0  0  0
   -0.4730    2.1100   -0.3650 C   0  0  0  0  0  0  0  0  0  0  0  0
   -0.1790    0.8380   -0.1920 C   0  0  0  0  0  0  0  0  0  0  0  0
    1.0560    0.0160   -0.1220 C   0  0  0  0  0  0  0  0  0  0  0  0
    2.6890    0.6340   -0.3290 S   0  0  0  0  0  0  0  0  0  0  0  0
    4.0160   -0.4000    0.1010 C   0  0  0  0  0  0  0  0  0  0  0  0
    5.2370    0.0400   -0.1790 N   0  0  0  0  0  0  0  0  0  0  0  0
    3.9770   -1.6740    0.7200 N   0  0  0  0  0  0  0  0  0  0  0  0
    0.6840   -1.2750    0.0330 C   0  0  0  0  0  0  0  0  0  0  0  0
    1.4690   -2.4400    0.1640 N   0  0  0  0  0  0  0  0  0  0  0  0
   -0.7840   -1.4000   -0.1340 C   0  0  0  0  0  0  0  0  0  0  0  0
   -1.9280   -2.0550   -0.2510 C   0  0  0  0  0  0  0  0  0  0  0  0
   -3.0370   -1.0550   -0.4460 C   0  0  0  0  0  0  0  0  0  0  0  0
   -4.4440   -1.3300   -0.6320 C   0  0  0  0  0  0  0  0  0  0  0  0
   -5.2950   -0.4360   -0.7860 O   0  0  0  0  0  0  0  0  0  0  0  0
   -4.8970   -2.6460   -0.6430 O   0  0  0  0  0  0  0  0  0  0  0  0
   -2.5330    0.1570   -0.4290 C   0  0  0  0  0  0  0  0  0  0  0  0
   -2.8940    1.5650   -0.5770 C   0  0  0  0  0  0  0  0  0  0  0  0
   -4.0970    1.8160   -0.7130 O   0  0  0  0  0  0  0  0  0  0  0  0
   -1.8590    2.5380   -0.5550 N   0  0  0  0  0  0  0  0  0  0  0  0
   -1.2450   -0.0580    0.2310 C   0  0  2  0  0  0  0  0  0  0  0  0
  1  2  1  0
  2  3  1  0
  3  4  2  0
  3 21  1  0
  4  5  1  0
 22  4  1  6
  5  6  1  0
  5 10  2  0
  6  7  1  0
  7  8  2  0
  7  9  1  0
 10 11  1  0
 10 12  1  0
 12 13  2  0
 12 22  1  0
 13 14  1  0
 14 15  1  0
 14 18  2  0
 15 16  2  0
 15 17  1  0
 18 19  1  0
 18 22  1  0
 19 20  2  0
 19 21  1  0
M  END
