
     RDKit          3D

 22 24  0  0  0  0  0  0  0  0999 V2000
   -2.1090   -0.1090   -2.9200 C   0  0  0  0  0  0  0  0  0  0  0  0
   -1.8650   -0.6110   -1.5190 C   0  0  1  0  0  0  0  0  0  0  0  0
   -0.4920   -0.2320   -1.0760 N   0  0  0  0  0  0  0  0  0  0  0  0
    0.5210   -1.1480   -0.8810 C   0  0  0  0  0  0  0  0  0  0  0  0
    0.1310   -2.3640   -1.1330 O   0  0  0  0  0  0  0  0  0  0  0  0
    1.9250   -0.9530   -0.4480 C   0  0  0  0  0  0  0  0  0  0  0  0
    2.7170   -2.1650   -0.3800 C   0  0  0  0  0  0  0  0  0  0  0  0
    2.3490   -3.4800   -0.6680 N   0  0  0  0  0  0  0  0  0  0  0  0
    4.2560   -1.6160    0.1460 S   0  0  0  0  0  0  0  0  0  0  0  0
    3.8880    0.0970    0.2710 C   0  0  0  0  0  0  0  0  0  0  0  0
    4.6750    1.1810    0.6520 C   0  0  0  0  0  0  0  0  0  0  0  0
    5.8710    1.0180    0.9800 O   0  0  0  0  0  0  0  0  0  0  0  0
    4.1500    2.4160    0.6690 N   0  0  0  0  0  0  0  0  0  0  0  0
    2.8640    2.5060    0.3040 C   0  0  0  0  0  0  0  0  0  0  0  0
    2.3190    3.6670    0.3060 O   0  0  0  0  0  0  0  0  0  0  0  0
    2.1020    1.4650   -0.0640 N   0  0  0  0  0  0  0  0  0  0  0  0
    2.5690    0.1660   -0.1070 C   0  0  0  0  0  0  0  0  0  0  0  0
   -2.8650   -0.2680   -0.5890 N   0  0  0  0  0  0  0  0  0  0  0  0
   -3.0960    1.0910   -0.3140 C   0  0  0  0  0  0  0  0  0  0  0  0
   -2.9680    1.2710    1.1830 C   0  0  0  0  0  0  0  0  0  0  0  0
   -2.3720   -0.0530    1.6510 C   0  0  0  0  0  0  0  0  0  0  0  0
   -2.9200   -1.0080    0.6140 C   0  0  0  0  0  0  0  0  0  0  0  0
  2  1  1  6
  2  3  1  0
  2 18  1  0
  3  4  1  0
  4  5  2  0
  4  6  1  0
  6  7  2  0
  6 17  1  0
  7  8  1  0
  7  9  1  0
  9 10  1  0
 10 11  1  0
 10 17  2  0
 11 12  2  0
 11 13  1  0
 13 14  1  0
 14 15  2  0
 14 16  1  0
 16 17  1  0
 18 19  1  0
 18 22  1  0
 19 20  1  0
 20 21  1  0
 21 22  1  0
M  END
