
     RDKit          3D

 22 24  0  0  0  0  0  0  0  0999 V2000
    7.3880   -0.4850    0.5240 N   0  0  0  0  0  0  0  0  0  0  0  0
    6.1520   -0.8510   -0.0680 C   0  0  0  0  0  0  0  0  0  0  0  0
    6.1210   -1.8900   -1.3190 S   0  0  0  0  0  0  0  0  0  0  0  0
    4.9090   -0.2620    0.4890 C   0  0  0  0  0  0  0  0  0  0  0  0
    4.9730    0.5350    1.4550 O   0  0  0  0  0  0  0  0  0  0  0  0
    3.6720   -0.5960   -0.0630 N   0  0  0  0  0  0  0  0  0  0  0  0
    2.4320   -0.0250    0.4720 C   0  0  0  0  0  0  0  0  0  0  0  0
    1.2980   -0.0430    0.3120 N   0  0  0  0  0  0  0  0  0  0  0  0
    0.3270    0.5820    0.9450 C   0  0  0  0  0  0  0  0  0  0  0  0
   -1.1290    0.4550    0.6150 C   0  0  0  0  0  0  0  0  0  0  0  0
   -2.0710    1.1500    1.3360 C   0  0  0  0  0  0  0  0  0  0  0  0
   -3.4280    1.0400    1.0390 C   0  0  0  0  0  0  0  0  0  0  0  0
   -3.7980    0.2030   -0.0120 C   0  0  0  0  0  0  0  0  0  0  0  0
   -2.8640   -0.4970   -0.7410 C   0  0  0  0  0  0  0  0  0  0  0  0
   -1.5370   -0.3510   -0.4030 C   0  0  0  0  0  0  0  0  0  0  0  0
   -3.3310   -1.3260   -1.7940 N   0  0  0  0  0  0  0  0  0  0  0  0
   -4.7260   -1.4070   -2.0620 C   0  0  0  0  0  0  0  0  0  0  0  0
   -5.2100   -2.4060   -2.6640 O   0  0  0  0  0  0  0  0  0  0  0  0
   -5.5780   -0.2790   -1.6080 C   0  0  0  0  0  0  0  0  0  0  0  0
   -5.1560    0.1070   -0.2930 O   0  0  0  0  0  0  0  0  0  0  0  0
    0.7460    1.3820    1.9580 C   0  0  0  0  0  0  0  0  0  0  0  0
    2.5760    1.1690    1.9240 S   0  0  0  0  0  0  0  0  0  0  0  0
  1  2  1  0
  2  3  2  0
  2  4  1  0
  4  5  2  0
  4  6  1  0
  6  7  1  0
  7  8  2  0
  7 22  1  0
  8  9  1  0
  9 10  1  0
  9 21  2  0
 10 11  2  0
 10 15  1  0
 11 12  1  0
 12 13  2  0
 13 14  1  0
 13 20  1  0
 14 15  2  0
 14 16  1  0
 16 17  1  0
 17 18  2  0
 17 19  1  0
 19 20  1  0
 21 22  1  0
M  END
