
     RDKit          3D

 22 24  0  0  0  0  0  0  0  0999 V2000
   -2.1260   -0.4370   -2.0770 O   0  0  0  0  0  0  0  0  0  0  0  0
   -2.9390   -0.3930   -1.1460 C   0  0  0  0  0  0  0  0  0  0  0  0
   -3.8910   -1.4200   -0.9700 N   0  0  0  0  0  0  0  0  0  0  0  0
   -4.7800   -1.3930    0.1630 C   0  0  0  0  0  0  0  0  0  0  0  0
   -5.0890   -0.0560    0.7220 C   0  0  0  0  0  0  0  0  0  0  0  0
   -4.4620    1.0730   -0.0640 C   0  0  0  0  0  0  0  0  0  0  0  0
   -2.9730    0.7160   -0.1720 C   0  0  2  0  0  0  0  0  0  0  0  0
   -1.9330    2.1050   -0.5580 S   0  0  0  0  0  0  0  0  0  0  0  0
   -0.2240    1.5920   -0.4120 C   0  0  0  0  0  0  0  0  0  0  0  0
    0.7890    2.4250   -0.7000 N   0  0  0  0  0  0  0  0  0  0  0  0
    2.0310    2.0140   -0.5870 N   0  0  0  0  0  0  0  0  0  0  0  0
    2.3820    0.7770   -0.1900 C   0  0  0  0  0  0  0  0  0  0  0  0
    3.7620    0.3220   -0.0650 C   0  0  0  0  0  0  0  0  0  0  0  0
    4.1050   -0.9360   -0.5720 C   0  0  0  0  0  0  0  0  0  0  0  0
    5.3860   -1.4320   -0.4880 C   0  0  0  0  0  0  0  0  0  0  0  0
    6.3490   -0.6970    0.0950 N   0  0  0  0  0  0  0  0  0  0  0  0
    6.0260    0.5160    0.5860 C   0  0  0  0  0  0  0  0  0  0  0  0
    6.9330    1.2130    1.1380 O   0  0  0  0  0  0  0  0  0  0  0  0
    4.7650    1.0480    0.5250 C   0  0  0  0  0  0  0  0  0  0  0  0
    1.3150   -0.0650    0.1020 C   0  0  0  0  0  0  0  0  0  0  0  0
    1.5530   -1.2450    0.4820 O   0  0  0  0  0  0  0  0  0  0  0  0
    0.0450    0.3510   -0.0120 N   0  0  0  0  0  0  0  0  0  0  0  0
  1  2  2  0
  2  3  1  0
  2  7  1  0
  3  4  1  0
  4  5  1  0
  5  6  1  0
  6  7  1  0
  7  8  1  6
  8  9  1  0
  9 10  2  0
  9 22  1  0
 10 11  1  0
 11 12  2  0
 12 13  1  0
 12 20  1  0
 13 14  1  0
 13 19  2  0
 14 15  2  0
 15 16  1  0
 16 17  1  0
 17 18  2  0
 17 19  1  0
 20 21  2  0
 20 22  1  0
M  END
