
     RDKit          3D

 22 24  0  0  0  0  0  0  0  0999 V2000
    8.7000    0.7950   -0.3350 N   0  0  0  0  0  0  0  0  0  0  0  0
    8.1450   -0.4950   -0.2640 C   0  0  0  0  0  0  0  0  0  0  0  0
    8.8890   -1.4840   -0.1110 O   0  0  0  0  0  0  0  0  0  0  0  0
    6.6880   -0.6960   -0.3680 C   0  0  0  0  0  0  0  0  0  0  0  0
    6.0010   -0.4480    1.2940 S   0  0  0  0  0  0  0  0  0  0  0  0
    4.1970   -0.7620    1.2150 C   0  0  0  0  0  0  0  0  0  0  0  0
    3.5000   -1.9250    1.4090 N   0  0  0  0  0  0  0  0  0  0  0  0
    2.2670   -1.8820    1.2920 N   0  0  0  0  0  0  0  0  0  0  0  0
    1.5630   -0.8470    1.0040 C   0  0  0  0  0  0  0  0  0  0  0  0
    0.1940   -0.5830    0.8380 N   0  0  0  0  0  0  0  0  0  0  0  0
   -0.3160    0.6860    0.4780 C   0  0  0  0  0  0  0  0  0  0  0  0
    0.4850    1.6080    0.2860 O   0  0  0  0  0  0  0  0  0  0  0  0
   -1.7770    0.9390    0.3260 C   0  0  2  0  0  0  0  0  0  0  0  0
   -2.4570    0.7850    1.6720 C   0  0  0  0  0  0  0  0  0  0  0  0
   -3.9360    0.7820    1.4740 C   0  0  0  0  0  0  0  0  0  0  0  0
   -4.2750    1.2180    0.1800 O   0  0  0  0  0  0  0  0  0  0  0  0
   -3.8640    0.2630   -0.7510 C   0  0  1  0  0  0  0  0  0  0  0  0
   -4.7940   -0.9290   -0.8300 C   0  0  0  0  0  0  0  0  0  0  0  0
   -5.6570   -0.0730   -1.7670 C   0  0  0  0  0  0  0  0  0  0  0  0
   -4.3510    0.6500   -2.1250 C   0  0  0  0  0  0  0  0  0  0  0  0
   -2.4000   -0.0510   -0.6270 C   0  0  0  0  0  0  0  0  0  0  0  0
    2.8810    0.3780    0.8510 S   0  0  0  0  0  0  0  0  0  0  0  0
  1  2  1  0
  2  3  2  0
  2  4  1  0
  4  5  1  0
  5  6  1  0
  6  7  2  0
  6 22  1  0
  7  8  1  0
  8  9  2  0
  9 10  1  0
  9 22  1  0
 10 11  1  0
 11 12  2  0
 13 11  1  1
 13 14  1  0
 13 21  1  0
 14 15  1  0
 15 16  1  0
 16 17  1  0
 17 18  1  1
 17 20  1  0
 17 21  1  0
 18 19  1  0
 19 20  1  0
M  END
