
     RDKit          3D

 22 24  0  0  0  0  0  0  0  0999 V2000
   -1.5920    1.4390   -2.0810 C   0  0  0  0  0  0  0  0  0  0  0  0
   -1.9160    1.1400   -0.6090 C   0  0  2  0  0  0  0  0  0  0  0  0
   -0.7460    0.6540   -0.0030 N   0  0  0  0  0  0  0  0  0  0  0  0
   -0.1430   -0.6730    0.1360 S   0  0  0  0  0  0  0  0  0  0  0  0
   -0.6840   -0.9720   -1.4520 O   0  0  0  0  0  0  0  0  0  0  0  0
    1.4850   -0.2220    0.3180 C   0  0  0  0  0  0  0  0  0  0  0  0
    2.7180   -0.6630   -0.0970 C   0  0  0  0  0  0  0  0  0  0  0  0
    3.8360   -0.0270    0.2740 C   0  0  0  0  0  0  0  0  0  0  0  0
    5.1220   -0.3970   -0.0900 N   0  0  0  0  0  0  0  0  0  0  0  0
    6.1620    0.3120    0.3400 C   0  0  0  0  0  0  0  0  0  0  0  0
    7.3380   -0.0430   -0.0040 O   0  0  0  0  0  0  0  0  0  0  0  0
    6.1100    1.3970    1.1250 N   0  0  0  0  0  0  0  0  0  0  0  0
    4.8860    1.7880    1.5000 C   0  0  0  0  0  0  0  0  0  0  0  0
    4.6420    2.7700    2.2240 O   0  0  0  0  0  0  0  0  0  0  0  0
    3.7700    1.0580    1.0600 C   0  0  0  0  0  0  0  0  0  0  0  0
    2.0780    1.2370    1.3200 S   0  0  0  0  0  0  0  0  0  0  0  0
   -1.0160   -1.1560    1.4650 C   0  0  0  0  0  0  0  0  0  0  0  0
   -2.1090   -2.1130    1.1340 C   0  0  0  0  0  0  0  0  0  0  0  0
   -3.4740   -1.5580    1.0380 C   0  0  0  0  0  0  0  0  0  0  0  0
   -3.6030   -0.1030    0.7670 C   0  0  0  0  0  0  0  0  0  0  0  0
   -3.1110    0.2250   -0.6210 C   0  0  1  0  0  0  0  0  0  0  0  0
   -4.1440    0.9540   -1.3810 N   0  0  0  0  0  0  0  0  0  0  0  0
  2  1  1  6
  2  3  1  0
  2 21  1  0
  3  4  1  0
  4  5  2  0
  4  6  1  0
  4 17  1  0
  6  7  2  0
  6 16  1  0
  7  8  1  0
  8  9  1  0
  8 15  2  0
  9 10  1  0
 10 11  2  0
 10 12  1  0
 12 13  1  0
 13 14  2  0
 13 15  1  0
 15 16  1  0
 17 18  1  0
 18 19  1  0
 19 20  1  0
 20 21  1  0
 21 22  1  6
M  END
