
     RDKit          3D

 10  9  0  0  0  0  0  0  0  0999 V2000
    2.8480    0.3880    0.1520 F   0  0  0  0  0  0  0  0  0  0  0  0
    1.6870   -0.1190   -0.4060 C   0  0  2  0  0  0  0  0  0  0  0  0
    1.8660   -0.2240   -1.7570 F   0  0  0  0  0  0  0  0  0  0  0  0
    0.6080    0.7560   -0.1680 O   0  0  0  0  0  0  0  0  0  0  0  0
   -0.3200    0.0820    0.6020 C   0  0  1  0  0  0  0  0  0  0  0  0
   -0.5490    0.9690    2.1410 Cl  0  0  0  0  0  0  0  0  0  0  0  0
   -1.6360    0.0740   -0.1510 C   0  0  1  0  0  0  0  0  0  0  0  0
   -2.0640    1.3550   -0.3760 F   0  0  0  0  0  0  0  0  0  0  0  0
   -1.3660   -0.5020   -1.4000 F   0  0  0  0  0  0  0  0  0  0  0  0
   -2.5810   -0.7180    0.4440 F   0  0  0  0  0  0  0  0  0  0  0  0
  2  1  1  1
  2  3  1  0
  2  4  1  0
  4  5  1  0
  5  6  1  1
  5  7  1  0
  7  8  1  6
  7  9  1  0
  7 10  1  0
M  END
