
     RDKit          3D

 34 38  0  0  0  0  0  0  0  0999 V2000
   -6.7070   -1.8150    0.1410 C   0  0  0  0  0  0  0  0  0  0  0  0
   -6.3230   -0.5580    0.1960 C   0  0  0  0  0  0  0  0  0  0  0  0
   -6.5820    0.3410    1.3390 N   0  0  0  0  0  0  0  0  0  0  0  0
   -5.3860    1.0430    1.5990 C   0  0  2  0  0  0  0  0  0  0  0  0
   -5.1990    2.4720    1.8600 C   0  0  0  0  0  0  0  0  0  0  0  0
   -3.6940    2.6320    1.3230 C   0  0  0  0  0  0  0  0  0  0  0  0
   -3.9430    1.9150    0.0110 C   0  0  0  0  0  0  0  0  0  0  0  0
   -4.8740    1.0830    0.1980 C   0  0  0  0  0  0  0  0  0  0  0  0
   -5.6360    0.2780   -0.7250 C   0  0  1  0  0  0  0  0  0  0  0  0
   -4.9010    0.0420   -1.8530 N   0  0  0  0  0  0  0  0  0  0  0  0
   -3.9120    0.8320   -2.1570 C   0  0  0  0  0  0  0  0  0  0  0  0
   -3.1670    0.5270   -3.4180 C   0  0  0  0  0  0  0  0  0  0  0  0
   -2.0330   -0.4050   -3.2690 C   0  0  0  0  0  0  0  0  0  0  0  0
   -0.9690    0.0070   -2.3860 N   0  0  0  0  0  0  0  0  0  0  0  0
    0.1770   -0.8240   -2.1650 C   0  0  0  0  0  0  0  0  0  0  0  0
    0.2050   -1.9010   -2.7650 O   0  0  0  0  0  0  0  0  0  0  0  0
    1.2360   -0.4540   -1.3090 N   0  0  0  0  0  0  0  0  0  0  0  0
    2.3960   -1.1940   -1.0280 C   0  0  0  0  0  0  0  0  0  0  0  0
    2.7240   -2.4180   -1.5300 C   0  0  0  0  0  0  0  0  0  0  0  0
    3.8940   -3.0850   -1.2000 C   0  0  0  0  0  0  0  0  0  0  0  0
    4.2340   -4.4180   -1.7580 C   0  0  0  0  0  0  0  0  0  0  0  0
    4.7320   -2.4940   -0.3520 N   0  0  0  0  0  0  0  0  0  0  0  0
    4.4440   -1.2810    0.1680 C   0  0  0  0  0  0  0  0  0  0  0  0
    5.3880   -0.6670    1.0940 C   0  0  0  0  0  0  0  0  0  0  0  0
    5.1200    0.5640    1.6370 C   0  0  0  0  0  0  0  0  0  0  0  0
    5.9780    1.2040    2.5260 C   0  0  0  0  0  0  0  0  0  0  0  0
    5.6600    2.4530    3.0480 O   0  0  0  0  0  0  0  0  0  0  0  0
    4.4620    3.0690    2.6730 C   0  0  0  0  0  0  0  0  0  0  0  0
    7.1580    0.5840    2.8870 C   0  0  0  0  0  0  0  0  0  0  0  0
    7.4320   -0.6550    2.3440 C   0  0  0  0  0  0  0  0  0  0  0  0
    6.5670   -1.2780    1.4600 C   0  0  0  0  0  0  0  0  0  0  0  0
    6.8530   -2.4910    0.9390 F   0  0  0  0  0  0  0  0  0  0  0  0
    3.3040   -0.6550   -0.1660 N   0  0  0  0  0  0  0  0  0  0  0  0
   -3.3610    1.8270   -1.2830 N   0  0  0  0  0  0  0  0  0  0  0  0
  1  2  2  0
  2  3  1  0
  2  9  1  0
  3  4  1  0
  4  5  1  6
  4  8  1  0
  5  6  1  0
  6  7  1  0
  7  8  2  0
  7 34  1  0
  8  9  1  0
  9 10  1  6
 10 11  2  0
 11 12  1  0
 11 34  1  0
 12 13  1  0
 13 14  1  0
 14 15  1  0
 15 16  2  0
 15 17  1  0
 17 18  1  0
 18 19  2  0
 18 33  1  0
 19 20  1  0
 20 21  1  0
 20 22  2  0
 22 23  1  0
 23 24  1  0
 23 33  2  0
 24 25  2  0
 24 31  1  0
 25 26  1  0
 26 27  1  0
 26 29  2  0
 27 28  1  0
 29 30  1  0
 30 31  2  0
 31 32  1  0
M  END
