
     RDKit          3D

 34 38  0  0  0  0  0  0  0  0999 V2000
    9.2100   -0.8050   -0.5680 C   0  0  0  0  0  0  0  0  0  0  0  0
    7.7590   -0.7700   -0.7510 N   0  0  0  0  0  0  0  0  0  0  0  0
    7.0800   -1.2680   -1.7500 N   0  0  0  0  0  0  0  0  0  0  0  0
    5.7520   -1.0610   -1.6080 C   0  0  0  0  0  0  0  0  0  0  0  0
    5.5850   -0.3740   -0.4170 C   0  0  0  0  0  0  0  0  0  0  0  0
    4.4760    0.1040    0.2440 C   0  0  0  0  0  0  0  0  0  0  0  0
    3.2110   -0.0550   -0.2540 C   0  0  0  0  0  0  0  0  0  0  0  0
    2.0580    0.4240    0.3970 C   0  0  0  0  0  0  0  0  0  0  0  0
    0.8160    0.1720   -0.2350 N   0  0  0  0  0  0  0  0  0  0  0  0
   -0.4250    0.7580    0.1040 C   0  0  0  0  0  0  0  0  0  0  0  0
   -0.4830    1.5840    1.0320 O   0  0  0  0  0  0  0  0  0  0  0  0
   -1.6700    0.3890   -0.6530 C   0  0  2  0  0  0  0  0  0  0  0  0
   -2.8230    1.1160   -0.0920 C   0  0  0  0  0  0  0  0  0  0  0  0
   -3.1840    0.8830    1.3250 C   0  0  0  0  0  0  0  0  0  0  0  0
   -4.3920    1.7480    1.6100 C   0  0  0  0  0  0  0  0  0  0  0  0
   -5.0370    2.5770    0.7750 N   0  0  0  0  0  0  0  0  0  0  0  0
   -6.0620    3.1640    1.4070 C   0  0  0  0  0  0  0  0  0  0  0  0
   -6.0670    2.6930    2.6890 C   0  0  0  0  0  0  0  0  0  0  0  0
   -5.0450    1.8340    2.7890 N   0  0  0  0  0  0  0  0  0  0  0  0
   -1.7990   -1.1050   -0.6430 C   0  0  0  0  0  0  0  0  0  0  0  0
   -2.9800   -1.5580   -1.3530 N   0  0  0  0  0  0  0  0  0  0  0  0
   -3.2970   -1.5110   -2.7470 C   0  0  0  0  0  0  0  0  0  0  0  0
   -4.7720   -1.1850   -2.7410 C   0  0  0  0  0  0  0  0  0  0  0  0
   -5.2890   -2.0520   -1.6140 C   0  0  0  0  0  0  0  0  0  0  0  0
   -4.0910   -2.1740   -0.7210 C   0  0  0  0  0  0  0  0  0  0  0  0
   -4.1240   -2.7730    0.4570 C   0  0  0  0  0  0  0  0  0  0  0  0
   -5.2490   -3.3270    0.9580 F   0  0  0  0  0  0  0  0  0  0  0  0
    2.2350    1.0750    1.5830 C   0  0  0  0  0  0  0  0  0  0  0  0
    3.5130    1.2440    2.1010 C   0  0  0  0  0  0  0  0  0  0  0  0
    4.6160    0.7710    1.4500 C   0  0  0  0  0  0  0  0  0  0  0  0
    5.9040    0.9150    1.9220 C   0  0  0  0  0  0  0  0  0  0  0  0
    6.0630    1.5240    3.0290 O   0  0  0  0  0  0  0  0  0  0  0  0
    6.9840    0.4480    1.2780 N   0  0  0  0  0  0  0  0  0  0  0  0
    6.8530   -0.2050    0.0970 C   0  0  0  0  0  0  0  0  0  0  0  0
  1  2  1  0
  2  3  1  0
  2 34  1  0
  3  4  2  0
  4  5  1  0
  5  6  1  0
  5 34  2  0
  6  7  2  0
  6 30  1  0
  7  8  1  0
  8  9  1  0
  8 28  2  0
  9 10  1  0
 10 11  2  0
 10 12  1  0
 12 13  1  1
 12 20  1  0
 13 14  1  0
 14 15  1  0
 15 16  2  0
 15 19  1  0
 16 17  1  0
 17 18  2  0
 18 19  1  0
 20 21  1  0
 21 22  1  0
 21 25  1  0
 22 23  1  0
 23 24  1  0
 24 25  1  0
 25 26  2  3
 26 27  1  0
 28 29  1  0
 29 30  2  0
 30 31  1  0
 31 32  2  0
 31 33  1  0
 33 34  1  0
M  END
