
     RDKit          3D

 34 38  0  0  0  0  0  0  0  0999 V2000
   -5.6100   -2.1700   -2.3240 C   0  0  0  0  0  0  0  0  0  0  0  0
   -5.5880   -1.2110   -1.1920 C   0  0  0  0  0  0  0  0  0  0  0  0
   -5.0120   -1.4700    0.0400 C   0  0  0  0  0  0  0  0  0  0  0  0
   -5.2000   -0.3410    0.8080 C   0  0  0  0  0  0  0  0  0  0  0  0
   -4.7310   -0.1970    2.2030 C   0  0  0  0  0  0  0  0  0  0  0  0
   -3.4970    0.6670    2.3050 C   0  0  0  0  0  0  0  0  0  0  0  0
   -2.3860    0.1000    1.5340 N   0  0  0  0  0  0  0  0  0  0  0  0
   -1.1660    0.8190    1.5510 C   0  0  0  0  0  0  0  0  0  0  0  0
   -1.0190    2.0730    2.1050 N   0  0  0  0  0  0  0  0  0  0  0  0
    0.2000    2.5010    1.8700 N   0  0  0  0  0  0  0  0  0  0  0  0
    0.7760    3.7540    2.2660 C   0  0  0  0  0  0  0  0  0  0  0  0
    0.8850    1.5560    1.1640 C   0  0  0  0  0  0  0  0  0  0  0  0
    2.1380    1.5410    0.6800 N   0  0  0  0  0  0  0  0  0  0  0  0
    2.6020    0.4900   -0.0160 C   0  0  0  0  0  0  0  0  0  0  0  0
    1.7870   -0.6040   -0.2430 C   0  0  0  0  0  0  0  0  0  0  0  0
    0.4720   -0.5960    0.2640 C   0  0  0  0  0  0  0  0  0  0  0  0
   -0.3460   -1.7700    0.0370 C   0  0  0  0  0  0  0  0  0  0  0  0
   -0.8110   -2.5040    1.1680 N   0  0  0  0  0  0  0  0  0  0  0  0
   -0.6380   -2.1480   -1.1480 O   0  0  0  0  0  0  0  0  0  0  0  0
    0.0160    0.4760    0.9610 C   0  0  0  0  0  0  0  0  0  0  0  0
    2.0230   -1.8680   -0.9550 C   0  0  0  0  0  0  0  0  0  0  0  0
    3.4900   -2.2410   -1.0060 C   0  0  0  0  0  0  0  0  0  0  0  0
    4.2950   -1.3590   -1.9010 C   0  0  0  0  0  0  0  0  0  0  0  0
    4.7440   -0.0990   -1.2590 C   0  0  0  0  0  0  0  0  0  0  0  0
    6.1150    0.3510   -1.5140 C   0  0  0  0  0  0  0  0  0  0  0  0
    6.9290   -0.3070   -2.2690 N   0  0  0  0  0  0  0  0  0  0  0  0
    8.1770    0.3990   -2.3090 C   0  0  0  0  0  0  0  0  0  0  0  0
    7.9520    1.5720   -1.4530 C   0  0  0  0  0  0  0  0  0  0  0  0
    8.8670    2.5320   -1.1930 F   0  0  0  0  0  0  0  0  0  0  0  0
    6.7520    1.5200   -1.0070 N   0  0  0  0  0  0  0  0  0  0  0  0
    3.9960    0.6540   -0.4680 C   0  0  0  0  0  0  0  0  0  0  0  0
   -5.8710    0.5530    0.0370 C   0  0  0  0  0  0  0  0  0  0  0  0
   -6.3120    1.9280    0.4140 C   0  0  0  0  0  0  0  0  0  0  0  0
   -6.0740   -0.0050   -1.1250 O   0  0  0  0  0  0  0  0  0  0  0  0
  1  2  1  0
  2  3  2  0
  2 34  1  0
  3  4  1  0
  4  5  1  0
  4 32  2  0
  5  6  1  0
  6  7  1  0
  7  8  1  0
  8  9  2  0
  8 20  1  0
  9 10  1  0
 10 11  1  0
 10 12  1  0
 12 13  2  0
 12 20  1  0
 13 14  1  0
 14 15  2  0
 14 31  1  0
 15 16  1  0
 15 21  1  0
 16 17  1  0
 16 20  2  0
 17 18  1  0
 17 19  2  0
 21 22  1  0
 22 23  1  0
 23 24  1  0
 24 25  1  0
 24 31  2  0
 25 26  2  0
 25 30  1  0
 26 27  1  0
 27 28  1  0
 28 29  1  0
 28 30  2  0
 32 33  1  0
 32 34  1  0
M  END
