
     RDKit          3D

 34 38  0  0  0  0  0  0  0  0999 V2000
   -3.7640   -2.1170   -1.4480 C   0  0  0  0  0  0  0  0  0  0  0  0
   -3.6940   -0.6180   -1.4410 C   0  0  0  0  0  0  0  0  0  0  0  0
   -3.7290   -0.0300   -0.0650 C   0  0  1  0  0  0  0  0  0  0  0  0
   -2.5860   -0.5050    0.7750 C   0  0  0  0  0  0  0  0  0  0  0  0
   -2.9120   -1.1270    1.8100 O   0  0  0  0  0  0  0  0  0  0  0  0
   -1.2640   -0.2500    0.3940 N   0  0  0  0  0  0  0  0  0  0  0  0
   -0.1530   -0.6830    1.1500 C   0  0  0  0  0  0  0  0  0  0  0  0
   -0.1760   -1.5790    2.1810 C   0  0  0  0  0  0  0  0  0  0  0  0
    1.0180   -1.8930    2.8430 C   0  0  0  0  0  0  0  0  0  0  0  0
    2.2160   -1.3010    2.4560 C   0  0  0  0  0  0  0  0  0  0  0  0
    2.2750   -0.4040    1.4320 C   0  0  0  0  0  0  0  0  0  0  0  0
    1.0640   -0.1220    0.8040 C   0  0  0  0  0  0  0  0  0  0  0  0
    3.5040    0.2160    1.0220 C   0  0  1  0  0  0  0  0  0  0  0  0
    3.8590   -0.1930   -0.4360 C   0  0  0  0  0  0  0  0  0  0  0  0
    5.2330    0.2490   -0.6150 N   0  0  0  0  0  0  0  0  0  0  0  0
    5.9750   -0.4830   -1.5790 C   0  0  0  0  0  0  0  0  0  0  0  0
    5.5520   -0.3110   -2.9740 C   0  0  0  0  0  0  0  0  0  0  0  0
    6.0680    0.5740   -3.7390 N   0  0  0  0  0  0  0  0  0  0  0  0
    5.2760    1.6870   -0.8170 C   0  0  0  0  0  0  0  0  0  0  0  0
    4.2430    2.3250   -0.0180 N   0  0  0  0  0  0  0  0  0  0  0  0
    3.5230    1.6850    1.0100 C   0  0  0  0  0  0  0  0  0  0  0  0
    2.9540    2.4340    1.8340 O   0  0  0  0  0  0  0  0  0  0  0  0
    4.6670   -0.2080    1.7990 C   0  0  0  0  0  0  0  0  0  0  0  0
    5.9250    0.3280    1.4860 F   0  0  0  0  0  0  0  0  0  0  0  0
    4.6300   -1.0660    2.7810 C   0  0  0  0  0  0  0  0  0  0  0  0
    3.4060   -1.6550    3.1600 N   0  0  0  0  0  0  0  0  0  0  0  0
   -3.5540    1.4860   -0.2010 C   0  0  0  0  0  0  0  0  0  0  0  0
   -4.6390    2.0900   -1.0340 C   0  0  0  0  0  0  0  0  0  0  0  0
   -5.9030    1.3890   -0.8900 N   0  0  0  0  0  0  0  0  0  0  0  0
   -7.0350    1.6970   -1.4960 N   0  0  0  0  0  0  0  0  0  0  0  0
   -7.9850    0.8470   -1.1350 C   0  0  0  0  0  0  0  0  0  0  0  0
   -7.4470   -0.0540   -0.2550 C   0  0  0  0  0  0  0  0  0  0  0  0
   -6.1150    0.3280   -0.1260 C   0  0  0  0  0  0  0  0  0  0  0  0
   -5.0020   -0.2310    0.6720 C   0  0  0  0  0  0  0  0  0  0  0  0
  1  2  1  0
  3  2  1  6
  3  4  1  0
  3 27  1  0
  3 34  1  0
  4  5  2  0
  4  6  1  0
  6  7  1  0
  7  8  2  0
  7 12  1  0
  8  9  1  0
  9 10  2  0
 10 11  1  0
 10 26  1  0
 11 12  2  0
 11 13  1  0
 13 14  1  6
 13 21  1  0
 13 23  1  0
 14 15  1  0
 15 16  1  0
 15 19  1  0
 16 17  1  0
 17 18  2  0
 19 20  1  0
 20 21  1  0
 21 22  2  0
 23 24  1  0
 23 25  2  0
 25 26  1  0
 27 28  1  0
 28 29  1  0
 29 30  1  0
 29 33  1  0
 30 31  2  0
 31 32  1  0
 32 33  2  0
 33 34  1  0
M  END
