
     RDKit          3D

 33 37  0  0  0  0  0  0  0  0999 V2000
   -3.6540   -4.0300    1.1270 C   0  0  0  0  0  0  0  0  0  0  0  0
   -2.5430   -3.0710    0.7840 C   0  0  0  0  0  0  0  0  0  0  0  0
   -3.0680   -1.8570    0.1440 N   0  0  0  0  0  0  0  0  0  0  0  0
   -3.9660   -0.9830    0.7500 C   0  0  0  0  0  0  0  0  0  0  0  0
   -4.3720   -1.2480    1.9300 O   0  0  0  0  0  0  0  0  0  0  0  0
   -4.4700    0.2080    0.1110 C   0  0  0  0  0  0  0  0  0  0  0  0
   -5.8750    0.3120    0.0630 C   0  0  0  0  0  0  0  0  0  0  0  0
   -6.4790    1.3380   -0.6180 C   0  0  0  0  0  0  0  0  0  0  0  0
   -7.9680    1.4630   -0.6850 C   0  0  0  0  0  0  0  0  0  0  0  0
   -5.7020    2.2450   -1.2440 N   0  0  0  0  0  0  0  0  0  0  0  0
   -4.3610    2.1660   -1.2110 C   0  0  0  0  0  0  0  0  0  0  0  0
   -3.3870    2.9400   -1.7360 N   0  0  0  0  0  0  0  0  0  0  0  0
   -2.1670    2.4560   -1.4110 C   0  0  0  0  0  0  0  0  0  0  0  0
   -0.8770    2.9130   -1.7020 C   0  0  0  0  0  0  0  0  0  0  0  0
   -0.7500    4.1540   -2.5380 C   0  0  0  0  0  0  0  0  0  0  0  0
    0.1770    2.2090   -1.2070 C   0  0  0  0  0  0  0  0  0  0  0  0
    0.0700    1.0780   -0.4390 C   0  0  0  0  0  0  0  0  0  0  0  0
    1.2020    0.3100    0.0810 C   0  0  0  0  0  0  0  0  0  0  0  0
    0.9490   -0.7440    0.7210 O   0  0  0  0  0  0  0  0  0  0  0  0
    2.5550    0.6450   -0.0670 N   0  0  0  0  0  0  0  0  0  0  0  0
    3.6130   -0.2100    0.5040 C   0  0  2  0  0  0  0  0  0  0  0  0
    4.4680    0.6180    1.4530 C   0  0  0  0  0  0  0  0  0  0  0  0
    5.0410    0.0320    0.1910 C   0  0  1  0  0  0  0  0  0  0  0  0
    5.9740   -1.1240    0.3570 C   0  0  0  0  0  0  0  0  0  0  0  0
    7.0590   -1.2900   -0.5820 C   0  0  0  0  0  0  0  0  0  0  0  0
    7.4120   -0.3730   -1.6980 C   0  0  0  0  0  0  0  0  0  0  0  0
    7.6870   -2.4030   -0.2440 N   0  0  0  0  0  0  0  0  0  0  0  0
    7.1000   -2.9180    0.7860 N   0  0  0  0  0  0  0  0  0  0  0  0
    6.0410   -2.1470    1.1700 N   0  0  0  0  0  0  0  0  0  0  0  0
    5.1730   -2.5750    2.2620 C   0  0  0  0  0  0  0  0  0  0  0  0
   -1.2330    0.6490   -0.1650 C   0  0  0  0  0  0  0  0  0  0  0  0
   -2.3330    1.3100   -0.6370 C   0  0  0  0  0  0  0  0  0  0  0  0
   -3.6950    1.1410   -0.5280 C   0  0  0  0  0  0  0  0  0  0  0  0
  1  2  1  0
  2  3  1  0
  3  4  1  0
  4  5  2  0
  4  6  1  0
  6  7  2  0
  6 33  1  0
  7  8  1  0
  8  9  1  0
  8 10  2  0
 10 11  1  0
 11 12  1  0
 11 33  2  0
 12 13  1  0
 13 14  2  0
 13 32  1  0
 14 15  1  0
 14 16  1  0
 16 17  2  0
 17 18  1  0
 17 31  1  0
 18 19  2  0
 18 20  1  0
 21 20  1  6
 21 22  1  0
 21 23  1  0
 22 23  1  0
 23 24  1  1
 24 25  2  0
 24 29  1  0
 25 26  1  0
 25 27  1  0
 27 28  2  0
 28 29  1  0
 29 30  1  0
 31 32  2  0
 32 33  1  0
M  END
