
     RDKit          3D

 34 38  0  0  0  0  0  0  0  0999 V2000
   -4.5800   -4.6970   -1.8950 C   0  0  0  0  0  0  0  0  0  0  0  0
   -3.3380   -3.8640   -1.8800 C   0  0  0  0  0  0  0  0  0  0  0  0
   -3.5920   -2.6380   -0.8810 C   0  0  2  0  0  0  0  0  0  0  0  0
   -4.6630   -1.9450   -1.4000 F   0  0  0  0  0  0  0  0  0  0  0  0
   -2.3920   -1.8330   -0.9490 C   0  0  0  0  0  0  0  0  0  0  0  0
   -1.4970   -1.6180   -0.0250 C   0  0  0  0  0  0  0  0  0  0  0  0
   -0.3660   -0.7370   -0.4530 C   0  0  0  0  0  0  0  0  0  0  0  0
   -0.4880   -0.2480   -1.6450 O   0  0  0  0  0  0  0  0  0  0  0  0
    0.7390   -0.4170    0.2740 N   0  0  0  0  0  0  0  0  0  0  0  0
    1.7980    0.4650   -0.0810 C   0  0  0  0  0  0  0  0  0  0  0  0
    3.0860    0.1170    0.4620 C   0  0  0  0  0  0  0  0  0  0  0  0
    4.1670    0.9560    0.3210 C   0  0  0  0  0  0  0  0  0  0  0  0
    4.0040    2.1310   -0.3470 C   0  0  0  0  0  0  0  0  0  0  0  0
    5.0360    3.0060   -0.4690 N   0  0  0  0  0  0  0  0  0  0  0  0
    4.7940    4.1350   -1.0850 C   0  0  0  0  0  0  0  0  0  0  0  0
    5.8050    4.9520   -1.1740 O   0  0  0  0  0  0  0  0  0  0  0  0
    3.6390    4.6040   -1.6520 C   0  0  0  0  0  0  0  0  0  0  0  0
    3.2120    5.6860   -2.3440 C   0  0  0  0  0  0  0  0  0  0  0  0
    4.0530    6.8720   -2.6900 C   0  0  0  0  0  0  0  0  0  0  0  0
    1.9150    5.4790   -2.6590 N   0  0  0  0  0  0  0  0  0  0  0  0
    1.5160    4.2740   -2.1740 N   0  0  0  0  0  0  0  0  0  0  0  0
    2.5580    3.6870   -1.5310 C   0  0  0  0  0  0  0  0  0  0  0  0
    2.7770    2.5100   -0.8900 C   0  0  0  0  0  0  0  0  0  0  0  0
    1.6920    1.6250   -0.7260 C   0  0  0  0  0  0  0  0  0  0  0  0
   -1.7730   -1.9150    1.3780 C   0  0  0  0  0  0  0  0  0  0  0  0
   -1.2560   -1.9690    2.5490 C   0  0  0  0  0  0  0  0  0  0  0  0
    0.0080   -1.7520    3.3410 C   0  0  0  0  0  0  0  0  0  0  0  0
   -0.3060   -2.2020    4.7010 C   0  0  0  0  0  0  0  0  0  0  0  0
   -1.5090   -2.6550    4.7750 N   0  0  0  0  0  0  0  0  0  0  0  0
   -2.1350   -2.5620    3.5580 N   0  0  0  0  0  0  0  0  0  0  0  0
   -3.3710   -2.8500    2.8460 C   0  0  1  0  0  0  0  0  0  0  0  0
   -4.5690   -2.6510    3.7290 C   0  0  0  0  0  0  0  0  0  0  0  0
   -5.4440   -2.5240    4.3750 N   0  0  0  0  0  0  0  0  0  0  0  0
   -3.2990   -1.7610    1.8560 C   0  0  0  0  0  0  0  0  0  0  0  0
  1  2  1  0
  2  3  1  0
  3  4  1  6
  3  5  1  0
  5  6  2  3
  6  7  1  0
  6 25  1  0
  7  8  2  0
  7  9  1  0
  9 10  1  0
 10 11  2  0
 10 24  1  0
 11 12  1  0
 12 13  2  0
 13 14  1  0
 13 23  1  0
 14 15  1  0
 15 16  2  0
 15 17  1  0
 17 18  1  0
 17 22  2  0
 18 19  1  0
 18 20  2  0
 20 21  1  0
 21 22  1  0
 22 23  1  0
 23 24  2  0
 25 26  2  0
 25 34  1  0
 26 27  1  0
 26 30  1  0
 27 28  1  0
 28 29  2  0
 29 30  1  0
 30 31  1  0
 31 32  1  1
 31 34  1  0
 32 33  3  0
M  END
