
     RDKit          3D

 40 43  0  0  0  0  0  0  0  0999 V2000
    0.3640   -2.0940   -1.9960 C   0  0  0  0  0  0  0  0  0  0  0  0
    0.6810   -0.7610   -1.3500 C   0  0  2  0  0  0  0  0  0  0  0  0
    0.9510   -1.0560    0.1080 C   0  0  0  0  0  0  0  0  0  0  0  0
    2.0730   -1.9550    0.3110 C   0  0  0  0  0  0  0  0  0  0  0  0
    1.8650   -3.3420    0.4130 C   0  0  0  0  0  0  0  0  0  0  0  0
    2.8800   -4.2420    0.5680 C   0  0  0  0  0  0  0  0  0  0  0  0
    4.1730   -3.8010    0.6300 C   0  0  0  0  0  0  0  0  0  0  0  0
    4.4010   -2.4290    0.5310 C   0  0  0  0  0  0  0  0  0  0  0  0
    3.3720   -1.5070    0.3740 C   0  0  0  0  0  0  0  0  0  0  0  0
    3.6870   -0.0860    0.3220 C   0  0  0  0  0  0  0  0  0  0  0  0
    5.0980    0.2130    0.4270 N   0  0  1  0  0  0  0  0  0  0  0  0
    5.8160    0.0420   -0.8230 C   0  0  0  0  0  0  0  0  0  0  0  0
    7.2790   -0.0870   -0.5150 C   0  0  0  0  0  0  0  0  0  0  0  0
    7.6590    1.0380    0.4250 C   0  0  0  0  0  0  0  0  0  0  0  0
    6.6260    2.1420    0.3890 C   0  0  0  0  0  0  0  0  0  0  0  0
    5.2830    1.6230    0.8240 C   0  0  2  0  0  0  0  0  0  0  0  0
    5.1770    1.7550    2.3220 C   0  0  0  0  0  0  0  0  0  0  0  0
    5.3470    3.0740    2.7270 O   0  0  0  0  0  0  0  0  0  0  0  0
   -0.3270    0.3060   -1.5400 C   0  0  0  0  0  0  0  0  0  0  0  0
   -1.7080    0.0680   -1.0230 C   0  0  1  0  0  0  0  0  0  0  0  0
   -2.4670    1.3710   -1.3660 C   0  0  0  0  0  0  0  0  0  0  0  0
   -2.0670    2.5090   -0.0150 S   0  0  0  0  0  0  0  0  0  0  0  0
   -3.4310    2.4940    1.1700 C   0  0  0  0  0  0  0  0  0  0  0  0
   -3.2800    1.4520    2.2540 C   0  0  1  0  0  0  0  0  0  0  0  0
   -4.0680    1.8950    3.3360 O   0  0  0  0  0  0  0  0  0  0  0  0
   -3.9380    0.1760    1.7570 C   0  0  0  0  0  0  0  0  0  0  0  0
   -5.3400    0.0130    2.2450 C   0  0  0  0  0  0  0  0  0  0  0  0
   -6.4110    0.1860    1.5390 C   0  0  0  0  0  0  0  0  0  0  0  0
   -6.6110    0.5640    0.1360 C   0  0  0  0  0  0  0  0  0  0  0  0
   -7.2000    1.8030   -0.1230 C   0  0  0  0  0  0  0  0  0  0  0  0
   -7.4730    2.2880   -1.3790 C   0  0  0  0  0  0  0  0  0  0  0  0
   -7.1650    1.5350   -2.4780 C   0  0  0  0  0  0  0  0  0  0  0  0
   -6.5860    0.3080   -2.2640 C   0  0  0  0  0  0  0  0  0  0  0  0
   -6.2920   -0.2140   -0.9830 C   0  0  0  0  0  0  0  0  0  0  0  0
   -5.7440   -1.5260   -0.9900 N   0  0  0  0  0  0  0  0  0  0  0  0
   -4.5260   -2.1150   -0.5940 C   0  0  0  0  0  0  0  0  0  0  0  0
   -4.6100   -2.8270    0.4850 O   0  0  0  0  0  0  0  0  0  0  0  0
   -3.2190   -2.0910   -1.1430 N   0  0  0  0  0  0  0  0  0  0  0  0
   -2.4400   -1.0430   -1.6680 C   0  0  0  0  0  0  0  0  0  0  0  0
   -2.3170   -1.0150   -2.9630 O   0  0  0  0  0  0  0  0  0  0  0  0
  2  1  1  6
  2  3  1  0
  2 19  1  0
  3  4  1  0
  4  5  2  0
  4  9  1  0
  5  6  1  0
  6  7  2  0
  7  8  1  0
  8  9  2  0
  9 10  1  0
 11 10  1  6
 11 12  1  0
 11 16  1  0
 12 13  1  0
 13 14  1  0
 14 15  1  0
 15 16  1  0
 16 17  1  1
 17 18  1  0
 20 19  1  6
 20 21  1  0
 20 39  1  0
 21 22  1  0
 22 23  1  0
 23 24  1  0
 24 25  1  1
 24 26  1  0
 26 27  1  0
 27 28  2  0
 28 29  1  0
 29 30  2  0
 29 34  1  0
 30 31  1  0
 31 32  2  0
 32 33  1  0
 33 34  2  0
 34 35  1  0
 35 36  1  0
 36 37  2  0
 36 38  1  0
 38 39  1  0
 39 40  2  0
M  CHG  1  11   1
M  END
