
     RDKit          3D

 40 43  0  0  0  0  0  0  0  0999 V2000
   -8.9530   -2.6890   -0.2040 C   0  0  0  0  0  0  0  0  0  0  0  0
   -7.6370   -1.9700   -0.0280 C   0  0  0  0  0  0  0  0  0  0  0  0
   -6.5180   -2.9110   -0.4340 C   0  0  0  0  0  0  0  0  0  0  0  0
   -5.1780   -2.2300   -0.2790 C   0  0  1  0  0  0  0  0  0  0  0  0
   -4.2010   -3.1720   -0.6410 O   0  0  0  0  0  0  0  0  0  0  0  0
   -5.0730   -1.0650   -1.2020 C   0  0  0  0  0  0  0  0  0  0  0  0
   -5.8850   -0.9420   -2.2890 C   0  0  0  0  0  0  0  0  0  0  0  0
   -5.7840    0.1480   -3.1510 C   0  0  0  0  0  0  0  0  0  0  0  0
   -4.8380    1.0840   -2.8600 C   0  0  0  0  0  0  0  0  0  0  0  0
   -4.0090    0.9630   -1.7570 C   0  0  0  0  0  0  0  0  0  0  0  0
   -4.0900   -0.0920   -0.9030 C   0  0  0  0  0  0  0  0  0  0  0  0
   -3.2540   -0.2910    0.2080 N   0  0  0  0  0  0  0  0  0  0  0  0
   -2.4380    0.6870    0.8220 C   0  0  0  0  0  0  0  0  0  0  0  0
   -2.4480    1.8530    0.3690 O   0  0  0  0  0  0  0  0  0  0  0  0
   -1.5820    0.3320    2.0020 C   0  0  0  0  0  0  0  0  0  0  0  0
   -1.1890    1.4760    2.8650 C   0  0  1  0  0  0  0  0  0  0  0  0
   -0.2980    0.9620    3.9930 C   0  0  0  0  0  0  0  0  0  0  0  0
    1.3810    0.6840    3.3660 S   0  0  0  0  0  0  0  0  0  0  0  0
    1.5690    1.6230    1.8390 C   0  0  0  0  0  0  0  0  0  0  0  0
    2.4560    1.4310    0.9210 C   0  0  0  0  0  0  0  0  0  0  0  0
    3.5610    0.4860    0.7530 C   0  0  1  0  0  0  0  0  0  0  0  0
    3.9320   -0.2470    1.9580 C   0  0  0  0  0  0  0  0  0  0  0  0
    3.8670   -1.7600    1.8230 C   0  0  0  0  0  0  0  0  0  0  0  0
    5.2040   -2.1970    1.2400 C   0  0  0  0  0  0  0  0  0  0  0  0
    5.4740   -1.2960    0.0570 C   0  0  0  0  0  0  0  0  0  0  0  0
    4.3010   -1.3120   -0.7930 N   0  0  2  0  0  0  0  0  0  0  0  0
    4.8520   -1.1830   -2.1630 C   0  0  0  0  0  0  0  0  0  0  0  0
    5.5370   -2.4200   -2.5620 C   0  0  0  0  0  0  0  0  0  0  0  0
    6.7790   -2.5820   -2.8450 C   0  0  0  0  0  0  0  0  0  0  0  0
    7.9180   -1.6530   -2.8740 C   0  0  0  0  0  0  0  0  0  0  0  0
    7.6280   -0.3580   -2.5400 O   0  0  0  0  0  0  0  0  0  0  0  0
    3.3090   -0.3430   -0.4920 C   0  0  0  0  0  0  0  0  0  0  0  0
    0.6090    2.7570    1.7130 C   0  0  0  0  0  0  0  0  0  0  0  0
    1.0370    3.9080    1.1110 N   0  0  0  0  0  0  0  0  0  0  0  0
    0.2420    4.9920    1.0110 C   0  0  0  0  0  0  0  0  0  0  0  0
    0.7610    6.2160    0.3430 C   0  0  0  0  0  0  0  0  0  0  0  0
   -1.0370    4.9770    1.5160 C   0  0  0  0  0  0  0  0  0  0  0  0
   -1.4810    3.8280    2.1220 C   0  0  0  0  0  0  0  0  0  0  0  0
   -2.6440    3.7700    2.6030 O   0  0  0  0  0  0  0  0  0  0  0  0
   -0.6640    2.6730    2.2370 C   0  0  0  0  0  0  0  0  0  0  0  0
  1  2  1  0
  2  3  1  0
  3  4  1  0
  4  5  1  6
  4  6  1  0
  6  7  2  0
  6 11  1  0
  7  8  1  0
  8  9  2  0
  9 10  1  0
 10 11  2  0
 11 12  1  0
 12 13  1  0
 13 14  2  0
 13 15  1  0
 16 15  1  6
 16 17  1  0
 16 40  1  0
 17 18  1  0
 18 19  1  0
 19 20  2  3
 19 33  1  0
 21 20  1  1
 21 22  1  0
 21 32  1  0
 22 23  1  0
 23 24  1  0
 24 25  1  0
 25 26  1  0
 26 27  1  6
 26 32  1  0
 27 28  1  0
 28 29  2  3
 29 30  1  0
 30 31  1  0
 33 34  1  0
 33 40  2  0
 34 35  1  0
 35 36  1  0
 35 37  2  0
 37 38  1  0
 38 39  2  0
 38 40  1  0
M  CHG  1  26   1
M  END
