
     RDKit          3D

 40 43  0  0  0  0  0  0  0  0999 V2000
    6.8340   -3.3110   -1.7950 C   0  0  0  0  0  0  0  0  0  0  0  0
    6.2220   -2.0370   -1.3140 C   0  0  0  0  0  0  0  0  0  0  0  0
    6.2560   -0.8940   -2.0840 C   0  0  0  0  0  0  0  0  0  0  0  0
    5.6720    0.2690   -1.5920 C   0  0  0  0  0  0  0  0  0  0  0  0
    5.7190    1.5010   -2.4500 C   0  0  0  0  0  0  0  0  0  0  0  0
    5.0630    0.3070   -0.3580 C   0  0  0  0  0  0  0  0  0  0  0  0
    4.5100    1.5160    0.0440 O   0  0  0  0  0  0  0  0  0  0  0  0
    5.2410    2.4150    0.8440 C   0  0  0  0  0  0  0  0  0  0  0  0
    6.4000    2.0460    1.1540 O   0  0  0  0  0  0  0  0  0  0  0  0
    4.6910    3.7140    1.2970 C   0  0  0  0  0  0  0  0  0  0  0  0
    4.0200    3.6020    2.6470 C   0  0  0  0  0  0  0  0  0  0  0  0
    2.8680    2.6210    2.6240 C   0  0  0  0  0  0  0  0  0  0  0  0
    1.8730    3.0090    1.7030 O   0  0  0  0  0  0  0  0  0  0  0  0
    0.7420    2.2400    1.5170 C   0  0  0  0  0  0  0  0  0  0  0  0
    0.6160    1.0930    2.2450 C   0  0  0  0  0  0  0  0  0  0  0  0
   -0.5250    0.3360    2.0410 C   0  0  0  0  0  0  0  0  0  0  0  0
   -1.5470    0.6650    1.1490 C   0  0  0  0  0  0  0  0  0  0  0  0
   -1.4190    1.8250    0.4170 C   0  0  0  0  0  0  0  0  0  0  0  0
   -0.2730    2.5830    0.6220 C   0  0  0  0  0  0  0  0  0  0  0  0
   -2.3120    2.4490   -0.5740 C   0  0  1  0  0  0  0  0  0  0  0  0
   -1.9380    3.8610   -0.5730 O   0  0  0  0  0  0  0  0  0  0  0  0
   -1.8540    2.0340   -1.9430 C   0  0  0  0  0  0  0  0  0  0  0  0
   -3.2910    2.4080   -2.9940 S   0  0  0  0  0  0  0  0  0  0  0  0
   -4.4920    1.8870   -1.6530 C   0  0  0  0  0  0  0  0  0  0  0  0
   -3.7330    2.4950   -0.5050 C   0  0  1  0  0  0  0  0  0  0  0  0
   -4.3820    2.4560    0.8290 C   0  0  0  0  0  0  0  0  0  0  0  0
   -5.5810    1.7150    1.0430 N   0  0  0  0  0  0  0  0  0  0  0  0
   -6.4760    0.9560    0.3180 C   0  0  0  0  0  0  0  0  0  0  0  0
   -6.5930   -0.2140   -0.2400 C   0  0  0  0  0  0  0  0  0  0  0  0
   -5.7080   -1.3900   -0.3560 C   0  0  0  0  0  0  0  0  0  0  0  0
   -4.5890   -1.2330    0.5300 C   0  0  0  0  0  0  0  0  0  0  0  0
   -3.1960   -1.0810    0.0870 C   0  0  2  0  0  0  0  0  0  0  0  0
   -2.5450   -2.4870    0.0500 C   0  0  0  0  0  0  0  0  0  0  0  0
   -3.2680   -3.3890   -0.8970 C   0  0  0  0  0  0  0  0  0  0  0  0
   -2.6260   -4.7680   -0.9420 C   0  0  0  0  0  0  0  0  0  0  0  0
   -3.3560   -5.6280   -1.8780 N   0  0  0  0  0  0  0  0  0  0  0  0
   -2.5470   -0.3190    1.1420 N   0  0  0  0  0  0  0  0  0  0  0  0
    5.0360   -0.8350    0.3950 C   0  0  0  0  0  0  0  0  0  0  0  0
    5.6140   -1.9990   -0.0830 C   0  0  0  0  0  0  0  0  0  0  0  0
    5.5860   -3.2320    0.7350 C   0  0  0  0  0  0  0  0  0  0  0  0
  1  2  1  0
  2  3  2  0
  2 39  1  0
  3  4  1  0
  4  5  1  0
  4  6  2  0
  6  7  1  0
  6 38  1  0
  7  8  1  0
  8  9  2  0
  8 10  1  0
 10 11  1  0
 11 12  1  0
 12 13  1  0
 13 14  1  0
 14 15  2  0
 14 19  1  0
 15 16  1  0
 16 17  2  0
 17 18  1  0
 17 37  1  0
 18 19  2  0
 18 20  1  0
 20 21  1  6
 20 22  1  0
 20 25  1  0
 22 23  1  0
 23 24  1  0
 25 24  1  6
 25 26  1  0
 26 27  1  0
 27 28  1  0
 28 29  2  0
 29 30  1  0
 30 31  1  0
 31 32  1  0
 32 33  1  1
 32 37  1  0
 33 34  1  0
 34 35  1  0
 35 36  1  0
 38 39  2  0
 39 40  1  0
M  CHG  1  36   1
M  END
