
     RDKit          3D

 40 43  0  0  0  0  0  0  0  0999 V2000
   -7.4780    3.5760   -0.4730 C   0  0  0  0  0  0  0  0  0  0  0  0
   -7.3730    2.1960    0.1330 C   0  0  0  0  0  0  0  0  0  0  0  0
   -7.0120    1.1590   -0.9200 C   0  0  0  0  0  0  0  0  0  0  0  0
   -6.9000   -0.1980   -0.2900 C   0  0  2  0  0  0  0  0  0  0  0  0
   -8.1700   -0.4440    0.2720 O   0  0  0  0  0  0  0  0  0  0  0  0
   -5.8450   -0.3380    0.7530 C   0  0  0  0  0  0  0  0  0  0  0  0
   -4.5130   -0.1600    0.2700 N   0  0  0  0  0  0  0  0  0  0  0  0
   -3.8250    1.1040    0.3110 C   0  0  0  0  0  0  0  0  0  0  0  0
   -2.7300    1.1940   -0.7100 C   0  0  2  0  0  0  0  0  0  0  0  0
   -3.2140    0.8860   -2.0830 C   0  0  0  0  0  0  0  0  0  0  0  0
   -2.1160    0.9650   -3.1250 C   0  0  0  0  0  0  0  0  0  0  0  0
   -1.4970    0.5570   -0.3280 N   0  0  0  0  0  0  0  0  0  0  0  0
   -1.6700   -0.6690    0.4040 C   0  0  2  0  0  0  0  0  0  0  0  0
   -0.3260   -1.2400    0.6590 C   0  0  0  0  0  0  0  0  0  0  0  0
    0.1040   -2.3610   -0.0310 C   0  0  0  0  0  0  0  0  0  0  0  0
    1.3450   -2.9400    0.1420 C   0  0  0  0  0  0  0  0  0  0  0  0
    1.7000   -4.0720   -0.5830 C   0  0  0  0  0  0  0  0  0  0  0  0
    0.7260   -4.6390   -1.5510 C   0  0  0  0  0  0  0  0  0  0  0  0
    2.9070   -4.6100   -0.3820 N   0  0  0  0  0  0  0  0  0  0  0  0
    3.7700   -4.0780    0.4980 C   0  0  0  0  0  0  0  0  0  0  0  0
    4.8990   -4.5820    0.6850 O   0  0  0  0  0  0  0  0  0  0  0  0
    3.4540   -2.9500    1.2390 C   0  0  0  0  0  0  0  0  0  0  0  0
    4.5820   -2.2570    2.4050 S   0  0  0  0  0  0  0  0  0  0  0  0
    5.7390   -1.0830    1.7230 C   0  0  0  0  0  0  0  0  0  0  0  0
    5.1430    0.2020    1.2180 C   0  0  1  0  0  0  0  0  0  0  0  0
    4.4880    0.9280    2.1950 O   0  0  0  0  0  0  0  0  0  0  0  0
    6.2840    1.0160    0.6720 C   0  0  0  0  0  0  0  0  0  0  0  0
    6.5480    1.0880   -0.6770 C   0  0  0  0  0  0  0  0  0  0  0  0
    7.6020    1.8470   -1.1760 C   0  0  0  0  0  0  0  0  0  0  0  0
    8.4250    2.5600   -0.3290 C   0  0  0  0  0  0  0  0  0  0  0  0
    9.5530    3.3740   -0.8710 C   0  0  0  0  0  0  0  0  0  0  0  0
    8.1620    2.4880    1.0200 C   0  0  0  0  0  0  0  0  0  0  0  0
    7.1050    1.7270    1.5210 C   0  0  0  0  0  0  0  0  0  0  0  0
    2.2090   -2.3730    1.0510 C   0  0  0  0  0  0  0  0  0  0  0  0
    1.7970   -1.2670    1.7400 C   0  0  0  0  0  0  0  0  0  0  0  0
    0.5570   -0.6950    1.5620 C   0  0  0  0  0  0  0  0  0  0  0  0
    0.1730    0.5110    2.3750 C   0  0  0  0  0  0  0  0  0  0  0  0
   -2.4650   -1.6940   -0.3670 C   0  0  0  0  0  0  0  0  0  0  0  0
   -3.9240   -1.3900   -0.2210 C   0  0  0  0  0  0  0  0  0  0  0  0
   -4.7580   -2.2690   -0.5480 O   0  0  0  0  0  0  0  0  0  0  0  0
  1  2  1  0
  2  3  1  0
  3  4  1  0
  4  5  1  1
  4  6  1  0
  6  7  1  0
  7  8  1  0
  7 39  1  0
  8  9  1  0
  9 10  1  6
  9 12  1  0
 10 11  1  0
 12 13  1  0
 13 14  1  6
 13 38  1  0
 14 15  2  0
 14 36  1  0
 15 16  1  0
 16 17  2  0
 16 34  1  0
 17 18  1  0
 17 19  1  0
 19 20  1  0
 20 21  2  0
 20 22  1  0
 22 23  1  0
 22 34  2  0
 23 24  1  0
 24 25  1  0
 25 26  1  1
 25 27  1  0
 27 28  2  0
 27 33  1  0
 28 29  1  0
 29 30  2  0
 30 31  1  0
 30 32  1  0
 32 33  2  0
 34 35  1  0
 35 36  2  0
 36 37  1  0
 38 39  1  0
 39 40  2  0
M  CHG  1  12   1
M  END
