
     RDKit          3D

 40 43  0  0  0  0  0  0  0  0999 V2000
    9.5990   -2.6320    0.2220 C   0  0  0  0  0  0  0  0  0  0  0  0
    8.4190   -1.7370   -0.1100 C   0  0  0  0  0  0  0  0  0  0  0  0
    8.7500   -0.2810    0.1460 C   0  0  2  0  0  0  0  0  0  0  0  0
    9.0710   -0.0640    1.4630 O   0  0  0  0  0  0  0  0  0  0  0  0
    7.6550    0.6040   -0.3830 C   0  0  2  0  0  0  0  0  0  0  0  0
    7.9580    2.0480   -0.1260 C   0  0  0  0  0  0  0  0  0  0  0  0
    6.8340    2.8320    0.2840 N   0  0  0  0  0  0  0  0  0  0  0  0
    5.4940    2.3880    0.2400 C   0  0  0  0  0  0  0  0  0  0  0  0
    4.5900    3.1000    0.7290 O   0  0  0  0  0  0  0  0  0  0  0  0
    5.2280    1.0770   -0.3950 C   0  0  2  0  0  0  0  0  0  0  0  0
    5.4490    1.2400   -1.8850 C   0  0  0  0  0  0  0  0  0  0  0  0
    4.3380    2.0310   -2.4530 C   0  0  0  0  0  0  0  0  0  0  0  0
    4.5450    3.3110   -3.4520 S   0  0  0  0  0  0  0  0  0  0  0  0
    2.9730    1.6380   -2.0780 C   0  0  0  0  0  0  0  0  0  0  0  0
    1.8800    1.9880   -2.8340 C   0  0  0  0  0  0  0  0  0  0  0  0
    0.5910    1.6100   -2.4250 C   0  0  0  0  0  0  0  0  0  0  0  0
    0.3900    0.8920   -1.2750 C   0  0  0  0  0  0  0  0  0  0  0  0
   -0.9960    0.5860   -0.8780 C   0  0  0  0  0  0  0  0  0  0  0  0
   -1.9260    0.7490   -1.6660 O   0  0  0  0  0  0  0  0  0  0  0  0
   -1.3120    0.1060    0.4090 N   0  0  0  0  0  0  0  0  0  0  0  0
   -2.5120   -0.2270    1.0500 C   0  0  0  0  0  0  0  0  0  0  0  0
   -3.4480   -1.2640    0.5640 C   0  0  2  0  0  0  0  0  0  0  0  0
   -2.6910   -2.5600    0.3720 C   0  0  0  0  0  0  0  0  0  0  0  0
   -4.4790   -0.9590   -0.3100 N   0  0  0  0  0  0  0  0  0  0  0  0
   -5.8400   -1.0920    0.1640 C   0  0  2  0  0  0  0  0  0  0  0  0
   -6.6810    0.0830   -0.2600 C   0  0  0  0  0  0  0  0  0  0  0  0
   -6.2410    1.3740   -0.2350 C   0  0  0  0  0  0  0  0  0  0  0  0
   -7.0190    2.4320   -0.7280 C   0  0  0  0  0  0  0  0  0  0  0  0
   -8.2460    2.1910   -1.2480 C   0  0  0  0  0  0  0  0  0  0  0  0
   -8.7270    0.8920   -1.2920 C   0  0  0  0  0  0  0  0  0  0  0  0
   -7.9540   -0.1170   -0.8070 C   0  0  0  0  0  0  0  0  0  0  0  0
   -8.4190   -1.4160   -0.8300 O   0  0  0  0  0  0  0  0  0  0  0  0
   -9.6940   -1.7880   -1.3210 C   0  0  0  0  0  0  0  0  0  0  0  0
   -6.0520   -1.1900    1.6330 C   0  0  2  0  0  0  0  0  0  0  0  0
   -5.6570   -0.1500    2.5670 C   0  0  0  0  0  0  0  0  0  0  0  0
   -5.9470   -2.6340    2.1600 C   0  0  0  0  0  0  0  0  0  0  0  0
    1.4920    0.5530   -0.5360 C   0  0  0  0  0  0  0  0  0  0  0  0
    2.7870    0.9250   -0.9360 C   0  0  0  0  0  0  0  0  0  0  0  0
    3.9070    0.4860   -0.0640 C   0  0  0  0  0  0  0  0  0  0  0  0
    6.3320    0.1490    0.1370 C   0  0  0  0  0  0  0  0  0  0  0  0
  1  2  1  0
  2  3  1  0
  3  4  1  1
  3  5  1  0
  5  6  1  1
  5 40  1  0
  6  7  1  0
  7  8  1  0
  8  9  2  0
  8 10  1  0
 10 11  1  6
 10 39  1  0
 10 40  1  0
 11 12  1  0
 12 13  2  0
 12 14  1  0
 14 15  2  0
 14 38  1  0
 15 16  1  0
 16 17  2  0
 17 18  1  0
 17 37  1  0
 18 19  2  0
 18 20  1  0
 20 21  1  0
 21 22  1  0
 22 23  1  6
 22 24  1  0
 25 24  1  1
 25 26  1  0
 25 34  1  0
 26 27  2  0
 26 31  1  0
 27 28  1  0
 28 29  2  0
 29 30  1  0
 30 31  2  0
 31 32  1  0
 32 33  1  0
 34 35  1  1
 34 36  1  0
 37 38  2  0
 38 39  1  0
M  CHG  1  24   1
M  END
