
     RDKit          3D

 40 43  0  0  0  0  0  0  0  0999 V2000
   -2.2170   -0.3950   -4.0320 C   0  0  0  0  0  0  0  0  0  0  0  0
   -2.9660   -0.5000   -2.7590 C   0  0  0  0  0  0  0  0  0  0  0  0
   -2.5170   -0.5180   -1.4690 C   0  0  0  0  0  0  0  0  0  0  0  0
   -3.4220   -0.6230   -0.4780 C   0  0  0  0  0  0  0  0  0  0  0  0
   -3.0710   -0.6580    1.0020 C   0  0  0  0  0  0  0  0  0  0  0  0
   -1.6860   -0.5720    1.2840 N   0  0  0  0  0  0  0  0  0  0  0  0
   -1.1550   -1.8630    1.6630 C   0  0  1  0  0  0  0  0  0  0  0  0
   -1.9230   -3.0330    1.1140 C   0  0  0  0  0  0  0  0  0  0  0  0
    0.3020   -2.0160    1.5070 C   0  0  0  0  0  0  0  0  0  0  0  0
    0.9080   -1.8510    0.1670 C   0  0  2  0  0  0  0  0  0  0  0  0
    0.4220   -2.8120   -0.8900 C   0  0  0  0  0  0  0  0  0  0  0  0
    2.3090   -1.9130    0.3280 O   0  0  0  0  0  0  0  0  0  0  0  0
    3.1290   -0.8640   -0.0110 C   0  0  0  0  0  0  0  0  0  0  0  0
    2.5830    0.1660   -0.4780 O   0  0  0  0  0  0  0  0  0  0  0  0
    4.6110   -0.9320    0.1630 C   0  0  0  0  0  0  0  0  0  0  0  0
    5.0580   -1.9850    0.6240 O   0  0  0  0  0  0  0  0  0  0  0  0
    5.4100    0.1530   -0.1870 N   0  0  0  0  0  0  0  0  0  0  0  0
    6.8190    0.1630   -0.0400 C   0  0  0  0  0  0  0  0  0  0  0  0
    7.5090   -0.7190    0.7340 C   0  0  0  0  0  0  0  0  0  0  0  0
    8.9110   -0.7030    0.8540 C   0  0  0  0  0  0  0  0  0  0  0  0
    9.6180    0.2550    0.1530 C   0  0  0  0  0  0  0  0  0  0  0  0
    8.9250    1.1420   -0.6240 C   0  0  0  0  0  0  0  0  0  0  0  0
    7.5710    1.1120   -0.7290 C   0  0  0  0  0  0  0  0  0  0  0  0
    9.4890    2.2070   -1.4180 N   0  0  0  0  0  0  0  0  0  0  0  0
   10.6860    2.9830   -1.2190 C   0  0  0  0  0  0  0  0  0  0  0  0
   11.8700    2.1820   -0.7690 C   0  0  0  0  0  0  0  0  0  0  0  0
   11.6240    1.5290    0.5750 C   0  0  0  0  0  0  0  0  0  0  0  0
   11.0710    0.1550    0.3670 C   0  0  0  0  0  0  0  0  0  0  0  0
   -4.7420   -0.7070   -0.8090 C   0  0  0  0  0  0  0  0  0  0  0  0
   -5.9690   -0.8240    0.0070 C   0  0  2  0  0  0  0  0  0  0  0  0
   -7.1600   -1.0350   -0.9050 C   0  0  0  0  0  0  0  0  0  0  0  0
   -7.7490    0.2250   -1.4410 C   0  0  0  0  0  0  0  0  0  0  0  0
   -7.9080    1.3240   -0.4510 C   0  0  0  0  0  0  0  0  0  0  0  0
   -7.5780    0.8790    0.9490 C   0  0  2  0  0  0  0  0  0  0  0  0
   -8.5320   -0.1200    1.5160 C   0  0  0  0  0  0  0  0  0  0  0  0
   -7.5640    2.0910    1.8670 C   0  0  0  0  0  0  0  0  0  0  0  0
   -8.8950    2.8000    1.8950 C   0  0  0  0  0  0  0  0  0  0  0  0
   -8.7290    3.8900    2.7790 O   0  0  0  0  0  0  0  0  0  0  0  0
   -6.1490    0.3580    0.9150 C   0  0  0  0  0  0  0  0  0  0  0  0
   -4.7300   -0.6370   -2.5870 S   0  0  0  0  0  0  0  0  0  0  0  0
  1  2  1  0
  2  3  2  0
  2 40  1  0
  3  4  1  0
  4  5  1  0
  4 29  2  0
  5  6  1  0
  6  7  1  0
  7  8  1  6
  7  9  1  0
  9 10  1  0
 10 11  1  6
 10 12  1  0
 12 13  1  0
 13 14  2  0
 13 15  1  0
 15 16  2  0
 15 17  1  0
 17 18  1  0
 18 19  2  0
 18 23  1  0
 19 20  1  0
 20 21  2  0
 21 22  1  0
 21 28  1  0
 22 23  2  0
 22 24  1  0
 24 25  1  0
 25 26  1  0
 26 27  1  0
 27 28  1  0
 30 29  1  6
 29 40  1  0
 30 31  1  0
 30 39  1  0
 31 32  1  0
 32 33  1  0
 33 34  1  0
 34 35  1  1
 34 36  1  0
 34 39  1  0
 36 37  1  0
 37 38  1  0
M  CHG  1   6   1
M  END
