
     RDKit          3D

 38 41  0  0  0  0  0  0  0  0999 V2000
    6.6410    2.2570   -0.7190 C   0  0  0  0  0  0  0  0  0  0  0  0
    6.7570    0.8960   -0.2530 N   0  0  0  0  0  0  0  0  0  0  0  0
    6.2170   -0.0480   -1.1950 C   0  0  1  0  0  0  0  0  0  0  0  0
    7.2840   -0.9720   -1.6720 C   0  0  0  0  0  0  0  0  0  0  0  0
    5.0900   -0.8230   -0.6060 C   0  0  0  0  0  0  0  0  0  0  0  0
    4.9300   -2.0080   -0.9310 O   0  0  0  0  0  0  0  0  0  0  0  0
    4.1910   -0.2460    0.3130 N   0  0  0  0  0  0  0  0  0  0  0  0
    3.0820   -0.8110    0.9800 C   0  0  2  0  0  0  0  0  0  0  0  0
    1.8170   -0.9630    0.1960 C   0  0  0  0  0  0  0  0  0  0  0  0
    1.3960   -2.0740   -0.2020 O   0  0  0  0  0  0  0  0  0  0  0  0
    0.9780    0.1490   -0.1540 N   0  0  0  0  0  0  0  0  0  0  0  0
    1.5730    1.5140   -0.1880 C   0  0  0  0  0  0  0  0  0  0  0  0
    0.6960    2.2970   -1.1360 C   0  0  0  0  0  0  0  0  0  0  0  0
   -0.4750    1.4380   -1.4060 C   0  0  1  0  0  0  0  0  0  0  0  0
   -0.4800    0.7420   -2.7450 C   0  0  0  0  0  0  0  0  0  0  0  0
   -0.8330   -0.6910   -2.5030 C   0  0  0  0  0  0  0  0  0  0  0  0
   -1.2110   -0.7470   -1.0500 C   0  0  2  0  0  0  0  0  0  0  0  0
   -2.6010   -0.5750   -0.7220 N   0  0  0  0  0  0  0  0  0  0  0  0
   -3.7580   -0.6570   -1.4600 C   0  0  0  0  0  0  0  0  0  0  0  0
   -3.6040   -0.9370   -2.7140 O   0  0  0  0  0  0  0  0  0  0  0  0
   -5.1420   -0.4730   -1.0230 C   0  0  1  0  0  0  0  0  0  0  0  0
   -5.5400   -1.4960   -0.0140 C   0  0  0  0  0  0  0  0  0  0  0  0
   -6.7180   -1.3590    0.6570 C   0  0  0  0  0  0  0  0  0  0  0  0
   -7.1350   -2.3110    1.6020 C   0  0  0  0  0  0  0  0  0  0  0  0
   -6.3550   -3.4170    1.8770 C   0  0  0  0  0  0  0  0  0  0  0  0
   -5.1490   -3.5330    1.1750 C   0  0  0  0  0  0  0  0  0  0  0  0
   -4.7540   -2.5880    0.2460 C   0  0  0  0  0  0  0  0  0  0  0  0
   -5.5090    0.8630   -0.5510 C   0  0  0  0  0  0  0  0  0  0  0  0
   -4.8040    1.6050    0.3450 C   0  0  0  0  0  0  0  0  0  0  0  0
   -5.2080    2.8680    0.7840 C   0  0  0  0  0  0  0  0  0  0  0  0
   -6.3580    3.4250    0.3170 C   0  0  0  0  0  0  0  0  0  0  0  0
   -7.0990    2.6860   -0.6030 C   0  0  0  0  0  0  0  0  0  0  0  0
   -6.6940    1.4610   -1.0180 C   0  0  0  0  0  0  0  0  0  0  0  0
   -0.3970    0.3070   -0.3940 C   0  0  1  0  0  0  0  0  0  0  0  0
    2.9040   -0.6370    2.4360 C   0  0  1  0  0  0  0  0  0  0  0  0
    2.7430    0.7220    3.0030 C   0  0  0  0  0  0  0  0  0  0  0  0
    1.7560   -1.5550    2.8570 C   0  0  0  0  0  0  0  0  0  0  0  0
    4.1750   -1.2160    3.1170 C   0  0  0  0  0  0  0  0  0  0  0  0
  1  2  1  0
  2  3  1  0
  3  4  1  1
  3  5  1  0
  5  6  2  0
  5  7  1  0
  8  7  1  6
  8  9  1  0
  8 35  1  0
  9 10  2  0
  9 11  1  0
 11 12  1  0
 34 11  1  6
 12 13  1  0
 14 13  1  6
 14 15  1  0
 14 34  1  0
 15 16  1  0
 16 17  1  0
 17 18  1  6
 17 34  1  0
 18 19  1  0
 19 20  2  0
 21 19  1  1
 21 22  1  0
 21 28  1  0
 22 23  2  0
 22 27  1  0
 23 24  1  0
 24 25  2  0
 25 26  1  0
 26 27  2  0
 28 29  2  0
 28 33  1  0
 29 30  1  0
 30 31  2  0
 31 32  1  0
 32 33  2  0
 35 36  1  6
 35 37  1  0
 35 38  1  0
M  CHG  1   2   1
M  END
