
     RDKit          3D

 18 19  0  0  0  0  0  0  0  0999 V2000
   -0.1720    3.5040   -0.6480 C   0  0  0  0  0  0  0  0  0  0  0  0
   -0.4720    2.0950   -0.2770 C   0  0  0  0  0  0  0  0  0  0  0  0
    0.4560    1.3750    0.2580 N   0  0  0  0  0  0  0  0  0  0  0  0
    0.4270   -0.0050    0.7080 C   0  0  0  0  0  0  0  0  0  0  0  0
    1.5810   -0.4270    1.4230 N   0  0  0  0  0  0  0  0  0  0  0  0
    2.7690   -0.8540    0.8780 N   0  0  0  0  0  0  0  0  0  0  0  0
    3.5310   -0.1190   -0.0950 C   0  0  0  0  0  0  0  0  0  0  0  0
    3.1120    0.9750   -0.4750 O   0  0  0  0  0  0  0  0  0  0  0  0
    4.7260   -0.6210   -0.6100 O   0  0  0  0  0  0  0  0  0  0  0  0
   -0.5020   -0.9090    0.5130 C   0  0  0  0  0  0  0  0  0  0  0  0
   -0.1840   -2.1900    1.1270 C   0  0  0  0  0  0  0  0  0  0  0  0
    0.8330   -2.4040    1.8090 O   0  0  0  0  0  0  0  0  0  0  0  0
   -1.1080   -3.2700    0.9370 N   0  0  0  0  0  0  0  0  0  0  0  0
   -2.1790   -3.1340    0.2550 C   0  0  0  0  0  0  0  0  0  0  0  0
   -2.5520   -1.8880   -0.3800 C   0  0  0  0  0  0  0  0  0  0  0  0
   -1.7450   -0.8130   -0.2570 C   0  0  0  0  0  0  0  0  0  0  0  0
   -2.2920    0.3560   -0.9810 C   0  0  0  0  0  0  0  0  0  0  0  0
   -1.7950    1.6290   -0.5570 N   0  0  0  0  0  0  0  0  0  0  0  0
  1  2  1  0
  2  3  2  0
  2 18  1  0
  3  4  1  0
  4  5  1  0
  4 10  2  0
  5  6  1  0
  6  7  1  0
  7  8  2  0
  7  9  1  0
 10 11  1  0
 10 16  1  0
 11 12  2  0
 11 13  1  0
 13 14  2  0
 14 15  1  0
 15 16  2  0
 16 17  1  0
 17 18  1  0
M  END
