
     RDKit          3D

 18 19  0  0  0  0  0  0  0  0999 V2000
    1.9100   -2.4810   -1.9820 N   0  0  0  0  0  0  0  0  0  0  0  0
    2.2180   -1.3730   -1.9200 C   0  0  0  0  0  0  0  0  0  0  0  0
    2.6200    0.0030   -1.8580 C   0  0  0  0  0  0  0  0  0  0  0  0
    2.0890    0.9860   -1.2050 C   0  0  0  0  0  0  0  0  0  0  0  0
    0.9930    1.0890   -0.3620 N   0  0  0  0  0  0  0  0  0  0  0  0
    0.0870    0.0960    0.0510 C   0  0  0  0  0  0  0  0  0  0  0  0
    0.1540   -1.0740   -0.3060 O   0  0  0  0  0  0  0  0  0  0  0  0
   -1.0140    0.3980    0.9500 N   0  0  0  0  0  0  0  0  0  0  0  0
   -1.9010   -0.6500    1.3340 C   0  0  2  0  0  0  0  0  0  0  0  0
   -3.3400   -0.2920    0.9390 C   0  0  0  0  0  0  0  0  0  0  0  0
   -4.0930   -1.1140    1.9660 C   0  0  0  0  0  0  0  0  0  0  0  0
   -3.3380   -1.1370    3.1080 O   0  0  0  0  0  0  0  0  0  0  0  0
   -2.0450   -0.8080    2.8200 C   0  0  0  0  0  0  0  0  0  0  0  0
    2.9360    2.1710   -1.5230 C   0  0  0  0  0  0  0  0  0  0  0  0
    2.7710    3.3400   -1.0940 O   0  0  0  0  0  0  0  0  0  0  0  0
    3.9750    1.8140   -2.3900 N   0  0  0  0  0  0  0  0  0  0  0  0
    3.8110    0.4320   -2.6320 C   0  0  0  0  0  0  0  0  0  0  0  0
    4.5860   -0.2540   -3.3890 N   0  0  0  0  0  0  0  0  0  0  0  0
  1  2  3  0
  2  3  1  0
  3  4  2  0
  3 17  1  0
  4  5  1  0
  4 14  1  0
  5  6  1  0
  6  7  2  0
  6  8  1  0
  9  8  1  1
  9 10  1  0
  9 13  1  0
 10 11  1  0
 11 12  1  0
 12 13  1  0
 14 15  2  0
 14 16  1  0
 16 17  1  0
 17 18  2  0
M  END
