
     RDKit          3D

 18 19  0  0  0  0  0  0  0  0999 V2000
    0.5840   -0.6930   -1.2080 O   0  0  0  0  0  0  0  0  0  0  0  0
    0.8570    0.0920   -0.2650 C   0  0  0  0  0  0  0  0  0  0  0  0
    2.2190    0.6720   -0.1310 C   0  0  0  0  0  0  0  0  0  0  0  0
    3.0830    0.1590   -1.2600 C   0  0  1  0  0  0  0  0  0  0  0  0
    4.4680    0.7860   -1.0750 C   0  0  0  0  0  0  0  0  0  0  0  0
    4.9290    0.0270    0.1400 C   0  0  0  0  0  0  0  0  0  0  0  0
    4.2910   -1.1320    0.1870 C   0  0  0  0  0  0  0  0  0  0  0  0
    3.3980   -1.2210   -0.9440 N   0  0  0  0  0  0  0  0  0  0  0  0
   -0.1100    0.4570    0.7050 N   0  0  0  0  0  0  0  0  0  0  0  0
   -1.3950   -0.0460    0.6400 N   0  0  0  0  0  0  0  0  0  0  0  0
   -2.5340    0.8030    0.5700 C   0  0  0  0  0  0  0  0  0  0  0  0
   -2.3470    2.0510    0.5690 O   0  0  0  0  0  0  0  0  0  0  0  0
   -3.8520    0.2640    0.5020 N   0  0  0  0  0  0  0  0  0  0  0  0
   -4.1370   -1.0520    0.4980 C   0  0  0  0  0  0  0  0  0  0  0  0
   -5.5030   -1.1600    0.4250 C   0  0  0  0  0  0  0  0  0  0  0  0
   -6.0100    0.0680    0.3870 N   0  0  0  0  0  0  0  0  0  0  0  0
   -4.9920    0.9640    0.4340 C   0  0  0  0  0  0  0  0  0  0  0  0
   -5.1480    2.2120    0.4150 O   0  0  0  0  0  0  0  0  0  0  0  0
  1  2  2  0
  2  3  1  0
  2  9  1  0
  4  3  1  1
  4  5  1  0
  4  8  1  0
  5  6  1  0
  6  7  2  0
  7  8  1  0
  9 10  1  0
 10 11  1  0
 11 12  2  0
 11 13  1  0
 13 14  1  0
 13 17  1  0
 14 15  2  0
 15 16  1  0
 16 17  1  0
 17 18  2  0
M  END
