
     RDKit          3D

 27 27  0  0  0  0  0  0  0  0999 V2000
   -2.4320   -0.9000   -0.5280 C   0  0  0  0  0  0  0  0  0  0  0  0
   -1.9520    0.5510   -0.4790 C   0  0  2  0  0  0  0  0  0  0  0  0
   -1.1980    0.7860   -1.7430 C   0  0  0  0  0  0  0  0  0  0  0  0
   -1.2650    0.7630    0.7310 N   0  0  0  0  0  0  0  0  0  0  0  0
   -0.2790   -0.0520    1.1790 N   0  0  0  0  0  0  0  0  0  0  0  0
    0.9790   -0.2940    0.5890 C   0  0  0  0  0  0  0  0  0  0  0  0
    1.5350    0.2290   -0.4800 N   0  0  0  0  0  0  0  0  0  0  0  0
    2.8530   -0.1720   -0.9080 C   0  0  0  0  0  0  0  0  0  0  0  0
    3.8950    0.8030   -0.4660 C   0  0  0  0  0  0  0  0  0  0  0  0
    3.5700    1.8200    0.1930 O   0  0  0  0  0  0  0  0  0  0  0  0
    5.2930    0.5990   -0.7860 C   0  0  0  0  0  0  0  0  0  0  0  0
    6.2240    1.5280   -0.3560 O   0  0  0  0  0  0  0  0  0  0  0  0
    5.7220   -0.4420   -1.4740 C   0  0  0  0  0  0  0  0  0  0  0  0
    4.8640   -1.4370   -1.9540 O   0  0  0  0  0  0  0  0  0  0  0  0
    1.6380   -1.2590    1.4000 N   0  0  0  0  0  0  0  0  0  0  0  0
    0.9310   -1.6030    2.3870 C   0  0  0  0  0  0  0  0  0  0  0  0
    1.3470   -2.6130    3.4270 C   0  0  0  0  0  0  0  0  0  0  0  0
    0.3940   -3.6480    3.4850 O   0  0  0  0  0  0  0  0  0  0  0  0
   -0.3300   -0.8380    2.4070 C   0  0  1  0  0  0  0  0  0  0  0  0
   -0.2360    0.0680    3.4940 F   0  0  0  0  0  0  0  0  0  0  0  0
   -1.7780   -1.8540    2.6060 S   0  0  0  0  0  0  0  0  0  0  0  0
   -3.1860   -0.9240    2.8140 F   0  0  0  0  0  0  0  0  0  0  0  0
   -3.2330    1.3820   -0.4270 C   0  0  2  0  0  0  0  0  0  0  0  0
   -2.8540    2.7390   -0.2750 O   0  0  0  0  0  0  0  0  0  0  0  0
   -3.9960    1.0870    0.6980 O   0  0  0  0  0  0  0  0  0  0  0  0
   -4.1020    1.3100   -1.6150 C   0  0  0  0  0  0  0  0  0  0  0  0
   -4.5790    0.0410   -1.9260 O   0  0  0  0  0  0  0  0  0  0  0  0
  2  1  1  6
  2  3  1  0
  2  4  1  0
  2 23  1  0
  4  5  1  0
  5  6  1  0
  5 19  1  0
  6  7  2  3
  6 15  1  0
  7  8  1  0
  8  9  1  0
  9 10  2  0
  9 11  1  0
 11 12  1  0
 11 13  2  3
 13 14  1  0
 15 16  2  0
 16 17  1  0
 16 19  1  0
 17 18  1  0
 19 20  1  1
 19 21  1  0
 21 22  1  0
 23 24  1  1
 23 25  1  0
 23 26  1  0
 26 27  1  0
M  CHG  1  18  -1
M  END
