
     RDKit          3D

 18 19  0  0  0  0  0  0  0  0999 V2000
    6.6900   -0.4660    0.4170 C   0  0  0  0  0  0  0  0  0  0  0  0
    5.2370   -0.2160    0.6070 C   0  0  0  0  0  0  0  0  0  0  0  0
    4.7640    0.9640    0.6630 O   0  0  0  0  0  0  0  0  0  0  0  0
    4.2600   -1.2490    0.7420 N   0  0  0  0  0  0  0  0  0  0  0  0
    2.9200   -0.9580    0.9220 N   0  0  0  0  0  0  0  0  0  0  0  0
    2.2030   -0.3200   -0.1180 C   0  0  0  0  0  0  0  0  0  0  0  0
    2.8000   -0.0190   -1.2020 O   0  0  0  0  0  0  0  0  0  0  0  0
    0.8140   -0.0410    0.0930 C   0  0  0  0  0  0  0  0  0  0  0  0
    0.1990   -0.2130    1.1710 O   0  0  0  0  0  0  0  0  0  0  0  0
    0.0000    0.4440   -0.9170 N   0  0  0  0  0  0  0  0  0  0  0  0
   -1.3540    0.7450   -0.7030 C   0  0  0  0  0  0  0  0  0  0  0  0
   -2.1820    0.6440   -1.5940 N   0  0  0  0  0  0  0  0  0  0  0  0
   -3.4930    0.9920   -1.1430 C   0  0  1  0  0  0  0  0  0  0  0  0
   -4.4830   -0.0880   -1.1670 C   0  0  0  0  0  0  0  0  0  0  0  0
   -4.0790   -1.0310   -0.0480 C   0  0  0  0  0  0  0  0  0  0  0  0
   -3.4210   -0.1220    0.9850 C   0  0  0  0  0  0  0  0  0  0  0  0
   -3.2870    1.2160    0.3790 C   0  0  1  0  0  0  0  0  0  0  0  0
   -1.9550    1.6790    0.2760 N   0  0  0  0  0  0  0  0  0  0  0  0
  1  2  1  0
  2  3  2  0
  2  4  1  0
  4  5  1  0
  5  6  1  0
  6  7  2  0
  6  8  1  0
  8  9  2  0
  8 10  1  0
 10 11  1  0
 11 12  2  0
 11 18  1  0
 12 13  1  0
 13 14  1  1
 13 17  1  0
 14 15  1  0
 15 16  1  0
 17 16  1  1
 17 18  1  0
M  END
