
     RDKit          3D

 18 19  0  0  0  0  0  0  0  0999 V2000
    2.5710   -0.3360    2.1770 C   0  0  0  0  0  0  0  0  0  0  0  0
    2.3120   -0.6120    0.7650 N   0  0  0  0  0  0  0  0  0  0  0  0
    3.1450   -1.3230   -0.1620 C   0  0  0  0  0  0  0  0  0  0  0  0
    2.3770   -1.2850   -1.4250 C   0  0  0  0  0  0  0  0  0  0  0  0
    1.2460   -0.6470   -1.2870 C   0  0  0  0  0  0  0  0  0  0  0  0
    1.1340   -0.1860    0.0900 C   0  0  0  0  0  0  0  0  0  0  0  0
    0.1510    0.4740    0.5690 N   0  0  0  0  0  0  0  0  0  0  0  0
   -0.9640    0.8270   -0.2410 C   0  0  0  0  0  0  0  0  0  0  0  0
   -0.8340    1.5460   -1.3750 N   0  0  0  0  0  0  0  0  0  0  0  0
   -1.8860    1.8810   -2.1440 C   0  0  0  0  0  0  0  0  0  0  0  0
   -1.7720    2.5530   -3.2050 O   0  0  0  0  0  0  0  0  0  0  0  0
   -3.1620    1.4900   -1.7860 C   0  0  0  0  0  0  0  0  0  0  0  0
   -4.1480    1.8050   -2.5070 O   0  0  0  0  0  0  0  0  0  0  0  0
   -3.2930    0.7720   -0.6550 N   0  0  0  0  0  0  0  0  0  0  0  0
   -2.2390    0.4380    0.1130 C   0  0  0  0  0  0  0  0  0  0  0  0
   -2.4320   -0.3450    1.3360 C   0  0  0  0  0  0  0  0  0  0  0  0
   -1.3330   -0.7000    2.1460 N   0  0  0  0  0  0  0  0  0  0  0  0
   -3.6040   -0.7010    1.6580 O   0  0  0  0  0  0  0  0  0  0  0  0
  1  2  1  0
  2  3  1  0
  2  6  1  0
  3  4  1  0
  4  5  2  0
  5  6  1  0
  6  7  2  3
  7  8  1  0
  8  9  1  0
  8 15  2  0
  9 10  1  0
 10 11  2  0
 10 12  1  0
 12 13  2  0
 12 14  1  0
 14 15  1  0
 15 16  1  0
 16 17  1  0
 16 18  2  0
M  END
