
     RDKit          3D

 12 11  0  0  0  0  0  0  0  0999 V2000
   -2.0790   -0.3740   -1.2100 N   0  0  0  0  0  0  0  0  0  0  0  0
   -1.8030   -0.0560    0.1720 C   0  0  1  0  0  0  0  0  0  0  0  0
   -0.2960    0.0730    0.4170 C   0  0  0  0  0  0  0  0  0  0  0  0
    0.4230   -1.1710    0.1020 C   0  0  0  0  0  0  0  0  0  0  0  0
    1.8760   -1.2720    0.3170 C   0  0  0  0  0  0  0  0  0  0  0  0
    2.7900   -0.3400   -0.3640 C   0  0  0  0  0  0  0  0  0  0  0  0
    2.7650    1.0360   -0.0280 N   0  0  0  0  0  0  0  0  0  0  0  0
    2.2520    1.4860    0.9990 O   0  0  0  0  0  0  0  0  0  0  0  0
    3.3930    1.9290   -0.8610 O   0  0  0  0  0  0  0  0  0  0  0  0
   -2.4240    1.2540    0.4590 C   0  0  0  0  0  0  0  0  0  0  0  0
   -2.3020    1.7190    1.6140 O   0  0  0  0  0  0  0  0  0  0  0  0
   -3.1280    1.9920   -0.4710 O   0  0  0  0  0  0  0  0  0  0  0  0
  2  1  1  6
  2  3  1  0
  2 10  1  0
  3  4  1  0
  4  5  1  0
  5  6  1  0
  6  7  1  0
  7  8  2  0
  7  9  1  0
 10 11  2  0
 10 12  1  0
M  CHG  3   1   1   7   1   9  -1
M  END
