
     RDKit          3D

 18 19  0  0  0  0  0  0  0  0999 V2000
   -0.4120   -2.4490   -0.1200 C   0  0  0  0  0  0  0  0  0  0  0  0
    0.0290   -1.1570    0.4740 C   0  0  1  0  0  0  0  0  0  0  0  0
    1.4060   -0.8500    0.0160 C   0  0  0  0  0  0  0  0  0  0  0  0
    2.2460   -1.8000   -0.1790 O   0  0  0  0  0  0  0  0  0  0  0  0
    1.9100    0.4480   -0.2390 N   0  0  0  0  0  0  0  0  0  0  0  0
    3.2280    0.7420   -0.6770 C   0  0  0  0  0  0  0  0  0  0  0  0
    3.6840    1.9950   -0.9140 N   0  0  0  0  0  0  0  0  0  0  0  0
    4.9450    1.9470   -1.3070 N   0  0  0  0  0  0  0  0  0  0  0  0
    5.3480    0.6700   -1.3390 C   0  0  0  0  0  0  0  0  0  0  0  0
    6.4940    0.2280   -1.6660 O   0  0  0  0  0  0  0  0  0  0  0  0
    4.2760   -0.0440   -0.9480 N   0  0  0  0  0  0  0  0  0  0  0  0
   -0.8810   -0.0580    0.3650 N   0  0  0  0  0  0  0  0  0  0  0  0
   -2.0770   -0.3750    1.1360 C   0  0  0  0  0  0  0  0  0  0  0  0
   -3.0130    0.7890    1.2460 C   0  0  0  0  0  0  0  0  0  0  0  0
   -3.1040    1.4900   -0.0940 C   0  0  0  0  0  0  0  0  0  0  0  0
   -2.7100    0.5270   -1.1650 C   0  0  2  0  0  0  0  0  0  0  0  0
   -3.4910   -0.5970   -1.2530 O   0  0  0  0  0  0  0  0  0  0  0  0
   -1.2380    0.2010   -1.0240 C   0  0  0  0  0  0  0  0  0  0  0  0
  2  1  1  6
  2  3  1  0
  2 12  1  0
  3  4  2  0
  3  5  1  0
  5  6  1  0
  6  7  2  0
  6 11  1  0
  7  8  1  0
  8  9  1  0
  9 10  2  0
  9 11  1  0
 12 13  1  0
 12 18  1  0
 13 14  1  0
 14 15  1  0
 15 16  1  0
 16 17  1  1
 16 18  1  0
M  END
