
     RDKit          3D

 35 38  0  0  0  0  0  0  0  0999 V2000
   10.9800    1.4540   -0.4780 C   0  0  0  0  0  0  0  0  0  0  0  0
   11.0020    0.0790    0.6900 S   0  0  0  0  0  0  0  0  0  0  0  0
    9.5940    0.1890    1.8270 C   0  0  0  0  0  0  0  0  0  0  0  0
    8.3170   -0.0020    1.1070 C   0  0  0  0  0  0  0  0  0  0  0  0
    8.2850   -0.2310   -0.2630 C   0  0  0  0  0  0  0  0  0  0  0  0
    7.0960   -0.4060   -0.9150 C   0  0  0  0  0  0  0  0  0  0  0  0
    5.8580   -0.3620   -0.2360 C   0  0  0  0  0  0  0  0  0  0  0  0
    4.6830   -0.5640   -0.9850 N   0  0  0  0  0  0  0  0  0  0  0  0
    3.3680   -0.3810   -0.5190 C   0  0  0  0  0  0  0  0  0  0  0  0
    3.1910   -0.0060    0.6510 O   0  0  0  0  0  0  0  0  0  0  0  0
    2.2400   -0.6190   -1.3660 N   0  0  0  0  0  0  0  0  0  0  0  0
    0.8970   -0.4630   -0.9830 C   0  0  0  0  0  0  0  0  0  0  0  0
    0.4170   -0.0670    0.2330 C   0  0  0  0  0  0  0  0  0  0  0  0
   -0.9380    0.0630    0.5310 C   0  0  0  0  0  0  0  0  0  0  0  0
   -1.9070   -0.2190   -0.4420 C   0  0  0  0  0  0  0  0  0  0  0  0
   -3.2620   -0.0470   -0.0770 N   0  0  0  0  0  0  0  0  0  0  0  0
   -4.3410   -0.5790   -0.8080 C   0  0  0  0  0  0  0  0  0  0  0  0
   -4.1470   -1.2720   -1.8580 O   0  0  0  0  0  0  0  0  0  0  0  0
   -5.7420   -0.3650   -0.4000 C   0  0  0  0  0  0  0  0  0  0  0  0
   -6.8190   -0.9820   -0.9970 C   0  0  0  0  0  0  0  0  0  0  0  0
   -7.9790   -0.5680   -0.3890 C   0  0  0  0  0  0  0  0  0  0  0  0
   -9.3530   -0.9700   -0.7080 C   0  0  0  0  0  0  0  0  0  0  0  0
   -9.5460   -1.9350   -1.8220 C   0  0  0  0  0  0  0  0  0  0  0  0
  -10.3200   -0.5030   -0.0490 O   0  0  0  0  0  0  0  0  0  0  0  0
   -7.5810    0.3210    0.6000 C   0  0  0  0  0  0  0  0  0  0  0  0
   -6.2250    0.4310    0.5760 N   0  0  0  0  0  0  0  0  0  0  0  0
   -5.7750    1.3650    1.5790 C   0  0  0  0  0  0  0  0  0  0  0  0
   -7.0020    2.0400    2.0960 C   0  0  0  0  0  0  0  0  0  0  0  0
   -8.1350    1.1790    1.6750 C   0  0  0  0  0  0  0  0  0  0  0  0
   -1.4400   -0.6140   -1.6570 C   0  0  0  0  0  0  0  0  0  0  0  0
   -0.0810   -0.7410   -1.9460 C   0  0  0  0  0  0  0  0  0  0  0  0
    0.4200   -1.2600   -3.5440 Cl  0  0  0  0  0  0  0  0  0  0  0  0
    5.9570   -0.1340    1.1050 C   0  0  0  0  0  0  0  0  0  0  0  0
    7.1370    0.0480    1.8040 C   0  0  0  0  0  0  0  0  0  0  0  0
    7.1830    0.2770    3.1660 O   0  0  0  0  0  0  0  0  0  0  0  0
  1  2  1  0
  2  3  1  0
  3  4  1  0
  4  5  2  0
  4 34  1  0
  5  6  1  0
  6  7  2  0
  7  8  1  0
  7 33  1  0
  8  9  1  0
  9 10  2  0
  9 11  1  0
 11 12  1  0
 12 13  2  0
 12 31  1  0
 13 14  1  0
 14 15  2  0
 15 16  1  0
 15 30  1  0
 16 17  1  0
 17 18  2  0
 17 19  1  0
 19 20  2  0
 19 26  1  0
 20 21  1  0
 21 22  1  0
 21 25  2  0
 22 23  1  0
 22 24  2  0
 25 26  1  0
 25 29  1  0
 26 27  1  0
 27 28  1  0
 28 29  1  0
 30 31  2  0
 31 32  1  0
 33 34  2  0
 34 35  1  0
M  END
