
     RDKit          3D

 35 38  0  0  0  0  0  0  0  0999 V2000
   -2.7760   -1.0610    3.7300 C   0  0  0  0  0  0  0  0  0  0  0  0
   -2.8850   -0.8290    2.3080 N   0  0  0  0  0  0  0  0  0  0  0  0
   -3.2910   -1.8320    1.3850 C   0  0  0  0  0  0  0  0  0  0  0  0
   -3.7000   -3.0870    1.7500 N   0  0  0  0  0  0  0  0  0  0  0  0
   -4.0720   -3.7790    0.6610 C   0  0  0  0  0  0  0  0  0  0  0  0
   -4.5550   -5.0560    0.4520 C   0  0  0  0  0  0  0  0  0  0  0  0
   -4.8560   -5.4980   -0.8100 C   0  0  0  0  0  0  0  0  0  0  0  0
   -4.6820   -4.6700   -1.9140 C   0  0  0  0  0  0  0  0  0  0  0  0
   -4.2010   -3.3910   -1.7280 C   0  0  0  0  0  0  0  0  0  0  0  0
   -3.9130   -2.9940   -0.4410 C   0  0  0  0  0  0  0  0  0  0  0  0
   -3.4160   -1.7570    0.0180 C   0  0  0  0  0  0  0  0  0  0  0  0
   -3.0470   -0.6370   -0.8260 C   0  0  0  0  0  0  0  0  0  0  0  0
   -4.0090   -0.0440   -1.6710 N   0  0  0  0  0  0  0  0  0  0  0  0
   -1.8010   -0.1030   -0.8580 C   0  0  0  0  0  0  0  0  0  0  0  0
   -0.6360   -0.8580    0.1900 S   0  0  0  0  0  0  0  0  0  0  0  0
    1.0070   -0.2420    0.1940 C   0  0  0  0  0  0  0  0  0  0  0  0
    1.3070    0.6970   -0.5590 O   0  0  0  0  0  0  0  0  0  0  0  0
    2.0070   -0.7920    1.0360 N   0  0  0  0  0  0  0  0  0  0  0  0
    3.3370   -0.3680    1.1050 C   0  0  0  0  0  0  0  0  0  0  0  0
    3.9190    0.6300    0.3830 C   0  0  0  0  0  0  0  0  0  0  0  0
    5.2740    0.9780    0.5290 C   0  0  0  0  0  0  0  0  0  0  0  0
    6.0570    0.2970    1.4270 C   0  0  0  0  0  0  0  0  0  0  0  0
    5.5060   -0.7130    2.1710 C   0  0  0  0  0  0  0  0  0  0  0  0
    4.1930   -1.0260    2.0080 C   0  0  0  0  0  0  0  0  0  0  0  0
    3.5210   -2.3310    2.9820 Cl  0  0  0  0  0  0  0  0  0  0  0  0
    7.4390    0.8670    1.3770 C   0  0  0  0  0  0  0  0  0  0  0  0
    7.4870    1.4760   -0.0270 C   0  0  0  0  0  0  0  0  0  0  0  0
    6.0770    2.0120   -0.1500 C   0  0  0  0  0  0  0  0  0  0  0  0
   -1.5560    1.0200   -1.7410 C   0  0  0  0  0  0  0  0  0  0  0  0
   -2.5580    1.4500   -2.4540 O   0  0  0  0  0  0  0  0  0  0  0  0
   -0.4040    1.7090   -1.9390 O   0  0  0  0  0  0  0  0  0  0  0  0
   -0.2610    2.8010   -2.8280 C   0  0  0  0  0  0  0  0  0  0  0  0
   -1.1710    3.9600   -2.4790 C   0  0  0  0  0  0  0  0  0  0  0  0
   -0.8910    4.4270   -1.1980 O   0  0  0  0  0  0  0  0  0  0  0  0
   -1.7410    5.4890   -0.9090 C   0  0  0  0  0  0  0  0  0  0  0  0
  1  2  1  0
  2  3  1  0
  3  4  1  0
  3 11  2  0
  4  5  1  0
  5  6  2  0
  5 10  1  0
  6  7  1  0
  7  8  2  0
  8  9  1  0
  9 10  2  0
 10 11  1  0
 11 12  1  0
 12 13  1  0
 12 14  2  3
 14 15  1  0
 14 29  1  0
 15 16  1  0
 16 17  2  0
 16 18  1  0
 18 19  1  0
 19 20  2  0
 19 24  1  0
 20 21  1  0
 21 22  2  0
 21 28  1  0
 22 23  1  0
 22 26  1  0
 23 24  2  0
 24 25  1  0
 26 27  1  0
 27 28  1  0
 29 30  2  0
 29 31  1  0
 31 32  1  0
 32 33  1  0
 33 34  1  0
 34 35  1  0
M  END
