
     RDKit          3D

 35 38  0  0  0  0  0  0  0  0999 V2000
    0.1210   -5.2330    0.8130 C   0  0  0  0  0  0  0  0  0  0  0  0
    1.6070   -5.0100    0.8420 C   0  0  0  0  0  0  0  0  0  0  0  0
    2.0830   -3.9260   -0.0670 C   0  0  0  0  0  0  0  0  0  0  0  0
    1.5240   -2.6220    0.2150 N   0  0  0  0  0  0  0  0  0  0  0  0
    2.1560   -1.8200    1.0980 C   0  0  0  0  0  0  0  0  0  0  0  0
    1.6190   -0.5800    1.3690 C   0  0  0  0  0  0  0  0  0  0  0  0
    2.2860    0.3180    2.3200 C   0  0  0  0  0  0  0  0  0  0  0  0
    2.9310    1.4430    1.6790 N   0  0  0  0  0  0  0  0  0  0  0  0
    4.1990    1.1880    0.9950 C   0  0  0  0  0  0  0  0  0  0  0  0
    4.5980    0.0550    1.0290 O   0  0  0  0  0  0  0  0  0  0  0  0
    4.8690    2.2310    0.3550 N   0  0  0  0  0  0  0  0  0  0  0  0
    6.0950    2.1870   -0.3540 C   0  0  0  0  0  0  0  0  0  0  0  0
    6.8730    1.1880   -0.5730 C   0  0  0  0  0  0  0  0  0  0  0  0
    6.4470   -0.4140    0.0570 Cl  0  0  0  0  0  0  0  0  0  0  0  0
    8.1710    1.0900   -1.3130 C   0  0  0  0  0  0  0  0  0  0  0  0
    8.7370    2.6190   -2.0010 S   0  0  0  0  0  0  0  0  0  0  0  0
    7.5100    3.8250   -1.5690 C   0  0  0  0  0  0  0  0  0  0  0  0
    6.4620    3.5410   -0.8880 C   0  0  0  0  0  0  0  0  0  0  0  0
    0.4870   -0.1470    0.7820 N   0  0  0  0  0  0  0  0  0  0  0  0
   -0.1360   -0.9500   -0.0950 C   0  0  0  0  0  0  0  0  0  0  0  0
   -1.3730   -0.5430   -0.7730 C   0  0  0  0  0  0  0  0  0  0  0  0
   -1.4850   -0.7710   -2.1330 C   0  0  0  0  0  0  0  0  0  0  0  0
   -2.6460   -0.3870   -2.7710 C   0  0  0  0  0  0  0  0  0  0  0  0
   -3.6890    0.2160   -2.0820 C   0  0  0  0  0  0  0  0  0  0  0  0
   -4.8260    0.5830   -2.7530 O   0  0  0  0  0  0  0  0  0  0  0  0
   -3.6040    0.4520   -0.7440 C   0  0  0  0  0  0  0  0  0  0  0  0
   -4.5250    1.0260    0.0620 O   0  0  0  0  0  0  0  0  0  0  0  0
   -5.7790    1.5400   -0.1430 C   0  0  1  0  0  0  0  0  0  0  0  0
   -6.7490    0.6650    0.6690 C   0  0  0  0  0  0  0  0  0  0  0  0
   -7.7080    1.5790    1.3500 C   0  0  0  0  0  0  0  0  0  0  0  0
   -7.5030    2.9180    0.6430 C   0  0  0  0  0  0  0  0  0  0  0  0
   -5.9920    2.9040    0.4940 C   0  0  0  0  0  0  0  0  0  0  0  0
   -2.4110    0.0520   -0.1180 C   0  0  0  0  0  0  0  0  0  0  0  0
    0.3960   -2.1910   -0.3710 C   0  0  0  0  0  0  0  0  0  0  0  0
   -0.1640   -2.9840   -1.1970 O   0  0  0  0  0  0  0  0  0  0  0  0
  1  2  1  0
  2  3  1  0
  3  4  1  0
  4  5  1  0
  4 34  1  0
  5  6  2  0
  6  7  1  0
  6 19  1  0
  7  8  1  0
  8  9  1  0
  9 10  2  0
  9 11  1  0
 11 12  1  0
 12 13  2  0
 12 18  1  0
 13 14  1  0
 13 15  1  0
 15 16  1  0
 16 17  1  0
 17 18  2  0
 19 20  2  0
 20 21  1  0
 20 34  1  0
 21 22  2  0
 21 33  1  0
 22 23  1  0
 23 24  2  0
 24 25  1  0
 24 26  1  0
 26 27  1  0
 26 33  2  0
 28 27  1  1
 28 29  1  0
 28 32  1  0
 29 30  1  0
 30 31  1  0
 31 32  1  0
 34 35  2  0
M  END
