
     RDKit          3D

 35 38  0  0  0  0  0  0  0  0999 V2000
   -8.5880   -2.0000    0.6260 C   0  0  0  0  0  0  0  0  0  0  0  0
   -7.4620   -2.6790    0.7560 C   0  0  0  0  0  0  0  0  0  0  0  0
   -7.4120   -4.1230    1.0760 C   0  0  0  0  0  0  0  0  0  0  0  0
   -6.1240   -4.4140    1.1170 C   0  0  0  0  0  0  0  0  0  0  0  0
   -5.3170   -3.2460    0.8440 C   0  0  0  0  0  0  0  0  0  0  0  0
   -6.1030   -2.1860    0.6230 C   0  0  0  0  0  0  0  0  0  0  0  0
   -5.7020   -0.8260    0.3140 C   0  0  0  0  0  0  0  0  0  0  0  0
   -6.5630    0.0540    0.1340 O   0  0  0  0  0  0  0  0  0  0  0  0
   -4.3200   -0.4450    0.2050 N   0  0  0  0  0  0  0  0  0  0  0  0
   -3.9510    0.8920   -0.0980 C   0  0  0  0  0  0  0  0  0  0  0  0
   -4.9720    1.7970   -0.2800 N   0  0  0  0  0  0  0  0  0  0  0  0
   -4.7560    3.0560   -0.5630 C   0  0  0  0  0  0  0  0  0  0  0  0
   -3.4520    3.4770   -0.6800 C   0  0  0  0  0  0  0  0  0  0  0  0
   -3.1690    4.7940   -0.9770 O   0  0  0  0  0  0  0  0  0  0  0  0
   -4.1720    5.7440   -1.1700 C   0  0  0  0  0  0  0  0  0  0  0  0
   -2.3920    2.5740   -0.4980 C   0  0  0  0  0  0  0  0  0  0  0  0
   -2.6320    1.2550   -0.2010 C   0  0  0  0  0  0  0  0  0  0  0  0
   -1.6120    0.3090   -0.0100 N   0  0  0  0  0  0  0  0  0  0  0  0
   -0.2230    0.5010   -0.0770 C   0  0  0  0  0  0  0  0  0  0  0  0
    0.2450    1.6220   -0.3340 O   0  0  0  0  0  0  0  0  0  0  0  0
    0.7370   -0.5950    0.1490 C   0  0  0  0  0  0  0  0  0  0  0  0
    0.2720   -1.7240    0.4080 O   0  0  0  0  0  0  0  0  0  0  0  0
    2.1310   -0.3890    0.0790 N   0  0  0  0  0  0  0  0  0  0  0  0
    3.0190   -1.5330    0.3170 C   0  0  0  0  0  0  0  0  0  0  0  0
    4.4150   -1.1470    0.2070 C   0  0  0  0  0  0  0  0  0  0  0  0
    5.5830   -1.8220    0.3360 C   0  0  0  0  0  0  0  0  0  0  0  0
    6.7370   -1.1570    0.1680 C   0  0  0  0  0  0  0  0  0  0  0  0
    8.0400   -1.7040    0.2660 C   0  0  0  0  0  0  0  0  0  0  0  0
    9.1320   -0.9220    0.0730 C   0  0  0  0  0  0  0  0  0  0  0  0
   10.7470   -1.6370    0.2040 Cl  0  0  0  0  0  0  0  0  0  0  0  0
    9.0840    0.4060   -0.2200 C   0  0  0  0  0  0  0  0  0  0  0  0
   10.2800    1.2150   -0.4210 C   0  0  0  0  0  0  0  0  0  0  0  0
    7.8210    0.9810   -0.3260 C   0  0  0  0  0  0  0  0  0  0  0  0
    6.7190    0.1680   -0.1260 C   0  0  0  0  0  0  0  0  0  0  0  0
    4.9360    0.4950   -0.1670 S   0  0  0  0  0  0  0  0  0  0  0  0
  1  2  2  0
  2  3  1  0
  2  6  1  0
  3  4  2  0
  4  5  1  0
  5  6  2  0
  6  7  1  0
  7  8  2  0
  7  9  1  0
  9 10  1  0
 10 11  2  0
 10 17  1  0
 11 12  1  0
 12 13  2  0
 13 14  1  0
 13 16  1  0
 14 15  1  0
 16 17  2  0
 17 18  1  0
 18 19  1  0
 19 20  2  0
 19 21  1  0
 21 22  2  0
 21 23  1  0
 23 24  1  0
 24 25  1  0
 25 26  2  0
 25 35  1  0
 26 27  1  0
 27 28  2  0
 27 34  1  0
 28 29  1  0
 29 30  1  0
 29 31  2  0
 31 32  1  0
 31 33  1  0
 33 34  2  0
 34 35  1  0
M  END
