
     RDKit          3D

 33 34  0  0  0  0  0  0  0  0999 V2000
    2.1310    4.9430   -0.6930 O   0  0  0  0  0  0  0  0  0  0  0  0
    0.9780    5.2400   -0.3180 C   0  0  0  0  0  0  0  0  0  0  0  0
    0.4500    6.4590   -0.7100 O   0  0  0  0  0  0  0  0  0  0  0  0
   -0.8690    6.8290   -0.3010 C   0  0  0  0  0  0  0  0  0  0  0  0
   -1.6160    5.6580   -0.2220 O   0  0  0  0  0  0  0  0  0  0  0  0
   -1.1580    4.9010    0.8370 C   0  0  0  0  0  0  0  0  0  0  0  0
    0.2210    4.3000    0.5190 C   0  0  1  0  0  0  0  0  0  0  0  0
   -0.0370    3.0680   -0.1290 O   0  0  0  0  0  0  0  0  0  0  0  0
    0.3210    1.8450    0.3940 C   0  0  0  0  0  0  0  0  0  0  0  0
    0.9010    1.8200    1.4930 O   0  0  0  0  0  0  0  0  0  0  0  0
    0.0440    0.5240   -0.3000 C   0  0  1  0  0  0  0  0  0  0  0  0
   -0.5360    0.9210   -1.5390 O   0  0  0  0  0  0  0  0  0  0  0  0
    1.1880   -0.1190   -0.6170 O   0  0  0  0  0  0  0  0  0  0  0  0
    2.0260   -0.6030    0.3170 C   0  0  2  0  0  0  0  0  0  0  0  0
    3.4610   -0.0780    0.1440 C   0  0  0  0  0  0  0  0  0  0  0  0
    4.4120   -1.0460    0.4060 O   0  0  0  0  0  0  0  0  0  0  0  0
    4.3700   -2.0920   -0.5160 C   0  0  1  0  0  0  0  0  0  0  0  0
    4.9220   -3.3200    0.1780 C   0  0  0  0  0  0  0  0  0  0  0  0
    6.2280   -3.0230    0.5610 O   0  0  0  0  0  0  0  0  0  0  0  0
    2.9210   -2.2820   -0.9220 C   0  0  0  0  0  0  0  0  0  0  0  0
    2.1410   -1.9830    0.1920 O   0  0  0  0  0  0  0  0  0  0  0  0
   -0.9960   -0.1520    0.4880 C   0  0  2  0  0  0  0  0  0  0  0  0
   -0.4470   -0.5620    1.7180 O   0  0  0  0  0  0  0  0  0  0  0  0
   -1.8710   -1.2040   -0.0690 C   0  0  2  0  0  0  0  0  0  0  0  0
   -1.1090   -2.4300   -0.5730 C   0  0  0  0  0  0  0  0  0  0  0  0
   -0.2470   -2.0870   -1.6070 O   0  0  0  0  0  0  0  0  0  0  0  0
   -2.5320   -0.6670   -1.3390 C   0  0  0  0  0  0  0  0  0  0  0  0
   -3.5120   -1.5850   -2.0110 C   0  0  0  0  0  0  0  0  0  0  0  0
   -4.6310   -1.9090   -1.2700 O   0  0  0  0  0  0  0  0  0  0  0  0
   -2.9270   -1.6100    0.9040 C   0  0  0  0  0  0  0  0  0  0  0  0
   -2.4830   -2.1500    2.2300 C   0  0  1  0  0  0  0  0  0  0  0  0
   -3.6670   -2.5030    2.9770 O   0  0  0  0  0  0  0  0  0  0  0  0
   -1.7730   -3.3400    2.1310 O   0  0  0  0  0  0  0  0  0  0  0  0
  1  2  2  0
  2  3  1  0
  2  7  1  0
  3  4  1  0
  4  5  1  0
  5  6  1  0
  6  7  1  0
  7  8  1  6
  8  9  1  0
  9 10  2  0
  9 11  1  0
 11 12  1  6
 11 13  1  0
 11 22  1  0
 14 13  1  6
 14 15  1  0
 14 21  1  0
 15 16  1  0
 16 17  1  0
 17 18  1  1
 17 20  1  0
 18 19  1  0
 20 21  1  0
 22 23  1  1
 22 24  1  0
 24 25  1  6
 24 27  1  0
 24 30  1  0
 25 26  1  0
 27 28  1  0
 28 29  1  0
 30 31  1  0
 31 32  1  1
 31 33  1  0
M  END
