
     RDKit          3D

 35 38  0  0  0  0  0  0  0  0999 V2000
   -9.2910   -0.0240    0.6050 C   0  0  0  0  0  0  0  0  0  0  0  0
   -7.9860   -0.2860    0.3690 C   0  0  0  0  0  0  0  0  0  0  0  0
   -7.2890    0.5470   -0.5880 C   0  0  0  0  0  0  0  0  0  0  0  0
   -7.8450    1.5620   -1.2370 C   0  0  0  0  0  0  0  0  0  0  0  0
   -6.9850    2.3330   -2.1990 C   0  0  0  0  0  0  0  0  0  0  0  0
   -5.8970    0.2450   -0.8450 N   0  0  0  0  0  0  0  0  0  0  0  0
   -5.3280   -0.8350   -0.1430 C   0  0  0  0  0  0  0  0  0  0  0  0
   -3.9400   -1.1820   -0.3860 N   0  0  0  0  0  0  0  0  0  0  0  0
   -2.9210   -0.2430   -0.1510 C   0  0  0  0  0  0  0  0  0  0  0  0
   -3.2060    0.8960    0.2700 O   0  0  0  0  0  0  0  0  0  0  0  0
   -1.5420   -0.5930   -0.3980 C   0  0  0  0  0  0  0  0  0  0  0  0
   -1.1260   -1.8890   -0.5700 C   0  0  0  0  0  0  0  0  0  0  0  0
    0.2190   -2.1310   -0.8260 C   0  0  0  0  0  0  0  0  0  0  0  0
    1.1170   -1.1350   -0.9080 N   0  0  0  0  0  0  0  0  0  0  0  0
    0.7190    0.1320   -0.7410 C   0  0  0  0  0  0  0  0  0  0  0  0
    1.8740    1.4620   -0.8560 S   0  0  0  0  0  0  0  0  0  0  0  0
    2.6570    1.8520    0.7260 C   0  0  0  0  0  0  0  0  0  0  0  0
    3.5290    0.7770    1.2090 C   0  0  0  0  0  0  0  0  0  0  0  0
    3.0660   -0.1030    1.9760 O   0  0  0  0  0  0  0  0  0  0  0  0
    4.9470    0.6770    0.8300 C   0  0  0  0  0  0  0  0  0  0  0  0
    5.7450   -0.3340    1.2980 C   0  0  0  0  0  0  0  0  0  0  0  0
    7.0800   -0.3900    0.9150 C   0  0  0  0  0  0  0  0  0  0  0  0
    7.9210   -1.3920    1.3650 C   0  0  0  0  0  0  0  0  0  0  0  0
    9.2500   -1.4340    0.9760 C   0  0  0  0  0  0  0  0  0  0  0  0
   10.0800   -2.4400    1.4320 O   0  0  0  0  0  0  0  0  0  0  0  0
    9.7610   -0.4870    0.1390 C   0  0  0  0  0  0  0  0  0  0  0  0
    8.9560    0.5210   -0.3270 C   0  0  0  0  0  0  0  0  0  0  0  0
    7.6140    0.5580    0.0690 C   0  0  0  0  0  0  0  0  0  0  0  0
    6.7660    1.5530   -0.3710 C   0  0  0  0  0  0  0  0  0  0  0  0
    7.2460    2.4210   -1.1420 O   0  0  0  0  0  0  0  0  0  0  0  0
    5.4600    1.6040    0.0070 N   0  0  0  0  0  0  0  0  0  0  0  0
   -0.6080    0.4180   -0.4850 C   0  0  0  0  0  0  0  0  0  0  0  0
   -5.9530   -1.5900    0.7280 C   0  0  0  0  0  0  0  0  0  0  0  0
   -7.3470   -1.3980    1.0860 C   0  0  1  0  0  0  0  0  0  0  0  0
   -7.4500   -1.0790    2.8450 Cl  0  0  0  0  0  0  0  0  0  0  0  0
  1  2  2  0
  2  3  1  0
  2 34  1  0
  3  4  2  3
  3  6  1  0
  4  5  1  0
  6  7  1  0
  7  8  1  0
  7 33  2  0
  8  9  1  0
  9 10  2  0
  9 11  1  0
 11 12  2  0
 11 32  1  0
 12 13  1  0
 13 14  2  0
 14 15  1  0
 15 16  1  0
 15 32  2  0
 16 17  1  0
 17 18  1  0
 18 19  2  0
 18 20  1  0
 20 21  2  0
 20 31  1  0
 21 22  1  0
 22 23  2  0
 22 28  1  0
 23 24  1  0
 24 25  1  0
 24 26  2  0
 26 27  1  0
 27 28  2  0
 28 29  1  0
 29 30  2  0
 29 31  1  0
 33 34  1  0
 34 35  1  1
M  END
