
     RDKit          3D

 35 38  0  0  0  0  0  0  0  0999 V2000
    9.5610    0.5660   -0.1200 C   0  0  0  0  0  0  0  0  0  0  0  0
    8.4150    1.3270   -0.6980 C   0  0  0  0  0  0  0  0  0  0  0  0
    8.5950    2.4240   -1.4830 C   0  0  0  0  0  0  0  0  0  0  0  0
    7.4920    3.0680   -1.9760 C   0  0  0  0  0  0  0  0  0  0  0  0
    6.2290    2.6090   -1.6800 C   0  0  0  0  0  0  0  0  0  0  0  0
    5.9960    1.4880   -0.8790 C   0  0  0  0  0  0  0  0  0  0  0  0
    4.6570    1.0440   -0.5960 C   0  0  0  0  0  0  0  0  0  0  0  0
    3.3110    1.9560   -1.2870 Cl  0  0  0  0  0  0  0  0  0  0  0  0
    4.3720    0.0010    0.1470 C   0  0  0  0  0  0  0  0  0  0  0  0
    2.9680   -0.4040    0.4010 C   0  0  0  0  0  0  0  0  0  0  0  0
    2.0310    0.2620   -0.1030 O   0  0  0  0  0  0  0  0  0  0  0  0
    2.6660   -1.5280    1.2000 N   0  0  0  0  0  0  0  0  0  0  0  0
    1.3840   -2.0200    1.5200 C   0  0  0  0  0  0  0  0  0  0  0  0
    0.1990   -1.4810    1.1010 C   0  0  0  0  0  0  0  0  0  0  0  0
   -1.0270   -2.0270    1.4620 C   0  0  0  0  0  0  0  0  0  0  0  0
   -2.2640   -1.4250    0.9960 C   0  0  0  0  0  0  0  0  0  0  0  0
   -3.3860   -2.1860    0.7660 C   0  0  0  0  0  0  0  0  0  0  0  0
   -4.5680   -1.5770    0.3160 C   0  0  0  0  0  0  0  0  0  0  0  0
   -4.6700   -0.2370    0.0870 C   0  0  0  0  0  0  0  0  0  0  0  0
   -5.8160    0.4660   -0.3660 N   0  0  0  0  0  0  0  0  0  0  0  0
   -7.0730   -0.0990   -0.6660 C   0  0  0  0  0  0  0  0  0  0  0  0
   -7.2600   -1.3190   -0.5430 O   0  0  0  0  0  0  0  0  0  0  0  0
   -8.1580    0.8010   -1.1300 C   0  0  0  0  0  0  0  0  0  0  0  0
   -8.1000    2.1560   -1.3120 C   0  0  0  0  0  0  0  0  0  0  0  0
   -9.3320    2.5690   -1.7490 C   0  0  0  0  0  0  0  0  0  0  0  0
  -10.1120    1.4440   -1.8220 C   0  0  0  0  0  0  0  0  0  0  0  0
  -11.8300    1.4210   -2.3440 S   0  0  0  0  0  0  0  0  0  0  0  0
   -9.3760    0.4360   -1.4490 O   0  0  0  0  0  0  0  0  0  0  0  0
   -3.5300    0.4770    0.3300 N   0  0  0  0  0  0  0  0  0  0  0  0
   -2.3900   -0.0730    0.7590 C   0  0  0  0  0  0  0  0  0  0  0  0
   -1.0000   -3.1440    2.2660 C   0  0  0  0  0  0  0  0  0  0  0  0
    0.1700   -3.6830    2.6840 C   0  0  0  0  0  0  0  0  0  0  0  0
    0.1310   -4.7020    3.4160 O   0  0  0  0  0  0  0  0  0  0  0  0
    1.3330   -3.1330    2.3190 N   0  0  0  0  0  0  0  0  0  0  0  0
    7.1420    0.8680   -0.4030 C   0  0  0  0  0  0  0  0  0  0  0  0
  1  2  1  0
  2  3  2  0
  2 35  1  0
  3  4  1  0
  4  5  2  0
  5  6  1  0
  6  7  1  0
  6 35  2  0
  7  8  1  0
  7  9  2  3
  9 10  1  0
 10 11  2  0
 10 12  1  0
 12 13  1  0
 13 14  2  0
 13 34  1  0
 14 15  1  0
 15 16  1  0
 15 31  2  0
 16 17  2  0
 16 30  1  0
 17 18  1  0
 18 19  2  0
 19 20  1  0
 19 29  1  0
 20 21  1  0
 21 22  2  0
 21 23  1  0
 23 24  2  0
 23 28  1  0
 24 25  1  0
 25 26  2  0
 26 27  1  0
 26 28  1  0
 29 30  2  0
 31 32  1  0
 32 33  2  0
 32 34  1  0
M  END
