
     RDKit          3D

 34 39  0  0  0  0  0  0  0  0999 V2000
  -11.3580   -0.5570    1.3770 C   0  0  0  0  0  0  0  0  0  0  0  0
  -11.4770   -0.9590   -0.0540 C   0  0  0  0  0  0  0  0  0  0  0  0
  -10.6760   -0.2070   -0.9200 O   0  0  0  0  0  0  0  0  0  0  0  0
   -9.3020   -0.1050   -0.8840 C   0  0  0  0  0  0  0  0  0  0  0  0
   -8.4870   -0.7410    0.0270 C   0  0  0  0  0  0  0  0  0  0  0  0
   -7.1070   -0.6180    0.0380 C   0  0  0  0  0  0  0  0  0  0  0  0
   -6.5220    0.1810   -0.9120 C   0  0  0  0  0  0  0  0  0  0  0  0
   -5.0600    0.3650   -0.9660 C   0  0  0  0  0  0  0  0  0  0  0  0
   -4.1400   -0.1830   -0.1520 N   0  0  0  0  0  0  0  0  0  0  0  0
   -2.9080    0.2200   -0.5130 C   0  0  0  0  0  0  0  0  0  0  0  0
   -1.6190   -0.0310   -0.0320 C   0  0  0  0  0  0  0  0  0  0  0  0
   -0.5010    0.5310   -0.6090 C   0  0  0  0  0  0  0  0  0  0  0  0
    0.8410    0.2520   -0.0860 C   0  0  0  0  0  0  0  0  0  0  0  0
    1.1530   -0.5350    0.9540 N   0  0  0  0  0  0  0  0  0  0  0  0
    2.4920   -0.5510    1.1420 C   0  0  0  0  0  0  0  0  0  0  0  0
    3.3550   -1.1610    2.0260 C   0  0  0  0  0  0  0  0  0  0  0  0
    4.7340   -0.9630    1.9480 C   0  0  0  0  0  0  0  0  0  0  0  0
    5.2680   -0.1540    0.9850 C   0  0  0  0  0  0  0  0  0  0  0  0
    6.6710    0.0820    0.8650 N   0  0  0  0  0  0  0  0  0  0  0  0
    7.1350    0.9060   -0.2120 C   0  0  0  0  0  0  0  0  0  0  0  0
    8.6150    0.9760   -0.3780 C   0  0  0  0  0  0  0  0  0  0  0  0
    9.3380    0.0590    0.4510 N   0  0  2  0  0  0  0  0  0  0  0  0
    9.3060   -1.2670   -0.0880 C   0  0  0  0  0  0  0  0  0  0  0  0
    8.8650    0.1380    1.8200 C   0  0  0  0  0  0  0  0  0  0  0  0
    7.5270   -0.5400    1.8600 C   0  0  0  0  0  0  0  0  0  0  0  0
    4.4060    0.4530    0.1040 C   0  0  0  0  0  0  0  0  0  0  0  0
    3.0320    0.2650    0.1700 C   0  0  0  0  0  0  0  0  0  0  0  0
    1.9970    0.7270   -0.5470 N   0  0  0  0  0  0  0  0  0  0  0  0
   -0.6460    1.3690   -1.6980 C   0  0  0  0  0  0  0  0  0  0  0  0
   -1.9160    1.6150   -2.1700 C   0  0  0  0  0  0  0  0  0  0  0  0
   -3.0450    1.0600   -1.6020 C   0  0  0  0  0  0  0  0  0  0  0  0
   -4.3660    1.1160   -1.8390 N   0  0  0  0  0  0  0  0  0  0  0  0
   -7.3210    0.8230   -1.8280 C   0  0  0  0  0  0  0  0  0  0  0  0
   -8.6920    0.6940   -1.8300 C   0  0  0  0  0  0  0  0  0  0  0  0
  1  2  1  0
  2  3  1  0
  3  4  1  0
  4  5  2  0
  4 34  1  0
  5  6  1  0
  6  7  2  0
  7  8  1  0
  7 33  1  0
  8  9  2  0
  8 32  1  0
  9 10  1  0
 10 11  2  0
 10 31  1  0
 11 12  1  0
 12 13  1  0
 12 29  2  0
 13 14  2  0
 13 28  1  0
 14 15  1  0
 15 16  2  0
 15 27  1  0
 16 17  1  0
 17 18  2  0
 18 19  1  0
 18 26  1  0
 19 20  1  0
 19 25  1  0
 20 21  1  0
 21 22  1  0
 22 23  1  6
 22 24  1  0
 24 25  1  0
 26 27  2  0
 27 28  1  0
 29 30  1  0
 30 31  2  0
 31 32  1  0
 33 34  2  0
M  CHG  1  22   1
M  END
