
     RDKit          3D

 35 38  0  0  0  0  0  0  0  0999 V2000
    8.2000   -1.4240   -1.5890 C   0  0  0  0  0  0  0  0  0  0  0  0
    7.6520   -1.6960   -0.2170 C   0  0  0  0  0  0  0  0  0  0  0  0
    6.3110   -1.2490   -0.1690 O   0  0  0  0  0  0  0  0  0  0  0  0
    5.3170   -1.7360   -0.9930 C   0  0  0  0  0  0  0  0  0  0  0  0
    5.5960   -2.6220   -1.8360 O   0  0  0  0  0  0  0  0  0  0  0  0
    3.9410   -1.1940   -0.8580 C   0  0  0  0  0  0  0  0  0  0  0  0
    3.8900   -0.1420    0.2310 C   0  0  0  0  0  0  0  0  0  0  0  0
    2.5170    0.4150    0.3760 C   0  0  0  0  0  0  0  0  0  0  0  0
    2.3110    1.6700   -0.1610 C   0  0  0  0  0  0  0  0  0  0  0  0
    1.0630    2.2230   -0.0560 C   0  0  0  0  0  0  0  0  0  0  0  0
    0.0130    1.5410    0.5790 C   0  0  0  0  0  0  0  0  0  0  0  0
    0.2180    0.2950    1.1140 C   0  0  0  0  0  0  0  0  0  0  0  0
    1.4900   -0.2610    1.0030 C   0  0  0  0  0  0  0  0  0  0  0  0
    1.7220   -1.5450    1.5420 N   0  0  0  0  0  0  0  0  0  0  0  0
   -1.3760    1.9880    0.7350 N   0  0  0  0  0  0  0  0  0  0  0  0
   -2.3230    1.0000    0.5180 C   0  0  0  0  0  0  0  0  0  0  0  0
   -1.8830   -0.1770    0.1880 O   0  0  0  0  0  0  0  0  0  0  0  0
   -3.7720    1.0350    0.5920 C   0  0  0  0  0  0  0  0  0  0  0  0
   -4.5760    2.1050    0.8060 C   0  0  0  0  0  0  0  0  0  0  0  0
   -5.8680    1.6510    0.8310 N   0  0  0  0  0  0  0  0  0  0  0  0
   -5.8340    0.3400    0.6350 C   0  0  0  0  0  0  0  0  0  0  0  0
   -7.1650   -0.6410    0.5840 S   0  0  0  0  0  0  0  0  0  0  0  0
   -4.5720   -0.0780    0.4830 N   0  0  0  0  0  0  0  0  0  0  0  0
   -4.1710   -1.4370    0.2570 C   0  0  0  0  0  0  0  0  0  0  0  0
   -3.6490   -2.1830    1.3060 C   0  0  0  0  0  0  0  0  0  0  0  0
   -3.2540   -3.4850    1.1250 C   0  0  0  0  0  0  0  0  0  0  0  0
   -3.3720   -4.0830   -0.1210 C   0  0  0  0  0  0  0  0  0  0  0  0
   -2.8800   -5.7470   -0.4000 Cl  0  0  0  0  0  0  0  0  0  0  0  0
   -3.8860   -3.3520   -1.1600 C   0  0  0  0  0  0  0  0  0  0  0  0
   -4.2860   -2.0290   -0.9700 C   0  0  0  0  0  0  0  0  0  0  0  0
   -4.8380   -1.2760   -2.1260 C   0  0  0  0  0  0  0  0  0  0  0  0
   -1.6300    3.3710    1.0520 C   0  0  0  0  0  0  0  0  0  0  0  0
   -1.4300    4.1170   -0.2620 C   0  0  0  0  0  0  0  0  0  0  0  0
    0.0010    4.5250   -0.4640 C   0  0  0  0  0  0  0  0  0  0  0  0
    0.9250    3.4980   -0.6210 O   0  0  0  0  0  0  0  0  0  0  0  0
  1  2  1  0
  2  3  1  0
  3  4  1  0
  4  5  2  0
  4  6  1  0
  6  7  1  0
  7  8  1  0
  8  9  2  0
  8 13  1  0
  9 10  1  0
 10 11  2  0
 10 35  1  0
 11 12  1  0
 11 15  1  0
 12 13  2  0
 13 14  1  0
 15 16  1  0
 15 32  1  0
 16 17  2  0
 16 18  1  0
 18 19  2  0
 18 23  1  0
 19 20  1  0
 20 21  1  0
 21 22  2  0
 21 23  1  0
 23 24  1  0
 24 25  2  0
 24 30  1  0
 25 26  1  0
 26 27  2  0
 27 28  1  0
 27 29  1  0
 29 30  2  0
 30 31  1  0
 32 33  1  0
 33 34  1  0
 34 35  1  0
M  END
