
     RDKit          3D

 20 20  0  0  0  0  0  0  0  0999 V2000
    4.9300    1.7470   -0.3270 C   0  0  0  0  0  0  0  0  0  0  0  0
    4.5980    0.6970    0.7040 C   0  0  0  0  0  0  0  0  0  0  0  0
    3.2100    0.1750    0.6750 C   0  0  0  0  0  0  0  0  0  0  0  0
    2.7850   -0.5260   -0.5560 C   0  0  2  0  0  0  0  0  0  0  0  0
    2.8420    0.1540   -1.7390 O   0  0  0  0  0  0  0  0  0  0  0  0
    1.3300   -1.0580   -0.3200 C   0  0  1  0  0  0  0  0  0  0  0  0
    1.0770   -1.9210   -1.5610 C   0  0  0  0  0  0  0  0  0  0  0  0
    1.4580   -1.9240    0.9080 C   0  0  0  0  0  0  0  0  0  0  0  0
    0.4610   -0.0290   -0.2310 O   0  0  0  0  0  0  0  0  0  0  0  0
   -0.8810    0.0990   -0.0420 C   0  0  0  0  0  0  0  0  0  0  0  0
   -1.6920   -1.0270    0.1710 C   0  0  0  0  0  0  0  0  0  0  0  0
   -3.0390   -0.9750    0.3560 C   0  0  0  0  0  0  0  0  0  0  0  0
   -3.8600   -2.2000    0.4450 C   0  0  0  0  0  0  0  0  0  0  0  0
   -4.7090   -2.2450    1.5520 O   0  0  0  0  0  0  0  0  0  0  0  0
   -3.6880    0.2390    0.3450 C   0  0  0  0  0  0  0  0  0  0  0  0
   -5.0580    0.2580    0.5410 O   0  0  0  0  0  0  0  0  0  0  0  0
   -2.9410    1.4100    0.1330 C   0  0  0  0  0  0  0  0  0  0  0  0
   -3.6020    2.5470    0.1140 O   0  0  0  0  0  0  0  0  0  0  0  0
   -3.9450    3.7780    0.0650 C   0  0  0  0  0  0  0  0  0  0  0  0
   -1.5590    1.2980   -0.0480 C   0  0  0  0  0  0  0  0  0  0  0  0
  1  2  1  0
  2  3  1  0
  3  4  1  0
  4  5  1  6
  4  6  1  0
  6  7  1  6
  6  8  1  0
  6  9  1  0
  9 10  1  0
 10 11  2  0
 10 20  1  0
 11 12  1  0
 12 13  1  0
 12 15  2  0
 13 14  1  0
 15 16  1  0
 15 17  1  0
 17 18  1  0
 17 20  2  0
 18 19  1  0
M  END
