
     RDKit          3D

 20 20  0  0  0  0  0  0  0  0999 V2000
    0.5360   -4.2190    0.4960 C   0  0  0  0  0  0  0  0  0  0  0  0
    0.9350   -2.8740    0.3340 O   0  0  0  0  0  0  0  0  0  0  0  0
   -0.0510   -1.9100    0.1300 C   0  0  0  0  0  0  0  0  0  0  0  0
   -1.3830   -2.2020    0.0800 C   0  0  0  0  0  0  0  0  0  0  0  0
   -2.3210   -1.2010   -0.1260 C   0  0  0  0  0  0  0  0  0  0  0  0
   -3.6520   -1.5370   -0.1700 O   0  0  0  0  0  0  0  0  0  0  0  0
   -1.9540    0.0970   -0.2840 C   0  0  0  0  0  0  0  0  0  0  0  0
   -2.8640    1.2230   -0.5050 C   0  0  0  0  0  0  0  0  0  0  0  0
   -4.3070    0.8680   -0.5560 C   0  0  0  0  0  0  0  0  0  0  0  0
   -5.0800    2.1360   -0.7870 C   0  0  0  0  0  0  0  0  0  0  0  0
   -6.3320    2.1270   -0.8750 O   0  0  0  0  0  0  0  0  0  0  0  0
   -4.4390    3.3600   -0.9120 O   0  0  0  0  0  0  0  0  0  0  0  0
   -0.5870    0.3840   -0.2300 C   0  0  0  0  0  0  0  0  0  0  0  0
    0.3700   -0.5840   -0.0280 C   0  0  0  0  0  0  0  0  0  0  0  0
    1.8250   -0.2880    0.0310 C   0  0  1  0  0  0  0  0  0  0  0  0
    2.4610   -1.0430   -0.9510 O   0  0  0  0  0  0  0  0  0  0  0  0
    2.0370    1.1600   -0.2030 C   0  0  0  0  0  0  0  0  0  0  0  0
    3.4740    1.5960   -0.1690 C   0  0  1  0  0  0  0  0  0  0  0  0
    4.1740    1.3450    1.1090 C   0  0  0  0  0  0  0  0  0  0  0  0
    4.2080    0.8690   -1.2820 C   0  0  0  0  0  0  0  0  0  0  0  0
  1  2  1  0
  2  3  1  0
  3  4  2  0
  3 14  1  0
  4  5  1  0
  5  6  1  0
  5  7  2  0
  7  8  1  0
  7 13  1  0
  8  9  1  0
  9 10  1  0
 10 11  2  0
 10 12  1  0
 13 14  2  0
 14 15  1  0
 15 16  1  6
 15 17  1  0
 17 18  1  0
 18 19  1  1
 18 20  1  0
M  END
