
     RDKit          3D

 20 21  0  0  0  0  0  0  0  0999 V2000
   -5.1100    0.4640    1.4330 O   0  0  0  0  0  0  0  0  0  0  0  0
   -4.4830    1.2680    0.4640 C   0  0  0  0  0  0  0  0  0  0  0  0
   -4.5060    0.5960   -0.8920 C   0  0  0  0  0  0  0  0  0  0  0  0
   -3.7880   -0.7340   -0.8640 C   0  0  0  0  0  0  0  0  0  0  0  0
   -2.4620   -0.5470   -0.4940 O   0  0  0  0  0  0  0  0  0  0  0  0
   -1.7410   -1.7140   -0.4450 C   0  0  1  0  0  0  0  0  0  0  0  0
   -0.5210   -1.7060   -1.3280 C   0  0  0  0  0  0  0  0  0  0  0  0
    0.4270   -0.5700   -1.0180 C   0  0  0  0  0  0  0  0  0  0  0  0
    0.8770   -0.6430    0.3880 C   0  0  1  0  0  0  0  0  0  0  0  0
    1.5970    0.5840    0.9070 C   0  0  2  0  0  0  0  0  0  0  0  0
    0.7270    1.6890    0.8210 O   0  0  0  0  0  0  0  0  0  0  0  0
    2.8720    0.8790    0.2260 C   0  0  0  0  0  0  0  0  0  0  0  0
    4.0470    0.7700    0.8320 C   0  0  0  0  0  0  0  0  0  0  0  0
    5.3540    1.0530    0.1980 C   0  0  1  0  0  0  0  0  0  0  0  0
    6.2280   -0.0090    0.4230 O   0  0  0  0  0  0  0  0  0  0  0  0
    5.2920    1.4210   -1.1420 O   0  0  0  0  0  0  0  0  0  0  0  0
    4.0770    1.5400   -1.7830 C   0  0  0  0  0  0  0  0  0  0  0  0
    2.9080    1.2910   -1.1660 C   0  0  0  0  0  0  0  0  0  0  0  0
   -0.2650   -0.8750    1.3740 C   0  0  0  0  0  0  0  0  0  0  0  0
   -1.2020   -1.9590    0.9730 C   0  0  0  0  0  0  0  0  0  0  0  0
  1  2  1  0
  2  3  1  0
  3  4  1  0
  4  5  1  0
  6  5  1  1
  6  7  1  0
  6 20  1  0
  7  8  1  0
  9  8  1  6
  9 10  1  0
  9 19  1  0
 10 11  1  6
 10 12  1  0
 12 13  2  0
 12 18  1  0
 13 14  1  0
 14 15  1  6
 14 16  1  0
 16 17  1  0
 17 18  2  0
 19 20  1  0
M  END
