
     RDKit          3D

 20 20  0  0  0  0  0  0  0  0999 V2000
   -2.8180    2.2510    1.2350 C   0  0  0  0  0  0  0  0  0  0  0  0
   -2.2540    1.7140    0.2060 C   0  0  0  0  0  0  0  0  0  0  0  0
   -2.4650    0.3910   -0.3580 C   0  0  0  0  0  0  0  0  0  0  0  0
   -3.6250   -0.3330   -0.2730 C   0  0  0  0  0  0  0  0  0  0  0  0
   -4.8480    0.1970    0.3590 C   0  0  0  0  0  0  0  0  0  0  0  0
   -3.7110   -1.6210   -0.8210 C   0  0  0  0  0  0  0  0  0  0  0  0
   -4.9710   -2.4020   -0.7250 C   0  0  0  0  0  0  0  0  0  0  0  0
   -2.6400   -2.1970   -1.4620 C   0  0  0  0  0  0  0  0  0  0  0  0
   -1.4680   -1.4900   -1.5610 C   0  0  0  0  0  0  0  0  0  0  0  0
   -0.3900   -2.0870   -2.2140 O   0  0  0  0  0  0  0  0  0  0  0  0
   -1.4040   -0.2490   -1.0250 C   0  0  0  0  0  0  0  0  0  0  0  0
   -0.2150    0.4580   -1.1300 O   0  0  0  0  0  0  0  0  0  0  0  0
    0.7960    0.3400   -0.0980 C   0  0  0  0  0  0  0  0  0  0  0  0
    1.8180    1.1420   -0.4920 O   0  0  0  0  0  0  0  0  0  0  0  0
    2.9240    1.2610    0.2700 C   0  0  0  0  0  0  0  0  0  0  0  0
    3.6360   -0.0370    0.4730 C   0  0  2  0  0  0  0  0  0  0  0  0
    2.9020   -1.0010    1.1190 O   0  0  0  0  0  0  0  0  0  0  0  0
    4.8800    0.2370    1.3210 C   0  0  0  0  0  0  0  0  0  0  0  0
    5.8110    1.2020    0.6630 C   0  0  0  0  0  0  0  0  0  0  0  0
    6.2650    0.7460   -0.5700 O   0  0  0  0  0  0  0  0  0  0  0  0
  1  2  2  0
  2  3  1  0
  3  4  2  0
  3 11  1  0
  4  5  1  0
  4  6  1  0
  6  7  1  0
  6  8  2  0
  8  9  1  0
  9 10  1  0
  9 11  2  0
 11 12  1  0
 12 13  1  0
 13 14  1  0
 14 15  1  0
 15 16  1  0
 16 17  1  1
 16 18  1  0
 18 19  1  0
 19 20  1  0
M  END
