
     RDKit          3D

 20 20  0  0  0  0  0  0  0  0999 V2000
    5.5820    2.5360    0.0870 C   0  0  0  0  0  0  0  0  0  0  0  0
    5.1530    1.5100   -0.9000 C   0  0  0  0  0  0  0  0  0  0  0  0
    3.9920    0.8110   -0.5860 O   0  0  0  0  0  0  0  0  0  0  0  0
    3.8380    0.0360    0.5520 C   0  0  0  0  0  0  0  0  0  0  0  0
    4.8510    0.0100    1.3030 O   0  0  0  0  0  0  0  0  0  0  0  0
    2.6130   -0.7040    0.8870 C   0  0  0  0  0  0  0  0  0  0  0  0
    1.5760   -0.4860   -0.1890 C   0  0  1  0  0  0  0  0  0  0  0  0
    1.2950    0.9930   -0.2510 C   0  0  0  0  0  0  0  0  0  0  0  0
    2.1450   -0.9720   -1.3790 O   0  0  0  0  0  0  0  0  0  0  0  0
    0.3120   -1.2520    0.0610 C   0  0  2  0  0  0  0  0  0  0  0  0
    0.6320   -2.6240    0.1890 O   0  0  0  0  0  0  0  0  0  0  0  0
   -0.5570   -1.1550   -1.1660 C   0  0  0  0  0  0  0  0  0  0  0  0
   -1.9340   -1.7320   -0.9380 C   0  0  0  0  0  0  0  0  0  0  0  0
   -2.5810   -1.2770    0.3190 C   0  0  2  0  0  0  0  0  0  0  0  0
   -3.9480   -0.6900    0.0990 C   0  0  0  0  0  0  0  0  0  0  0  0
   -3.9670    0.5090   -0.7950 C   0  0  0  0  0  0  0  0  0  0  0  0
   -5.4020    0.9830   -0.9190 C   0  0  0  0  0  0  0  0  0  0  0  0
   -5.3800    2.1110   -1.7670 O   0  0  0  0  0  0  0  0  0  0  0  0
   -1.7510   -0.3000    1.1230 C   0  0  0  0  0  0  0  0  0  0  0  0
   -0.3430   -0.7500    1.2960 C   0  0  0  0  0  0  0  0  0  0  0  0
  1  2  1  0
  2  3  1  0
  3  4  1  0
  4  5  2  0
  4  6  1  0
  6  7  1  0
  7  8  1  6
  7  9  1  0
  7 10  1  0
 10 11  1  1
 10 12  1  0
 10 20  1  0
 12 13  1  0
 13 14  1  0
 14 15  1  6
 14 19  1  0
 15 16  1  0
 16 17  1  0
 17 18  1  0
 19 20  1  0
M  END
