
     RDKit          3D

 38 41  0  0  0  0  0  0  0  0999 V2000
   -1.2290   -1.5870    3.9450 C   0  0  0  0  0  0  0  0  0  0  0  0
   -2.3490   -1.4180    3.1230 O   0  0  0  0  0  0  0  0  0  0  0  0
   -2.2700   -1.2400    1.7500 C   0  0  0  0  0  0  0  0  0  0  0  0
   -3.3800   -1.0760    0.9550 C   0  0  0  0  0  0  0  0  0  0  0  0
   -3.2300   -0.9040   -0.4120 C   0  0  0  0  0  0  0  0  0  0  0  0
   -4.3520   -0.7380   -1.2190 O   0  0  0  0  0  0  0  0  0  0  0  0
   -4.8620    0.5320   -1.5050 C   0  0  0  0  0  0  0  0  0  0  0  0
   -4.2400    1.6510   -0.9820 C   0  0  0  0  0  0  0  0  0  0  0  0
   -4.7500    2.8940   -1.2700 C   0  0  0  0  0  0  0  0  0  0  0  0
   -5.8740    2.9650   -2.0800 C   0  0  0  0  0  0  0  0  0  0  0  0
   -6.4950    1.8570   -2.6010 C   0  0  0  0  0  0  0  0  0  0  0  0
   -7.5820    1.9310   -3.3830 F   0  0  0  0  0  0  0  0  0  0  0  0
   -5.9680    0.6180   -2.3000 C   0  0  0  0  0  0  0  0  0  0  0  0
   -6.6000   -0.6200   -2.8380 C   0  0  0  0  0  0  0  0  0  0  0  0
   -1.9700   -0.8930   -0.9970 C   0  0  0  0  0  0  0  0  0  0  0  0
   -0.8740   -1.0550   -0.2090 C   0  0  0  0  0  0  0  0  0  0  0  0
    0.5040   -1.0550   -0.8360 C   0  0  0  0  0  0  0  0  0  0  0  0
    0.5480   -1.5010   -1.9510 O   0  0  0  0  0  0  0  0  0  0  0  0
    1.5630   -0.5590   -0.1030 N   0  0  0  0  0  0  0  0  0  0  0  0
    2.9330   -0.4020   -0.3600 C   0  0  0  0  0  0  0  0  0  0  0  0
    3.6440    0.1640    0.6520 C   0  0  0  0  0  0  0  0  0  0  0  0
    2.8220    0.5420    1.8040 C   0  0  0  0  0  0  0  0  0  0  0  0
    1.7470    1.1530    1.5010 O   0  0  0  0  0  0  0  0  0  0  0  0
    3.1300    0.2950    3.1390 O   0  0  0  0  0  0  0  0  0  0  0  0
    4.3650    0.5570    3.7870 C   0  0  0  0  0  0  0  0  0  0  0  0
    5.3680    1.2570    2.9930 C   0  0  0  0  0  0  0  0  0  0  0  0
    5.6490    1.0900    1.6960 C   0  0  0  0  0  0  0  0  0  0  0  0
    5.0890    0.2060    0.6760 C   0  0  2  0  0  0  0  0  0  0  0  0
    5.7260    0.3980   -0.6400 C   0  0  1  0  0  0  0  0  0  0  0  0
    7.0010   -0.1990   -0.7060 F   0  0  0  0  0  0  0  0  0  0  0  0
    4.9500   -0.2410   -1.7170 C   0  0  0  0  0  0  0  0  0  0  0  0
    5.6100   -0.4700   -2.9270 F   0  0  0  0  0  0  0  0  0  0  0  0
    3.6830   -0.5940   -1.5750 C   0  0  0  0  0  0  0  0  0  0  0  0
    3.0620   -1.2050   -2.8040 C   0  0  2  0  0  0  0  0  0  0  0  0
    2.1740   -0.3330   -3.3500 F   0  0  0  0  0  0  0  0  0  0  0  0
    2.7430   -2.5180   -2.6540 F   0  0  0  0  0  0  0  0  0  0  0  0
    4.0820   -1.2340   -3.8110 F   0  0  0  0  0  0  0  0  0  0  0  0
   -1.0310   -1.2240    1.1320 C   0  0  0  0  0  0  0  0  0  0  0  0
  1  2  1  0
  2  3  1  0
  3  4  2  0
  3 38  1  0
  4  5  1  0
  5  6  1  0
  5 15  2  0
  6  7  1  0
  7  8  2  0
  7 13  1  0
  8  9  1  0
  9 10  2  0
 10 11  1  0
 11 12  1  0
 11 13  2  0
 13 14  1  0
 15 16  1  0
 16 17  1  0
 16 38  2  0
 17 18  2  0
 17 19  1  0
 19 20  1  0
 20 21  2  0
 20 33  1  0
 21 22  1  0
 21 28  1  0
 22 23  2  0
 22 24  1  0
 24 25  1  0
 25 26  1  0
 26 27  2  0
 28 27  1  1
 28 29  1  0
 29 30  1  1
 29 31  1  0
 31 32  1  0
 31 33  2  0
 33 34  1  0
 34 35  1  6
 34 36  1  0
 34 37  1  0
M  END
