
     RDKit          3D

 37 40  0  0  0  0  0  0  0  0999 V2000
    2.4480   -1.6000   -0.7230 O   0  0  0  0  0  0  0  0  0  0  0  0
    2.9510   -0.4780   -0.5040 C   0  0  0  0  0  0  0  0  0  0  0  0
    4.3050   -0.3090   -0.5910 O   0  0  0  0  0  0  0  0  0  0  0  0
    5.2170   -1.3400   -0.9220 C   0  0  0  0  0  0  0  0  0  0  0  0
    6.6430   -0.8350   -0.9450 C   0  0  1  0  0  0  0  0  0  0  0  0
    7.0850   -0.2790    0.3580 C   0  0  0  0  0  0  0  0  0  0  0  0
    8.2910   -1.1080    0.7220 C   0  0  0  0  0  0  0  0  0  0  0  0
    8.6710   -1.7030   -0.6120 C   0  0  0  0  0  0  0  0  0  0  0  0
    7.4670   -1.8980   -1.2740 O   0  0  0  0  0  0  0  0  0  0  0  0
    2.0870    0.6520   -0.1530 C   0  0  0  0  0  0  0  0  0  0  0  0
    2.5830    1.9050    0.1060 C   0  0  0  0  0  0  0  0  0  0  0  0
    1.7820    2.9660    0.4310 C   0  0  0  0  0  0  0  0  0  0  0  0
    0.3780    2.7620    0.5050 C   0  0  0  0  0  0  0  0  0  0  0  0
   -0.3810    3.8420    0.8310 O   0  0  0  0  0  0  0  0  0  0  0  0
   -0.1560    1.5330    0.2550 C   0  0  0  0  0  0  0  0  0  0  0  0
   -1.5850    1.2960    0.3210 C   0  0  0  0  0  0  0  0  0  0  0  0
   -2.4230    2.2010    0.6120 O   0  0  0  0  0  0  0  0  0  0  0  0
   -2.1980    0.0210    0.0650 N   0  0  0  0  0  0  0  0  0  0  0  0
   -3.6250   -0.1220    0.1540 C   0  0  0  0  0  0  0  0  0  0  0  0
   -4.2220   -0.3580    1.3530 C   0  0  0  0  0  0  0  0  0  0  0  0
   -3.5090   -0.5230    2.5970 C   0  0  0  0  0  0  0  0  0  0  0  0
   -2.5270   -1.3590    2.7730 C   0  0  0  0  0  0  0  0  0  0  0  0
   -1.9320   -1.4110    4.0110 F   0  0  0  0  0  0  0  0  0  0  0  0
   -2.0430   -2.2260    1.8390 F   0  0  0  0  0  0  0  0  0  0  0  0
   -5.6260   -0.4610    1.3430 C   0  0  0  0  0  0  0  0  0  0  0  0
   -6.3530   -0.3330    0.1880 C   0  0  0  0  0  0  0  0  0  0  0  0
   -7.8330   -0.4490    0.2230 C   0  0  2  0  0  0  0  0  0  0  0  0
   -8.4600    0.6980   -0.2210 F   0  0  0  0  0  0  0  0  0  0  0  0
   -8.2180   -0.6580    1.5280 F   0  0  0  0  0  0  0  0  0  0  0  0
   -8.2680   -1.5480   -0.5070 F   0  0  0  0  0  0  0  0  0  0  0  0
   -5.7290   -0.0920   -1.0370 C   0  0  0  0  0  0  0  0  0  0  0  0
   -6.4690    0.0350   -2.1960 C   0  0  0  0  0  0  0  0  0  0  0  0
   -5.8040    0.2720   -3.3820 C   0  0  0  0  0  0  0  0  0  0  0  0
   -4.4290    0.3740   -3.3710 C   0  0  0  0  0  0  0  0  0  0  0  0
   -3.6780    0.2480   -2.2130 C   0  0  0  0  0  0  0  0  0  0  0  0
   -4.3610    0.0110   -1.0380 C   0  0  0  0  0  0  0  0  0  0  0  0
    0.7090    0.4970   -0.0710 C   0  0  0  0  0  0  0  0  0  0  0  0
  1  2  2  0
  2  3  1  0
  2 10  1  0
  3  4  1  0
  5  4  1  1
  5  6  1  0
  5  9  1  0
  6  7  1  0
  7  8  1  0
  8  9  1  0
 10 11  2  0
 10 37  1  0
 11 12  1  0
 12 13  2  0
 13 14  1  0
 13 15  1  0
 15 16  1  0
 15 37  2  0
 16 17  2  0
 16 18  1  0
 18 19  1  0
 19 20  2  0
 19 36  1  0
 20 21  1  0
 20 25  1  0
 21 22  2  3
 22 23  1  0
 22 24  1  0
 25 26  2  0
 26 27  1  0
 26 31  1  0
 27 28  1  6
 27 29  1  0
 27 30  1  0
 31 32  2  0
 31 36  1  0
 32 33  1  0
 33 34  2  0
 34 35  1  0
 35 36  2  0
M  END
