
     RDKit          3D

 38 41  0  0  0  0  0  0  0  0999 V2000
   -0.7330   -0.6650    1.7140 O   0  0  0  0  0  0  0  0  0  0  0  0
   -1.1110    0.0090    0.6520 C   0  0  0  0  0  0  0  0  0  0  0  0
   -2.3760   -0.3380    0.1070 C   0  0  0  0  0  0  0  0  0  0  0  0
   -2.8910   -0.2250   -1.1720 C   0  0  0  0  0  0  0  0  0  0  0  0
   -4.0640   -0.8370   -1.2520 O   0  0  0  0  0  0  0  0  0  0  0  0
   -4.3800   -1.3620   -0.0930 C   0  0  0  0  0  0  0  0  0  0  0  0
   -5.6090   -2.1120    0.1510 C   0  0  0  0  0  0  0  0  0  0  0  0
   -6.5090   -2.5530   -0.8070 C   0  0  0  0  0  0  0  0  0  0  0  0
   -7.5290   -3.2180   -0.1710 C   0  0  0  0  0  0  0  0  0  0  0  0
   -7.2170   -3.1610    1.1700 C   0  0  0  0  0  0  0  0  0  0  0  0
   -6.0840   -2.5030    1.3000 O   0  0  0  0  0  0  0  0  0  0  0  0
   -3.3560   -1.0740    0.7930 C   0  0  0  0  0  0  0  0  0  0  0  0
   -3.3390   -1.4560    2.1150 O   0  0  0  0  0  0  0  0  0  0  0  0
   -0.1500    0.9590    0.2610 N   0  0  0  0  0  0  0  0  0  0  0  0
    1.2520    0.7310    0.7440 C   0  0  0  0  0  0  0  0  0  0  0  0
    1.9050   -0.1780   -0.3150 C   0  0  1  0  0  0  0  0  0  0  0  0
    1.8490    0.4980   -1.4560 O   0  0  0  0  0  0  0  0  0  0  0  0
    3.2490   -0.6150    0.2320 C   0  0  1  0  0  0  0  0  0  0  0  0
    2.9130   -1.2960    1.4930 C   0  0  0  0  0  0  0  0  0  0  0  0
    3.6460   -2.4070    2.0790 C   0  0  0  0  0  0  0  0  0  0  0  0
    5.0990   -2.4230    2.0150 C   0  0  0  0  0  0  0  0  0  0  0  0
    5.8360   -2.2050    0.9450 C   0  0  0  0  0  0  0  0  0  0  0  0
    5.3020   -1.9040   -0.3840 C   0  0  0  0  0  0  0  0  0  0  0  0
    4.1800   -1.2160   -0.6870 C   0  0  0  0  0  0  0  0  0  0  0  0
    3.9880   -1.1350   -2.1340 C   0  0  1  0  0  0  0  0  0  0  0  0
    3.9970    0.1250   -2.6720 F   0  0  0  0  0  0  0  0  0  0  0  0
    5.0880   -1.7150   -2.8390 F   0  0  0  0  0  0  0  0  0  0  0  0
    2.9640   -1.9590   -2.5860 F   0  0  0  0  0  0  0  0  0  0  0  0
   -0.3400    2.1290   -0.5070 C   0  0  0  0  0  0  0  0  0  0  0  0
   -0.4770    2.2420   -1.8430 C   0  0  0  0  0  0  0  0  0  0  0  0
   -0.6310    3.4890   -2.4840 C   0  0  0  0  0  0  0  0  0  0  0  0
   -0.6490    4.6540   -1.7510 C   0  0  0  0  0  0  0  0  0  0  0  0
   -0.5140    4.5670   -0.3840 C   0  0  0  0  0  0  0  0  0  0  0  0
   -0.5250    5.8100    0.4130 C   0  0  2  0  0  0  0  0  0  0  0  0
   -1.4990    6.6560   -0.0710 F   0  0  0  0  0  0  0  0  0  0  0  0
    0.6950    6.4750    0.3330 F   0  0  0  0  0  0  0  0  0  0  0  0
   -0.7540    5.5180    1.7600 F   0  0  0  0  0  0  0  0  0  0  0  0
   -0.3630    3.3460    0.2160 C   0  0  0  0  0  0  0  0  0  0  0  0
  1  2  2  0
  2  3  1  0
  2 14  1  0
  3  4  2  0
  3 12  1  0
  4  5  1  0
  5  6  1  0
  6  7  1  0
  6 12  2  0
  7  8  2  0
  7 11  1  0
  8  9  1  0
  9 10  2  0
 10 11  1  0
 12 13  1  0
 14 15  1  0
 14 29  1  0
 15 16  1  0
 16 17  1  6
 16 18  1  0
 18 19  1  1
 18 24  1  0
 19 20  1  0
 20 21  1  0
 21 22  2  0
 22 23  1  0
 23 24  2  0
 24 25  1  0
 25 26  1  6
 25 27  1  0
 25 28  1  0
 29 30  2  0
 29 38  1  0
 30 31  1  0
 31 32  2  0
 32 33  1  0
 33 34  1  0
 33 38  2  0
 34 35  1  6
 34 36  1  0
 34 37  1  0
M  END
