
     RDKit          3D

 38 41  0  0  0  0  0  0  0  0999 V2000
   -1.9290    2.3080    0.9530 C   0  0  0  0  0  0  0  0  0  0  0  0
   -2.9580    1.3000    0.5630 C   0  0  0  0  0  0  0  0  0  0  0  0
   -4.2020    1.3570    1.1510 C   0  0  0  0  0  0  0  0  0  0  0  0
   -5.2870    0.5560    0.8410 C   0  0  0  0  0  0  0  0  0  0  0  0
   -6.4970    0.7270    1.6160 C   0  0  1  0  0  0  0  0  0  0  0  0
   -6.8580   -0.2290    2.4990 F   0  0  0  0  0  0  0  0  0  0  0  0
   -6.3860    1.8820    2.4190 F   0  0  0  0  0  0  0  0  0  0  0  0
   -7.5930    1.1070    0.8040 F   0  0  0  0  0  0  0  0  0  0  0  0
   -5.1290   -0.3980   -0.1540 C   0  0  0  0  0  0  0  0  0  0  0  0
   -6.2750   -1.2420   -0.4440 C   0  0  1  0  0  0  0  0  0  0  0  0
   -7.2420   -1.3590    0.5340 O   0  0  0  0  0  0  0  0  0  0  0  0
   -6.8100   -1.4060   -1.8140 C   0  0  2  0  0  0  0  0  0  0  0  0
   -6.1910   -1.8750   -2.8680 F   0  0  0  0  0  0  0  0  0  0  0  0
   -7.4810   -0.1670   -2.1760 F   0  0  0  0  0  0  0  0  0  0  0  0
   -3.8790   -0.4780   -0.7510 C   0  0  0  0  0  0  0  0  0  0  0  0
   -3.6370   -1.4390   -1.6830 C   0  0  0  0  0  0  0  0  0  0  0  0
   -2.3980   -1.6060   -2.2860 C   0  0  0  0  0  0  0  0  0  0  0  0
   -1.3550   -0.7910   -1.9460 C   0  0  0  0  0  0  0  0  0  0  0  0
   -1.5510    0.2110   -0.9800 C   0  0  0  0  0  0  0  0  0  0  0  0
   -0.3180    0.8610   -0.5610 C   0  0  0  0  0  0  0  0  0  0  0  0
    0.3190    1.6040   -1.3300 O   0  0  0  0  0  0  0  0  0  0  0  0
    0.1640    0.6700    0.6570 O   0  0  0  0  0  0  0  0  0  0  0  0
    1.0930    0.9250    1.5270 C   0  0  0  0  0  0  0  0  0  0  0  0
    2.4840    0.5850    1.2920 C   0  0  0  0  0  0  0  0  0  0  0  0
    3.2830    0.6630    2.2960 O   0  0  0  0  0  0  0  0  0  0  0  0
    3.0380    0.1760    0.0570 N   0  0  0  0  0  0  0  0  0  0  0  0
    4.4300   -0.1410    0.0760 C   0  0  0  0  0  0  0  0  0  0  0  0
    5.3310    0.5970   -0.5270 C   0  0  0  0  0  0  0  0  0  0  0  0
    6.7660    0.2410   -0.4860 C   0  0  0  0  0  0  0  0  0  0  0  0
    7.7420    0.9870   -1.0960 C   0  0  0  0  0  0  0  0  0  0  0  0
    9.0820    0.6470   -1.0490 C   0  0  0  0  0  0  0  0  0  0  0  0
   10.0010    1.4200   -1.6610 F   0  0  0  0  0  0  0  0  0  0  0  0
    9.4610   -0.4930   -0.3600 C   0  0  0  0  0  0  0  0  0  0  0  0
    8.4760   -1.2370    0.2510 C   0  0  0  0  0  0  0  0  0  0  0  0
    7.1230   -0.8870    0.2010 C   0  0  0  0  0  0  0  0  0  0  0  0
    6.1610   -1.6590    0.8280 O   0  0  0  0  0  0  0  0  0  0  0  0
    4.8100   -1.3810    0.8110 C   0  0  0  0  0  0  0  0  0  0  0  0
   -2.7880    0.3550   -0.4080 C   0  0  0  0  0  0  0  0  0  0  0  0
  1  2  1  0
  2  3  2  0
  2 38  1  0
  3  4  1  0
  4  5  1  0
  4  9  2  0
  5  6  1  1
  5  7  1  0
  5  8  1  0
  9 10  1  0
  9 15  1  0
 10 11  1  1
 10 12  1  0
 12 13  1  6
 12 14  1  0
 15 16  2  0
 15 38  1  0
 16 17  1  0
 17 18  2  0
 18 19  1  0
 19 20  1  0
 19 38  2  0
 20 21  2  0
 20 22  1  0
 22 23  1  0
 23 24  1  0
 24 25  2  0
 24 26  1  0
 26 27  1  0
 27 28  2  0
 27 37  1  0
 28 29  1  0
 29 30  2  0
 29 35  1  0
 30 31  1  0
 31 32  1  0
 31 33  2  0
 33 34  1  0
 34 35  2  0
 35 36  1  0
 36 37  1  0
M  END
