
     RDKit          3D

 38 41  0  0  0  0  0  0  0  0999 V2000
   -4.3500   -0.3250    1.6860 O   0  0  0  0  0  0  0  0  0  0  0  0
   -3.3500   -0.1370    0.9440 C   0  0  0  0  0  0  0  0  0  0  0  0
   -3.5830    0.5620   -0.2940 N   0  0  0  0  0  0  0  0  0  0  0  0
   -4.9310    0.9850   -0.5800 C   0  0  1  0  0  0  0  0  0  0  0  0
   -5.0450    2.4530   -0.8660 C   0  0  0  0  0  0  0  0  0  0  0  0
   -6.4650    2.7750   -1.2480 C   0  0  0  0  0  0  0  0  0  0  0  0
   -6.9890    1.9680   -2.2370 O   0  0  0  0  0  0  0  0  0  0  0  0
   -6.9560    0.6370   -1.8310 C   0  0  1  0  0  0  0  0  0  0  0  0
   -7.7820   -0.2790   -2.6840 C   0  0  1  0  0  0  0  0  0  0  0  0
   -7.6630   -1.5730   -2.1750 F   0  0  0  0  0  0  0  0  0  0  0  0
   -9.1150    0.0620   -2.5790 F   0  0  0  0  0  0  0  0  0  0  0  0
   -7.3910   -0.3150   -3.9860 F   0  0  0  0  0  0  0  0  0  0  0  0
   -5.4840    0.2560   -1.8140 C   0  0  0  0  0  0  0  0  0  0  0  0
   -2.0570   -0.6180    1.3600 C   0  0  0  0  0  0  0  0  0  0  0  0
   -0.9660   -0.4180    0.5470 C   0  0  0  0  0  0  0  0  0  0  0  0
    0.2960   -0.8750    0.9170 C   0  0  0  0  0  0  0  0  0  0  0  0
    1.4500   -0.6690    0.0550 C   0  0  0  0  0  0  0  0  0  0  0  0
    1.4430   -1.0350   -1.1460 O   0  0  0  0  0  0  0  0  0  0  0  0
    2.6500   -0.0270    0.5760 C   0  0  0  0  0  0  0  0  0  0  0  0
    2.5560    0.6870    1.7750 C   0  0  0  0  0  0  0  0  0  0  0  0
    3.6780    1.2980    2.2830 C   0  0  0  0  0  0  0  0  0  0  0  0
    4.8880    1.2100    1.6210 C   0  0  0  0  0  0  0  0  0  0  0  0
    4.9520    0.4930    0.4300 C   0  0  0  0  0  0  0  0  0  0  0  0
    6.2260    0.3700   -0.3160 C   0  0  0  0  0  0  0  0  0  0  0  0
    7.3590    0.8980    0.0620 C   0  0  0  0  0  0  0  0  0  0  0  0
    8.4480    0.5960   -0.8980 C   0  0  0  0  0  0  0  0  0  0  0  0
    7.8780   -0.4590   -1.8060 C   0  0  0  0  0  0  0  0  0  0  0  0
    6.3870   -0.3670   -1.5900 C   0  0  0  0  0  0  0  0  0  0  0  0
    3.8440   -0.1280   -0.1000 C   0  0  0  0  0  0  0  0  0  0  0  0
    0.4970   -1.5390    2.1040 C   0  0  0  0  0  0  0  0  0  0  0  0
    1.7500   -2.0020    2.4900 O   0  0  0  0  0  0  0  0  0  0  0  0
    2.1050   -3.3120    2.0970 C   0  0  2  0  0  0  0  0  0  0  0  0
    2.0790   -3.3540    0.7180 F   0  0  0  0  0  0  0  0  0  0  0  0
    1.0970   -4.1720    2.5470 F   0  0  0  0  0  0  0  0  0  0  0  0
    3.3380   -3.6920    2.5830 F   0  0  0  0  0  0  0  0  0  0  0  0
   -0.6000   -1.7290    2.8990 C   0  0  0  0  0  0  0  0  0  0  0  0
   -1.8970   -1.2780    2.5540 C   0  0  0  0  0  0  0  0  0  0  0  0
   -2.8900   -1.5500    3.4660 O   0  0  0  0  0  0  0  0  0  0  0  0
  1  2  2  0
  2  3  1  0
  2 14  1  0
  4  3  1  6
  4  5  1  0
  4 13  1  0
  5  6  1  0
  6  7  1  0
  7  8  1  0
  8  9  1  0
  8 13  1  6
  9 10  1  1
  9 11  1  0
  9 12  1  0
 14 15  2  0
 14 37  1  0
 15 16  1  0
 16 17  1  0
 16 30  2  0
 17 18  2  0
 17 19  1  0
 19 20  2  0
 19 29  1  0
 20 21  1  0
 21 22  2  0
 22 23  1  0
 23 24  1  0
 23 29  2  0
 24 25  2  0
 24 28  1  0
 25 26  1  0
 26 27  1  0
 27 28  1  0
 30 31  1  0
 30 36  1  0
 31 32  1  0
 32 33  1  6
 32 34  1  0
 32 35  1  0
 36 37  2  0
 37 38  1  0
M  END
