
     RDKit          3D

 38 41  0  0  0  0  0  0  0  0999 V2000
   -7.0570   -1.0850    3.3690 N   0  0  0  0  0  0  0  0  0  0  0  0
   -6.3100   -0.9580    2.3590 C   0  0  0  0  0  0  0  0  0  0  0  0
   -6.7260   -0.1760    1.2000 C   0  0  0  0  0  0  0  0  0  0  0  0
   -7.8610    0.4420    1.1050 C   0  0  0  0  0  0  0  0  0  0  0  0
   -8.7510    0.3800    2.1590 F   0  0  0  0  0  0  0  0  0  0  0  0
   -8.2950    1.1430   -0.1200 C   0  0  2  0  0  0  0  0  0  0  0  0
   -9.1910    2.1600    0.2460 F   0  0  0  0  0  0  0  0  0  0  0  0
   -9.0400    0.2170   -0.8890 F   0  0  0  0  0  0  0  0  0  0  0  0
   -7.2040    1.6560   -0.9600 C   0  0  0  0  0  0  0  0  0  0  0  0
   -6.0060    0.8000   -0.9660 C   0  0  0  0  0  0  0  0  0  0  0  0
   -5.1180    0.8900   -2.0410 C   0  0  0  0  0  0  0  0  0  0  0  0
   -3.9590    0.1570   -2.0010 C   0  0  0  0  0  0  0  0  0  0  0  0
   -3.6400   -0.6600   -0.9480 C   0  0  0  0  0  0  0  0  0  0  0  0
   -4.5460   -0.7230    0.0990 C   0  0  0  0  0  0  0  0  0  0  0  0
   -5.7260   -0.0070    0.1070 C   0  0  0  0  0  0  0  0  0  0  0  0
   -2.4560   -1.3660   -0.9770 O   0  0  0  0  0  0  0  0  0  0  0  0
   -1.3590   -0.9240   -1.7210 C   0  0  2  0  0  0  0  0  0  0  0  0
   -0.2540   -0.4290   -0.7790 C   0  0  1  0  0  0  0  0  0  0  0  0
   -0.7430    0.6390    0.0030 O   0  0  0  0  0  0  0  0  0  0  0  0
    0.0590   -1.5460    0.1930 C   0  0  0  0  0  0  0  0  0  0  0  0
    1.0120   -1.1270    1.1150 O   0  0  0  0  0  0  0  0  0  0  0  0
    2.2880   -0.7190    0.7810 C   0  0  0  0  0  0  0  0  0  0  0  0
    2.6460   -0.7140   -0.4200 O   0  0  0  0  0  0  0  0  0  0  0  0
    3.1860   -0.3010    1.8690 C   0  0  0  0  0  0  0  0  0  0  0  0
    4.5170    0.1020    1.3430 C   0  0  0  0  0  0  0  0  0  0  0  0
    4.7540    1.4030    0.9790 C   0  0  0  0  0  0  0  0  0  0  0  0
    5.9570    1.8280    0.4910 C   0  0  0  0  0  0  0  0  0  0  0  0
    7.0430    0.9290    0.3350 C   0  0  0  0  0  0  0  0  0  0  0  0
    8.2510    1.4780   -0.1830 C   0  0  0  0  0  0  0  0  0  0  0  0
    9.3950    0.9730   -0.4380 C   0  0  0  0  0  0  0  0  0  0  0  0
    9.8950   -0.3750   -0.2910 C   0  0  2  0  0  0  0  0  0  0  0  0
    9.3050   -1.3080   -1.1170 F   0  0  0  0  0  0  0  0  0  0  0  0
    9.9720   -0.7880    1.0050 F   0  0  0  0  0  0  0  0  0  0  0  0
   11.2730   -0.3490   -0.7070 F   0  0  0  0  0  0  0  0  0  0  0  0
    6.7950   -0.3590    0.7000 C   0  0  0  0  0  0  0  0  0  0  0  0
    5.5460   -0.7740    1.2010 C   0  0  0  0  0  0  0  0  0  0  0  0
   -1.6510    0.1010   -2.7630 C   0  0  0  0  0  0  0  0  0  0  0  0
   -3.0310    0.2110   -3.0580 O   0  0  0  0  0  0  0  0  0  0  0  0
  1  2  2  0
  2  3  1  0
  3  4  2  0
  3 15  1  0
  4  5  1  0
  4  6  1  0
  6  7  1  1
  6  8  1  0
  6  9  1  0
  9 10  1  0
 10 11  2  0
 10 15  1  0
 11 12  1  0
 12 13  2  0
 12 38  1  0
 13 14  1  0
 13 16  1  0
 14 15  2  0
 16 17  1  0
 17 18  1  0
 17 37  1  6
 18 19  1  1
 18 20  1  0
 20 21  1  0
 21 22  1  0
 22 23  2  0
 22 24  1  0
 24 25  1  0
 25 26  2  0
 25 36  1  0
 26 27  1  0
 27 28  2  0
 28 29  1  0
 28 35  1  0
 29 30  2  3
 30 31  1  0
 31 32  1  6
 31 33  1  0
 31 34  1  0
 35 36  2  0
 37 38  1  0
M  END
