
     RDKit          3D

 37 40  0  0  0  0  0  0  0  0999 V2000
    7.3260    0.6170    0.8580 C   0  0  0  0  0  0  0  0  0  0  0  0
    6.7310   -0.0870   -0.3570 C   0  0  1  0  0  0  0  0  0  0  0  0
    7.8380   -0.1730   -1.3790 C   0  0  0  0  0  0  0  0  0  0  0  0
    6.2760   -1.4340    0.0940 C   0  0  0  0  0  0  0  0  0  0  0  0
    5.4390   -2.1630   -0.9310 C   0  0  0  0  0  0  0  0  0  0  0  0
    4.2240   -1.3450   -1.3410 C   0  0  1  0  0  0  0  0  0  0  0  0
    3.6050   -1.9800   -2.3890 O   0  0  0  0  0  0  0  0  0  0  0  0
    3.3060   -1.2540   -0.1720 C   0  0  0  0  0  0  0  0  0  0  0  0
    2.0630   -0.4910   -0.4330 C   0  0  0  0  0  0  0  0  0  0  0  0
    1.7980    0.0190   -1.5700 O   0  0  0  0  0  0  0  0  0  0  0  0
    1.1060   -0.2840    0.5560 O   0  0  0  0  0  0  0  0  0  0  0  0
   -0.0890    0.4300    0.3560 C   0  0  2  0  0  0  0  0  0  0  0  0
   -0.1430    1.6830    1.2070 C   0  0  0  0  0  0  0  0  0  0  0  0
   -1.4840    1.6470    1.9080 C   0  0  0  0  0  0  0  0  0  0  0  0
   -2.2720    0.6460    1.1570 N   0  0  0  0  0  0  0  0  0  0  0  0
   -3.6640    0.7410    0.9830 C   0  0  0  0  0  0  0  0  0  0  0  0
   -4.3800    1.7670    1.6170 C   0  0  0  0  0  0  0  0  0  0  0  0
   -5.7430    1.9060    1.4800 C   0  0  0  0  0  0  0  0  0  0  0  0
   -6.4080    1.0010    0.6950 C   0  0  0  0  0  0  0  0  0  0  0  0
   -5.7460   -0.0180    0.0570 C   0  0  0  0  0  0  0  0  0  0  0  0
   -4.3510   -0.1420    0.2110 C   0  0  0  0  0  0  0  0  0  0  0  0
   -3.6870   -1.1660   -0.4290 O   0  0  0  0  0  0  0  0  0  0  0  0
   -4.4310   -2.0470   -1.1940 C   0  0  0  0  0  0  0  0  0  0  0  0
   -4.7010   -1.7610   -2.4490 C   0  0  0  0  0  0  0  0  0  0  0  0
   -5.4280   -2.6140   -3.1990 F   0  0  0  0  0  0  0  0  0  0  0  0
   -4.2620   -0.6220   -3.0260 F   0  0  0  0  0  0  0  0  0  0  0  0
   -4.9370   -3.3220   -0.6290 C   0  0  1  0  0  0  0  0  0  0  0  0
   -3.8890   -4.1860   -0.3410 F   0  0  0  0  0  0  0  0  0  0  0  0
   -5.6110   -3.0480    0.5720 F   0  0  0  0  0  0  0  0  0  0  0  0
   -5.8730   -3.9040   -1.4530 F   0  0  0  0  0  0  0  0  0  0  0  0
   -7.8500    1.3530    0.7100 C   0  0  0  0  0  0  0  0  0  0  0  0
   -7.7840    2.8630    0.9200 C   0  0  0  0  0  0  0  0  0  0  0  0
   -6.7230    2.9020    2.0330 C   0  0  0  0  0  0  0  0  0  0  0  0
   -1.3090   -0.3110    0.7350 C   0  0  0  0  0  0  0  0  0  0  0  0
   -1.4990   -1.5320    0.7080 O   0  0  0  0  0  0  0  0  0  0  0  0
    4.7340   -0.0140   -1.8410 C   0  0  0  0  0  0  0  0  0  0  0  0
    5.5580    0.7240   -0.8360 C   0  0  0  0  0  0  0  0  0  0  0  0
  2  1  1  1
  2  3  1  0
  2  4  1  0
  2 37  1  0
  4  5  1  0
  5  6  1  0
  6  7  1  6
  6  8  1  0
  6 36  1  0
  8  9  1  0
  9 10  2  0
  9 11  1  0
 12 11  1  1
 12 13  1  0
 12 34  1  0
 13 14  1  0
 14 15  1  0
 15 16  1  0
 15 34  1  0
 16 17  2  0
 16 21  1  0
 17 18  1  0
 18 19  2  0
 18 33  1  0
 19 20  1  0
 19 31  1  0
 20 21  2  0
 21 22  1  0
 22 23  1  0
 23 24  2  3
 23 27  1  0
 24 25  1  0
 24 26  1  0
 27 28  1  1
 27 29  1  0
 27 30  1  0
 31 32  1  0
 32 33  1  0
 34 35  2  0
 36 37  1  0
M  END
