
     RDKit          3D

 33 34  0  0  0  0  0  0  0  0999 V2000
    1.0920    4.8870    1.0880 C   0  0  0  0  0  0  0  0  0  0  0  0
   -0.1900    4.8930    0.2860 C   0  0  0  0  0  0  0  0  0  0  0  0
   -0.2520    3.5990   -0.5020 C   0  0  0  0  0  0  0  0  0  0  0  0
   -0.2140    2.4740    0.5550 C   0  0  0  0  0  0  0  0  0  0  0  0
   -0.2790    1.2180   -0.1360 N   0  0  0  0  0  0  0  0  0  0  0  0
    0.8280    0.7550   -0.9030 C   0  0  0  0  0  0  0  0  0  0  0  0
    1.8940    0.0400   -0.1860 C   0  0  0  0  0  0  0  0  0  0  0  0
    2.0820    0.0130    1.1710 C   0  0  0  0  0  0  0  0  0  0  0  0
    3.1230   -0.7140    1.7600 C   0  0  0  0  0  0  0  0  0  0  0  0
    3.3490   -0.7290    3.4890 Cl  0  0  0  0  0  0  0  0  0  0  0  0
    4.0050   -1.4400    0.9810 C   0  0  0  0  0  0  0  0  0  0  0  0
    5.0560   -2.1790    1.4980 O   0  0  0  0  0  0  0  0  0  0  0  0
    6.3500   -1.6750    1.7000 C   0  0  0  0  0  0  0  0  0  0  0  0
    3.8170   -1.4180   -0.3830 C   0  0  0  0  0  0  0  0  0  0  0  0
    4.7000   -2.1560   -1.1840 O   0  0  0  0  0  0  0  0  0  0  0  0
    4.5610   -2.1910   -2.5890 C   0  0  0  0  0  0  0  0  0  0  0  0
    2.8050   -0.7080   -0.9610 C   0  0  0  0  0  0  0  0  0  0  0  0
   -1.4700    0.4100   -0.0950 C   0  0  0  0  0  0  0  0  0  0  0  0
   -2.6270    0.8870    0.5150 C   0  0  0  0  0  0  0  0  0  0  0  0
   -3.7530    0.0910    0.5410 C   0  0  0  0  0  0  0  0  0  0  0  0
   -3.7690   -1.1790   -0.0270 C   0  0  0  0  0  0  0  0  0  0  0  0
   -4.9800   -2.0270   -0.0020 C   0  0  2  0  0  0  0  0  0  0  0  0
   -5.9450   -1.3320    0.7410 O   0  0  0  0  0  0  0  0  0  0  0  0
   -4.6810   -3.3610    0.6280 C   0  0  1  0  0  0  0  0  0  0  0  0
   -4.2210   -3.2310    1.9220 F   0  0  0  0  0  0  0  0  0  0  0  0
   -5.8970   -4.0750    0.7560 F   0  0  0  0  0  0  0  0  0  0  0  0
   -3.7900   -4.1330   -0.0650 F   0  0  0  0  0  0  0  0  0  0  0  0
   -5.4530   -2.1910   -1.4450 C   0  0  1  0  0  0  0  0  0  0  0  0
   -5.7290   -0.9180   -1.9280 F   0  0  0  0  0  0  0  0  0  0  0  0
   -4.4600   -2.7050   -2.2560 F   0  0  0  0  0  0  0  0  0  0  0  0
   -6.5370   -3.0340   -1.5480 F   0  0  0  0  0  0  0  0  0  0  0  0
   -2.6060   -1.6070   -0.6140 C   0  0  0  0  0  0  0  0  0  0  0  0
   -1.4430   -0.8500   -0.6690 C   0  0  0  0  0  0  0  0  0  0  0  0
  1  2  1  0
  2  3  1  0
  3  4  1  0
  4  5  1  0
  5  6  1  0
  5 18  1  0
  6  7  1  0
  7  8  2  0
  7 17  1  0
  8  9  1  0
  9 10  1  0
  9 11  2  0
 11 12  1  0
 11 14  1  0
 12 13  1  0
 14 15  1  0
 14 17  2  0
 15 16  1  0
 18 19  2  0
 18 33  1  0
 19 20  1  0
 20 21  2  0
 21 22  1  0
 21 32  1  0
 22 23  1  1
 22 24  1  0
 22 28  1  0
 24 25  1  1
 24 26  1  0
 24 27  1  0
 28 29  1  6
 28 30  1  0
 28 31  1  0
 32 33  2  0
M  END
