
     RDKit          3D

 33 36  0  0  0  0  0  0  0  0999 V2000
    1.0260    5.6450    2.3760 C   0  0  0  0  0  0  0  0  0  0  0  0
   -0.2050    5.8040    1.9640 C   0  0  0  0  0  0  0  0  0  0  0  0
   -0.9000    4.8810    1.1060 C   0  0  0  0  0  0  0  0  0  0  0  0
   -2.1990    5.1630    0.7210 C   0  0  0  0  0  0  0  0  0  0  0  0
   -2.8580    4.2890   -0.0900 C   0  0  0  0  0  0  0  0  0  0  0  0
   -2.2450    3.1300   -0.5310 C   0  0  0  0  0  0  0  0  0  0  0  0
   -0.9600    2.8260   -0.1640 C   0  0  0  0  0  0  0  0  0  0  0  0
   -0.3560    1.5300   -0.6230 C   0  0  0  0  0  0  0  0  0  0  0  0
    0.9080    1.3810   -0.5070 C   0  0  0  0  0  0  0  0  0  0  0  0
    1.7140    0.2250   -0.8890 C   0  0  0  0  0  0  0  0  0  0  0  0
    1.2740   -0.7980   -1.4200 O   0  0  0  0  0  0  0  0  0  0  0  0
    3.1300    0.2340   -0.6470 N   0  0  0  0  0  0  0  0  0  0  0  0
    4.0110   -0.7930   -0.9660 C   0  0  0  0  0  0  0  0  0  0  0  0
    3.7960   -1.8890   -1.7590 C   0  0  0  0  0  0  0  0  0  0  0  0
    4.7810   -2.8610   -1.9830 C   0  0  0  0  0  0  0  0  0  0  0  0
    6.0240   -2.7540   -1.4070 C   0  0  0  0  0  0  0  0  0  0  0  0
    7.1370   -3.5220   -1.4480 N   0  0  0  0  0  0  0  0  0  0  0  0
    8.0510   -2.9230   -0.6900 C   0  0  0  0  0  0  0  0  0  0  0  0
    9.2290   -3.3430   -0.4800 O   0  0  0  0  0  0  0  0  0  0  0  0
    7.5530   -1.8010   -0.1710 N   0  0  0  0  0  0  0  0  0  0  0  0
    6.2700   -1.6640   -0.6050 C   0  0  0  0  0  0  0  0  0  0  0  0
    5.2950   -0.7190   -0.3940 C   0  0  0  0  0  0  0  0  0  0  0  0
   -1.3340    0.4810   -1.0920 C   0  0  0  0  0  0  0  0  0  0  0  0
   -2.3350    0.2060   -0.1450 N   0  0  0  0  0  0  0  0  0  0  0  0
   -2.3470   -1.0150    0.6330 C   0  0  2  0  0  0  0  0  0  0  0  0
   -1.1650   -1.8440    0.3680 C   0  0  0  0  0  0  0  0  0  0  0  0
   -1.0520   -3.1200    1.1680 C   0  0  0  0  0  0  0  0  0  0  0  0
   -3.6890   -1.6890    0.4770 C   0  0  2  0  0  0  0  0  0  0  0  0
   -3.8970   -2.9390    1.2320 C   0  0  0  0  0  0  0  0  0  0  0  0
   -4.1940   -1.7840   -0.9400 C   0  0  0  0  0  0  0  0  0  0  0  0
   -5.4250   -1.0350   -0.5550 C   0  0  0  0  0  0  0  0  0  0  0  0
   -4.8200   -0.7200    0.7700 C   0  0  0  0  0  0  0  0  0  0  0  0
   -0.3090    3.7020    0.6450 C   0  0  0  0  0  0  0  0  0  0  0  0
  1  2  2  0
  2  3  1  0
  3  4  2  0
  3 33  1  0
  4  5  1  0
  5  6  2  0
  6  7  1  0
  7  8  1  0
  7 33  2  0
  8  9  2  3
  8 23  1  0
  9 10  1  0
 10 11  2  0
 10 12  1  0
 12 13  1  0
 13 14  2  0
 13 22  1  0
 14 15  1  0
 15 16  2  0
 16 17  1  0
 16 21  1  0
 17 18  1  0
 18 19  2  0
 18 20  1  0
 20 21  1  0
 21 22  2  0
 23 24  1  0
 24 25  1  0
 25 26  1  6
 25 28  1  0
 26 27  1  0
 28 29  1  1
 28 30  1  0
 28 32  1  0
 30 31  1  0
 31 32  1  0
M  CHG  1  24   1
M  END
