
     RDKit          3D

 33 36  0  0  0  0  0  0  0  0999 V2000
   -5.8190    3.5780    0.6360 C   0  0  0  0  0  0  0  0  0  0  0  0
   -4.6850    3.1320   -0.2530 C   0  0  1  0  0  0  0  0  0  0  0  0
   -3.7960    4.2930   -0.5840 C   0  0  0  0  0  0  0  0  0  0  0  0
   -4.0180    2.0380    0.3350 O   0  0  0  0  0  0  0  0  0  0  0  0
   -4.2830    0.6990    0.0120 C   0  0  0  0  0  0  0  0  0  0  0  0
   -5.3050    0.3420   -0.8170 C   0  0  0  0  0  0  0  0  0  0  0  0
   -5.5310   -1.0020   -1.1280 C   0  0  0  0  0  0  0  0  0  0  0  0
   -4.7420   -1.9810   -0.6150 C   0  0  0  0  0  0  0  0  0  0  0  0
   -3.6910   -1.5980    0.2370 C   0  0  0  0  0  0  0  0  0  0  0  0
   -3.4620   -0.2880    0.5480 C   0  0  0  0  0  0  0  0  0  0  0  0
   -2.4990    0.1550    1.6190 C   0  0  1  0  0  0  0  0  0  0  0  0
   -2.9470   -0.6590    2.7690 O   0  0  0  0  0  0  0  0  0  0  0  0
   -1.1200   -0.2610    1.3890 C   0  0  0  0  0  0  0  0  0  0  0  0
   -0.6980   -1.5130    0.9500 N   0  0  0  0  0  0  0  0  0  0  0  0
    0.7400   -1.5840    0.6270 C   0  0  0  0  0  0  0  0  0  0  0  0
    1.6020   -0.5850    0.9840 C   0  0  0  0  0  0  0  0  0  0  0  0
    2.9400   -0.5470    0.5670 C   0  0  0  0  0  0  0  0  0  0  0  0
    3.3880   -1.5680   -0.2380 C   0  0  0  0  0  0  0  0  0  0  0  0
    4.7700   -1.5740   -0.7940 C   0  0  2  0  0  0  0  0  0  0  0  0
    5.3800   -2.8610   -0.8230 N   0  0  0  0  0  0  0  0  0  0  0  0
    5.6010   -0.4530   -0.4120 C   0  0  0  0  0  0  0  0  0  0  0  0
    6.8690   -0.3010   -0.1990 C   0  0  0  0  0  0  0  0  0  0  0  0
    7.4710    0.9930    0.1880 C   0  0  0  0  0  0  0  0  0  0  0  0
    8.8590    1.1050    0.2980 C   0  0  0  0  0  0  0  0  0  0  0  0
    9.4730    2.2820    0.6500 C   0  0  0  0  0  0  0  0  0  0  0  0
    8.7200    3.4060    0.9140 C   0  0  0  0  0  0  0  0  0  0  0  0
    7.3810    3.3000    0.8080 N   0  0  0  0  0  0  0  0  0  0  0  0
    6.7690    2.1320    0.4550 C   0  0  0  0  0  0  0  0  0  0  0  0
    2.5030   -2.5600   -0.5760 C   0  0  0  0  0  0  0  0  0  0  0  0
    1.2160   -2.5640   -0.1520 N   0  0  0  0  0  0  0  0  0  0  0  0
   -5.2190   -3.3180   -1.0920 C   0  0  0  0  0  0  0  0  0  0  0  0
   -6.6890   -2.9880   -1.3650 C   0  0  0  0  0  0  0  0  0  0  0  0
   -6.5920   -1.6210   -1.9920 C   0  0  0  0  0  0  0  0  0  0  0  0
  2  1  1  1
  2  3  1  0
  2  4  1  0
  4  5  1  0
  5  6  2  0
  5 10  1  0
  6  7  1  0
  7  8  2  0
  7 33  1  0
  8  9  1  0
  8 31  1  0
  9 10  2  0
 10 11  1  0
 11 12  1  1
 11 13  1  0
 13 14  1  0
 14 15  1  0
 15 16  2  0
 15 30  1  0
 16 17  1  0
 17 18  2  0
 18 19  1  0
 18 29  1  0
 19 20  1  1
 19 21  1  0
 21 22  2  3
 22 23  1  0
 23 24  2  0
 23 28  1  0
 24 25  1  0
 25 26  2  0
 26 27  1  0
 27 28  2  0
 29 30  2  0
 31 32  1  0
 32 33  1  0
M  CHG  1  20   1
M  END
