
     RDKit          3D

 33 36  0  0  0  0  0  0  0  0999 V2000
   -5.0930    0.0160   -0.7150 C   0  0  0  0  0  0  0  0  0  0  0  0
   -4.4240    0.8090    0.2750 N   0  0  0  0  0  0  0  0  0  0  0  0
   -3.6260    0.0670    1.1610 C   0  0  0  0  0  0  0  0  0  0  0  0
   -2.2630    0.3140    1.2950 C   0  0  0  0  0  0  0  0  0  0  0  0
   -1.4460   -0.3540    2.1800 C   0  0  0  0  0  0  0  0  0  0  0  0
   -0.0570    0.0170    2.3800 C   0  0  0  0  0  0  0  0  0  0  0  0
    1.0220   -0.9190    2.1170 C   0  0  0  0  0  0  0  0  0  0  0  0
    1.3060   -1.5210    0.8180 C   0  0  0  0  0  0  0  0  0  0  0  0
    1.5620   -0.6660   -0.3350 C   0  0  0  0  0  0  0  0  0  0  0  0
    2.6700    0.1780   -0.3750 C   0  0  0  0  0  0  0  0  0  0  0  0
    2.9100    1.1290   -1.3560 C   0  0  0  0  0  0  0  0  0  0  0  0
    4.0950    1.9220   -1.2390 N   0  0  0  0  0  0  0  0  0  0  0  0
    4.6420    2.7090   -2.2730 C   0  0  0  0  0  0  0  0  0  0  0  0
    4.0950    2.7540   -3.4110 O   0  0  0  0  0  0  0  0  0  0  0  0
    5.8570    3.4900   -2.0450 C   0  0  0  0  0  0  0  0  0  0  0  0
    6.5530    3.5720   -0.8770 C   0  0  0  0  0  0  0  0  0  0  0  0
    7.6170    4.4100   -1.1220 C   0  0  0  0  0  0  0  0  0  0  0  0
    7.5130    4.8030   -2.4490 C   0  0  0  0  0  0  0  0  0  0  0  0
    6.4460    4.2230   -2.9470 O   0  0  0  0  0  0  0  0  0  0  0  0
    1.9800    1.2350   -2.3520 C   0  0  0  0  0  0  0  0  0  0  0  0
    0.8470    0.4140   -2.3700 C   0  0  0  0  0  0  0  0  0  0  0  0
    0.6670   -0.5330   -1.3450 C   0  0  0  0  0  0  0  0  0  0  0  0
   -0.4390   -1.4690   -1.5410 C   0  0  0  0  0  0  0  0  0  0  0  0
   -0.1740   -2.8450   -1.6100 C   0  0  0  0  0  0  0  0  0  0  0  0
   -1.2260   -3.6930   -1.8190 C   0  0  0  0  0  0  0  0  0  0  0  0
   -2.4950   -3.1520   -1.9520 C   0  0  0  0  0  0  0  0  0  0  0  0
   -2.7410   -1.8510   -1.8870 N   0  0  0  0  0  0  0  0  0  0  0  0
   -1.7150   -1.0020   -1.6810 C   0  0  0  0  0  0  0  0  0  0  0  0
   -2.0610   -1.3240    2.9630 C   0  0  0  0  0  0  0  0  0  0  0  0
   -1.3160   -2.0730    3.9100 N   0  0  0  0  0  0  0  0  0  0  0  0
   -3.4090   -1.5790    2.8380 C   0  0  0  0  0  0  0  0  0  0  0  0
   -4.2080   -0.8930    1.9430 C   0  0  0  0  0  0  0  0  0  0  0  0
   -5.6500   -1.2510    1.9020 C   0  0  0  0  0  0  0  0  0  0  0  0
  1  2  1  0
  2  3  1  0
  3  4  2  0
  3 32  1  0
  4  5  1  0
  5  6  1  0
  5 29  2  0
  6  7  1  0
  7  8  1  0
  8  9  1  0
  9 10  2  0
  9 22  1  0
 10 11  1  0
 11 12  1  0
 11 20  2  0
 12 13  1  0
 13 14  2  0
 13 15  1  0
 15 16  2  0
 15 19  1  0
 16 17  1  0
 17 18  2  0
 18 19  1  0
 20 21  1  0
 21 22  2  0
 22 23  1  0
 23 24  2  0
 23 28  1  0
 24 25  1  0
 25 26  2  0
 26 27  1  0
 27 28  2  0
 29 30  1  0
 29 31  1  0
 31 32  2  0
 32 33  1  0
M  CHG  1   2   1
M  END
