
     RDKit          3D

 33 36  0  0  0  0  0  0  0  0999 V2000
   -5.0350   -3.4900   -0.9580 C   0  0  0  0  0  0  0  0  0  0  0  0
   -3.9330   -3.1720    0.0020 C   0  0  0  0  0  0  0  0  0  0  0  0
   -2.7560   -2.4640   -0.6630 C   0  0  0  0  0  0  0  0  0  0  0  0
   -3.3150   -1.1840   -1.2410 C   0  0  1  0  0  0  0  0  0  0  0  0
   -3.8840   -0.3870   -0.1350 C   0  0  0  0  0  0  0  0  0  0  0  0
   -3.1730   -0.2270    1.0230 C   0  0  0  0  0  0  0  0  0  0  0  0
   -3.6750    0.5130    2.0970 C   0  0  0  0  0  0  0  0  0  0  0  0
   -4.9180    1.1050    2.0070 C   0  0  0  0  0  0  0  0  0  0  0  0
   -5.6210    0.9350    0.8380 C   0  0  0  0  0  0  0  0  0  0  0  0
   -5.1240    0.2010   -0.2300 C   0  0  0  0  0  0  0  0  0  0  0  0
   -6.9410    1.5720    0.7630 C   0  0  0  0  0  0  0  0  0  0  0  0
   -7.4340    2.2730    1.7620 C   0  0  0  0  0  0  0  0  0  0  0  0
   -6.7190    2.4300    2.9150 O   0  0  0  0  0  0  0  0  0  0  0  0
   -5.4600    1.8900    3.1360 C   0  0  0  0  0  0  0  0  0  0  0  0
   -2.2800   -0.3990   -1.9810 C   0  0  0  0  0  0  0  0  0  0  0  0
   -0.9890   -0.4050   -1.6140 N   0  0  0  0  0  0  0  0  0  0  0  0
   -0.0330    0.3090   -2.2810 C   0  0  0  0  0  0  0  0  0  0  0  0
    1.3540    0.2640   -1.8340 C   0  0  0  0  0  0  0  0  0  0  0  0
    2.3810    0.9440   -2.4280 C   0  0  0  0  0  0  0  0  0  0  0  0
    3.6910    0.8450   -1.9360 C   0  0  0  0  0  0  0  0  0  0  0  0
    4.0050    0.0680   -0.8420 C   0  0  0  0  0  0  0  0  0  0  0  0
    5.4030   -0.0280   -0.3260 C   0  0  0  0  0  0  0  0  0  0  0  0
    5.6130    0.8920    0.7600 N   0  0  0  0  0  0  0  0  0  0  0  0
    6.0580    0.1350    1.9240 C   0  0  0  0  0  0  0  0  0  0  0  0
    7.5710    0.2180    1.9530 C   0  0  2  0  0  0  0  0  0  0  0  0
    7.9660    1.6740    2.0650 C   0  0  0  0  0  0  0  0  0  0  0  0
    8.0550   -0.3590    0.7110 N   0  0  0  0  0  0  0  0  0  0  0  0
    2.9720   -0.6170   -0.2420 C   0  0  0  0  0  0  0  0  0  0  0  0
    1.6860   -0.5230   -0.7210 C   0  0  0  0  0  0  0  0  0  0  0  0
   -0.4260    1.0520   -3.3620 C   0  0  0  0  0  0  0  0  0  0  0  0
   -1.7740    1.0670   -3.7570 C   0  0  0  0  0  0  0  0  0  0  0  0
   -2.1050    1.7590   -4.7540 O   0  0  0  0  0  0  0  0  0  0  0  0
   -2.6240    0.3330   -3.0350 N   0  0  0  0  0  0  0  0  0  0  0  0
  1  2  1  0
  2  3  1  0
  4  3  1  1
  4  5  1  0
  4 15  1  0
  5  6  2  0
  5 10  1  0
  6  7  1  0
  7  8  2  0
  8  9  1  0
  8 14  1  0
  9 10  2  0
  9 11  1  0
 11 12  2  0
 12 13  1  0
 13 14  1  0
 15 16  2  0
 15 33  1  0
 16 17  1  0
 17 18  1  0
 17 30  2  0
 18 19  2  0
 18 29  1  0
 19 20  1  0
 20 21  2  0
 21 22  1  0
 21 28  1  0
 22 23  1  0
 23 24  1  0
 24 25  1  0
 25 26  1  6
 25 27  1  0
 28 29  2  0
 30 31  1  0
 31 32  2  0
 31 33  1  0
M  CHG  1  23   1
M  END
