
     RDKit          3D

 23 24  0  0  0  0  0  0  0  0999 V2000
   -3.0700    3.4300   -1.5380 C   0  0  0  0  0  0  0  0  0  0  0  0
   -2.2160    2.4710   -1.7220 C   0  0  0  0  0  0  0  0  0  0  0  0
   -2.2900    1.1840   -1.0530 C   0  0  0  0  0  0  0  0  0  0  0  0
   -1.0720    0.5580   -0.7330 C   0  0  0  0  0  0  0  0  0  0  0  0
   -1.0220   -0.6730   -0.1200 C   0  0  0  0  0  0  0  0  0  0  0  0
    0.2100   -1.2730    0.2110 N   0  0  0  0  0  0  0  0  0  0  0  0
    1.4580   -0.7260   -0.1500 C   0  0  0  0  0  0  0  0  0  0  0  0
    1.6430    0.3240   -0.7910 O   0  0  0  0  0  0  0  0  0  0  0  0
    2.6850   -1.4040    0.2340 N   0  0  0  0  0  0  0  0  0  0  0  0
    3.9450   -0.8860   -0.1100 N   0  0  0  0  0  0  0  0  0  0  0  0
    4.4380    0.2360    0.6090 C   0  0  0  0  0  0  0  0  0  0  0  0
    3.7100    0.7180    1.5350 O   0  0  0  0  0  0  0  0  0  0  0  0
    5.7470    0.8400    0.3130 C   0  0  0  0  0  0  0  0  0  0  0  0
    6.0580    2.0170    1.1960 C   0  0  0  0  0  0  0  0  0  0  0  0
    7.3130    2.5040    0.8290 O   0  0  0  0  0  0  0  0  0  0  0  0
   -2.2200   -1.3410    0.2040 C   0  0  0  0  0  0  0  0  0  0  0  0
   -3.3970   -0.7350   -0.1060 C   0  0  0  0  0  0  0  0  0  0  0  0
   -3.4090    0.4980   -0.7200 C   0  0  0  0  0  0  0  0  0  0  0  0
   -4.6840    1.0540   -1.0450 N   0  0  0  0  0  0  0  0  0  0  0  0
   -4.9430   -1.5030    0.2670 S   0  0  0  0  0  0  0  0  0  0  0  0
   -4.6440   -3.0910    1.0360 C   0  0  0  0  0  0  0  0  0  0  0  0
   -3.2120   -3.3700    1.1880 C   0  0  0  0  0  0  0  0  0  0  0  0
   -2.1800   -2.6510    0.8460 C   0  0  0  0  0  0  0  0  0  0  0  0
  1  2  2  0
  2  3  1  0
  3  4  2  0
  3 18  1  0
  4  5  1  0
  5  6  1  0
  5 16  2  0
  6  7  1  0
  7  8  2  0
  7  9  1  0
  9 10  1  0
 10 11  1  0
 11 12  2  0
 11 13  1  0
 13 14  1  0
 14 15  1  0
 16 17  1  0
 16 23  1  0
 17 18  2  0
 17 20  1  0
 18 19  1  0
 20 21  1  0
 21 22  1  0
 22 23  2  0
M  CHG  1  19   1
M  END
