
     RDKit          3D

 23 24  0  0  0  0  0  0  0  0999 V2000
    7.8210   -0.9860    2.0900 C   0  0  0  0  0  0  0  0  0  0  0  0
    6.5140   -0.8650    1.6870 O   0  0  0  0  0  0  0  0  0  0  0  0
    5.9590   -2.0460    1.2330 C   0  0  0  0  0  0  0  0  0  0  0  0
    4.5500   -1.7690    0.8300 C   0  0  0  0  0  0  0  0  0  0  0  0
    3.7970   -2.6750    0.3720 O   0  0  0  0  0  0  0  0  0  0  0  0
    3.9850   -0.4680    0.9440 N   0  0  0  0  0  0  0  0  0  0  0  0
    2.6610   -0.2450    0.5570 N   0  0  0  0  0  0  0  0  0  0  0  0
    2.2400    0.8230   -0.2460 C   0  0  0  0  0  0  0  0  0  0  0  0
    3.0770    1.6460   -0.6570 O   0  0  0  0  0  0  0  0  0  0  0  0
    0.8390    1.0250   -0.6320 C   0  0  0  0  0  0  0  0  0  0  0  0
   -0.2870    0.3370   -0.3630 C   0  0  0  0  0  0  0  0  0  0  0  0
   -1.4680    0.7500   -0.8530 C   0  0  0  0  0  0  0  0  0  0  0  0
   -2.7690    0.0170   -0.5850 C   0  0  0  0  0  0  0  0  0  0  0  0
   -3.0350   -1.1950   -1.1670 C   0  0  0  0  0  0  0  0  0  0  0  0
   -4.2020   -1.8900   -0.9450 C   0  0  0  0  0  0  0  0  0  0  0  0
   -5.1260   -1.3230   -0.0980 C   0  0  0  0  0  0  0  0  0  0  0  0
   -4.9060   -0.1110    0.5100 C   0  0  0  0  0  0  0  0  0  0  0  0
   -5.8510    0.4590    1.3710 N   0  0  0  0  0  0  0  0  0  0  0  0
   -3.7060    0.5620    0.2560 C   0  0  0  0  0  0  0  0  0  0  0  0
   -3.4210    1.8180    0.8530 N   0  0  0  0  0  0  0  0  0  0  0  0
   -1.4990    1.9010   -1.6410 C   0  0  0  0  0  0  0  0  0  0  0  0
   -2.5500    2.6190   -2.3150 C   0  0  0  0  0  0  0  0  0  0  0  0
    0.2810    2.4050   -1.6690 S   0  0  0  0  0  0  0  0  0  0  0  0
  1  2  1  0
  2  3  1  0
  3  4  1  0
  4  5  2  0
  4  6  1  0
  6  7  1  0
  7  8  1  0
  8  9  2  0
  8 10  1  0
 10 11  2  0
 10 23  1  0
 11 12  1  0
 12 13  1  0
 12 21  2  0
 13 14  2  0
 13 19  1  0
 14 15  1  0
 15 16  2  0
 16 17  1  0
 17 18  1  0
 17 19  2  0
 19 20  1  0
 21 22  1  0
 21 23  1  0
M  CHG  1  18   1
M  END
