
     RDKit          3D

 23 24  0  0  0  0  0  0  0  0999 V2000
   -8.0810   -0.7920   -0.7880 N   0  0  0  0  0  0  0  0  0  0  0  0
   -6.8060   -0.3850   -1.3420 C   0  0  0  0  0  0  0  0  0  0  0  0
   -5.9000   -0.0970   -0.2100 C   0  0  0  0  0  0  0  0  0  0  0  0
   -5.6900    0.9760    0.5520 C   0  0  0  0  0  0  0  0  0  0  0  0
   -4.7780    0.9650    1.5390 C   0  0  0  0  0  0  0  0  0  0  0  0
   -4.0790   -0.1910    1.7240 C   0  0  0  0  0  0  0  0  0  0  0  0
   -3.0210   -0.5220    2.7150 C   0  0  0  0  0  0  0  0  0  0  0  0
   -1.7260   -0.0800    2.3100 N   0  0  0  0  0  0  0  0  0  0  0  0
   -1.1470   -0.5510    1.0960 C   0  0  0  0  0  0  0  0  0  0  0  0
   -1.8070   -1.3560    0.4080 O   0  0  0  0  0  0  0  0  0  0  0  0
    0.1870   -0.0790    0.7030 C   0  0  0  0  0  0  0  0  0  0  0  0
    0.8340    0.7320    1.4130 O   0  0  0  0  0  0  0  0  0  0  0  0
    0.8130   -0.5120   -0.4980 N   0  0  0  0  0  0  0  0  0  0  0  0
    2.0910   -0.0540   -0.8700 N   0  0  0  0  0  0  0  0  0  0  0  0
    3.1730   -0.3310   -0.0230 C   0  0  0  0  0  0  0  0  0  0  0  0
    2.9580   -0.9900    1.0550 O   0  0  0  0  0  0  0  0  0  0  0  0
    4.5120    0.0730   -0.2810 C   0  0  0  0  0  0  0  0  0  0  0  0
    5.5170   -0.2170    0.5680 C   0  0  0  0  0  0  0  0  0  0  0  0
    6.8710    0.2590    0.1900 C   0  0  0  0  0  0  0  0  0  0  0  0
    7.1360   -0.2860   -1.1980 C   0  0  0  0  0  0  0  0  0  0  0  0
    6.1520    0.3200   -2.1370 C   0  0  0  0  0  0  0  0  0  0  0  0
    4.8890    0.8320   -1.4820 C   0  0  0  0  0  0  0  0  0  0  0  0
   -4.7200   -1.3040    0.4730 S   0  0  0  0  0  0  0  0  0  0  0  0
  1  2  1  0
  2  3  1  0
  3  4  2  0
  3 23  1  0
  4  5  1  0
  5  6  2  0
  6  7  1  0
  6 23  1  0
  7  8  1  0
  8  9  1  0
  9 10  2  0
  9 11  1  0
 11 12  2  0
 11 13  1  0
 13 14  1  0
 14 15  1  0
 15 16  2  0
 15 17  1  0
 17 18  2  0
 17 22  1  0
 18 19  1  0
 19 20  1  0
 20 21  1  0
 21 22  1  0
M  CHG  1   1   1
M  END
