
     RDKit          3D

 23 25  0  0  0  0  0  0  0  0999 V2000
   -6.0330   -1.2230   -1.0110 N   0  0  0  0  0  0  0  0  0  0  0  0
   -5.2820   -0.0140   -0.7380 C   0  0  2  0  0  0  0  0  0  0  0  0
   -3.9490   -0.1410   -1.3800 C   0  0  0  0  0  0  0  0  0  0  0  0
   -2.8510   -0.6660   -0.4990 C   0  0  0  0  0  0  0  0  0  0  0  0
   -2.6780    0.2830    0.6950 C   0  0  0  0  0  0  0  0  0  0  0  0
   -3.9050    0.6200    1.2100 C   0  0  0  0  0  0  0  0  0  0  0  0
   -3.4370    1.7290    2.5750 S   0  0  0  0  0  0  0  0  0  0  0  0
   -1.6090    1.6170    2.3020 C   0  0  0  0  0  0  0  0  0  0  0  0
   -0.6440    2.1790    2.9390 N   0  0  0  0  0  0  0  0  0  0  0  0
    0.6310    1.9660    2.5780 C   0  0  0  0  0  0  0  0  0  0  0  0
    0.8370    1.1110    1.4840 C   0  0  0  0  0  0  0  0  0  0  0  0
    2.2020    0.9070    1.1560 N   0  0  0  0  0  0  0  0  0  0  0  0
    2.7120    0.3290   -0.0210 C   0  0  0  0  0  0  0  0  0  0  0  0
    1.9480   -0.0680   -0.9240 O   0  0  0  0  0  0  0  0  0  0  0  0
    4.1630    0.1630   -0.2500 C   0  0  0  0  0  0  0  0  0  0  0  0
    4.9310    0.5580    0.6500 O   0  0  0  0  0  0  0  0  0  0  0  0
    4.6850   -0.4090   -1.4140 N   0  0  0  0  0  0  0  0  0  0  0  0
    6.1180   -0.5550   -1.6010 C   0  0  0  0  0  0  0  0  0  0  0  0
    6.7760   -1.4050   -0.5600 C   0  0  0  0  0  0  0  0  0  0  0  0
    8.1460   -1.4430   -0.8860 O   0  0  0  0  0  0  0  0  0  0  0  0
   -0.1970    0.5300    0.8270 C   0  0  0  0  0  0  0  0  0  0  0  0
   -1.5600    0.7610    1.2180 C   0  0  0  0  0  0  0  0  0  0  0  0
   -5.2150    0.1830    0.7380 C   0  0  0  0  0  0  0  0  0  0  0  0
  2  1  1  1
  2  3  1  0
  2 23  1  0
  3  4  1  0
  4  5  1  0
  5  6  2  0
  5 22  1  0
  6  7  1  0
  6 23  1  0
  7  8  1  0
  8  9  2  0
  8 22  1  0
  9 10  1  0
 10 11  2  0
 11 12  1  0
 11 21  1  0
 12 13  1  0
 13 14  2  0
 13 15  1  0
 15 16  2  0
 15 17  1  0
 17 18  1  0
 18 19  1  0
 19 20  1  0
 21 22  2  0
M  CHG  1   1   1
M  END
