
     RDKit          3D

 22 24  0  0  0  0  0  0  0  0999 V2000
   -5.6290    1.2870   -1.2810 N   0  0  0  0  0  0  0  0  0  0  0  0
   -4.6610    0.5610   -0.8040 C   0  0  0  0  0  0  0  0  0  0  0  0
   -4.9230   -0.6460   -0.2230 C   0  0  0  0  0  0  0  0  0  0  0  0
   -3.9500   -1.4560    0.2950 C   0  0  0  0  0  0  0  0  0  0  0  0
   -2.6320   -1.0350    0.2310 C   0  0  0  0  0  0  0  0  0  0  0  0
   -1.5790   -1.7590    0.7150 C   0  0  0  0  0  0  0  0  0  0  0  0
   -1.8000   -2.9820    1.3090 O   0  0  0  0  0  0  0  0  0  0  0  0
   -0.2570   -1.2890    0.6260 C   0  0  0  0  0  0  0  0  0  0  0  0
    0.7340   -2.0930    1.1440 O   0  0  0  0  0  0  0  0  0  0  0  0
    0.0240   -0.0880    0.0500 C   0  0  0  0  0  0  0  0  0  0  0  0
    1.3700    0.4900   -0.0920 C   0  0  0  0  0  0  0  0  0  0  0  0
    1.4600    1.6360   -0.6610 O   0  0  0  0  0  0  0  0  0  0  0  0
    2.5620   -0.0940    0.3370 N   0  0  0  0  0  0  0  0  0  0  0  0
    3.8470    0.5170    0.1820 C   0  0  0  0  0  0  0  0  0  0  0  0
    4.9640   -0.3230    0.3090 C   0  0  0  0  0  0  0  0  0  0  0  0
    6.2450    0.1450    0.2020 C   0  0  0  0  0  0  0  0  0  0  0  0
    6.4440    1.4540   -0.0320 N   0  0  0  0  0  0  0  0  0  0  0  0
    5.4190    2.3030   -0.1610 C   0  0  0  0  0  0  0  0  0  0  0  0
    4.1050    1.8180   -0.0510 C   0  0  0  0  0  0  0  0  0  0  0  0
   -1.0670    0.6460   -0.4440 C   0  0  0  0  0  0  0  0  0  0  0  0
   -2.3650    0.1860   -0.3570 C   0  0  0  0  0  0  0  0  0  0  0  0
   -3.3830    0.9460   -0.8560 N   0  0  0  0  0  0  0  0  0  0  0  0
  1  2  2  0
  2  3  1  0
  2 22  1  0
  3  4  2  0
  4  5  1  0
  5  6  2  0
  5 21  1  0
  6  7  1  0
  6  8  1  0
  8  9  1  0
  8 10  2  0
 10 11  1  0
 10 20  1  0
 11 12  2  0
 11 13  1  0
 13 14  1  0
 14 15  2  0
 14 19  1  0
 15 16  1  0
 16 17  2  0
 17 18  1  0
 18 19  2  0
 20 21  2  0
 21 22  1  0
M  CHG  1   1   1
M  END
