
     RDKit          3D

 23 24  0  0  0  0  0  0  0  0999 V2000
   -6.4940   -1.6270    0.8950 C   0  0  0  0  0  0  0  0  0  0  0  0
   -5.1800   -0.9750    0.6080 C   0  0  0  0  0  0  0  0  0  0  0  0
   -5.0620    0.3040    0.8830 C   0  0  0  0  0  0  0  0  0  0  0  0
   -3.9730    1.1900    0.7310 N   0  0  0  0  0  0  0  0  0  0  0  0
   -2.9870    1.1960   -0.1120 C   0  0  0  0  0  0  0  0  0  0  0  0
   -2.0460    2.2600    0.0200 N   0  0  0  0  0  0  0  0  0  0  0  0
   -2.7440    0.2420   -1.1670 C   0  0  0  0  0  0  0  0  0  0  0  0
   -2.0220    0.7930   -2.3450 C   0  0  0  0  0  0  0  0  0  0  0  0
   -0.4180    1.4230   -1.8700 S   0  0  0  0  0  0  0  0  0  0  0  0
    0.6960    0.1780   -1.3220 C   0  0  0  0  0  0  0  0  0  0  0  0
    0.3540   -1.0170   -1.2820 O   0  0  0  0  0  0  0  0  0  0  0  0
    2.0540    0.5320   -0.9020 C   0  0  0  0  0  0  0  0  0  0  0  0
    2.3940    1.7330   -0.9470 O   0  0  0  0  0  0  0  0  0  0  0  0
    2.9720   -0.4480   -0.4540 N   0  0  0  0  0  0  0  0  0  0  0  0
    4.3030   -0.2290   -0.0270 C   0  0  0  0  0  0  0  0  0  0  0  0
    4.9290    0.9830    0.0090 C   0  0  0  0  0  0  0  0  0  0  0  0
    6.2490    1.1020    0.4450 C   0  0  0  0  0  0  0  0  0  0  0  0
    6.9740    0.0170    0.8540 C   0  0  0  0  0  0  0  0  0  0  0  0
    6.3720   -1.2020    0.8270 C   0  0  0  0  0  0  0  0  0  0  0  0
    5.0400   -1.3350    0.3890 C   0  0  0  0  0  0  0  0  0  0  0  0
    4.5360   -2.5940    0.4020 O   0  0  0  0  0  0  0  0  0  0  0  0
   -3.0390   -1.0410   -1.3000 C   0  0  0  0  0  0  0  0  0  0  0  0
   -3.9010   -2.0280   -0.0880 S   0  0  0  0  0  0  0  0  0  0  0  0
  1  2  1  0
  2  3  2  0
  2 23  1  0
  3  4  1  0
  4  5  2  0
  5  6  1  0
  5  7  1  0
  7  8  1  0
  7 22  2  0
  8  9  1  0
  9 10  1  0
 10 11  2  0
 10 12  1  0
 12 13  2  0
 12 14  1  0
 14 15  1  0
 15 16  2  0
 15 20  1  0
 16 17  1  0
 17 18  2  0
 18 19  1  0
 19 20  2  0
 20 21  1  0
 22 23  1  0
M  CHG  1   4   1
M  END
