
     RDKit          3D

 13 13  0  0  0  0  0  0  0  0999 V2000
   -2.9190   -1.0790    0.2630 C   0  0  0  0  0  0  0  0  0  0  0  0
   -2.2010    0.2350    0.1430 C   0  0  0  0  0  0  0  0  0  0  0  0
   -2.7480    1.4030    0.3670 O   0  0  0  0  0  0  0  0  0  0  0  0
   -1.8970    2.3580    0.1890 N   0  0  0  0  0  0  0  0  0  0  0  0
   -0.7260    1.7990   -0.1710 C   0  0  0  0  0  0  0  0  0  0  0  0
    0.3340    2.4320   -0.4300 O   0  0  0  0  0  0  0  0  0  0  0  0
   -0.8880    0.4600   -0.2070 C   0  0  0  0  0  0  0  0  0  0  0  0
    0.0560   -0.6290   -0.5390 C   0  0  0  0  0  0  0  0  0  0  0  0
    1.4750   -0.2210   -0.4500 C   0  0  2  0  0  0  0  0  0  0  0  0
    2.3270   -1.3400   -0.8150 N   0  0  0  0  0  0  0  0  0  0  0  0
    1.8370    0.2350    0.9190 C   0  0  0  0  0  0  0  0  0  0  0  0
    0.9480    0.5080    1.7830 O   0  0  0  0  0  0  0  0  0  0  0  0
    3.1710    0.3770    1.2670 O   0  0  0  0  0  0  0  0  0  0  0  0
  1  2  1  0
  2  3  1  0
  2  7  2  0
  3  4  1  0
  4  5  1  0
  5  6  2  0
  5  7  1  0
  7  8  1  0
  8  9  1  0
  9 10  1  1
  9 11  1  0
 11 12  2  0
 11 13  1  0
M  CHG  1  10   1
M  END
