
     RDKit          3D

 23 24  0  0  0  0  0  0  0  0999 V2000
   -2.3010   -1.9070   -2.1640 C   0  0  0  0  0  0  0  0  0  0  0  0
   -2.1840   -0.7660   -1.1940 C   0  0  0  0  0  0  0  0  0  0  0  0
   -0.9430   -0.2540   -0.8590 C   0  0  0  0  0  0  0  0  0  0  0  0
   -0.7910    0.7880    0.0230 C   0  0  0  0  0  0  0  0  0  0  0  0
    0.4420    1.3480    0.4340 N   0  0  0  0  0  0  0  0  0  0  0  0
    1.7200    0.7700    0.2890 C   0  0  0  0  0  0  0  0  0  0  0  0
    1.8370   -0.3510   -0.2400 O   0  0  0  0  0  0  0  0  0  0  0  0
    2.8750    1.5030    0.7640 N   0  0  0  0  0  0  0  0  0  0  0  0
    4.1370    0.9220    0.6140 N   0  0  0  0  0  0  0  0  0  0  0  0
    4.5820    0.4660   -0.6360 C   0  0  0  0  0  0  0  0  0  0  0  0
    3.8340    0.5830   -1.6330 O   0  0  0  0  0  0  0  0  0  0  0  0
    5.9530   -0.1610   -0.7700 C   0  0  0  0  0  0  0  0  0  0  0  0
    6.2370   -1.0020   -1.7510 C   0  0  0  0  0  0  0  0  0  0  0  0
    7.4970   -1.5490   -1.8470 C   0  0  0  0  0  0  0  0  0  0  0  0
    8.3370   -0.8310   -0.4670 S   0  0  0  0  0  0  0  0  0  0  0  0
    6.9300    0.1450    0.1300 C   0  0  0  0  0  0  0  0  0  0  0  0
   -1.9810    1.2860    0.5520 C   0  0  0  0  0  0  0  0  0  0  0  0
   -3.2300    0.7900    0.2320 C   0  0  0  0  0  0  0  0  0  0  0  0
   -4.4570    1.3440    0.8800 C   0  0  0  0  0  0  0  0  0  0  0  0
   -4.8860    0.5690    2.0640 C   0  0  0  0  0  0  0  0  0  0  0  0
   -5.2120   -0.8040    1.8880 N   0  0  0  0  0  0  0  0  0  0  0  0
   -3.3510   -0.2520   -0.6540 C   0  0  0  0  0  0  0  0  0  0  0  0
   -4.5840   -0.8020   -1.0280 O   0  0  0  0  0  0  0  0  0  0  0  0
  1  2  1  0
  2  3  2  0
  2 22  1  0
  3  4  1  0
  4  5  1  0
  4 17  2  0
  5  6  1  0
  6  7  2  0
  6  8  1  0
  8  9  1  0
  9 10  1  0
 10 11  2  0
 10 12  1  0
 12 13  1  0
 12 16  2  0
 13 14  2  0
 14 15  1  0
 15 16  1  0
 17 18  1  0
 18 19  1  0
 18 22  2  0
 19 20  1  0
 20 21  1  0
 22 23  1  0
M  CHG  1  21   1
M  END
