
     RDKit          3D

 14 14  0  0  0  0  0  0  0  0999 V2000
    4.3700    1.0670    0.9490 C   0  0  0  0  0  0  0  0  0  0  0  0
    3.4220    0.0310    0.7180 O   0  0  0  0  0  0  0  0  0  0  0  0
    2.3250    0.2280   -0.1530 C   0  0  0  0  0  0  0  0  0  0  0  0
    2.2850    1.3580   -0.6700 O   0  0  0  0  0  0  0  0  0  0  0  0
    1.3560   -0.8040   -0.3970 C   0  0  0  0  0  0  0  0  0  0  0  0
   -0.1170   -0.4450   -0.2840 C   0  0  1  0  0  0  0  0  0  0  0  0
   -0.8230   -1.7200   -0.5850 C   0  0  0  0  0  0  0  0  0  0  0  0
   -2.2800   -1.7860   -0.5720 C   0  0  0  0  0  0  0  0  0  0  0  0
   -2.9710   -1.0030   -1.4840 O   0  0  0  0  0  0  0  0  0  0  0  0
   -0.3150    0.0000    1.1570 C   0  0  0  0  0  0  0  0  0  0  0  0
   -1.5070    0.8450    1.3660 C   0  0  0  0  0  0  0  0  0  0  0  0
   -2.0640    1.5900    0.2210 C   0  0  0  0  0  0  0  0  0  0  0  0
   -1.7440    1.1240   -1.0410 O   0  0  0  0  0  0  0  0  0  0  0  0
   -0.4060    0.7230   -1.1370 C   0  0  0  0  0  0  0  0  0  0  0  0
  1  2  1  0
  2  3  1  0
  3  4  2  0
  3  5  1  0
  6  5  1  1
  6  7  1  0
  6 10  1  0
  6 14  1  0
  7  8  1  0
  8  9  1  0
 10 11  1  0
 11 12  1  0
 12 13  1  0
 13 14  1  0
M  END
