
     RDKit          3D

 13 13  0  0  0  0  0  0  0  0999 V2000
    3.1740    1.7150    0.5090 C   0  0  0  0  0  0  0  0  0  0  0  0
    1.9480    1.2340    0.0010 O   0  0  0  0  0  0  0  0  0  0  0  0
    1.8010    0.0400   -0.6470 C   0  0  0  0  0  0  0  0  0  0  0  0
    2.8040   -0.3650   -1.4320 C   0  0  0  0  0  0  0  0  0  0  0  0
    2.7350   -1.5630   -2.1240 O   0  0  0  0  0  0  0  0  0  0  0  0
    0.6300   -0.7830   -0.5220 C   0  0  0  0  0  0  0  0  0  0  0  0
   -0.4360   -0.5650    0.1890 C   0  0  0  0  0  0  0  0  0  0  0  0
   -1.5490   -1.5560    0.1740 C   0  0  0  0  0  0  0  0  0  0  0  0
   -2.8580   -1.0530    0.6040 C   0  0  0  0  0  0  0  0  0  0  0  0
   -3.0870    0.4050    0.6520 C   0  0  0  0  0  0  0  0  0  0  0  0
   -1.9240    1.2800    0.9460 C   0  0  0  0  0  0  0  0  0  0  0  0
   -0.6340    0.5870    1.0500 C   0  0  0  0  0  0  0  0  0  0  0  0
    0.2680    0.9640    1.8460 O   0  0  0  0  0  0  0  0  0  0  0  0
  1  2  1  0
  2  3  1  0
  3  4  2  3
  3  6  1  0
  4  5  1  0
  6  7  2  3
  7  8  1  0
  7 12  1  0
  8  9  1  0
  9 10  1  0
 10 11  1  0
 11 12  1  0
 12 13  2  0
M  END
