
     RDKit          3D

 14 14  0  0  0  0  0  0  0  0999 V2000
   -1.8300   -2.2420    1.1050 C   0  0  0  0  0  0  0  0  0  0  0  0
   -2.2960   -1.3000    0.3170 C   0  0  0  0  0  0  0  0  0  0  0  0
   -3.5620   -1.3030   -0.4780 C   0  0  0  0  0  0  0  0  0  0  0  0
   -3.8720    0.0970   -0.3940 O   0  0  0  0  0  0  0  0  0  0  0  0
   -2.6470    0.7830   -0.3850 C   0  0  0  0  0  0  0  0  0  0  0  0
   -2.5040    2.1860   -0.7900 C   0  0  0  0  0  0  0  0  0  0  0  0
   -1.6750   -0.0110    0.0330 C   0  0  0  0  0  0  0  0  0  0  0  0
   -0.2470    0.3320    0.1830 C   0  0  0  0  0  0  0  0  0  0  0  0
    0.1900    1.4560   -0.0840 O   0  0  0  0  0  0  0  0  0  0  0  0
    0.6320   -0.6340    0.6380 O   0  0  0  0  0  0  0  0  0  0  0  0
    2.0190   -0.4180    0.8190 C   0  0  0  0  0  0  0  0  0  0  0  0
    2.7120   -0.0200   -0.4710 C   0  0  0  0  0  0  0  0  0  0  0  0
    4.1740    0.1790   -0.1400 C   0  0  0  0  0  0  0  0  0  0  0  0
    4.3190    1.1730    0.8110 O   0  0  0  0  0  0  0  0  0  0  0  0
  1  2  2  0
  2  3  1  0
  2  7  1  0
  3  4  1  0
  4  5  1  0
  5  6  1  0
  5  7  2  0
  7  8  1  0
  8  9  2  0
  8 10  1  0
 10 11  1  0
 11 12  1  0
 12 13  1  0
 13 14  1  0
M  END
