
     RDKit          3D

 14 14  0  0  0  0  0  0  0  0999 V2000
    3.3010   -0.7200   -0.3310 C   0  0  0  0  0  0  0  0  0  0  0  0
    1.8130   -0.6390   -0.4440 C   0  0  0  0  0  0  0  0  0  0  0  0
    1.1680   -1.1330   -1.3950 O   0  0  0  0  0  0  0  0  0  0  0  0
    1.1110    0.0100    0.5470 O   0  0  0  0  0  0  0  0  0  0  0  0
   -0.2540    0.1610    0.5750 C   0  0  0  0  0  0  0  0  0  0  0  0
   -1.0320   -0.7850    1.1860 C   0  0  0  0  0  0  0  0  0  0  0  0
   -0.4530   -1.9990    1.8370 C   0  0  0  0  0  0  0  0  0  0  0  0
   -2.4230   -0.6170    1.2050 C   0  0  0  0  0  0  0  0  0  0  0  0
   -3.0130    0.4920    0.6150 C   0  0  0  0  0  0  0  0  0  0  0  0
   -2.2190    1.4430   -0.0010 C   0  0  0  0  0  0  0  0  0  0  0  0
   -0.8400    1.2600   -0.0100 C   0  0  0  0  0  0  0  0  0  0  0  0
   -0.0280    2.2710   -0.6620 C   0  0  0  0  0  0  0  0  0  0  0  0
   -0.6090    3.2530   -1.1790 O   0  0  0  0  0  0  0  0  0  0  0  0
    1.3670    2.1520   -0.7100 O   0  0  0  0  0  0  0  0  0  0  0  0
  1  2  1  0
  2  3  2  0
  2  4  1  0
  4  5  1  0
  5  6  2  0
  5 11  1  0
  6  7  1  0
  6  8  1  0
  8  9  2  0
  9 10  1  0
 10 11  2  0
 11 12  1  0
 12 13  2  0
 12 14  1  0
M  END
