
     RDKit          3D

 14 14  0  0  0  0  0  0  0  0999 V2000
    5.2250    0.1200    0.2050 C   0  0  0  0  0  0  0  0  0  0  0  0
    4.0270   -0.7570    0.4970 C   0  0  0  0  0  0  0  0  0  0  0  0
    2.8420   -0.2110   -0.0380 O   0  0  0  0  0  0  0  0  0  0  0  0
    1.6020   -0.8000    0.1490 C   0  0  0  0  0  0  0  0  0  0  0  0
    1.6060   -1.8710    0.8470 O   0  0  0  0  0  0  0  0  0  0  0  0
    0.3550   -0.2290   -0.4170 C   0  0  0  0  0  0  0  0  0  0  0  0
    0.0390    1.1210    0.1830 C   0  0  0  0  0  0  0  0  0  0  0  0
   -1.1810    1.6310   -0.3690 O   0  0  0  0  0  0  0  0  0  0  0  0
   -2.3770    0.8980   -0.1980 C   0  0  0  0  0  0  0  0  0  0  0  0
   -2.7460   -0.0640   -1.0290 C   0  0  0  0  0  0  0  0  0  0  0  0
   -3.9850   -0.8670   -0.9020 C   0  0  0  0  0  0  0  0  0  0  0  0
   -4.7410   -0.4810    0.2200 O   0  0  0  0  0  0  0  0  0  0  0  0
   -4.3840    0.5140    1.1010 C   0  0  0  0  0  0  0  0  0  0  0  0
   -3.2610    1.1880    0.9240 C   0  0  0  0  0  0  0  0  0  0  0  0
  1  2  1  0
  2  3  1  0
  3  4  1  0
  4  5  2  0
  4  6  1  0
  6  7  1  0
  7  8  1  0
  8  9  1  0
  9 10  2  0
  9 14  1  0
 10 11  1  0
 11 12  1  0
 12 13  1  0
 13 14  2  0
M  END
