
     RDKit          3D

 13 13  0  0  0  0  0  0  0  0999 V2000
   -2.8520    2.1260    0.3360 C   0  0  0  0  0  0  0  0  0  0  0  0
   -1.8160    1.3150   -0.1700 O   0  0  0  0  0  0  0  0  0  0  0  0
   -1.7250   -0.0250    0.1800 C   0  0  0  0  0  0  0  0  0  0  0  0
   -2.6020   -0.4790    0.9610 O   0  0  0  0  0  0  0  0  0  0  0  0
   -0.6400   -0.8790   -0.3470 C   0  0  1  0  0  0  0  0  0  0  0  0
   -0.8060   -2.2850    0.2100 C   0  0  0  0  0  0  0  0  0  0  0  0
   -0.7790   -0.9920   -1.8490 C   0  0  0  0  0  0  0  0  0  0  0  0
    0.6890   -0.3080    0.0030 C   0  0  0  0  0  0  0  0  0  0  0  0
    1.5360    0.0310   -0.9650 C   0  0  0  0  0  0  0  0  0  0  0  0
    2.8800    0.6070   -0.6800 C   0  0  0  0  0  0  0  0  0  0  0  0
    3.2210    0.2560    0.6200 O   0  0  0  0  0  0  0  0  0  0  0  0
    2.2440    0.8500    1.4500 C   0  0  0  0  0  0  0  0  0  0  0  0
    1.0640   -0.1180    1.4310 C   0  0  0  0  0  0  0  0  0  0  0  0
  1  2  1  0
  2  3  1  0
  3  4  2  0
  3  5  1  0
  5  6  1  1
  5  7  1  0
  5  8  1  0
  8  9  2  0
  8 13  1  0
  9 10  1  0
 10 11  1  0
 11 12  1  0
 12 13  1  0
M  END
