
     RDKit          3D

 14 14  0  0  0  0  0  0  0  0999 V2000
    5.0590    1.3720   -0.2480 C   0  0  0  0  0  0  0  0  0  0  0  0
    4.9570   -0.0020   -0.2790 O   0  0  0  0  0  0  0  0  0  0  0  0
    3.8110   -0.4860    0.2770 C   0  0  0  0  0  0  0  0  0  0  0  0
    2.5220   -0.0380   -0.3680 C   0  0  0  0  0  0  0  0  0  0  0  0
    1.4010   -0.7040    0.4060 C   0  0  0  0  0  0  0  0  0  0  0  0
    0.0680   -0.3310   -0.1470 C   0  0  0  0  0  0  0  0  0  0  0  0
   -0.0380    0.4380   -1.1270 O   0  0  0  0  0  0  0  0  0  0  0  0
   -1.1120   -0.8980    0.4970 C   0  0  0  0  0  0  0  0  0  0  0  0
   -2.3460   -0.6500    0.1040 C   0  0  0  0  0  0  0  0  0  0  0  0
   -2.5850    0.2580   -1.0650 C   0  0  0  0  0  0  0  0  0  0  0  0
   -3.9350    0.2230   -1.3410 O   0  0  0  0  0  0  0  0  0  0  0  0
   -4.7530    0.5150   -0.2570 C   0  0  0  0  0  0  0  0  0  0  0  0
   -4.6390   -0.5250    0.8350 C   0  0  0  0  0  0  0  0  0  0  0  0
   -3.4110   -1.2230    0.7670 O   0  0  0  0  0  0  0  0  0  0  0  0
  1  2  1  0
  2  3  1  0
  3  4  1  0
  4  5  1  0
  5  6  1  0
  6  7  2  0
  6  8  1  0
  8  9  2  3
  9 10  1  0
  9 14  1  0
 10 11  1  0
 11 12  1  0
 12 13  1  0
 13 14  1  0
M  END
