
     RDKit          3D

 15 15  0  0  0  0  0  0  0  0999 V2000
   -3.7140    2.4360   -0.3010 C   0  0  0  0  0  0  0  0  0  0  0  0
   -2.2570    2.3770    0.1120 C   0  0  0  0  0  0  0  0  0  0  0  0
   -1.4920    0.9220   -0.7380 P   0  0  0  0  0  0  0  0  0  0  0  0
    0.1710    1.1660   -1.0940 O   0  0  0  0  0  0  0  0  0  0  0  0
    0.9570   -0.3810   -1.0530 P   0  0  0  0  0  0  0  0  0  0  0  0
    2.6660   -0.0960   -1.0280 O   0  0  0  0  0  0  0  0  0  0  0  0
    3.1980   -0.5260    0.2090 C   0  0  0  0  0  0  0  0  0  0  0  0
    4.5540   -0.3160    0.2680 O   0  0  0  0  0  0  0  0  0  0  0  0
    4.8860    1.0310    0.1240 C   0  0  0  0  0  0  0  0  0  0  0  0
    0.3870   -1.4190    0.3530 C   0  0  2  0  0  0  0  0  0  0  0  0
    0.0870   -2.8410   -0.0550 C   0  0  0  0  0  0  0  0  0  0  0  0
   -0.7080   -0.9030    1.0160 O   0  0  0  0  0  0  0  0  0  0  0  0
   -1.7850   -0.6610    0.1750 C   0  0  1  0  0  0  0  0  0  0  0  0
   -2.9680   -0.6350    0.9110 O   0  0  0  0  0  0  0  0  0  0  0  0
   -3.8320   -1.5360    0.4940 O   0  0  0  0  0  0  0  0  0  0  0  0
  1  2  1  0
  2  3  1  0
  3  4  1  0
  3 13  1  0
  4  5  1  0
  5  6  1  0
  5 10  1  0
  6  7  1  0
  7  8  1  0
  8  9  1  0
 10 11  1  6
 10 12  1  0
 12 13  1  0
 13 14  1  1
 14 15  1  0
M  END
