
     RDKit          3D

 14 13  0  0  0  0  0  0  0  0999 V2000
   -2.6610    2.3950   -0.3780 C   0  0  0  0  0  0  0  0  0  0  0  0
   -1.6850    1.8950   -1.2360 O   0  0  0  0  0  0  0  0  0  0  0  0
   -1.2230    0.7420   -0.8700 O   0  0  0  0  0  0  0  0  0  0  0  0
   -2.1130   -0.0410   -0.1650 C   0  0  0  0  0  0  0  0  0  0  0  0
   -1.3910   -1.3420    0.1730 C   0  0  2  0  0  0  0  0  0  0  0  0
   -2.2240   -2.1940    0.8880 O   0  0  0  0  0  0  0  0  0  0  0  0
   -2.5270   -3.3410    0.1660 C   0  0  0  0  0  0  0  0  0  0  0  0
   -0.2400   -0.9990    0.8390 O   0  0  0  0  0  0  0  0  0  0  0  0
    1.2070   -1.3750    0.0320 P   0  0  0  0  0  0  0  0  0  0  0  0
    2.1790    0.0790   -0.4540 C   0  0  0  0  0  0  0  0  0  0  0  0
    2.1820    0.5040   -1.5880 O   0  0  0  0  0  0  0  0  0  0  0  0
    2.9950    0.7660    0.5720 C   0  0  0  0  0  0  0  0  0  0  0  0
    3.7420    1.9530    0.0120 C   0  0  0  0  0  0  0  0  0  0  0  0
    4.5800    1.4840   -0.9950 O   0  0  0  0  0  0  0  0  0  0  0  0
  1  2  1  0
  2  3  1  0
  3  4  1  0
  5  4  1  1
  5  6  1  0
  5  8  1  0
  6  7  1  0
  8  9  1  0
  9 10  1  0
 10 11  2  0
 10 12  1  0
 12 13  1  0
 13 14  1  0
M  END
