
     RDKit          3D

 14 14  0  0  0  0  0  0  0  0999 V2000
    4.3350    0.7270   -0.8540 C   0  0  0  0  0  0  0  0  0  0  0  0
    3.1140    0.0160   -0.6390 O   0  0  0  0  0  0  0  0  0  0  0  0
    2.1470    0.4730    0.2390 C   0  0  0  0  0  0  0  0  0  0  0  0
    2.3450    1.5300    0.8560 O   0  0  0  0  0  0  0  0  0  0  0  0
    0.9030   -0.3250    0.4080 C   0  0  2  0  0  0  0  0  0  0  0  0
    0.9180   -1.4670   -0.3920 O   0  0  0  0  0  0  0  0  0  0  0  0
   -0.1750   -2.2510   -0.0690 C   0  0  0  0  0  0  0  0  0  0  0  0
   -1.4360   -1.8450   -0.7760 C   0  0  0  0  0  0  0  0  0  0  0  0
   -2.0100   -0.6100   -0.0680 C   0  0  1  0  0  0  0  0  0  0  0  0
   -2.1980   -0.9280    1.2870 O   0  0  0  0  0  0  0  0  0  0  0  0
   -3.4220   -0.6920    1.6620 O   0  0  0  0  0  0  0  0  0  0  0  0
   -0.6070    0.6420   -0.0970 P   0  0  0  0  0  0  0  0  0  0  0  0
   -0.9200    1.9660    0.9380 O   0  0  0  0  0  0  0  0  0  0  0  0
   -1.6880    2.9010    0.2100 C   0  0  0  0  0  0  0  0  0  0  0  0
  1  2  1  0
  2  3  1  0
  3  4  2  0
  5  3  1  6
  5  6  1  0
  5 12  1  0
  6  7  1  0
  7  8  1  0
  8  9  1  0
  9 10  1  1
  9 12  1  0
 10 11  1  0
 12 13  1  0
 13 14  1  0
M  END
