
     RDKit          3D

 15 15  0  0  0  0  0  0  0  0999 V2000
   -3.9100    1.3380    0.6540 C   0  0  0  0  0  0  0  0  0  0  0  0
   -2.7980    0.6680    1.1930 O   0  0  0  0  0  0  0  0  0  0  0  0
   -2.3390   -0.1050    0.2330 O   0  0  0  0  0  0  0  0  0  0  0  0
   -1.0760   -0.6390    0.5730 C   0  0  1  0  0  0  0  0  0  0  0  0
   -1.2170   -2.1100    0.5020 C   0  0  0  0  0  0  0  0  0  0  0  0
   -0.9720   -2.8790    1.4000 O   0  0  0  0  0  0  0  0  0  0  0  0
   -1.7050   -2.5070   -0.8390 C   0  0  0  0  0  0  0  0  0  0  0  0
   -0.6070   -1.3880   -1.8910 P   0  0  0  0  0  0  0  0  0  0  0  0
   -0.1120   -0.2440   -0.5120 C   0  0  0  0  0  0  0  0  0  0  0  0
    0.8280    0.6590   -0.5080 C   0  0  0  0  0  0  0  0  0  0  0  0
    1.5930    0.8390   -1.6440 O   0  0  0  0  0  0  0  0  0  0  0  0
    1.0450    1.4130    0.6140 O   0  0  0  0  0  0  0  0  0  0  0  0
    2.5960    1.9190    1.2090 P   0  0  0  0  0  0  0  0  0  0  0  0
    3.9340    0.8740    0.4590 C   0  0  0  0  0  0  0  0  0  0  0  0
    3.7810   -0.4290    0.9540 O   0  0  0  0  0  0  0  0  0  0  0  0
  1  2  1  0
  2  3  1  0
  4  3  1  6
  4  5  1  0
  4  9  1  0
  5  6  2  0
  5  7  1  0
  7  8  1  0
  8  9  1  0
  9 10  2  3
 10 11  1  0
 10 12  1  0
 12 13  1  0
 13 14  1  0
 14 15  1  0
M  END
