
     RDKit          3D

 15 16  0  0  0  0  0  0  0  0999 V2000
   -1.0950    2.4260   -1.1200 C   0  0  0  0  0  0  0  0  0  0  0  0
   -1.5700    1.1760   -1.4850 O   0  0  0  0  0  0  0  0  0  0  0  0
   -1.2720    0.2730   -0.5310 C   0  0  1  0  0  0  0  0  0  0  0  0
   -1.7860    0.5030    0.7350 O   0  0  0  0  0  0  0  0  0  0  0  0
   -3.0360    0.2200    0.7890 O   0  0  0  0  0  0  0  0  0  0  0  0
   -3.1970   -1.1850    0.6850 C   0  0  0  0  0  0  0  0  0  0  0  0
   -2.1090   -1.3960   -0.8450 P   0  0  0  0  0  0  0  0  0  0  0  0
   -0.9180   -2.5660   -0.6550 O   0  0  0  0  0  0  0  0  0  0  0  0
    0.1840   -2.1080   -0.0230 C   0  0  0  0  0  0  0  0  0  0  0  0
    0.4720   -0.3370   -0.5100 P   0  0  0  0  0  0  0  0  0  0  0  0
    1.4750    0.5180    0.7570 C   0  0  0  0  0  0  0  0  0  0  0  0
    0.8910    1.0980    1.6530 O   0  0  0  0  0  0  0  0  0  0  0  0
    2.9470    0.5310    0.7350 C   0  0  0  0  0  0  0  0  0  0  0  0
    3.5130   -0.2120   -0.4070 C   0  0  0  0  0  0  0  0  0  0  0  0
    4.7110   -0.2790   -0.5420 O   0  0  0  0  0  0  0  0  0  0  0  0
  1  2  1  0
  3  2  1  6
  3  4  1  0
  3  7  1  0
  3 10  1  0
  4  5  1  0
  5  6  1  0
  6  7  1  0
  7  8  1  0
  8  9  1  0
  9 10  1  0
 10 11  1  0
 11 12  2  0
 11 13  1  0
 13 14  1  0
 14 15  2  0
M  END
