
     RDKit          3D

 15 14  0  0  0  0  0  0  0  0999 V2000
   -3.4530   -1.7420   -1.0680 C   0  0  0  0  0  0  0  0  0  0  0  0
   -3.5010   -0.5570   -0.4780 C   0  0  0  0  0  0  0  0  0  0  0  0
   -3.9740   -0.5180    0.9300 C   0  0  0  0  0  0  0  0  0  0  0  0
   -3.1440    0.6120   -1.0870 O   0  0  0  0  0  0  0  0  0  0  0  0
   -2.2470    1.5600   -0.6060 C   0  0  0  0  0  0  0  0  0  0  0  0
   -0.8840    1.0500   -0.3910 C   0  0  0  0  0  0  0  0  0  0  0  0
   -0.0410    1.8180    0.0290 O   0  0  0  0  0  0  0  0  0  0  0  0
   -0.4700   -0.7000   -0.7500 P   0  0  0  0  0  0  0  0  0  0  0  0
    0.0960   -0.8960   -2.3770 O   0  0  0  0  0  0  0  0  0  0  0  0
    0.7700   -1.2690    0.3170 O   0  0  0  0  0  0  0  0  0  0  0  0
    1.4290   -0.2290    0.7660 O   0  0  0  0  0  0  0  0  0  0  0  0
    3.1300   -0.5440    0.9030 P   0  0  0  0  0  0  0  0  0  0  0  0
    3.6980    0.0440    2.5700 C   0  0  0  0  0  0  0  0  0  0  0  0
    4.0830    0.4230   -0.3810 C   0  0  0  0  0  0  0  0  0  0  0  0
    3.6840    0.0880   -1.6680 O   0  0  0  0  0  0  0  0  0  0  0  0
  1  2  2  0
  2  3  1  0
  2  4  1  0
  4  5  1  0
  5  6  1  0
  6  7  2  0
  6  8  1  0
  8  9  1  0
  8 10  1  0
 10 11  1  0
 11 12  1  0
 12 13  1  0
 12 14  1  0
 14 15  1  0
M  END
