
     RDKit          3D

 15 14  0  0  0  0  0  0  0  0999 V2000
   -4.4780   -1.0840    1.0030 C   0  0  0  0  0  0  0  0  0  0  0  0
   -4.1480    0.1190    0.5780 C   0  0  0  0  0  0  0  0  0  0  0  0
   -2.8320    0.4260   -0.0300 C   0  0  1  0  0  0  0  0  0  0  0  0
   -3.0920    0.6880   -1.5150 C   0  0  0  0  0  0  0  0  0  0  0  0
   -2.2100    2.0000    0.7270 P   0  0  0  0  0  0  0  0  0  0  0  0
   -1.9550   -0.6550    0.1620 O   0  0  0  0  0  0  0  0  0  0  0  0
   -0.6560   -0.6870   -0.2820 C   0  0  0  0  0  0  0  0  0  0  0  0
   -0.2340    0.3340   -0.9060 O   0  0  0  0  0  0  0  0  0  0  0  0
    0.1930   -1.7820   -0.0730 O   0  0  0  0  0  0  0  0  0  0  0  0
    1.8330   -1.6800   -0.7010 P   0  0  0  0  0  0  0  0  0  0  0  0
    1.7720   -0.9930   -2.2970 O   0  0  0  0  0  0  0  0  0  0  0  0
    2.8240   -0.6150    0.4430 C   0  0  0  0  0  0  0  0  0  0  0  0
    4.1210   -1.1510    0.4890 O   0  0  0  0  0  0  0  0  0  0  0  0
    4.8090   -0.3740    1.3120 O   0  0  0  0  0  0  0  0  0  0  0  0
    5.9750   -0.0150    0.6050 C   0  0  0  0  0  0  0  0  0  0  0  0
  1  2  2  0
  2  3  1  0
  3  4  1  6
  3  5  1  0
  3  6  1  0
  6  7  1  0
  7  8  2  0
  7  9  1  0
  9 10  1  0
 10 11  1  0
 10 12  1  0
 12 13  1  0
 13 14  1  0
 14 15  1  0
M  END
