
     RDKit          3D

 15 14  0  0  0  0  0  0  0  0999 V2000
    5.3560    0.3860    1.2770 C   0  0  0  0  0  0  0  0  0  0  0  0
    4.3540   -0.4760    1.6610 O   0  0  0  0  0  0  0  0  0  0  0  0
    3.1030   -0.1050    1.2380 C   0  0  0  0  0  0  0  0  0  0  0  0
    3.0010   -0.0180   -0.2710 C   0  0  0  0  0  0  0  0  0  0  0  0
    1.6040    0.3950   -0.6760 C   0  0  0  0  0  0  0  0  0  0  0  0
    1.4950    0.4790   -2.0600 O   0  0  0  0  0  0  0  0  0  0  0  0
    0.3180    0.8290   -2.4610 O   0  0  0  0  0  0  0  0  0  0  0  0
   -0.9700    0.0140   -1.6810 P   0  0  0  0  0  0  0  0  0  0  0  0
   -2.5160    0.6110   -1.8030 C   0  0  0  0  0  0  0  0  0  0  0  0
   -3.6610   -0.1020   -1.1180 C   0  0  1  0  0  0  0  0  0  0  0  0
   -4.3760   -0.8450   -2.1860 C   0  0  0  0  0  0  0  0  0  0  0  0
   -4.4550   -2.0640   -2.1770 O   0  0  0  0  0  0  0  0  0  0  0  0
   -3.1200   -0.8980   -0.1570 O   0  0  0  0  0  0  0  0  0  0  0  0
   -3.4550   -0.5990    1.1360 C   0  0  0  0  0  0  0  0  0  0  0  0
   -4.7920   -0.6540    1.4280 O   0  0  0  0  0  0  0  0  0  0  0  0
  1  2  1  0
  2  3  1  0
  3  4  1  0
  4  5  1  0
  5  6  1  0
  6  7  1  0
  7  8  1  0
  8  9  2  3
  9 10  1  0
 10 11  1  0
 10 13  1  1
 11 12  2  0
 13 14  1  0
 14 15  1  0
M  END
