
     RDKit          3D

 12 12  0  0  0  0  0  0  0  0999 V2000
   -0.8950   -2.3020    0.2050 N   0  0  0  0  0  0  0  0  0  0  0  0
   -0.3220   -1.0140    0.5300 C   0  0  1  0  0  0  0  0  0  0  0  0
    1.0340   -0.8790   -0.1200 C   0  0  0  0  0  0  0  0  0  0  0  0
    1.5510    0.3890    0.2250 O   0  0  0  0  0  0  0  0  0  0  0  0
    2.7690    0.8490   -0.1940 C   0  0  0  0  0  0  0  0  0  0  0  0
    3.4700    0.0990   -0.9290 O   0  0  0  0  0  0  0  0  0  0  0  0
    3.2670    2.1080    0.1570 O   0  0  0  0  0  0  0  0  0  0  0  0
   -1.2240    0.0620    0.0630 C   0  0  0  0  0  0  0  0  0  0  0  0
   -2.3500   -0.0920   -0.5410 N   0  0  0  0  0  0  0  0  0  0  0  0
   -2.9280    1.1190   -0.8330 O   0  0  0  0  0  0  0  0  0  0  0  0
   -2.2090    2.0890   -0.1130 C   0  0  0  0  0  0  0  0  0  0  0  0
   -0.9980    1.4250    0.2040 O   0  0  0  0  0  0  0  0  0  0  0  0
  2  1  1  6
  2  3  1  0
  2  8  1  0
  3  4  1  0
  4  5  1  0
  5  6  2  0
  5  7  1  0
  8  9  2  0
  8 12  1  0
  9 10  1  0
 10 11  1  0
 11 12  1  0
M  CHG  1   1   1
M  END
