
     RDKit          3D

 12 12  0  0  0  0  0  0  0  0999 V2000
    4.2590    0.7890    0.2450 N   0  0  0  0  0  0  0  0  0  0  0  0
    2.8500    0.6180    0.1420 C   0  0  0  0  0  0  0  0  0  0  0  0
    2.1130    1.6350    0.1920 O   0  0  0  0  0  0  0  0  0  0  0  0
    2.2350   -0.6110   -0.0130 O   0  0  0  0  0  0  0  0  0  0  0  0
    0.8560   -0.7520   -0.1120 C   0  0  0  0  0  0  0  0  0  0  0  0
    0.0920    0.2880   -0.0610 N   0  0  0  0  0  0  0  0  0  0  0  0
   -1.3650    0.1720   -0.1620 C   0  0  2  0  0  0  0  0  0  0  0  0
   -1.9630    1.1430    0.6110 O   0  0  0  0  0  0  0  0  0  0  0  0
   -2.8010    1.9130   -0.1530 N   0  0  0  0  0  0  0  0  0  0  0  0
   -1.6990   -1.2120    0.4080 C   0  0  0  0  0  0  0  0  0  0  0  0
   -1.0610   -2.1380   -0.3820 O   0  0  0  0  0  0  0  0  0  0  0  0
    0.3090   -2.1240   -0.2760 C   0  0  0  0  0  0  0  0  0  0  0  0
  1  2  1  0
  2  3  2  0
  2  4  1  0
  4  5  1  0
  5  6  2  0
  5 12  1  0
  6  7  1  0
  7  8  1  1
  7 10  1  0
  8  9  1  0
 10 11  1  0
 11 12  1  0
M  CHG  1   9   1
M  END
