
     RDKit          3D

 13 13  0  0  0  0  0  0  0  0999 V2000
   -3.6080   -0.8410   -0.1610 N   0  0  0  0  0  0  0  0  0  0  0  0
   -2.8900    0.2190   -0.5380 O   0  0  0  0  0  0  0  0  0  0  0  0
   -1.6530    0.3090    0.0910 C   0  0  2  0  0  0  0  0  0  0  0  0
   -1.4850    1.4700    0.7980 O   0  0  0  0  0  0  0  0  0  0  0  0
   -0.6060    0.1630   -0.9870 C   0  0  2  0  0  0  0  0  0  0  0  0
   -0.8250   -1.1050   -1.5730 O   0  0  0  0  0  0  0  0  0  0  0  0
    0.7850    0.2190   -0.4650 C   0  0  0  0  0  0  0  0  0  0  0  0
    1.5510   -0.7910   -0.5760 N   0  0  0  0  0  0  0  0  0  0  0  0
    2.8980   -0.8500   -0.1140 C   0  0  0  0  0  0  0  0  0  0  0  0
    3.3590    0.3160    0.5070 O   0  0  0  0  0  0  0  0  0  0  0  0
    2.5740    1.4410    0.6550 C   0  0  0  0  0  0  0  0  0  0  0  0
    3.0420    2.4790    1.2240 O   0  0  0  0  0  0  0  0  0  0  0  0
    1.2440    1.4070    0.1590 N   0  0  0  0  0  0  0  0  0  0  0  0
  1  2  1  0
  2  3  1  0
  3  4  1  6
  3  5  1  0
  5  6  1  1
  5  7  1  0
  7  8  2  0
  7 13  1  0
  8  9  1  0
  9 10  1  0
 10 11  1  0
 11 12  2  0
 11 13  1  0
M  CHG  1   8   1
M  END
