
     RDKit          3D

 13 13  0  0  0  0  0  0  0  0999 V2000
   -4.3670    0.1230    0.0040 N   0  0  0  0  0  0  0  0  0  0  0  0
   -2.9770    0.3520    0.2170 C   0  0  0  0  0  0  0  0  0  0  0  0
   -2.6440    1.3800    0.7910 O   0  0  0  0  0  0  0  0  0  0  0  0
   -1.9660   -0.6250   -0.2410 C   0  0  0  0  0  0  0  0  0  0  0  0
   -0.6370   -0.1350    0.1080 N   0  0  0  0  0  0  0  0  0  0  0  0
    0.5270   -0.8780   -0.2150 C   0  0  0  0  0  0  0  0  0  0  0  0
    0.3620   -1.9790   -0.8170 O   0  0  0  0  0  0  0  0  0  0  0  0
    1.8340   -0.3320    0.1640 C   0  0  1  0  0  0  0  0  0  0  0  0
    2.9410   -1.1560   -0.2070 N   0  0  0  0  0  0  0  0  0  0  0  0
    3.7340   -0.3650   -0.9640 O   0  0  0  0  0  0  0  0  0  0  0  0
    3.5080    0.8950   -0.4230 C   0  0  1  0  0  0  0  0  0  0  0  0
    4.0180    1.9230   -1.1830 O   0  0  0  0  0  0  0  0  0  0  0  0
    2.0950    0.9200   -0.4020 O   0  0  0  0  0  0  0  0  0  0  0  0
  1  2  1  0
  2  3  2  0
  2  4  1  0
  4  5  1  0
  5  6  1  0
  6  7  2  0
  8  6  1  6
  8  9  1  0
  8 13  1  0
  9 10  1  0
 10 11  1  0
 11 12  1  6
 11 13  1  0
M  CHG  1   1   1
M  END
