
     RDKit          3D

 13 13  0  0  0  0  0  0  0  0999 V2000
    2.1030   -0.0460   -0.1990 N   0  0  0  0  0  0  0  0  0  0  0  0
    0.8120    0.1650    0.4360 C   0  0  1  0  0  0  0  0  0  0  0  0
   -0.0540    0.9520   -0.4120 N   0  0  0  0  0  0  0  0  0  0  0  0
   -0.5840    2.1770    0.0830 C   0  0  0  0  0  0  0  0  0  0  0  0
   -0.2890    2.5510    1.2460 O   0  0  0  0  0  0  0  0  0  0  0  0
   -1.4230    2.9520   -0.7190 O   0  0  0  0  0  0  0  0  0  0  0  0
    0.1400   -1.1760    0.6820 C   0  0  2  0  0  0  0  0  0  0  0  0
   -0.0810   -1.9220   -0.5680 C   0  0  0  0  0  0  0  0  0  0  0  0
    0.7450   -2.6730   -1.1350 O   0  0  0  0  0  0  0  0  0  0  0  0
   -1.3990   -1.6350   -1.0120 N   0  0  0  0  0  0  0  0  0  0  0  0
   -2.0620   -1.0340    0.0240 O   0  0  0  0  0  0  0  0  0  0  0  0
   -1.2450   -0.9120    1.1310 C   0  0  0  0  0  0  0  0  0  0  0  0
   -1.6200   -0.6280    2.3000 O   0  0  0  0  0  0  0  0  0  0  0  0
  2  1  1  6
  2  3  1  0
  2  7  1  0
  3  4  1  0
  4  5  2  0
  4  6  1  0
  7  8  1  6
  7 12  1  0
  8  9  2  0
  8 10  1  0
 10 11  1  0
 11 12  1  0
 12 13  2  0
M  CHG  1   1   1
M  END
