
     RDKit          3D

 33 37  0  0  0  0  0  0  0  0999 V2000
   -5.4160    0.8420    3.0130 C   0  0  0  0  0  0  0  0  0  0  0  0
   -5.8090    0.5350    1.5970 C   0  0  0  0  0  0  0  0  0  0  0  0
   -4.7320    0.7390    0.6940 O   0  0  0  0  0  0  0  0  0  0  0  0
   -4.8870    0.5120   -0.6610 C   0  0  0  0  0  0  0  0  0  0  0  0
   -6.0630    0.0850   -1.2170 C   0  0  0  0  0  0  0  0  0  0  0  0
   -6.2020   -0.1350   -2.5600 C   0  0  0  0  0  0  0  0  0  0  0  0
   -5.1260    0.0780   -3.3890 C   0  0  0  0  0  0  0  0  0  0  0  0
   -3.9440    0.5040   -2.8500 C   0  0  0  0  0  0  0  0  0  0  0  0
   -3.7620    0.7410   -1.4750 C   0  0  0  0  0  0  0  0  0  0  0  0
   -2.5740    1.1640   -1.0050 N   0  0  0  0  0  0  0  0  0  0  0  0
   -1.4620    0.9650   -0.5750 C   0  0  0  0  0  0  0  0  0  0  0  0
   -0.5630    2.1060   -0.2060 C   0  0  0  0  0  0  0  0  0  0  0  0
    0.6050    1.9170    0.2450 N   0  0  0  0  0  0  0  0  0  0  0  0
    1.1660    0.6640    0.4460 N   0  0  0  0  0  0  0  0  0  0  0  0
    0.4720   -0.4040    0.1550 C   0  0  0  0  0  0  0  0  0  0  0  0
    1.1500   -1.6230    0.4170 N   0  0  0  0  0  0  0  0  0  0  0  0
    2.4610   -1.9280   -0.0130 C   0  0  1  0  0  0  0  0  0  0  0  0
    2.6920   -1.9200   -1.4890 C   0  0  0  0  0  0  0  0  0  0  0  0
    3.9410   -1.1490   -1.7650 C   0  0  0  0  0  0  0  0  0  0  0  0
    4.2290   -0.4360   -0.4920 C   0  0  0  0  0  0  0  0  0  0  0  0
    3.3840   -0.8840    0.5010 C   0  0  0  0  0  0  0  0  0  0  0  0
    3.7290   -0.1670    1.6270 C   0  0  0  0  0  0  0  0  0  0  0  0
    3.0740   -0.3220    2.9500 C   0  0  0  0  0  0  0  0  0  0  0  0
    4.7610    0.6970    1.3290 C   0  0  0  0  0  0  0  0  0  0  0  0
    5.4940    1.6290    2.0300 C   0  0  0  0  0  0  0  0  0  0  0  0
    6.5010    2.3780    1.4660 C   0  0  0  0  0  0  0  0  0  0  0  0
    6.7860    2.1770    0.1220 C   0  0  0  0  0  0  0  0  0  0  0  0
    6.0330    1.2390   -0.5450 C   0  0  0  0  0  0  0  0  0  0  0  0
    5.0510    0.5160    0.0250 N   0  0  0  0  0  0  0  0  0  0  0  0
   -0.8750   -0.3810   -0.3720 C   0  0  0  0  0  0  0  0  0  0  0  0
   -1.5720   -1.4300   -0.6350 C   0  0  0  0  0  0  0  0  0  0  0  0
   -1.3490   -2.8660   -0.5840 C   0  0  0  0  0  0  0  0  0  0  0  0
   -1.7420   -3.5530   -2.2540 Cl  0  0  0  0  0  0  0  0  0  0  0  0
  1  2  1  0
  2  3  1  0
  3  4  1  0
  4  5  2  0
  4  9  1  0
  5  6  1  0
  6  7  2  0
  7  8  1  0
  8  9  2  0
  9 10  1  0
 10 11  2  3
 11 12  1  0
 11 30  1  0
 12 13  2  0
 13 14  1  0
 14 15  2  0
 15 16  1  0
 15 30  1  0
 17 16  1  6
 17 18  1  0
 17 21  1  0
 18 19  1  0
 19 20  1  0
 20 21  2  0
 20 29  1  0
 21 22  1  0
 22 23  1  0
 22 24  2  0
 24 25  1  0
 24 29  1  0
 25 26  2  0
 26 27  1  0
 27 28  2  0
 28 29  1  0
 30 31  2  3
 31 32  1  0
 32 33  1  0
M  END
