
     RDKit          3D

 29 31  0  0  0  0  0  0  0  0999 V2000
   -6.6120    0.6290    3.4500 C   0  0  0  0  0  0  0  0  0  0  0  0
   -5.4180    0.7940    2.5730 C   0  0  0  0  0  0  0  0  0  0  0  0
   -5.4410    0.0000    1.4420 O   0  0  0  0  0  0  0  0  0  0  0  0
   -4.3790    0.1150    0.6120 C   0  0  1  0  0  0  0  0  0  0  0  0
   -3.5560   -1.1320    0.4450 C   0  0  0  0  0  0  0  0  0  0  0  0
   -2.4100   -0.8910   -0.4910 C   0  0  0  0  0  0  0  0  0  0  0  0
   -2.4690   -1.3720   -1.7850 C   0  0  0  0  0  0  0  0  0  0  0  0
   -1.4370   -1.1690   -2.6720 C   0  0  0  0  0  0  0  0  0  0  0  0
   -0.2870   -0.4670   -2.2970 C   0  0  0  0  0  0  0  0  0  0  0  0
    0.6760   -0.3210   -3.2490 O   0  0  0  0  0  0  0  0  0  0  0  0
    1.9030    0.3120   -3.1640 C   0  0  0  0  0  0  0  0  0  0  0  0
    2.7350   -0.3570   -2.1110 C   0  0  0  0  0  0  0  0  0  0  0  0
    2.3490   -1.5820   -1.5670 C   0  0  0  0  0  0  0  0  0  0  0  0
    3.6400   -1.9370   -0.4000 S   0  0  0  0  0  0  0  0  0  0  0  0
    4.5620   -0.3410   -0.8070 C   0  0  0  0  0  0  0  0  0  0  0  0
    5.8330   -0.0860   -0.0630 C   0  0  0  0  0  0  0  0  0  0  0  0
    6.3280   -0.9390    0.8660 C   0  0  0  0  0  0  0  0  0  0  0  0
    7.5100   -0.6510    1.5250 C   0  0  0  0  0  0  0  0  0  0  0  0
    8.2180    0.4990    1.2650 C   0  0  0  0  0  0  0  0  0  0  0  0
    9.7260    0.8620    2.1110 Cl  0  0  0  0  0  0  0  0  0  0  0  0
    7.7080    1.3640    0.3180 C   0  0  0  0  0  0  0  0  0  0  0  0
    6.5310    1.0760   -0.3380 C   0  0  0  0  0  0  0  0  0  0  0  0
    3.8560    0.1010   -1.6120 N   0  0  0  0  0  0  0  0  0  0  0  0
   -0.2670   -0.0080   -1.0120 C   0  0  0  0  0  0  0  0  0  0  0  0
   -1.2910   -0.2010   -0.1090 C   0  0  0  0  0  0  0  0  0  0  0  0
   -1.1630    0.3390    1.2610 C   0  0  0  0  0  0  0  0  0  0  0  0
   -4.7840    0.6970   -0.6910 C   0  0  0  0  0  0  0  0  0  0  0  0
   -3.9990    0.9180   -1.6430 O   0  0  0  0  0  0  0  0  0  0  0  0
   -6.1130    1.0210   -0.8800 O   0  0  0  0  0  0  0  0  0  0  0  0
  1  2  1  0
  2  3  1  0
  3  4  1  0
  4  5  1  6
  4 27  1  0
  5  6  1  0
  6  7  2  0
  6 25  1  0
  7  8  1  0
  8  9  2  0
  9 10  1  0
  9 24  1  0
 10 11  1  0
 11 12  1  0
 12 13  2  0
 12 23  1  0
 13 14  1  0
 14 15  1  0
 15 16  1  0
 15 23  2  0
 16 17  2  0
 16 22  1  0
 17 18  1  0
 18 19  2  0
 19 20  1  0
 19 21  1  0
 21 22  2  0
 24 25  2  0
 25 26  1  0
 27 28  2  0
 27 29  1  0
M  END
