
     RDKit          3D

 34 38  0  0  0  0  0  0  0  0999 V2000
   -4.6850   -3.3470   -0.0990 C   0  0  0  0  0  0  0  0  0  0  0  0
   -3.9760   -2.2340   -0.0060 C   0  0  0  0  0  0  0  0  0  0  0  0
   -2.6250   -2.0740    0.6170 C   0  0  0  0  0  0  0  0  0  0  0  0
   -2.4930   -0.5700    0.7570 C   0  0  0  0  0  0  0  0  0  0  0  0
   -3.2680   -0.0620   -0.3590 N   0  0  0  0  0  0  0  0  0  0  0  0
   -4.4110   -0.9220   -0.5170 C   0  0  0  0  0  0  0  0  0  0  0  0
   -5.6170   -0.6350   -1.0040 C   0  0  0  0  0  0  0  0  0  0  0  0
   -6.1100    0.6390   -1.5200 C   0  0  0  0  0  0  0  0  0  0  0  0
   -5.4440    1.7840   -1.5660 C   0  0  0  0  0  0  0  0  0  0  0  0
   -4.0660    2.0820   -1.1280 C   0  0  0  0  0  0  0  0  0  0  0  0
   -3.8250    3.3080   -0.7060 C   0  0  0  0  0  0  0  0  0  0  0  0
   -4.9320    4.2850   -0.6990 C   0  0  0  0  0  0  0  0  0  0  0  0
   -2.9550    1.0860   -1.1430 C   0  0  1  0  0  0  0  0  0  0  0  0
   -1.6240    1.7170   -0.8740 C   0  0  0  0  0  0  0  0  0  0  0  0
   -0.5770    0.7540   -1.1650 N   0  0  0  0  0  0  0  0  0  0  0  0
    0.8060    1.1060   -0.9890 C   0  0  0  0  0  0  0  0  0  0  0  0
    1.0340    2.2600   -0.5820 O   0  0  0  0  0  0  0  0  0  0  0  0
    1.9190    0.1500   -1.2760 C   0  0  0  0  0  0  0  0  0  0  0  0
    3.2000    0.8670   -1.0610 C   0  0  0  0  0  0  0  0  0  0  0  0
    3.4230    2.0890   -1.9130 C   0  0  0  0  0  0  0  0  0  0  0  0
    4.1160    0.5650   -0.2490 N   0  0  0  0  0  0  0  0  0  0  0  0
    4.1820   -0.4850    0.6400 N   0  0  0  0  0  0  0  0  0  0  0  0
    3.9290   -0.4270    1.9590 C   0  0  0  0  0  0  0  0  0  0  0  0
    3.5040    0.7770    2.7560 C   0  0  1  0  0  0  0  0  0  0  0  0
    3.0400    0.5700    4.1440 C   0  0  0  0  0  0  0  0  0  0  0  0
    4.4800    1.0690    3.8930 C   0  0  0  0  0  0  0  0  0  0  0  0
    4.1280   -1.6720    2.4270 N   0  0  0  0  0  0  0  0  0  0  0  0
    4.4980   -2.4960    1.4330 C   0  0  0  0  0  0  0  0  0  0  0  0
    4.8190   -3.8420    1.3560 C   0  0  0  0  0  0  0  0  0  0  0  0
    5.1780   -4.4440    0.1470 C   0  0  0  0  0  0  0  0  0  0  0  0
    5.5800   -6.1660    0.1070 Cl  0  0  0  0  0  0  0  0  0  0  0  0
    5.2140   -3.6850   -1.0040 C   0  0  0  0  0  0  0  0  0  0  0  0
    4.8920   -2.3410   -0.9270 C   0  0  0  0  0  0  0  0  0  0  0  0
    4.5380   -1.7470    0.2720 C   0  0  0  0  0  0  0  0  0  0  0  0
  1  2  2  0
  2  3  1  0
  2  6  1  0
  3  4  1  0
  4  5  1  0
  5  6  1  0
  5 13  1  0
  6  7  2  0
  7  8  1  0
  8  9  2  0
  9 10  1  0
 10 11  2  3
 10 13  1  0
 11 12  1  0
 13 14  1  1
 14 15  1  0
 15 16  1  0
 16 17  2  0
 16 18  1  0
 18 19  1  0
 19 20  1  0
 19 21  2  3
 21 22  1  0
 22 23  1  0
 22 34  1  0
 24 23  1  6
 23 27  2  0
 24 25  1  0
 24 26  1  0
 25 26  1  0
 27 28  1  0
 28 29  2  0
 28 34  1  0
 29 30  1  0
 30 31  1  0
 30 32  2  0
 32 33  1  0
 33 34  2  0
M  END
