
     RDKit          3D

 35 40  0  0  0  0  0  0  0  0999 V2000
   -2.3890   -0.2870    1.4520 O   0  0  0  0  0  0  0  0  0  0  0  0
   -1.7050    0.5050    0.7710 C   0  0  0  0  0  0  0  0  0  0  0  0
   -0.8920    0.0770   -0.3750 C   0  0  0  0  0  0  0  0  0  0  0  0
   -1.0450   -1.3830   -0.6290 C   0  0  1  0  0  0  0  0  0  0  0  0
   -2.4090   -1.8670   -0.9520 C   0  0  0  0  0  0  0  0  0  0  0  0
   -2.7750   -1.9060   -2.3960 C   0  0  0  0  0  0  0  0  0  0  0  0
   -1.7500   -1.3080   -3.3020 C   0  0  0  0  0  0  0  0  0  0  0  0
   -0.4060   -1.8760   -2.9390 C   0  0  0  0  0  0  0  0  0  0  0  0
   -0.0870   -1.9050   -1.6730 C   0  0  0  0  0  0  0  0  0  0  0  0
    1.1990   -2.4400   -1.2010 C   0  0  2  0  0  0  0  0  0  0  0  0
    2.1600   -1.3170   -0.9450 C   0  0  0  0  0  0  0  0  0  0  0  0
    2.5480   -0.4350   -1.9180 C   0  0  0  0  0  0  0  0  0  0  0  0
    3.4460    0.5620   -1.5590 C   0  0  0  0  0  0  0  0  0  0  0  0
    3.9500    0.6840   -0.2670 C   0  0  0  0  0  0  0  0  0  0  0  0
    3.5570   -0.2060    0.7070 C   0  0  0  0  0  0  0  0  0  0  0  0
    2.6680   -1.1950    0.3580 C   0  0  0  0  0  0  0  0  0  0  0  0
    4.0500   -0.1060    2.0170 O   0  0  0  0  0  0  0  0  0  0  0  0
    4.9470    0.8830    2.3940 C   0  0  0  0  0  0  0  0  0  0  0  0
    5.5560    1.2000    3.5290 C   0  0  0  0  0  0  0  0  0  0  0  0
    6.4240    2.3850    3.3230 C   0  0  0  0  0  0  0  0  0  0  0  0
    6.2140    2.6940    1.8890 C   0  0  0  0  0  0  0  0  0  0  0  0
    5.3630    1.8240    1.3640 C   0  0  0  0  0  0  0  0  0  0  0  0
    4.8470    1.6910    0.0610 O   0  0  0  0  0  0  0  0  0  0  0  0
    1.7760   -3.4190   -2.1740 C   0  0  0  0  0  0  0  0  0  0  0  0
    1.7000   -2.8610   -3.5420 C   0  0  0  0  0  0  0  0  0  0  0  0
    2.7190   -2.8460   -4.2740 O   0  0  0  0  0  0  0  0  0  0  0  0
    0.4550   -2.3500   -3.9960 N   0  0  0  0  0  0  0  0  0  0  0  0
   -1.7700    1.8830    1.1920 N   0  0  0  0  0  0  0  0  0  0  0  0
   -2.5660    2.2880    2.3110 C   0  0  0  0  0  0  0  0  0  0  0  0
   -3.9950    2.3520    2.0410 C   0  0  0  0  0  0  0  0  0  0  0  0
   -4.8740    2.7280    3.0250 C   0  0  0  0  0  0  0  0  0  0  0  0
   -6.2520    2.7950    2.7790 C   0  0  0  0  0  0  0  0  0  0  0  0
   -6.7140    2.4730    1.5240 C   0  0  0  0  0  0  0  0  0  0  0  0
   -5.8420    2.0990    0.5480 C   0  0  0  0  0  0  0  0  0  0  0  0
   -4.5000    2.0400    0.8040 C   0  0  0  0  0  0  0  0  0  0  0  0
  1  2  2  0
  2  3  1  0
  2 28  1  0
  4  3  1  6
  4  5  1  0
  4  9  1  0
  5  6  1  0
  6  7  1  0
  7  8  1  0
  8  9  2  0
  8 27  1  0
  9 10  1  0
 10 11  1  6
 10 24  1  0
 11 12  2  0
 11 16  1  0
 12 13  1  0
 13 14  2  0
 14 15  1  0
 14 23  1  0
 15 16  2  0
 15 17  1  0
 17 18  1  0
 18 19  2  0
 18 22  1  0
 19 20  1  0
 20 21  1  0
 21 22  2  0
 22 23  1  0
 24 25  1  0
 25 26  2  0
 25 27  1  0
 28 29  1  0
 29 30  1  0
 30 31  2  0
 30 35  1  0
 31 32  1  0
 32 33  2  0
 33 34  1  0
 34 35  2  0
M  END
