
     RDKit          3D

 45 49  0  0  0  0  0  0  0  0999 V2000
   -6.5620    4.5400   -0.2200 C   0  0  0  0  0  0  0  0  0  0  0  0
   -7.6960    3.6720   -0.1470 N   0  0  0  0  0  0  0  0  0  0  0  0
   -7.3830    2.2670   -0.0760 C   0  0  1  0  0  0  0  0  0  0  0  0
   -6.6650    1.7750   -1.2900 C   0  0  0  0  0  0  0  0  0  0  0  0
   -5.9740    0.4500   -1.0620 C   0  0  0  0  0  0  0  0  0  0  0  0
   -5.0520    0.6360    0.0440 N   0  0  0  0  0  0  0  0  0  0  0  0
   -3.6690    0.4420   -0.0050 C   0  0  0  0  0  0  0  0  0  0  0  0
   -2.9300    0.6630    0.9830 O   0  0  0  0  0  0  0  0  0  0  0  0
   -2.9880   -0.0420   -1.2310 C   0  0  1  0  0  0  0  0  0  0  0  0
   -3.1200    1.0220   -2.2960 C   0  0  0  0  0  0  0  0  0  0  0  0
   -1.5750   -0.3040   -0.9550 N   0  0  0  0  0  0  0  0  0  0  0  0
   -0.9690   -1.5430   -1.2300 C   0  0  0  0  0  0  0  0  0  0  0  0
   -1.7530   -2.4160   -1.7480 O   0  0  0  0  0  0  0  0  0  0  0  0
    0.4390   -1.9130   -0.9830 C   0  0  1  0  0  0  0  0  0  0  0  0
    1.2180   -0.9070   -0.3370 N   0  0  0  0  0  0  0  0  0  0  0  0
    2.1990   -1.3960    0.5410 C   0  0  0  0  0  0  0  0  0  0  0  0
    1.8980   -2.0940    1.6830 C   0  0  0  0  0  0  0  0  0  0  0  0
    2.8680   -2.5670    2.5600 C   0  0  0  0  0  0  0  0  0  0  0  0
    4.1910   -2.3210    2.2630 C   0  0  0  0  0  0  0  0  0  0  0  0
    4.5500   -1.6230    1.1270 C   0  0  0  0  0  0  0  0  0  0  0  0
    3.5640   -1.1730    0.2890 C   0  0  0  0  0  0  0  0  0  0  0  0
    3.9370   -0.4640   -0.9050 C   0  0  0  0  0  0  0  0  0  0  0  0
    4.7940    0.5320   -1.0110 C   0  0  0  0  0  0  0  0  0  0  0  0
    5.0470    1.1400   -2.3750 C   0  0  0  0  0  0  0  0  0  0  0  0
    5.7270    2.4630   -2.2460 C   0  0  0  0  0  0  0  0  0  0  0  0
    5.1880    3.2780   -1.1780 N   0  0  2  0  0  0  0  0  0  0  0  0
    5.9070    4.5420   -1.2200 C   0  0  0  0  0  0  0  0  0  0  0  0
    5.1490    2.6490    0.0820 C   0  0  2  0  0  0  0  0  0  0  0  0
    5.9800    3.3040    1.1530 C   0  0  0  0  0  0  0  0  0  0  0  0
    5.5490    1.1650    0.0730 C   0  0  2  0  0  0  0  0  0  0  0  0
    6.9260    1.0530   -0.0970 O   0  0  0  0  0  0  0  0  0  0  0  0
    0.6150   -3.2950   -0.4840 C   0  0  0  0  0  0  0  0  0  0  0  0
   -0.4410   -3.9880    0.0600 C   0  0  0  0  0  0  0  0  0  0  0  0
   -0.2980   -5.2910    0.4960 C   0  0  0  0  0  0  0  0  0  0  0  0
    0.9120   -5.9630    0.4060 C   0  0  0  0  0  0  0  0  0  0  0  0
    1.0130   -7.2720    0.8550 O   0  0  0  0  0  0  0  0  0  0  0  0
    2.2610   -7.9190    0.7450 C   0  0  0  0  0  0  0  0  0  0  0  0
    1.9640   -5.2600   -0.1400 C   0  0  0  0  0  0  0  0  0  0  0  0
    1.8190   -3.9580   -0.5740 C   0  0  0  0  0  0  0  0  0  0  0  0
   -5.6560    1.0640    1.2760 C   0  0  0  0  0  0  0  0  0  0  0  0
   -5.1390    0.7030    2.5130 C   0  0  0  0  0  0  0  0  0  0  0  0
   -5.7350    1.1380    3.6880 C   0  0  0  0  0  0  0  0  0  0  0  0
   -6.8520    1.9360    3.5850 C   0  0  0  0  0  0  0  0  0  0  0  0
   -7.3980    2.3180    2.3800 C   0  0  0  0  0  0  0  0  0  0  0  0
   -6.7740    1.8620    1.2090 C   0  0  0  0  0  0  0  0  0  0  0  0
  1  2  1  0
  3  2  1  6
  3  4  1  0
  3 45  1  0
  4  5  1  0
  5  6  1  0
  6  7  1  0
  6 40  1  0
  7  8  2  0
  7  9  1  0
  9 10  1  6
  9 11  1  0
 11 12  1  0
 12 13  2  0
 12 14  1  0
 14 15  1  1
 14 32  1  0
 15 16  1  0
 16 17  2  0
 16 21  1  0
 17 18  1  0
 18 19  2  0
 19 20  1  0
 20 21  2  0
 21 22  1  0
 22 23  2  3
 23 24  1  0
 23 30  1  0
 24 25  1  0
 25 26  1  0
 26 27  1  1
 26 28  1  0
 28 29  1  1
 28 30  1  0
 30 31  1  6
 32 33  2  0
 32 39  1  0
 33 34  1  0
 34 35  2  0
 35 36  1  0
 35 38  1  0
 36 37  1  0
 38 39  2  0
 40 41  2  0
 40 45  1  0
 41 42  1  0
 42 43  2  0
 43 44  1  0
 44 45  2  0
M  CHG  2  15   1  26   1
M  END
