
     RDKit          3D

 44 48  0  0  0  0  0  0  0  0999 V2000
    6.6370    4.0660   -0.6310 C   0  0  0  0  0  0  0  0  0  0  0  0
    7.6930    3.0520   -0.2760 C   0  0  1  0  0  0  0  0  0  0  0  0
    9.0270    3.3860   -0.9110 C   0  0  0  0  0  0  0  0  0  0  0  0
    9.9390    2.3670   -0.6460 O   0  0  0  0  0  0  0  0  0  0  0  0
    7.7880    2.9040    1.1490 N   0  0  0  0  0  0  0  0  0  0  0  0
    7.4070    1.3300    1.7210 S   0  0  2  0  0  0  0  0  0  0  0  0
    7.5250    1.3680    3.2230 O   0  0  0  0  0  0  0  0  0  0  0  0
    8.3780    0.3010    1.2210 O   0  0  0  0  0  0  0  0  0  0  0  0
    5.7560    0.8850    1.3410 C   0  0  0  0  0  0  0  0  0  0  0  0
    4.7490    1.1950    2.2120 C   0  0  0  0  0  0  0  0  0  0  0  0
    3.4670    0.8520    1.9220 C   0  0  0  0  0  0  0  0  0  0  0  0
    3.1080    0.1750    0.7410 C   0  0  0  0  0  0  0  0  0  0  0  0
    1.7010   -0.0340    0.5030 C   0  0  0  0  0  0  0  0  0  0  0  0
    0.9490    0.8800    1.0630 O   0  0  0  0  0  0  0  0  0  0  0  0
    1.0230   -1.0630   -0.2330 N   0  0  0  0  0  0  0  0  0  0  0  0
   -0.4000   -0.8400   -0.3780 C   0  0  0  0  0  0  0  0  0  0  0  0
   -1.3650   -1.2600    0.6220 C   0  0  2  0  0  0  0  0  0  0  0  0
   -0.9310   -0.6960    1.8670 O   0  0  0  0  0  0  0  0  0  0  0  0
   -1.7550   -2.6460    0.8520 C   0  0  0  0  0  0  0  0  0  0  0  0
   -2.3800   -3.2000   -0.4210 C   0  0  0  0  0  0  0  0  0  0  0  0
   -3.7820   -2.5360   -0.4310 C   0  0  0  0  0  0  0  0  0  0  0  0
   -3.6470   -1.0540   -0.5290 C   0  0  1  0  0  0  0  0  0  0  0  0
   -3.4440   -0.6930   -2.0080 C   0  0  0  0  0  0  0  0  0  0  0  0
   -3.1970    0.7600   -2.2120 C   0  0  0  0  0  0  0  0  0  0  0  0
   -4.1250    1.6390   -1.4160 C   0  0  0  0  0  0  0  0  0  0  0  0
   -5.1430    0.8590   -0.6570 C   0  0  0  0  0  0  0  0  0  0  0  0
   -4.9800   -0.4310   -0.2230 C   0  0  0  0  0  0  0  0  0  0  0  0
   -5.9810   -1.0720    0.4540 C   0  0  0  0  0  0  0  0  0  0  0  0
   -7.1870   -0.4430    0.7230 C   0  0  0  0  0  0  0  0  0  0  0  0
   -7.3660    0.8510    0.2960 C   0  0  0  0  0  0  0  0  0  0  0  0
   -6.3560    1.4980   -0.3880 C   0  0  0  0  0  0  0  0  0  0  0  0
   -6.8510    2.7460   -0.6590 C   0  0  0  0  0  0  0  0  0  0  0  0
   -6.2090    3.7320   -1.3100 F   0  0  0  0  0  0  0  0  0  0  0  0
   -8.1390    2.8330   -0.1410 C   0  0  0  0  0  0  0  0  0  0  0  0
   -8.4460    1.6670    0.4420 N   0  0  0  0  0  0  0  0  0  0  0  0
   -9.6760    1.3130    1.1050 C   0  0  0  0  0  0  0  0  0  0  0  0
   -2.6680   -0.4410    0.3810 C   0  0  0  0  0  0  0  0  0  0  0  0
    1.7310   -2.1720   -0.7550 C   0  0  2  0  0  0  0  0  0  0  0  0
    1.6500   -2.3140   -2.2600 C   0  0  0  0  0  0  0  0  0  0  0  0
    1.4230   -3.5410   -0.1740 C   0  0  0  0  0  0  0  0  0  0  0  0
    1.7220   -3.6000    1.2950 C   0  0  0  0  0  0  0  0  0  0  0  0
    3.0880   -3.3550    1.5460 O   0  0  0  0  0  0  0  0  0  0  0  0
    4.1400   -0.1120   -0.1000 C   0  0  0  0  0  0  0  0  0  0  0  0
    5.4320    0.2320    0.1920 C   0  0  0  0  0  0  0  0  0  0  0  0
  2  1  1  1
  2  3  1  0
  2  5  1  0
  3  4  1  0
  6  5  1  6
  6  7  2  0
  6  8  2  0
  6  9  1  0
  9 10  2  0
  9 44  1  0
 10 11  1  0
 11 12  2  0
 12 13  1  0
 12 43  1  0
 13 14  2  0
 13 15  1  0
 15 16  1  0
 15 38  1  0
 16 17  1  0
 17 18  1  1
 17 19  1  0
 17 37  1  0
 19 20  1  0
 20 21  1  0
 22 21  1  6
 22 23  1  0
 22 27  1  0
 22 37  1  0
 23 24  1  0
 24 25  1  0
 25 26  1  0
 26 27  2  0
 26 31  1  0
 27 28  1  0
 28 29  2  0
 29 30  1  0
 30 31  2  0
 30 35  1  0
 31 32  1  0
 32 33  1  0
 32 34  2  0
 34 35  1  0
 35 36  1  0
 38 39  1  6
 38 40  1  0
 40 41  1  0
 41 42  1  0
 43 44  2  0
M  END
