
     RDKit          3D

 45 49  0  0  0  0  0  0  0  0999 V2000
    7.7700   -1.3050    0.2500 C   0  0  0  0  0  0  0  0  0  0  0  0
    6.5080   -1.6020    0.8710 N   0  0  0  0  0  0  0  0  0  0  0  0
    5.7210   -2.6060    0.2260 C   0  0  1  0  0  0  0  0  0  0  0  0
    4.4300   -1.9640   -0.1470 C   0  0  0  0  0  0  0  0  0  0  0  0
    3.6150   -1.4390    0.8430 C   0  0  0  0  0  0  0  0  0  0  0  0
    2.4290   -0.8130    0.5410 C   0  0  0  0  0  0  0  0  0  0  0  0
    2.0120   -0.6870   -0.7590 C   0  0  0  0  0  0  0  0  0  0  0  0
    0.7930   -0.0470   -1.1060 O   0  0  0  0  0  0  0  0  0  0  0  0
    0.0020    0.4750   -0.0550 C   0  0  0  0  0  0  0  0  0  0  0  0
   -0.0880    1.8810    0.0050 C   0  0  0  0  0  0  0  0  0  0  0  0
   -0.8020    2.5440    0.9680 C   0  0  0  0  0  0  0  0  0  0  0  0
   -0.8740    4.0470    1.0090 C   0  0  0  0  0  0  0  0  0  0  0  0
   -1.8660    4.4720    0.0750 N   0  0  0  0  0  0  0  0  0  0  0  0
   -3.1620    3.8930    0.3880 C   0  0  0  0  0  0  0  0  0  0  0  0
   -4.1500    4.2780   -0.7000 C   0  0  0  0  0  0  0  0  0  0  0  0
   -4.2400    5.6550   -0.8770 O   0  0  0  0  0  0  0  0  0  0  0  0
   -2.9570    6.1090   -1.2380 C   0  0  0  0  0  0  0  0  0  0  0  0
   -2.0550    5.8980   -0.0140 C   0  0  1  0  0  0  0  0  0  0  0  0
   -2.8340    6.3470    1.2000 C   0  0  0  0  0  0  0  0  0  0  0  0
   -2.6480    7.7880    1.4860 C   0  0  0  0  0  0  0  0  0  0  0  0
   -3.5700    8.4200    1.9400 O   0  0  0  0  0  0  0  0  0  0  0  0
   -1.3610    8.4990    1.2360 C   0  0  0  0  0  0  0  0  0  0  0  0
   -0.9110    8.1150   -0.1600 C   0  0  1  0  0  0  0  0  0  0  0  0
    0.4050    8.7670   -0.5170 C   0  0  0  0  0  0  0  0  0  0  0  0
   -0.7580    6.6080   -0.1770 C   0  0  0  0  0  0  0  0  0  0  0  0
   -1.4420    1.7700    1.8950 C   0  0  0  0  0  0  0  0  0  0  0  0
   -1.3640    0.4140    1.8420 C   0  0  0  0  0  0  0  0  0  0  0  0
   -0.6380   -0.2580    0.8580 C   0  0  0  0  0  0  0  0  0  0  0  0
   -0.7710   -1.7110    0.7940 C   0  0  0  0  0  0  0  0  0  0  0  0
   -1.3070   -2.2950    1.8010 O   0  0  0  0  0  0  0  0  0  0  0  0
   -0.3780   -2.5790   -0.2320 N   0  0  0  0  0  0  0  0  0  0  0  0
   -0.5440   -4.0000   -0.1270 C   0  0  0  0  0  0  0  0  0  0  0  0
   -1.9270   -4.5020    0.0330 C   0  0  2  0  0  0  0  0  0  0  0  0
   -1.8680   -6.0180    0.1190 C   0  0  0  0  0  0  0  0  0  0  0  0
   -3.2240   -6.4770    0.6610 C   0  0  0  0  0  0  0  0  0  0  0  0
   -4.1680   -6.4870   -0.5200 C   0  0  0  0  0  0  0  0  0  0  0  0
   -4.9820   -5.3080   -0.5740 N   0  0  1  0  0  0  0  0  0  0  0  0
   -5.9090   -5.3800    0.5600 C   0  0  0  0  0  0  0  0  0  0  0  0
   -4.2760   -4.0740   -0.4600 C   0  0  0  0  0  0  0  0  0  0  0  0
   -2.8780   -4.1000   -1.0410 C   0  0  0  0  0  0  0  0  0  0  0  0
    2.8020   -1.1970   -1.7470 C   0  0  0  0  0  0  0  0  0  0  0  0
    4.0190   -1.8390   -1.4400 C   0  0  0  0  0  0  0  0  0  0  0  0
    6.3640   -3.3160   -0.9180 C   0  0  2  0  0  0  0  0  0  0  0  0
    5.3810   -4.3660   -1.4310 C   0  0  0  0  0  0  0  0  0  0  0  0
    7.5690   -4.0200   -0.5240 N   0  0  0  0  0  0  0  0  0  0  0  0
  1  2  1  0
  3  2  1  6
  3  4  1  0
  3 43  1  0
  4  5  2  0
  4 42  1  0
  5  6  1  0
  6  7  2  0
  7  8  1  0
  7 41  1  0
  8  9  1  0
  9 10  2  0
  9 28  1  0
 10 11  1  0
 11 12  1  0
 11 26  2  0
 12 13  1  0
 13 14  1  0
 13 18  1  0
 14 15  1  0
 15 16  1  0
 16 17  1  0
 18 17  1  6
 18 19  1  0
 18 25  1  0
 19 20  1  0
 20 21  2  0
 20 22  1  0
 22 23  1  0
 23 24  1  1
 23 25  1  0
 26 27  1  0
 27 28  2  0
 28 29  1  0
 29 30  2  0
 29 31  1  0
 31 32  1  0
 33 32  1  6
 33 34  1  0
 33 40  1  0
 34 35  1  0
 35 36  1  0
 36 37  1  0
 37 38  1  1
 37 39  1  0
 39 40  1  0
 41 42  2  0
 43 44  1  1
 43 45  1  0
M  CHG  3   2   1  37   1  45   1
M  END
