
     RDKit          3D

 45 49  0  0  0  0  0  0  0  0999 V2000
    1.9970    3.5160    4.2140 C   0  0  0  0  0  0  0  0  0  0  0  0
    2.8880    2.2930    4.2610 C   0  0  0  0  0  0  0  0  0  0  0  0
    3.0560    1.8520    2.9070 O   0  0  0  0  0  0  0  0  0  0  0  0
    2.0280    1.3610    2.1500 C   0  0  0  0  0  0  0  0  0  0  0  0
    0.9010    1.2910    2.6760 O   0  0  0  0  0  0  0  0  0  0  0  0
    2.2840    0.9360    0.7600 C   0  0  0  0  0  0  0  0  0  0  0  0
    3.4450    1.0710    0.1770 C   0  0  0  0  0  0  0  0  0  0  0  0
    4.7980    1.6140    0.5720 C   0  0  0  0  0  0  0  0  0  0  0  0
    5.7650    0.4160    0.4310 C   0  0  0  0  0  0  0  0  0  0  0  0
    5.7600    0.0390   -1.0190 C   0  0  1  0  0  0  0  0  0  0  0  0
    6.8480   -0.8660   -1.3630 N   0  0  0  0  0  0  0  0  0  0  0  0
    7.9380   -0.0390   -1.8970 C   0  0  2  0  0  0  0  0  0  0  0  0
    8.6240   -0.7390   -3.0460 C   0  0  0  0  0  0  0  0  0  0  0  0
    9.7310   -1.6550   -2.6110 C   0  0  0  0  0  0  0  0  0  0  0  0
   10.6300   -1.0870   -1.6540 N   0  0  0  0  0  0  0  0  0  0  0  0
   10.3120    0.2680   -1.2650 C   0  0  2  0  0  0  0  0  0  0  0  0
   11.1980    0.5830   -0.0630 C   0  0  0  0  0  0  0  0  0  0  0  0
    8.8580    0.3380   -0.7810 C   0  0  0  0  0  0  0  0  0  0  0  0
    4.4240   -0.5450   -1.4080 C   0  0  0  0  0  0  0  0  0  0  0  0
    3.3370    0.4810   -1.1830 C   0  0  1  0  0  0  0  0  0  0  0  0
    1.9750   -0.0320   -1.2360 C   0  0  0  0  0  0  0  0  0  0  0  0
    1.3130    0.2230   -0.1000 C   0  0  0  0  0  0  0  0  0  0  0  0
    0.0470   -0.2280    0.3810 C   0  0  0  0  0  0  0  0  0  0  0  0
   -0.6260   -0.0110    1.2950 O   0  0  0  0  0  0  0  0  0  0  0  0
   -0.6300   -1.4400   -0.6770 N   0  0  0  0  0  0  0  0  0  0  0  0
   -1.6990   -1.8090    0.1180 C   0  0  0  0  0  0  0  0  0  0  0  0
   -2.3110   -1.3100    1.0220 O   0  0  0  0  0  0  0  0  0  0  0  0
   -2.1510   -3.1950   -0.2840 N   0  0  0  0  0  0  0  0  0  0  0  0
   -3.1920   -3.8700    0.3130 C   0  0  0  0  0  0  0  0  0  0  0  0
   -4.5920   -3.6010    0.1690 C   0  0  0  0  0  0  0  0  0  0  0  0
   -5.3160   -2.3690    0.3370 C   0  0  0  0  0  0  0  0  0  0  0  0
   -5.4290   -1.7000    1.5350 C   0  0  0  0  0  0  0  0  0  0  0  0
   -6.2950   -0.6210    1.7590 C   0  0  0  0  0  0  0  0  0  0  0  0
   -6.3510    0.1080    3.0160 C   0  0  0  0  0  0  0  0  0  0  0  0
   -7.0810   -0.2210    0.7000 C   0  0  0  0  0  0  0  0  0  0  0  0
   -6.9970   -0.8700   -0.5400 C   0  0  0  0  0  0  0  0  0  0  0  0
   -6.1330   -1.9170   -0.7140 C   0  0  0  0  0  0  0  0  0  0  0  0
   -7.8600   -0.5060   -1.7040 C   0  0  0  0  0  0  0  0  0  0  0  0
   -8.8490    0.5580   -1.4140 C   0  0  1  0  0  0  0  0  0  0  0  0
   -8.4160    1.9060   -1.9430 C   0  0  0  0  0  0  0  0  0  0  0  0
  -10.1300    0.1760   -2.1810 C   0  0  0  0  0  0  0  0  0  0  0  0
   -9.2470    0.6530    0.0190 C   0  0  2  0  0  0  0  0  0  0  0  0
  -10.2860    1.6930    0.2910 C   0  0  0  0  0  0  0  0  0  0  0  0
   -8.0480    0.8040    0.8740 N   0  0  0  0  0  0  0  0  0  0  0  0
   -7.8390    1.8550    1.7880 C   0  0  0  0  0  0  0  0  0  0  0  0
  1  2  1  0
  2  3  1  0
  3  4  1  0
  4  5  2  0
  4  6  1  0
  6  7  2  0
  6 22  1  0
  7  8  1  0
  7 20  1  0
  8  9  1  0
  9 10  1  0
 10 11  1  1
 10 19  1  0
 12 11  1  1
 12 13  1  0
 12 18  1  0
 13 14  1  0
 14 15  1  0
 15 16  1  0
 16 17  1  1
 16 18  1  0
 20 19  1  1
 20 21  1  0
 21 22  2  0
 22 23  1  0
 23 24  2  0
 23 25  1  0
 25 26  1  0
 26 27  2  0
 26 28  1  0
 28 29  1  0
 29 30  1  0
 30 31  1  0
 31 32  2  0
 31 37  1  0
 32 33  1  0
 33 34  1  0
 33 35  2  0
 35 36  1  0
 35 44  1  0
 36 37  2  0
 36 38  1  0
 38 39  1  0
 39 40  1  6
 39 41  1  0
 39 42  1  0
 42 43  1  6
 42 44  1  0
 44 45  1  0
M  CHG  2  11   1  15   1
M  END
