
     RDKit          3D

 45 49  0  0  0  0  0  0  0  0999 V2000
   10.1880    4.3630    0.3500 C   0  0  0  0  0  0  0  0  0  0  0  0
   10.2820    3.2750   -0.5450 O   0  0  0  0  0  0  0  0  0  0  0  0
    9.4820    2.1570   -0.3270 C   0  0  0  0  0  0  0  0  0  0  0  0
    8.7050    2.1740    0.6710 O   0  0  0  0  0  0  0  0  0  0  0  0
    9.5390    1.0090   -1.2160 C   0  0  0  0  0  0  0  0  0  0  0  0
    8.8090   -0.0740   -1.0610 C   0  0  0  0  0  0  0  0  0  0  0  0
    7.8990   -0.1340    0.0490 N   0  0  0  0  0  0  0  0  0  0  0  0
    6.5150   -0.2760   -0.1370 C   0  0  0  0  0  0  0  0  0  0  0  0
    6.1140   -0.3490   -1.3350 O   0  0  0  0  0  0  0  0  0  0  0  0
    5.5590   -0.3410    0.9520 C   0  0  0  0  0  0  0  0  0  0  0  0
    5.9320   -0.2760    2.2590 C   0  0  0  0  0  0  0  0  0  0  0  0
    4.9690   -0.3420    3.2510 C   0  0  0  0  0  0  0  0  0  0  0  0
    3.6360   -0.4730    2.9400 C   0  0  0  0  0  0  0  0  0  0  0  0
    2.6630   -0.5390    3.9060 C   0  0  0  0  0  0  0  0  0  0  0  0
    1.3260   -0.6680    3.6200 C   0  0  0  0  0  0  0  0  0  0  0  0
    0.9090   -0.7370    2.2790 C   0  0  0  0  0  0  0  0  0  0  0  0
   -0.4740   -0.8850    2.0420 N   0  0  0  0  0  0  0  0  0  0  0  0
   -1.1050   -0.7530    0.7840 C   0  0  0  0  0  0  0  0  0  0  0  0
   -0.4060   -0.4680   -0.2190 O   0  0  0  0  0  0  0  0  0  0  0  0
   -2.5930   -0.9540    0.6450 C   0  0  2  0  0  0  0  0  0  0  0  0
   -3.3690   -0.4660    1.7940 C   0  0  0  0  0  0  0  0  0  0  0  0
   -3.1370    1.0090    1.9840 C   0  0  0  0  0  0  0  0  0  0  0  0
   -3.5360    1.8670    0.8120 C   0  0  0  0  0  0  0  0  0  0  0  0
   -4.9160    1.7260    0.4680 N   0  0  0  0  0  0  0  0  0  0  0  0
   -5.3890    2.4980   -0.6230 C   0  0  2  0  0  0  0  0  0  0  0  0
   -4.7390    2.2070   -1.9520 C   0  0  0  0  0  0  0  0  0  0  0  0
   -4.8410    3.4990   -2.7080 C   0  0  0  0  0  0  0  0  0  0  0  0
   -5.2740    4.5340   -1.8120 N   0  0  2  0  0  0  0  0  0  0  0  0
   -4.4870    5.7400   -1.8620 C   0  0  0  0  0  0  0  0  0  0  0  0
   -5.2440    3.9740   -0.4730 C   0  0  0  0  0  0  0  0  0  0  0  0
   -2.9320   -2.3710    0.1570 C   0  0  2  0  0  0  0  0  0  0  0  0
   -2.4790   -3.3860    0.9760 N   0  0  0  0  0  0  0  0  0  0  0  0
   -1.9000   -4.5980    0.6260 C   0  0  2  0  0  0  0  0  0  0  0  0
   -0.4830   -4.8010    1.1850 C   0  0  0  0  0  0  0  0  0  0  0  0
   -1.9930   -5.1120   -0.7770 C   0  0  0  0  0  0  0  0  0  0  0  0
   -1.1080   -4.2020   -1.6160 C   0  0  0  0  0  0  0  0  0  0  0  0
   -1.9690   -3.1020   -2.1420 C   0  0  0  0  0  0  0  0  0  0  0  0
   -1.9540   -2.9190   -3.4820 C   0  0  0  0  0  0  0  0  0  0  0  0
   -2.7770   -1.9480   -4.0760 C   0  0  0  0  0  0  0  0  0  0  0  0
   -3.5820   -1.2090   -3.2480 C   0  0  0  0  0  0  0  0  0  0  0  0
   -3.5750   -1.4200   -1.8780 C   0  0  0  0  0  0  0  0  0  0  0  0
   -2.7700   -2.3680   -1.2850 C   0  0  0  0  0  0  0  0  0  0  0  0
    1.8840   -0.6710    1.3360 C   0  0  0  0  0  0  0  0  0  0  0  0
    3.2480   -0.5390    1.6220 C   0  0  0  0  0  0  0  0  0  0  0  0
    4.1990   -0.4740    0.6490 C   0  0  0  0  0  0  0  0  0  0  0  0
  1  2  1  0
  2  3  1  0
  3  4  2  0
  3  5  1  0
  5  6  2  3
  6  7  1  0
  7  8  1  0
  8  9  2  0
  8 10  1  0
 10 11  2  0
 10 45  1  0
 11 12  1  0
 12 13  2  0
 13 14  1  0
 13 44  1  0
 14 15  2  0
 15 16  1  0
 16 17  1  0
 16 43  2  0
 17 18  1  0
 18 19  2  0
 18 20  1  0
 20 21  1  1
 20 31  1  0
 21 22  1  0
 22 23  1  0
 23 24  1  0
 25 24  1  1
 25 26  1  0
 25 30  1  0
 26 27  1  0
 27 28  1  0
 28 29  1  1
 28 30  1  0
 31 32  1  1
 31 42  1  0
 32 33  1  0
 33 34  1  6
 33 35  1  0
 35 36  1  0
 36 37  1  0
 37 38  2  0
 37 42  1  0
 38 39  1  0
 39 40  2  0
 40 41  1  0
 41 42  2  0
 43 44  1  0
 44 45  2  0
M  CHG  2  28   1  32   1
M  END
