
     RDKit          3D

 45 49  0  0  0  0  0  0  0  0999 V2000
   -4.5980   -0.8470   -4.3090 C   0  0  0  0  0  0  0  0  0  0  0  0
   -4.2490   -0.7010   -2.8400 C   0  0  0  0  0  0  0  0  0  0  0  0
   -3.4400    0.5740   -2.6970 C   0  0  2  0  0  0  0  0  0  0  0  0
   -2.3050    0.3960   -3.4970 O   0  0  0  0  0  0  0  0  0  0  0  0
   -3.0000    0.8100   -1.2610 C   0  0  1  0  0  0  0  0  0  0  0  0
   -4.1750    1.0690   -0.3670 C   0  0  0  0  0  0  0  0  0  0  0  0
   -3.7050    0.9620    1.0020 N   0  0  2  0  0  0  0  0  0  0  0  0
   -4.3580    2.0130    1.7570 C   0  0  0  0  0  0  0  0  0  0  0  0
   -5.6870    1.5520    2.2610 C   0  0  0  0  0  0  0  0  0  0  0  0
   -6.7940    1.5280    1.4360 C   0  0  0  0  0  0  0  0  0  0  0  0
   -8.0130    1.0980    1.8940 C   0  0  0  0  0  0  0  0  0  0  0  0
   -8.1650    0.6770    3.1970 C   0  0  0  0  0  0  0  0  0  0  0  0
   -9.4770    0.2010    3.7170 C   0  0  0  0  0  0  0  0  0  0  0  0
   -7.0350    0.7120    4.0020 C   0  0  0  0  0  0  0  0  0  0  0  0
   -7.1930    0.2740    5.3430 N   0  0  0  0  0  0  0  0  0  0  0  0
   -5.8400    1.1410    3.5270 N   0  0  0  0  0  0  0  0  0  0  0  0
   -2.2950    1.1470    1.0750 C   0  0  0  0  0  0  0  0  0  0  0  0
   -1.5580   -0.0290    0.3710 C   0  0  2  0  0  0  0  0  0  0  0  0
   -0.1630    0.4230    0.1750 C   0  0  0  0  0  0  0  0  0  0  0  0
    0.7080   -0.4140   -0.6100 N   0  0  1  0  0  0  0  0  0  0  0  0
    2.0770   -0.0360   -0.4670 C   0  0  0  0  0  0  0  0  0  0  0  0
    3.1110   -0.7100   -1.0920 C   0  0  0  0  0  0  0  0  0  0  0  0
    4.4280   -0.3670   -0.9820 C   0  0  0  0  0  0  0  0  0  0  0  0
    4.7900    0.7190   -0.2030 C   0  0  0  0  0  0  0  0  0  0  0  0
    6.1500    1.0710   -0.0870 N   0  0  0  0  0  0  0  0  0  0  0  0
    6.7440    1.9980    0.7780 C   0  0  0  0  0  0  0  0  0  0  0  0
    6.0440    2.6380    1.5860 O   0  0  0  0  0  0  0  0  0  0  0  0
    8.2100    2.1960    0.7110 C   0  0  0  0  0  0  0  0  0  0  0  0
    8.9560    1.9250   -0.4070 C   0  0  0  0  0  0  0  0  0  0  0  0
   10.3430    2.1020   -0.4360 C   0  0  0  0  0  0  0  0  0  0  0  0
   10.9420    2.5620    0.7090 C   0  0  0  0  0  0  0  0  0  0  0  0
   10.2500    2.8570    1.8750 C   0  0  0  0  0  0  0  0  0  0  0  0
   10.9540    3.3540    3.0990 C   0  0  0  0  0  0  0  0  0  0  0  0
    8.8890    2.6620    1.8390 C   0  0  0  0  0  0  0  0  0  0  0  0
    3.7890    1.3990    0.4220 C   0  0  0  0  0  0  0  0  0  0  0  0
    2.4680    1.0400    0.3010 C   0  0  0  0  0  0  0  0  0  0  0  0
    0.4160   -1.8000   -0.5760 C   0  0  2  0  0  0  0  0  0  0  0  0
    1.3480   -2.6710    0.1580 C   0  0  0  0  0  0  0  0  0  0  0  0
    1.7400   -3.9580   -0.5180 C   0  0  0  0  0  0  0  0  0  0  0  0
    0.5700   -4.5290   -1.0200 O   0  0  0  0  0  0  0  0  0  0  0  0
    0.0850   -3.8100   -2.0910 C   0  0  2  0  0  0  0  0  0  0  0  0
   -1.3180   -4.2990   -2.3870 C   0  0  0  0  0  0  0  0  0  0  0  0
    0.9330   -4.2480   -3.2960 C   0  0  0  0  0  0  0  0  0  0  0  0
    0.2030   -2.3310   -1.9810 C   0  0  0  0  0  0  0  0  0  0  0  0
   -2.2790   -0.2540   -0.7770 O   0  0  0  0  0  0  0  0  0  0  0  0
  1  2  1  0
  2  3  1  0
  3  4  1  6
  3  5  1  0
  5  6  1  1
  5 45  1  0
  6  7  1  0
  7  8  1  1
  7 17  1  0
  8  9  1  0
  9 10  2  0
  9 16  1  0
 10 11  1  0
 11 12  2  0
 12 13  1  0
 12 14  1  0
 14 15  1  0
 14 16  2  0
 17 18  1  0
 18 19  1  6
 18 45  1  0
 20 19  1  1
 20 21  1  0
 20 37  1  0
 21 22  2  0
 21 36  1  0
 22 23  1  0
 23 24  2  0
 24 25  1  0
 24 35  1  0
 25 26  1  0
 26 27  2  0
 26 28  1  0
 28 29  2  0
 28 34  1  0
 29 30  1  0
 30 31  2  0
 31 32  1  0
 32 33  1  0
 32 34  2  0
 35 36  2  0
 37 38  1  6
 37 44  1  0
 38 39  1  0
 39 40  1  0
 40 41  1  0
 41 42  1  6
 41 43  1  0
 41 44  1  0
M  CHG  2   7   1  20   1
M  END
