
     RDKit          3D

 45 49  0  0  0  0  0  0  0  0999 V2000
    6.1080    1.9330   -2.1460 C   0  0  0  0  0  0  0  0  0  0  0  0
    6.8920    0.7760   -2.5040 C   0  0  0  0  0  0  0  0  0  0  0  0
    7.3810   -0.2160   -1.8230 C   0  0  0  0  0  0  0  0  0  0  0  0
    7.2880   -0.4880   -0.4300 C   0  0  0  0  0  0  0  0  0  0  0  0
    7.9040   -1.5720    0.0540 C   0  0  0  0  0  0  0  0  0  0  0  0
    8.6510   -2.5480   -0.6330 O   0  0  0  0  0  0  0  0  0  0  0  0
    9.0760   -3.5540    0.2660 C   0  0  0  0  0  0  0  0  0  0  0  0
    8.6230   -3.0910    1.5850 C   0  0  0  0  0  0  0  0  0  0  0  0
    7.9570   -1.9590    1.4450 C   0  0  0  0  0  0  0  0  0  0  0  0
    7.3150   -1.0830    2.3830 N   0  0  0  0  0  0  0  0  0  0  0  0
    6.6860    0.1150    1.9040 C   0  0  0  0  0  0  0  0  0  0  0  0
    6.4890    0.9880    2.7900 O   0  0  0  0  0  0  0  0  0  0  0  0
    6.3350    0.2410    0.4740 C   0  0  2  0  0  0  0  0  0  0  0  0
    4.9970   -0.3710    0.2370 N   0  0  0  0  0  0  0  0  0  0  0  0
    4.0440    0.2580    1.0850 C   0  0  1  0  0  0  0  0  0  0  0  0
    3.2380    1.3700    0.4170 C   0  0  0  0  0  0  0  0  0  0  0  0
    2.1240    1.6770    1.3900 C   0  0  0  0  0  0  0  0  0  0  0  0
    1.1290    0.6690    1.4490 N   0  0  1  0  0  0  0  0  0  0  0  0
   -0.0320    0.7380    0.6550 C   0  0  0  0  0  0  0  0  0  0  0  0
   -0.7070    1.9730    0.2780 C   0  0  1  0  0  0  0  0  0  0  0  0
   -0.0440    2.9610   -0.6050 C   0  0  0  0  0  0  0  0  0  0  0  0
    0.2350    2.3670   -1.9680 C   0  0  0  0  0  0  0  0  0  0  0  0
   -0.8990    1.5210   -2.4700 C   0  0  0  0  0  0  0  0  0  0  0  0
   -2.1950    1.7930   -1.7420 C   0  0  0  0  0  0  0  0  0  0  0  0
   -2.1400    1.7990   -0.2730 C   0  0  1  0  0  0  0  0  0  0  0  0
   -2.7410    0.7810    0.4690 N   0  0  0  0  0  0  0  0  0  0  0  0
   -4.1900    0.6990    0.5700 C   0  0  1  0  0  0  0  0  0  0  0  0
   -4.8570    1.9450    0.1370 C   0  0  0  0  0  0  0  0  0  0  0  0
   -6.3560    1.9680    0.1800 C   0  0  1  0  0  0  0  0  0  0  0  0
   -6.8600    3.3640   -0.2390 C   0  0  0  0  0  0  0  0  0  0  0  0
   -6.9980    1.0200   -0.8500 C   0  0  0  0  0  0  0  0  0  0  0  0
   -4.6790   -0.5770    0.0310 C   0  0  0  0  0  0  0  0  0  0  0  0
   -4.0920   -0.9870   -1.0040 O   0  0  0  0  0  0  0  0  0  0  0  0
   -5.7100   -1.3490    0.5620 N   0  0  0  0  0  0  0  0  0  0  0  0
   -6.2470   -1.0270    1.8750 C   0  0  0  0  0  0  0  0  0  0  0  0
   -6.2800   -2.5080   -0.0670 C   0  0  0  0  0  0  0  0  0  0  0  0
   -5.7440   -3.1990   -1.1050 C   0  0  0  0  0  0  0  0  0  0  0  0
   -6.3920   -4.3180   -1.6400 C   0  0  0  0  0  0  0  0  0  0  0  0
   -7.5920   -4.7520   -1.1280 C   0  0  0  0  0  0  0  0  0  0  0  0
   -8.1610   -4.0800   -0.0790 C   0  0  0  0  0  0  0  0  0  0  0  0
   -7.4960   -2.9820    0.4210 C   0  0  0  0  0  0  0  0  0  0  0  0
    1.7030   -0.6760    1.3770 C   0  0  1  0  0  0  0  0  0  0  0  0
    1.4660   -1.3860    0.0880 C   0  0  0  0  0  0  0  0  0  0  0  0
    2.1080   -2.6440    0.2250 O   0  0  0  0  0  0  0  0  0  0  0  0
    3.1290   -0.7450    1.7600 C   0  0  0  0  0  0  0  0  0  0  0  0
  1  2  1  0
  2  3  2  3
  3  4  1  0
  4  5  2  0
  4 13  1  0
  5  6  1  0
  5  9  1  0
  6  7  1  0
  7  8  1  0
  8  9  2  0
  9 10  1  0
 10 11  1  0
 11 12  2  0
 11 13  1  0
 13 14  1  1
 15 14  1  6
 15 16  1  0
 15 45  1  0
 16 17  1  0
 17 18  1  0
 18 19  1  6
 18 42  1  0
 20 19  1  6
 20 21  1  0
 20 25  1  0
 21 22  1  0
 22 23  1  0
 23 24  1  0
 24 25  1  0
 25 26  1  6
 26 27  1  0
 27 28  1  6
 27 32  1  0
 28 29  1  0
 29 30  1  6
 29 31  1  0
 32 33  2  0
 32 34  1  0
 34 35  1  0
 34 36  1  0
 36 37  2  0
 36 41  1  0
 37 38  1  0
 38 39  2  0
 39 40  1  0
 40 41  2  0
 42 43  1  6
 42 45  1  0
 43 44  1  0
M  CHG  3  14   1  18   1  26   1
M  END
