
     RDKit          3D

 22 24  0  0  0  0  0  0  0  0999 V2000
    5.6190    1.6170    0.9530 C   0  0  0  0  0  0  0  0  0  0  0  0
    4.6370    0.9270    0.4530 O   0  0  0  0  0  0  0  0  0  0  0  0
    3.7900    0.0880   -0.1060 C   0  0  0  0  0  0  0  0  0  0  0  0
    4.4130   -1.1060   -0.6640 C   0  0  0  0  0  0  0  0  0  0  0  0
    3.5690   -1.9890   -1.2240 C   0  0  0  0  0  0  0  0  0  0  0  0
    4.1240   -3.1660   -1.7740 O   0  0  0  0  0  0  0  0  0  0  0  0
    2.1900   -1.8130   -1.2940 C   0  0  0  0  0  0  0  0  0  0  0  0
    1.5680   -0.7230   -0.7970 C   0  0  0  0  0  0  0  0  0  0  0  0
    0.1530   -0.3750   -0.9210 C   0  0  0  0  0  0  0  0  0  0  0  0
   -0.7070   -0.6410   -1.8680 C   0  0  0  0  0  0  0  0  0  0  0  0
   -2.0450   -0.0760   -1.5930 C   0  0  0  0  0  0  0  0  0  0  0  0
   -2.0000    0.3540   -0.2050 C   0  0  1  0  0  0  0  0  0  0  0  0
   -3.1080    0.1460    0.6630 C   0  0  0  0  0  0  0  0  0  0  0  0
   -3.3540   -0.6910    1.7580 C   0  0  0  0  0  0  0  0  0  0  0  0
   -2.4830   -1.8380    2.1280 C   0  0  0  0  0  0  0  0  0  0  0  0
   -4.5180   -0.3240    2.2800 N   0  0  0  0  0  0  0  0  0  0  0  0
   -5.0490    0.6670    1.6330 N   0  0  0  0  0  0  0  0  0  0  0  0
   -4.2290    0.9910    0.6390 C   0  0  0  0  0  0  0  0  0  0  0  0
   -4.4640    2.2190   -0.2280 C   0  0  0  0  0  0  0  0  0  0  0  0
   -0.6240    0.2040    0.2620 C   0  0  0  0  0  0  0  0  0  0  0  0
    2.4370    0.2180   -0.2030 C   0  0  0  0  0  0  0  0  0  0  0  0
    1.9200    1.3930    0.3250 O   0  0  0  0  0  0  0  0  0  0  0  0
  1  2  1  0
  2  3  1  0
  3  4  2  0
  3 21  1  0
  4  5  1  0
  5  6  1  0
  5  7  2  0
  7  8  1  0
  8  9  1  0
  8 21  2  0
  9 10  2  0
  9 20  1  0
 10 11  1  0
 11 12  1  0
 12 13  1  1
 12 20  1  0
 13 14  1  0
 13 18  2  0
 14 15  1  0
 14 16  2  0
 16 17  1  0
 17 18  1  0
 18 19  1  0
 21 22  1  0
M  END
