
     RDKit          3D

 22 24  0  0  0  0  0  0  0  0999 V2000
   -1.1880    1.2560   -0.1550 O   0  0  0  0  0  0  0  0  0  0  0  0
   -1.3670    0.3720   -1.0210 C   0  0  0  0  0  0  0  0  0  0  0  0
   -0.5690    0.4020   -2.2630 C   0  0  0  0  0  0  0  0  0  0  0  0
    0.3450    1.5650   -2.2160 C   0  0  0  0  0  0  0  0  0  0  0  0
    0.1770    2.7560   -2.9100 C   0  0  0  0  0  0  0  0  0  0  0  0
    1.2250    3.5240   -2.5790 N   0  0  0  0  0  0  0  0  0  0  0  0
    2.0370    2.8700   -1.7140 C   0  0  0  0  0  0  0  0  0  0  0  0
    3.2190    3.2160   -1.0880 C   0  0  0  0  0  0  0  0  0  0  0  0
    3.8420    2.3270   -0.2350 C   0  0  0  0  0  0  0  0  0  0  0  0
    3.3320    1.0750    0.0320 C   0  0  0  0  0  0  0  0  0  0  0  0
    4.0030    0.2220    0.8990 O   0  0  0  0  0  0  0  0  0  0  0  0
    3.5670   -1.0650    1.2340 C   0  0  0  0  0  0  0  0  0  0  0  0
    4.5950   -1.6390    2.2030 C   0  0  0  0  0  0  0  0  0  0  0  0
    4.2900   -2.9110    2.6180 O   0  0  0  0  0  0  0  0  0  0  0  0
    2.1500    0.7360   -0.5970 C   0  0  0  0  0  0  0  0  0  0  0  0
    1.5070    1.6270   -1.4640 C   0  0  0  0  0  0  0  0  0  0  0  0
   -2.3200   -0.6610   -0.8420 N   0  0  0  0  0  0  0  0  0  0  0  0
   -3.0970   -0.6990    0.3560 C   0  0  1  0  0  0  0  0  0  0  0  0
   -4.6010   -0.6660    0.0590 C   0  0  0  0  0  0  0  0  0  0  0  0
   -5.2420   -1.3620    1.2450 C   0  0  0  0  0  0  0  0  0  0  0  0
   -4.1150   -1.9520    2.0570 C   0  0  0  0  0  0  0  0  0  0  0  0
   -2.9900   -2.0520    1.0440 C   0  0  0  0  0  0  0  0  0  0  0  0
  1  2  2  0
  2  3  1  0
  2 17  1  0
  3  4  1  0
  4  5  2  0
  4 16  1  0
  5  6  1  0
  6  7  1  0
  7  8  2  0
  7 16  1  0
  8  9  1  0
  9 10  2  0
 10 11  1  0
 10 15  1  0
 11 12  1  0
 12 13  1  0
 13 14  1  0
 15 16  2  0
 18 17  1  6
 18 19  1  0
 18 22  1  0
 19 20  1  0
 20 21  1  0
 21 22  1  0
M  END
