
     RDKit          3D

 22 24  0  0  0  0  0  0  0  0999 V2000
   -3.7580   -0.8070    2.3910 C   0  0  0  0  0  0  0  0  0  0  0  0
   -2.6790   -0.1180    1.5510 C   0  0  2  0  0  0  0  0  0  0  0  0
   -2.6820    1.2250    1.9890 O   0  0  0  0  0  0  0  0  0  0  0  0
   -3.0250   -0.1610    0.1030 C   0  0  0  0  0  0  0  0  0  0  0  0
   -4.1140   -0.9100   -0.2680 C   0  0  0  0  0  0  0  0  0  0  0  0
   -4.5220   -1.0040   -1.5640 C   0  0  0  0  0  0  0  0  0  0  0  0
   -3.8310   -0.3320   -2.5430 C   0  0  0  0  0  0  0  0  0  0  0  0
   -2.7500    0.4120   -2.1730 C   0  0  0  0  0  0  0  0  0  0  0  0
   -2.3140    0.5210   -0.8450 C   0  0  0  0  0  0  0  0  0  0  0  0
   -1.1210    1.3260   -0.5160 C   0  0  0  0  0  0  0  0  0  0  0  0
    0.1410    0.5260   -0.3480 C   0  0  0  0  0  0  0  0  0  0  0  0
    1.2330    1.4100   -0.0140 N   0  0  0  0  0  0  0  0  0  0  0  0
    2.5320    0.8900    0.2170 C   0  0  0  0  0  0  0  0  0  0  0  0
    3.5880    1.6830    0.5850 C   0  0  0  0  0  0  0  0  0  0  0  0
    4.8380    1.1660    0.8060 C   0  0  0  0  0  0  0  0  0  0  0  0
    5.0680   -0.2030    0.6610 C   0  0  0  0  0  0  0  0  0  0  0  0
    6.1460   -0.9950    0.8020 N   0  0  0  0  0  0  0  0  0  0  0  0
    5.7180   -2.2350    0.5180 C   0  0  0  0  0  0  0  0  0  0  0  0
    6.4800   -3.2490    0.5510 O   0  0  0  0  0  0  0  0  0  0  0  0
    4.4440   -2.2440    0.2140 O   0  0  0  0  0  0  0  0  0  0  0  0
    3.9960   -1.0030    0.2880 C   0  0  0  0  0  0  0  0  0  0  0  0
    2.7450   -0.4690    0.0690 C   0  0  0  0  0  0  0  0  0  0  0  0
  2  1  1  1
  2  3  1  0
  2  4  1  0
  4  5  2  0
  4  9  1  0
  5  6  1  0
  6  7  2  0
  7  8  1  0
  8  9  2  0
  9 10  1  0
 10 11  1  0
 11 12  1  0
 12 13  1  0
 13 14  2  0
 13 22  1  0
 14 15  1  0
 15 16  2  0
 16 17  1  0
 16 21  1  0
 17 18  1  0
 18 19  2  0
 18 20  1  0
 20 21  1  0
 21 22  2  0
M  END
