
     RDKit          3D

 22 24  0  0  0  0  0  0  0  0999 V2000
    6.7520    1.2110    0.2380 C   0  0  0  0  0  0  0  0  0  0  0  0
    6.6250   -0.1230    0.6330 O   0  0  0  0  0  0  0  0  0  0  0  0
    6.2980   -0.9410   -0.4180 C   0  0  0  0  0  0  0  0  0  0  0  0
    5.0120   -0.6180   -1.1020 C   0  0  0  0  0  0  0  0  0  0  0  0
    3.8690   -0.7100   -0.1390 C   0  0  0  0  0  0  0  0  0  0  0  0
    3.9710   -1.0440    1.1910 C   0  0  0  0  0  0  0  0  0  0  0  0
    2.6820   -1.0170    1.7350 C   0  0  0  0  0  0  0  0  0  0  0  0
    1.8680   -0.6620    0.6800 C   0  0  0  0  0  0  0  0  0  0  0  0
    0.3970   -0.5150    0.8200 C   0  0  0  0  0  0  0  0  0  0  0  0
   -0.1730   -0.7050    1.9000 O   0  0  0  0  0  0  0  0  0  0  0  0
   -0.3080   -0.1470   -0.3420 N   0  0  0  0  0  0  0  0  0  0  0  0
   -1.7060    0.0400   -0.3770 C   0  0  0  0  0  0  0  0  0  0  0  0
   -2.2850    0.0220   -1.6570 C   0  0  0  0  0  0  0  0  0  0  0  0
   -3.6360    0.2120   -1.8000 C   0  0  0  0  0  0  0  0  0  0  0  0
   -4.4350    0.4230   -0.7000 C   0  0  0  0  0  0  0  0  0  0  0  0
   -3.8770    0.4430    0.5530 C   0  0  0  0  0  0  0  0  0  0  0  0
   -2.5290    0.2530    0.7010 C   0  0  0  0  0  0  0  0  0  0  0  0
   -4.6760    0.6640    1.7870 C   0  0  0  0  0  0  0  0  0  0  0  0
   -6.1420    0.5580    1.5880 C   0  0  0  0  0  0  0  0  0  0  0  0
   -6.5490    0.0240    0.3230 N   0  0  0  0  0  0  0  0  0  0  0  0
   -5.9040    0.6340   -0.8040 C   0  0  0  0  0  0  0  0  0  0  0  0
    2.6010   -0.4980   -0.3710 O   0  0  0  0  0  0  0  0  0  0  0  0
  1  2  1  0
  2  3  1  0
  3  4  1  0
  4  5  1  0
  5  6  2  0
  5 22  1  0
  6  7  1  0
  7  8  2  0
  8  9  1  0
  8 22  1  0
  9 10  2  0
  9 11  1  0
 11 12  1  0
 12 13  2  0
 12 17  1  0
 13 14  1  0
 14 15  2  0
 15 16  1  0
 15 21  1  0
 16 17  2  0
 16 18  1  0
 18 19  1  0
 19 20  1  0
 20 21  1  0
M  END
