
     RDKit          3D

 18 20  0  0  0  0  0  0  0  0999 V2000
   -4.7430    0.9020    0.9150 N   0  0  0  0  0  0  0  0  0  0  0  0
   -4.0490   -0.6770    0.7910 S   0  0  1  0  0  0  0  0  0  0  0  0
   -3.9730   -1.3360    2.1380 O   0  0  0  0  0  0  0  0  0  0  0  0
   -4.9180   -1.5470   -0.0830 O   0  0  0  0  0  0  0  0  0  0  0  0
   -2.4530   -0.4940    0.1040 C   0  0  0  0  0  0  0  0  0  0  0  0
   -2.3380   -0.5470   -1.2860 C   0  0  0  0  0  0  0  0  0  0  0  0
   -1.0790   -0.4030   -1.8270 C   0  0  0  0  0  0  0  0  0  0  0  0
    0.0510   -0.2120   -1.0450 C   0  0  0  0  0  0  0  0  0  0  0  0
    1.3590   -0.0470   -1.2930 N   0  0  0  0  0  0  0  0  0  0  0  0
    2.0670    0.1050   -0.1430 C   0  0  0  0  0  0  0  0  0  0  0  0
    3.5270    0.3080   -0.0350 C   0  0  0  0  0  0  0  0  0  0  0  0
    4.3350    0.3630   -1.1380 C   0  0  0  0  0  0  0  0  0  0  0  0
    5.9810    0.6210   -0.4170 S   0  0  0  0  0  0  0  0  0  0  0  0
    5.2630    0.6100    1.3420 C   0  0  0  0  0  0  0  0  0  0  0  0
    4.1530    0.4480    1.1100 N   0  0  0  0  0  0  0  0  0  0  0  0
    1.1560    0.0290    0.8310 N   0  0  0  0  0  0  0  0  0  0  0  0
   -0.0740   -0.1620    0.3270 C   0  0  0  0  0  0  0  0  0  0  0  0
   -1.3270   -0.3040    0.8790 C   0  0  0  0  0  0  0  0  0  0  0  0
  2  1  1  1
  2  3  2  0
  2  4  2  0
  2  5  1  0
  5  6  2  0
  5 18  1  0
  6  7  1  0
  7  8  2  0
  8  9  1  0
  8 17  1  0
  9 10  1  0
 10 11  1  0
 10 16  2  0
 11 12  2  0
 11 15  1  0
 12 13  1  0
 13 14  1  0
 14 15  2  0
 16 17  1  0
 17 18  2  0
M  END
