
     RDKit          3D

  7  6  0  0  0  0  0  0  0  0999 V2000
    0.8500   -1.1400   -1.0170 N   0  0  0  0  0  0  0  0  0  0  0  0
    0.6280    0.1110   -0.3320 C   0  0  2  0  0  0  0  0  0  0  0  0
    1.4950    0.1260    1.2610 S   0  0  0  0  0  0  0  0  0  0  0  0
   -0.8580    0.3160   -0.0910 C   0  0  1  0  0  0  0  0  0  0  0  0
   -1.2980   -0.7470    0.6890 O   0  0  0  0  0  0  0  0  0  0  0  0
   -1.0260    1.4790    0.6800 O   0  0  0  0  0  0  0  0  0  0  0  0
   -1.5570    0.3860   -1.2730 O   0  0  0  0  0  0  0  0  0  0  0  0
  2  1  1  1
  2  3  1  0
  2  4  1  0
  4  5  1  1
  4  6  1  0
  4  7  1  0
M  END
