
     RDKit          3D

  7  7  0  0  0  0  0  0  0  0999 V2000
   -1.9090    0.5430   -0.0320 C   0  0  0  0  0  0  0  0  0  0  0  0
   -0.6190    0.6340    0.4710 O   0  0  0  0  0  0  0  0  0  0  0  0
    0.0390   -0.5720    0.5180 C   0  0  2  0  0  0  0  0  0  0  0  0
    1.3370   -0.4870    1.0230 O   0  0  0  0  0  0  0  0  0  0  0  0
    2.0780    0.3480    0.2370 N   0  0  0  0  0  0  0  0  0  0  0  0
    0.0040   -1.3870   -0.6560 O   0  0  0  0  0  0  0  0  0  0  0  0
   -0.8070   -2.1220    0.5270 S   0  0  0  0  0  0  0  0  0  0  0  0
  1  2  1  0
  3  2  1  6
  3  4  1  0
  3  6  1  0
  3  7  1  0
  4  5  1  0
  6  7  1  0
M  CHG  1   5   1
M  END
