
     RDKit          3D

  7  6  0  0  0  0  0  0  0  0999 V2000
   -1.5390   -0.3730   -0.7100 N   0  0  0  0  0  0  0  0  0  0  0  0
   -0.2150   -0.3190   -0.1200 C   0  0  2  0  0  0  0  0  0  0  0  0
   -0.0260   -1.4880    0.6330 O   0  0  0  0  0  0  0  0  0  0  0  0
   -0.0970    0.9050    0.7690 C   0  0  0  0  0  0  0  0  0  0  0  0
   -0.2100    2.0160   -0.0630 O   0  0  0  0  0  0  0  0  0  0  0  0
    1.0820   -0.1880   -1.3760 S   0  0  0  0  0  0  0  0  0  0  0  0
    2.5980   -0.2570   -0.5930 O   0  0  0  0  0  0  0  0  0  0  0  0
  2  1  1  6
  2  3  1  0
  2  4  1  0
  2  6  1  0
  4  5  1  0
  6  7  1  0
M  END
