
     RDKit          3D

  7  6  0  0  0  0  0  0  0  0999 V2000
   -1.2060   -1.2220    0.0670 C   0  0  0  0  0  0  0  0  0  0  0  0
   -0.5430    0.1270    0.1960 C   0  0  1  0  0  0  0  0  0  0  0  0
   -1.5280    1.1000   -0.0350 O   0  0  0  0  0  0  0  0  0  0  0  0
   -0.0970    0.2870    1.5180 O   0  0  0  0  0  0  0  0  0  0  0  0
    0.5700    0.2820   -0.7310 N   0  0  0  0  0  0  0  0  0  0  0  0
    2.0850    0.3810    0.0910 S   0  0  0  0  0  0  0  0  0  0  0  0
    2.5860   -0.9360    0.6180 O   0  0  0  0  0  0  0  0  0  0  0  0
  2  1  1  1
  2  3  1  0
  2  4  1  0
  2  5  1  0
  5  6  1  0
  6  7  2  0
M  CHG  1   5   1
M  END
