
     RDKit          3D

 22 22  0  0  0  0  0  0  0  0999 V2000
    1.9820    0.6070   -1.5180 C   0  0  0  0  0  0  0  0  0  0  0  0
    1.9220    1.0180   -0.0380 C   0  0  1  0  0  0  0  0  0  0  0  0
    1.6550    2.4880   -0.0030 C   0  0  0  0  0  0  0  0  0  0  0  0
    2.6550    3.2740   -0.6530 N   0  0  0  0  0  0  0  0  0  0  0  0
    0.9090    0.2430    0.6430 N   0  0  0  0  0  0  0  0  0  0  0  0
   -0.4640    0.2640    0.2420 C   0  0  0  0  0  0  0  0  0  0  0  0
   -0.8130    0.9590   -0.7140 O   0  0  0  0  0  0  0  0  0  0  0  0
   -1.4300   -0.4730    0.8880 O   0  0  0  0  0  0  0  0  0  0  0  0
   -2.7850   -0.5080    0.5600 C   0  0  1  0  0  0  0  0  0  0  0  0
   -3.4480   -1.4410    1.5430 C   0  0  0  0  0  0  0  0  0  0  0  0
   -4.8110   -1.5860    1.3630 O   0  0  0  0  0  0  0  0  0  0  0  0
   -3.4540    0.8080    0.6670 C   0  0  0  0  0  0  0  0  0  0  0  0
   -2.9950    1.8010    1.2770 O   0  0  0  0  0  0  0  0  0  0  0  0
   -4.6360    0.6510   -0.0380 O   0  0  0  0  0  0  0  0  0  0  0  0
   -4.5090   -0.3820   -0.9940 C   0  0  0  0  0  0  0  0  0  0  0  0
   -3.1090   -0.9090   -0.8210 C   0  0  2  0  0  0  0  0  0  0  0  0
   -3.0000   -2.3190   -1.0830 N   0  0  0  0  0  0  0  0  0  0  0  0
    3.2620    0.6530    0.5450 C   0  0  1  0  0  0  0  0  0  0  0  0
    3.2690    0.9260    1.9120 O   0  0  0  0  0  0  0  0  0  0  0  0
    3.6790   -0.7590    0.3220 C   0  0  0  0  0  0  0  0  0  0  0  0
    2.8850   -1.7200    0.9170 O   0  0  0  0  0  0  0  0  0  0  0  0
    3.4120   -2.9270    0.6080 N   0  0  0  0  0  0  0  0  0  0  0  0
  2  1  1  6
  2  3  1  0
  2  5  1  0
  2 18  1  0
  3  4  1  0
  5  6  1  0
  6  7  2  0
  6  8  1  0
  8  9  1  0
  9 10  1  1
  9 12  1  0
  9 16  1  0
 10 11  1  0
 12 13  2  0
 12 14  1  0
 14 15  1  0
 15 16  1  0
 16 17  1  1
 18 19  1  1
 18 20  1  0
 20 21  1  0
 21 22  1  0
M  CHG  1   4   1
M  END
