
     RDKit          3D

  7  6  0  0  0  0  0  0  0  0999 V2000
   -1.7760   -0.7190   -0.6800 O   0  0  0  0  0  0  0  0  0  0  0  0
   -1.0280    0.4640   -0.5330 C   0  0  0  0  0  0  0  0  0  0  0  0
    0.0070    0.1840    0.5410 C   0  0  2  0  0  0  0  0  0  0  0  0
   -0.7090   -0.2360    1.6800 O   0  0  0  0  0  0  0  0  0  0  0  0
    0.6710    1.3400    0.8970 O   0  0  0  0  0  0  0  0  0  0  0  0
    0.8810   -0.9040    0.1830 N   0  0  0  0  0  0  0  0  0  0  0  0
    1.7750   -0.6060   -1.2910 S   0  0  0  0  0  0  0  0  0  0  0  0
  1  2  1  0
  2  3  1  0
  3  4  1  1
  3  5  1  0
  3  6  1  0
  6  7  1  0
M  END
