
     RDKit          3D

 27 29  0  0  0  0  0  0  0  0999 V2000
   -4.4750    3.1050    1.3890 O   0  0  0  0  0  0  0  0  0  0  0  0
   -4.8380    3.3680    0.2340 C   0  0  0  0  0  0  0  0  0  0  0  0
   -4.9640    4.7040   -0.1130 O   0  0  0  0  0  0  0  0  0  0  0  0
   -5.1370    2.3490   -0.7730 C   0  0  0  0  0  0  0  0  0  0  0  0
   -4.9640    0.9360   -0.3390 C   0  0  0  0  0  0  0  0  0  0  0  0
   -3.5750    0.5640    0.0940 C   0  0  0  0  0  0  0  0  0  0  0  0
   -3.6030   -0.8330    0.4730 N   0  0  1  0  0  0  0  0  0  0  0  0
   -3.9170   -1.7170   -0.6080 C   0  0  0  0  0  0  0  0  0  0  0  0
   -3.6130   -3.0880   -0.0060 C   0  0  0  0  0  0  0  0  0  0  0  0
   -2.5700   -2.7970    1.0530 C   0  0  0  0  0  0  0  0  0  0  0  0
   -2.3960   -1.2900    1.0770 C   0  0  1  0  0  0  0  0  0  0  0  0
   -1.1650   -0.9780    0.2590 C   0  0  0  0  0  0  0  0  0  0  0  0
    0.0100   -1.4410    0.8820 O   0  0  0  0  0  0  0  0  0  0  0  0
    1.2730   -1.2850    0.3460 C   0  0  0  0  0  0  0  0  0  0  0  0
    2.3520   -1.7810    1.0480 C   0  0  0  0  0  0  0  0  0  0  0  0
    3.6510   -1.6640    0.5770 C   0  0  0  0  0  0  0  0  0  0  0  0
    3.8780   -1.0430   -0.6140 C   0  0  0  0  0  0  0  0  0  0  0  0
    5.2100   -0.9460   -1.0550 O   0  0  0  0  0  0  0  0  0  0  0  0
    6.0030    0.1420   -0.7180 C   0  0  0  0  0  0  0  0  0  0  0  0
    5.9750    1.2190   -1.5890 C   0  0  0  0  0  0  0  0  0  0  0  0
    6.7410    2.3250   -1.3060 C   0  0  0  0  0  0  0  0  0  0  0  0
    7.5300    2.3980   -0.1930 C   0  0  0  0  0  0  0  0  0  0  0  0
    8.5080    3.8190    0.1610 Cl  0  0  0  0  0  0  0  0  0  0  0  0
    7.5460    1.3140    0.6640 C   0  0  0  0  0  0  0  0  0  0  0  0
    6.7880    0.1860    0.4100 C   0  0  0  0  0  0  0  0  0  0  0  0
    2.8340   -0.5400   -1.3360 C   0  0  0  0  0  0  0  0  0  0  0  0
    1.5300   -0.6610   -0.8570 C   0  0  0  0  0  0  0  0  0  0  0  0
  1  2  2  0
  2  3  1  0
  2  4  1  0
  4  5  1  0
  5  6  1  0
  7  6  1  6
  7  8  1  0
  7 11  1  0
  8  9  1  0
  9 10  1  0
 10 11  1  0
 11 12  1  6
 12 13  1  0
 13 14  1  0
 14 15  2  0
 14 27  1  0
 15 16  1  0
 16 17  2  0
 17 18  1  0
 17 26  1  0
 18 19  1  0
 19 20  2  0
 19 25  1  0
 20 21  1  0
 21 22  2  0
 22 23  1  0
 22 24  1  0
 24 25  2  0
 26 27  2  0
M  CHG  1   7   1
M  END
