
     RDKit          3D

 23 24  0  0  0  0  0  0  0  0999 V2000
    3.2360    0.0920   -2.6860 C   0  0  0  0  0  0  0  0  0  0  0  0
    2.9870   -0.7950   -1.6100 O   0  0  0  0  0  0  0  0  0  0  0  0
    3.7760   -0.5730   -0.4540 C   0  0  0  0  0  0  0  0  0  0  0  0
    3.1230   -0.2790    0.6490 C   0  0  0  0  0  0  0  0  0  0  0  0
    1.6490   -0.1910    0.6380 C   0  0  0  0  0  0  0  0  0  0  0  0
    0.9910   -0.4410   -0.5970 N   0  0  0  0  0  0  0  0  0  0  0  0
    0.9330    0.1010    1.6920 C   0  0  0  0  0  0  0  0  0  0  0  0
    1.5290    0.3470    2.8930 O   0  0  0  0  0  0  0  0  0  0  0  0
   -0.5130    0.1680    1.6030 C   0  0  0  0  0  0  0  0  0  0  0  0
   -1.2240    0.4460    2.6020 O   0  0  0  0  0  0  0  0  0  0  0  0
   -1.1970   -0.0720    0.4100 O   0  0  0  0  0  0  0  0  0  0  0  0
   -2.5850   -0.0050    0.3340 C   0  0  2  0  0  0  0  0  0  0  0  0
   -3.2320   -1.3090   -0.0650 C   0  0  0  0  0  0  0  0  0  0  0  0
   -4.7040   -1.1990    0.2700 C   0  0  0  0  0  0  0  0  0  0  0  0
   -5.1310    0.2010    0.5680 C   0  0  0  0  0  0  0  0  0  0  0  0
   -4.5590    1.2340   -0.3410 C   0  0  0  0  0  0  0  0  0  0  0  0
   -3.0870    1.0500   -0.6200 C   0  0  1  0  0  0  0  0  0  0  0  0
   -2.3780    2.2420   -0.5000 O   0  0  0  0  0  0  0  0  0  0  0  0
    3.8790   -0.0590    1.9110 C   0  0  0  0  0  0  0  0  0  0  0  0
    5.2590   -0.1470    1.7070 O   0  0  0  0  0  0  0  0  0  0  0  0
    5.8820   -0.4650    0.5120 C   0  0  0  0  0  0  0  0  0  0  0  0
    7.2800   -0.5510    0.4900 O   0  0  0  0  0  0  0  0  0  0  0  0
    5.2010   -0.6790   -0.5580 N   0  0  0  0  0  0  0  0  0  0  0  0
  1  2  1  0
  2  3  1  0
  3  4  2  0
  3 23  1  0
  4  5  1  0
  4 19  1  0
  5  6  1  0
  5  7  2  3
  7  8  1  0
  7  9  1  0
  9 10  2  0
  9 11  1  0
 12 11  1  6
 12 13  1  0
 12 17  1  0
 13 14  1  0
 14 15  1  0
 15 16  1  0
 16 17  1  0
 17 18  1  1
 19 20  1  0
 20 21  1  0
 21 22  1  0
 21 23  2  0
M  END
