
     RDKit          3D

 24 25  0  0  0  0  0  0  0  0999 V2000
    0.3860   -1.8470   -0.5550 C   0  0  0  0  0  0  0  0  0  0  0  0
   -0.0410   -0.4000   -0.2650 C   0  0  2  0  0  0  0  0  0  0  0  0
    0.2350    0.3090   -1.4070 O   0  0  0  0  0  0  0  0  0  0  0  0
    0.7640    0.0230    0.8200 O   0  0  0  0  0  0  0  0  0  0  0  0
    2.1440    0.0130    0.6220 C   0  0  0  0  0  0  0  0  0  0  0  0
    2.9150   -1.0940    0.9120 C   0  0  0  0  0  0  0  0  0  0  0  0
    4.2800   -1.1020    0.7160 C   0  0  0  0  0  0  0  0  0  0  0  0
    4.9350   -0.0110    0.2240 C   0  0  0  0  0  0  0  0  0  0  0  0
    6.3470   -0.0270    0.0240 N   0  0  0  0  0  0  0  0  0  0  0  0
    6.9120    0.9940   -0.4300 O   0  0  0  0  0  0  0  0  0  0  0  0
    7.1090   -1.1110    0.3060 O   0  0  0  0  0  0  0  0  0  0  0  0
    4.1890    1.1080   -0.0740 C   0  0  0  0  0  0  0  0  0  0  0  0
    2.8110    1.1250    0.1210 C   0  0  0  0  0  0  0  0  0  0  0  0
    2.0940    2.2690   -0.1900 O   0  0  0  0  0  0  0  0  0  0  0  0
   -1.5050   -0.4410    0.0930 C   0  0  1  0  0  0  0  0  0  0  0  0
   -1.6940   -1.3070    1.3100 C   0  0  0  0  0  0  0  0  0  0  0  0
   -2.0260    0.9290    0.3660 C   0  0  0  0  0  0  0  0  0  0  0  0
   -3.4670    1.0220    0.7070 C   0  0  1  0  0  0  0  0  0  0  0  0
   -3.6450    2.2140    1.4500 O   0  0  0  0  0  0  0  0  0  0  0  0
   -4.3530    1.1940   -0.5250 C   0  0  0  0  0  0  0  0  0  0  0  0
   -4.4160   -0.0330   -1.2910 N   0  0  0  0  0  0  0  0  0  0  0  0
   -3.4810   -1.0700   -1.4030 C   0  0  0  0  0  0  0  0  0  0  0  0
   -3.8260   -2.1690   -1.9370 O   0  0  0  0  0  0  0  0  0  0  0  0
   -2.1710   -1.0540   -0.9900 O   0  0  0  0  0  0  0  0  0  0  0  0
  2  1  1  6
  2  3  1  0
  2  4  1  0
  2 15  1  0
  4  5  1  0
  5  6  2  0
  5 13  1  0
  6  7  1  0
  7  8  2  0
  8  9  1  0
  8 12  1  0
  9 10  2  0
  9 11  1  0
 12 13  2  0
 13 14  1  0
 15 16  1  1
 15 17  1  0
 15 24  1  0
 17 18  1  0
 18 19  1  1
 18 20  1  0
 20 21  1  0
 21 22  1  0
 22 23  2  0
 22 24  1  0
M  CHG  2   9   1  11  -1
M  END
