
     RDKit          3D

 24 25  0  0  0  0  0  0  0  0999 V2000
    6.4670   -0.1070    2.2980 C   0  0  0  0  0  0  0  0  0  0  0  0
    5.0610   -0.1670    2.1990 O   0  0  0  0  0  0  0  0  0  0  0  0
    4.5040   -0.3130    0.9420 C   0  0  0  0  0  0  0  0  0  0  0  0
    5.2150   -0.4070   -0.2330 C   0  0  0  0  0  0  0  0  0  0  0  0
    4.5730   -0.5540   -1.4620 C   0  0  0  0  0  0  0  0  0  0  0  0
    5.3730   -0.6430   -2.6190 N   0  0  0  0  0  0  0  0  0  0  0  0
    3.2010   -0.6080   -1.5180 C   0  0  0  0  0  0  0  0  0  0  0  0
    2.5340   -0.7550   -2.7370 O   0  0  0  0  0  0  0  0  0  0  0  0
    2.4810   -0.5160   -0.3630 C   0  0  0  0  0  0  0  0  0  0  0  0
    1.0770   -0.5670   -0.3720 O   0  0  0  0  0  0  0  0  0  0  0  0
    0.3130    0.5840   -0.4940 C   0  0  0  0  0  0  0  0  0  0  0  0
    0.9310    1.6730   -0.5970 O   0  0  0  0  0  0  0  0  0  0  0  0
   -1.0800    0.5690   -0.5060 O   0  0  0  0  0  0  0  0  0  0  0  0
   -1.8410    1.7600   -0.6330 C   0  0  0  0  0  0  0  0  0  0  0  0
   -3.3110    1.3160   -0.6020 C   0  0  0  0  0  0  0  0  0  0  0  0
   -3.5330    0.6270    0.7200 C   0  0  0  0  0  0  0  0  0  0  0  0
   -4.9560    0.1910    0.8150 C   0  0  2  0  0  0  0  0  0  0  0  0
   -5.2470   -0.4970    2.1010 C   0  0  0  0  0  0  0  0  0  0  0  0
   -4.8650   -0.0850    3.2230 O   0  0  0  0  0  0  0  0  0  0  0  0
   -5.9880   -1.6210    1.7740 O   0  0  0  0  0  0  0  0  0  0  0  0
   -6.3850   -1.5160    0.4190 C   0  0  0  0  0  0  0  0  0  0  0  0
   -5.2230   -0.8260   -0.1670 N   0  0  1  0  0  0  0  0  0  0  0  0
   -5.5750   -0.2930   -1.3680 O   0  0  0  0  0  0  0  0  0  0  0  0
    3.1320   -0.3710    0.8460 C   0  0  0  0  0  0  0  0  0  0  0  0
  1  2  1  0
  2  3  1  0
  3  4  2  0
  3 24  1  0
  4  5  1  0
  5  6  1  0
  5  7  2  0
  7  8  1  0
  7  9  1  0
  9 10  1  0
  9 24  2  0
 10 11  1  0
 11 12  2  0
 11 13  1  0
 13 14  1  0
 14 15  1  0
 15 16  1  0
 17 16  1  1
 17 18  1  0
 17 22  1  0
 18 19  2  0
 18 20  1  0
 20 21  1  0
 21 22  1  0
 22 23  1  6
M  CHG  2  22   1  23  -1
M  END
