
     RDKit          3D

 24 25  0  0  0  0  0  0  0  0999 V2000
   -5.8830   -0.6540    0.3210 N   0  0  0  0  0  0  0  0  0  0  0  0
   -4.9390   -0.0860   -0.6270 C   0  0  0  0  0  0  0  0  0  0  0  0
   -3.5470   -0.5470   -0.3400 C   0  0  0  0  0  0  0  0  0  0  0  0
   -2.5470    0.2450   -0.0540 C   0  0  0  0  0  0  0  0  0  0  0  0
   -2.6790    1.7070    0.0100 C   0  0  0  0  0  0  0  0  0  0  0  0
   -1.6120    2.4380    0.2880 C   0  0  0  0  0  0  0  0  0  0  0  0
   -0.3560    1.8800    0.5260 O   0  0  0  0  0  0  0  0  0  0  0  0
   -0.1500    0.5100    0.4870 C   0  0  0  0  0  0  0  0  0  0  0  0
   -1.2050   -0.2530    0.2110 C   0  0  0  0  0  0  0  0  0  0  0  0
   -1.1440   -1.7080    0.2280 C   0  0  0  0  0  0  0  0  0  0  0  0
   -2.1670   -2.2720    0.6980 O   0  0  0  0  0  0  0  0  0  0  0  0
   -0.0460   -2.5010   -0.2290 N   0  0  0  0  0  0  0  0  0  0  0  0
    1.3130   -2.1070   -0.3530 C   0  0  0  0  0  0  0  0  0  0  0  0
    2.1300   -2.9340   -0.8370 O   0  0  0  0  0  0  0  0  0  0  0  0
    1.7990   -0.8500    0.0310 O   0  0  0  0  0  0  0  0  0  0  0  0
    1.2650    0.2130    0.7730 C   0  0  1  0  0  0  0  0  0  0  0  0
    2.1580    1.4120    0.5530 C   0  0  0  0  0  0  0  0  0  0  0  0
    3.5530    0.9940    0.8720 C   0  0  0  0  0  0  0  0  0  0  0  0
    3.9650    0.9300    2.0730 O   0  0  0  0  0  0  0  0  0  0  0  0
    4.4690    0.6540   -0.1060 O   0  0  0  0  0  0  0  0  0  0  0  0
    5.8060    0.2550    0.2370 C   0  0  0  0  0  0  0  0  0  0  0  0
    6.5820   -0.0530   -0.9710 C   0  0  0  0  0  0  0  0  0  0  0  0
    7.7700   -0.4190   -0.8370 O   0  0  0  0  0  0  0  0  0  0  0  0
    5.9660    0.0740   -2.2200 O   0  0  0  0  0  0  0  0  0  0  0  0
  1  2  1  0
  2  3  1  0
  3  4  2  3
  4  5  1  0
  4  9  1  0
  5  6  2  0
  6  7  1  0
  7  8  1  0
  8  9  2  0
  8 16  1  0
  9 10  1  0
 10 11  2  0
 10 12  1  0
 12 13  1  0
 13 14  2  0
 13 15  1  0
 15 16  1  0
 16 17  1  6
 17 18  1  0
 18 19  2  0
 18 20  1  0
 20 21  1  0
 21 22  1  0
 22 23  2  0
 22 24  1  0
M  CHG  2   1   1  24  -1
M  END
