
     RDKit          3D

 23 25  0  0  0  0  0  0  0  0999 V2000
    5.3790    1.2070   -1.6550 N   0  0  0  0  0  0  0  0  0  0  0  0
    3.9840    0.8020   -1.6280 C   0  0  0  0  0  0  0  0  0  0  0  0
    3.4280    1.2580   -0.3000 C   0  0  0  0  0  0  0  0  0  0  0  0
    2.0890    0.9430   -0.1160 O   0  0  0  0  0  0  0  0  0  0  0  0
    1.5270   -0.2930   -0.1110 C   0  0  0  0  0  0  0  0  0  0  0  0
    2.3680   -1.2460   -0.3010 O   0  0  0  0  0  0  0  0  0  0  0  0
    0.1440   -0.6760    0.0700 C   0  0  0  0  0  0  0  0  0  0  0  0
   -0.1610   -1.9920   -0.0060 C   0  0  0  0  0  0  0  0  0  0  0  0
    0.6130   -3.1050   -0.2180 O   0  0  0  0  0  0  0  0  0  0  0  0
   -0.1130   -4.2810    0.1070 C   0  0  0  0  0  0  0  0  0  0  0  0
   -1.4520   -3.8480    0.0120 O   0  0  0  0  0  0  0  0  0  0  0  0
   -1.5260   -2.4360    0.1220 C   0  0  0  0  0  0  0  0  0  0  0  0
   -2.5090   -1.6040    0.2980 C   0  0  0  0  0  0  0  0  0  0  0  0
   -3.8900   -2.2000    0.4290 C   0  0  0  0  0  0  0  0  0  0  0  0
   -3.8410   -3.5680    0.3330 O   0  0  0  0  0  0  0  0  0  0  0  0
   -2.3170   -0.1410    0.2790 C   0  0  2  0  0  0  0  0  0  0  0  0
   -2.9000    0.4560   -0.9130 N   0  0  0  0  0  0  0  0  0  0  0  0
   -0.9070    0.2510    0.4500 C   0  0  0  0  0  0  0  0  0  0  0  0
   -0.6610    1.4190    0.9980 C   0  0  0  0  0  0  0  0  0  0  0  0
   -1.6840    2.4370    1.4170 C   0  0  0  0  0  0  0  0  0  0  0  0
   -0.9460    3.4230    2.0070 O   0  0  0  0  0  0  0  0  0  0  0  0
    0.2910    3.3940    1.3700 C   0  0  0  0  0  0  0  0  0  0  0  0
    0.5390    1.9920    1.3230 O   0  0  0  0  0  0  0  0  0  0  0  0
  1  2  1  0
  2  3  1  0
  3  4  1  0
  4  5  1  0
  5  6  2  0
  5  7  1  0
  7  8  2  0
  7 18  1  0
  8  9  1  0
  8 12  1  0
  9 10  1  0
 10 11  1  0
 11 12  1  0
 12 13  2  0
 13 14  1  0
 13 16  1  0
 14 15  1  0
 16 17  1  6
 16 18  1  0
 18 19  2  3
 19 20  1  0
 19 23  1  0
 20 21  1  0
 21 22  1  0
 22 23  1  0
M  CHG  2  15  -1  17   1
M  END
