
     RDKit          3D

 27 28  0  0  0  0  0  0  0  0999 V2000
   -1.0550   -0.6050   -3.0930 O   0  0  0  0  0  0  0  0  0  0  0  0
   -0.9040    0.5340   -2.5120 C   0  0  0  0  0  0  0  0  0  0  0  0
    0.5250    0.8950   -2.3090 C   0  0  0  0  0  0  0  0  0  0  0  0
    1.3200    0.0600   -1.6960 O   0  0  0  0  0  0  0  0  0  0  0  0
    1.4190   -0.4020   -0.4980 C   0  0  2  0  0  0  0  0  0  0  0  0
    2.9390   -0.7250   -0.3400 C   0  0  0  0  0  0  0  0  0  0  0  0
    3.6520    0.4600   -0.5220 O   0  0  0  0  0  0  0  0  0  0  0  0
    4.9330    0.2960   -0.4090 O   0  0  0  0  0  0  0  0  0  0  0  0
    5.2970   -0.2030    0.7430 O   0  0  0  0  0  0  0  0  0  0  0  0
    4.7660    0.5160    1.7070 O   0  0  0  0  0  0  0  0  0  0  0  0
    0.7460   -1.7720   -0.3140 C   0  0  0  0  0  0  0  0  0  0  0  0
   -0.2280   -1.7630    0.6480 O   0  0  0  0  0  0  0  0  0  0  0  0
   -1.3050   -2.5740    0.3050 C   0  0  0  0  0  0  0  0  0  0  0  0
   -2.5310   -2.3260    1.1200 C   0  0  0  0  0  0  0  0  0  0  0  0
   -3.2420   -1.1900    0.7760 O   0  0  0  0  0  0  0  0  0  0  0  0
   -2.3600   -0.1870    0.4170 C   0  0  0  0  0  0  0  0  0  0  0  0
   -2.9730    1.1380    0.1740 C   0  0  1  0  0  0  0  0  0  0  0  0
   -2.6290    2.0770    1.1700 O   0  0  0  0  0  0  0  0  0  0  0  0
   -1.3650    2.3490    1.6460 C   0  0  0  0  0  0  0  0  0  0  0  0
   -1.2340    2.4070    2.9170 O   0  0  0  0  0  0  0  0  0  0  0  0
   -0.1560    2.5800    0.8370 C   0  0  0  0  0  0  0  0  0  0  0  0
    0.8430    1.6710    0.8900 O   0  0  0  0  0  0  0  0  0  0  0  0
    1.1650    0.4040    0.7220 C   0  0  0  0  0  0  0  0  0  0  0  0
    1.3070   -0.3520    1.7700 O   0  0  0  0  0  0  0  0  0  0  0  0
   -2.6120    1.7550   -1.1410 C   0  0  0  0  0  0  0  0  0  0  0  0
   -2.9590    2.9930   -1.2160 O   0  0  0  0  0  0  0  0  0  0  0  0
   -2.0080    1.2050   -2.1880 O   0  0  0  0  0  0  0  0  0  0  0  0
  1  2  2  0
  2  3  1  0
  2 27  1  0
  3  4  1  0
  4  5  1  0
  5  6  1  1
  5 11  1  0
  5 23  1  0
  6  7  1  0
  7  8  1  0
  8  9  1  0
  9 10  1  0
 11 12  1  0
 12 13  1  0
 13 14  1  0
 14 15  1  0
 15 16  1  0
 17 16  1  1
 17 18  1  0
 17 25  1  0
 18 19  1  0
 19 20  2  0
 19 21  1  0
 21 22  1  0
 22 23  1  0
 23 24  2  0
 25 26  2  0
 25 27  1  0
M  END
