
     RDKit          3D

 27 29  0  0  0  0  0  0  0  0999 V2000
    1.3690   -3.7180   -2.2610 O   0  0  0  0  0  0  0  0  0  0  0  0
    1.3190   -2.5460   -1.7960 C   0  0  0  0  0  0  0  0  0  0  0  0
    0.9120   -2.2230   -0.3880 C   0  0  0  0  0  0  0  0  0  0  0  0
    0.5440   -0.7810   -0.4330 C   0  0  2  0  0  0  0  0  0  0  0  0
    1.0630   -0.1130    0.7860 C   0  0  0  0  0  0  0  0  0  0  0  0
    2.3640   -0.2840    1.0430 O   0  0  0  0  0  0  0  0  0  0  0  0
    3.3640    0.0860    0.2380 C   0  0  0  0  0  0  0  0  0  0  0  0
    4.7470   -0.1960    0.9000 C   0  0  0  0  0  0  0  0  0  0  0  0
    4.8510   -1.5540    1.1570 O   0  0  0  0  0  0  0  0  0  0  0  0
    5.9960   -1.8660    1.7170 O   0  0  0  0  0  0  0  0  0  0  0  0
    6.6220   -0.7990    2.1770 O   0  0  0  0  0  0  0  0  0  0  0  0
    7.7110   -0.5290    1.5050 O   0  0  0  0  0  0  0  0  0  0  0  0
   -0.8810   -0.6420   -0.5340 O   0  0  0  0  0  0  0  0  0  0  0  0
   -1.5560    0.5560   -0.6100 C   0  0  0  0  0  0  0  0  0  0  0  0
   -0.8800    1.6130   -0.5950 O   0  0  0  0  0  0  0  0  0  0  0  0
   -3.0230    0.6760   -0.7090 C   0  0  1  0  0  0  0  0  0  0  0  0
   -3.5930   -0.6190   -0.7120 O   0  0  0  0  0  0  0  0  0  0  0  0
   -4.4530   -0.6860    0.3550 C   0  0  1  0  0  0  0  0  0  0  0  0
   -4.5060   -1.9280    0.9640 O   0  0  0  0  0  0  0  0  0  0  0  0
   -4.0150    0.2970    1.2700 O   0  0  0  0  0  0  0  0  0  0  0  0
   -3.7010    1.3260    0.4100 C   0  0  2  0  0  0  0  0  0  0  0  0
   -5.0060    1.9600   -0.0900 C   0  0  0  0  0  0  0  0  0  0  0  0
   -4.7820    3.3100    0.2440 O   0  0  0  0  0  0  0  0  0  0  0  0
   -4.1330    3.2990    1.3910 O   0  0  0  0  0  0  0  0  0  0  0  0
   -3.0290    2.4800    1.0500 C   0  0  0  0  0  0  0  0  0  0  0  0
    1.1010   -0.2900   -1.7330 C   0  0  0  0  0  0  0  0  0  0  0  0
    1.6170   -1.3740   -2.4620 O   0  0  0  0  0  0  0  0  0  0  0  0
  1  2  2  0
  2  3  1  0
  2 27  1  0
  3  4  1  0
  4  5  1  1
  4 13  1  0
  4 26  1  0
  5  6  1  0
  6  7  1  0
  7  8  1  0
  8  9  1  0
  9 10  1  0
 10 11  1  0
 11 12  1  0
 13 14  1  0
 14 15  2  0
 16 14  1  1
 16 17  1  0
 16 21  1  0
 17 18  1  0
 18 19  1  1
 18 20  1  0
 20 21  1  0
 21 22  1  6
 21 25  1  0
 22 23  1  0
 23 24  1  0
 24 25  1  0
 26 27  1  0
M  END
