
     RDKit          3D

 27 28  0  0  0  0  0  0  0  0999 V2000
   -2.8350    2.7340    2.2000 C   0  0  0  0  0  0  0  0  0  0  0  0
   -2.3230    1.5750    1.5800 O   0  0  0  0  0  0  0  0  0  0  0  0
   -2.8360    0.3430    1.8800 C   0  0  0  0  0  0  0  0  0  0  0  0
   -3.7930    0.3680    2.7500 O   0  0  0  0  0  0  0  0  0  0  0  0
   -2.4540   -0.9670    1.3620 C   0  0  0  0  0  0  0  0  0  0  0  0
   -1.5600   -1.1340    0.4150 O   0  0  0  0  0  0  0  0  0  0  0  0
   -1.5570   -0.7820   -0.8410 C   0  0  2  0  0  0  0  0  0  0  0  0
   -1.6250    0.6490   -1.2680 C   0  0  0  0  0  0  0  0  0  0  0  0
   -3.0190    0.8920   -1.2930 O   0  0  0  0  0  0  0  0  0  0  0  0
   -3.7030   -0.3030   -1.5470 C   0  0  0  0  0  0  0  0  0  0  0  0
   -4.9530   -0.3610   -1.6040 O   0  0  0  0  0  0  0  0  0  0  0  0
   -2.6730   -1.3490   -1.7110 C   0  0  1  0  0  0  0  0  0  0  0  0
   -2.1060   -1.2400   -3.0060 O   0  0  0  0  0  0  0  0  0  0  0  0
   -0.7240   -1.2790   -2.9370 C   0  0  0  0  0  0  0  0  0  0  0  0
    0.0290   -1.1450   -3.9250 O   0  0  0  0  0  0  0  0  0  0  0  0
   -0.3750   -1.4970   -1.5460 C   0  0  1  0  0  0  0  0  0  0  0  0
    0.8490   -1.0060   -1.1300 O   0  0  0  0  0  0  0  0  0  0  0  0
    1.8350   -1.7120   -0.4850 C   0  0  0  0  0  0  0  0  0  0  0  0
    1.6050   -2.9210   -0.2480 O   0  0  0  0  0  0  0  0  0  0  0  0
    3.1390   -1.1310   -0.0590 C   0  0  1  0  0  0  0  0  0  0  0  0
    4.2720   -1.9170   -0.7200 C   0  0  0  0  0  0  0  0  0  0  0  0
    3.2480    0.2260   -0.3930 O   0  0  0  0  0  0  0  0  0  0  0  0
    3.5030    1.1940    0.5470 C   0  0  0  0  0  0  0  0  0  0  0  0
    3.6450    0.8390    1.7620 O   0  0  0  0  0  0  0  0  0  0  0  0
    3.6190    2.5430    0.2660 O   0  0  0  0  0  0  0  0  0  0  0  0
    3.8700    3.4080    1.2560 O   0  0  0  0  0  0  0  0  0  0  0  0
    5.1460    3.7200    1.3110 O   0  0  0  0  0  0  0  0  0  0  0  0
  1  2  1  0
  2  3  1  0
  3  4  2  0
  3  5  1  0
  5  6  1  0
  7  6  1  1
  7  8  1  0
  7 12  1  0
  7 16  1  0
  8  9  1  0
  9 10  1  0
 10 11  2  0
 10 12  1  0
 12 13  1  6
 13 14  1  0
 14 15  2  0
 14 16  1  0
 16 17  1  1
 17 18  1  0
 18 19  2  0
 18 20  1  0
 20 21  1  6
 20 22  1  0
 22 23  1  0
 23 24  2  0
 23 25  1  0
 25 26  1  0
 26 27  1  0
M  END
