
     RDKit          3D

 10  9  0  0  0  0  0  0  0  0999 V2000
    1.2170   -1.7870    0.4070 C   0  0  0  0  0  0  0  0  0  0  0  0
    0.7240   -0.4130   -0.0540 C   0  0  1  0  0  0  0  0  0  0  0  0
   -0.1600    0.1560    0.8030 O   0  0  0  0  0  0  0  0  0  0  0  0
   -1.5720    0.5350    0.3460 P   0  0  0  0  0  0  0  0  0  0  0  0
   -2.9880    0.9940   -0.0290 O   0  0  0  0  0  0  0  0  0  0  0  0
   -1.8930   -1.0510    0.0460 O   0  0  0  0  0  0  0  0  0  0  0  0
   -0.9290    1.4380   -0.8780 O   0  0  0  0  0  0  0  0  0  0  0  0
    1.9330    0.4460   -0.1130 C   0  0  0  0  0  0  0  0  0  0  0  0
    2.9230    0.1590   -0.8350 O   0  0  0  0  0  0  0  0  0  0  0  0
    2.0200    1.6090    0.6330 O   0  0  0  0  0  0  0  0  0  0  0  0
  2  1  1  1
  2  3  1  0
  2  8  1  0
  3  4  1  0
  4  5  1  0
  4  6  1  0
  4  7  1  0
  8  9  2  0
  8 10  1  0
M  END
