
     RDKit          3D

 24 24  0  0  0  0  0  0  0  0999 V2000
    3.5380   -3.0170   -0.2160 C   0  0  0  0  0  0  0  0  0  0  0  0
    3.9910   -1.5800   -0.4730 C   0  0  0  0  0  0  0  0  0  0  0  0
    3.2140   -0.7330    0.2840 O   0  0  0  0  0  0  0  0  0  0  0  0
    3.7230    0.8960   -0.0030 P   0  0  0  0  0  0  0  0  0  0  0  0
    2.3710    2.0920    0.4110 C   0  0  0  0  0  0  0  0  0  0  0  0
    1.0870    1.3550    0.3630 C   0  0  0  0  0  0  0  0  0  0  0  0
    0.6390    0.7520    1.5200 C   0  0  0  0  0  0  0  0  0  0  0  0
   -0.5290    0.0540    1.5700 C   0  0  0  0  0  0  0  0  0  0  0  0
   -1.3410   -0.0910    0.4550 C   0  0  0  0  0  0  0  0  0  0  0  0
   -2.5360   -0.8290    0.5860 N   0  0  0  0  0  0  0  0  0  0  0  0
   -3.4920   -1.0940   -0.3990 C   0  0  0  0  0  0  0  0  0  0  0  0
   -3.3380   -0.6500   -1.5860 O   0  0  0  0  0  0  0  0  0  0  0  0
   -4.6860   -1.8670   -0.1440 C   0  0  1  0  0  0  0  0  0  0  0  0
   -4.3140   -2.7460    1.0170 N   0  0  0  0  0  0  0  0  0  0  0  0
   -5.9450   -1.2320    0.2610 C   0  0  0  0  0  0  0  0  0  0  0  0
   -6.5750   -0.2630   -0.5420 N   0  0  0  0  0  0  0  0  0  0  0  0
   -6.0930    1.0250   -0.8560 C   0  0  0  0  0  0  0  0  0  0  0  0
   -5.0190    1.4070   -0.3950 O   0  0  0  0  0  0  0  0  0  0  0  0
   -6.8090    1.8860   -1.6840 O   0  0  0  0  0  0  0  0  0  0  0  0
   -0.9160    0.4980   -0.7030 C   0  0  0  0  0  0  0  0  0  0  0  0
    0.2890    1.2130   -0.7370 C   0  0  0  0  0  0  0  0  0  0  0  0
    5.2110    1.2720    0.7310 O   0  0  0  0  0  0  0  0  0  0  0  0
    6.0030    2.1340   -0.0250 C   0  0  0  0  0  0  0  0  0  0  0  0
    7.3060    2.4470    0.6470 C   0  0  0  0  0  0  0  0  0  0  0  0
  1  2  1  0
  2  3  1  0
  3  4  1  0
  4  5  1  0
  4 22  1  0
  5  6  1  0
  6  7  2  0
  6 21  1  0
  7  8  1  0
  8  9  2  0
  9 10  1  0
  9 20  1  0
 10 11  1  0
 11 12  2  0
 11 13  1  0
 13 14  1  1
 13 15  1  0
 15 16  1  0
 16 17  1  0
 17 18  2  0
 17 19  1  0
 20 21  2  0
 22 23  1  0
 23 24  1  0
M  END
