
     RDKit          3D

 27 27  0  0  0  0  0  0  0  0999 V2000
    2.6340    0.9510   -0.7200 O   0  0  0  0  0  0  0  0  0  0  0  0
    2.8910    0.0070    0.0680 C   0  0  0  0  0  0  0  0  0  0  0  0
    1.7970   -0.8720    0.4950 C   0  0  0  0  0  0  0  0  0  0  0  0
    0.5690   -0.4810   -0.0890 O   0  0  0  0  0  0  0  0  0  0  0  0
   -0.5660   -1.1900    0.1970 C   0  0  0  0  0  0  0  0  0  0  0  0
   -0.4850   -2.1680    0.9710 O   0  0  0  0  0  0  0  0  0  0  0  0
   -1.9090   -0.8630   -0.3640 C   0  0  1  0  0  0  0  0  0  0  0  0
   -2.8200   -1.8090    0.1480 O   0  0  0  0  0  0  0  0  0  0  0  0
   -3.4500   -2.7230   -0.6830 C   0  0  0  0  0  0  0  0  0  0  0  0
   -3.2480   -2.7720   -1.9300 O   0  0  0  0  0  0  0  0  0  0  0  0
   -4.4240   -3.7270   -0.1490 C   0  0  0  0  0  0  0  0  0  0  0  0
   -4.5220   -3.5310    1.2200 O   0  0  0  0  0  0  0  0  0  0  0  0
   -5.3770   -4.4060    1.7190 O   0  0  0  0  0  0  0  0  0  0  0  0
   -2.3600    0.5110    0.0420 C   0  0  1  0  0  0  0  0  0  0  0  0
   -1.3640    1.5100   -0.4720 C   0  0  0  0  0  0  0  0  0  0  0  0
   -1.7970    2.7700   -0.6820 O   0  0  0  0  0  0  0  0  0  0  0  0
   -2.5760    3.3330    0.3070 C   0  0  0  0  0  0  0  0  0  0  0  0
   -4.0570    3.2430   -0.0140 C   0  0  0  0  0  0  0  0  0  0  0  0
   -4.2870    2.0440   -0.7460 O   0  0  0  0  0  0  0  0  0  0  0  0
   -3.6740    0.7930   -0.5610 C   0  0  0  0  0  0  0  0  0  0  0  0
   -4.4110   -0.1260   -0.9900 O   0  0  0  0  0  0  0  0  0  0  0  0
    4.2030   -0.1330    0.4780 O   0  0  0  0  0  0  0  0  0  0  0  0
    5.2340    0.7360    0.0440 C   0  0  0  0  0  0  0  0  0  0  0  0
    6.5140    0.2650    0.7030 C   0  0  0  0  0  0  0  0  0  0  0  0
    7.5700    1.0730    0.3220 O   0  0  0  0  0  0  0  0  0  0  0  0
    8.6830    0.6930    0.8710 O   0  0  0  0  0  0  0  0  0  0  0  0
    9.5850    1.6510    0.7530 O   0  0  0  0  0  0  0  0  0  0  0  0
  1  2  2  0
  2  3  1  0
  2 22  1  0
  3  4  1  0
  4  5  1  0
  5  6  2  0
  5  7  1  0
  7  8  1  1
  7 14  1  0
  8  9  1  0
  9 10  2  0
  9 11  1  0
 11 12  1  0
 12 13  1  0
 14 15  1  6
 14 20  1  0
 15 16  1  0
 16 17  1  0
 17 18  1  0
 18 19  1  0
 19 20  1  0
 20 21  2  0
 22 23  1  0
 23 24  1  0
 24 25  1  0
 25 26  1  0
 26 27  1  0
M  END
