
     RDKit          3D

 27 27  0  0  0  0  0  0  0  0999 V2000
    5.8710   -0.5320    2.1110 O   0  0  0  0  0  0  0  0  0  0  0  0
    6.9780   -0.3480    1.6130 C   0  0  0  0  0  0  0  0  0  0  0  0
    8.1340   -0.5430    2.4140 O   0  0  0  0  0  0  0  0  0  0  0  0
    7.1050    0.0530    0.2990 O   0  0  0  0  0  0  0  0  0  0  0  0
    6.2040    0.3140   -0.6530 C   0  0  0  0  0  0  0  0  0  0  0  0
    5.2630   -0.6380   -1.2530 C   0  0  0  0  0  0  0  0  0  0  0  0
    4.3510   -1.1500   -0.2330 O   0  0  0  0  0  0  0  0  0  0  0  0
    3.1140   -1.5810   -0.7020 C   0  0  0  0  0  0  0  0  0  0  0  0
    2.9370   -1.4070   -1.9880 O   0  0  0  0  0  0  0  0  0  0  0  0
    2.0520   -2.1670    0.0820 C   0  0  0  0  0  0  0  0  0  0  0  0
    0.7900   -1.6120   -0.3910 O   0  0  0  0  0  0  0  0  0  0  0  0
    0.4770   -0.2990    0.1010 C   0  0  0  0  0  0  0  0  0  0  0  0
    1.2970    0.1150    0.9380 O   0  0  0  0  0  0  0  0  0  0  0  0
   -0.7050    0.3730   -0.4050 C   0  0  2  0  0  0  0  0  0  0  0  0
   -0.8550    0.0120   -1.7760 O   0  0  0  0  0  0  0  0  0  0  0  0
   -0.4890    1.9210   -0.3920 C   0  0  0  0  0  0  0  0  0  0  0  0
   -1.4180    2.4200   -1.2600 O   0  0  0  0  0  0  0  0  0  0  0  0
   -2.2560    1.4770   -1.6780 O   0  0  0  0  0  0  0  0  0  0  0  0
   -3.0540    1.1340   -0.4620 C   0  0  1  0  0  0  0  0  0  0  0  0
   -4.1540    0.3150   -1.0430 C   0  0  0  0  0  0  0  0  0  0  0  0
   -5.2560   -0.1040   -0.2500 C   0  0  0  0  0  0  0  0  0  0  0  0
   -5.2980   -0.8750    1.0170 C   0  0  0  0  0  0  0  0  0  0  0  0
   -6.7330   -1.0970    1.1290 O   0  0  0  0  0  0  0  0  0  0  0  0
   -7.1630   -0.5800    2.2610 O   0  0  0  0  0  0  0  0  0  0  0  0
   -6.9540    0.7660    2.1760 O   0  0  0  0  0  0  0  0  0  0  0  0
   -2.0190    0.1560    0.1850 C   0  0  0  0  0  0  0  0  0  0  0  0
   -2.3770   -0.5770    0.9760 O   0  0  0  0  0  0  0  0  0  0  0  0
  1  2  2  0
  2  3  1  0
  2  4  1  0
  4  5  1  0
  5  6  1  0
  6  7  1  0
  7  8  1  0
  8  9  2  0
  8 10  1  0
 10 11  1  0
 11 12  1  0
 12 13  2  0
 12 14  1  0
 14 15  1  6
 14 16  1  0
 14 26  1  0
 16 17  1  0
 17 18  1  0
 18 19  1  0
 19 20  1  6
 19 26  1  0
 20 21  1  0
 21 22  1  0
 22 23  1  0
 23 24  1  0
 24 25  1  0
 26 27  2  0
M  END
