
     RDKit          3D

 27 28  0  0  0  0  0  0  0  0999 V2000
   -0.4360    0.0010    0.5730 O   0  0  0  0  0  0  0  0  0  0  0  0
   -1.3400   -0.8390    0.3760 C   0  0  0  0  0  0  0  0  0  0  0  0
   -0.9990   -2.2640    0.2670 C   0  0  0  0  0  0  0  0  0  0  0  0
    0.4050   -2.4480    0.4120 O   0  0  0  0  0  0  0  0  0  0  0  0
    1.3240   -1.8750   -0.4350 C   0  0  0  0  0  0  0  0  0  0  0  0
    0.8990   -1.1590   -1.3770 O   0  0  0  0  0  0  0  0  0  0  0  0
    2.7780   -2.0830   -0.2580 C   0  0  0  0  0  0  0  0  0  0  0  0
    3.3930   -2.8340    0.7190 C   0  0  0  0  0  0  0  0  0  0  0  0
    4.7480   -2.7420    0.4940 C   0  0  0  0  0  0  0  0  0  0  0  0
    4.9120   -1.9450   -0.6030 C   0  0  0  0  0  0  0  0  0  0  0  0
    6.2100   -1.5850   -1.1880 C   0  0  0  0  0  0  0  0  0  0  0  0
    7.2770   -2.0140   -0.6840 O   0  0  0  0  0  0  0  0  0  0  0  0
    6.2640   -0.7650   -2.3070 O   0  0  0  0  0  0  0  0  0  0  0  0
    7.4810   -0.4690   -2.7990 O   0  0  0  0  0  0  0  0  0  0  0  0
    7.4640    0.7870   -3.2080 O   0  0  0  0  0  0  0  0  0  0  0  0
    3.7220   -1.5790   -1.0140 O   0  0  0  0  0  0  0  0  0  0  0  0
   -2.6720   -0.4400    0.2570 O   0  0  0  0  0  0  0  0  0  0  0  0
   -2.9940    0.8950    0.3580 C   0  0  0  0  0  0  0  0  0  0  0  0
   -2.0770    1.7320    0.5580 O   0  0  0  0  0  0  0  0  0  0  0  0
   -4.4180    1.3660    0.2350 C   0  0  1  0  0  0  0  0  0  0  0  0
   -5.2510    0.2760    0.0180 O   0  0  0  0  0  0  0  0  0  0  0  0
   -4.7480    2.0890    1.5200 C   0  0  0  0  0  0  0  0  0  0  0  0
   -3.9010    3.1810    1.6340 O   0  0  0  0  0  0  0  0  0  0  0  0
   -4.2270    4.1990    0.7420 C   0  0  0  0  0  0  0  0  0  0  0  0
   -4.6390    3.6860   -0.5130 O   0  0  0  0  0  0  0  0  0  0  0  0
   -4.4700    2.3580   -0.8630 C   0  0  0  0  0  0  0  0  0  0  0  0
   -4.3640    1.9980   -2.0380 O   0  0  0  0  0  0  0  0  0  0  0  0
  1  2  2  0
  2  3  1  0
  2 17  1  0
  3  4  1  0
  4  5  1  0
  5  6  2  0
  5  7  1  0
  7  8  2  0
  7 16  1  0
  8  9  1  0
  9 10  2  0
 10 11  1  0
 10 16  1  0
 11 12  2  0
 11 13  1  0
 13 14  1  0
 14 15  1  0
 17 18  1  0
 18 19  2  0
 18 20  1  0
 20 21  1  6
 20 22  1  0
 20 26  1  0
 22 23  1  0
 23 24  1  0
 24 25  1  0
 25 26  1  0
 26 27  2  0
M  END
