
     RDKit          3D

 27 28  0  0  0  0  0  0  0  0999 V2000
    4.5910   -1.0160   -2.5960 O   0  0  0  0  0  0  0  0  0  0  0  0
    4.1030   -1.5890   -1.5850 C   0  0  0  0  0  0  0  0  0  0  0  0
    3.3060   -0.8540   -0.7230 O   0  0  0  0  0  0  0  0  0  0  0  0
    3.0030    0.4960   -0.9000 C   0  0  0  0  0  0  0  0  0  0  0  0
    2.1100    1.0090    0.2150 C   0  0  1  0  0  0  0  0  0  0  0  0
    0.7280    0.3880    0.1720 C   0  0  1  0  0  0  0  0  0  0  0  0
    0.8580   -1.0880    0.3670 C   0  0  0  0  0  0  0  0  0  0  0  0
    0.8680   -1.8230   -0.8370 O   0  0  0  0  0  0  0  0  0  0  0  0
    0.4440   -3.1340   -0.9590 C   0  0  0  0  0  0  0  0  0  0  0  0
    1.1380   -4.0490   -1.4980 O   0  0  0  0  0  0  0  0  0  0  0  0
   -0.8970   -3.4920   -0.4310 C   0  0  0  0  0  0  0  0  0  0  0  0
   -1.8420   -2.8800   -1.2490 O   0  0  0  0  0  0  0  0  0  0  0  0
   -2.7210   -2.1280   -0.4980 C   0  0  0  0  0  0  0  0  0  0  0  0
   -2.8430   -0.8240   -0.9540 O   0  0  0  0  0  0  0  0  0  0  0  0
   -1.9680   -0.0050   -0.4100 O   0  0  0  0  0  0  0  0  0  0  0  0
   -2.3430    0.3510    0.8820 C   0  0  2  0  0  0  0  0  0  0  0  0
   -3.1700    1.6350    0.8440 C   0  0  0  0  0  0  0  0  0  0  0  0
   -4.3210    1.4640    0.0800 O   0  0  0  0  0  0  0  0  0  0  0  0
   -4.9850    2.5850    0.0820 O   0  0  0  0  0  0  0  0  0  0  0  0
   -6.3020    2.3850    0.0850 O   0  0  0  0  0  0  0  0  0  0  0  0
   -1.1760    0.6460    1.7530 C   0  0  0  0  0  0  0  0  0  0  0  0
   -1.4040    0.4910    2.9760 O   0  0  0  0  0  0  0  0  0  0  0  0
   -0.0370    1.0350    1.1440 O   0  0  0  0  0  0  0  0  0  0  0  0
    2.7220    0.8630    1.4340 O   0  0  0  0  0  0  0  0  0  0  0  0
    3.0770    2.0850    1.9390 C   0  0  0  0  0  0  0  0  0  0  0  0
    3.0820    2.9510    0.6750 C   0  0  0  0  0  0  0  0  0  0  0  0
    2.0210    2.4050   -0.0140 O   0  0  0  0  0  0  0  0  0  0  0  0
  1  2  2  0
  2  3  1  0
  3  4  1  0
  5  4  1  6
  5  6  1  0
  5 24  1  0
  5 27  1  0
  6  7  1  1
  6 23  1  0
  7  8  1  0
  8  9  1  0
  9 10  2  0
  9 11  1  0
 11 12  1  0
 12 13  1  0
 13 14  1  0
 14 15  1  0
 15 16  1  0
 16 17  1  6
 16 21  1  0
 17 18  1  0
 18 19  1  0
 19 20  1  0
 21 22  2  0
 21 23  1  0
 24 25  1  0
 25 26  1  0
 26 27  1  0
M  END
