
     RDKit          3D

 27 28  0  0  0  0  0  0  0  0999 V2000
    3.8710    3.9160   -1.8830 O   0  0  0  0  0  0  0  0  0  0  0  0
    3.9170    2.9830   -1.0720 C   0  0  0  0  0  0  0  0  0  0  0  0
    5.1330    2.7800   -0.4000 O   0  0  0  0  0  0  0  0  0  0  0  0
    2.7750    2.1050   -0.7970 C   0  0  0  0  0  0  0  0  0  0  0  0
    2.8980    1.1290    0.0810 C   0  0  0  0  0  0  0  0  0  0  0  0
    4.0830    0.8590    0.7980 O   0  0  0  0  0  0  0  0  0  0  0  0
    3.8880   -0.2350    1.6460 C   0  0  0  0  0  0  0  0  0  0  0  0
    2.4860   -0.6180    1.3940 C   0  0  0  0  0  0  0  0  0  0  0  0
    1.9110    0.1590    0.4990 C   0  0  0  0  0  0  0  0  0  0  0  0
    0.5210    0.0800   -0.0050 C   0  0  0  0  0  0  0  0  0  0  0  0
    0.1100    0.8930   -0.8630 O   0  0  0  0  0  0  0  0  0  0  0  0
   -0.3530   -0.8510    0.4260 O   0  0  0  0  0  0  0  0  0  0  0  0
   -1.6390   -1.1710    0.1650 C   0  0  0  0  0  0  0  0  0  0  0  0
   -2.4720   -0.6220   -0.6790 C   0  0  0  0  0  0  0  0  0  0  0  0
   -2.1200    0.4330   -1.4730 O   0  0  0  0  0  0  0  0  0  0  0  0
   -2.9180    1.5110   -1.7000 O   0  0  0  0  0  0  0  0  0  0  0  0
   -3.5480    2.2220   -0.7100 C   0  0  0  0  0  0  0  0  0  0  0  0
   -3.3880    1.8680    0.4860 O   0  0  0  0  0  0  0  0  0  0  0  0
   -4.3480    3.3080   -0.9860 O   0  0  0  0  0  0  0  0  0  0  0  0
   -3.8310   -1.1440   -0.7860 C   0  0  0  0  0  0  0  0  0  0  0  0
   -4.6740   -0.6530   -1.5840 O   0  0  0  0  0  0  0  0  0  0  0  0
   -4.1500   -2.2230    0.0440 O   0  0  0  0  0  0  0  0  0  0  0  0
   -3.4690   -2.3570    1.1950 O   0  0  0  0  0  0  0  0  0  0  0  0
   -2.1190   -2.3560    1.0180 C   0  0  1  0  0  0  0  0  0  0  0  0
   -1.6090   -3.6050    0.4000 C   0  0  0  0  0  0  0  0  0  0  0  0
   -2.4110   -4.5180    0.1030 O   0  0  0  0  0  0  0  0  0  0  0  0
   -0.2630   -3.7950    0.1390 O   0  0  0  0  0  0  0  0  0  0  0  0
  1  2  2  0
  2  3  1  0
  2  4  1  0
  4  5  2  3
  5  6  1  0
  5  9  1  0
  6  7  1  0
  7  8  1  0
  8  9  2  0
  9 10  1  0
 10 11  2  0
 10 12  1  0
 12 13  1  0
 13 14  2  0
 13 24  1  0
 14 15  1  0
 14 20  1  0
 15 16  1  0
 16 17  1  0
 17 18  2  0
 17 19  1  0
 20 21  2  0
 20 22  1  0
 22 23  1  0
 23 24  1  0
 24 25  1  6
 25 26  2  0
 25 27  1  0
M  END
