
     RDKit          3D

 21 21  0  0  0  0  0  0  0  0999 V2000
   -3.4740   -1.7980    0.5610 C   0  0  0  0  0  0  0  0  0  0  0  0
   -3.6880   -0.5050    0.8020 O   0  0  0  0  0  0  0  0  0  0  0  0
   -3.0620    0.5060    0.1670 C   0  0  1  0  0  0  0  0  0  0  0  0
   -1.6250    0.7290    0.4160 C   0  0  0  0  0  0  0  0  0  0  0  0
   -0.7060   -0.2850    0.0010 N   0  0  0  0  0  0  0  0  0  0  0  0
    0.7060   -0.1640    0.2470 C   0  0  0  0  0  0  0  0  0  0  0  0
    1.1150    0.8460    0.8310 O   0  0  0  0  0  0  0  0  0  0  0  0
    1.6250   -1.1590   -0.1580 N   0  0  0  0  0  0  0  0  0  0  0  0
    3.0460   -1.0720    0.0720 C   0  0  0  0  0  0  0  0  0  0  0  0
    3.6820    0.1260   -0.5740 C   0  0  2  0  0  0  0  0  0  0  0  0
    3.5220    0.1340   -1.9480 O   0  0  0  0  0  0  0  0  0  0  0  0
    5.4880    0.1190   -0.0900 P   0  0  0  0  0  0  0  0  0  0  0  0
    5.6090   -0.6360    1.4890 O   0  0  0  0  0  0  0  0  0  0  0  0
    6.0600    1.7580    0.1150 O   0  0  0  0  0  0  0  0  0  0  0  0
   -3.3240    0.4600   -1.2670 O   0  0  0  0  0  0  0  0  0  0  0  0
   -4.6640    0.5090   -1.6240 C   0  0  0  0  0  0  0  0  0  0  0  0
   -5.0260   -0.1050   -2.6850 O   0  0  0  0  0  0  0  0  0  0  0  0
   -5.5850    1.2030   -0.8510 O   0  0  0  0  0  0  0  0  0  0  0  0
   -5.1280    1.8320    0.2650 O   0  0  0  0  0  0  0  0  0  0  0  0
   -3.7830    1.7700    0.6030 C   0  0  0  0  0  0  0  0  0  0  0  0
   -3.1830    2.6830    1.2250 O   0  0  0  0  0  0  0  0  0  0  0  0
  1  2  1  0
  2  3  1  0
  3  4  1  6
  3 15  1  0
  3 20  1  0
  4  5  1  0
  5  6  1  0
  6  7  2  0
  6  8  1  0
  8  9  1  0
  9 10  1  0
 10 11  1  6
 10 12  1  0
 12 13  1  0
 12 14  1  0
 15 16  1  0
 16 17  2  0
 16 18  1  0
 18 19  1  0
 19 20  1  0
 20 21  2  0
M  END
