
     RDKit          3D

 21 22  0  0  0  0  0  0  0  0999 V2000
   -2.8410    1.2310    3.2820 O   0  0  0  0  0  0  0  0  0  0  0  0
   -2.7350    1.2600    2.0320 C   0  0  0  0  0  0  0  0  0  0  0  0
   -2.6430    0.0760    1.2520 N   0  0  0  0  0  0  0  0  0  0  0  0
   -2.8000    0.2180   -0.1810 C   0  0  2  0  0  0  0  0  0  0  0  0
   -3.4120   -0.9960   -0.7800 C   0  0  0  0  0  0  0  0  0  0  0  0
   -2.6520   -2.1210   -0.5670 O   0  0  0  0  0  0  0  0  0  0  0  0
   -1.4770    0.5970   -0.7730 C   0  0  0  0  0  0  0  0  0  0  0  0
   -0.4360   -0.3550   -0.5480 N   0  0  0  0  0  0  0  0  0  0  0  0
    0.8550   -0.1050   -1.0610 C   0  0  0  0  0  0  0  0  0  0  0  0
    1.0470    0.9620   -1.7070 O   0  0  0  0  0  0  0  0  0  0  0  0
    2.0020   -1.0240   -0.8860 C   0  0  2  0  0  0  0  0  0  0  0  0
    2.4860   -1.0400    0.5650 C   0  0  0  0  0  0  0  0  0  0  0  0
    3.7560   -1.6240    0.3540 O   0  0  0  0  0  0  0  0  0  0  0  0
    4.2260   -0.8710   -0.7140 C   0  0  2  0  0  0  0  0  0  0  0  0
    5.1170    0.5930   -0.0140 P   0  0  0  0  0  0  0  0  0  0  0  0
    5.7700    0.2270    1.5700 O   0  0  0  0  0  0  0  0  0  0  0  0
    4.1010    1.9910    0.0620 O   0  0  0  0  0  0  0  0  0  0  0  0
    3.1530   -0.5250   -1.4950 O   0  0  0  0  0  0  0  0  0  0  0  0
   -3.7550    1.4070   -0.3650 C   0  0  0  0  0  0  0  0  0  0  0  0
   -3.0130    2.5380    0.0270 O   0  0  0  0  0  0  0  0  0  0  0  0
   -2.7010    2.4790    1.3270 O   0  0  0  0  0  0  0  0  0  0  0  0
  1  2  2  0
  2  3  1  0
  2 21  1  0
  3  4  1  0
  4  5  1  6
  4  7  1  0
  4 19  1  0
  5  6  1  0
  7  8  1  0
  8  9  1  0
  9 10  2  0
 11  9  1  1
 11 12  1  0
 11 18  1  0
 12 13  1  0
 13 14  1  0
 14 15  1  1
 14 18  1  0
 15 16  1  0
 15 17  1  0
 19 20  1  0
 20 21  1  0
M  END
