
     RDKit          3D

 21 22  0  0  0  0  0  0  0  0999 V2000
    5.4290    0.0260    2.1660 O   0  0  0  0  0  0  0  0  0  0  0  0
    4.5880   -0.2320    1.2410 C   0  0  0  0  0  0  0  0  0  0  0  0
    4.8810   -0.8120   -0.0940 C   0  0  0  0  0  0  0  0  0  0  0  0
    3.7870   -0.3740   -0.9090 N   0  0  0  0  0  0  0  0  0  0  0  0
    2.8260    0.2520   -0.0540 C   0  0  1  0  0  0  0  0  0  0  0  0
    1.4490   -0.2120   -0.3470 C   0  0  0  0  0  0  0  0  0  0  0  0
    1.3110   -1.0610   -1.2730 O   0  0  0  0  0  0  0  0  0  0  0  0
    0.3470    0.2920    0.3950 N   0  0  0  0  0  0  0  0  0  0  0  0
   -0.9750   -0.1960    0.0660 C   0  0  1  0  0  0  0  0  0  0  0  0
   -1.9720    0.4810    0.9840 C   0  0  0  0  0  0  0  0  0  0  0  0
   -1.8910    1.8470    0.7800 O   0  0  0  0  0  0  0  0  0  0  0  0
   -2.9750    2.7440    1.7640 P   0  0  0  0  0  0  0  0  0  0  0  0
   -3.3940    4.2060    0.9240 O   0  0  0  0  0  0  0  0  0  0  0  0
   -4.3750    1.8330    2.2060 O   0  0  0  0  0  0  0  0  0  0  0  0
   -1.2070    0.0760   -1.2630 O   0  0  0  0  0  0  0  0  0  0  0  0
   -2.2090   -0.6920   -1.8260 C   0  0  0  0  0  0  0  0  0  0  0  0
   -1.9550   -2.1670   -1.7510 C   0  0  0  0  0  0  0  0  0  0  0  0
   -1.5300   -2.5880   -0.4770 O   0  0  0  0  0  0  0  0  0  0  0  0
   -1.0020   -1.6440    0.3760 C   0  0  0  0  0  0  0  0  0  0  0  0
   -0.5170   -2.0120    1.4690 O   0  0  0  0  0  0  0  0  0  0  0  0
    3.2160   -0.0280    1.2790 O   0  0  0  0  0  0  0  0  0  0  0  0
  1  2  2  0
  2  3  1  0
  2 21  1  0
  3  4  1  0
  4  5  1  0
  5  6  1  6
  5 21  1  0
  6  7  2  0
  6  8  1  0
  8  9  1  0
  9 10  1  1
  9 15  1  0
  9 19  1  0
 10 11  1  0
 11 12  1  0
 12 13  1  0
 12 14  1  0
 15 16  1  0
 16 17  1  0
 17 18  1  0
 18 19  1  0
 19 20  2  0
M  END
