
     RDKit          3D

 21 22  0  0  0  0  0  0  0  0999 V2000
   -6.8040    0.3330   -0.3040 C   0  0  0  0  0  0  0  0  0  0  0  0
   -5.5270   -0.2660   -0.1790 O   0  0  0  0  0  0  0  0  0  0  0  0
   -4.4520    0.3030   -0.8530 C   0  0  0  0  0  0  0  0  0  0  0  0
   -4.6520    1.3260   -1.5480 O   0  0  0  0  0  0  0  0  0  0  0  0
   -3.1010   -0.3300   -0.7210 C   0  0  1  0  0  0  0  0  0  0  0  0
   -2.2240    0.4270   -1.4840 O   0  0  0  0  0  0  0  0  0  0  0  0
   -1.8370    1.4190   -0.5620 C   0  0  0  0  0  0  0  0  0  0  0  0
   -1.5640    0.5510    0.6500 C   0  0  2  0  0  0  0  0  0  0  0  0
   -0.3470   -0.2880    0.4450 C   0  0  0  0  0  0  0  0  0  0  0  0
   -0.1970   -1.2370   -0.4960 N   0  0  0  0  0  0  0  0  0  0  0  0
    0.9820   -1.7630   -0.3840 O   0  0  0  0  0  0  0  0  0  0  0  0
    1.6420   -1.2060    0.6010 C   0  0  0  0  0  0  0  0  0  0  0  0
    3.0200   -1.5630    1.0110 C   0  0  1  0  0  0  0  0  0  0  0  0
    3.1520   -2.9470    1.0550 O   0  0  0  0  0  0  0  0  0  0  0  0
    3.9740   -1.0930    0.1110 O   0  0  0  0  0  0  0  0  0  0  0  0
    4.8510   -0.2850    0.8280 C   0  0  0  0  0  0  0  0  0  0  0  0
    6.1840    0.4120   -0.2640 P   0  0  0  0  0  0  0  0  0  0  0  0
    5.6090    0.6730   -1.8770 O   0  0  0  0  0  0  0  0  0  0  0  0
    6.6330    1.9510    0.4020 O   0  0  0  0  0  0  0  0  0  0  0  0
    0.8160   -0.2840    1.1220 N   0  0  0  0  0  0  0  0  0  0  0  0
   -2.6550   -0.3270    0.5770 O   0  0  0  0  0  0  0  0  0  0  0  0
  1  2  1  0
  2  3  1  0
  3  4  2  0
  5  3  1  1
  5  6  1  0
  5 21  1  0
  6  7  1  0
  7  8  1  0
  8  9  1  6
  8 21  1  0
  9 10  2  0
  9 20  1  0
 10 11  1  0
 11 12  1  0
 12 13  1  0
 12 20  2  0
 13 14  1  6
 13 15  1  0
 15 16  1  0
 16 17  1  0
 17 18  1  0
 17 19  1  0
M  END
