
     RDKit          3D

 11 10  0  0  0  0  0  0  0  0999 V2000
    2.5920    0.0850    2.1850 O   0  0  0  0  0  0  0  0  0  0  0  0
    2.7140    0.0150    0.9490 C   0  0  0  0  0  0  0  0  0  0  0  0
    3.8160    0.5560    0.3330 O   0  0  0  0  0  0  0  0  0  0  0  0
    1.6720   -0.6500    0.1510 C   0  0  2  0  0  0  0  0  0  0  0  0
    2.0130   -0.6130   -1.2140 O   0  0  0  0  0  0  0  0  0  0  0  0
    0.3830    0.1170    0.3500 C   0  0  0  0  0  0  0  0  0  0  0  0
   -0.5490   -0.4610   -0.3740 O   0  0  0  0  0  0  0  0  0  0  0  0
   -2.1730    0.1800   -0.3720 P   0  0  0  0  0  0  0  0  0  0  0  0
   -3.0930   -0.8260    0.6710 O   0  0  0  0  0  0  0  0  0  0  0  0
   -2.8560    0.1060   -1.9450 O   0  0  0  0  0  0  0  0  0  0  0  0
   -2.2700    1.7570    0.2460 O   0  0  0  0  0  0  0  0  0  0  0  0
  1  2  2  0
  2  3  1  0
  2  4  1  0
  4  5  1  6
  4  6  1  0
  6  7  1  0
  7  8  1  0
  8  9  1  0
  8 10  1  0
  8 11  1  0
M  END
