
     RDKit          3D

 22 23  0  0  0  0  0  0  0  0999 V2000
   -3.7600   -3.0450    2.6160 O   0  0  0  0  0  0  0  0  0  0  0  0
   -3.9120   -1.9040    2.0800 C   0  0  0  0  0  0  0  0  0  0  0  0
   -4.3410   -1.6520    0.7440 N   0  0  0  0  0  0  0  0  0  0  0  0
   -4.1420   -0.2260    0.5450 C   0  0  2  0  0  0  0  0  0  0  0  0
   -2.8080   -0.0560    0.1910 O   0  0  0  0  0  0  0  0  0  0  0  0
   -2.6680    0.6540   -0.9900 C   0  0  2  0  0  0  0  0  0  0  0  0
   -1.9240   -0.1540   -1.8820 O   0  0  0  0  0  0  0  0  0  0  0  0
   -0.9210    0.6740   -2.3700 C   0  0  0  0  0  0  0  0  0  0  0  0
   -0.3450    0.6440   -3.5050 O   0  0  0  0  0  0  0  0  0  0  0  0
   -0.6690    1.6190   -1.2420 C   0  0  2  0  0  0  0  0  0  0  0  0
    0.2290    1.0530   -0.2300 C   0  0  0  0  0  0  0  0  0  0  0  0
   -0.2180    0.7970    0.9090 O   0  0  0  0  0  0  0  0  0  0  0  0
    1.5870    0.7960   -0.5310 N   0  0  0  0  0  0  0  0  0  0  0  0
    2.4180    0.2380    0.5100 C   0  0  0  0  0  0  0  0  0  0  0  0
    3.8390    0.0180    0.0450 C   0  0  0  0  0  0  0  0  0  0  0  0
    4.5360   -0.5240    1.1430 O   0  0  0  0  0  0  0  0  0  0  0  0
    6.1810   -0.8010    0.6750 P   0  0  0  0  0  0  0  0  0  0  0  0
    6.6600    0.2990   -0.5730 O   0  0  0  0  0  0  0  0  0  0  0  0
    6.2800   -2.4210    0.0300 O   0  0  0  0  0  0  0  0  0  0  0  0
   -1.9540    1.7920   -0.7400 O   0  0  0  0  0  0  0  0  0  0  0  0
   -4.3980    0.2680    1.9730 C   0  0  0  0  0  0  0  0  0  0  0  0
   -3.6820   -0.6780    2.7210 O   0  0  0  0  0  0  0  0  0  0  0  0
  1  2  2  0
  2  3  1  0
  2 22  1  0
  3  4  1  0
  4  5  1  1
  4 21  1  0
  6  5  1  1
  6  7  1  0
  6 20  1  0
  7  8  1  0
  8  9  2  0
  8 10  1  0
 10 11  1  1
 10 20  1  0
 11 12  2  0
 11 13  1  0
 13 14  1  0
 14 15  1  0
 15 16  1  0
 16 17  1  0
 17 18  1  0
 17 19  1  0
 21 22  1  0
M  END
