
     RDKit          3D

 22 22  0  0  0  0  0  0  0  0999 V2000
   -3.6200   -0.9980   -2.0380 C   0  0  0  0  0  0  0  0  0  0  0  0
   -2.6340   -0.0480   -1.6100 O   0  0  0  0  0  0  0  0  0  0  0  0
   -2.2430    0.0020   -0.2820 C   0  0  0  0  0  0  0  0  0  0  0  0
   -2.7850   -0.8090    0.5110 O   0  0  0  0  0  0  0  0  0  0  0  0
   -1.2280    0.9560    0.2410 C   0  0  2  0  0  0  0  0  0  0  0  0
   -1.0520    0.7630    1.6080 O   0  0  0  0  0  0  0  0  0  0  0  0
   -0.5180   -0.8110    2.0090 P   0  0  0  0  0  0  0  0  0  0  0  0
    0.7960   -0.7060    3.1450 O   0  0  0  0  0  0  0  0  0  0  0  0
   -1.7470   -1.7890    2.7320 O   0  0  0  0  0  0  0  0  0  0  0  0
   -1.6750    2.3930    0.0760 C   0  0  0  0  0  0  0  0  0  0  0  0
   -1.9030    2.7470   -1.2970 N   0  0  0  0  0  0  0  0  0  0  0  0
   -0.9010    2.2950   -2.2040 C   0  0  0  0  0  0  0  0  0  0  0  0
    0.1190    1.4820   -1.6130 N   0  0  0  0  0  0  0  0  0  0  0  0
    0.0510    0.8390   -0.5040 C   0  0  0  0  0  0  0  0  0  0  0  0
    1.0960    0.0700   -0.0050 O   0  0  0  0  0  0  0  0  0  0  0  0
    2.2820   -0.0320   -0.7080 C   0  0  0  0  0  0  0  0  0  0  0  0
    2.3690    0.5910   -1.7970 O   0  0  0  0  0  0  0  0  0  0  0  0
    3.4510   -0.8180   -0.2720 C   0  0  0  0  0  0  0  0  0  0  0  0
    3.2510   -1.4710    0.9500 O   0  0  0  0  0  0  0  0  0  0  0  0
    4.2850   -2.2390    1.4560 C   0  0  0  0  0  0  0  0  0  0  0  0
    5.3780   -2.3440    0.8270 O   0  0  0  0  0  0  0  0  0  0  0  0
    4.1820   -2.9320    2.6720 O   0  0  0  0  0  0  0  0  0  0  0  0
  1  2  1  0
  2  3  1  0
  3  4  2  0
  3  5  1  0
  5  6  1  1
  5 10  1  0
  5 14  1  0
  6  7  1  0
  7  8  1  0
  7  9  1  0
 10 11  1  0
 11 12  1  0
 12 13  1  0
 13 14  2  0
 14 15  1  0
 15 16  1  0
 16 17  2  0
 16 18  1  0
 18 19  1  0
 19 20  1  0
 20 21  2  0
 20 22  1  0
M  END
