
     RDKit          3D

 21 23  0  0  0  0  0  0  0  0999 V2000
    5.8920   -0.8850   -0.4350 C   0  0  0  0  0  0  0  0  0  0  0  0
    5.5450    0.4310   -1.0330 C   0  0  0  0  0  0  0  0  0  0  0  0
    4.6700    1.2110   -0.4930 N   0  0  0  0  0  0  0  0  0  0  0  0
    3.9800    0.9160    0.6670 N   0  0  0  0  0  0  0  0  0  0  0  0
    2.5820    0.6810    0.6180 C   0  0  0  0  0  0  0  0  0  0  0  0
    2.1670   -0.5930    0.4220 N   0  0  0  0  0  0  0  0  0  0  0  0
    0.8580   -0.8910    0.3650 C   0  0  0  0  0  0  0  0  0  0  0  0
   -0.0880    0.1010    0.5050 C   0  0  0  0  0  0  0  0  0  0  0  0
    0.3460    1.3630    0.7000 C   0  0  0  0  0  0  0  0  0  0  0  0
   -0.4940    2.4150    0.8530 O   0  0  0  0  0  0  0  0  0  0  0  0
   -0.1470    3.7500    1.0580 C   0  0  0  0  0  0  0  0  0  0  0  0
    1.6850    1.6680    0.7580 N   0  0  0  0  0  0  0  0  0  0  0  0
   -1.5150   -0.2330    0.4610 C   0  0  0  0  0  0  0  0  0  0  0  0
   -1.8190   -1.5150    0.2880 C   0  0  0  0  0  0  0  0  0  0  0  0
   -3.2400   -2.0540    0.2190 C   0  0  0  0  0  0  0  0  0  0  0  0
   -3.8810   -1.5530   -0.9270 N   0  0  0  0  0  0  0  0  0  0  0  0
   -3.9560   -0.1280   -0.9780 C   0  0  0  0  0  0  0  0  0  0  0  0
   -3.8200    0.5460    0.3410 C   0  0  0  0  0  0  0  0  0  0  0  0
   -2.3670    0.9790    0.6050 C   0  0  0  0  0  0  0  0  0  0  0  0
   -0.8640   -2.6340    0.1350 C   0  0  0  0  0  0  0  0  0  0  0  0
    0.4810   -2.2370    0.1550 N   0  0  0  0  0  0  0  0  0  0  0  0
  1  2  1  0
  2  3  2  3
  3  4  1  0
  4  5  1  0
  5  6  2  0
  5 12  1  0
  6  7  1  0
  7  8  2  0
  7 21  1  0
  8  9  1  0
  8 13  1  0
  9 10  1  0
  9 12  2  0
 10 11  1  0
 13 14  2  0
 13 19  1  0
 14 15  1  0
 14 20  1  0
 15 16  1  0
 16 17  1  0
 17 18  1  0
 18 19  1  0
 20 21  1  0
M  END
