
     RDKit          3D

 22 24  0  0  0  0  0  0  0  0999 V2000
   -4.4080   -0.1790    0.3090 C   0  0  0  0  0  0  0  0  0  0  0  0
   -3.5570   -1.2050    0.9880 C   0  0  0  0  0  0  0  0  0  0  0  0
   -2.1060   -0.7790    1.0930 C   0  0  0  0  0  0  0  0  0  0  0  0
   -1.4980   -0.5430   -0.2510 C   0  0  0  0  0  0  0  0  0  0  0  0
   -0.1030   -0.1380   -0.2510 C   0  0  0  0  0  0  0  0  0  0  0  0
    0.9240   -1.0250   -0.0690 C   0  0  0  0  0  0  0  0  0  0  0  0
    0.9440   -2.3820    0.1170 C   0  0  0  0  0  0  0  0  0  0  0  0
   -0.0420   -3.1340    0.1650 O   0  0  0  0  0  0  0  0  0  0  0  0
    2.2060   -2.7830    0.2400 N   0  0  0  0  0  0  0  0  0  0  0  0
    3.0640   -1.7660    0.1470 C   0  0  0  0  0  0  0  0  0  0  0  0
    4.3710   -1.8360    0.2270 N   0  0  0  0  0  0  0  0  0  0  0  0
    4.9810   -3.1140    0.4330 C   0  0  0  0  0  0  0  0  0  0  0  0
    2.3260   -0.6200   -0.0500 C   0  0  0  0  0  0  0  0  0  0  0  0
    2.6230    0.7140   -0.2220 C   0  0  0  0  0  0  0  0  0  0  0  0
    1.5960    1.5890   -0.4020 C   0  0  0  0  0  0  0  0  0  0  0  0
    1.8590    2.8980   -0.5740 N   0  0  0  0  0  0  0  0  0  0  0  0
    0.8450    3.7430   -0.7500 N   0  0  0  0  0  0  0  0  0  0  0  0
   -0.4340    3.3450   -0.7640 C   0  0  0  0  0  0  0  0  0  0  0  0
   -1.4790    4.3930   -0.9710 C   0  0  0  0  0  0  0  0  0  0  0  0
   -1.7660    4.5420   -2.7270 Cl  0  0  0  0  0  0  0  0  0  0  0  0
   -0.7500    2.0400   -0.5960 N   0  0  0  0  0  0  0  0  0  0  0  0
    0.2200    1.1570   -0.4170 N   0  0  0  0  0  0  0  0  0  0  0  0
  1  2  1  0
  2  3  1  0
  3  4  1  0
  4  5  1  0
  5  6  2  0
  5 22  1  0
  6  7  1  0
  6 13  1  0
  7  8  2  0
  7  9  1  0
  9 10  1  0
 10 11  2  3
 10 13  1  0
 11 12  1  0
 13 14  2  0
 14 15  1  0
 15 16  2  0
 15 22  1  0
 16 17  1  0
 17 18  1  0
 18 19  1  0
 18 21  2  0
 19 20  1  0
 21 22  1  0
M  END
