
     RDKit          3D

 22 24  0  0  0  0  0  0  0  0999 V2000
   -1.4840   -0.2770   -3.0530 O   0  0  0  0  0  0  0  0  0  0  0  0
   -1.5750   -0.4620   -1.7630 C   0  0  0  0  0  0  0  0  0  0  0  0
   -0.4960    0.1010   -1.0470 N   0  0  0  0  0  0  0  0  0  0  0  0
    0.5300    0.8180   -1.7780 C   0  0  0  0  0  0  0  0  0  0  0  0
    0.4990    1.0460   -3.1230 N   0  0  0  0  0  0  0  0  0  0  0  0
    1.5860    1.7570   -3.4450 C   0  0  0  0  0  0  0  0  0  0  0  0
    2.2450    1.9450   -2.3260 N   0  0  0  0  0  0  0  0  0  0  0  0
    1.6170    1.3710   -1.2610 N   0  0  0  0  0  0  0  0  0  0  0  0
    2.1430    1.3620    0.0610 C   0  0  0  0  0  0  0  0  0  0  0  0
    3.1800    2.1940    0.2690 C   0  0  0  0  0  0  0  0  0  0  0  0
    3.7880    2.2520    1.6010 C   0  0  0  0  0  0  0  0  0  0  0  0
    4.0040    0.7840    2.0130 C   0  0  0  0  0  0  0  0  0  0  0  0
    2.6200    0.2620    2.2730 C   0  0  0  0  0  0  0  0  0  0  0  0
    1.6510    0.4890    1.1210 C   0  0  0  0  0  0  0  0  0  0  0  0
   -2.7110   -1.1830   -1.2530 C   0  0  0  0  0  0  0  0  0  0  0  0
   -3.6410   -1.6450   -2.1220 C   0  0  0  0  0  0  0  0  0  0  0  0
   -4.6690   -2.3200   -1.4430 N   0  0  0  0  0  0  0  0  0  0  0  0
   -4.3560   -2.2730   -0.0710 N   0  0  0  0  0  0  0  0  0  0  0  0
   -3.1100   -1.5540    0.0880 C   0  0  0  0  0  0  0  0  0  0  0  0
   -2.5330   -1.3280    1.2410 C   0  0  0  0  0  0  0  0  0  0  0  0
   -2.9400   -1.7040    2.5900 C   0  0  0  0  0  0  0  0  0  0  0  0
   -4.4000   -2.5920    2.8440 Cl  0  0  0  0  0  0  0  0  0  0  0  0
  1  2  2  0
  2  3  1  0
  2 15  1  0
  3  4  1  0
  4  5  2  0
  4  8  1  0
  5  6  1  0
  6  7  2  0
  7  8  1  0
  8  9  1  0
  9 10  2  0
  9 14  1  0
 10 11  1  0
 11 12  1  0
 12 13  1  0
 13 14  1  0
 15 16  2  0
 15 19  1  0
 16 17  1  0
 17 18  1  0
 18 19  1  0
 19 20  2  3
 20 21  1  0
 21 22  1  0
M  END
