
     RDKit          3D

 20 22  0  0  0  0  0  0  0  0999 V2000
   -0.6160   -2.7490   -0.6590 O   0  0  0  0  0  0  0  0  0  0  0  0
   -0.4380   -1.5440   -0.3650 C   0  0  0  0  0  0  0  0  0  0  0  0
    0.9470   -1.0840   -0.3210 C   0  0  0  0  0  0  0  0  0  0  0  0
    1.9940   -1.9610   -0.5950 C   0  0  0  0  0  0  0  0  0  0  0  0
    3.2790   -1.4840   -0.5420 C   0  0  0  0  0  0  0  0  0  0  0  0
    3.5980   -0.1910   -0.2340 C   0  0  0  0  0  0  0  0  0  0  0  0
    4.9200    0.2670   -0.1870 O   0  0  0  0  0  0  0  0  0  0  0  0
    2.5290    0.6860    0.0420 C   0  0  0  0  0  0  0  0  0  0  0  0
    2.8870    1.9620    0.3440 O   0  0  0  0  0  0  0  0  0  0  0  0
    1.2160    0.2300   -0.0050 C   0  0  0  0  0  0  0  0  0  0  0  0
    0.0940    1.1210    0.2770 C   0  0  0  0  0  0  0  0  0  0  0  0
    0.3510    2.2930    0.5580 O   0  0  0  0  0  0  0  0  0  0  0  0
   -1.2970    0.6970    0.2420 C   0  0  0  0  0  0  0  0  0  0  0  0
   -2.2950    1.5870    0.5170 C   0  0  0  0  0  0  0  0  0  0  0  0
   -2.1010    2.8740    0.8300 O   0  0  0  0  0  0  0  0  0  0  0  0
   -3.5920    1.1170    0.4660 C   0  0  0  0  0  0  0  0  0  0  0  0
   -3.8900   -0.1850    0.1540 C   0  0  0  0  0  0  0  0  0  0  0  0
   -2.8410   -1.0910   -0.1270 C   0  0  0  0  0  0  0  0  0  0  0  0
   -3.1800   -2.3630   -0.4290 O   0  0  0  0  0  0  0  0  0  0  0  0
   -1.5380   -0.6390   -0.0810 C   0  0  0  0  0  0  0  0  0  0  0  0
  1  2  2  0
  2  3  1  0
  2 20  1  0
  3  4  2  0
  3 10  1  0
  4  5  1  0
  5  6  2  0
  6  7  1  0
  6  8  1  0
  8  9  1  0
  8 10  2  0
 10 11  1  0
 11 12  2  0
 11 13  1  0
 13 14  2  0
 13 20  1  0
 14 15  1  0
 14 16  1  0
 16 17  2  0
 17 18  1  0
 18 19  1  0
 18 20  2  0
M  END
