
     RDKit          3D

 22 24  0  0  0  0  0  0  0  0999 V2000
   -2.6730   -0.4670    1.9550 C   0  0  0  0  0  0  0  0  0  0  0  0
   -1.5960   -0.2400    0.9240 C   0  0  0  0  0  0  0  0  0  0  0  0
   -0.3110   -0.3160    1.3140 N   0  0  0  0  0  0  0  0  0  0  0  0
    0.6890   -0.1250    0.4460 N   0  0  0  0  0  0  0  0  0  0  0  0
    2.0150   -0.1620    0.6520 C   0  0  0  0  0  0  0  0  0  0  0  0
    2.6710   -0.4230    1.8920 N   0  0  0  0  0  0  0  0  0  0  0  0
    2.6300    0.0990   -0.5490 C   0  0  0  0  0  0  0  0  0  0  0  0
    4.0700    0.1520   -0.7610 C   0  0  0  0  0  0  0  0  0  0  0  0
    4.6000    1.1840   -1.5030 C   0  0  0  0  0  0  0  0  0  0  0  0
    5.9820    1.2470   -1.7140 C   0  0  0  0  0  0  0  0  0  0  0  0
    6.7860    0.3200   -1.2040 N   0  0  0  0  0  0  0  0  0  0  0  0
    6.2910   -0.7060   -0.4700 C   0  0  0  0  0  0  0  0  0  0  0  0
    7.3130   -1.9460    0.2190 Cl  0  0  0  0  0  0  0  0  0  0  0  0
    4.9190   -0.7910   -0.2460 C   0  0  0  0  0  0  0  0  0  0  0  0
    1.6440    0.2840   -1.4410 N   0  0  0  0  0  0  0  0  0  0  0  0
    0.4270    0.1480   -0.8400 C   0  0  0  0  0  0  0  0  0  0  0  0
   -0.8230    0.2370   -1.2890 N   0  0  0  0  0  0  0  0  0  0  0  0
   -1.8660    0.0400   -0.3940 C   0  0  0  0  0  0  0  0  0  0  0  0
   -3.1170    0.1340   -0.8660 O   0  0  0  0  0  0  0  0  0  0  0  0
   -4.4120    0.0640   -0.5760 C   0  0  1  0  0  0  0  0  0  0  0  0
   -5.1820    1.3740   -0.9120 C   0  0  0  0  0  0  0  0  0  0  0  0
   -5.1670   -1.0020   -1.4260 C   0  0  0  0  0  0  0  0  0  0  0  0
  1  2  1  0
  2  3  2  0
  2 18  1  0
  3  4  1  0
  4  5  1  0
  4 16  1  0
  5  6  1  0
  5  7  2  0
  7  8  1  0
  7 15  1  0
  8  9  2  0
  8 14  1  0
  9 10  1  0
 10 11  2  0
 11 12  1  0
 12 13  1  0
 12 14  2  0
 15 16  2  0
 16 17  1  0
 17 18  2  0
 18 19  1  0
 19 20  1  0
 20 21  1  6
 20 22  1  0
M  END
