
     RDKit          3D

 21 23  0  0  0  0  0  0  0  0999 V2000
    4.3790    2.4910    0.1580 C   0  0  0  0  0  0  0  0  0  0  0  0
    4.0160    1.0670   -0.1700 C   0  0  0  0  0  0  0  0  0  0  0  0
    5.0060    0.2540   -0.5820 N   0  0  0  0  0  0  0  0  0  0  0  0
    4.6790   -1.0380   -0.8600 C   0  0  0  0  0  0  0  0  0  0  0  0
    5.9400   -2.1490   -1.3990 Cl  0  0  0  0  0  0  0  0  0  0  0  0
    3.4140   -1.4600   -0.7230 N   0  0  0  0  0  0  0  0  0  0  0  0
    2.4020   -0.6450   -0.3060 C   0  0  0  0  0  0  0  0  0  0  0  0
    1.0280   -1.1980   -0.1600 C   0  0  0  0  0  0  0  0  0  0  0  0
    0.0700   -0.1690    0.0660 N   0  0  0  0  0  0  0  0  0  0  0  0
   -1.2700   -0.6220    0.2530 C   0  0  2  0  0  0  0  0  0  0  0  0
   -2.1580    0.5610    0.4340 C   0  0  0  0  0  0  0  0  0  0  0  0
   -3.2600    0.7060    1.1800 N   0  0  0  0  0  0  0  0  0  0  0  0
   -3.7020    1.9270    1.0150 O   0  0  0  0  0  0  0  0  0  0  0  0
   -2.9530    2.5930    0.2030 C   0  0  0  0  0  0  0  0  0  0  0  0
   -3.0440    3.9790   -0.2820 C   0  0  0  0  0  0  0  0  0  0  0  0
   -1.9610    1.7360   -0.1780 N   0  0  0  0  0  0  0  0  0  0  0  0
   -1.4560   -1.5110    1.4490 C   0  0  0  0  0  0  0  0  0  0  0  0
   -1.5260   -2.9250    0.9950 C   0  0  0  0  0  0  0  0  0  0  0  0
   -2.1380   -2.8050   -0.3780 C   0  0  0  0  0  0  0  0  0  0  0  0
   -1.8020   -1.4210   -0.8830 C   0  0  0  0  0  0  0  0  0  0  0  0
    2.7470    0.6200   -0.0380 N   0  0  0  0  0  0  0  0  0  0  0  0
  1  2  1  0
  2  3  2  0
  2 21  1  0
  3  4  1  0
  4  5  1  0
  4  6  2  0
  6  7  1  0
  7  8  1  0
  7 21  2  0
  8  9  1  0
 10  9  1  6
 10 11  1  0
 10 17  1  0
 10 20  1  0
 11 12  2  0
 11 16  1  0
 12 13  1  0
 13 14  1  0
 14 15  1  0
 14 16  2  0
 17 18  1  0
 18 19  1  0
 19 20  1  0
M  END
