
     RDKit          3D

 22 24  0  0  0  0  0  0  0  0999 V2000
    0.8790    0.4400   -1.5230 C   0  0  0  0  0  0  0  0  0  0  0  0
    1.0890   -0.4020   -0.3330 C   0  0  0  0  0  0  0  0  0  0  0  0
    0.2790   -1.4030   -0.1520 N   0  0  0  0  0  0  0  0  0  0  0  0
   -0.7640   -1.6620   -1.0730 C   0  0  0  0  0  0  0  0  0  0  0  0
   -0.6860   -2.4500   -2.1710 N   0  0  0  0  0  0  0  0  0  0  0  0
   -1.8680   -2.4630   -2.8100 C   0  0  0  0  0  0  0  0  0  0  0  0
   -2.6940   -1.6490   -2.0670 C   0  0  0  0  0  0  0  0  0  0  0  0
   -2.0140   -1.1530   -0.9940 N   0  0  0  0  0  0  0  0  0  0  0  0
   -2.5000   -0.2850    0.0050 C   0  0  0  0  0  0  0  0  0  0  0  0
   -2.8800    0.9980   -0.2940 C   0  0  0  0  0  0  0  0  0  0  0  0
   -3.3610    1.8500    0.7120 C   0  0  0  0  0  0  0  0  0  0  0  0
   -3.4530    1.4170    1.9730 N   0  0  0  0  0  0  0  0  0  0  0  0
   -3.0860    0.1630    2.2870 C   0  0  0  0  0  0  0  0  0  0  0  0
   -3.2240   -0.3510    3.9380 Cl  0  0  0  0  0  0  0  0  0  0  0  0
   -2.6000   -0.7160    1.3060 C   0  0  0  0  0  0  0  0  0  0  0  0
    2.1600   -0.1340    0.6070 C   0  0  0  0  0  0  0  0  0  0  0  0
    2.4360   -0.8710    1.7340 N   0  0  0  0  0  0  0  0  0  0  0  0
    3.4810   -0.3610    2.3700 C   0  0  0  0  0  0  0  0  0  0  0  0
    3.9770   -0.8070    3.4290 O   0  0  0  0  0  0  0  0  0  0  0  0
    3.9120    0.7080    1.6880 N   0  0  0  0  0  0  0  0  0  0  0  0
    3.0980    0.8590    0.5890 C   0  0  0  0  0  0  0  0  0  0  0  0
    3.2810    1.9470   -0.3960 C   0  0  0  0  0  0  0  0  0  0  0  0
  1  2  1  0
  2  3  2  3
  2 16  1  0
  3  4  1  0
  4  5  2  0
  4  8  1  0
  5  6  1  0
  6  7  2  0
  7  8  1  0
  8  9  1  0
  9 10  2  0
  9 15  1  0
 10 11  1  0
 11 12  2  0
 12 13  1  0
 13 14  1  0
 13 15  2  0
 16 17  1  0
 16 21  2  0
 17 18  1  0
 18 19  2  0
 18 20  1  0
 20 21  1  0
 21 22  1  0
M  END
