
     RDKit          3D

 13 13  0  0  0  0  0  0  0  0999 V2000
    4.0860   -0.1950    0.1960 C   0  0  0  0  0  0  0  0  0  0  0  0
    2.7640   -0.7490    0.3890 N   0  0  0  0  0  0  0  0  0  0  0  0
    1.5890    0.0590    0.2700 C   0  0  0  0  0  0  0  0  0  0  0  0
    1.7100    1.3560    0.2830 N   0  0  0  0  0  0  0  0  0  0  0  0
    0.5820    2.2130    0.1690 C   0  0  0  0  0  0  0  0  0  0  0  0
    0.7180    3.4670    0.1840 O   0  0  0  0  0  0  0  0  0  0  0  0
   -0.7400    1.6180    0.0350 C   0  0  0  0  0  0  0  0  0  0  0  0
   -1.7860    2.3290   -0.0710 O   0  0  0  0  0  0  0  0  0  0  0  0
   -0.8000    0.1580    0.0270 C   0  0  0  0  0  0  0  0  0  0  0  0
   -2.0590   -0.5170   -0.1010 N   0  0  0  0  0  0  0  0  0  0  0  0
   -3.2790    0.2100    0.1460 C   0  0  0  0  0  0  0  0  0  0  0  0
   -2.0610   -1.9000   -0.4730 C   0  0  0  0  0  0  0  0  0  0  0  0
    0.3060   -0.4850    0.1390 N   0  0  0  0  0  0  0  0  0  0  0  0
  1  2  1  0
  2  3  1  0
  3  4  2  0
  3 13  1  0
  4  5  1  0
  5  6  2  0
  5  7  1  0
  7  8  2  0
  7  9  1  0
  9 10  1  0
  9 13  2  0
 10 11  1  0
 10 12  1  0
M  END
