
     RDKit          3D

 13 14  0  0  0  0  0  0  0  0999 V2000
    4.4010   -0.3140    0.1380 C   0  0  0  0  0  0  0  0  0  0  0  0
    2.9970    0.1140   -0.1800 C   0  0  0  0  0  0  0  0  0  0  0  0
    1.8590   -0.4950    0.1950 N   0  0  0  0  0  0  0  0  0  0  0  0
    0.8210    0.1820   -0.2790 N   0  0  0  0  0  0  0  0  0  0  0  0
   -0.5740   -0.1300   -0.1070 C   0  0  0  0  0  0  0  0  0  0  0  0
   -0.8790   -1.2680    0.4090 N   0  0  0  0  0  0  0  0  0  0  0  0
   -2.3000   -1.5520    0.5680 C   0  0  0  0  0  0  0  0  0  0  0  0
   -2.9370   -0.2650    1.0700 C   0  0  0  0  0  0  0  0  0  0  0  0
   -2.8680    0.6860   -0.0170 N   0  0  0  0  0  0  0  0  0  0  0  0
   -1.5560    0.8740   -0.5340 C   0  0  0  0  0  0  0  0  0  0  0  0
    1.3560    1.2190   -0.9520 C   0  0  0  0  0  0  0  0  0  0  0  0
    0.6930    2.1170   -1.5630 O   0  0  0  0  0  0  0  0  0  0  0  0
    2.6400    1.1610   -0.8820 O   0  0  0  0  0  0  0  0  0  0  0  0
  1  2  1  0
  2  3  2  0
  2 13  1  0
  3  4  1  0
  4  5  1  0
  4 11  1  0
  5  6  2  0
  5 10  1  0
  6  7  1  0
  7  8  1  0
  8  9  1  0
  9 10  1  0
 11 12  2  0
 11 13  1  0
M  END
