
     RDKit          3D

 12 13  0  0  0  0  0  0  0  0999 V2000
    3.1320   -0.4970   -0.3640 C   0  0  0  0  0  0  0  0  0  0  0  0
    2.4500    0.6720    0.2990 C   0  0  0  0  0  0  0  0  0  0  0  0
    1.0350    0.3310    0.4170 N   0  0  0  0  0  0  0  0  0  0  0  0
    0.4200   -0.2800    1.4070 N   0  0  0  0  0  0  0  0  0  0  0  0
   -0.9100   -0.4090    1.1310 C   0  0  0  0  0  0  0  0  0  0  0  0
   -1.1290    0.1330   -0.0580 N   0  0  0  0  0  0  0  0  0  0  0  0
    0.0940    0.5930   -0.4950 C   0  0  0  0  0  0  0  0  0  0  0  0
    0.2570    1.1650   -1.5880 O   0  0  0  0  0  0  0  0  0  0  0  0
   -2.4280    0.1770   -0.6710 C   0  0  0  0  0  0  0  0  0  0  0  0
   -3.4530   -0.4410    0.1660 C   0  0  0  0  0  0  0  0  0  0  0  0
   -3.1890   -0.9490    1.3030 N   0  0  0  0  0  0  0  0  0  0  0  0
   -1.9540   -0.9860    1.8770 O   0  0  0  0  0  0  0  0  0  0  0  0
  1  2  1  0
  2  3  1  0
  3  4  1  0
  3  7  1  0
  4  5  2  0
  5  6  1  0
  5 12  1  0
  6  7  1  0
  6  9  1  0
  7  8  2  0
  9 10  1  0
 10 11  2  0
 11 12  1  0
M  END
