
     RDKit          3D

 25 27  0  0  0  0  0  0  0  0999 V2000
   -5.1340    2.7010    1.1880 C   0  0  0  0  0  0  0  0  0  0  0  0
   -3.9380    1.7990    1.1460 C   0  0  0  0  0  0  0  0  0  0  0  0
   -3.0230    1.8950    2.1650 C   0  0  0  0  0  0  0  0  0  0  0  0
   -1.9270    1.0710    2.1310 C   0  0  0  0  0  0  0  0  0  0  0  0
   -1.7810    0.1740    1.0740 C   0  0  0  0  0  0  0  0  0  0  0  0
   -2.6860    0.0700    0.0530 C   0  0  0  0  0  0  0  0  0  0  0  0
   -2.5820   -0.8160   -1.0680 N   0  0  0  0  0  0  0  0  0  0  0  0
   -1.3770   -1.4090   -1.4940 C   0  0  0  0  0  0  0  0  0  0  0  0
   -0.1930   -1.1210   -0.9060 N   0  0  0  0  0  0  0  0  0  0  0  0
    1.0000   -1.5910   -1.2390 C   0  0  0  0  0  0  0  0  0  0  0  0
    2.2130   -1.2330   -0.5670 N   0  0  0  0  0  0  0  0  0  0  0  0
    2.3160   -0.3410    0.5280 C   0  0  2  0  0  0  0  0  0  0  0  0
    1.8360    1.0580    0.2590 C   0  0  0  0  0  0  0  0  0  0  0  0
    1.7420    1.7260    1.6380 C   0  0  0  0  0  0  0  0  0  0  0  0
    3.0740    1.7800    2.3190 C   0  0  0  0  0  0  0  0  0  0  0  0
    4.1360    0.9670    1.7090 C   0  0  0  0  0  0  0  0  0  0  0  0
    3.7640   -0.2370    0.9470 C   0  0  2  0  0  0  0  0  0  0  0  0
    4.6080   -0.3540   -0.2500 N   0  0  0  0  0  0  0  0  0  0  0  0
    1.0040   -2.4450   -2.2790 N   0  0  0  0  0  0  0  0  0  0  0  0
   -0.1120   -2.7950   -2.9290 C   0  0  0  0  0  0  0  0  0  0  0  0
   -1.3660   -2.2770   -2.5490 C   0  0  0  0  0  0  0  0  0  0  0  0
   -2.5440   -2.7010   -3.2820 C   0  0  0  0  0  0  0  0  0  0  0  0
   -2.3800   -3.6230   -4.3870 N   0  0  0  0  0  0  0  0  0  0  0  0
   -3.7150   -2.3680   -3.0830 O   0  0  0  0  0  0  0  0  0  0  0  0
   -3.7990    0.9220    0.1080 C   0  0  0  0  0  0  0  0  0  0  0  0
  1  2  1  0
  2  3  2  0
  2 25  1  0
  3  4  1  0
  4  5  2  0
  5  6  1  0
  6  7  1  0
  6 25  2  0
  7  8  1  0
  8  9  2  0
  8 21  1  0
  9 10  1  0
 10 11  1  0
 10 19  2  0
 12 11  1  6
 12 13  1  0
 12 17  1  0
 13 14  1  0
 14 15  1  0
 15 16  1  0
 16 17  1  0
 17 18  1  6
 19 20  1  0
 20 21  2  0
 21 22  1  0
 22 23  1  0
 22 24  2  0
M  CHG  1  18   1
M  END
