
     RDKit          3D

 13 14  0  0  0  0  0  0  0  0999 V2000
    0.1360   -2.0970   -0.1160 C   0  0  0  0  0  0  0  0  0  0  0  0
    0.8420   -0.8480   -0.0810 C   0  0  0  0  0  0  0  0  0  0  0  0
    2.1790   -0.7970   -0.1340 C   0  0  0  0  0  0  0  0  0  0  0  0
    2.9370    0.3510   -0.1070 O   0  0  0  0  0  0  0  0  0  0  0  0
    2.3540    1.5770   -0.0190 N   0  0  0  0  0  0  0  0  0  0  0  0
    0.9480    1.6330    0.0440 C   0  0  0  0  0  0  0  0  0  0  0  0
    0.3570    2.8270    0.1290 N   0  0  0  0  0  0  0  0  0  0  0  0
   -0.9520    2.9170    0.1880 N   0  0  0  0  0  0  0  0  0  0  0  0
   -1.6830    1.7900    0.1600 C   0  0  0  0  0  0  0  0  0  0  0  0
   -2.9660    1.8600    0.2170 O   0  0  0  0  0  0  0  0  0  0  0  0
   -1.1430    0.5370    0.0740 N   0  0  0  0  0  0  0  0  0  0  0  0
   -1.9700   -0.6320    0.0510 C   0  0  0  0  0  0  0  0  0  0  0  0
    0.1830    0.4600    0.0150 C   0  0  0  0  0  0  0  0  0  0  0  0
  1  2  1  0
  2  3  2  0
  2 13  1  0
  3  4  1  0
  4  5  1  0
  5  6  1  0
  6  7  1  0
  6 13  2  0
  7  8  2  0
  8  9  1  0
  9 10  2  0
  9 11  1  0
 11 12  1  0
 11 13  1  0
M  END
