
     RDKit          3D

 13 14  0  0  0  0  0  0  0  0999 V2000
   -2.8850    1.0140   -0.5420 C   0  0  0  0  0  0  0  0  0  0  0  0
   -2.2090   -0.0280    0.1900 N   0  0  0  0  0  0  0  0  0  0  0  0
   -1.4080    0.4710    1.2730 C   0  0  0  0  0  0  0  0  0  0  0  0
    0.0020    0.7620    0.9080 C   0  0  0  0  0  0  0  0  0  0  0  0
    0.5970   -0.3250    0.1140 N   0  0  0  0  0  0  0  0  0  0  0  0
    1.9430   -0.1150   -0.2860 C   0  0  0  0  0  0  0  0  0  0  0  0
    2.3450    0.2620   -1.5090 N   0  0  0  0  0  0  0  0  0  0  0  0
    3.6480    0.3820   -1.4990 O   0  0  0  0  0  0  0  0  0  0  0  0
    4.1380    0.0990   -0.3100 C   0  0  0  0  0  0  0  0  0  0  0  0
    5.3550    0.1310   -0.0070 O   0  0  0  0  0  0  0  0  0  0  0  0
    3.0680   -0.2130    0.4500 N   0  0  0  0  0  0  0  0  0  0  0  0
   -0.2170   -1.4530   -0.1780 C   0  0  0  0  0  0  0  0  0  0  0  0
   -1.6010   -1.0260   -0.6070 C   0  0  0  0  0  0  0  0  0  0  0  0
  1  2  1  0
  2  3  1  0
  2 13  1  0
  3  4  1  0
  4  5  1  0
  5  6  1  0
  5 12  1  0
  6  7  2  0
  6 11  1  0
  7  8  1  0
  8  9  1  0
  9 10  2  0
  9 11  1  0
 12 13  1  0
M  END
