
     RDKit          3D

 13 14  0  0  0  0  0  0  0  0999 V2000
    1.7450    1.8830    0.3440 O   0  0  0  0  0  0  0  0  0  0  0  0
    2.0470    0.6970    0.1050 C   0  0  0  0  0  0  0  0  0  0  0  0
    3.3420    0.3170   -0.0210 N   0  0  0  0  0  0  0  0  0  0  0  0
    3.6780   -0.9610   -0.2790 C   0  0  0  0  0  0  0  0  0  0  0  0
    2.6570   -1.8300   -0.4030 N   0  0  0  0  0  0  0  0  0  0  0  0
    1.3840   -1.4830   -0.2840 N   0  0  0  0  0  0  0  0  0  0  0  0
    1.0130   -0.2130   -0.0260 C   0  0  0  0  0  0  0  0  0  0  0  0
   -0.3580    0.1490    0.0990 N   0  0  0  0  0  0  0  0  0  0  0  0
   -0.9820    1.1340   -0.7790 C   0  0  0  0  0  0  0  0  0  0  0  0
   -2.4830    0.9580   -0.5700 C   0  0  0  0  0  0  0  0  0  0  0  0
   -2.7900   -0.3870   -0.6790 O   0  0  0  0  0  0  0  0  0  0  0  0
   -2.3400   -1.1460    0.3710 C   0  0  0  0  0  0  0  0  0  0  0  0
   -1.2370   -0.4310    1.1050 C   0  0  0  0  0  0  0  0  0  0  0  0
  1  2  2  0
  2  3  1  0
  2  7  1  0
  3  4  1  0
  4  5  2  0
  5  6  1  0
  6  7  2  0
  7  8  1  0
  8  9  1  0
  8 13  1  0
  9 10  1  0
 10 11  1  0
 11 12  1  0
 12 13  1  0
M  END
