
     RDKit          3D

 13 14  0  0  0  0  0  0  0  0999 V2000
    2.0550   -3.0550   -1.3430 C   0  0  0  0  0  0  0  0  0  0  0  0
    1.2660   -1.8540   -1.0520 N   0  0  0  0  0  0  0  0  0  0  0  0
    0.6430   -1.6930    0.1020 N   0  0  0  0  0  0  0  0  0  0  0  0
   -0.0650   -0.5480    0.2870 C   0  0  0  0  0  0  0  0  0  0  0  0
   -0.1460    0.4250   -0.6820 C   0  0  0  0  0  0  0  0  0  0  0  0
    0.5080    0.2300   -1.8640 N   0  0  0  0  0  0  0  0  0  0  0  0
    1.1960   -0.9180   -1.9990 C   0  0  0  0  0  0  0  0  0  0  0  0
    1.8020   -1.0930   -3.1000 O   0  0  0  0  0  0  0  0  0  0  0  0
   -0.8400    1.6460   -0.6190 N   0  0  0  0  0  0  0  0  0  0  0  0
   -1.6570    2.1490    0.4960 C   0  0  0  0  0  0  0  0  0  0  0  0
   -0.8670    1.9100    1.7520 C   0  0  0  0  0  0  0  0  0  0  0  0
   -1.1330    0.5430    2.3460 C   0  0  0  0  0  0  0  0  0  0  0  0
   -0.6740   -0.4930    1.5360 O   0  0  0  0  0  0  0  0  0  0  0  0
  1  2  1  0
  2  3  1  0
  2  7  1  0
  3  4  2  0
  4  5  1  0
  4 13  1  0
  5  6  2  0
  5  9  1  0
  6  7  1  0
  7  8  2  0
  9 10  1  0
 10 11  1  0
 11 12  1  0
 12 13  1  0
M  END
