
     RDKit          3D

 13 14  0  0  0  0  0  0  0  0999 V2000
    1.1670   -0.1680    1.7180 O   0  0  0  0  0  0  0  0  0  0  0  0
    2.0620   -0.0980    0.8490 C   0  0  0  0  0  0  0  0  0  0  0  0
    3.4860   -0.1360    1.0010 N   0  0  0  0  0  0  0  0  0  0  0  0
    4.0690   -0.0220   -0.2630 N   0  0  0  0  0  0  0  0  0  0  0  0
    3.1690    0.0830   -1.1810 C   0  0  0  0  0  0  0  0  0  0  0  0
    1.8360    0.0460   -0.5850 C   0  0  0  0  0  0  0  0  0  0  0  0
    0.7580    0.1300   -1.2490 N   0  0  0  0  0  0  0  0  0  0  0  0
   -0.5180    0.1000   -0.7360 N   0  0  0  0  0  0  0  0  0  0  0  0
   -1.1230    1.2700   -0.1890 C   0  0  0  0  0  0  0  0  0  0  0  0
   -2.4480    1.0730    0.4450 C   0  0  0  0  0  0  0  0  0  0  0  0
   -2.7850   -0.1590    0.8580 O   0  0  0  0  0  0  0  0  0  0  0  0
   -2.0430   -1.2260    0.5180 C   0  0  0  0  0  0  0  0  0  0  0  0
   -1.2550   -1.1220   -0.7480 C   0  0  0  0  0  0  0  0  0  0  0  0
  1  2  2  0
  2  3  1  0
  2  6  1  0
  3  4  1  0
  4  5  2  0
  5  6  1  0
  6  7  2  3
  7  8  1  0
  8  9  1  0
  8 13  1  0
  9 10  1  0
 10 11  1  0
 11 12  1  0
 12 13  1  0
M  END
