
     RDKit          3D

 31 34  0  0  0  0  0  0  0  0999 V2000
    3.8810   -1.3180   -3.6600 C   0  0  0  0  0  0  0  0  0  0  0  0
    3.5160   -0.8180   -2.3420 N   0  0  0  0  0  0  0  0  0  0  0  0
    2.3280   -1.1720   -1.6890 C   0  0  0  0  0  0  0  0  0  0  0  0
    1.5450   -1.9670   -2.3140 O   0  0  0  0  0  0  0  0  0  0  0  0
    1.9180   -0.7080   -0.3890 C   0  0  0  0  0  0  0  0  0  0  0  0
    2.6250   -0.3990    0.7260 C   0  0  0  0  0  0  0  0  0  0  0  0
    4.0330   -0.5650    1.0210 C   0  0  0  0  0  0  0  0  0  0  0  0
    4.5890    0.2020    2.0560 C   0  0  0  0  0  0  0  0  0  0  0  0
    5.8960    0.0620    2.4640 C   0  0  0  0  0  0  0  0  0  0  0  0
    6.7370   -0.8450    1.8740 C   0  0  0  0  0  0  0  0  0  0  0  0
    8.0330   -1.0030    2.2570 F   0  0  0  0  0  0  0  0  0  0  0  0
    6.2250   -1.6090    0.8610 C   0  0  0  0  0  0  0  0  0  0  0  0
    4.8970   -1.4610    0.4540 C   0  0  0  0  0  0  0  0  0  0  0  0
    1.7520    0.1370    1.6100 O   0  0  0  0  0  0  0  0  0  0  0  0
    0.5650    0.1740    1.1220 C   0  0  0  0  0  0  0  0  0  0  0  0
   -0.6200    0.6110    1.6190 C   0  0  0  0  0  0  0  0  0  0  0  0
   -1.8240    0.5510    0.8860 C   0  0  0  0  0  0  0  0  0  0  0  0
   -3.0210    0.9940    1.5300 N   0  0  0  0  0  0  0  0  0  0  0  0
   -3.7200    0.1250    2.4150 C   0  0  0  0  0  0  0  0  0  0  0  0
   -4.8390   -0.6940    1.9170 C   0  0  0  0  0  0  0  0  0  0  0  0
   -4.5920   -1.6100    0.9390 O   0  0  0  0  0  0  0  0  0  0  0  0
   -3.5520    2.6180    1.3520 S   0  0  1  0  0  0  0  0  0  0  0  0
   -3.9150    3.0930   -0.2940 C   0  0  0  0  0  0  0  0  0  0  0  0
   -4.8170    2.7910    2.1660 O   0  0  0  0  0  0  0  0  0  0  0  0
   -2.4850    3.5820    1.8620 O   0  0  0  0  0  0  0  0  0  0  0  0
   -1.7780    0.0290   -0.3770 C   0  0  0  0  0  0  0  0  0  0  0  0
   -3.0070   -0.0210   -1.2490 C   0  0  2  0  0  0  0  0  0  0  0  0
   -2.9830   -0.7650   -2.5280 C   0  0  0  0  0  0  0  0  0  0  0  0
   -2.7560    0.6760   -2.6170 C   0  0  0  0  0  0  0  0  0  0  0  0
   -0.5660   -0.4310   -0.9140 C   0  0  0  0  0  0  0  0  0  0  0  0
    0.5670   -0.3460   -0.1520 C   0  0  0  0  0  0  0  0  0  0  0  0
  1  2  1  0
  2  3  1  0
  3  4  2  0
  3  5  1  0
  5  6  2  0
  5 31  1  0
  6  7  1  0
  6 14  1  0
  7  8  2  0
  7 13  1  0
  8  9  1  0
  9 10  2  0
 10 11  1  0
 10 12  1  0
 12 13  2  0
 14 15  1  0
 15 16  2  0
 15 31  1  0
 16 17  1  0
 17 18  1  0
 17 26  2  0
 18 19  1  0
 18 22  1  0
 19 20  1  0
 20 21  1  0
 22 23  1  6
 22 24  2  0
 22 25  2  0
 27 26  1  1
 26 30  1  0
 27 28  1  0
 27 29  1  0
 28 29  1  0
 30 31  2  0
M  END
