
     RDKit          3D

 29 31  0  0  0  0  0  0  0  0999 V2000
   -5.8700    2.8650    0.8490 C   0  0  0  0  0  0  0  0  0  0  0  0
   -4.4630    2.8610    0.1690 C   0  0  0  0  0  0  0  0  0  0  0  0
   -4.2970    1.5470   -0.3200 N   0  0  0  0  0  0  0  0  0  0  0  0
   -2.6900    1.7200   -0.5720 O   0  0  0  0  0  0  0  0  0  0  0  0
   -4.3860    0.5120   -0.8530 C   0  0  0  0  0  0  0  0  0  0  0  0
   -5.4200    0.1170   -1.8330 N   0  0  0  0  0  0  0  0  0  0  0  0
   -3.5340   -0.6190   -0.4920 N   0  0  0  0  0  0  0  0  0  0  0  0
   -2.5980   -0.6270    0.6050 C   0  0  0  0  0  0  0  0  0  0  0  0
   -1.5440   -1.6140    0.1390 C   0  0  0  0  0  0  0  0  0  0  0  0
   -1.8790   -2.9320   -0.1330 C   0  0  0  0  0  0  0  0  0  0  0  0
   -3.1730   -3.6300    0.2010 C   0  0  0  0  0  0  0  0  0  0  0  0
   -0.7840   -3.5310   -0.5970 N   0  0  0  0  0  0  0  0  0  0  0  0
    0.2210   -2.6140   -0.5840 N   0  0  0  0  0  0  0  0  0  0  0  0
   -0.2150   -1.4480   -0.1210 C   0  0  0  0  0  0  0  0  0  0  0  0
    0.4250   -0.2980    0.1240 O   0  0  0  0  0  0  0  0  0  0  0  0
    1.6770    0.1620    0.2810 C   0  0  0  0  0  0  0  0  0  0  0  0
    1.6930    1.4100    1.0310 C   0  0  0  0  0  0  0  0  0  0  0  0
    2.9080    1.9800    1.2210 C   0  0  0  0  0  0  0  0  0  0  0  0
    4.1280    1.5160    0.8240 C   0  0  0  0  0  0  0  0  0  0  0  0
    5.3260    1.9860    0.9120 O   0  0  0  0  0  0  0  0  0  0  0  0
    6.5150    2.4690    1.0060 C   0  0  0  0  0  0  0  0  0  0  0  0
    7.6160    1.5170    0.7410 C   0  0  0  0  0  0  0  0  0  0  0  0
    8.5910    0.6750    0.5000 N   0  0  0  0  0  0  0  0  0  0  0  0
    4.0750    0.2500    0.1040 C   0  0  0  0  0  0  0  0  0  0  0  0
    4.9990   -0.5720   -0.3730 C   0  0  0  0  0  0  0  0  0  0  0  0
    4.4240   -1.6770   -0.8880 C   0  0  0  0  0  0  0  0  0  0  0  0
    4.8810   -2.8460   -1.5770 N   0  0  0  0  0  0  0  0  0  0  0  0
    3.1230   -1.4700   -0.7050 O   0  0  0  0  0  0  0  0  0  0  0  0
    2.8670   -0.3060   -0.0870 C   0  0  0  0  0  0  0  0  0  0  0  0
  1  2  1  0
  2  3  1  0
  3  4  1  0
  3  5  2  3
  5  6  1  0
  5  7  1  0
  7  8  1  0
  8  9  1  0
  9 10  1  0
  9 14  2  0
 10 11  1  0
 10 12  2  0
 12 13  1  0
 13 14  1  0
 14 15  1  0
 15 16  1  0
 16 17  2  0
 16 29  1  0
 17 18  1  0
 18 19  2  0
 19 20  1  0
 19 24  1  0
 20 21  1  0
 21 22  1  0
 22 23  3  0
 24 25  1  0
 24 29  2  0
 25 26  2  0
 26 27  1  0
 26 28  1  0
 28 29  1  0
M  CHG  2   3   1   4  -1
M  END
