
     RDKit          3D

 30 33  0  0  0  0  0  0  0  0999 V2000
    8.3180   -0.3540    1.5900 C   0  0  0  0  0  0  0  0  0  0  0  0
    6.8290   -0.5300    1.6120 C   0  0  0  0  0  0  0  0  0  0  0  0
    6.1040   -1.1780    2.5730 C   0  0  0  0  0  0  0  0  0  0  0  0
    4.7500   -1.1060    2.2010 C   0  0  0  0  0  0  0  0  0  0  0  0
    4.7410   -0.3990    1.0080 C   0  0  0  0  0  0  0  0  0  0  0  0
    3.5580   -0.0530    0.2120 C   0  0  0  0  0  0  0  0  0  0  0  0
    3.7670    0.6660   -0.9620 C   0  0  0  0  0  0  0  0  0  0  0  0
    2.6710    0.9910   -1.7190 C   0  0  0  0  0  0  0  0  0  0  0  0
    1.3650    0.6570   -1.4030 C   0  0  0  0  0  0  0  0  0  0  0  0
    0.3050    1.0670   -2.3210 C   0  0  0  0  0  0  0  0  0  0  0  0
    0.5140    1.8960   -3.3530 O   0  0  0  0  0  0  0  0  0  0  0  0
   -0.5540    2.1080   -4.0320 C   0  0  0  0  0  0  0  0  0  0  0  0
   -0.6240    2.9970   -5.2450 C   0  0  0  0  0  0  0  0  0  0  0  0
   -1.5590    1.3920   -3.4430 C   0  0  0  0  0  0  0  0  0  0  0  0
   -1.0120    0.7090   -2.3260 C   0  0  0  0  0  0  0  0  0  0  0  0
   -1.7750   -0.1270   -1.4270 C   0  0  0  0  0  0  0  0  0  0  0  0
   -1.7060   -1.3860   -1.3690 O   0  0  0  0  0  0  0  0  0  0  0  0
   -2.7170    0.4920   -0.5110 N   0  0  0  0  0  0  0  0  0  0  0  0
   -3.5270   -0.2280    0.3900 C   0  0  0  0  0  0  0  0  0  0  0  0
   -4.7270   -0.7390   -0.0710 C   0  0  0  0  0  0  0  0  0  0  0  0
   -5.1900   -0.5510   -1.4810 C   0  0  0  0  0  0  0  0  0  0  0  0
   -5.5790   -1.4470    0.7520 C   0  0  0  0  0  0  0  0  0  0  0  0
   -5.2250   -1.6460    2.0580 C   0  0  0  0  0  0  0  0  0  0  0  0
   -4.0220   -1.1490    2.5710 C   0  0  0  0  0  0  0  0  0  0  0  0
   -3.7400   -1.4290    3.9870 C   0  0  0  0  0  0  0  0  0  0  0  0
   -3.2100   -0.4500    1.7110 C   0  0  0  0  0  0  0  0  0  0  0  0
   -1.9480    0.0830    2.2970 C   0  0  0  0  0  0  0  0  0  0  0  0
    1.1840   -0.0490   -0.2460 C   0  0  0  0  0  0  0  0  0  0  0  0
    2.2840   -0.3960    0.5510 C   0  0  0  0  0  0  0  0  0  0  0  0
    5.9830   -0.0930    0.7190 O   0  0  0  0  0  0  0  0  0  0  0  0
  1  2  1  0
  2  3  2  0
  2 30  1  0
  3  4  1  0
  4  5  2  0
  5  6  1  0
  5 30  1  0
  6  7  2  0
  6 29  1  0
  7  8  1  0
  8  9  2  0
  9 10  1  0
  9 28  1  0
 10 11  1  0
 10 15  2  0
 11 12  1  0
 12 13  1  0
 12 14  2  0
 14 15  1  0
 15 16  1  0
 16 17  2  0
 16 18  1  0
 18 19  1  0
 19 20  2  0
 19 26  1  0
 20 21  1  0
 20 22  1  0
 22 23  2  0
 23 24  1  0
 24 25  1  0
 24 26  2  0
 26 27  1  0
 28 29  2  0
M  END
