
     RDKit          3D

 29 31  0  0  0  0  0  0  0  0999 V2000
    8.4610    0.4330    0.8080 C   0  0  0  0  0  0  0  0  0  0  0  0
    6.9870    0.3190    0.6260 C   0  0  0  0  0  0  0  0  0  0  0  0
    6.1890    0.4830    1.7000 N   0  0  0  0  0  0  0  0  0  0  0  0
    4.8770    0.3700    1.5610 C   0  0  0  0  0  0  0  0  0  0  0  0
    4.0580    0.5190    2.6670 C   0  0  0  0  0  0  0  0  0  0  0  0
    2.7260    0.3860    2.5280 C   0  0  0  0  0  0  0  0  0  0  0  0
    2.1400    0.1010    1.2940 C   0  0  0  0  0  0  0  0  0  0  0  0
    0.7340   -0.0150    1.2590 N   0  0  0  0  0  0  0  0  0  0  0  0
   -0.0330    0.6710    0.3740 C   0  0  0  0  0  0  0  0  0  0  0  0
    0.5800    1.4360   -0.4780 O   0  0  0  0  0  0  0  0  0  0  0  0
   -1.3610    0.7300    0.2000 N   0  0  0  0  0  0  0  0  0  0  0  0
   -2.6800    0.8160   -0.0050 C   0  0  0  0  0  0  0  0  0  0  0  0
   -2.9030    1.6510   -0.9700 O   0  0  0  0  0  0  0  0  0  0  0  0
   -3.7530    0.2120    0.5980 N   0  0  0  0  0  0  0  0  0  0  0  0
   -5.0660    0.4990    0.2830 N   0  0  0  0  0  0  0  0  0  0  0  0
   -5.8570    1.2410    1.0980 O   0  0  0  0  0  0  0  0  0  0  0  0
   -5.6490    0.0360   -0.9170 C   0  0  0  0  0  0  0  0  0  0  0  0
   -4.9560    0.2140   -2.1610 N   0  0  0  0  0  0  0  0  0  0  0  0
   -6.8320   -0.5460   -0.8710 C   0  0  0  0  0  0  0  0  0  0  0  0
   -7.6080   -1.0940   -1.9840 C   0  0  0  0  0  0  0  0  0  0  0  0
   -8.6820   -1.6900   -1.5330 C   0  0  0  0  0  0  0  0  0  0  0  0
   -8.7630   -1.6220   -0.0610 C   0  0  0  0  0  0  0  0  0  0  0  0
   -7.6140   -0.7500    0.3750 C   0  0  0  0  0  0  0  0  0  0  0  0
    2.9510   -0.0450    0.2070 C   0  0  0  0  0  0  0  0  0  0  0  0
    4.3380    0.0880    0.3280 C   0  0  0  0  0  0  0  0  0  0  0  0
    5.1420   -0.0780   -0.7630 N   0  0  0  0  0  0  0  0  0  0  0  0
    6.4710    0.0350   -0.6240 C   0  0  0  0  0  0  0  0  0  0  0  0
    7.4390   -0.1330   -1.7690 C   0  0  0  0  0  0  0  0  0  0  0  0
    6.8120   -0.4300   -2.9530 O   0  0  0  0  0  0  0  0  0  0  0  0
  1  2  1  0
  2  3  2  0
  2 27  1  0
  3  4  1  0
  4  5  2  0
  4 25  1  0
  5  6  1  0
  6  7  2  0
  7  8  1  0
  7 24  1  0
  8  9  1  0
  9 10  2  0
  9 11  1  0
 11 12  1  0
 12 13  2  0
 12 14  1  0
 14 15  1  0
 15 16  1  0
 15 17  1  0
 17 18  1  0
 17 19  2  3
 19 20  1  0
 19 23  1  0
 20 21  2  0
 21 22  1  0
 22 23  1  0
 24 25  2  0
 25 26  1  0
 26 27  2  0
 27 28  1  0
 28 29  1  0
M  CHG  2   3   1  16  -1
M  END
