
     RDKit          3D

 29 31  0  0  0  0  0  0  0  0999 V2000
    1.8170   -3.7240    1.1400 C   0  0  0  0  0  0  0  0  0  0  0  0
    0.4750   -3.2260    0.8610 N   0  0  0  0  0  0  0  0  0  0  0  0
   -0.5910   -4.0670    0.7980 N   0  0  0  0  0  0  0  0  0  0  0  0
   -1.6900   -3.3690    0.5860 C   0  0  0  0  0  0  0  0  0  0  0  0
   -1.3000   -2.0540    0.5120 C   0  0  0  0  0  0  0  0  0  0  0  0
   -2.2180   -0.9380    0.2650 C   0  0  0  0  0  0  0  0  0  0  0  0
   -1.8000    0.2170    0.1820 O   0  0  0  0  0  0  0  0  0  0  0  0
   -3.6200   -1.2250    0.1240 N   0  0  0  0  0  0  0  0  0  0  0  0
   -4.5930   -0.2440   -0.1080 C   0  0  0  0  0  0  0  0  0  0  0  0
   -5.8520   -0.6940   -0.5060 C   0  0  0  0  0  0  0  0  0  0  0  0
   -6.8580    0.2110   -0.7340 C   0  0  0  0  0  0  0  0  0  0  0  0
   -6.6810    1.5620   -0.5860 C   0  0  0  0  0  0  0  0  0  0  0  0
   -7.7490    2.4830   -0.8320 N   0  0  0  0  0  0  0  0  0  0  0  0
   -7.5350    3.7900   -0.6770 O   0  0  0  0  0  0  0  0  0  0  0  0
   -5.4470    2.0000   -0.1970 C   0  0  0  0  0  0  0  0  0  0  0  0
   -4.4160    1.0980    0.0390 C   0  0  0  0  0  0  0  0  0  0  0  0
    0.0970   -1.9650    0.6880 C   0  0  0  0  0  0  0  0  0  0  0  0
    0.7860   -0.7450    0.5890 N   0  0  0  0  0  0  0  0  0  0  0  0
    2.1570   -0.5150    0.4230 C   0  0  0  0  0  0  0  0  0  0  0  0
    2.9290   -1.4410    0.2600 O   0  0  0  0  0  0  0  0  0  0  0  0
    2.6950    0.8080    0.4390 N   0  0  0  0  0  0  0  0  0  0  0  0
    4.0430    1.1430    0.2880 C   0  0  0  0  0  0  0  0  0  0  0  0
    5.0720    0.2520    0.3380 C   0  0  0  0  0  0  0  0  0  0  0  0
    6.3940    0.6530    0.1640 C   0  0  0  0  0  0  0  0  0  0  0  0
    6.6430    1.9770   -0.0610 C   0  0  0  0  0  0  0  0  0  0  0  0
    7.9910    2.4040   -0.2420 N   0  0  0  0  0  0  0  0  0  0  0  0
    8.2410    3.5250   -0.7510 O   0  0  0  0  0  0  0  0  0  0  0  0
    5.6220    2.8960   -0.1160 C   0  0  0  0  0  0  0  0  0  0  0  0
    4.3440    2.4810    0.0570 C   0  0  0  0  0  0  0  0  0  0  0  0
  1  2  1  0
  2  3  1  0
  2 17  1  0
  3  4  2  0
  4  5  1  0
  5  6  1  0
  5 17  2  0
  6  7  2  0
  6  8  1  0
  8  9  1  0
  9 10  2  0
  9 16  1  0
 10 11  1  0
 11 12  2  0
 12 13  1  0
 12 15  1  0
 13 14  1  0
 15 16  2  0
 17 18  1  0
 18 19  1  0
 19 20  2  0
 19 21  1  0
 21 22  1  0
 22 23  2  0
 22 29  1  0
 23 24  1  0
 24 25  2  0
 25 26  1  0
 25 28  1  0
 26 27  2  0
 28 29  2  0
M  CHG  2  14  -1  26   1
M  END
