
     RDKit          3D

 30 33  0  0  0  0  0  0  0  0999 V2000
    9.1850   -0.8750   -0.2510 C   0  0  0  0  0  0  0  0  0  0  0  0
    7.8680   -1.2650   -0.7600 C   0  0  0  0  0  0  0  0  0  0  0  0
    7.8070   -2.1180   -1.6780 O   0  0  0  0  0  0  0  0  0  0  0  0
    6.6330   -0.7060   -0.2500 C   0  0  0  0  0  0  0  0  0  0  0  0
    6.5620    0.2520    0.7350 C   0  0  0  0  0  0  0  0  0  0  0  0
    5.3550    0.7630    1.2210 C   0  0  0  0  0  0  0  0  0  0  0  0
    5.3940    1.7250    2.2150 O   0  0  0  0  0  0  0  0  0  0  0  0
    4.1910    0.2580    0.6600 C   0  0  0  0  0  0  0  0  0  0  0  0
    4.2220   -0.7050   -0.3310 C   0  0  0  0  0  0  0  0  0  0  0  0
    5.4210   -1.1720   -0.7730 C   0  0  0  0  0  0  0  0  0  0  0  0
    2.9250   -1.2260   -0.9060 C   0  0  0  0  0  0  0  0  0  0  0  0
    2.1200    0.0710   -1.1550 C   0  0  0  0  0  0  0  0  0  0  0  0
    1.8760    0.7370    0.0890 N   0  0  0  0  0  0  0  0  0  0  0  0
    0.6470    1.4200    0.3470 C   0  0  0  0  0  0  0  0  0  0  0  0
    0.4270    1.9640    1.4610 O   0  0  0  0  0  0  0  0  0  0  0  0
   -0.4010    1.5040   -0.6930 C   0  0  0  0  0  0  0  0  0  0  0  0
   -1.5860    0.6720   -0.4030 C   0  0  0  0  0  0  0  0  0  0  0  0
   -1.4110   -0.6860   -0.2420 C   0  0  0  0  0  0  0  0  0  0  0  0
   -2.4980   -1.4990   -0.0260 C   0  0  0  0  0  0  0  0  0  0  0  0
   -3.7660   -0.9530    0.0270 C   0  0  0  0  0  0  0  0  0  0  0  0
   -4.8840   -1.7360    0.2240 C   0  0  0  0  0  0  0  0  0  0  0  0
   -6.1650   -1.2340    0.2660 C   0  0  0  0  0  0  0  0  0  0  0  0
   -7.3490   -2.0940    0.4750 C   0  0  0  0  0  0  0  0  0  0  0  0
   -6.3650    0.1390    0.1040 C   0  0  0  0  0  0  0  0  0  0  0  0
   -7.7600    0.6730    0.1480 C   0  0  0  0  0  0  0  0  0  0  0  0
   -5.2560    0.9300   -0.0920 C   0  0  0  0  0  0  0  0  0  0  0  0
   -5.4230    2.3960   -0.2790 C   0  0  0  0  0  0  0  0  0  0  0  0
   -3.9780    0.4100   -0.1320 C   0  0  0  0  0  0  0  0  0  0  0  0
   -2.8460    1.2070   -0.3480 C   0  0  0  0  0  0  0  0  0  0  0  0
    2.8870    0.7400    1.1230 C   0  0  0  0  0  0  0  0  0  0  0  0
  1  2  1  0
  2  3  2  0
  2  4  1  0
  4  5  2  0
  4 10  1  0
  5  6  1  0
  6  7  1  0
  6  8  2  0
  8  9  1  0
  8 30  1  0
  9 10  2  0
  9 11  1  0
 11 12  1  0
 12 13  1  0
 13 14  1  0
 13 30  1  0
 14 15  2  0
 14 16  1  0
 16 17  1  0
 17 18  2  0
 17 29  1  0
 18 19  1  0
 19 20  2  0
 20 21  1  0
 20 28  1  0
 21 22  2  0
 22 23  1  0
 22 24  1  0
 24 25  1  0
 24 26  2  0
 26 27  1  0
 26 28  1  0
 28 29  2  0
M  END
