
     RDKit          3D

 30 32  0  0  0  0  0  0  0  0999 V2000
   -1.8820   -1.3070   -1.0540 C   0  0  0  0  0  0  0  0  0  0  0  0
   -1.9260   -2.2700    0.1120 C   0  0  0  0  0  0  0  0  0  0  0  0
   -0.7450   -3.1400    0.1460 C   0  0  0  0  0  0  0  0  0  0  0  0
    0.4390   -2.5600    0.6140 C   0  0  0  0  0  0  0  0  0  0  0  0
    0.5030   -1.1640    0.9390 C   0  0  0  0  0  0  0  0  0  0  0  0
    0.7210   -0.6470    2.1000 C   0  0  0  0  0  0  0  0  0  0  0  0
    0.7550    0.7720    2.1860 O   0  0  0  0  0  0  0  0  0  0  0  0
    0.9710    1.4860    3.3230 C   0  0  0  0  0  0  0  0  0  0  0  0
    0.9980    2.9280    3.3620 C   0  0  0  0  0  0  0  0  0  0  0  0
    0.8260    3.7470    2.3970 C   0  0  0  0  0  0  0  0  0  0  0  0
    0.5590    3.4690    1.0150 C   0  0  0  0  0  0  0  0  0  0  0  0
    0.4400    2.3380    0.5010 O   0  0  0  0  0  0  0  0  0  0  0  0
    0.4020    4.5560    0.0680 N   0  0  0  0  0  0  0  0  0  0  0  0
    0.1310    4.3980   -1.2870 C   0  0  0  0  0  0  0  0  0  0  0  0
   -0.4790    3.3170   -1.8440 C   0  0  0  0  0  0  0  0  0  0  0  0
   -0.6860    3.1900   -3.2080 C   0  0  0  0  0  0  0  0  0  0  0  0
   -0.2620    4.1920   -4.0360 C   0  0  0  0  0  0  0  0  0  0  0  0
   -0.4620    4.1050   -5.5010 C   0  0  0  0  0  0  0  0  0  0  0  0
    0.3680    5.3230   -3.5190 C   0  0  0  0  0  0  0  0  0  0  0  0
    0.5580    5.4180   -2.1600 C   0  0  0  0  0  0  0  0  0  0  0  0
    1.1760    0.8230    4.5030 C   0  0  0  0  0  0  0  0  0  0  0  0
    1.1480   -0.6260    4.4630 C   0  0  0  0  0  0  0  0  0  0  0  0
    0.9300   -1.3280    3.3200 C   0  0  0  0  0  0  0  0  0  0  0  0
    0.8630   -2.7760    3.4770 C   0  0  0  0  0  0  0  0  0  0  0  0
    1.5480   -3.4180    0.6310 C   0  0  0  0  0  0  0  0  0  0  0  0
    1.4980   -4.7280    0.2240 C   0  0  0  0  0  0  0  0  0  0  0  0
    0.2740   -5.2150   -0.2270 C   0  0  0  0  0  0  0  0  0  0  0  0
    0.1500   -6.5390   -0.6570 O   0  0  0  0  0  0  0  0  0  0  0  0
   -0.8520   -4.4260   -0.2680 C   0  0  0  0  0  0  0  0  0  0  0  0
   -2.1330   -4.9520   -0.7440 C   0  0  0  0  0  0  0  0  0  0  0  0
  1  2  1  0
  2  3  1  0
  3  4  2  0
  3 29  1  0
  4  5  1  0
  4 25  1  0
  5  6  2  3
  6  7  1  0
  6 23  1  0
  7  8  1  0
  8  9  1  0
  8 21  2  0
  9 10  2  3
 10 11  1  0
 11 12  2  0
 11 13  1  0
 13 14  1  0
 14 15  2  0
 14 20  1  0
 15 16  1  0
 16 17  2  0
 17 18  1  0
 17 19  1  0
 19 20  2  0
 21 22  1  0
 22 23  2  0
 23 24  1  0
 25 26  2  0
 26 27  1  0
 27 28  1  0
 27 29  2  0
 29 30  1  0
M  END
