
     RDKit          3D

 29 31  0  0  0  0  0  0  0  0999 V2000
    3.7480    1.0960   -0.3840 O   0  0  0  0  0  0  0  0  0  0  0  0
    3.9860    0.3260    0.5650 C   0  0  0  0  0  0  0  0  0  0  0  0
    2.8770    0.1130    1.4840 N   0  0  0  0  0  0  0  0  0  0  0  0
    1.6660    0.7620    1.2520 N   0  0  0  0  0  0  0  0  0  0  0  0
    0.4580    0.0210    1.0090 C   0  0  0  0  0  0  0  0  0  0  0  0
    0.5650   -1.2070    1.0220 O   0  0  0  0  0  0  0  0  0  0  0  0
   -0.7740    0.6390    0.7690 N   0  0  0  0  0  0  0  0  0  0  0  0
   -2.0040   -0.0100    0.5240 C   0  0  0  0  0  0  0  0  0  0  0  0
   -2.2450   -1.3370    0.5880 C   0  0  0  0  0  0  0  0  0  0  0  0
   -3.5170   -1.8550    0.3070 C   0  0  0  0  0  0  0  0  0  0  0  0
   -3.7230   -3.2900    0.3910 C   0  0  0  0  0  0  0  0  0  0  0  0
   -4.7360   -3.9450    0.1900 N   0  0  0  0  0  0  0  0  0  0  0  0
   -5.9910   -3.9190   -0.1390 O   0  0  0  0  0  0  0  0  0  0  0  0
   -4.4940   -1.0100   -0.0280 N   0  0  0  0  0  0  0  0  0  0  0  0
   -5.7520   -1.4700   -0.3110 O   0  0  0  0  0  0  0  0  0  0  0  0
   -4.3320    0.3310   -0.1140 C   0  0  0  0  0  0  0  0  0  0  0  0
   -5.3740    1.2690   -0.4750 C   0  0  0  0  0  0  0  0  0  0  0  0
   -6.6730    0.9930   -0.7890 C   0  0  0  0  0  0  0  0  0  0  0  0
   -7.2730    2.2340   -1.0640 C   0  0  0  0  0  0  0  0  0  0  0  0
   -6.3850    3.2100   -0.9260 N   0  0  0  0  0  0  0  0  0  0  0  0
   -5.2210    2.6290   -0.5660 C   0  0  0  0  0  0  0  0  0  0  0  0
   -3.0710    0.8030    0.1690 C   0  0  0  0  0  0  0  0  0  0  0  0
    5.2180   -0.3060    0.7620 N   0  0  0  0  0  0  0  0  0  0  0  0
    6.3200   -0.1190   -0.1060 C   0  0  0  0  0  0  0  0  0  0  0  0
    7.3640   -1.0610   -0.0500 C   0  0  0  0  0  0  0  0  0  0  0  0
    8.4630   -0.9170   -0.8520 C   0  0  0  0  0  0  0  0  0  0  0  0
    8.6140    0.1300   -1.7400 C   0  0  0  0  0  0  0  0  0  0  0  0
    7.6010    1.0620   -1.8070 C   0  0  0  0  0  0  0  0  0  0  0  0
    6.4750    0.9150   -0.9850 C   0  0  0  0  0  0  0  0  0  0  0  0
  1  2  2  0
  2  3  1  0
  2 23  1  0
  3  4  1  0
  4  5  1  0
  5  6  2  0
  5  7  1  0
  7  8  1  0
  8  9  2  0
  8 22  1  0
  9 10  1  0
 10 11  1  0
 10 14  2  0
 11 12  2  3
 12 13  1  0
 14 15  1  0
 14 16  1  0
 16 17  1  0
 16 22  2  0
 17 18  1  0
 17 21  2  0
 18 19  2  0
 19 20  1  0
 20 21  1  0
 23 24  1  0
 24 25  2  0
 24 29  1  0
 25 26  1  0
 26 27  2  0
 27 28  1  0
 28 29  2  0
M  CHG  2  14   1  15  -1
M  END
