
     RDKit          3D

 34 35  0  0  0  0  0  0  0  0999 V2000
   -6.6520   -2.8340    0.3910 C   0  0  0  0  0  0  0  0  0  0  0  0
   -5.9240   -1.9850   -0.6280 C   0  0  0  0  0  0  0  0  0  0  0  0
   -5.4430   -2.7780   -1.6780 O   0  0  0  0  0  0  0  0  0  0  0  0
   -4.6310   -1.7070   -2.7780 P   0  0  0  0  0  0  0  0  0  0  0  0
   -5.3670   -0.1380   -2.6670 O   0  0  0  0  0  0  0  0  0  0  0  0
   -2.9780   -1.5950   -2.2590 O   0  0  0  0  0  0  0  0  0  0  0  0
   -2.5940   -0.2530   -2.1360 C   0  0  0  0  0  0  0  0  0  0  0  0
   -1.1480   -0.2620   -1.6820 C   0  0  1  0  0  0  0  0  0  0  0  0
   -0.6350    1.0000   -1.5200 O   0  0  0  0  0  0  0  0  0  0  0  0
    0.2460    0.8680   -0.3880 C   0  0  1  0  0  0  0  0  0  0  0  0
    1.4000    0.0250   -0.7950 C   0  0  0  0  0  0  0  0  0  0  0  0
    2.4170   -0.2440    0.2230 C   0  0  1  0  0  0  0  0  0  0  0  0
    3.4410   -1.0810   -0.2850 O   0  0  0  0  0  0  0  0  0  0  0  0
    3.0190   -2.3120   -0.6970 C   0  0  0  0  0  0  0  0  0  0  0  0
    4.2820   -3.0670   -1.1590 C   0  0  0  0  0  0  0  0  0  0  0  0
    3.8810   -4.4300   -1.6230 C   0  0  0  0  0  0  0  0  0  0  0  0
    2.6820   -4.7650   -1.5860 O   0  0  0  0  0  0  0  0  0  0  0  0
    4.7920   -5.3390   -2.0960 O   0  0  0  0  0  0  0  0  0  0  0  0
    3.0780    0.9540    0.5860 O   0  0  0  0  0  0  0  0  0  0  0  0
    3.7590    0.6240    1.7560 C   0  0  0  0  0  0  0  0  0  0  0  0
    3.1250   -0.6600    2.1980 C   0  0  1  0  0  0  0  0  0  0  0  0
    2.8090   -0.6160    3.6820 C   0  0  0  0  0  0  0  0  0  0  0  0
    1.9720   -0.7570    1.4340 O   0  0  0  0  0  0  0  0  0  0  0  0
    0.5880    2.1910    0.1260 C   0  0  0  0  0  0  0  0  0  0  0  0
    1.1820    2.4010    1.1990 O   0  0  0  0  0  0  0  0  0  0  0  0
    0.2330    3.2820   -0.6200 O   0  0  0  0  0  0  0  0  0  0  0  0
    0.3610    4.6240   -0.4700 C   0  0  0  0  0  0  0  0  0  0  0  0
   -0.4570    5.2180    0.6300 C   0  0  0  0  0  0  0  0  0  0  0  0
   -0.0410    4.6000    2.2890 P   0  0  0  0  0  0  0  0  0  0  0  0
   -1.4240    4.2530    3.2700 O   0  0  0  0  0  0  0  0  0  0  0  0
    1.0360    5.7140    3.0640 O   0  0  0  0  0  0  0  0  0  0  0  0
   -0.5850    0.1290    0.4800 O   0  0  0  0  0  0  0  0  0  0  0  0
   -1.1340   -0.8780   -0.3280 C   0  0  0  0  0  0  0  0  0  0  0  0
   -1.5270   -2.0280   -0.0140 O   0  0  0  0  0  0  0  0  0  0  0  0
  1  2  1  0
  2  3  1  0
  3  4  1  0
  4  5  1  0
  4  6  1  0
  6  7  1  0
  8  7  1  1
  8  9  1  0
  8 33  1  0
  9 10  1  0
 10 11  1  6
 10 24  1  0
 10 32  1  0
 12 11  1  6
 12 13  1  0
 12 19  1  0
 12 23  1  0
 13 14  1  0
 14 15  1  0
 15 16  1  0
 16 17  2  0
 16 18  1  0
 19 20  1  0
 20 21  1  0
 21 22  1  1
 21 23  1  0
 24 25  2  0
 24 26  1  0
 26 27  1  0
 27 28  1  0
 28 29  1  0
 29 30  1  0
 29 31  1  0
 32 33  1  0
 33 34  2  0
M  END
