
     RDKit          3D

 39 41  0  0  0  0  0  0  0  0999 V2000
   -1.6050   -5.6720   -1.2540 C   0  0  0  0  0  0  0  0  0  0  0  0
   -2.0960   -4.3900   -1.4370 O   0  0  0  0  0  0  0  0  0  0  0  0
   -1.2040   -3.3670   -0.4480 P   0  0  2  0  0  0  0  0  0  0  0  0
    0.1640   -3.2070   -1.0190 O   0  0  0  0  0  0  0  0  0  0  0  0
   -1.1030   -4.0670    1.0810 O   0  0  0  0  0  0  0  0  0  0  0  0
   -2.0420   -1.6960   -0.3200 C   0  0  1  0  0  0  0  0  0  0  0  0
   -2.7240   -1.6250   -1.5290 O   0  0  0  0  0  0  0  0  0  0  0  0
   -2.9780   -1.9060    0.8080 C   0  0  0  0  0  0  0  0  0  0  0  0
   -4.3390   -2.1290    0.5620 C   0  0  0  0  0  0  0  0  0  0  0  0
   -5.1950   -2.3270    1.5960 C   0  0  0  0  0  0  0  0  0  0  0  0
   -4.7900   -2.3210    2.9080 C   0  0  0  0  0  0  0  0  0  0  0  0
   -3.4690   -2.1060    3.1840 C   0  0  0  0  0  0  0  0  0  0  0  0
   -2.5810   -1.9010    2.1080 C   0  0  0  0  0  0  0  0  0  0  0  0
   -0.9890   -0.7100   -0.1250 C   0  0  0  0  0  0  0  0  0  0  0  0
    0.3370   -1.0630    1.0760 S   0  0  0  0  0  0  0  0  0  0  0  0
    1.2520    0.3980    0.7510 C   0  0  0  0  0  0  0  0  0  0  0  0
    2.5430    0.7690    1.3870 C   0  0  0  0  0  0  0  0  0  0  0  0
    3.7210    0.4030    0.5320 C   0  0  0  0  0  0  0  0  0  0  0  0
    4.9020    0.7950    1.1910 O   0  0  0  0  0  0  0  0  0  0  0  0
    6.2440    0.3940    0.2390 P   0  0  1  0  0  0  0  0  0  0  0  0
    6.6790   -1.0250    0.4250 O   0  0  0  0  0  0  0  0  0  0  0  0
    5.8150    0.6030   -1.4020 O   0  0  0  0  0  0  0  0  0  0  0  0
    7.5390    1.4140    0.6170 O   0  0  0  0  0  0  0  0  0  0  0  0
    9.0110    0.6290    0.4330 P   0  0  1  0  0  0  0  0  0  0  0  0
    8.8590   -0.5200   -0.5400 O   0  0  0  0  0  0  0  0  0  0  0  0
   10.1610    1.7400   -0.1230 O   0  0  0  0  0  0  0  0  0  0  0  0
    9.5670    0.0100    1.8950 O   0  0  0  0  0  0  0  0  0  0  0  0
    0.5080    1.0180   -0.2060 C   0  0  0  0  0  0  0  0  0  0  0  0
    1.0090    2.3700   -0.7290 C   0  0  0  0  0  0  0  0  0  0  0  0
   -0.6120    0.4680   -0.6470 N   0  0  0  0  0  0  0  0  0  0  0  0
   -1.3930    1.0730   -1.7800 C   0  0  0  0  0  0  0  0  0  0  0  0
   -2.2170    2.2210   -1.4390 C   0  0  0  0  0  0  0  0  0  0  0  0
   -1.7830    3.4660   -1.9110 C   0  0  0  0  0  0  0  0  0  0  0  0
   -2.4980    4.5620   -1.6610 N   0  0  0  0  0  0  0  0  0  0  0  0
   -3.6440    4.4990   -0.9570 C   0  0  0  0  0  0  0  0  0  0  0  0
   -4.4550    5.7220   -0.6690 C   0  0  0  0  0  0  0  0  0  0  0  0
   -4.0690    3.3180   -0.5030 N   0  0  0  0  0  0  0  0  0  0  0  0
   -3.3740    2.2080   -0.7380 C   0  0  0  0  0  0  0  0  0  0  0  0
   -3.9460    1.0030   -0.2110 N   0  0  0  0  0  0  0  0  0  0  0  0
  1  2  1  0
  2  3  1  0
  3  4  2  0
  3  5  1  1
  3  6  1  0
  6  7  1  6
  6  8  1  0
  6 14  1  0
  8  9  2  0
  8 13  1  0
  9 10  1  0
 10 11  2  0
 11 12  1  0
 12 13  2  0
 14 15  1  0
 14 30  2  0
 15 16  1  0
 16 17  1  0
 16 28  2  0
 17 18  1  0
 18 19  1  0
 19 20  1  0
 20 21  2  0
 20 22  1  6
 20 23  1  0
 23 24  1  0
 24 25  2  0
 24 26  1  6
 24 27  1  0
 28 29  1  0
 28 30  1  0
 30 31  1  0
 31 32  1  0
 32 33  2  0
 32 38  1  0
 33 34  1  0
 34 35  2  0
 35 36  1  0
 35 37  1  0
 37 38  2  0
 38 39  1  0
M  CHG  1  30   1
M  END
