
     RDKit          3D

 34 35  0  0  0  0  0  0  0  0999 V2000
   -4.6200   -4.1910   -0.7870 C   0  0  0  0  0  0  0  0  0  0  0  0
   -4.3180   -2.8740   -1.2220 O   0  0  0  0  0  0  0  0  0  0  0  0
   -4.8530   -1.7540   -0.6050 C   0  0  0  0  0  0  0  0  0  0  0  0
   -5.6250   -1.9150    0.3640 O   0  0  0  0  0  0  0  0  0  0  0  0
   -4.4690   -0.4320   -1.1420 C   0  0  2  0  0  0  0  0  0  0  0  0
   -2.9720   -0.2180   -1.0670 C   0  0  0  0  0  0  0  0  0  0  0  0
   -2.6800    1.0420   -1.5870 O   0  0  0  0  0  0  0  0  0  0  0  0
   -0.9910    1.2970   -1.5070 P   0  0  0  0  0  0  0  0  0  0  0  0
   -0.2910    1.7980   -2.9910 O   0  0  0  0  0  0  0  0  0  0  0  0
   -0.1240    0.0560   -0.7160 O   0  0  0  0  0  0  0  0  0  0  0  0
    1.0000   -0.3450   -1.4390 C   0  0  0  0  0  0  0  0  0  0  0  0
    1.7600   -1.4380   -0.7380 C   0  0  2  0  0  0  0  0  0  0  0  0
    0.8430   -2.6390   -0.6470 C   0  0  0  0  0  0  0  0  0  0  0  0
    2.2140   -1.0580    0.5110 O   0  0  0  0  0  0  0  0  0  0  0  0
    3.5700   -1.2470    0.5470 C   0  0  2  0  0  0  0  0  0  0  0  0
    3.9910   -2.5490    1.1870 C   0  0  0  0  0  0  0  0  0  0  0  0
    4.1080   -2.2060    2.5210 O   0  0  0  0  0  0  0  0  0  0  0  0
    4.9500   -1.0840    2.4470 C   0  0  0  0  0  0  0  0  0  0  0  0
    4.3000   -0.2270    1.3830 C   0  0  1  0  0  0  0  0  0  0  0  0
    5.3080    0.4130    0.6770 O   0  0  0  0  0  0  0  0  0  0  0  0
    5.1780    1.8150    0.8000 C   0  0  0  0  0  0  0  0  0  0  0  0
    6.2950    2.4540    0.0160 C   0  0  0  0  0  0  0  0  0  0  0  0
    6.1490    4.3060    0.1610 P   0  0  0  0  0  0  0  0  0  0  0  0
    7.3090    5.0870    0.8410 O   0  0  0  0  0  0  0  0  0  0  0  0
    4.0390   -1.2700   -0.7890 O   0  0  0  0  0  0  0  0  0  0  0  0
    2.9700   -1.7280   -1.5420 C   0  0  0  0  0  0  0  0  0  0  0  0
    3.0110   -2.2720   -2.6660 O   0  0  0  0  0  0  0  0  0  0  0  0
   -5.1070    0.6790   -0.3710 C   0  0  0  0  0  0  0  0  0  0  0  0
   -5.8510    0.4140    0.5850 O   0  0  0  0  0  0  0  0  0  0  0  0
   -4.8630    1.9830   -0.7300 O   0  0  0  0  0  0  0  0  0  0  0  0
   -5.4080    3.1090   -0.0750 C   0  0  0  0  0  0  0  0  0  0  0  0
   -4.9500    3.1090    1.3640 C   0  0  0  0  0  0  0  0  0  0  0  0
   -5.5130    4.2470    1.9840 O   0  0  0  0  0  0  0  0  0  0  0  0
   -5.0840    4.2030    3.2410 O   0  0  0  0  0  0  0  0  0  0  0  0
  1  2  1  0
  2  3  1  0
  3  4  2  0
  3  5  1  0
  5  6  1  1
  5 28  1  0
  6  7  1  0
  7  8  1  0
  8  9  1  0
  8 10  1  0
 10 11  1  0
 11 12  1  0
 12 13  1  1
 12 14  1  0
 12 26  1  0
 14 15  1  0
 15 16  1  1
 15 19  1  0
 15 25  1  0
 16 17  1  0
 17 18  1  0
 18 19  1  0
 19 20  1  6
 20 21  1  0
 21 22  1  0
 22 23  1  0
 23 24  2  0
 25 26  1  0
 26 27  2  0
 28 29  2  0
 28 30  1  0
 30 31  1  0
 31 32  1  0
 32 33  1  0
 33 34  1  0
M  END
