
     RDKit          3D

 34 34  0  0  0  0  0  0  0  0999 V2000
   -4.8490   -2.8160   -2.3400 C   0  0  0  0  0  0  0  0  0  0  0  0
   -4.3210   -1.5070   -2.8540 C   0  0  0  0  0  0  0  0  0  0  0  0
   -3.6360   -0.8560   -1.8020 O   0  0  0  0  0  0  0  0  0  0  0  0
   -2.5590   -1.4690   -1.2290 C   0  0  0  0  0  0  0  0  0  0  0  0
   -2.1980   -2.5970   -1.6490 O   0  0  0  0  0  0  0  0  0  0  0  0
   -1.7660   -0.8710   -0.1130 C   0  0  2  0  0  0  0  0  0  0  0  0
   -2.3580    0.3820    0.1800 O   0  0  0  0  0  0  0  0  0  0  0  0
   -2.9090    0.6760    1.4120 C   0  0  0  0  0  0  0  0  0  0  0  0
   -2.8680   -0.2250    2.2890 O   0  0  0  0  0  0  0  0  0  0  0  0
   -3.5350    1.9570    1.7720 C   0  0  2  0  0  0  0  0  0  0  0  0
   -4.9910    1.6640    2.1250 C   0  0  0  0  0  0  0  0  0  0  0  0
   -5.8470    2.6360    1.6430 O   0  0  0  0  0  0  0  0  0  0  0  0
   -5.8570    2.5070    0.2380 C   0  0  0  0  0  0  0  0  0  0  0  0
   -4.4480    2.5990   -0.2560 C   0  0  0  0  0  0  0  0  0  0  0  0
   -3.5340    2.8800    0.7550 O   0  0  0  0  0  0  0  0  0  0  0  0
   -0.3250   -0.7310   -0.5600 C   0  0  1  0  0  0  0  0  0  0  0  0
    0.5260   -0.1280    0.5380 C   0  0  0  0  0  0  0  0  0  0  0  0
    1.8030   -0.0190    0.1020 O   0  0  0  0  0  0  0  0  0  0  0  0
    2.7380    0.4980    0.9270 C   0  0  1  0  0  0  0  0  0  0  0  0
    3.8600   -0.4220    1.3120 C   0  0  0  0  0  0  0  0  0  0  0  0
    4.6570   -0.9180    0.1400 C   0  0  0  0  0  0  0  0  0  0  0  0
    5.2480    0.0890   -0.5820 O   0  0  0  0  0  0  0  0  0  0  0  0
    6.1600   -0.4530   -1.9230 P   0  0  0  0  0  0  0  0  0  0  0  0
    7.8580   -0.5370   -1.4860 O   0  0  0  0  0  0  0  0  0  0  0  0
    5.6710   -2.0900   -2.2820 O   0  0  0  0  0  0  0  0  0  0  0  0
    3.2300    1.8150    0.3820 C   0  0  0  0  0  0  0  0  0  0  0  0
    4.2000    2.3920    1.1980 O   0  0  0  0  0  0  0  0  0  0  0  0
    4.7830    3.8840    0.6160 P   0  0  0  0  0  0  0  0  0  0  0  0
    4.1910    5.2480    1.4710 O   0  0  0  0  0  0  0  0  0  0  0  0
    6.4950    3.9170    0.3880 O   0  0  0  0  0  0  0  0  0  0  0  0
    0.1460   -2.1000   -0.9160 C   0  0  0  0  0  0  0  0  0  0  0  0
    0.5550   -2.4020   -2.0620 O   0  0  0  0  0  0  0  0  0  0  0  0
    0.1130   -3.0520    0.1000 O   0  0  0  0  0  0  0  0  0  0  0  0
    0.5360   -4.3690   -0.1360 C   0  0  0  0  0  0  0  0  0  0  0  0
  1  2  1  0
  2  3  1  0
  3  4  1  0
  4  5  2  0
  4  6  1  0
  6  7  1  6
  6 16  1  0
  7  8  1  0
  8  9  2  0
 10  8  1  6
 10 11  1  0
 10 15  1  0
 11 12  1  0
 12 13  1  0
 13 14  1  0
 14 15  1  0
 16 17  1  1
 16 31  1  0
 17 18  1  0
 18 19  1  0
 19 20  1  6
 19 26  1  0
 20 21  1  0
 21 22  1  0
 22 23  1  0
 23 24  1  0
 23 25  1  0
 26 27  1  0
 27 28  1  0
 28 29  1  0
 28 30  1  0
 31 32  2  0
 31 33  1  0
 33 34  1  0
M  END
