
     RDKit          3D

 34 34  0  0  0  0  0  0  0  0999 V2000
   -3.4830    3.3380   -2.6330 C   0  0  0  0  0  0  0  0  0  0  0  0
   -3.1900    2.0750   -2.0670 O   0  0  0  0  0  0  0  0  0  0  0  0
   -1.8920    1.5960   -2.1490 C   0  0  0  0  0  0  0  0  0  0  0  0
   -1.0350    2.3120   -2.7260 O   0  0  0  0  0  0  0  0  0  0  0  0
   -1.4650    0.3000   -1.6000 C   0  0  1  0  0  0  0  0  0  0  0  0
   -2.2080   -0.7750   -2.4090 C   0  0  0  0  0  0  0  0  0  0  0  0
   -0.1040    0.1010   -1.8390 O   0  0  0  0  0  0  0  0  0  0  0  0
    0.9120    0.9090   -1.3890 C   0  0  0  0  0  0  0  0  0  0  0  0
    0.6070    1.9180   -0.7030 O   0  0  0  0  0  0  0  0  0  0  0  0
    2.3570    0.6610   -1.6680 C   0  0  2  0  0  0  0  0  0  0  0  0
    2.5640   -0.4620   -2.4220 O   0  0  0  0  0  0  0  0  0  0  0  0
    3.2900   -0.1860   -3.5960 C   0  0  0  0  0  0  0  0  0  0  0  0
    3.4860   -1.4780   -4.3920 C   0  0  1  0  0  0  0  0  0  0  0  0
    4.1930   -2.4230   -3.6330 O   0  0  0  0  0  0  0  0  0  0  0  0
    1.8500   -2.2180   -4.8350 P   0  0  0  0  0  0  0  0  0  0  0  0
    1.1550   -3.2930   -3.9780 O   0  0  0  0  0  0  0  0  0  0  0  0
    3.1010    0.4910   -0.3780 C   0  0  0  0  0  0  0  0  0  0  0  0
    3.0840    1.3820    0.5100 O   0  0  0  0  0  0  0  0  0  0  0  0
    3.8370   -0.6540   -0.1130 O   0  0  0  0  0  0  0  0  0  0  0  0
    4.5310   -0.8170    1.0860 C   0  0  0  0  0  0  0  0  0  0  0  0
    3.6910   -0.7860    2.3200 C   0  0  0  0  0  0  0  0  0  0  0  0
    4.6380   -0.9810    3.5080 C   0  0  0  0  0  0  0  0  0  0  0  0
    5.2600   -2.2260    3.3250 O   0  0  0  0  0  0  0  0  0  0  0  0
    6.0960   -2.4860    4.2990 O   0  0  0  0  0  0  0  0  0  0  0  0
   -1.8420    0.1230   -0.1810 C   0  0  0  0  0  0  0  0  0  0  0  0
   -1.0480   -0.1770    0.7460 O   0  0  0  0  0  0  0  0  0  0  0  0
   -3.1610    0.2890    0.2100 O   0  0  0  0  0  0  0  0  0  0  0  0
   -3.6170    0.1440    1.5220 C   0  0  1  0  0  0  0  0  0  0  0  0
   -4.1960    1.3910    2.1040 C   0  0  0  0  0  0  0  0  0  0  0  0
   -4.1320    1.5080    3.4520 O   0  0  0  0  0  0  0  0  0  0  0  0
   -3.9720    0.3580    4.1700 C   0  0  0  0  0  0  0  0  0  0  0  0
   -5.1640   -0.9050    3.4460 P   0  0  0  0  0  0  0  0  0  0  0  0
   -6.7840   -0.3740    3.5740 O   0  0  0  0  0  0  0  0  0  0  0  0
   -4.5870   -1.0230    1.6740 C   0  0  0  0  0  0  0  0  0  0  0  0
  1  2  1  0
  2  3  1  0
  3  4  2  0
  3  5  1  0
  5  6  1  6
  5  7  1  0
  5 25  1  0
  7  8  1  0
  8  9  2  0
  8 10  1  0
 10 11  1  6
 10 17  1  0
 11 12  1  0
 12 13  1  0
 13 14  1  1
 13 15  1  0
 15 16  2  0
 17 18  2  0
 17 19  1  0
 19 20  1  0
 20 21  1  0
 21 22  1  0
 22 23  1  0
 23 24  1  0
 25 26  2  0
 25 27  1  0
 28 27  1  6
 28 29  1  0
 28 34  1  0
 29 30  1  0
 30 31  1  0
 31 32  1  0
 32 33  1  0
 32 34  1  0
M  END
