
     RDKit          3D

 34 34  0  0  0  0  0  0  0  0999 V2000
   -0.5120    6.1550   -0.6730 C   0  0  0  0  0  0  0  0  0  0  0  0
   -0.2190    4.7990   -1.0390 O   0  0  0  0  0  0  0  0  0  0  0  0
   -0.5240    3.8160   -0.1230 C   0  0  0  0  0  0  0  0  0  0  0  0
   -1.0440    4.1330    0.9910 O   0  0  0  0  0  0  0  0  0  0  0  0
   -0.2980    2.4600   -0.3350 O   0  0  0  0  0  0  0  0  0  0  0  0
   -0.6290    1.4830    0.6380 C   0  0  0  0  0  0  0  0  0  0  0  0
   -0.2480    0.1350    0.0680 C   0  0  2  0  0  0  0  0  0  0  0  0
    1.2330    0.1700   -0.2020 C   0  0  0  0  0  0  0  0  0  0  0  0
    1.7030   -0.0000   -1.3530 O   0  0  0  0  0  0  0  0  0  0  0  0
    2.1520    0.3910    0.8090 O   0  0  0  0  0  0  0  0  0  0  0  0
    3.5370    0.4430    0.6740 C   0  0  1  0  0  0  0  0  0  0  0  0
    4.0060    1.5250   -0.2710 C   0  0  0  0  0  0  0  0  0  0  0  0
    4.0710    0.8660    2.0550 C   0  0  0  0  0  0  0  0  0  0  0  0
    4.2090   -0.8510    0.3590 C   0  0  0  0  0  0  0  0  0  0  0  0
    3.8200   -1.4550   -0.8130 O   0  0  0  0  0  0  0  0  0  0  0  0
    4.7300   -2.9340   -0.9670 P   0  0  0  0  0  0  0  0  0  0  0  0
    5.4450   -3.3740    0.5650 O   0  0  0  0  0  0  0  0  0  0  0  0
    3.6940   -4.2530   -1.4370 O   0  0  0  0  0  0  0  0  0  0  0  0
   -1.0280   -0.1500   -1.1690 C   0  0  0  0  0  0  0  0  0  0  0  0
   -2.2470   -0.9750   -0.8130 C   0  0  2  0  0  0  0  0  0  0  0  0
   -2.7700   -0.4560    0.3560 O   0  0  0  0  0  0  0  0  0  0  0  0
   -4.0860   -0.0770    0.2530 C   0  0  0  0  0  0  0  0  0  0  0  0
   -4.4990    0.4710    1.6260 C   0  0  0  0  0  0  0  0  0  0  0  0
   -6.2780    0.9920    1.5160 P   0  0  0  0  0  0  0  0  0  0  0  0
   -6.8140    1.4130    3.1200 O   0  0  0  0  0  0  0  0  0  0  0  0
   -7.2250   -0.2760    0.8520 O   0  0  0  0  0  0  0  0  0  0  0  0
   -1.7240   -2.3730   -0.4870 C   0  0  1  0  0  0  0  0  0  0  0  0
   -1.1800   -3.0010   -1.6880 C   0  0  0  0  0  0  0  0  0  0  0  0
   -1.9080   -3.2040   -2.6840 O   0  0  0  0  0  0  0  0  0  0  0  0
    0.1450   -3.3840   -1.7530 O   0  0  0  0  0  0  0  0  0  0  0  0
    0.6370   -3.9900   -2.9340 C   0  0  0  0  0  0  0  0  0  0  0  0
   -0.7670   -2.2180    0.5430 O   0  0  0  0  0  0  0  0  0  0  0  0
   -0.4710   -0.9610    1.0450 C   0  0  0  0  0  0  0  0  0  0  0  0
   -0.3800   -0.6880    2.2700 O   0  0  0  0  0  0  0  0  0  0  0  0
  1  2  1  0
  2  3  1  0
  3  4  2  0
  3  5  1  0
  5  6  1  0
  7  6  1  1
  7  8  1  0
  7 19  1  0
  7 33  1  0
  8  9  2  0
  8 10  1  0
 10 11  1  0
 11 12  1  6
 11 13  1  0
 11 14  1  0
 14 15  1  0
 15 16  1  0
 16 17  1  0
 16 18  1  0
 19 20  1  0
 20 21  1  1
 20 27  1  0
 21 22  1  0
 22 23  1  0
 23 24  1  0
 24 25  1  0
 24 26  1  0
 27 28  1  6
 27 32  1  0
 28 29  2  0
 28 30  1  0
 30 31  1  0
 32 33  1  0
 33 34  2  0
M  END
