
     RDKit          3D

 21 20  0  0  0  0  0  0  0  0999 V2000
    5.7390   -1.8130   -1.5690 C   0  0  0  0  0  0  0  0  0  0  0  0
    5.4640   -0.9620   -0.4840 O   0  0  0  0  0  0  0  0  0  0  0  0
    4.2070   -0.9510    0.1470 C   0  0  0  0  0  0  0  0  0  0  0  0
    3.3430   -1.7420   -0.3100 O   0  0  0  0  0  0  0  0  0  0  0  0
    3.9690   -0.0810    1.2340 N   0  0  0  0  0  0  0  0  0  0  0  0
    2.6820   -0.0740    1.8750 C   0  0  0  0  0  0  0  0  0  0  0  0
    1.6420    0.2950    0.8780 C   0  0  0  0  0  0  0  0  0  0  0  0
    2.0200    0.5340   -0.3090 O   0  0  0  0  0  0  0  0  0  0  0  0
    0.3010    0.3830    1.1990 O   0  0  0  0  0  0  0  0  0  0  0  0
   -0.6040    0.7550    0.1200 C   0  0  1  0  0  0  0  0  0  0  0  0
   -1.5250   -0.3760   -0.1120 C   0  0  0  0  0  0  0  0  0  0  0  0
   -2.5180   -0.2070   -1.1960 C   0  0  2  0  0  0  0  0  0  0  0  0
   -3.3410   -1.5390   -1.3240 C   0  0  0  0  0  0  0  0  0  0  0  0
   -1.9480   -0.0650   -2.4420 F   0  0  0  0  0  0  0  0  0  0  0  0
   -3.4940    0.8490   -1.0400 N   0  0  0  0  0  0  0  0  0  0  0  0
   -4.4000    0.9040    0.0850 C   0  0  0  0  0  0  0  0  0  0  0  0
   -4.3390    0.0190    0.9410 O   0  0  0  0  0  0  0  0  0  0  0  0
   -5.3280    1.9420    0.2010 O   0  0  0  0  0  0  0  0  0  0  0  0
   -1.2380    1.9860    0.5950 C   0  0  0  0  0  0  0  0  0  0  0  0
   -1.1420    2.2860    1.8300 O   0  0  0  0  0  0  0  0  0  0  0  0
   -1.9280    2.8360   -0.2500 O   0  0  0  0  0  0  0  0  0  0  0  0
  1  2  1  0
  2  3  1  0
  3  4  2  0
  3  5  1  0
  5  6  1  0
  6  7  1  0
  7  8  2  0
  7  9  1  0
  9 10  1  0
 10 11  1  1
 10 19  1  0
 11 12  1  0
 12 13  1  6
 12 14  1  0
 12 15  1  0
 15 16  1  0
 16 17  2  0
 16 18  1  0
 19 20  2  0
 19 21  1  0
M  END
