
     RDKit          3D

 21 21  0  0  0  0  0  0  0  0999 V2000
    0.8220    0.7350   -0.2310 O   0  0  0  0  0  0  0  0  0  0  0  0
    0.8500   -0.1890    0.6390 C   0  0  0  0  0  0  0  0  0  0  0  0
    2.0900   -0.6870    1.1230 N   0  0  0  0  0  0  0  0  0  0  0  0
    3.3400   -0.1840    0.6070 C   0  0  0  0  0  0  0  0  0  0  0  0
    3.3400   -0.3950   -0.9250 C   0  0  0  0  0  0  0  0  0  0  0  0
    4.5070   -0.0270   -1.4780 O   0  0  0  0  0  0  0  0  0  0  0  0
    4.7270    1.2930   -1.3940 O   0  0  0  0  0  0  0  0  0  0  0  0
    6.1040    1.2880   -0.8840 C   0  0  0  0  0  0  0  0  0  0  0  0
    6.8780    0.7830   -1.8890 F   0  0  0  0  0  0  0  0  0  0  0  0
   -0.3720   -0.7120    1.1000 N   0  0  0  0  0  0  0  0  0  0  0  0
   -1.6660   -0.3730    0.6510 C   0  0  0  0  0  0  0  0  0  0  0  0
   -1.9290    0.4380   -0.4260 C   0  0  0  0  0  0  0  0  0  0  0  0
   -3.2270    0.6980   -0.8840 C   0  0  0  0  0  0  0  0  0  0  0  0
   -3.3990    1.5160   -1.9810 O   0  0  0  0  0  0  0  0  0  0  0  0
   -4.2320    0.9890   -2.9440 O   0  0  0  0  0  0  0  0  0  0  0  0
   -4.3350    0.1240   -0.2340 C   0  0  0  0  0  0  0  0  0  0  0  0
   -4.0460   -0.6630    0.8230 C   0  0  0  0  0  0  0  0  0  0  0  0
   -5.0940   -1.2760    1.5270 O   0  0  0  0  0  0  0  0  0  0  0  0
   -6.3820   -1.1240    1.2020 O   0  0  0  0  0  0  0  0  0  0  0  0
   -2.7800   -0.9520    1.3120 C   0  0  0  0  0  0  0  0  0  0  0  0
   -2.5350   -1.7460    2.3750 O   0  0  0  0  0  0  0  0  0  0  0  0
  1  2  2  0
  2  3  1  0
  2 10  1  0
  3  4  1  0
  4  5  1  0
  5  6  1  0
  6  7  1  0
  7  8  1  0
  8  9  1  0
 10 11  1  0
 11 12  2  0
 11 20  1  0
 12 13  1  0
 13 14  1  0
 13 16  2  0
 14 15  1  0
 16 17  1  0
 17 18  1  0
 17 20  2  0
 18 19  1  0
 20 21  1  0
M  END
