
     RDKit          3D

 21 21  0  0  0  0  0  0  0  0999 V2000
    4.2390    1.8240   -2.4470 O   0  0  0  0  0  0  0  0  0  0  0  0
    4.2540    0.8070   -1.7340 C   0  0  0  0  0  0  0  0  0  0  0  0
    5.0600   -0.2720   -1.9700 O   0  0  0  0  0  0  0  0  0  0  0  0
    3.3320    0.7720   -0.5530 C   0  0  0  0  0  0  0  0  0  0  0  0
    3.4790   -0.4210    0.1200 O   0  0  0  0  0  0  0  0  0  0  0  0
    2.6810   -0.4720    1.2260 C   0  0  0  0  0  0  0  0  0  0  0  0
    1.1980   -0.3790    0.9660 C   0  0  0  0  0  0  0  0  0  0  0  0
    0.8390   -1.4240    0.1550 O   0  0  0  0  0  0  0  0  0  0  0  0
   -0.4770   -1.5100   -0.1800 C   0  0  1  0  0  0  0  0  0  0  0  0
   -0.6160   -2.6410   -0.9980 F   0  0  0  0  0  0  0  0  0  0  0  0
   -1.4200   -1.6920    0.9680 C   0  0  0  0  0  0  0  0  0  0  0  0
   -2.7820   -2.1540    0.4910 C   0  0  0  0  0  0  0  0  0  0  0  0
   -3.6390   -0.9750    0.3120 N   0  0  0  0  0  0  0  0  0  0  0  0
   -3.2370    0.2400   -0.3010 C   0  0  0  0  0  0  0  0  0  0  0  0
   -4.0780    1.1700   -0.3940 O   0  0  0  0  0  0  0  0  0  0  0  0
   -1.9520    0.5830   -0.8570 N   0  0  0  0  0  0  0  0  0  0  0  0
   -1.7680    1.9400   -1.3230 C   0  0  0  0  0  0  0  0  0  0  0  0
   -1.2880    2.7490   -0.2980 O   0  0  0  0  0  0  0  0  0  0  0  0
   -2.1210    2.7810    0.7200 O   0  0  0  0  0  0  0  0  0  0  0  0
   -0.8590   -0.3160   -0.9780 C   0  0  0  0  0  0  0  0  0  0  0  0
   -0.0820   -0.0240   -1.9520 O   0  0  0  0  0  0  0  0  0  0  0  0
  1  2  2  0
  2  3  1  0
  2  4  1  0
  4  5  1  0
  5  6  1  0
  6  7  1  0
  7  8  1  0
  8  9  1  0
  9 10  1  6
  9 11  1  0
  9 20  1  0
 11 12  1  0
 12 13  1  0
 13 14  1  0
 14 15  2  0
 14 16  1  0
 16 17  1  0
 16 20  1  0
 17 18  1  0
 18 19  1  0
 20 21  2  0
M  END
