
     RDKit          3D

 22 23  0  0  0  0  0  0  0  0999 V2000
   -5.2550   -1.3640   -1.2650 N   0  0  0  0  0  0  0  0  0  0  0  0
   -4.3980   -0.3360   -0.8010 C   0  0  0  0  0  0  0  0  0  0  0  0
   -3.2870   -0.6680   -0.1200 N   0  0  0  0  0  0  0  0  0  0  0  0
   -2.5030    0.3400    0.3010 C   0  0  0  0  0  0  0  0  0  0  0  0
   -1.3240    0.2790    1.0100 C   0  0  0  0  0  0  0  0  0  0  0  0
   -0.6360   -0.9510    1.4810 C   0  0  0  0  0  0  0  0  0  0  0  0
    0.0620   -1.6300    0.3490 C   0  0  0  0  0  0  0  0  0  0  0  0
    1.0890   -0.7430   -0.2870 C   0  0  0  0  0  0  0  0  0  0  0  0
    2.1410   -0.3390    0.7100 C   0  0  0  0  0  0  0  0  0  0  0  0
    3.2110    0.5750    0.1240 C   0  0  1  0  0  0  0  0  0  0  0  0
    2.4930    1.6900   -0.3190 F   0  0  0  0  0  0  0  0  0  0  0  0
    3.8590    1.0830    1.2760 F   0  0  0  0  0  0  0  0  0  0  0  0
    4.2000   -0.1260   -0.9940 P   0  0  0  0  0  0  0  0  0  0  0  0
    4.6440   -1.2580    0.1470 O   0  0  0  0  0  0  0  0  0  0  0  0
    5.1340   -0.8160   -2.0170 O   0  0  0  0  0  0  0  0  0  0  0  0
    5.0750    1.2820   -1.1160 O   0  0  0  0  0  0  0  0  0  0  0  0
   -0.8950    1.5590    1.2070 C   0  0  0  0  0  0  0  0  0  0  0  0
   -1.8010    2.3940    0.6240 N   0  0  0  0  0  0  0  0  0  0  0  0
   -2.7870    1.6650    0.0680 C   0  0  0  0  0  0  0  0  0  0  0  0
   -3.9240    1.9680   -0.6270 C   0  0  0  0  0  0  0  0  0  0  0  0
   -4.2490    3.1450   -0.8780 O   0  0  0  0  0  0  0  0  0  0  0  0
   -4.6990    0.9400   -1.0420 N   0  0  0  0  0  0  0  0  0  0  0  0
  1  2  1  0
  2  3  1  0
  2 22  2  0
  3  4  1  0
  4  5  1  0
  4 19  2  0
  5  6  1  0
  5 17  2  0
  6  7  1  0
  7  8  1  0
  8  9  1  0
  9 10  1  0
 10 11  1  6
 10 12  1  0
 10 13  1  0
 13 14  1  0
 13 15  1  0
 13 16  1  0
 17 18  1  0
 18 19  1  0
 19 20  1  0
 20 21  2  0
 20 22  1  0
M  CHG  1  22   1
M  END
