
     RDKit          3D

 21 22  0  0  0  0  0  0  0  0999 V2000
   -2.3890    2.6470   -1.5110 O   0  0  0  0  0  0  0  0  0  0  0  0
   -1.6680    1.8940   -0.7160 C   0  0  0  0  0  0  0  0  0  0  0  0
   -2.3640    0.9310    0.1260 C   0  0  0  0  0  0  0  0  0  0  0  0
   -2.3240   -0.3990    0.0750 C   0  0  0  0  0  0  0  0  0  0  0  0
   -3.1690   -1.1410    1.0940 C   0  0  0  0  0  0  0  0  0  0  0  0
   -4.0780   -1.9410    0.3890 F   0  0  0  0  0  0  0  0  0  0  0  0
   -1.5980   -1.1840   -0.8630 N   0  0  0  0  0  0  0  0  0  0  0  0
   -0.1960   -1.2620   -1.0680 C   0  0  0  0  0  0  0  0  0  0  0  0
    0.2260   -0.8710   -2.2190 O   0  0  0  0  0  0  0  0  0  0  0  0
    0.8400   -1.7320   -0.1480 C   0  0  2  0  0  0  0  0  0  0  0  0
    1.1810   -0.6510    0.8250 C   0  0  0  0  0  0  0  0  0  0  0  0
    2.4240   -0.0450    0.4560 N   0  0  0  0  0  0  0  0  0  0  0  0
    2.6940    1.3270    0.3030 C   0  0  0  0  0  0  0  0  0  0  0  0
    3.8740    1.6890    0.6570 O   0  0  0  0  0  0  0  0  0  0  0  0
    1.8660    2.3070   -0.1710 O   0  0  0  0  0  0  0  0  0  0  0  0
    0.5520    2.6140    0.2320 C   0  0  0  0  0  0  0  0  0  0  0  0
   -0.3010    2.1050   -0.7700 O   0  0  0  0  0  0  0  0  0  0  0  0
    3.5000   -0.9900    0.2380 C   0  0  0  0  0  0  0  0  0  0  0  0
    4.7040   -0.6750    0.3700 O   0  0  0  0  0  0  0  0  0  0  0  0
    3.0460   -2.2650   -0.1300 O   0  0  0  0  0  0  0  0  0  0  0  0
    1.9210   -2.2520   -0.8560 O   0  0  0  0  0  0  0  0  0  0  0  0
  1  2  2  0
  2  3  1  0
  2 17  1  0
  3  4  2  0
  4  5  1  0
  4  7  1  0
  5  6  1  0
  7  8  1  0
  8  9  2  0
  8 10  1  0
 10 11  1  0
 10 21  1  6
 11 12  1  0
 12 13  1  0
 12 18  1  0
 13 14  2  0
 13 15  1  0
 15 16  1  0
 16 17  1  0
 18 19  2  0
 18 20  1  0
 20 21  1  0
M  END
