
     RDKit          3D

 21 21  0  0  0  0  0  0  0  0999 V2000
    3.4940   -2.6080   -0.6230 C   0  0  0  0  0  0  0  0  0  0  0  0
    3.2600   -1.2510   -0.3180 O   0  0  0  0  0  0  0  0  0  0  0  0
    2.0040   -0.8100    0.1590 C   0  0  0  0  0  0  0  0  0  0  0  0
    1.4430   -1.4920    1.1440 C   0  0  0  0  0  0  0  0  0  0  0  0
    0.1800   -1.2200    1.7730 C   0  0  0  0  0  0  0  0  0  0  0  0
    0.1230   -1.2260    3.0550 O   0  0  0  0  0  0  0  0  0  0  0  0
   -1.0160   -0.9450    1.1400 O   0  0  0  0  0  0  0  0  0  0  0  0
   -1.4400   -1.4220   -0.0860 C   0  0  0  0  0  0  0  0  0  0  0  0
   -2.9110   -1.1650   -0.2400 C   0  0  0  0  0  0  0  0  0  0  0  0
   -3.3010    0.2000   -0.3480 N   0  0  0  0  0  0  0  0  0  0  0  0
   -4.2950    0.5300   -1.2470 O   0  0  0  0  0  0  0  0  0  0  0  0
   -2.7810    1.3060    0.3850 C   0  0  0  0  0  0  0  0  0  0  0  0
   -3.6690    2.0980    0.8940 O   0  0  0  0  0  0  0  0  0  0  0  0
   -1.4500    1.5810    0.5820 O   0  0  0  0  0  0  0  0  0  0  0  0
   -0.4650    1.8820   -0.3550 C   0  0  0  0  0  0  0  0  0  0  0  0
    0.9070    1.4960    0.2060 C   0  0  2  0  0  0  0  0  0  0  0  0
    0.8990    1.3870    1.5640 F   0  0  0  0  0  0  0  0  0  0  0  0
    1.8490    2.6300   -0.1090 C   0  0  0  0  0  0  0  0  0  0  0  0
    2.8730    2.4900   -0.8230 O   0  0  0  0  0  0  0  0  0  0  0  0
    1.5770    3.8750    0.4080 O   0  0  0  0  0  0  0  0  0  0  0  0
    1.4510    0.3350   -0.4680 N   0  0  0  0  0  0  0  0  0  0  0  0
  1  2  1  0
  2  3  1  0
  3  4  2  0
  3 21  1  0
  4  5  1  0
  5  6  2  0
  5  7  1  0
  7  8  1  0
  8  9  1  0
  9 10  1  0
 10 11  1  0
 10 12  1  0
 12 13  2  0
 12 14  1  0
 14 15  1  0
 15 16  1  0
 16 17  1  1
 16 18  1  0
 16 21  1  0
 18 19  2  0
 18 20  1  0
M  END
