
     RDKit          3D

 29 31  0  0  0  0  0  0  0  0999 V2000
    5.8320    1.6640    1.6420 C   0  0  0  0  0  0  0  0  0  0  0  0
    6.2210    1.4860    0.2250 C   0  0  0  0  0  0  0  0  0  0  0  0
    7.4110    2.2590   -0.2510 C   0  0  0  0  0  0  0  0  0  0  0  0
    5.6050    0.7080   -0.6340 C   0  0  0  0  0  0  0  0  0  0  0  0
    4.4350   -0.1120   -0.3340 C   0  0  0  0  0  0  0  0  0  0  0  0
    3.3990   -0.2340   -1.2400 C   0  0  0  0  0  0  0  0  0  0  0  0
    2.2780   -0.9910   -1.0220 C   0  0  0  0  0  0  0  0  0  0  0  0
    1.1480   -1.1540   -1.9550 C   0  0  1  0  0  0  0  0  0  0  0  0
    1.3590   -2.5000   -2.6540 C   0  0  0  0  0  0  0  0  0  0  0  0
   -0.1020   -1.1850   -1.2360 N   0  0  0  0  0  0  0  0  0  0  0  0
   -0.5870   -0.0340   -0.5760 C   0  0  0  0  0  0  0  0  0  0  0  0
    0.1420    1.1510   -0.7650 C   0  0  0  0  0  0  0  0  0  0  0  0
   -0.2820    2.3160   -0.1650 C   0  0  0  0  0  0  0  0  0  0  0  0
   -1.4130    2.3120    0.6100 C   0  0  0  0  0  0  0  0  0  0  0  0
   -2.1250    1.1500    0.7930 C   0  0  0  0  0  0  0  0  0  0  0  0
   -1.7180   -0.0240    0.2030 C   0  0  0  0  0  0  0  0  0  0  0  0
   -2.4640   -1.1820    0.4270 N   0  0  0  0  0  0  0  0  0  0  0  0
   -3.6970   -1.2270    1.1800 C   0  0  0  0  0  0  0  0  0  0  0  0
   -4.8250   -0.5250    0.5630 C   0  0  0  0  0  0  0  0  0  0  0  0
   -4.7190    0.0840   -0.6630 C   0  0  0  0  0  0  0  0  0  0  0  0
   -5.8250    0.7160   -1.1940 C   0  0  0  0  0  0  0  0  0  0  0  0
   -7.0050    0.7350   -0.5120 C   0  0  0  0  0  0  0  0  0  0  0  0
   -7.1410    0.1310    0.7220 C   0  0  0  0  0  0  0  0  0  0  0  0
   -6.0270   -0.4970    1.2400 C   0  0  0  0  0  0  0  0  0  0  0  0
   -6.2070   -1.1390    2.5740 C   0  0  0  0  0  0  0  0  0  0  0  0
    2.1740   -1.6840    0.1900 C   0  0  0  0  0  0  0  0  0  0  0  0
    3.2130   -1.5500    1.0770 C   0  0  0  0  0  0  0  0  0  0  0  0
    3.1300   -2.1710    2.1740 O   0  0  0  0  0  0  0  0  0  0  0  0
    4.3000   -0.7910    0.8190 N   0  0  0  0  0  0  0  0  0  0  0  0
  1  2  1  0
  2  3  1  0
  2  4  2  3
  4  5  1  0
  5  6  2  0
  5 29  1  0
  6  7  1  0
  7  8  1  0
  7 26  2  0
  8  9  1  1
  8 10  1  0
 10 11  1  0
 11 12  2  0
 11 16  1  0
 12 13  1  0
 13 14  2  0
 14 15  1  0
 15 16  2  0
 16 17  1  0
 17 18  1  0
 18 19  1  0
 19 20  2  0
 19 24  1  0
 20 21  1  0
 21 22  2  0
 22 23  1  0
 23 24  2  0
 24 25  1  0
 26 27  1  0
 27 28  2  0
 27 29  1  0
M  END
