
     RDKit          3D

 29 31  0  0  0  0  0  0  0  0999 V2000
    5.1650    2.7040   -2.0130 C   0  0  0  0  0  0  0  0  0  0  0  0
    5.7560    1.3750   -1.5980 C   0  0  0  0  0  0  0  0  0  0  0  0
    6.4120    1.5210   -0.2730 C   0  0  0  0  0  0  0  0  0  0  0  0
    5.5330    1.9370    0.8560 C   0  0  0  0  0  0  0  0  0  0  0  0
    4.4210    1.0000    1.1420 C   0  0  0  0  0  0  0  0  0  0  0  0
    4.5260   -0.0590    1.9960 C   0  0  0  0  0  0  0  0  0  0  0  0
    3.4660   -0.9040    2.2370 C   0  0  0  0  0  0  0  0  0  0  0  0
    2.2450   -0.6720    1.5890 C   0  0  0  0  0  0  0  0  0  0  0  0
    2.1010    0.3870    0.7200 C   0  0  0  0  0  0  0  0  0  0  0  0
    3.2100    1.2060    0.5180 C   0  0  0  0  0  0  0  0  0  0  0  0
    0.8080    0.3670    0.2370 C   0  0  0  0  0  0  0  0  0  0  0  0
    0.1680   -0.7040    0.8130 C   0  0  0  0  0  0  0  0  0  0  0  0
   -1.2160   -1.0920    0.5770 C   0  0  0  0  0  0  0  0  0  0  0  0
   -1.7730   -2.0790    1.1170 O   0  0  0  0  0  0  0  0  0  0  0  0
   -2.0570   -0.3370   -0.3240 N   0  0  0  0  0  0  0  0  0  0  0  0
   -3.4010   -0.7100   -0.5580 C   0  0  0  0  0  0  0  0  0  0  0  0
   -3.6240   -1.5520   -1.6730 C   0  0  0  0  0  0  0  0  0  0  0  0
   -2.4130   -1.8510   -2.5010 C   0  0  0  0  0  0  0  0  0  0  0  0
   -2.0210   -0.7010   -3.3740 C   0  0  0  0  0  0  0  0  0  0  0  0
   -4.8560   -2.0520   -1.9720 C   0  0  0  0  0  0  0  0  0  0  0  0
   -5.9090   -1.7150   -1.1470 C   0  0  0  0  0  0  0  0  0  0  0  0
   -5.7480   -0.9070   -0.0630 C   0  0  0  0  0  0  0  0  0  0  0  0
   -6.8680   -0.5350    0.8220 C   0  0  0  0  0  0  0  0  0  0  0  0
   -4.4440   -0.3810    0.2480 C   0  0  0  0  0  0  0  0  0  0  0  0
   -4.3840    0.5200    1.3620 C   0  0  0  0  0  0  0  0  0  0  0  0
   -3.5490    1.3870    1.7540 C   0  0  0  0  0  0  0  0  0  0  0  0
   -2.3320    1.8040    1.2230 N   0  0  0  0  0  0  0  0  0  0  0  0
    1.0600   -1.2980    1.6130 N   0  0  0  0  0  0  0  0  0  0  0  0
    0.7670   -2.4910    2.4170 C   0  0  0  0  0  0  0  0  0  0  0  0
  1  2  1  0
  2  3  1  0
  3  4  1  0
  4  5  1  0
  5  6  2  0
  5 10  1  0
  6  7  1  0
  7  8  2  0
  8  9  1  0
  8 28  1  0
  9 10  2  0
  9 11  1  0
 11 12  2  0
 12 13  1  0
 12 28  1  0
 13 14  2  0
 13 15  1  0
 15 16  1  0
 16 17  2  0
 16 24  1  0
 17 18  1  0
 17 20  1  0
 18 19  1  0
 20 21  2  0
 21 22  1  0
 22 23  1  0
 22 24  2  0
 24 25  1  0
 25 26  2  3
 26 27  1  0
 28 29  1  0
M  END
