
     RDKit          3D

 29 31  0  0  0  0  0  0  0  0999 V2000
   -4.2560    3.3180    0.3500 C   0  0  0  0  0  0  0  0  0  0  0  0
   -5.1820    2.2370    0.7560 C   0  0  0  0  0  0  0  0  0  0  0  0
   -4.7780    0.9420    0.6610 C   0  0  0  0  0  0  0  0  0  0  0  0
   -5.7340   -0.0230    1.0730 N   0  0  0  0  0  0  0  0  0  0  0  0
   -3.4230    0.7010    0.2660 C   0  0  0  0  0  0  0  0  0  0  0  0
   -2.7910   -0.3880    0.0590 C   0  0  0  0  0  0  0  0  0  0  0  0
   -1.3220   -0.3340   -0.3240 C   0  0  0  0  0  0  0  0  0  0  0  0
   -0.7520    0.9640   -0.2900 N   0  0  0  0  0  0  0  0  0  0  0  0
   -0.4790    1.5190    0.9920 C   0  0  0  0  0  0  0  0  0  0  0  0
    0.8630    2.2070    0.9190 C   0  0  0  0  0  0  0  0  0  0  0  0
    1.3690    1.9450   -0.4390 C   0  0  1  0  0  0  0  0  0  0  0  0
    2.7740    1.4690   -0.5230 C   0  0  0  0  0  0  0  0  0  0  0  0
    3.1020    0.2080    0.1840 C   0  0  0  0  0  0  0  0  0  0  0  0
    4.5570   -0.0650   -0.0280 C   0  0  0  0  0  0  0  0  0  0  0  0
    5.4930    0.6610    0.6590 C   0  0  0  0  0  0  0  0  0  0  0  0
    5.1680    1.7330    1.6160 C   0  0  0  0  0  0  0  0  0  0  0  0
    6.8360    0.3810    0.4480 C   0  0  0  0  0  0  0  0  0  0  0  0
    7.1590   -0.6170   -0.4460 C   0  0  0  0  0  0  0  0  0  0  0  0
    6.2350   -1.3240   -1.1150 N   0  0  0  0  0  0  0  0  0  0  0  0
    4.9120   -1.0540   -0.9120 C   0  0  0  0  0  0  0  0  0  0  0  0
    3.8720   -1.8310   -1.6460 C   0  0  0  0  0  0  0  0  0  0  0  0
    0.4380    0.9780   -1.0900 C   0  0  0  0  0  0  0  0  0  0  0  0
   -3.3950   -1.7190   -0.0840 C   0  0  0  0  0  0  0  0  0  0  0  0
   -4.6340   -1.9830   -0.5360 C   0  0  0  0  0  0  0  0  0  0  0  0
   -5.2090   -3.2610   -0.5650 C   0  0  0  0  0  0  0  0  0  0  0  0
   -4.4600   -4.3130   -0.1040 C   0  0  0  0  0  0  0  0  0  0  0  0
   -3.1850   -4.0690    0.3620 C   0  0  0  0  0  0  0  0  0  0  0  0
   -2.4330   -5.1550    0.8260 O   0  0  0  0  0  0  0  0  0  0  0  0
   -2.6550   -2.8150    0.3780 C   0  0  0  0  0  0  0  0  0  0  0  0
  1  2  1  0
  2  3  2  3
  3  4  1  0
  3  5  1  0
  5  6  2  3
  6  7  1  0
  6 23  1  0
  7  8  1  0
  8  9  1  0
  8 22  1  0
  9 10  1  0
 10 11  1  0
 11 12  1  1
 11 22  1  0
 12 13  1  0
 13 14  1  0
 14 15  2  0
 14 20  1  0
 15 16  1  0
 15 17  1  0
 17 18  2  0
 18 19  1  0
 19 20  2  0
 20 21  1  0
 23 24  2  0
 23 29  1  0
 24 25  1  0
 25 26  2  0
 26 27  1  0
 27 28  1  0
 27 29  2  0
M  END
