
     RDKit          3D

 29 32  0  0  0  0  0  0  0  0999 V2000
    7.6510    2.1750    0.7890 C   0  0  0  0  0  0  0  0  0  0  0  0
    6.3770    1.9510    0.5570 C   0  0  0  0  0  0  0  0  0  0  0  0
    5.4580    2.9370    0.3020 N   0  0  0  0  0  0  0  0  0  0  0  0
    4.2470    2.4140    0.1040 C   0  0  0  0  0  0  0  0  0  0  0  0
    2.9960    2.9680   -0.1830 C   0  0  0  0  0  0  0  0  0  0  0  0
    1.9070    2.1350   -0.3330 C   0  0  0  0  0  0  0  0  0  0  0  0
    2.0140    0.7620   -0.2070 C   0  0  0  0  0  0  0  0  0  0  0  0
    0.8620   -0.1330   -0.3650 C   0  0  0  0  0  0  0  0  0  0  0  0
   -0.4390    0.2050   -0.6470 C   0  0  0  0  0  0  0  0  0  0  0  0
   -1.1730   -0.9760   -0.7000 C   0  0  0  0  0  0  0  0  0  0  0  0
   -0.3000   -2.0110   -0.4490 C   0  0  0  0  0  0  0  0  0  0  0  0
    0.9170   -1.4590   -0.2520 N   0  0  0  0  0  0  0  0  0  0  0  0
   -0.7450   -3.4220   -0.4210 C   0  0  0  0  0  0  0  0  0  0  0  0
   -2.2140   -3.5900   -0.1510 C   0  0  0  0  0  0  0  0  0  0  0  0
   -2.9460   -2.6620   -1.0500 C   0  0  0  0  0  0  0  0  0  0  0  0
   -3.8630   -3.0300   -1.8120 O   0  0  0  0  0  0  0  0  0  0  0  0
   -2.5310   -1.2690   -1.0040 N   0  0  0  0  0  0  0  0  0  0  0  0
   -3.5040   -0.2590   -1.2810 C   0  0  0  0  0  0  0  0  0  0  0  0
   -4.3200    0.2210   -0.1220 C   0  0  2  0  0  0  0  0  0  0  0  0
   -5.3240    1.2680   -0.7160 C   0  0  0  0  0  0  0  0  0  0  0  0
   -3.5340    1.0410    0.8530 C   0  0  0  0  0  0  0  0  0  0  0  0
   -2.9850    2.3240    0.3390 C   0  0  0  0  0  0  0  0  0  0  0  0
   -5.0670   -0.8260    0.6090 C   0  0  0  0  0  0  0  0  0  0  0  0
   -6.0850   -1.6070   -0.1140 C   0  0  0  0  0  0  0  0  0  0  0  0
    3.2700    0.2800    0.0760 C   0  0  0  0  0  0  0  0  0  0  0  0
    4.3940    1.0630    0.2360 C   0  0  0  0  0  0  0  0  0  0  0  0
    5.7400    0.7380    0.5250 C   0  0  0  0  0  0  0  0  0  0  0  0
    6.1460   -0.4940    0.7000 C   0  0  0  0  0  0  0  0  0  0  0  0
    7.5100   -0.9310    1.0020 C   0  0  0  0  0  0  0  0  0  0  0  0
  1  2  2  0
  2  3  1  0
  2 27  1  0
  3  4  1  0
  4  5  2  0
  4 26  1  0
  5  6  1  0
  6  7  2  0
  7  8  1  0
  7 25  1  0
  8  9  2  0
  8 12  1  0
  9 10  1  0
 10 11  2  0
 10 17  1  0
 11 12  1  0
 11 13  1  0
 13 14  1  0
 14 15  1  0
 15 16  2  0
 15 17  1  0
 17 18  1  0
 18 19  1  0
 19 20  1  6
 19 21  1  0
 19 23  1  0
 21 22  1  0
 23 24  1  0
 25 26  2  0
 26 27  1  0
 27 28  2  3
 28 29  1  0
M  END
