
     RDKit          3D

 29 31  0  0  0  0  0  0  0  0999 V2000
   -4.5950    6.5960    0.0870 C   0  0  0  0  0  0  0  0  0  0  0  0
   -3.8970    5.3150    0.2900 C   0  0  0  0  0  0  0  0  0  0  0  0
   -2.9090    5.0900    1.2210 C   0  0  0  0  0  0  0  0  0  0  0  0
   -2.5290    3.8180    1.0990 N   0  0  0  0  0  0  0  0  0  0  0  0
   -3.2140    3.1950    0.1370 C   0  0  0  0  0  0  0  0  0  0  0  0
   -3.0950    1.7860   -0.3190 C   0  0  0  0  0  0  0  0  0  0  0  0
   -3.8480    1.3380   -1.2040 O   0  0  0  0  0  0  0  0  0  0  0  0
   -2.1240    0.9390    0.2450 N   0  0  0  0  0  0  0  0  0  0  0  0
   -1.8390   -0.4020   -0.0230 C   0  0  0  0  0  0  0  0  0  0  0  0
   -2.6580   -1.1770   -0.8000 C   0  0  0  0  0  0  0  0  0  0  0  0
   -2.4140   -2.5180   -1.0520 C   0  0  0  0  0  0  0  0  0  0  0  0
   -1.3070   -3.1290   -0.5110 C   0  0  0  0  0  0  0  0  0  0  0  0
   -1.0830   -4.5620   -0.8010 C   0  0  2  0  0  0  0  0  0  0  0  0
   -0.0370   -5.1690    0.1160 C   0  0  0  0  0  0  0  0  0  0  0  0
   -0.6350   -4.7530   -2.2540 C   0  0  0  0  0  0  0  0  0  0  0  0
   -2.3450   -5.3820   -0.6370 C   0  0  0  0  0  0  0  0  0  0  0  0
   -0.4800   -2.3580    0.2700 C   0  0  0  0  0  0  0  0  0  0  0  0
   -0.7150   -1.0290    0.5230 C   0  0  0  0  0  0  0  0  0  0  0  0
    0.2240   -0.2180    1.3580 C   0  0  0  0  0  0  0  0  0  0  0  0
    1.0680    0.6870    0.5030 C   0  0  0  0  0  0  0  0  0  0  0  0
    1.9930    1.4800    1.3860 C   0  0  0  0  0  0  0  0  0  0  0  0
    2.8430    2.4270    0.5210 C   0  0  0  0  0  0  0  0  0  0  0  0
    3.6120    1.6740   -0.4120 N   0  0  0  0  0  0  0  0  0  0  0  0
    4.6810    0.8240   -0.0060 C   0  0  0  0  0  0  0  0  0  0  0  0
    5.2280   -0.1390   -0.7070 C   0  0  0  0  0  0  0  0  0  0  0  0
    6.3020   -0.7590    0.1030 C   0  0  0  0  0  0  0  0  0  0  0  0
    6.2940   -0.0070    1.3660 C   0  0  0  0  0  0  0  0  0  0  0  0
    5.3380    0.9180    1.2890 C   0  0  0  0  0  0  0  0  0  0  0  0
   -4.0770    4.1110   -0.3870 C   0  0  0  0  0  0  0  0  0  0  0  0
  1  2  1  0
  2  3  2  0
  2 29  1  0
  3  4  1  0
  4  5  1  0
  5  6  1  0
  5 29  2  0
  6  7  2  0
  6  8  1  0
  8  9  1  0
  9 10  2  0
  9 18  1  0
 10 11  1  0
 11 12  2  0
 12 13  1  0
 12 17  1  0
 13 14  1  1
 13 15  1  0
 13 16  1  0
 17 18  2  0
 18 19  1  0
 19 20  1  0
 20 21  1  0
 21 22  1  0
 22 23  1  0
 23 24  1  0
 24 25  2  0
 24 28  1  0
 25 26  1  0
 26 27  1  0
 27 28  2  0
M  END
