
     RDKit          3D

 31 34  0  0  0  0  0  0  0  0999 V2000
    4.6690    3.4270    0.4440 O   0  0  0  0  0  0  0  0  0  0  0  0
    3.8000    2.2120    0.7340 S   0  0  1  0  0  0  0  0  0  0  0  0
    3.3500    2.2300    2.1580 O   0  0  0  0  0  0  0  0  0  0  0  0
    2.4270    2.2720   -0.3000 N   0  0  0  0  0  0  0  0  0  0  0  0
    1.4800    1.2240   -0.2420 C   0  0  0  0  0  0  0  0  0  0  0  0
    1.0000    0.7260    0.9400 C   0  0  0  0  0  0  0  0  0  0  0  0
    0.0650   -0.3050    0.9780 C   0  0  0  0  0  0  0  0  0  0  0  0
   -0.5260   -0.9170    2.4820 Cl  0  0  0  0  0  0  0  0  0  0  0  0
   -0.3970   -0.8470   -0.1990 C   0  0  0  0  0  0  0  0  0  0  0  0
   -1.3130   -1.8580   -0.1620 O   0  0  0  0  0  0  0  0  0  0  0  0
   -2.6890   -1.6600   -0.1610 C   0  0  0  0  0  0  0  0  0  0  0  0
   -3.5890   -2.6990   -0.1240 C   0  0  0  0  0  0  0  0  0  0  0  0
   -4.9210   -2.4480   -0.1250 N   0  0  0  0  0  0  0  0  0  0  0  0
   -5.4280   -1.2050   -0.1630 C   0  0  0  0  0  0  0  0  0  0  0  0
   -6.8100   -0.9980   -0.1630 C   0  0  0  0  0  0  0  0  0  0  0  0
   -7.3010    0.2940   -0.2030 C   0  0  0  0  0  0  0  0  0  0  0  0
   -6.4130    1.3480   -0.2410 C   0  0  0  0  0  0  0  0  0  0  0  0
   -5.0500    1.1500   -0.2410 C   0  0  0  0  0  0  0  0  0  0  0  0
   -4.5550   -0.1380   -0.2020 C   0  0  0  0  0  0  0  0  0  0  0  0
   -3.1790   -0.3730   -0.2010 C   0  0  0  0  0  0  0  0  0  0  0  0
    0.0710   -0.3630   -1.4250 C   0  0  0  0  0  0  0  0  0  0  0  0
   -0.5360   -1.0730   -2.8890 Cl  0  0  0  0  0  0  0  0  0  0  0  0
    1.0010    0.6630   -1.4220 C   0  0  0  0  0  0  0  0  0  0  0  0
    4.7730    0.7920    0.3890 C   0  0  0  0  0  0  0  0  0  0  0  0
    4.9990   -0.1480    1.3640 C   0  0  0  0  0  0  0  0  0  0  0  0
    5.7680   -1.2610    1.0740 C   0  0  0  0  0  0  0  0  0  0  0  0
    6.3090   -1.4390   -0.1730 C   0  0  0  0  0  0  0  0  0  0  0  0
    7.2820   -2.8610   -0.5180 Cl  0  0  0  0  0  0  0  0  0  0  0  0
    6.0840   -0.4980   -1.1500 C   0  0  0  0  0  0  0  0  0  0  0  0
    5.3090    0.6250   -0.8650 C   0  0  0  0  0  0  0  0  0  0  0  0
    5.0060    1.8410   -2.0940 Cl  0  0  0  0  0  0  0  0  0  0  0  0
  1  2  2  0
  2  3  2  0
  2  4  1  6
  2 24  1  0
  4  5  1  0
  5  6  2  0
  5 23  1  0
  6  7  1  0
  7  8  1  0
  7  9  2  0
  9 10  1  0
  9 21  1  0
 10 11  1  0
 11 12  2  0
 11 20  1  0
 12 13  1  0
 13 14  2  0
 14 15  1  0
 14 19  1  0
 15 16  2  0
 16 17  1  0
 17 18  2  0
 18 19  1  0
 19 20  2  0
 21 22  1  0
 21 23  2  0
 24 25  2  0
 24 30  1  0
 25 26  1  0
 26 27  2  0
 27 28  1  0
 27 29  1  0
 29 30  2  0
 30 31  1  0
M  END
