
     RDKit          3D

 28 30  0  0  0  0  0  0  0  0999 V2000
    0.1890   -4.7240    0.5850 C   0  0  0  0  0  0  0  0  0  0  0  0
    1.1000   -3.7630    0.5660 C   0  0  0  0  0  0  0  0  0  0  0  0
    0.7290   -2.3420    0.9140 C   0  0  0  0  0  0  0  0  0  0  0  0
    0.9980   -1.4710   -0.1990 N   0  0  0  0  0  0  0  0  0  0  0  0
    0.3090   -1.4090   -1.4440 C   0  0  0  0  0  0  0  0  0  0  0  0
   -1.0580   -0.8650   -1.4340 C   0  0  0  0  0  0  0  0  0  0  0  0
   -1.7260   -0.8090   -2.5430 O   0  0  0  0  0  0  0  0  0  0  0  0
   -1.7020   -0.3900   -0.2750 N   0  0  0  0  0  0  0  0  0  0  0  0
   -3.0320    0.1320   -0.2520 C   0  0  0  0  0  0  0  0  0  0  0  0
   -3.8070   -0.0820    0.8730 C   0  0  0  0  0  0  0  0  0  0  0  0
   -5.1040    0.4230    0.9530 C   0  0  0  0  0  0  0  0  0  0  0  0
   -5.9580    0.1890    2.1470 C   0  0  0  0  0  0  0  0  0  0  0  0
   -5.6450    1.1480   -0.0840 C   0  0  0  0  0  0  0  0  0  0  0  0
   -7.0470    1.6870    0.0110 C   0  0  0  0  0  0  0  0  0  0  0  0
   -4.8740    1.3630   -1.2040 C   0  0  0  0  0  0  0  0  0  0  0  0
   -5.4280    2.1240   -2.2700 N   0  0  0  0  0  0  0  0  0  0  0  0
   -3.5730    0.8470   -1.2670 C   0  0  0  0  0  0  0  0  0  0  0  0
    2.1090   -0.5450   -0.0750 C   0  0  0  0  0  0  0  0  0  0  0  0
    1.8320    0.7900    0.1060 C   0  0  0  0  0  0  0  0  0  0  0  0
    2.8970    1.6590    0.1990 C   0  0  0  0  0  0  0  0  0  0  0  0
    4.2140    1.1900    0.1120 C   0  0  0  0  0  0  0  0  0  0  0  0
    5.2810    2.0580    0.1960 C   0  0  0  0  0  0  0  0  0  0  0  0
    6.6050    1.6440    0.1100 C   0  0  0  0  0  0  0  0  0  0  0  0
    7.7550    2.5820    0.1910 C   0  0  0  0  0  0  0  0  0  0  0  0
    6.8520    0.2920   -0.0690 C   0  0  0  0  0  0  0  0  0  0  0  0
    5.7900   -0.5810   -0.1550 C   0  0  0  0  0  0  0  0  0  0  0  0
    4.4880   -0.1500   -0.0680 C   0  0  0  0  0  0  0  0  0  0  0  0
    3.4060   -1.0070   -0.1600 C   0  0  0  0  0  0  0  0  0  0  0  0
  1  2  2  0
  2  3  1  0
  3  4  1  0
  4  5  1  0
  4 18  1  0
  5  6  1  0
  6  7  2  0
  6  8  1  0
  8  9  1  0
  9 10  2  0
  9 17  1  0
 10 11  1  0
 11 12  1  0
 11 13  2  0
 13 14  1  0
 13 15  1  0
 15 16  1  0
 15 17  2  0
 18 19  2  0
 18 28  1  0
 19 20  1  0
 20 21  2  0
 21 22  1  0
 21 27  1  0
 22 23  2  0
 23 24  1  0
 23 25  1  0
 25 26  2  0
 26 27  1  0
 27 28  2  0
M  END
