
     RDKit          3D

 21 22  0  0  0  0  0  0  0  0999 V2000
    3.0590    2.8770    1.8990 O   0  0  0  0  0  0  0  0  0  0  0  0
    2.9810    2.0060    1.0020 C   0  0  0  0  0  0  0  0  0  0  0  0
    2.1710    2.3710   -0.1830 C   0  0  0  0  0  0  0  0  0  0  0  0
    0.8260    2.7330    0.1310 N   0  0  0  0  0  0  0  0  0  0  0  0
   -0.1810    2.1950   -0.7300 C   0  0  0  0  0  0  0  0  0  0  0  0
   -0.6650    0.8410   -0.3960 C   0  0  1  0  0  0  0  0  0  0  0  0
   -0.0620    0.4380    0.7930 O   0  0  0  0  0  0  0  0  0  0  0  0
   -2.1640    0.7820   -0.0530 C   0  0  0  0  0  0  0  0  0  0  0  0
   -2.3650   -0.5580    0.5830 C   0  0  1  0  0  0  0  0  0  0  0  0
   -3.8660   -0.8080    0.7980 C   0  0  0  0  0  0  0  0  0  0  0  0
   -4.0360   -1.9400    1.5870 O   0  0  0  0  0  0  0  0  0  0  0  0
   -1.8140   -1.6780   -0.0590 N   0  0  0  0  0  0  0  0  0  0  0  0
   -0.6580   -1.5320   -0.8400 C   0  0  2  0  0  0  0  0  0  0  0  0
    0.6550   -1.8410   -0.1330 C   0  0  1  0  0  0  0  0  0  0  0  0
    1.0750   -3.1600   -0.4200 O   0  0  0  0  0  0  0  0  0  0  0  0
    1.6130   -1.0020   -0.6300 O   0  0  0  0  0  0  0  0  0  0  0  0
    2.8870   -1.1530   -0.2080 C   0  0  0  0  0  0  0  0  0  0  0  0
    3.1500   -0.4960    1.0990 C   0  0  0  0  0  0  0  0  0  0  0  0
    3.5820    0.8100    1.0780 O   0  0  0  0  0  0  0  0  0  0  0  0
   -0.5520   -0.1690   -1.5040 C   0  0  2  0  0  0  0  0  0  0  0  0
    0.5490   -0.0630   -2.2950 O   0  0  0  0  0  0  0  0  0  0  0  0
  1  2  2  0
  2  3  1  0
  2 19  1  0
  3  4  1  0
  4  5  1  0
  5  6  1  0
  6  7  1  1
  6  8  1  0
  6 20  1  0
  8  9  1  0
  9 10  1  6
  9 12  1  0
 10 11  1  0
 13 12  1  1
 13 14  1  0
 13 20  1  0
 14 15  1  6
 14 16  1  0
 16 17  1  0
 17 18  1  0
 18 19  1  0
 20 21  1  1
M  CHG  2   4   1  12   1
M  END
