
     RDKit          3D

 21 21  0  0  0  0  0  0  0  0999 V2000
    5.0100    0.3980    0.0000 N   0  0  0  0  0  0  0  0  0  0  0  0
    3.9020    1.3060   -0.0550 C   0  0  2  0  0  0  0  0  0  0  0  0
    3.5850    1.8780    1.3210 C   0  0  0  0  0  0  0  0  0  0  0  0
    4.7040    2.5620    1.7930 O   0  0  0  0  0  0  0  0  0  0  0  0
    2.6870    0.7140   -0.6760 C   0  0  0  0  0  0  0  0  0  0  0  0
    1.6830    1.4540   -0.7560 O   0  0  0  0  0  0  0  0  0  0  0  0
    2.6000   -0.5520   -1.1540 O   0  0  0  0  0  0  0  0  0  0  0  0
    1.5840   -1.2590   -1.7300 C   0  0  0  0  0  0  0  0  0  0  0  0
    0.4010   -1.6750   -0.9670 C   0  0  2  0  0  0  0  0  0  0  0  0
   -0.4310   -0.6140   -0.3200 C   0  0  0  0  0  0  0  0  0  0  0  0
   -1.6380   -1.2450    0.3510 C   0  0  1  0  0  0  0  0  0  0  0  0
   -2.8660   -0.4210    0.0730 C   0  0  1  0  0  0  0  0  0  0  0  0
   -4.0390   -1.0340    0.6930 N   0  0  0  0  0  0  0  0  0  0  0  0
   -2.6970    0.9220    0.7600 C   0  0  1  0  0  0  0  0  0  0  0  0
   -1.5650    1.6160    0.3050 O   0  0  0  0  0  0  0  0  0  0  0  0
   -3.8550    1.8670    0.4970 C   0  0  0  0  0  0  0  0  0  0  0  0
   -3.5650    3.0360    1.2430 O   0  0  0  0  0  0  0  0  0  0  0  0
   -1.7740   -2.7010    0.0580 C   0  0  0  0  0  0  0  0  0  0  0  0
   -0.5640   -3.3410    0.5000 O   0  0  0  0  0  0  0  0  0  0  0  0
    0.6170   -2.7550    0.0360 C   0  0  0  0  0  0  0  0  0  0  0  0
    1.7220   -3.1380    0.4560 O   0  0  0  0  0  0  0  0  0  0  0  0
  2  1  1  1
  2  3  1  0
  2  5  1  0
  3  4  1  0
  5  6  2  0
  5  7  1  0
  7  8  1  0
  9  8  1  1
  9 10  1  0
  9 20  1  0
 11 10  1  6
 11 12  1  0
 11 18  1  0
 12 13  1  1
 12 14  1  0
 14 15  1  6
 14 16  1  0
 16 17  1  0
 18 19  1  0
 19 20  1  0
 20 21  2  0
M  CHG  2   1   1  13   1
M  END
