
     RDKit          3D

 21 21  0  0  0  0  0  0  0  0999 V2000
   -4.4890   -0.0680   -0.4520 N   0  0  0  0  0  0  0  0  0  0  0  0
   -3.5680   -0.3160    0.6200 C   0  0  0  0  0  0  0  0  0  0  0  0
   -2.1750    0.2060    0.2620 C   0  0  2  0  0  0  0  0  0  0  0  0
   -2.2370    1.6980    0.0080 C   0  0  0  0  0  0  0  0  0  0  0  0
   -3.0870    2.0340   -1.0320 O   0  0  0  0  0  0  0  0  0  0  0  0
   -1.7730   -0.5450   -0.9910 C   0  0  0  0  0  0  0  0  0  0  0  0
   -0.5670   -1.1290   -0.7460 O   0  0  0  0  0  0  0  0  0  0  0  0
   -0.5010   -2.4840   -0.8880 C   0  0  0  0  0  0  0  0  0  0  0  0
    0.9470   -2.8930   -0.7210 C   0  0  0  0  0  0  0  0  0  0  0  0
    1.5690   -1.9200    0.0560 O   0  0  0  0  0  0  0  0  0  0  0  0
    2.1580   -1.0090   -0.7740 C   0  0  0  0  0  0  0  0  0  0  0  0
    2.7140    0.2090   -0.0750 C   0  0  2  0  0  0  0  0  0  0  0  0
    3.5620    0.8030   -1.0450 O   0  0  0  0  0  0  0  0  0  0  0  0
    3.6010   -0.2160    1.0440 C   0  0  0  0  0  0  0  0  0  0  0  0
    4.3010    0.8440    1.6170 O   0  0  0  0  0  0  0  0  0  0  0  0
    1.6840    1.2300    0.2520 C   0  0  2  0  0  0  0  0  0  0  0  0
    2.3300    2.5500    0.1410 N   0  0  0  0  0  0  0  0  0  0  0  0
    1.0430    1.0770    1.5860 C   0  0  0  0  0  0  0  0  0  0  0  0
    1.8610    1.0900    2.5500 O   0  0  0  0  0  0  0  0  0  0  0  0
   -0.3040    0.9420    1.6530 O   0  0  0  0  0  0  0  0  0  0  0  0
   -1.1980   -0.0570    1.3850 C   0  0  0  0  0  0  0  0  0  0  0  0
  1  2  1  0
  3  2  1  1
  3  4  1  0
  3  6  1  0
  3 21  1  0
  4  5  1  0
  6  7  1  0
  7  8  1  0
  8  9  1  0
  9 10  1  0
 10 11  1  0
 11 12  1  0
 12 13  1  6
 12 14  1  0
 12 16  1  0
 14 15  1  0
 16 17  1  1
 16 18  1  0
 18 19  2  0
 18 20  1  0
 20 21  1  0
M  CHG  2   1   1  17   1
M  END
