
     RDKit          3D

 20 20  0  0  0  0  0  0  0  0999 V2000
    5.3680   -0.8230   -0.5600 C   0  0  0  0  0  0  0  0  0  0  0  0
    4.2080   -0.5670   -1.3300 O   0  0  0  0  0  0  0  0  0  0  0  0
    3.1680    0.1780   -0.7740 C   0  0  0  0  0  0  0  0  0  0  0  0
    3.3600    0.5680    0.4000 O   0  0  0  0  0  0  0  0  0  0  0  0
    1.9090    0.4900   -1.5250 C   0  0  1  0  0  0  0  0  0  0  0  0
    2.2330   -0.0540   -2.8270 O   0  0  0  0  0  0  0  0  0  0  0  0
    0.7210   -0.2740   -1.1380 C   0  0  1  0  0  0  0  0  0  0  0  0
    1.0300   -1.6140   -0.9890 O   0  0  0  0  0  0  0  0  0  0  0  0
   -0.2810    0.2510   -0.1580 C   0  0  1  0  0  0  0  0  0  0  0  0
   -1.3360   -0.8640   -0.0270 C   0  0  2  0  0  0  0  0  0  0  0  0
   -2.0100   -1.1930   -1.2270 N   0  0  0  0  0  0  0  0  0  0  0  0
   -2.2380   -0.7090    1.1410 C   0  0  0  0  0  0  0  0  0  0  0  0
   -3.2440   -1.8700    1.1250 C   0  0  2  0  0  0  0  0  0  0  0  0
   -4.0770   -1.6930    2.2640 O   0  0  0  0  0  0  0  0  0  0  0  0
   -2.5720   -3.0420    1.2890 O   0  0  0  0  0  0  0  0  0  0  0  0
    0.3120    0.6160    1.1490 C   0  0  0  0  0  0  0  0  0  0  0  0
    0.6880    2.1040    1.2310 C   0  0  0  0  0  0  0  0  0  0  0  0
   -0.6390    2.8260    1.1440 C   0  0  0  0  0  0  0  0  0  0  0  0
   -1.3740    2.4910   -0.0140 N   0  0  0  0  0  0  0  0  0  0  0  0
   -0.9030    1.4600   -0.8480 C   0  0  0  0  0  0  0  0  0  0  0  0
  1  2  1  0
  2  3  1  0
  3  4  2  0
  3  5  1  0
  5  6  1  6
  5  7  1  0
  7  8  1  1
  7  9  1  0
  9 10  1  0
  9 16  1  1
  9 20  1  0
 10 11  1  6
 10 12  1  0
 12 13  1  0
 13 14  1  1
 13 15  1  0
 16 17  1  0
 17 18  1  0
 18 19  1  0
 19 20  1  0
M  CHG  2  11   1  19   1
M  END
