
     RDKit          3D

 21 21  0  0  0  0  0  0  0  0999 V2000
   -4.6440   -2.2480    0.7700 C   0  0  0  0  0  0  0  0  0  0  0  0
   -3.4020   -1.6370    0.8620 O   0  0  0  0  0  0  0  0  0  0  0  0
   -3.0130   -0.9640   -0.2650 C   0  0  1  0  0  0  0  0  0  0  0  0
   -3.0430    0.5160    0.0210 C   0  0  0  0  0  0  0  0  0  0  0  0
   -2.2280    0.9080    1.0470 O   0  0  0  0  0  0  0  0  0  0  0  0
   -2.3500    2.2430    1.1960 N   0  0  0  0  0  0  0  0  0  0  0  0
   -1.7650   -1.4630   -0.8980 C   0  0  1  0  0  0  0  0  0  0  0  0
   -1.3800   -0.7080   -2.0730 N   0  0  0  0  0  0  0  0  0  0  0  0
   -0.5900   -1.6860   -0.0310 C   0  0  2  0  0  0  0  0  0  0  0  0
    0.4150   -2.5960   -0.7730 C   0  0  0  0  0  0  0  0  0  0  0  0
   -0.8740   -2.3960    1.1350 O   0  0  0  0  0  0  0  0  0  0  0  0
    0.1920   -0.4800    0.3270 C   0  0  0  0  0  0  0  0  0  0  0  0
    0.5460   -0.2710    1.5390 O   0  0  0  0  0  0  0  0  0  0  0  0
    0.5840    0.4750   -0.5920 O   0  0  0  0  0  0  0  0  0  0  0  0
    1.3320    1.6340   -0.2830 C   0  0  0  0  0  0  0  0  0  0  0  0
    2.6620    1.2880    0.2940 C   0  0  1  0  0  0  0  0  0  0  0  0
    3.5030    0.5630   -0.7680 C   0  0  0  0  0  0  0  0  0  0  0  0
    4.6370    0.1110   -0.0850 O   0  0  0  0  0  0  0  0  0  0  0  0
    5.3860    1.1830    0.3200 C   0  0  0  0  0  0  0  0  0  0  0  0
    4.6370    2.2670    1.0030 C   0  0  0  0  0  0  0  0  0  0  0  0
    3.3530    2.4630    0.5760 O   0  0  0  0  0  0  0  0  0  0  0  0
  1  2  1  0
  2  3  1  0
  3  4  1  1
  3  7  1  0
  4  5  1  0
  5  6  1  0
  7  8  1  6
  7  9  1  0
  9 10  1  6
  9 11  1  0
  9 12  1  0
 12 13  2  0
 12 14  1  0
 14 15  1  0
 16 15  1  6
 16 17  1  0
 16 21  1  0
 17 18  1  0
 18 19  1  0
 19 20  1  0
 20 21  1  0
M  CHG  2   6   1   8   1
M  END
