
     RDKit          3D

 20 21  0  0  0  0  0  0  0  0999 V2000
    4.4960   -2.2330   -0.7520 N   0  0  0  0  0  0  0  0  0  0  0  0
    4.1320   -0.8380   -1.0620 C   0  0  0  0  0  0  0  0  0  0  0  0
    2.7360   -0.5810   -0.9740 C   0  0  0  0  0  0  0  0  0  0  0  0
    1.9130    0.1090   -0.2800 C   0  0  0  0  0  0  0  0  0  0  0  0
    0.5070    0.0230   -0.6300 O   0  0  0  0  0  0  0  0  0  0  0  0
   -0.3210    1.0700   -0.3030 C   0  0  1  0  0  0  0  0  0  0  0  0
   -1.7450    0.9420   -0.6800 C   0  0  0  0  0  0  0  0  0  0  0  0
   -2.5270   -0.1670   -0.1400 C   0  0  1  0  0  0  0  0  0  0  0  0
   -3.9530   -0.0550   -0.6900 C   0  0  0  0  0  0  0  0  0  0  0  0
   -4.6080    1.1400   -0.2570 N   0  0  0  0  0  0  0  0  0  0  0  0
   -2.0910   -1.5540   -0.3740 C   0  0  0  0  0  0  0  0  0  0  0  0
   -3.0470   -2.2170    0.4200 O   0  0  0  0  0  0  0  0  0  0  0  0
   -3.2250   -1.4130    1.5440 C   0  0  0  0  0  0  0  0  0  0  0  0
   -2.6800   -0.1660    1.2470 O   0  0  0  0  0  0  0  0  0  0  0  0
   -0.1850    1.1870    1.2310 C   0  0  0  0  0  0  0  0  0  0  0  0
    1.1150    1.6420    1.4440 O   0  0  0  0  0  0  0  0  0  0  0  0
    2.2210    0.9680    0.8260 C   0  0  0  0  0  0  0  0  0  0  0  0
    3.3740    1.2210    1.3670 C   0  0  0  0  0  0  0  0  0  0  0  0
    4.6040    0.7750    1.0810 O   0  0  0  0  0  0  0  0  0  0  0  0
    3.3570    2.1350    2.4630 O   0  0  0  0  0  0  0  0  0  0  0  0
  1  2  1  0
  2  3  1  0
  3  4  2  3
  4  5  1  0
  4 17  1  0
  5  6  1  0
  6  7  1  1
  6 15  1  0
  8  7  1  1
  8  9  1  0
  8 11  1  0
  8 14  1  0
  9 10  1  0
 11 12  1  0
 12 13  1  0
 13 14  1  0
 15 16  1  0
 16 17  1  0
 17 18  2  3
 18 19  1  0
 18 20  1  0
M  CHG  2   1   1  10   1
M  END
