
     RDKit          3D

 20 20  0  0  0  0  0  0  0  0999 V2000
    2.5940    0.6090    2.2660 N   0  0  0  0  0  0  0  0  0  0  0  0
    2.6540    1.0390    0.9310 C   0  0  0  0  0  0  0  0  0  0  0  0
    1.8330    0.4230   -0.1210 C   0  0  1  0  0  0  0  0  0  0  0  0
    1.9880   -0.8880   -0.4090 O   0  0  0  0  0  0  0  0  0  0  0  0
    1.8600   -1.8980    0.4170 C   0  0  2  0  0  0  0  0  0  0  0  0
    1.6920   -3.1790   -0.4580 C   0  0  0  0  0  0  0  0  0  0  0  0
    2.7950   -3.3520   -1.2630 O   0  0  0  0  0  0  0  0  0  0  0  0
    0.7150   -1.7830    1.3280 C   0  0  0  0  0  0  0  0  0  0  0  0
    0.5360   -2.8530    2.0030 O   0  0  0  0  0  0  0  0  0  0  0  0
   -0.1020   -0.7130    1.4950 O   0  0  0  0  0  0  0  0  0  0  0  0
   -0.5700    0.2720    0.6560 C   0  0  2  0  0  0  0  0  0  0  0  0
   -1.7660   -0.4190   -0.1070 C   0  0  1  0  0  0  0  0  0  0  0  0
   -2.6520   -0.7910    1.0620 C   0  0  0  0  0  0  0  0  0  0  0  0
   -3.7960   -1.4540    0.7960 O   0  0  0  0  0  0  0  0  0  0  0  0
   -2.4330    0.6090   -0.9550 C   0  0  0  0  0  0  0  0  0  0  0  0
   -3.5670    0.1360   -1.7720 C   0  0  0  0  0  0  0  0  0  0  0  0
   -4.6760   -0.3620   -1.1440 O   0  0  0  0  0  0  0  0  0  0  0  0
    0.3980    0.8970   -0.2510 C   0  0  1  0  0  0  0  0  0  0  0  0
    0.3870    2.4010   -0.3050 C   0  0  0  0  0  0  0  0  0  0  0  0
    1.1390    2.9240   -1.4270 N   0  0  0  0  0  0  0  0  0  0  0  0
  1  2  1  0
  3  2  1  1
  3  4  1  0
  3 18  1  0
  4  5  1  0
  5  6  1  6
  5  8  1  0
  6  7  1  0
  8  9  2  0
  8 10  1  0
 11 10  1  6
 11 12  1  0
 11 18  1  0
 12 13  1  1
 12 15  1  0
 13 14  1  0
 15 16  1  0
 16 17  1  0
 18 19  1  1
 19 20  1  0
M  CHG  2   1   1  20   1
M  END
