
     RDKit          3D

 25 26  0  0  0  0  0  0  0  0999 V2000
   -4.6140    1.1400   -0.4440 C   0  0  0  0  0  0  0  0  0  0  0  0
   -3.3070    1.0360    0.3070 C   0  0  1  0  0  0  0  0  0  0  0  0
   -2.1660    0.8710   -0.6520 C   0  0  2  0  0  0  0  0  0  0  0  0
   -2.1230    1.9910   -1.5090 O   0  0  0  0  0  0  0  0  0  0  0  0
   -2.4380   -0.3430   -1.5090 C   0  0  0  0  0  0  0  0  0  0  0  0
   -1.3990   -1.3250   -1.0450 C   0  0  2  0  0  0  0  0  0  0  0  0
   -1.7570   -1.8110    0.2050 O   0  0  0  0  0  0  0  0  0  0  0  0
   -0.1940   -0.4310   -0.8460 C   0  0  2  0  0  0  0  0  0  0  0  0
    0.3800    0.0890   -2.1190 C   0  0  0  0  0  0  0  0  0  0  0  0
    0.8520   -1.1790   -0.0650 C   0  0  2  0  0  0  0  0  0  0  0  0
    0.3630   -1.5870    1.2390 N   0  0  0  0  0  0  0  0  0  0  0  0
    1.9750   -0.3890    0.0150 O   0  0  0  0  0  0  0  0  0  0  0  0
    2.9840   -0.9510   -0.5920 O   0  0  0  0  0  0  0  0  0  0  0  0
    4.1270   -0.2220   -0.2320 C   0  0  2  0  0  0  0  0  0  0  0  0
    4.7750    0.2540   -1.5080 C   0  0  0  0  0  0  0  0  0  0  0  0
    5.9130    0.9810   -1.1430 O   0  0  0  0  0  0  0  0  0  0  0  0
    5.1050   -1.1580    0.4450 C   0  0  1  0  0  0  0  0  0  0  0  0
    6.2280   -0.4020    0.7900 O   0  0  0  0  0  0  0  0  0  0  0  0
    4.5470   -1.7450    1.5670 O   0  0  0  0  0  0  0  0  0  0  0  0
   -0.8360    0.6830   -0.0070 C   0  0  2  0  0  0  0  0  0  0  0  0
   -0.8820    0.2310    1.2890 O   0  0  0  0  0  0  0  0  0  0  0  0
   -3.1850    2.1790    1.0910 O   0  0  0  0  0  0  0  0  0  0  0  0
   -4.0910    1.9250    2.1310 C   0  0  0  0  0  0  0  0  0  0  0  0
   -3.8840    0.4500    2.3940 C   0  0  0  0  0  0  0  0  0  0  0  0
   -3.4090   -0.0260    1.1970 O   0  0  0  0  0  0  0  0  0  0  0  0
  2  1  1  6
  2  3  1  0
  2 22  1  0
  2 25  1  0
  3  4  1  6
  3  5  1  0
  3 20  1  0
  5  6  1  0
  6  7  1  1
  6  8  1  0
  8  9  1  6
  8 10  1  0
  8 20  1  0
 10 11  1  1
 10 12  1  0
 12 13  1  0
 13 14  1  0
 14 15  1  6
 14 17  1  0
 15 16  1  0
 17 18  1  1
 17 19  1  0
 20 21  1  1
 22 23  1  0
 23 24  1  0
 24 25  1  0
M  END
