
     RDKit          3D

 20 20  0  0  0  0  0  0  0  0999 V2000
    6.5610   -1.0660    0.8440 C   0  0  0  0  0  0  0  0  0  0  0  0
    5.8160   -0.1050    0.0460 N   0  0  0  0  0  0  0  0  0  0  0  0
    4.4680   -0.5600   -0.0070 C   0  0  0  0  0  0  0  0  0  0  0  0
    4.0160   -1.1460    0.9430 O   0  0  0  0  0  0  0  0  0  0  0  0
    3.6290   -0.3160   -1.2120 C   0  0  2  0  0  0  0  0  0  0  0  0
    3.3470    1.1910   -1.2340 C   0  0  0  0  0  0  0  0  0  0  0  0
    2.3750    1.2730   -0.0500 C   0  0  0  0  0  0  0  0  0  0  0  0
    1.6570   -0.0530   -0.1860 C   0  0  1  0  0  0  0  0  0  0  0  0
    0.2860    0.2710   -0.7100 C   0  0  0  0  0  0  0  0  0  0  0  0
   -0.0030   -0.2060   -1.8270 O   0  0  0  0  0  0  0  0  0  0  0  0
   -0.6270    1.0150   -0.0830 O   0  0  0  0  0  0  0  0  0  0  0  0
   -1.8930    1.4450   -0.3070 C   0  0  0  0  0  0  0  0  0  0  0  0
   -3.0280    0.4950   -0.3930 C   0  0  1  0  0  0  0  0  0  0  0  0
   -2.9590   -0.4610   -1.4500 N   0  0  0  0  0  0  0  0  0  0  0  0
   -3.3690   -0.1190    0.9440 C   0  0  0  0  0  0  0  0  0  0  0  0
   -4.4920   -1.0800    0.9360 C   0  0  2  0  0  0  0  0  0  0  0  0
   -4.3470   -2.1880    0.1390 O   0  0  0  0  0  0  0  0  0  0  0  0
   -5.8350   -0.4590    0.6300 C   0  0  0  0  0  0  0  0  0  0  0  0
   -6.0760    0.6790    1.3920 O   0  0  0  0  0  0  0  0  0  0  0  0
    2.3690   -0.8360   -1.0480 O   0  0  0  0  0  0  0  0  0  0  0  0
  1  2  1  0
  2  3  1  0
  3  4  2  0
  5  3  1  1
  5  6  1  0
  5 20  1  0
  6  7  1  0
  7  8  1  0
  8  9  1  6
  8 20  1  0
  9 10  2  0
  9 11  1  0
 11 12  1  0
 12 13  1  0
 13 14  1  6
 13 15  1  0
 15 16  1  0
 16 17  1  6
 16 18  1  0
 18 19  1  0
M  CHG  2   2   1  14   1
M  END
