
     RDKit          3D

 19 19  0  0  0  0  0  0  0  0999 V2000
   -2.2670    0.7520   -2.3630 N   0  0  0  0  0  0  0  0  0  0  0  0
   -2.0910    0.7620   -0.9110 C   0  0  2  0  0  0  0  0  0  0  0  0
   -0.6600    0.3240   -0.6580 C   0  0  2  0  0  0  0  0  0  0  0  0
   -0.4960   -0.9080   -1.2850 O   0  0  0  0  0  0  0  0  0  0  0  0
   -0.3610    0.2400    0.8280 C   0  0  2  0  0  0  0  0  0  0  0  0
    0.9540    0.0450    0.9970 O   0  0  0  0  0  0  0  0  0  0  0  0
    1.6900    1.0100    1.6120 C   0  0  0  0  0  0  0  0  0  0  0  0
    3.1480    0.6130    1.7120 C   0  0  2  0  0  0  0  0  0  0  0  0
    3.8470    1.6370    2.3470 O   0  0  0  0  0  0  0  0  0  0  0  0
    3.7070    0.3770    0.4650 O   0  0  0  0  0  0  0  0  0  0  0  0
    4.1650   -0.9330    0.3520 C   0  0  0  0  0  0  0  0  0  0  0  0
    4.7610   -1.1190   -1.0260 C   0  0  0  0  0  0  0  0  0  0  0  0
    5.8180   -0.2160   -1.1670 O   0  0  0  0  0  0  0  0  0  0  0  0
   -1.2910   -0.7660    1.4250 C   0  0  0  0  0  0  0  0  0  0  0  0
   -2.7190   -0.2360    1.2140 C   0  0  0  0  0  0  0  0  0  0  0  0
   -2.9740   -0.3020   -0.2700 C   0  0  2  0  0  0  0  0  0  0  0  0
   -2.5650   -1.5620   -0.7020 O   0  0  0  0  0  0  0  0  0  0  0  0
   -4.4310   -0.0690   -0.6050 C   0  0  0  0  0  0  0  0  0  0  0  0
   -4.8420    1.1850   -0.1760 O   0  0  0  0  0  0  0  0  0  0  0  0
  2  1  1  6
  2  3  1  0
  2 16  1  0
  3  4  1  1
  3  5  1  0
  5  6  1  6
  5 14  1  0
  6  7  1  0
  7  8  1  0
  8  9  1  6
  8 10  1  0
 10 11  1  0
 11 12  1  0
 12 13  1  0
 14 15  1  0
 15 16  1  0
 16 17  1  6
 16 18  1  0
 18 19  1  0
M  CHG  1   1   1
M  END
