
     RDKit          3D

 20 20  0  0  0  0  0  0  0  0999 V2000
    1.5710   -3.1330    0.7330 C   0  0  0  0  0  0  0  0  0  0  0  0
    2.3650   -1.9210    0.3320 C   0  0  1  0  0  0  0  0  0  0  0  0
    2.6690   -1.8580   -1.0160 O   0  0  0  0  0  0  0  0  0  0  0  0
    1.8910   -0.6330    0.9150 C   0  0  1  0  0  0  0  0  0  0  0  0
    2.9210    0.3340    0.7790 O   0  0  0  0  0  0  0  0  0  0  0  0
    0.6650   -0.0240    0.3360 C   0  0  1  0  0  0  0  0  0  0  0  0
    0.4430    1.1620    1.0940 O   0  0  0  0  0  0  0  0  0  0  0  0
    0.8190    0.4660   -1.0840 C   0  0  0  0  0  0  0  0  0  0  0  0
    1.8910    1.4840   -1.1110 C   0  0  0  0  0  0  0  0  0  0  0  0
    2.9790    1.2090   -1.6590 O   0  0  0  0  0  0  0  0  0  0  0  0
    1.7400    2.7430   -0.5450 O   0  0  0  0  0  0  0  0  0  0  0  0
    2.7220    3.7110   -0.5480 N   0  0  0  0  0  0  0  0  0  0  0  0
   -0.5850   -0.8270    0.5360 C   0  0  0  0  0  0  0  0  0  0  0  0
   -1.8260   -0.2360   -0.0260 C   0  0  2  0  0  0  0  0  0  0  0  0
   -2.1710    1.0160    0.4800 O   0  0  0  0  0  0  0  0  0  0  0  0
   -3.2850    1.4200   -0.2540 C   0  0  0  0  0  0  0  0  0  0  0  0
   -4.4130    0.4390   -0.2460 C   0  0  0  0  0  0  0  0  0  0  0  0
   -4.0660   -0.8830   -0.2740 O   0  0  0  0  0  0  0  0  0  0  0  0
   -2.9620   -1.1530    0.4790 C   0  0  2  0  0  0  0  0  0  0  0  0
   -3.1490   -0.8130    1.8150 O   0  0  0  0  0  0  0  0  0  0  0  0
  2  1  1  6
  2  3  1  0
  2  4  1  0
  4  5  1  6
  4  6  1  0
  6  7  1  1
  6  8  1  0
  6 13  1  0
  8  9  1  0
  9 10  2  0
  9 11  1  0
 11 12  1  0
 14 13  1  1
 14 15  1  0
 14 19  1  0
 15 16  1  0
 16 17  1  0
 17 18  1  0
 18 19  1  0
 19 20  1  1
M  CHG  1  12   1
M  END
