
     RDKit          3D

 19 19  0  0  0  0  0  0  0  0999 V2000
   -1.7740   -1.8760    1.7370 C   0  0  0  0  0  0  0  0  0  0  0  0
   -1.7190   -0.4410    1.1810 C   0  0  2  0  0  0  0  0  0  0  0  0
   -1.7410    0.4250    2.4410 C   0  0  0  0  0  0  0  0  0  0  0  0
   -1.6960    1.8200    2.1600 N   0  0  0  0  0  0  0  0  0  0  0  0
   -2.9090   -0.1870    0.3390 C   0  0  2  0  0  0  0  0  0  0  0  0
   -3.9870   -0.9180    0.8870 O   0  0  0  0  0  0  0  0  0  0  0  0
   -2.7840   -0.5350   -1.1000 C   0  0  0  0  0  0  0  0  0  0  0  0
   -1.5860   -0.2630   -1.6900 O   0  0  0  0  0  0  0  0  0  0  0  0
   -0.6220    0.2860   -0.8900 C   0  0  2  0  0  0  0  0  0  0  0  0
    0.6280    0.2540   -1.5520 O   0  0  0  0  0  0  0  0  0  0  0  0
    1.1110    1.5010   -1.8060 C   0  0  0  0  0  0  0  0  0  0  0  0
    2.3980    1.5650   -2.5460 C   0  0  0  0  0  0  0  0  0  0  0  0
    3.4970    0.9850   -1.9980 O   0  0  0  0  0  0  0  0  0  0  0  0
    3.4540   -0.3600   -1.8020 C   0  0  1  0  0  0  0  0  0  0  0  0
    4.4530   -1.0180   -2.5720 O   0  0  0  0  0  0  0  0  0  0  0  0
    3.7920   -0.7530   -0.3620 C   0  0  0  0  0  0  0  0  0  0  0  0
    2.9250   -0.1890    0.5530 O   0  0  0  0  0  0  0  0  0  0  0  0
   -0.4380   -0.3240    0.4430 C   0  0  2  0  0  0  0  0  0  0  0  0
    0.1680   -1.5640    0.2800 O   0  0  0  0  0  0  0  0  0  0  0  0
  2  1  1  1
  2  3  1  0
  2  5  1  0
  2 18  1  0
  3  4  1  0
  5  6  1  1
  5  7  1  0
  7  8  1  0
  8  9  1  0
  9 10  1  6
  9 18  1  0
 10 11  1  0
 11 12  1  0
 12 13  1  0
 13 14  1  0
 14 15  1  6
 14 16  1  0
 16 17  1  0
 18 19  1  6
M  CHG  1   4   1
M  END
