
     RDKit          3D

 20 20  0  0  0  0  0  0  0  0999 V2000
    4.7740    2.5090    0.0280 C   0  0  0  0  0  0  0  0  0  0  0  0
    3.7380    1.6300   -0.6360 C   0  0  1  0  0  0  0  0  0  0  0  0
    4.2290    1.0900   -1.8320 O   0  0  0  0  0  0  0  0  0  0  0  0
    3.3710    0.4500    0.2490 C   0  0  2  0  0  0  0  0  0  0  0  0
    4.5100   -0.3410    0.4900 O   0  0  0  0  0  0  0  0  0  0  0  0
    2.3460   -0.2960   -0.3080 O   0  0  0  0  0  0  0  0  0  0  0  0
    1.2640   -0.2890    0.5680 C   0  0  2  0  0  0  0  0  0  0  0  0
    1.0440   -1.6020    0.9270 O   0  0  0  0  0  0  0  0  0  0  0  0
   -0.3260   -1.7060    1.0530 C   0  0  0  0  0  0  0  0  0  0  0  0
   -0.8060   -0.8350   -0.1180 C   0  0  1  0  0  0  0  0  0  0  0  0
   -0.5870   -1.5730   -1.4250 C   0  0  0  0  0  0  0  0  0  0  0  0
   -2.2260   -0.5010    0.1300 C   0  0  2  0  0  0  0  0  0  0  0  0
   -2.2840    0.0390    1.4450 O   0  0  0  0  0  0  0  0  0  0  0  0
   -3.0280   -1.7840    0.2140 C   0  0  0  0  0  0  0  0  0  0  0  0
   -4.4080   -1.5280    0.5940 N   0  0  0  0  0  0  0  0  0  0  0  0
   -2.8620    0.5110   -0.7440 C   0  0  0  0  0  0  0  0  0  0  0  0
   -2.2510    1.8480   -0.6700 C   0  0  0  0  0  0  0  0  0  0  0  0
   -1.3390    2.2080    0.1110 O   0  0  0  0  0  0  0  0  0  0  0  0
   -2.6800    2.8880   -1.5340 O   0  0  0  0  0  0  0  0  0  0  0  0
    0.1070    0.1770   -0.0550 O   0  0  0  0  0  0  0  0  0  0  0  0
  2  1  1  1
  2  3  1  0
  2  4  1  0
  4  5  1  6
  4  6  1  0
  7  6  1  6
  7  8  1  0
  7 20  1  0
  8  9  1  0
  9 10  1  0
 10 11  1  6
 10 12  1  0
 10 20  1  0
 12 13  1  1
 12 14  1  0
 12 16  1  0
 14 15  1  0
 16 17  1  0
 17 18  2  0
 17 19  1  0
M  CHG  1  15   1
M  END
