
     RDKit          3D

 20 21  0  0  0  0  0  0  0  0999 V2000
   -1.3100    3.5830   -0.3480 N   0  0  0  0  0  0  0  0  0  0  0  0
   -0.1330    2.9660   -0.1320 O   0  0  0  0  0  0  0  0  0  0  0  0
   -0.1430    1.6260   -0.4490 C   0  0  2  0  0  0  0  0  0  0  0  0
   -0.4420    1.3690   -1.7780 O   0  0  0  0  0  0  0  0  0  0  0  0
   -1.1840    0.9350    0.3970 C   0  0  0  0  0  0  0  0  0  0  0  0
   -1.2360   -0.5290    0.0890 C   0  0  2  0  0  0  0  0  0  0  0  0
   -2.4220   -0.7750   -0.8510 C   0  0  0  0  0  0  0  0  0  0  0  0
   -2.8990   -2.0810   -0.7240 O   0  0  0  0  0  0  0  0  0  0  0  0
   -3.5160   -2.2460    0.5150 C   0  0  0  0  0  0  0  0  0  0  0  0
   -2.9300   -1.2520    1.4780 C   0  0  0  0  0  0  0  0  0  0  0  0
   -1.5650   -1.1950    1.2810 O   0  0  0  0  0  0  0  0  0  0  0  0
   -0.0270   -1.0790   -0.5590 C   0  0  0  0  0  0  0  0  0  0  0  0
    1.2650   -0.4340   -0.1510 C   0  0  1  0  0  0  0  0  0  0  0  0
    2.2260   -0.8440   -1.0570 O   0  0  0  0  0  0  0  0  0  0  0  0
    3.2560   -1.5860   -0.5630 C   0  0  0  0  0  0  0  0  0  0  0  0
    4.0550   -0.8210    0.4460 C   0  0  0  0  0  0  0  0  0  0  0  0
    5.0890   -1.6560    0.8960 O   0  0  0  0  0  0  0  0  0  0  0  0
    1.2280    1.0660   -0.1700 C   0  0  1  0  0  0  0  0  0  0  0  0
    2.0880    1.6140   -1.1180 O   0  0  0  0  0  0  0  0  0  0  0  0
    1.6320    1.5270    1.0820 O   0  0  0  0  0  0  0  0  0  0  0  0
  1  2  1  0
  2  3  1  0
  3  4  1  6
  3  5  1  0
  3 18  1  0
  6  5  1  1
  6  7  1  0
  6 11  1  0
  6 12  1  0
  7  8  1  0
  8  9  1  0
  9 10  1  0
 10 11  1  0
 12 13  1  0
 13 14  1  6
 13 18  1  0
 14 15  1  0
 15 16  1  0
 16 17  1  0
 18 19  1  6
 18 20  1  0
M  CHG  1   1   1
M  END
