
     RDKit          3D

 18 19  0  0  0  0  0  0  0  0999 V2000
    3.2110   -1.0700    0.1280 N   0  0  0  0  0  0  0  0  0  0  0  0
    2.4550    0.1410    0.0300 C   0  0  2  0  0  0  0  0  0  0  0  0
    3.3900    1.2880   -0.0650 C   0  0  0  0  0  0  0  0  0  0  0  0
    4.6240    1.0500   -0.0450 O   0  0  0  0  0  0  0  0  0  0  0  0
    2.9160    2.5950   -0.1710 O   0  0  0  0  0  0  0  0  0  0  0  0
    1.5400    0.3640    1.2100 C   0  0  0  0  0  0  0  0  0  0  0  0
    0.1760    0.8610    0.8360 C   0  0  0  0  0  0  0  0  0  0  0  0
   -0.5170    0.0830   -0.2320 C   0  0  2  0  0  0  0  0  0  0  0  0
   -1.5430   -0.8550    0.3120 C   0  0  2  0  0  0  0  0  0  0  0  0
   -2.2140   -1.5640   -0.6670 O   0  0  0  0  0  0  0  0  0  0  0  0
   -3.4750   -1.8610   -0.1950 C   0  0  0  0  0  0  0  0  0  0  0  0
   -3.5970   -1.2880    1.0560 O   0  0  0  0  0  0  0  0  0  0  0  0
   -2.6710   -0.2090    1.0740 C   0  0  2  0  0  0  0  0  0  0  0  0
   -3.3210    0.9310    0.3310 C   0  0  0  0  0  0  0  0  0  0  0  0
   -2.4770    2.0150    0.3440 O   0  0  0  0  0  0  0  0  0  0  0  0
    0.4460   -0.7000   -1.1000 C   0  0  2  0  0  0  0  0  0  0  0  0
    0.7040   -1.9710   -0.6740 O   0  0  0  0  0  0  0  0  0  0  0  0
    1.6790    0.1250   -1.2770 C   0  0  0  0  0  0  0  0  0  0  0  0
  2  1  1  1
  2  3  1  0
  2  6  1  0
  2 18  1  0
  3  4  2  0
  3  5  1  0
  6  7  1  0
  8  7  1  1
  8  9  1  0
  8 16  1  0
  9 10  1  6
  9 13  1  0
 10 11  1  0
 11 12  1  0
 12 13  1  0
 13 14  1  6
 14 15  1  0
 16 17  1  1
 16 18  1  0
M  CHG  1   1   1
M  END
