
     RDKit          3D

 19 19  0  0  0  0  0  0  0  0999 V2000
   -3.9690    1.8410   -1.2120 C   0  0  0  0  0  0  0  0  0  0  0  0
   -4.1620    0.8060   -0.1250 C   0  0  1  0  0  0  0  0  0  0  0  0
   -4.4790   -0.5450   -0.7700 C   0  0  0  0  0  0  0  0  0  0  0  0
   -4.6610   -1.5140    0.1900 O   0  0  0  0  0  0  0  0  0  0  0  0
   -2.8720    0.7070    0.6680 C   0  0  0  0  0  0  0  0  0  0  0  0
   -1.8250    0.3160   -0.2130 O   0  0  0  0  0  0  0  0  0  0  0  0
   -0.5310    0.1490    0.2540 C   0  0  0  0  0  0  0  0  0  0  0  0
   -0.2880    0.3510    1.4870 O   0  0  0  0  0  0  0  0  0  0  0  0
    0.5330   -0.2260   -0.5280 O   0  0  0  0  0  0  0  0  0  0  0  0
    1.8080   -0.3750    0.0040 C   0  0  2  0  0  0  0  0  0  0  0  0
    2.8570    0.4830   -0.6690 C   0  0  1  0  0  0  0  0  0  0  0  0
    3.0890    1.7790    0.0650 C   0  0  0  0  0  0  0  0  0  0  0  0
    1.8860    2.5770    0.1570 N   0  0  0  0  0  0  0  0  0  0  0  0
    4.0170   -0.2390   -0.7330 O   0  0  0  0  0  0  0  0  0  0  0  0
    3.8540   -1.4280   -0.0670 C   0  0  0  0  0  0  0  0  0  0  0  0
    2.4100   -1.7540   -0.2840 C   0  0  2  0  0  0  0  0  0  0  0  0
    2.1720   -2.1120   -1.5870 O   0  0  0  0  0  0  0  0  0  0  0  0
    1.8700   -2.7980    0.6410 C   0  0  0  0  0  0  0  0  0  0  0  0
    2.0730   -2.5080    1.9780 O   0  0  0  0  0  0  0  0  0  0  0  0
  2  1  1  6
  2  3  1  0
  2  5  1  0
  3  4  1  0
  5  6  1  0
  6  7  1  0
  7  8  2  0
  7  9  1  0
 10  9  1  6
 10 11  1  0
 10 16  1  0
 11 12  1  1
 11 14  1  0
 12 13  1  0
 14 15  1  0
 15 16  1  0
 16 17  1  6
 16 18  1  0
 18 19  1  0
M  CHG  1  13   1
M  END
