
     RDKit          3D

 19 20  0  0  0  0  0  0  0  0999 V2000
    2.4170    1.3540    0.3680 N   0  0  0  0  0  0  0  0  0  0  0  0
    2.8160    0.0210   -0.0340 C   0  0  1  0  0  0  0  0  0  0  0  0
    1.6620   -0.7230   -0.6690 C   0  0  0  0  0  0  0  0  0  0  0  0
    0.4980   -0.8690    0.2730 C   0  0  2  0  0  0  0  0  0  0  0  0
    0.9540   -1.6250    1.4710 C   0  0  0  0  0  0  0  0  0  0  0  0
    0.8040   -1.2360    2.6400 O   0  0  0  0  0  0  0  0  0  0  0  0
    1.5870   -2.8440    1.2660 O   0  0  0  0  0  0  0  0  0  0  0  0
   -0.5940   -1.6930   -0.3750 C   0  0  0  0  0  0  0  0  0  0  0  0
   -1.6790   -0.7050   -0.7440 C   0  0  1  0  0  0  0  0  0  0  0  0
   -2.8200   -0.8850    0.0460 O   0  0  0  0  0  0  0  0  0  0  0  0
   -3.8430   -0.1390   -0.5310 C   0  0  0  0  0  0  0  0  0  0  0  0
   -3.3670    1.2840   -0.6990 C   0  0  1  0  0  0  0  0  0  0  0  0
   -4.3630    2.1990   -0.3150 O   0  0  0  0  0  0  0  0  0  0  0  0
   -2.1010    1.5570    0.0890 C   0  0  0  0  0  0  0  0  0  0  0  0
   -1.0250    0.6150   -0.4000 C   0  0  1  0  0  0  0  0  0  0  0  0
   -0.1120    0.3170    0.5920 O   0  0  0  0  0  0  0  0  0  0  0  0
    3.9640    0.1080   -0.9630 C   0  0  0  0  0  0  0  0  0  0  0  0
    4.4550   -0.9490   -1.4240 O   0  0  0  0  0  0  0  0  0  0  0  0
    4.5230    1.3110   -1.3480 O   0  0  0  0  0  0  0  0  0  0  0  0
  2  1  1  6
  2  3  1  0
  2 17  1  0
  4  3  1  6
  4  5  1  0
  4  8  1  0
  4 16  1  0
  5  6  2  0
  5  7  1  0
  9  8  1  1
  9 10  1  0
  9 15  1  0
 10 11  1  0
 11 12  1  0
 12 13  1  1
 12 14  1  0
 15 14  1  1
 15 16  1  0
 17 18  2  0
 17 19  1  0
M  CHG  1   1   1
M  END
