
     RDKit          3D

 19 20  0  0  0  0  0  0  0  0999 V2000
    2.0750    1.0290    1.6810 O   0  0  0  0  0  0  0  0  0  0  0  0
    2.2220    1.0280    0.4150 C   0  0  0  0  0  0  0  0  0  0  0  0
    1.3120    0.3830   -0.4050 O   0  0  0  0  0  0  0  0  0  0  0  0
    0.2220   -0.2740    0.1730 C   0  0  2  0  0  0  0  0  0  0  0  0
    0.3420   -1.7680   -0.0910 C   0  0  0  0  0  0  0  0  0  0  0  0
   -0.6750   -2.4240    0.6810 N   0  0  0  0  0  0  0  0  0  0  0  0
   -1.9930   -1.9080    0.4570 C   0  0  0  0  0  0  0  0  0  0  0  0
   -2.0420   -0.8940   -0.6580 C   0  0  1  0  0  0  0  0  0  0  0  0
   -1.7810   -1.4920   -1.9070 O   0  0  0  0  0  0  0  0  0  0  0  0
   -3.4770   -0.3970   -0.7460 C   0  0  0  0  0  0  0  0  0  0  0  0
   -3.8370    0.1950    0.4410 O   0  0  0  0  0  0  0  0  0  0  0  0
   -3.1420    1.4230    0.5100 C   0  0  0  0  0  0  0  0  0  0  0  0
   -1.6900    1.1330    0.6980 C   0  0  2  0  0  0  0  0  0  0  0  0
   -0.9870    2.3420    0.7920 O   0  0  0  0  0  0  0  0  0  0  0  0
   -1.1070    0.2270   -0.3520 C   0  0  1  0  0  0  0  0  0  0  0  0
    3.4000    1.7400   -0.1880 C   0  0  1  0  0  0  0  0  0  0  0  0
    4.1620    2.3040    0.8070 O   0  0  0  0  0  0  0  0  0  0  0  0
    4.2630    0.7120   -0.9300 C   0  0  0  0  0  0  0  0  0  0  0  0
    4.6710   -0.2550   -0.0120 O   0  0  0  0  0  0  0  0  0  0  0  0
  1  2  2  0
  2  3  1  0
  2 16  1  0
  4  3  1  6
  4  5  1  0
 15  4  1  1
  5  6  1  0
  6  7  1  0
  7  8  1  0
  8  9  1  6
  8 10  1  0
  8 15  1  0
 10 11  1  0
 11 12  1  0
 12 13  1  0
 13 14  1  6
 13 15  1  0
 16 17  1  1
 16 18  1  0
 18 19  1  0
M  CHG  1   6   1
M  END
