
     RDKit          3D

 18 19  0  0  0  0  0  0  0  0999 V2000
   -1.0620   -1.2400    1.8450 C   0  0  0  0  0  0  0  0  0  0  0  0
   -0.8710   -0.5800    0.4830 C   0  0  1  0  0  0  0  0  0  0  0  0
    0.6050   -0.1530    0.3990 C   0  0  1  0  0  0  0  0  0  0  0  0
    1.3610   -1.3910    0.6170 N   0  0  0  0  0  0  0  0  0  0  0  0
    0.9170    0.3930   -0.9460 C   0  0  0  0  0  0  0  0  0  0  0  0
    2.2860    0.8840   -1.1520 C   0  0  2  0  0  0  0  0  0  0  0  0
    3.4430   -0.0160   -1.0220 C   0  0  0  0  0  0  0  0  0  0  0  0
    4.1890    0.3970    0.1110 O   0  0  0  0  0  0  0  0  0  0  0  0
    3.5570    1.5130    0.5950 C   0  0  0  0  0  0  0  0  0  0  0  0
    2.6180    1.9510   -0.2970 O   0  0  0  0  0  0  0  0  0  0  0  0
   -1.1450   -1.5410   -0.5110 O   0  0  0  0  0  0  0  0  0  0  0  0
   -2.4530   -1.8270   -0.8330 C   0  0  0  0  0  0  0  0  0  0  0  0
   -2.8260   -3.0260   -1.0040 O   0  0  0  0  0  0  0  0  0  0  0  0
   -3.4130   -0.7210   -0.9770 C   0  0  0  0  0  0  0  0  0  0  0  0
   -2.6700    0.5910   -0.8250 C   0  0  1  0  0  0  0  0  0  0  0  0
   -3.6310    1.5900   -0.6840 O   0  0  0  0  0  0  0  0  0  0  0  0
   -1.8010    0.5860    0.4190 C   0  0  2  0  0  0  0  0  0  0  0  0
   -1.1730    1.8250    0.5240 O   0  0  0  0  0  0  0  0  0  0  0  0
  2  1  1  1
  2  3  1  0
  2 11  1  0
  2 17  1  0
  3  4  1  6
  3  5  1  0
  6  5  1  1
  6  7  1  0
  6 10  1  0
  7  8  1  0
  8  9  1  0
  9 10  1  0
 11 12  1  0
 12 13  2  0
 12 14  1  0
 14 15  1  0
 15 16  1  1
 15 17  1  0
 17 18  1  6
M  CHG  1   4   1
M  END
