
     RDKit          3D

 18 19  0  0  0  0  0  0  0  0999 V2000
   -2.1200    1.2820    0.8500 N   0  0  0  0  0  0  0  0  0  0  0  0
   -1.7750    0.1290    0.0860 C   0  0  2  0  0  0  0  0  0  0  0  0
   -2.5690    0.1760   -1.1970 C   0  0  0  0  0  0  0  0  0  0  0  0
   -3.9300   -0.2790   -0.6610 C   0  0  0  0  0  0  0  0  0  0  0  0
   -3.7240   -0.7800    0.6230 O   0  0  0  0  0  0  0  0  0  0  0  0
   -2.3810   -1.1460    0.6460 C   0  0  2  0  0  0  0  0  0  0  0  0
   -1.8330   -1.4160    1.9970 C   0  0  0  0  0  0  0  0  0  0  0  0
   -0.7930   -0.5650    2.2560 O   0  0  0  0  0  0  0  0  0  0  0  0
    0.1980   -0.5130    1.3090 C   0  0  0  0  0  0  0  0  0  0  0  0
   -0.3110   -0.1150   -0.0860 C   0  0  1  0  0  0  0  0  0  0  0  0
   -0.1290   -1.1380   -0.9810 O   0  0  0  0  0  0  0  0  0  0  0  0
    0.3340    1.1770   -0.5110 C   0  0  0  0  0  0  0  0  0  0  0  0
    1.7940    1.0910   -0.7230 C   0  0  0  0  0  0  0  0  0  0  0  0
    2.2420    1.0210   -1.9230 O   0  0  0  0  0  0  0  0  0  0  0  0
    2.7110    1.0780    0.2820 O   0  0  0  0  0  0  0  0  0  0  0  0
    4.0950    1.0010    0.1820 C   0  0  0  0  0  0  0  0  0  0  0  0
    4.6340   -0.2040   -0.5260 C   0  0  0  0  0  0  0  0  0  0  0  0
    4.2220   -1.3470    0.1430 O   0  0  0  0  0  0  0  0  0  0  0  0
  2  1  1  1
  2  3  1  0
  2  6  1  0
  2 10  1  0
  3  4  1  0
  4  5  1  0
  5  6  1  0
  6  7  1  1
  7  8  1  0
  8  9  1  0
  9 10  1  0
 10 11  1  6
 10 12  1  0
 12 13  1  0
 13 14  2  0
 13 15  1  0
 15 16  1  0
 16 17  1  0
 17 18  1  0
M  CHG  1   1   1
M  END
