
     RDKit          3D

 19 19  0  0  0  0  0  0  0  0999 V2000
    4.0590   -3.0220    0.2900 C   0  0  0  0  0  0  0  0  0  0  0  0
    3.1610   -2.0550   -0.1830 O   0  0  0  0  0  0  0  0  0  0  0  0
    3.0960   -0.7950    0.3680 C   0  0  0  0  0  0  0  0  0  0  0  0
    3.8520   -0.4860    1.3200 O   0  0  0  0  0  0  0  0  0  0  0  0
    2.1460    0.2200   -0.1370 C   0  0  2  0  0  0  0  0  0  0  0  0
    2.2860    1.3940    0.5900 O   0  0  0  0  0  0  0  0  0  0  0  0
    2.5340    2.4980   -0.1960 C   0  0  0  0  0  0  0  0  0  0  0  0
    2.6510    3.6000    0.6560 O   0  0  0  0  0  0  0  0  0  0  0  0
    0.7380   -0.3090    0.1880 C   0  0  2  0  0  0  0  0  0  0  0  0
    0.5640   -1.4720   -0.5140 O   0  0  0  0  0  0  0  0  0  0  0  0
   -0.2030    0.7910   -0.1010 C   0  0  0  0  0  0  0  0  0  0  0  0
   -1.6490    0.5570    0.1270 C   0  0  2  0  0  0  0  0  0  0  0  0
   -2.3200    1.8190   -0.2420 N   0  0  0  0  0  0  0  0  0  0  0  0
   -1.9740    0.2030    1.5660 C   0  0  0  0  0  0  0  0  0  0  0  0
   -2.4030   -1.2340    1.7070 C   0  0  0  0  0  0  0  0  0  0  0  0
   -3.4990   -1.5720    0.9610 O   0  0  0  0  0  0  0  0  0  0  0  0
   -3.6680   -0.7500   -0.1260 C   0  0  0  0  0  0  0  0  0  0  0  0
   -2.2780   -0.5010   -0.7310 C   0  0  1  0  0  0  0  0  0  0  0  0
   -2.4490   -0.0850   -2.0490 O   0  0  0  0  0  0  0  0  0  0  0  0
  1  2  1  0
  2  3  1  0
  3  4  2  0
  3  5  1  0
  5  6  1  1
  5  9  1  0
  6  7  1  0
  7  8  1  0
  9 10  1  6
  9 11  1  0
 11 12  1  0
 12 13  1  6
 12 14  1  0
 12 18  1  0
 14 15  1  0
 15 16  1  0
 16 17  1  0
 17 18  1  0
 18 19  1  6
M  CHG  1  13   1
M  END
