
     RDKit          3D

 18 19  0  0  0  0  0  0  0  0999 V2000
   -3.3330   -0.0180   -0.2150 C   0  0  0  0  0  0  0  0  0  0  0  0
   -2.2250    0.5590    0.6040 C   0  0  2  0  0  0  0  0  0  0  0  0
   -2.4710    0.2860    1.9360 O   0  0  0  0  0  0  0  0  0  0  0  0
   -2.1890    2.0390    0.4550 C   0  0  0  0  0  0  0  0  0  0  0  0
   -3.1000    2.8190    0.0460 O   0  0  0  0  0  0  0  0  0  0  0  0
   -0.8940    2.3980    0.8760 O   0  0  0  0  0  0  0  0  0  0  0  0
   -0.0100    1.3300    0.6350 C   0  0  1  0  0  0  0  0  0  0  0  0
    0.3540    0.4950    1.8340 C   0  0  0  0  0  0  0  0  0  0  0  0
   -0.0670   -0.7320    1.0310 C   0  0  2  0  0  0  0  0  0  0  0  0
   -0.7630   -1.7320    1.7720 N   0  0  0  0  0  0  0  0  0  0  0  0
    1.1260   -1.2770    0.3000 C   0  0  0  0  0  0  0  0  0  0  0  0
    1.4470   -2.4930    0.3570 O   0  0  0  0  0  0  0  0  0  0  0  0
    1.9370   -0.4670   -0.4790 O   0  0  0  0  0  0  0  0  0  0  0  0
    3.0690   -0.9420   -1.1830 C   0  0  0  0  0  0  0  0  0  0  0  0
    3.6660    0.2640   -1.9000 C   0  0  0  0  0  0  0  0  0  0  0  0
    4.0470    1.2580   -1.0350 O   0  0  0  0  0  0  0  0  0  0  0  0
   -0.8550    0.1650    0.1540 C   0  0  1  0  0  0  0  0  0  0  0  0
   -0.7420   -0.0040   -1.3200 C   0  0  0  0  0  0  0  0  0  0  0  0
  2  1  1  6
  2  3  1  0
  2  4  1  0
  2 17  1  0
  4  5  2  0
  4  6  1  0
  6  7  1  0
  7  8  1  1
  7 17  1  0
  8  9  1  0
  9 10  1  1
  9 11  1  0
  9 17  1  0
 11 12  2  0
 11 13  1  0
 13 14  1  0
 14 15  1  0
 15 16  1  0
 17 18  1  6
M  CHG  1  10   1
M  END
