
     RDKit          3D

 18 19  0  0  0  0  0  0  0  0999 V2000
    2.0910    0.6400   -2.0030 N   0  0  0  0  0  0  0  0  0  0  0  0
    1.4130    0.0900   -0.8310 C   0  0  2  0  0  0  0  0  0  0  0  0
   -0.0670    0.1670   -0.9340 C   0  0  2  0  0  0  0  0  0  0  0  0
   -0.6010    1.5800   -1.0690 C   0  0  0  0  0  0  0  0  0  0  0  0
   -2.1100    1.4560   -1.3290 C   0  0  0  0  0  0  0  0  0  0  0  0
   -2.6790    0.8770   -0.2380 O   0  0  0  0  0  0  0  0  0  0  0  0
   -2.3070   -0.4350    0.0120 C   0  0  2  0  0  0  0  0  0  0  0  0
   -2.9240   -1.3090   -1.0350 C   0  0  0  0  0  0  0  0  0  0  0  0
   -2.6160   -2.6570   -0.8720 O   0  0  0  0  0  0  0  0  0  0  0  0
   -2.8400   -0.7630    1.4050 C   0  0  0  0  0  0  0  0  0  0  0  0
   -4.1990   -0.6460    1.5000 O   0  0  0  0  0  0  0  0  0  0  0  0
   -0.8090   -0.6400    0.0700 C   0  0  0  0  0  0  0  0  0  0  0  0
    2.0380    0.8150    0.3290 C   0  0  2  0  0  0  0  0  0  0  0  0
    3.4210    0.5020    0.2560 O   0  0  0  0  0  0  0  0  0  0  0  0
    4.0070    0.5990    1.5150 C   0  0  0  0  0  0  0  0  0  0  0  0
    3.4080   -0.4980    2.3730 C   0  0  0  0  0  0  0  0  0  0  0  0
    2.0510   -0.5510    2.1210 O   0  0  0  0  0  0  0  0  0  0  0  0
    1.5590    0.5060    1.5650 O   0  0  0  0  0  0  0  0  0  0  0  0
  2  1  1  6
  2  3  1  0
  2 13  1  0
  3  4  1  1
  3 12  1  0
  4  5  1  0
  5  6  1  0
  6  7  1  0
  7  8  1  6
  7 10  1  0
  7 12  1  0
  8  9  1  0
 10 11  1  0
 13 14  1  1
 13 18  1  0
 14 15  1  0
 15 16  1  0
 16 17  1  0
 17 18  1  0
M  CHG  1   1   1
M  END
