
     RDKit          3D

 16 16  0  0  0  0  0  0  0  0999 V2000
   -1.9740    1.6070    1.4250 O   0  0  0  0  0  0  0  0  0  0  0  0
   -2.6560    0.8420    0.7950 C   0  0  0  0  0  0  0  0  0  0  0  0
   -4.1300    0.7410    1.0770 C   0  0  0  0  0  0  0  0  0  0  0  0
   -4.7420   -0.1950    0.2490 O   0  0  0  0  0  0  0  0  0  0  0  0
   -2.1030   -0.0090   -0.2540 C   0  0  0  0  0  0  0  0  0  0  0  0
   -0.6240    0.1140   -0.4750 C   0  0  1  0  0  0  0  0  0  0  0  0
    0.1870   -0.2430    0.7550 C   0  0  0  0  0  0  0  0  0  0  0  0
    1.6480   -0.1020    0.4710 C   0  0  0  0  0  0  0  0  0  0  0  0
    2.3680   -1.1740   -0.0110 C   0  0  0  0  0  0  0  0  0  0  0  0
    3.7110   -0.9980   -0.2600 C   0  0  0  0  0  0  0  0  0  0  0  0
    4.3410    0.2010   -0.0420 C   0  0  0  0  0  0  0  0  0  0  0  0
    3.6080    1.2640    0.4400 C   0  0  0  0  0  0  0  0  0  0  0  0
    2.2610    1.1150    0.6980 C   0  0  0  0  0  0  0  0  0  0  0  0
   -0.1790   -0.6640   -1.6540 C   0  0  0  0  0  0  0  0  0  0  0  0
    0.3890   -0.1120   -2.6250 O   0  0  0  0  0  0  0  0  0  0  0  0
   -0.3840   -2.0300   -1.7020 O   0  0  0  0  0  0  0  0  0  0  0  0
  1  2  2  0
  2  3  1  0
  2  5  1  0
  3  4  1  0
  6  5  1  1
  6  7  1  0
  6 14  1  0
  7  8  1  0
  8  9  2  0
  8 13  1  0
  9 10  1  0
 10 11  2  0
 11 12  1  0
 12 13  2  0
 14 15  2  0
 14 16  1  0
M  END
