
     RDKit          3D

 16 16  0  0  0  0  0  0  0  0999 V2000
   -5.1280   -1.7130    0.2170 C   0  0  0  0  0  0  0  0  0  0  0  0
   -3.7460   -1.6260   -0.0620 O   0  0  0  0  0  0  0  0  0  0  0  0
   -3.0430   -0.4190    0.1580 C   0  0  0  0  0  0  0  0  0  0  0  0
   -3.7510    0.4980    0.6000 O   0  0  0  0  0  0  0  0  0  0  0  0
   -1.6290   -0.3090   -0.1210 C   0  0  0  0  0  0  0  0  0  0  0  0
   -0.9160    0.9510    0.1100 C   0  0  0  0  0  0  0  0  0  0  0  0
   -1.3760    2.0610    0.5550 C   0  0  0  0  0  0  0  0  0  0  0  0
   -0.6810    3.2790    0.7780 C   0  0  0  0  0  0  0  0  0  0  0  0
    0.5140    3.5570    0.6040 O   0  0  0  0  0  0  0  0  0  0  0  0
    0.5570    0.8600   -0.2610 C   0  0  0  0  0  0  0  0  0  0  0  0
    1.1140   -0.1610    0.5800 O   0  0  0  0  0  0  0  0  0  0  0  0
    2.4500   -0.5060    0.5040 C   0  0  0  0  0  0  0  0  0  0  0  0
    3.4420    0.3030    0.8290 C   0  0  0  0  0  0  0  0  0  0  0  0
    4.7150   -0.4080    0.6200 C   0  0  0  0  0  0  0  0  0  0  0  0
    4.3380   -1.7370    0.1310 C   0  0  0  0  0  0  0  0  0  0  0  0
    3.0360   -1.7810    0.0700 C   0  0  0  0  0  0  0  0  0  0  0  0
  1  2  1  0
  2  3  1  0
  3  4  2  0
  3  5  1  0
  5  6  1  0
  6  7  2  3
  6 10  1  0
  7  8  1  0
  8  9  2  0
 10 11  1  0
 11 12  1  0
 12 13  2  0
 12 16  1  0
 13 14  1  0
 14 15  1  0
 15 16  2  0
M  END
