
     RDKit          3D

 16 16  0  0  0  0  0  0  0  0999 V2000
    5.8200   -0.6940   -0.8770 C   0  0  0  0  0  0  0  0  0  0  0  0
    4.8210    0.3950   -0.9060 C   0  0  0  0  0  0  0  0  0  0  0  0
    5.1850    1.6740   -1.3280 O   0  0  0  0  0  0  0  0  0  0  0  0
    3.5910    0.1600   -0.5340 C   0  0  0  0  0  0  0  0  0  0  0  0
    2.6090    1.2130   -0.5570 C   0  0  0  0  0  0  0  0  0  0  0  0
    1.3710    0.9760   -0.1840 C   0  0  0  0  0  0  0  0  0  0  0  0
    1.0030   -0.3880    0.2600 C   0  0  2  0  0  0  0  0  0  0  0  0
    1.1470   -1.2510   -0.8300 O   0  0  0  0  0  0  0  0  0  0  0  0
   -0.4500   -0.3810    0.6690 C   0  0  0  0  0  0  0  0  0  0  0  0
   -1.2810    0.0140   -0.5160 C   0  0  0  0  0  0  0  0  0  0  0  0
   -2.7350    0.0120   -0.0970 C   0  0  2  0  0  0  0  0  0  0  0  0
   -3.0280    0.9690    1.0230 C   0  0  0  0  0  0  0  0  0  0  0  0
   -4.3870    0.8590    1.3200 O   0  0  0  0  0  0  0  0  0  0  0  0
   -5.0860    0.0730    0.4400 C   0  0  0  0  0  0  0  0  0  0  0  0
   -4.5290   -1.2880    0.1980 C   0  0  0  0  0  0  0  0  0  0  0  0
   -3.1450   -1.2450    0.3350 O   0  0  0  0  0  0  0  0  0  0  0  0
  1  2  1  0
  2  3  1  0
  2  4  2  3
  4  5  1  0
  5  6  2  3
  6  7  1  0
  7  8  1  6
  7  9  1  0
  9 10  1  0
 11 10  1  1
 11 12  1  0
 11 16  1  0
 12 13  1  0
 13 14  1  0
 14 15  1  0
 15 16  1  0
M  END
