
     RDKit          3D

 23 25  0  0  0  0  0  0  0  0999 V2000
    6.6930   -1.6220   -0.5470 C   0  0  0  0  0  0  0  0  0  0  0  0
    6.3880   -0.4910    0.4420 C   0  0  2  0  0  0  0  0  0  0  0  0
    4.9310   -0.4570    0.6310 C   0  0  0  0  0  0  0  0  0  0  0  0
    4.0670    0.4560    0.3230 C   0  0  0  0  0  0  0  0  0  0  0  0
    2.6410    0.2820    0.6020 N   0  0  0  0  0  0  0  0  0  0  0  0
    1.7390    0.4780   -0.5120 C   0  0  0  0  0  0  0  0  0  0  0  0
    0.3330    0.4530    0.0050 C   0  0  2  0  0  0  0  0  0  0  0  0
    0.0240   -0.8470    0.6650 C   0  0  0  0  0  0  0  0  0  0  0  0
   -1.3610   -1.2890    0.2170 C   0  0  0  0  0  0  0  0  0  0  0  0
   -1.9500   -0.0590   -0.4040 C   0  0  1  0  0  0  0  0  0  0  0  0
   -2.8540   -0.4890   -1.5250 C   0  0  0  0  0  0  0  0  0  0  0  0
   -3.3340    0.5380   -2.3150 O   0  0  0  0  0  0  0  0  0  0  0  0
   -2.4870    0.8090    0.5620 N   0  0  0  0  0  0  0  0  0  0  0  0
   -3.7770    1.3580    0.3740 C   0  0  0  0  0  0  0  0  0  0  0  0
   -4.9170    0.4400    0.5630 C   0  0  0  0  0  0  0  0  0  0  0  0
   -6.0510    0.4250   -0.2070 C   0  0  0  0  0  0  0  0  0  0  0  0
   -6.8550   -0.5140    0.2490 N   0  0  0  0  0  0  0  0  0  0  0  0
   -6.3170   -1.1350    1.2920 N   0  0  0  0  0  0  0  0  0  0  0  0
   -5.1020   -0.5470    1.4990 C   0  0  0  0  0  0  0  0  0  0  0  0
   -0.7170    0.5610   -1.0950 C   0  0  0  0  0  0  0  0  0  0  0  0
    4.3690    1.7030   -0.2510 N   0  0  0  0  0  0  0  0  0  0  0  0
    5.5470    2.1140   -0.5430 C   0  0  0  0  0  0  0  0  0  0  0  0
    6.9520    1.0800   -0.2230 S   0  0  0  0  0  0  0  0  0  0  0  0
  2  1  1  6
  2  3  1  0
  2 23  1  0
  3  4  2  0
  4  5  1  0
  4 21  1  0
  5  6  1  0
  7  6  1  6
  7  8  1  0
  7 20  1  0
  8  9  1  0
  9 10  1  0
 10 11  1  6
 10 13  1  0
 10 20  1  0
 11 12  1  0
 13 14  1  0
 14 15  1  0
 15 16  1  0
 15 19  2  0
 16 17  2  0
 17 18  1  0
 18 19  1  0
 21 22  2  0
 22 23  1  0
M  CHG  1  13   1
M  END
