
     RDKit          3D

 16 16  0  0  0  0  0  0  0  0999 V2000
    2.3730    0.4470    2.1190 C   0  0  0  0  0  0  0  0  0  0  0  0
    2.2260   -0.1240    0.6580 C   0  0  2  0  0  0  0  0  0  0  0  0
    3.2670   -1.2410    0.6390 C   0  0  0  0  0  0  0  0  0  0  0  0
    2.6210    1.0080   -0.2030 C   0  0  0  0  0  0  0  0  0  0  0  0
    2.6190    0.8520   -1.6730 C   0  0  0  0  0  0  0  0  0  0  0  0
    3.4560   -0.1870   -2.1040 O   0  0  0  0  0  0  0  0  0  0  0  0
    0.9350   -0.5810    0.6580 O   0  0  0  0  0  0  0  0  0  0  0  0
    0.1810   -1.2130   -0.2640 C   0  0  0  0  0  0  0  0  0  0  0  0
    0.7210   -1.4690   -1.3580 O   0  0  0  0  0  0  0  0  0  0  0  0
   -1.2360   -1.5770    0.0380 C   0  0  0  0  0  0  0  0  0  0  0  0
   -2.1140   -0.3650    0.1390 C   0  0  1  0  0  0  0  0  0  0  0  0
   -1.6800    0.4840    1.1640 O   0  0  0  0  0  0  0  0  0  0  0  0
   -2.1650    0.4140   -1.1660 C   0  0  0  0  0  0  0  0  0  0  0  0
   -3.2700    1.4050   -0.8650 C   0  0  0  0  0  0  0  0  0  0  0  0
   -4.2450    0.6630    0.0070 C   0  0  0  0  0  0  0  0  0  0  0  0
   -3.5610   -0.6670    0.3550 C   0  0  0  0  0  0  0  0  0  0  0  0
  2  1  1  1
  2  3  1  0
  2  4  1  0
  2  7  1  0
  4  5  1  0
  5  6  1  0
  7  8  1  0
  8  9  2  0
  8 10  1  0
 10 11  1  0
 11 12  1  1
 11 13  1  0
 11 16  1  0
 13 14  1  0
 14 15  1  0
 15 16  1  0
M  END
