
     RDKit          3D

 16 16  0  0  0  0  0  0  0  0999 V2000
    1.5320    1.9010    0.6050 C   0  0  0  0  0  0  0  0  0  0  0  0
    2.5280    1.0570    0.4010 C   0  0  0  0  0  0  0  0  0  0  0  0
    3.9130    1.5070    0.1080 C   0  0  0  0  0  0  0  0  0  0  0  0
    4.5140    0.7410   -0.8700 O   0  0  0  0  0  0  0  0  0  0  0  0
    4.5190   -0.6020   -0.6320 C   0  0  0  0  0  0  0  0  0  0  0  0
    3.2840   -1.1380   -0.0500 C   0  0  0  0  0  0  0  0  0  0  0  0
    2.3100   -0.3850    0.4530 C   0  0  0  0  0  0  0  0  0  0  0  0
    1.1580   -0.9030    0.9960 O   0  0  0  0  0  0  0  0  0  0  0  0
    0.0260   -1.1400    0.2280 C   0  0  0  0  0  0  0  0  0  0  0  0
    0.0760   -0.8690   -0.9910 O   0  0  0  0  0  0  0  0  0  0  0  0
   -1.1930   -1.6990    0.8540 C   0  0  0  0  0  0  0  0  0  0  0  0
   -2.3100   -1.8760   -0.1100 C   0  0  0  0  0  0  0  0  0  0  0  0
   -2.7990   -0.6500   -0.7940 C   0  0  0  0  0  0  0  0  0  0  0  0
   -3.3240    0.4210    0.1190 C   0  0  2  0  0  0  0  0  0  0  0  0
   -3.7690    1.5770   -0.7880 C   0  0  0  0  0  0  0  0  0  0  0  0
   -2.4120    0.9170    1.0130 O   0  0  0  0  0  0  0  0  0  0  0  0
  1  2  2  0
  2  3  1  0
  2  7  1  0
  3  4  1  0
  4  5  1  0
  5  6  1  0
  6  7  2  0
  7  8  1  0
  8  9  1  0
  9 10  2  0
  9 11  1  0
 11 12  1  0
 12 13  1  0
 13 14  1  0
 14 15  1  6
 14 16  1  0
M  END
