
     RDKit          3D

 18 19  0  0  0  0  0  0  0  0999 V2000
    2.2850    2.4640   -0.0210 O   0  0  0  0  0  0  0  0  0  0  0  0
    3.0550    1.6240    0.5450 C   0  0  0  0  0  0  0  0  0  0  0  0
    4.3530    2.0460    0.7650 O   0  0  0  0  0  0  0  0  0  0  0  0
    2.5600    0.2700    0.9380 C   0  0  2  0  0  0  0  0  0  0  0  0
    3.4900   -0.7730    0.4400 C   0  0  0  0  0  0  0  0  0  0  0  0
    3.1490   -1.4030   -0.7100 O   0  0  0  0  0  0  0  0  0  0  0  0
    1.9850   -1.0290   -1.3030 C   0  0  0  0  0  0  0  0  0  0  0  0
    0.9050   -0.8610   -0.2250 C   0  0  2  0  0  0  0  0  0  0  0  0
   -0.3730   -0.5920   -0.9710 C   0  0  2  0  0  0  0  0  0  0  0  0
   -0.1870    0.5500   -1.7480 O   0  0  0  0  0  0  0  0  0  0  0  0
   -1.5550   -0.3600   -0.0890 C   0  0  2  0  0  0  0  0  0  0  0  0
   -1.9320   -1.5610    0.7390 C   0  0  0  0  0  0  0  0  0  0  0  0
   -2.0770   -2.6760   -0.0930 O   0  0  0  0  0  0  0  0  0  0  0  0
   -2.7410   -0.0630   -0.9890 C   0  0  0  0  0  0  0  0  0  0  0  0
   -3.0340    1.3870   -0.7050 C   0  0  0  0  0  0  0  0  0  0  0  0
   -2.6930    1.4620    0.7880 C   0  0  0  0  0  0  0  0  0  0  0  0
   -1.4150    0.7630    0.8000 N   0  0  0  0  0  0  0  0  0  0  0  0
    1.2590    0.1660    0.5900 O   0  0  0  0  0  0  0  0  0  0  0  0
  1  2  2  0
  2  3  1  0
  4  2  1  6
  4  5  1  0
  4 18  1  0
  5  6  1  0
  6  7  1  0
  8  7  1  6
  8  9  1  0
  8 18  1  0
  9 10  1  1
  9 11  1  0
 11 12  1  1
 11 14  1  0
 11 17  1  0
 12 13  1  0
 14 15  1  0
 15 16  1  0
 16 17  1  0
M  CHG  1  17   1
M  END
