
     RDKit          3D

 19 20  0  0  0  0  0  0  0  0999 V2000
    2.8560    2.0910   -0.2480 N   0  0  0  0  0  0  0  0  0  0  0  0
    2.3050    0.8740    0.4210 C   0  0  1  0  0  0  0  0  0  0  0  0
    1.3280    0.3050   -0.5280 C   0  0  0  0  0  0  0  0  0  0  0  0
    0.5800   -0.9150   -0.1870 C   0  0  2  0  0  0  0  0  0  0  0  0
    1.4030   -2.0920    0.0300 C   0  0  0  0  0  0  0  0  0  0  0  0
    2.2950   -2.3490   -0.8490 O   0  0  0  0  0  0  0  0  0  0  0  0
    1.3040   -2.9650    1.1050 O   0  0  0  0  0  0  0  0  0  0  0  0
   -0.4350   -1.2670   -1.3050 C   0  0  0  0  0  0  0  0  0  0  0  0
   -1.3860   -0.1290   -1.1440 C   0  0  1  0  0  0  0  0  0  0  0  0
   -2.7080   -0.4720   -1.4050 O   0  0  0  0  0  0  0  0  0  0  0  0
   -3.4600    0.6890   -1.2260 C   0  0  0  0  0  0  0  0  0  0  0  0
   -3.6120    0.9150    0.2550 C   0  0  0  0  0  0  0  0  0  0  0  0
   -2.6270    0.0580    1.0250 C   0  0  1  0  0  0  0  0  0  0  0  0
   -3.0760   -1.2330    1.1930 O   0  0  0  0  0  0  0  0  0  0  0  0
   -1.2970    0.1600    0.3440 C   0  0  1  0  0  0  0  0  0  0  0  0
   -0.3470   -0.7190    0.8520 O   0  0  0  0  0  0  0  0  0  0  0  0
    3.4730    0.0390    0.6990 C   0  0  0  0  0  0  0  0  0  0  0  0
    3.4200   -0.8790    1.5440 O   0  0  0  0  0  0  0  0  0  0  0  0
    4.6720    0.2390    0.0380 O   0  0  0  0  0  0  0  0  0  0  0  0
  2  1  1  6
  2  3  1  0
  2 17  1  0
  4  3  1  6
  4  5  1  0
  4  8  1  0
  4 16  1  0
  5  6  2  0
  5  7  1  0
  9  8  1  1
  9 10  1  0
  9 15  1  0
 10 11  1  0
 11 12  1  0
 12 13  1  0
 13 14  1  6
 13 15  1  0
 15 16  1  1
 17 18  2  0
 17 19  1  0
M  CHG  1   1   1
M  END
