
     RDKit          3D

 18 19  0  0  0  0  0  0  0  0999 V2000
   -2.5380    1.4860   -0.7870 N   0  0  0  0  0  0  0  0  0  0  0  0
   -2.1930    0.5860    0.2630 C   0  0  2  0  0  0  0  0  0  0  0  0
   -1.1380   -0.4010   -0.1440 C   0  0  2  0  0  0  0  0  0  0  0  0
   -1.6700   -1.1220   -1.2260 O   0  0  0  0  0  0  0  0  0  0  0  0
   -0.8700   -1.4300    0.9310 C   0  0  0  0  0  0  0  0  0  0  0  0
   -0.0360   -2.4890    0.1900 C   0  0  0  0  0  0  0  0  0  0  0  0
    1.3170   -1.8770    0.0490 C   0  0  1  0  0  0  0  0  0  0  0  0
    2.1380   -2.8220   -0.6090 O   0  0  0  0  0  0  0  0  0  0  0  0
    1.3430   -0.5520   -0.6220 C   0  0  2  0  0  0  0  0  0  0  0  0
    2.5120    0.2180   -0.0900 C   0  0  0  0  0  0  0  0  0  0  0  0
    3.2760   -0.2740    0.7800 O   0  0  0  0  0  0  0  0  0  0  0  0
    2.8110    1.5010   -0.5210 O   0  0  0  0  0  0  0  0  0  0  0  0
    3.9360    2.2260    0.0010 C   0  0  0  0  0  0  0  0  0  0  0  0
    3.8290    2.4000    1.3680 O   0  0  0  0  0  0  0  0  0  0  0  0
    0.1150    0.2500   -0.6070 C   0  0  0  0  0  0  0  0  0  0  0  0
   -3.3720   -0.0190    0.9540 C   0  0  0  0  0  0  0  0  0  0  0  0
   -2.8330    0.2320    2.2180 O   0  0  0  0  0  0  0  0  0  0  0  0
   -2.0370    1.2180    1.6110 C   0  0  0  0  0  0  0  0  0  0  0  0
  2  1  1  6
  2  3  1  0
  2 16  1  0
  2 18  1  0
  3  4  1  6
  3  5  1  0
  3 15  1  0
  5  6  1  0
  6  7  1  0
  7  8  1  6
  7  9  1  0
  9 10  1  1
  9 15  1  0
 10 11  2  0
 10 12  1  0
 12 13  1  0
 13 14  1  0
 16 17  1  0
 17 18  1  0
M  CHG  1   1   1
M  END
