
     RDKit          3D

 18 18  0  0  0  0  0  0  0  0999 V2000
    5.4840   -0.3770    0.0220 C   0  0  0  0  0  0  0  0  0  0  0  0
    5.0670   -0.0040    1.2740 O   0  0  0  0  0  0  0  0  0  0  0  0
    4.0580    0.9170    1.3360 C   0  0  0  0  0  0  0  0  0  0  0  0
    2.7760    0.4950    0.7320 C   0  0  0  0  0  0  0  0  0  0  0  0
    2.6820   -0.6520    0.2480 O   0  0  0  0  0  0  0  0  0  0  0  0
    1.6200    1.3740    0.6850 C   0  0  0  0  0  0  0  0  0  0  0  0
    0.4480    1.0840    0.1710 C   0  0  0  0  0  0  0  0  0  0  0  0
   -0.5470    2.0420    0.2100 O   0  0  0  0  0  0  0  0  0  0  0  0
   -1.6600    2.0880   -0.6450 C   0  0  0  0  0  0  0  0  0  0  0  0
   -1.8120    0.8490   -1.4820 C   0  0  1  0  0  0  0  0  0  0  0  0
   -1.1850    1.0510   -2.7300 O   0  0  0  0  0  0  0  0  0  0  0  0
   -1.2780   -0.3800   -0.8400 C   0  0  2  0  0  0  0  0  0  0  0  0
   -1.2680   -1.3950   -1.8220 O   0  0  0  0  0  0  0  0  0  0  0  0
   -2.1010   -0.9130    0.3020 C   0  0  0  0  0  0  0  0  0  0  0  0
   -3.4800   -1.2630   -0.1660 C   0  0  0  0  0  0  0  0  0  0  0  0
   -4.3050   -1.7980    0.9060 N   0  0  0  0  0  0  0  0  0  0  0  0
    0.1830   -0.2150   -0.4320 C   0  0  1  0  0  0  0  0  0  0  0  0
    0.9020   -0.2990   -1.6220 O   0  0  0  0  0  0  0  0  0  0  0  0
  1  2  1  0
  2  3  1  0
  3  4  1  0
  4  5  2  0
  4  6  1  0
  6  7  2  3
  7  8  1  0
  7 17  1  0
  8  9  1  0
  9 10  1  0
 10 11  1  6
 10 12  1  0
 12 13  1  6
 12 14  1  0
 12 17  1  0
 14 15  1  0
 15 16  1  0
 17 18  1  6
M  CHG  1  16   1
M  END
