
     RDKit          3D

 22 24  0  0  0  0  0  0  0  0999 V2000
    3.4530    2.1940    0.4950 C   0  0  0  0  0  0  0  0  0  0  0  0
    3.2650    1.3140   -0.7140 C   0  0  0  0  0  0  0  0  0  0  0  0
    2.3340    0.2440   -0.4880 N   0  0  0  0  0  0  0  0  0  0  0  0
    2.7490   -0.9510   -0.0190 C   0  0  0  0  0  0  0  0  0  0  0  0
    4.1980   -1.1170    0.2520 C   0  0  0  0  0  0  0  0  0  0  0  0
    1.8770   -1.9740    0.2010 N   0  0  0  0  0  0  0  0  0  0  0  0
    0.5680   -1.8520   -0.0350 C   0  0  0  0  0  0  0  0  0  0  0  0
   -0.3060   -2.8980    0.1920 C   0  0  0  0  0  0  0  0  0  0  0  0
   -1.6570   -2.7710   -0.0510 C   0  0  0  0  0  0  0  0  0  0  0  0
   -2.1180   -1.5600   -0.5320 C   0  0  0  0  0  0  0  0  0  0  0  0
   -3.4610   -1.3620   -0.7990 O   0  0  0  0  0  0  0  0  0  0  0  0
   -4.4530   -2.3250   -0.6170 C   0  0  0  0  0  0  0  0  0  0  0  0
   -1.2400   -0.5150   -0.7580 C   0  0  0  0  0  0  0  0  0  0  0  0
   -1.7310    0.6910   -1.2420 O   0  0  0  0  0  0  0  0  0  0  0  0
   -2.1380    1.6640   -0.3400 C   0  0  0  0  0  0  0  0  0  0  0  0
   -2.5200    1.5400    0.9180 C   0  0  0  0  0  0  0  0  0  0  0  0
   -2.8510    2.8630    1.4420 C   0  0  0  0  0  0  0  0  0  0  0  0
   -2.5420    3.6870    0.4540 C   0  0  0  0  0  0  0  0  0  0  0  0
   -2.2110    3.0770   -0.6680 C   0  0  0  0  0  0  0  0  0  0  0  0
    0.1100   -0.6260   -0.5200 C   0  0  0  0  0  0  0  0  0  0  0  0
    1.0150    0.3740   -0.7270 C   0  0  0  0  0  0  0  0  0  0  0  0
    0.6020    1.4850   -1.1670 O   0  0  0  0  0  0  0  0  0  0  0  0
  1  2  1  0
  2  3  1  0
  3  4  1  0
  3 21  1  0
  4  5  1  0
  4  6  2  0
  6  7  1  0
  7  8  2  0
  7 20  1  0
  8  9  1  0
  9 10  2  0
 10 11  1  0
 10 13  1  0
 11 12  1  0
 13 14  1  0
 13 20  2  0
 14 15  1  0
 15 16  2  0
 15 19  1  0
 16 17  1  0
 17 18  2  0
 18 19  2  0
 20 21  1  0
 21 22  2  0
M  END
