
     RDKit          3D

 18 19  0  0  0  0  0  0  0  0999 V2000
   -0.6290   -2.2060    0.2860 N   0  0  0  0  0  0  0  0  0  0  0  0
   -0.3330   -0.8210    0.6610 C   0  0  2  0  0  0  0  0  0  0  0  0
   -1.5460    0.0400    0.5660 C   0  0  2  0  0  0  0  0  0  0  0  0
   -2.6660   -0.4560    1.4720 C   0  0  0  0  0  0  0  0  0  0  0  0
   -3.7640    0.5450    1.0770 C   0  0  0  0  0  0  0  0  0  0  0  0
   -3.6470    0.5360   -0.4240 C   0  0  0  0  0  0  0  0  0  0  0  0
   -2.2170    0.0910   -0.7550 C   0  0  1  0  0  0  0  0  0  0  0  0
   -1.7000    1.0580   -1.6200 O   0  0  0  0  0  0  0  0  0  0  0  0
    0.7960   -0.3980   -0.2010 C   0  0  2  0  0  0  0  0  0  0  0  0
    1.8770   -1.2930    0.0480 O   0  0  0  0  0  0  0  0  0  0  0  0
    2.9430   -1.1250   -0.7700 C   0  0  0  0  0  0  0  0  0  0  0  0
    3.2820    0.2850   -1.1330 C   0  0  2  0  0  0  0  0  0  0  0  0
    4.4420    0.8050   -0.3640 C   0  0  0  0  0  0  0  0  0  0  0  0
    5.4930    0.1160   -0.3230 O   0  0  0  0  0  0  0  0  0  0  0  0
    4.4380    2.0120    0.3170 O   0  0  0  0  0  0  0  0  0  0  0  0
    2.2650    1.1790   -1.0450 O   0  0  0  0  0  0  0  0  0  0  0  0
    1.4060    0.9380    0.0510 C   0  0  1  0  0  0  0  0  0  0  0  0
    0.5770    1.9900    0.2640 O   0  0  0  0  0  0  0  0  0  0  0  0
  2  1  1  6
  2  3  1  0
  2  9  1  0
  3  4  1  1
  3  7  1  0
  4  5  1  0
  5  6  1  0
  6  7  1  0
  7  8  1  6
  9 10  1  1
  9 17  1  0
 10 11  1  0
 11 12  1  0
 12 13  1  1
 12 16  1  0
 13 14  2  0
 13 15  1  0
 16 17  1  0
 17 18  1  6
M  CHG  1   1   1
M  END
