
     RDKit          3D

 18 19  0  0  0  0  0  0  0  0999 V2000
   -4.0420    1.7690   -1.4460 N   0  0  0  0  0  0  0  0  0  0  0  0
   -3.3530    0.5030   -1.1320 C   0  0  0  0  0  0  0  0  0  0  0  0
   -2.9170    0.6020    0.2780 C   0  0  2  0  0  0  0  0  0  0  0  0
   -2.0460    1.6480    0.5730 O   0  0  0  0  0  0  0  0  0  0  0  0
   -1.7470    1.3300    1.9060 C   0  0  0  0  0  0  0  0  0  0  0  0
   -1.4710   -0.0430    1.8930 O   0  0  0  0  0  0  0  0  0  0  0  0
   -2.2370   -0.5790    0.8700 C   0  0  2  0  0  0  0  0  0  0  0  0
   -1.4290   -1.4290   -0.0300 C   0  0  2  0  0  0  0  0  0  0  0  0
   -0.9230   -2.5410    0.6940 O   0  0  0  0  0  0  0  0  0  0  0  0
   -0.2160   -0.7960   -0.6500 C   0  0  2  0  0  0  0  0  0  0  0  0
    0.2900   -1.7990   -1.5450 O   0  0  0  0  0  0  0  0  0  0  0  0
    0.8910   -0.6200    0.4110 C   0  0  0  0  0  0  0  0  0  0  0  0
    2.0050   -0.2350   -0.3420 O   0  0  0  0  0  0  0  0  0  0  0  0
    3.1270   -0.0230    0.4350 C   0  0  1  0  0  0  0  0  0  0  0  0
    4.2990   -0.8540   -0.1110 C   0  0  0  0  0  0  0  0  0  0  0  0
    4.5560   -0.0550   -1.3880 C   0  0  0  0  0  0  0  0  0  0  0  0
    4.3360    1.2610   -1.0890 O   0  0  0  0  0  0  0  0  0  0  0  0
    3.6490    1.3580    0.0890 C   0  0  0  0  0  0  0  0  0  0  0  0
  1  2  1  0
  3  2  1  6
  3  4  1  0
  3  7  1  0
  4  5  1  0
  5  6  1  0
  7  6  1  1
  7  8  1  0
  8  9  1  1
  8 10  1  0
 10 11  1  6
 10 12  1  0
 12 13  1  0
 14 13  1  6
 14 15  1  0
 14 18  1  0
 15 16  1  0
 16 17  1  0
 17 18  1  0
M  CHG  1   1   1
M  END
