
     RDKit          3D

 18 18  0  0  0  0  0  0  0  0999 V2000
    3.6500   -1.8090   -0.9620 C   0  0  0  0  0  0  0  0  0  0  0  0
    2.2800   -1.5710   -0.6850 O   0  0  0  0  0  0  0  0  0  0  0  0
    1.8320   -0.8070    0.3650 C   0  0  0  0  0  0  0  0  0  0  0  0
    2.6470   -0.2760    1.1410 O   0  0  0  0  0  0  0  0  0  0  0  0
    0.3890   -0.6120    0.5790 C   0  0  2  0  0  0  0  0  0  0  0  0
    0.0670   -1.1540    1.9470 C   0  0  0  0  0  0  0  0  0  0  0  0
   -0.3920   -1.3630   -0.4170 N   0  0  0  0  0  0  0  0  0  0  0  0
   -1.7390   -1.4520    0.1150 C   0  0  2  0  0  0  0  0  0  0  0  0
   -2.5880   -2.2150   -0.9100 C   0  0  0  0  0  0  0  0  0  0  0  0
   -2.3520   -0.1160    0.3570 C   0  0  2  0  0  0  0  0  0  0  0  0
   -3.3700    0.1240   -0.5960 O   0  0  0  0  0  0  0  0  0  0  0  0
   -1.3470    0.9880    0.3080 C   0  0  0  0  0  0  0  0  0  0  0  0
   -1.8250    2.2580    0.1490 O   0  0  0  0  0  0  0  0  0  0  0  0
   -0.0550    0.8050    0.4060 C   0  0  0  0  0  0  0  0  0  0  0  0
    0.9540    1.8290    0.3620 C   0  0  1  0  0  0  0  0  0  0  0  0
    1.9510    1.5470   -0.6020 O   0  0  0  0  0  0  0  0  0  0  0  0
    0.5670    3.2360    0.1860 C   0  0  0  0  0  0  0  0  0  0  0  0
    0.0670    3.5710   -1.0650 O   0  0  0  0  0  0  0  0  0  0  0  0
  1  2  1  0
  2  3  1  0
  3  4  2  0
  3  5  1  0
  5  6  1  1
  5  7  1  0
  5 14  1  0
  7  8  1  0
  8  9  1  6
  8 10  1  0
 10 11  1  6
 10 12  1  0
 12 13  1  0
 12 14  2  0
 14 15  1  0
 15 16  1  6
 15 17  1  0
 17 18  1  0
M  CHG  1   7   1
M  END
