
     RDKit          3D

 19 19  0  0  0  0  0  0  0  0999 V2000
    3.7120    0.8920    1.5990 O   0  0  0  0  0  0  0  0  0  0  0  0
    2.7520   -0.1340    1.5050 C   0  0  0  0  0  0  0  0  0  0  0  0
    1.9180   -0.1540    0.4850 C   0  0  0  0  0  0  0  0  0  0  0  0
    2.0360    0.9230   -0.5290 C   0  0  1  0  0  0  0  0  0  0  0  0
    1.5490    0.5540   -1.7700 O   0  0  0  0  0  0  0  0  0  0  0  0
    1.4740    2.2360   -0.0480 C   0  0  0  0  0  0  0  0  0  0  0  0
    0.1960    2.6190   -0.7500 C   0  0  0  0  0  0  0  0  0  0  0  0
   -0.8200    2.7990    0.1870 O   0  0  0  0  0  0  0  0  0  0  0  0
   -2.0830    2.5290   -0.3830 C   0  0  0  0  0  0  0  0  0  0  0  0
   -2.1700    1.2360   -0.8480 O   0  0  0  0  0  0  0  0  0  0  0  0
   -2.8860    0.4140    0.0540 C   0  0  0  0  0  0  0  0  0  0  0  0
   -2.7240   -1.0320   -0.2500 C   0  0  2  0  0  0  0  0  0  0  0  0
   -3.7860   -1.7220    0.3710 O   0  0  0  0  0  0  0  0  0  0  0  0
   -1.4450   -1.6380    0.2340 C   0  0  2  0  0  0  0  0  0  0  0  0
   -1.4950   -2.0910    1.5400 O   0  0  0  0  0  0  0  0  0  0  0  0
   -0.3530   -0.7140   -0.0010 N   0  0  0  0  0  0  0  0  0  0  0  0
    0.9190   -1.2430    0.4110 C   0  0  1  0  0  0  0  0  0  0  0  0
    1.4250   -2.3460   -0.4770 C   0  0  0  0  0  0  0  0  0  0  0  0
    2.6600   -2.7580    0.0440 O   0  0  0  0  0  0  0  0  0  0  0  0
  1  2  1  0
  2  3  2  3
  3  4  1  0
  3 17  1  0
  4  5  1  6
  4  6  1  0
  6  7  1  0
  7  8  1  0
  8  9  1  0
  9 10  1  0
 10 11  1  0
 11 12  1  0
 12 13  1  1
 12 14  1  0
 14 15  1  1
 14 16  1  0
 16 17  1  0
 17 18  1  6
 18 19  1  0
M  CHG  1  16   1
M  END
