
     RDKit          3D

 18 19  0  0  0  0  0  0  0  0999 V2000
    2.2540   -2.1180   -1.4490 C   0  0  0  0  0  0  0  0  0  0  0  0
    1.7610   -1.7370   -0.1080 C   0  0  2  0  0  0  0  0  0  0  0  0
    1.1160   -2.6960    0.6260 O   0  0  0  0  0  0  0  0  0  0  0  0
    1.0600   -0.3650   -0.0880 C   0  0  2  0  0  0  0  0  0  0  0  0
    2.1140    0.5580   -0.5360 C   0  0  0  0  0  0  0  0  0  0  0  0
    1.9560    1.9910   -0.6810 C   0  0  0  0  0  0  0  0  0  0  0  0
    1.6140    2.6850    0.4910 O   0  0  0  0  0  0  0  0  0  0  0  0
    0.4990   -0.2400    1.2730 C   0  0  1  0  0  0  0  0  0  0  0  0
    1.4040    0.1530    2.3130 N   0  0  0  0  0  0  0  0  0  0  0  0
   -0.7740    0.5610    1.2230 C   0  0  0  0  0  0  0  0  0  0  0  0
   -1.0110    0.7440   -0.2600 C   0  0  1  0  0  0  0  0  0  0  0  0
   -0.1860   -0.3470   -0.9290 C   0  0  2  0  0  0  0  0  0  0  0  0
   -0.9110   -1.6190   -1.0950 C   0  0  0  0  0  0  0  0  0  0  0  0
   -2.2750   -1.4500   -1.4360 O   0  0  0  0  0  0  0  0  0  0  0  0
   -2.9630   -0.7180   -0.4580 C   0  0  0  0  0  0  0  0  0  0  0  0
   -2.4620    0.6770   -0.6260 C   0  0  1  0  0  0  0  0  0  0  0  0
   -3.2560    1.7430    0.0350 C   0  0  0  0  0  0  0  0  0  0  0  0
   -3.1860    1.6560    1.3960 O   0  0  0  0  0  0  0  0  0  0  0  0
  2  1  1  6
  2  3  1  0
  2  4  1  0
  4  5  1  6
  4  8  1  0
  4 12  1  0
  5  6  1  0
  6  7  1  0
  8  9  1  1
  8 10  1  0
 11 10  1  1
 11 12  1  0
 11 16  1  0
 12 13  1  1
 13 14  1  0
 14 15  1  0
 15 16  1  0
 16 17  1  1
 17 18  1  0
M  CHG  1   9   1
M  END
