
     RDKit          3D

 18 19  0  0  0  0  0  0  0  0999 V2000
    0.9300   -2.0040   -0.8900 C   0  0  0  0  0  0  0  0  0  0  0  0
    1.2480   -0.5830   -0.5280 C   0  0  2  0  0  0  0  0  0  0  0  0
    2.6920   -0.4490   -0.1320 C   0  0  0  0  0  0  0  0  0  0  0  0
    3.6070   -0.8570   -1.2630 C   0  0  0  0  0  0  0  0  0  0  0  0
    5.0570   -0.6810   -0.7800 C   0  0  0  0  0  0  0  0  0  0  0  0
    5.2450    0.6550   -0.4480 O   0  0  0  0  0  0  0  0  0  0  0  0
    0.3680   -0.1300    0.4200 O   0  0  0  0  0  0  0  0  0  0  0  0
   -0.4150    0.9170    0.0790 C   0  0  2  0  0  0  0  0  0  0  0  0
   -0.3800    2.1100    1.0320 C   0  0  0  0  0  0  0  0  0  0  0  0
   -1.6070    1.5390    1.6960 C   0  0  2  0  0  0  0  0  0  0  0  0
   -1.2890    0.7460    2.8540 N   0  0  0  0  0  0  0  0  0  0  0  0
   -1.8510    0.7590    0.4200 C   0  0  1  0  0  0  0  0  0  0  0  0
   -2.8000    1.6120   -0.4400 C   0  0  0  0  0  0  0  0  0  0  0  0
   -3.3210    0.8390   -1.6070 C   0  0  0  0  0  0  0  0  0  0  0  0
   -4.0800   -0.2370   -1.0880 O   0  0  0  0  0  0  0  0  0  0  0  0
   -3.1420   -1.1340   -0.5810 C   0  0  0  0  0  0  0  0  0  0  0  0
   -2.4260   -0.6020    0.6230 C   0  0  1  0  0  0  0  0  0  0  0  0
   -1.5680   -1.5590    1.0930 O   0  0  0  0  0  0  0  0  0  0  0  0
  2  1  1  1
  2  3  1  0
  2  7  1  0
  3  4  1  0
  4  5  1  0
  5  6  1  0
  8  7  1  1
  8  9  1  0
  8 12  1  0
  9 10  1  0
 10 11  1  1
 10 12  1  0
 12 13  1  6
 12 17  1  0
 13 14  1  0
 14 15  1  0
 15 16  1  0
 16 17  1  0
 17 18  1  6
M  CHG  1  11   1
M  END
