
     RDKit          3D

 18 19  0  0  0  0  0  0  0  0999 V2000
   -2.7980   -0.8740   -0.7070 C   0  0  0  0  0  0  0  0  0  0  0  0
   -2.2830   -0.1910    0.5360 C   0  0  2  0  0  0  0  0  0  0  0  0
   -2.2400   -1.2440    1.6320 C   0  0  0  0  0  0  0  0  0  0  0  0
   -1.3840   -2.2820    1.2400 O   0  0  0  0  0  0  0  0  0  0  0  0
   -3.3700    0.8070    0.9570 C   0  0  0  0  0  0  0  0  0  0  0  0
   -3.5360    1.8100    0.0380 O   0  0  0  0  0  0  0  0  0  0  0  0
   -2.3760    2.3520   -0.4540 C   0  0  0  0  0  0  0  0  0  0  0  0
   -1.2120    1.9810    0.4180 C   0  0  0  0  0  0  0  0  0  0  0  0
   -0.9840    0.5050    0.3570 C   0  0  1  0  0  0  0  0  0  0  0  0
   -0.1680    0.1670    1.4620 O   0  0  0  0  0  0  0  0  0  0  0  0
   -0.2690    0.0540   -0.8900 C   0  0  0  0  0  0  0  0  0  0  0  0
    1.0380    0.7380   -1.0930 C   0  0  2  0  0  0  0  0  0  0  0  0
    1.6810    0.2310   -2.3530 C   0  0  0  0  0  0  0  0  0  0  0  0
    2.8840   -0.5370   -1.8630 C   0  0  0  0  0  0  0  0  0  0  0  0
    3.0690    0.0240   -0.4750 C   0  0  2  0  0  0  0  0  0  0  0  0
    3.5660   -1.1340    0.4010 C   0  0  0  0  0  0  0  0  0  0  0  0
    3.7250   -0.6530    1.7670 N   0  0  0  0  0  0  0  0  0  0  0  0
    1.8740    0.5110   -0.0440 O   0  0  0  0  0  0  0  0  0  0  0  0
  2  1  1  6
  2  3  1  0
  2  5  1  0
  2  9  1  0
  3  4  1  0
  5  6  1  0
  6  7  1  0
  7  8  1  0
  8  9  1  0
  9 10  1  1
  9 11  1  0
 12 11  1  1
 12 13  1  0
 12 18  1  0
 13 14  1  0
 14 15  1  0
 15 16  1  1
 15 18  1  0
 16 17  1  0
M  CHG  1  17   1
M  END
