
     RDKit          3D

 18 19  0  0  0  0  0  0  0  0999 V2000
   -0.7780   -3.2910    0.8840 C   0  0  0  0  0  0  0  0  0  0  0  0
   -0.6310   -2.1090   -0.0280 C   0  0  1  0  0  0  0  0  0  0  0  0
   -0.9480   -2.4390   -1.4670 C   0  0  0  0  0  0  0  0  0  0  0  0
   -2.2050   -2.9610   -1.6380 O   0  0  0  0  0  0  0  0  0  0  0  0
   -1.4980   -0.9980    0.5090 C   0  0  0  0  0  0  0  0  0  0  0  0
   -0.7190    0.2910    0.2060 C   0  0  2  0  0  0  0  0  0  0  0  0
   -1.5190    1.0600   -0.7740 C   0  0  2  0  0  0  0  0  0  0  0  0
   -0.9370    2.3590   -1.2070 C   0  0  0  0  0  0  0  0  0  0  0  0
   -1.1210    3.2500   -0.0310 C   0  0  0  0  0  0  0  0  0  0  0  0
   -2.3680    2.7100    0.6170 C   0  0  0  0  0  0  0  0  0  0  0  0
   -2.7340    1.5090   -0.0950 N   0  0  0  0  0  0  0  0  0  0  0  0
    0.5760   -0.2360   -0.2680 C   0  0  1  0  0  0  0  0  0  0  0  0
    1.7820    0.3480    0.4530 C   0  0  2  0  0  0  0  0  0  0  0  0
    1.9280    1.6880    0.3020 O   0  0  0  0  0  0  0  0  0  0  0  0
    2.9810   -0.4460   -0.0630 C   0  0  0  0  0  0  0  0  0  0  0  0
    4.2630    0.0330    0.5760 C   0  0  0  0  0  0  0  0  0  0  0  0
    5.3100   -0.7200    0.0720 O   0  0  0  0  0  0  0  0  0  0  0  0
    0.6360   -1.5990    0.0280 O   0  0  0  0  0  0  0  0  0  0  0  0
  2  1  1  1
  2  3  1  0
  2  5  1  0
  2 18  1  0
  3  4  1  0
  6  5  1  6
  6  7  1  0
  6 12  1  0
  7  8  1  1
  7 11  1  0
  8  9  1  0
  9 10  1  0
 10 11  1  0
 12 13  1  0
 12 18  1  1
 13 14  1  6
 13 15  1  0
 15 16  1  0
 16 17  1  0
M  CHG  1  11   1
M  END
