
     RDKit          3D

 19 20  0  0  0  0  0  0  0  0999 V2000
   -2.4460   -2.8470    1.1560 C   0  0  0  0  0  0  0  0  0  0  0  0
   -1.8430   -1.7860    0.2500 C   0  0  0  0  0  0  0  0  0  0  0  0
   -1.2100   -0.7260    1.0310 N   0  0  0  0  0  0  0  0  0  0  0  0
   -0.7220    0.3340    0.1880 C   0  0  1  0  0  0  0  0  0  0  0  0
   -0.9230    1.6250    0.9070 C   0  0  0  0  0  0  0  0  0  0  0  0
   -0.9100    2.8460    0.0130 C   0  0  2  0  0  0  0  0  0  0  0  0
   -2.2310    3.4760   -0.2190 C   0  0  0  0  0  0  0  0  0  0  0  0
   -0.1460    2.4380   -1.5620 S   0  0  2  0  0  0  0  0  0  0  0  0
    0.5510    3.5890   -2.1680 O   0  0  0  0  0  0  0  0  0  0  0  0
   -1.2190    1.8810   -2.4480 O   0  0  0  0  0  0  0  0  0  0  0  0
    1.0340    1.1430   -1.2450 C   0  0  0  0  0  0  0  0  0  0  0  0
    2.6250    0.7020   -1.7240 S   0  0  0  0  0  0  0  0  0  0  0  0
    2.7760   -0.7700   -0.7360 C   0  0  0  0  0  0  0  0  0  0  0  0
    4.1960   -1.7900   -0.7030 S   0  0  1  0  0  0  0  0  0  0  0  0
    4.0170   -3.1190    0.3660 N   0  0  0  0  0  0  0  0  0  0  0  0
    4.6110   -2.2180   -2.0590 O   0  0  0  0  0  0  0  0  0  0  0  0
    5.3360   -0.9390   -0.1670 O   0  0  0  0  0  0  0  0  0  0  0  0
    1.5990   -0.8170   -0.1120 C   0  0  0  0  0  0  0  0  0  0  0  0
    0.6610    0.1150   -0.3170 C   0  0  0  0  0  0  0  0  0  0  0  0
  1  2  1  0
  2  3  1  0
  4  3  1  1
  4  5  1  0
  4 19  1  0
  5  6  1  0
  6  7  1  6
  6  8  1  0
  8  9  2  0
  8 10  2  0
  8 11  1  1
 11 12  1  0
 11 19  2  0
 12 13  1  0
 13 14  1  0
 13 18  2  0
 14 15  1  1
 14 16  2  0
 14 17  2  0
 18 19  1  0
M  END
