
     RDKit          3D

 18 19  0  0  0  0  0  0  0  0999 V2000
   -1.0200   -2.5200    1.1870 N   0  0  0  0  0  0  0  0  0  0  0  0
   -1.7280   -1.4600    0.5100 C   0  0  1  0  0  0  0  0  0  0  0  0
   -2.8620   -0.9460    1.3480 C   0  0  0  0  0  0  0  0  0  0  0  0
   -3.6310    0.1170    0.6250 C   0  0  0  0  0  0  0  0  0  0  0  0
   -2.7580    1.1770    0.0170 C   0  0  2  0  0  0  0  0  0  0  0  0
   -3.6200    2.0360   -0.8810 C   0  0  0  0  0  0  0  0  0  0  0  0
   -4.6220    2.6130   -0.1240 O   0  0  0  0  0  0  0  0  0  0  0  0
   -1.5930    0.5920   -0.7560 C   0  0  0  0  0  0  0  0  0  0  0  0
   -0.8270   -0.2870    0.1780 C   0  0  2  0  0  0  0  0  0  0  0  0
    0.5000   -0.7410   -0.3480 C   0  0  1  0  0  0  0  0  0  0  0  0
    0.3700   -1.4950   -1.5090 O   0  0  0  0  0  0  0  0  0  0  0  0
    1.4880    0.3400   -0.5650 C   0  0  2  0  0  0  0  0  0  0  0  0
    2.8130   -0.3010   -0.9550 C   0  0  0  0  0  0  0  0  0  0  0  0
    3.7910    0.5430   -0.1920 C   0  0  2  0  0  0  0  0  0  0  0  0
    4.9650   -0.2500    0.3320 C   0  0  0  0  0  0  0  0  0  0  0  0
    5.7960    0.6400    1.0190 O   0  0  0  0  0  0  0  0  0  0  0  0
    2.9570    0.9430    1.0120 C   0  0  0  0  0  0  0  0  0  0  0  0
    1.7150    1.1600    0.4960 O   0  0  0  0  0  0  0  0  0  0  0  0
  2  1  1  1
  2  3  1  0
  2  9  1  0
  3  4  1  0
  4  5  1  0
  5  6  1  6
  5  8  1  0
  6  7  1  0
  9  8  1  6
  9 10  1  0
 10 11  1  6
 10 12  1  0
 12 13  1  1
 12 18  1  0
 13 14  1  0
 14 15  1  1
 14 17  1  0
 15 16  1  0
 17 18  1  0
M  CHG  1   1   1
M  END
