
     RDKit          3D

 20 22  0  0  0  0  0  0  0  0999 V2000
    0.0670    0.2930   -0.8480 O   0  0  0  0  0  0  0  0  0  0  0  0
   -0.2400    0.3510    0.3760 C   0  0  0  0  0  0  0  0  0  0  0  0
    0.6870    0.7980    1.4380 C   0  0  0  0  0  0  0  0  0  0  0  0
    2.0150    1.1780    0.9830 C   0  0  0  0  0  0  0  0  0  0  0  0
    2.5260    2.4430    0.8380 C   0  0  0  0  0  0  0  0  0  0  0  0
    3.7660    2.3360    0.4050 O   0  0  0  0  0  0  0  0  0  0  0  0
    4.1390    1.1100    0.2460 C   0  0  0  0  0  0  0  0  0  0  0  0
    3.0330    0.3370    0.6100 C   0  0  0  0  0  0  0  0  0  0  0  0
    3.0110   -1.1180    0.5800 C   0  0  0  0  0  0  0  0  0  0  0  0
    3.8330   -1.9380   -0.0750 C   0  0  0  0  0  0  0  0  0  0  0  0
    4.9810   -1.7040   -0.9490 C   0  0  0  0  0  0  0  0  0  0  0  0
    5.7690   -0.5080   -0.7090 C   0  0  0  0  0  0  0  0  0  0  0  0
    5.4520    0.6660   -0.2190 C   0  0  0  0  0  0  0  0  0  0  0  0
   -1.5430   -0.0360    0.7370 N   0  0  0  0  0  0  0  0  0  0  0  0
   -2.5230   -0.4880   -0.2330 C   0  0  0  0  0  0  0  0  0  0  0  0
   -3.8360   -0.8390    0.4290 C   0  0  1  0  0  0  0  0  0  0  0  0
   -4.4760    0.3340    1.1000 C   0  0  0  0  0  0  0  0  0  0  0  0
   -5.7490    0.6330    0.3140 C   0  0  0  0  0  0  0  0  0  0  0  0
   -5.4870   -0.1930   -0.9450 C   0  0  0  0  0  0  0  0  0  0  0  0
   -4.7090   -1.2560   -0.5450 O   0  0  0  0  0  0  0  0  0  0  0  0
  1  2  2  0
  2  3  1  0
  2 14  1  0
  3  4  1  0
  4  5  2  0
  4  8  1  0
  5  6  1  0
  6  7  1  0
  7  8  2  0
  7 13  1  0
  8  9  1  0
  9 10  2  0
 10 11  1  0
 11 12  1  0
 12 13  2  0
 14 15  1  0
 16 15  1  6
 16 17  1  0
 16 20  1  0
 17 18  1  0
 18 19  1  0
 19 20  1  0
M  END
