
     RDKit          3D

 17 18  0  0  0  0  0  0  0  0999 V2000
    4.5380    1.4630    0.8010 O   0  0  0  0  0  0  0  0  0  0  0  0
    4.0350    0.9950   -0.3900 C   0  0  0  0  0  0  0  0  0  0  0  0
    3.5610   -0.4600   -0.2880 C   0  0  1  0  0  0  0  0  0  0  0  0
    4.6400   -1.2470    0.0760 O   0  0  0  0  0  0  0  0  0  0  0  0
    2.4650   -0.5720    0.7620 C   0  0  0  0  0  0  0  0  0  0  0  0
    1.3290    0.2290    0.4220 N   0  0  0  0  0  0  0  0  0  0  0  0
    0.1260   -0.5740    0.3930 C   0  0  2  0  0  0  0  0  0  0  0  0
    0.1040   -1.5190   -0.7890 C   0  0  0  0  0  0  0  0  0  0  0  0
   -0.9120   -2.6180   -0.5530 C   0  0  0  0  0  0  0  0  0  0  0  0
   -2.0800   -2.0950    0.2950 C   0  0  0  0  0  0  0  0  0  0  0  0
   -2.2580   -0.6700   -0.0750 C   0  0  1  0  0  0  0  0  0  0  0  0
   -3.5400   -0.0470    0.3690 C   0  0  0  0  0  0  0  0  0  0  0  0
   -3.6590    1.2780   -0.3550 C   0  0  0  0  0  0  0  0  0  0  0  0
   -2.4680    2.1570   -0.1630 C   0  0  0  0  0  0  0  0  0  0  0  0
   -1.1520    1.4530   -0.3800 C   0  0  1  0  0  0  0  0  0  0  0  0
   -0.1450    2.3590   -0.0630 O   0  0  0  0  0  0  0  0  0  0  0  0
   -1.1310    0.2140    0.4500 C   0  0  2  0  0  0  0  0  0  0  0  0
  1  2  1  0
  2  3  1  0
  3  4  1  1
  3  5  1  0
  5  6  1  0
  7  6  1  6
  7  8  1  0
 17  7  1  6
  8  9  1  0
  9 10  1  0
 11 10  1  1
 11 12  1  0
 11 17  1  0
 12 13  1  0
 13 14  1  0
 14 15  1  0
 15 16  1  1
 15 17  1  0
M  CHG  1   6   1
M  END
