
     RDKit          3D

 19 19  0  0  0  0  0  0  0  0999 V2000
   -1.2240   -1.9740   -1.5920 O   0  0  0  0  0  0  0  0  0  0  0  0
   -0.4940   -0.9740   -1.5170 C   0  0  0  0  0  0  0  0  0  0  0  0
   -0.2400   -0.2250   -2.6550 O   0  0  0  0  0  0  0  0  0  0  0  0
    0.1350   -0.5400   -0.1970 C   0  0  2  0  0  0  0  0  0  0  0  0
   -0.4660    0.7820    0.1430 C   0  0  0  0  0  0  0  0  0  0  0  0
   -1.9630    0.5940    0.2630 C   0  0  0  0  0  0  0  0  0  0  0  0
   -2.4760    0.2250    1.4830 C   0  0  0  0  0  0  0  0  0  0  0  0
   -3.8320    0.0490    1.6450 C   0  0  0  0  0  0  0  0  0  0  0  0
   -4.6750    0.2440    0.5750 C   0  0  0  0  0  0  0  0  0  0  0  0
   -4.1790    0.6100   -0.6400 C   0  0  0  0  0  0  0  0  0  0  0  0
   -2.8070    0.7880   -0.8010 C   0  0  0  0  0  0  0  0  0  0  0  0
    1.6250   -0.5500   -0.3580 C   0  0  0  0  0  0  0  0  0  0  0  0
    2.3310   -0.1460    0.8900 C   0  0  1  0  0  0  0  0  0  0  0  0
    2.0700    1.1130    1.3500 O   0  0  0  0  0  0  0  0  0  0  0  0
    1.8470   -1.0330    1.9000 O   0  0  0  0  0  0  0  0  0  0  0  0
    3.8320   -0.4290    0.8160 C   0  0  0  0  0  0  0  0  0  0  0  0
    4.4810    0.4960   -0.0540 N   0  0  0  0  0  0  0  0  0  0  0  0
    5.3810    1.2580    0.4110 O   0  0  0  0  0  0  0  0  0  0  0  0
    4.1770    0.6010   -1.3740 O   0  0  0  0  0  0  0  0  0  0  0  0
  1  2  2  0
  2  3  1  0
  2  4  1  0
  4  5  1  6
  4 12  1  0
  5  6  1  0
  6  7  2  0
  6 11  1  0
  7  8  1  0
  8  9  2  0
  9 10  1  0
 10 11  2  0
 12 13  1  0
 13 14  1  1
 13 15  1  0
 13 16  1  0
 16 17  1  0
 17 18  2  0
 17 19  1  0
M  CHG  2  17   1  19  -1
M  END
