
     RDKit          3D

 11 11  0  0  0  0  0  0  0  0999 V2000
    3.5460   -0.6570    0.9510 O   0  0  0  0  0  0  0  0  0  0  0  0
    2.3700   -0.0130    0.5000 C   0  0  1  0  0  0  0  0  0  0  0  0
    2.6990    1.0940   -0.2810 O   0  0  0  0  0  0  0  0  0  0  0  0
    1.5570   -1.0100   -0.2640 C   0  0  0  0  0  0  0  0  0  0  0  0
    0.3670   -0.5190   -0.7730 O   0  0  0  0  0  0  0  0  0  0  0  0
   -0.4460   -0.0770    0.2320 C   0  0  1  0  0  0  0  0  0  0  0  0
   -0.9320    1.3520    0.0030 C   0  0  0  0  0  0  0  0  0  0  0  0
   -2.1250    1.4880    0.6520 O   0  0  0  0  0  0  0  0  0  0  0  0
   -2.6300    0.2550    0.9650 C   0  0  0  0  0  0  0  0  0  0  0  0
   -1.8080   -0.7870    0.2320 C   0  0  1  0  0  0  0  0  0  0  0  0
   -2.3080   -0.8780   -1.0690 O   0  0  0  0  0  0  0  0  0  0  0  0
  2  1  1  6
  2  3  1  0
  2  4  1  0
  4  5  1  0
  6  5  1  6
  6  7  1  0
  6 10  1  0
  7  8  1  0
  8  9  1  0
  9 10  1  0
 10 11  1  6
M  END
