
     RDKit          3D

 11 11  0  0  0  0  0  0  0  0999 V2000
    3.4050   -0.2020    0.4280 O   0  0  0  0  0  0  0  0  0  0  0  0
    2.0780   -0.3710    0.8180 C   0  0  0  0  0  0  0  0  0  0  0  0
    1.1660    0.3190   -0.2040 C   0  0  1  0  0  0  0  0  0  0  0  0
    1.3660   -0.2490   -1.4410 O   0  0  0  0  0  0  0  0  0  0  0  0
   -0.2670    0.2490    0.2690 C   0  0  2  0  0  0  0  0  0  0  0  0
   -0.3540    0.8450    1.5120 O   0  0  0  0  0  0  0  0  0  0  0  0
   -0.7420   -1.1820    0.3210 C   0  0  0  0  0  0  0  0  0  0  0  0
   -2.1220   -1.0650   -0.3090 C   0  0  0  0  0  0  0  0  0  0  0  0
   -1.9910   -0.0610   -1.2680 O   0  0  0  0  0  0  0  0  0  0  0  0
   -1.1620    0.9130   -0.7250 C   0  0  1  0  0  0  0  0  0  0  0  0
   -1.9110    1.9090   -0.1020 O   0  0  0  0  0  0  0  0  0  0  0  0
  1  2  1  0
  2  3  1  0
  3  4  1  6
  3  5  1  0
  5  6  1  1
  5  7  1  0
  5 10  1  0
  7  8  1  0
  8  9  1  0
  9 10  1  0
 10 11  1  1
M  END
