
     RDKit          3D

 11 10  0  0  0  0  0  0  0  0999 V2000
   -1.7080    1.4600   -0.3140 C   0  0  0  0  0  0  0  0  0  0  0  0
   -1.0120    0.1200   -0.4290 C   0  0  2  0  0  0  0  0  0  0  0  0
   -0.3630    0.0800   -1.6450 O   0  0  0  0  0  0  0  0  0  0  0  0
   -2.0540   -0.9810   -0.4390 C   0  0  0  0  0  0  0  0  0  0  0  0
   -2.9610   -0.7990   -1.4570 O   0  0  0  0  0  0  0  0  0  0  0  0
   -0.0660   -0.1140    0.7220 C   0  0  2  0  0  0  0  0  0  0  0  0
   -0.7570   -0.0700    1.9410 O   0  0  0  0  0  0  0  0  0  0  0  0
    0.9500    0.8000    0.6700 O   0  0  0  0  0  0  0  0  0  0  0  0
    2.2160    0.3080    0.5560 C   0  0  0  0  0  0  0  0  0  0  0  0
    2.4950   -0.5070   -0.6660 C   0  0  0  0  0  0  0  0  0  0  0  0
    3.8380   -0.9570   -0.6530 O   0  0  0  0  0  0  0  0  0  0  0  0
  2  1  1  1
  2  3  1  0
  2  4  1  0
  2  6  1  0
  4  5  1  0
  6  7  1  1
  6  8  1  0
  8  9  1  0
  9 10  1  0
 10 11  1  0
M  END
