
     RDKit          3D

 11 11  0  0  0  0  0  0  0  0999 V2000
   -0.4330    2.3260    0.6040 O   0  0  0  0  0  0  0  0  0  0  0  0
   -1.3240    1.2920    0.5120 C   0  0  0  0  0  0  0  0  0  0  0  0
   -0.6490   -0.0310    0.1240 C   0  0  1  0  0  0  0  0  0  0  0  0
   -1.7650   -1.0500    0.1380 C   0  0  0  0  0  0  0  0  0  0  0  0
   -1.3400   -2.3190   -0.1890 O   0  0  0  0  0  0  0  0  0  0  0  0
   -0.0530    0.0940   -1.2720 C   0  0  0  0  0  0  0  0  0  0  0  0
    1.0070   -0.7720   -1.3910 O   0  0  0  0  0  0  0  0  0  0  0  0
    2.0690   -0.3550   -0.6080 C   0  0  0  0  0  0  0  0  0  0  0  0
    1.5770    0.0060    0.7630 C   0  0  2  0  0  0  0  0  0  0  0  0
    2.4250   -0.6090    1.7120 O   0  0  0  0  0  0  0  0  0  0  0  0
    0.3010   -0.4150    1.0380 O   0  0  0  0  0  0  0  0  0  0  0  0
  1  2  1  0
  3  2  1  1
  3  4  1  0
  3  6  1  0
  3 11  1  0
  4  5  1  0
  6  7  1  0
  7  8  1  0
  8  9  1  0
  9 10  1  1
  9 11  1  0
M  END
