
     RDKit          3D

 34 35  0  0  0  0  0  0  0  0999 V2000
    9.5780    2.4040   -0.3390 C   0  0  0  0  0  0  0  0  0  0  0  0
    8.4820    2.3420   -1.2950 N   0  0  0  0  0  0  0  0  0  0  0  0
    8.3170    1.0490   -1.6650 O   0  0  0  0  0  0  0  0  0  0  0  0
    7.3200    0.2170   -1.2720 N   0  0  0  0  0  0  0  0  0  0  0  0
    6.0780    0.1540   -1.7220 N   0  0  0  0  0  0  0  0  0  0  0  0
    5.3730   -0.7930   -1.0980 C   0  0  0  0  0  0  0  0  0  0  0  0
    4.0460   -1.1350   -1.3130 O   0  0  0  0  0  0  0  0  0  0  0  0
    2.9910   -0.6390   -0.5680 C   0  0  0  0  0  0  0  0  0  0  0  0
    2.6040   -1.1890    0.6270 C   0  0  0  0  0  0  0  0  0  0  0  0
    1.5330   -0.6730    1.3680 C   0  0  0  0  0  0  0  0  0  0  0  0
    1.1690   -1.2520    2.5730 O   0  0  0  0  0  0  0  0  0  0  0  0
    0.0930   -0.7340    3.2930 C   0  0  0  0  0  0  0  0  0  0  0  0
   -1.1820   -0.8790    2.5160 C   0  0  0  0  0  0  0  0  0  0  0  0
   -2.1940   -0.3020    2.9420 O   0  0  0  0  0  0  0  0  0  0  0  0
   -1.2360   -1.6440    1.3480 N   0  0  0  0  0  0  0  0  0  0  0  0
   -2.3120   -1.8770    0.4800 C   0  0  0  0  0  0  0  0  0  0  0  0
   -2.8640   -0.7540   -0.2930 C   0  0  0  0  0  0  0  0  0  0  0  0
   -3.5220    0.3970    0.3280 C   0  0  0  0  0  0  0  0  0  0  0  0
   -4.7730    0.0930    1.1250 C   0  0  0  0  0  0  0  0  0  0  0  0
   -6.0750   -0.6800    0.0250 P   0  0  0  0  0  0  0  0  0  0  0  0
   -7.5510   -0.8970    0.8730 O   0  0  0  0  0  0  0  0  0  0  0  0
   -6.2560    0.2160   -1.4310 O   0  0  0  0  0  0  0  0  0  0  0  0
   -7.6190   -0.4490   -2.2960 P   0  0  0  0  0  0  0  0  0  0  0  0
   -7.1240   -1.3780   -3.6600 O   0  0  0  0  0  0  0  0  0  0  0  0
   -8.6120    0.9070   -2.7780 O   0  0  0  0  0  0  0  0  0  0  0  0
   -9.2030    1.6430   -1.3250 P   0  0  0  0  0  0  0  0  0  0  0  0
   -8.7670    3.3050   -1.2240 O   0  0  0  0  0  0  0  0  0  0  0  0
  -10.9210    1.4170   -1.2910 O   0  0  0  0  0  0  0  0  0  0  0  0
    0.8980    0.4180    0.8160 C   0  0  0  0  0  0  0  0  0  0  0  0
    1.2890    0.9760   -0.3940 C   0  0  0  0  0  0  0  0  0  0  0  0
    2.3230    0.4250   -1.0430 N   0  0  0  0  0  0  0  0  0  0  0  0
    6.2340   -1.3510   -0.2040 N   0  0  0  0  0  0  0  0  0  0  0  0
    7.4170   -0.7250   -0.3210 C   0  0  0  0  0  0  0  0  0  0  0  0
    8.6760   -0.9980    0.4600 C   0  0  0  0  0  0  0  0  0  0  0  0
  1  2  1  0
  2  3  1  0
  3  4  1  0
  4  5  1  0
  4 33  1  0
  5  6  2  0
  6  7  1  0
  6 32  1  0
  7  8  1  0
  8  9  2  0
  8 31  1  0
  9 10  1  0
 10 11  1  0
 10 29  2  0
 11 12  1  0
 12 13  1  0
 13 14  2  0
 13 15  1  0
 15 16  1  0
 16 17  1  0
 17 18  1  0
 18 19  1  0
 19 20  1  0
 20 21  1  0
 20 22  1  0
 22 23  1  0
 23 24  1  0
 23 25  1  0
 25 26  1  0
 26 27  1  0
 26 28  1  0
 29 30  1  0
 30 31  2  0
 32 33  2  0
 33 34  1  0
M  END
