
     RDKit          3D

 39 41  0  0  0  0  0  0  0  0999 V2000
   -1.8240   -4.0560    2.5200 C   0  0  0  0  0  0  0  0  0  0  0  0
   -2.4510   -3.1540    3.3640 O   0  0  0  0  0  0  0  0  0  0  0  0
   -3.0630   -1.8510    2.5500 P   0  0  0  0  0  0  0  0  0  0  0  0
   -4.4980   -1.1870    2.9910 O   0  0  0  0  0  0  0  0  0  0  0  0
   -2.2460   -0.9610    3.4600 O   0  0  0  0  0  0  0  0  0  0  0  0
   -2.2720   -1.3640    1.0310 C   0  0  1  0  0  0  0  0  0  0  0  0
   -1.0800   -2.1340    1.0160 O   0  0  0  0  0  0  0  0  0  0  0  0
   -3.0150   -1.8880   -0.1630 C   0  0  0  0  0  0  0  0  0  0  0  0
   -4.3780   -1.7650   -0.1920 C   0  0  0  0  0  0  0  0  0  0  0  0
   -5.1780   -2.3150   -1.1910 C   0  0  0  0  0  0  0  0  0  0  0  0
   -4.5940   -3.0380   -2.2280 C   0  0  0  0  0  0  0  0  0  0  0  0
   -3.2170   -3.1670   -2.2000 C   0  0  0  0  0  0  0  0  0  0  0  0
   -2.4460   -2.6060   -1.1930 C   0  0  0  0  0  0  0  0  0  0  0  0
   -1.9180    0.0240    0.9350 C   0  0  1  0  0  0  0  0  0  0  0  0
   -0.4270    0.3770    2.0170 S   0  0  0  0  0  0  0  0  0  0  0  0
    0.7020    0.2900    0.5450 C   0  0  0  0  0  0  0  0  0  0  0  0
    2.0430   -0.1260    0.7910 C   0  0  0  0  0  0  0  0  0  0  0  0
    3.3160    0.4500    0.3370 C   0  0  0  0  0  0  0  0  0  0  0  0
    4.2800   -0.3890    0.9850 O   0  0  0  0  0  0  0  0  0  0  0  0
    5.1820   -1.0960   -0.1650 P   0  0  0  0  0  0  0  0  0  0  0  0
    4.4000   -1.5370   -1.6030 O   0  0  0  0  0  0  0  0  0  0  0  0
    5.6410    0.1580   -0.7920 O   0  0  0  0  0  0  0  0  0  0  0  0
    6.5970   -1.7950    0.0950 O   0  0  0  0  0  0  0  0  0  0  0  0
    7.5220   -0.9340    1.1570 P   0  0  0  0  0  0  0  0  0  0  0  0
    8.8300   -1.7740    1.8120 O   0  0  0  0  0  0  0  0  0  0  0  0
    7.1490    0.5230    1.6940 O   0  0  0  0  0  0  0  0  0  0  0  0
    8.4200   -0.4750    0.0070 O   0  0  0  0  0  0  0  0  0  0  0  0
   -0.0280    0.5370   -0.4930 C   0  0  0  0  0  0  0  0  0  0  0  0
    0.5780    0.5710   -1.8750 C   0  0  0  0  0  0  0  0  0  0  0  0
   -1.3730    0.6710   -0.2530 N   0  0  0  0  0  0  0  0  0  0  0  0
   -2.3740    1.4280   -0.9770 C   0  0  0  0  0  0  0  0  0  0  0  0
   -2.1060    2.7850   -1.4010 C   0  0  0  0  0  0  0  0  0  0  0  0
   -2.1070    3.1780   -2.7270 C   0  0  0  0  0  0  0  0  0  0  0  0
   -2.3330    4.5070   -3.0020 N   0  0  0  0  0  0  0  0  0  0  0  0
   -2.5450    5.4200   -2.0830 C   0  0  0  0  0  0  0  0  0  0  0  0
   -2.8940    6.8610   -2.3510 C   0  0  0  0  0  0  0  0  0  0  0  0
   -2.5380    5.0540   -0.7590 N   0  0  0  0  0  0  0  0  0  0  0  0
   -2.3170    3.7950   -0.4740 C   0  0  0  0  0  0  0  0  0  0  0  0
   -2.0520    3.3720    0.8730 N   0  0  0  0  0  0  0  0  0  0  0  0
  1  2  1  0
  2  3  1  0
  3  4  1  0
  3  5  1  0
  3  6  1  0
  6  7  1  1
  6  8  1  0
  6 14  1  0
  8  9  2  0
  8 13  1  0
  9 10  1  0
 10 11  2  0
 11 12  1  0
 12 13  2  0
 14 15  1  1
 14 30  1  0
 15 16  1  0
 16 17  1  0
 16 28  2  0
 17 18  1  0
 18 19  1  0
 19 20  1  0
 20 21  1  0
 20 22  1  0
 20 23  1  0
 23 24  1  0
 24 25  1  0
 24 26  1  0
 24 27  1  0
 28 29  1  0
 28 30  1  0
 30 31  1  0
 31 32  1  0
 32 33  2  0
 32 38  1  0
 33 34  1  0
 34 35  2  0
 35 36  1  0
 35 37  1  0
 37 38  2  0
 38 39  1  0
M  END
