
     RDKit          3D

 34 35  0  0  0  0  0  0  0  0999 V2000
   -2.9150   -2.1450   -3.0920 O   0  0  0  0  0  0  0  0  0  0  0  0
   -2.5950   -1.9970   -1.8560 C   0  0  0  0  0  0  0  0  0  0  0  0
   -1.2190   -2.4660   -1.5470 C   0  0  0  0  0  0  0  0  0  0  0  0
   -0.9480   -2.2910   -0.2250 O   0  0  0  0  0  0  0  0  0  0  0  0
    0.0840   -2.5100    0.6150 C   0  0  0  0  0  0  0  0  0  0  0  0
   -0.3670   -2.9570    1.7730 O   0  0  0  0  0  0  0  0  0  0  0  0
    1.5220   -2.3470    0.4700 C   0  0  0  0  0  0  0  0  0  0  0  0
    2.2570   -3.6740    0.7340 C   0  0  0  0  0  0  0  0  0  0  0  0
    1.9290   -4.1360    2.0120 O   0  0  0  0  0  0  0  0  0  0  0  0
    2.2420   -1.2780    0.2140 C   0  0  0  0  0  0  0  0  0  0  0  0
    3.6720   -1.5930    0.1570 O   0  0  0  0  0  0  0  0  0  0  0  0
    4.4080   -1.8990   -1.3940 P   0  0  0  0  0  0  0  0  0  0  0  0
    3.9380   -3.4090   -2.0710 O   0  0  0  0  0  0  0  0  0  0  0  0
    6.1030   -1.7130   -1.2540 O   0  0  0  0  0  0  0  0  0  0  0  0
    1.9100    0.1220   -0.0170 C   0  0  0  0  0  0  0  0  0  0  0  0
    2.8160    0.9950    0.4890 C   0  0  0  0  0  0  0  0  0  0  0  0
    2.7150    2.4620    0.3940 C   0  0  0  0  0  0  0  0  0  0  0  0
    3.8390    2.9350   -0.3030 O   0  0  0  0  0  0  0  0  0  0  0  0
    3.6830    4.6600   -0.3930 P   0  0  0  0  0  0  0  0  0  0  0  0
    3.5950    5.3870    1.1770 O   0  0  0  0  0  0  0  0  0  0  0  0
    5.0240    5.3500   -1.2730 O   0  0  0  0  0  0  0  0  0  0  0  0
    0.8100    0.7400   -0.7230 C   0  0  0  0  0  0  0  0  0  0  0  0
    1.0490    1.5630   -1.7260 O   0  0  0  0  0  0  0  0  0  0  0  0
   -0.5930    0.6350   -0.5470 N   0  0  0  0  0  0  0  0  0  0  0  0
   -1.3870    0.7730    0.6310 C   0  0  0  0  0  0  0  0  0  0  0  0
   -2.8420    0.5570    0.2930 C   0  0  1  0  0  0  0  0  0  0  0  0
   -3.1410    1.0940   -0.9730 O   0  0  0  0  0  0  0  0  0  0  0  0
   -3.3190   -0.8400    0.3130 C   0  0  1  0  0  0  0  0  0  0  0  0
   -4.6810   -0.7240    1.0110 C   0  0  0  0  0  0  0  0  0  0  0  0
   -4.8680    0.5760    1.3720 O   0  0  0  0  0  0  0  0  0  0  0  0
   -3.6590    1.2200    1.3730 C   0  0  2  0  0  0  0  0  0  0  0  0
   -3.7730    2.7120    1.1730 C   0  0  0  0  0  0  0  0  0  0  0  0
   -4.3670    3.0500   -0.0210 O   0  0  0  0  0  0  0  0  0  0  0  0
   -3.5290   -1.4410   -0.9850 N   0  0  0  0  0  0  0  0  0  0  0  0
  1  2  2  0
  2  3  1  0
  2 34  1  0
  3  4  1  0
  4  5  1  0
  5  6  2  0
  5  7  1  0
  7  8  1  0
  7 10  2  0
  8  9  1  0
 10 11  1  0
 10 15  1  0
 11 12  1  0
 12 13  1  0
 12 14  1  0
 15 16  2  3
 15 22  1  0
 16 17  1  0
 17 18  1  0
 18 19  1  0
 19 20  1  0
 19 21  1  0
 22 23  2  0
 22 24  1  0
 24 25  1  0
 25 26  1  0
 26 27  1  6
 26 28  1  0
 26 31  1  0
 28 29  1  1
 28 34  1  0
 29 30  1  0
 30 31  1  0
 31 32  1  6
 32 33  1  0
M  END
