
     RDKit          3D

 34 35  0  0  0  0  0  0  0  0999 V2000
    3.9240    0.6380   -4.5250 O   0  0  0  0  0  0  0  0  0  0  0  0
    3.2370    2.0070   -4.2650 P   0  0  0  0  0  0  0  0  0  0  0  0
    3.2060    2.6680   -2.6260 O   0  0  0  0  0  0  0  0  0  0  0  0
    3.7150    1.9310   -1.5440 C   0  0  0  0  0  0  0  0  0  0  0  0
    5.1450    2.0880   -1.3360 C   0  0  0  0  0  0  0  0  0  0  0  0
    5.9450    2.8370   -2.0510 C   0  0  0  0  0  0  0  0  0  0  0  0
    5.4420    3.5630   -3.1080 O   0  0  0  0  0  0  0  0  0  0  0  0
    2.9230    1.1590   -0.7870 C   0  0  0  0  0  0  0  0  0  0  0  0
    1.5100    1.1180   -1.1370 C   0  0  0  0  0  0  0  0  0  0  0  0
    1.1860    1.1150   -2.3570 O   0  0  0  0  0  0  0  0  0  0  0  0
    0.4470    1.0800   -0.2450 O   0  0  0  0  0  0  0  0  0  0  0  0
    0.5310    1.5340    1.0870 C   0  0  0  0  0  0  0  0  0  0  0  0
    0.1350    0.5020    2.1010 C   0  0  0  0  0  0  0  0  0  0  0  0
   -0.8370   -0.4320    1.5930 N   0  0  0  0  0  0  0  0  0  0  0  0
   -2.2320   -0.5090    1.7320 C   0  0  0  0  0  0  0  0  0  0  0  0
   -3.0000    0.0420    2.5350 O   0  0  0  0  0  0  0  0  0  0  0  0
   -2.7210   -1.4570    0.6550 C   0  0  1  0  0  0  0  0  0  0  0  0
   -2.8240   -0.7340   -0.4760 O   0  0  0  0  0  0  0  0  0  0  0  0
   -3.8940   -0.6890   -1.2530 C   0  0  0  0  0  0  0  0  0  0  0  0
   -5.1190   -0.0990   -0.6310 C   0  0  0  0  0  0  0  0  0  0  0  0
   -5.8200   -0.9680    0.8090 P   0  0  0  0  0  0  0  0  0  0  0  0
   -7.2620   -1.8380    0.3370 O   0  0  0  0  0  0  0  0  0  0  0  0
   -6.2170    0.0440    2.1380 O   0  0  0  0  0  0  0  0  0  0  0  0
   -1.5440   -2.4450    0.5420 C   0  0  2  0  0  0  0  0  0  0  0  0
   -1.6360   -3.4620    1.4750 O   0  0  0  0  0  0  0  0  0  0  0  0
   -0.3970   -1.5260    0.7830 C   0  0  2  0  0  0  0  0  0  0  0  0
    0.7190   -2.1930    1.5170 C   0  0  0  0  0  0  0  0  0  0  0  0
    0.5090   -2.3050    2.7840 O   0  0  0  0  0  0  0  0  0  0  0  0
    1.8220   -2.6280    0.8960 O   0  0  0  0  0  0  0  0  0  0  0  0
    2.8320   -1.9940    0.2110 C   0  0  0  0  0  0  0  0  0  0  0  0
    3.1990   -2.6590   -0.8390 O   0  0  0  0  0  0  0  0  0  0  0  0
    3.3680   -0.8250    0.5910 N   0  0  0  0  0  0  0  0  0  0  0  0
    3.4890    0.3870    0.3360 C   0  0  0  0  0  0  0  0  0  0  0  0
    4.2710    1.1610    1.2320 O   0  0  0  0  0  0  0  0  0  0  0  0
  1  2  2  0
  2  3  1  0
  3  4  1  0
  4  5  1  0
  4  8  2  3
  5  6  2  3
  6  7  1  0
  8  9  1  0
  8 33  1  0
  9 10  2  0
  9 11  1  0
 11 12  1  0
 12 13  1  0
 13 14  1  0
 14 15  1  0
 14 26  1  0
 15 16  2  0
 15 17  1  0
 17 18  1  6
 17 24  1  0
 18 19  1  0
 19 20  1  0
 20 21  1  0
 21 22  1  0
 21 23  1  0
 24 25  1  1
 24 26  1  0
 26 27  1  1
 27 28  2  0
 27 29  1  0
 29 30  1  0
 30 31  2  0
 30 32  1  0
 32 33  2  0
 33 34  1  0
M  END
