
     RDKit          3D

 34 35  0  0  0  0  0  0  0  0999 V2000
   -4.2150   -1.8030    3.4010 C   0  0  0  0  0  0  0  0  0  0  0  0
   -3.8240   -2.4990    2.1170 C   0  0  0  0  0  0  0  0  0  0  0  0
   -2.7280   -1.8580    1.5450 O   0  0  0  0  0  0  0  0  0  0  0  0
   -3.0120   -0.5210    1.2480 C   0  0  0  0  0  0  0  0  0  0  0  0
   -1.7080    0.0350    0.6290 C   0  0  1  0  0  0  0  0  0  0  0  0
   -1.9970    1.4890    0.3990 C   0  0  0  0  0  0  0  0  0  0  0  0
   -2.2180    2.1650    1.6170 O   0  0  0  0  0  0  0  0  0  0  0  0
   -2.5470    3.8380    1.3160 P   0  0  0  0  0  0  0  0  0  0  0  0
   -3.3470    4.0690   -0.2020 O   0  0  0  0  0  0  0  0  0  0  0  0
   -3.3670    4.5920    2.6170 O   0  0  0  0  0  0  0  0  0  0  0  0
   -0.6530   -0.1940    1.7250 C   0  0  0  0  0  0  0  0  0  0  0  0
    0.2790   -1.1820    1.1920 N   0  0  0  0  0  0  0  0  0  0  0  0
    1.0430   -1.2460   -0.0130 C   0  0  0  0  0  0  0  0  0  0  0  0
    1.9600   -2.1270    0.1290 O   0  0  0  0  0  0  0  0  0  0  0  0
    0.8530   -0.4800   -1.1940 C   0  0  1  0  0  0  0  0  0  0  0  0
    1.3530    0.9530   -1.0000 C   0  0  0  0  0  0  0  0  0  0  0  0
    2.6650    1.1690   -1.0920 O   0  0  0  0  0  0  0  0  0  0  0  0
    3.6230    0.7230   -0.2950 C   0  0  0  0  0  0  0  0  0  0  0  0
    3.6270    1.1760    1.1400 C   0  0  0  0  0  0  0  0  0  0  0  0
    2.5220    0.8630    1.8630 O   0  0  0  0  0  0  0  0  0  0  0  0
    2.7230    1.4670    3.4730 P   0  0  0  0  0  0  0  0  0  0  0  0
    2.9500    0.1910    4.6050 O   0  0  0  0  0  0  0  0  0  0  0  0
    3.9680    2.6550    3.5600 O   0  0  0  0  0  0  0  0  0  0  0  0
    1.3330   -0.8750   -2.4610 N   0  0  0  0  0  0  0  0  0  0  0  0
    2.0000   -2.0370   -2.8480 C   0  0  0  0  0  0  0  0  0  0  0  0
    2.3200   -3.0200   -2.1420 O   0  0  0  0  0  0  0  0  0  0  0  0
    2.3960   -2.1910   -4.2030 O   0  0  0  0  0  0  0  0  0  0  0  0
    3.0680   -3.3400   -4.6350 C   0  0  0  0  0  0  0  0  0  0  0  0
    1.0430    0.1190   -3.5220 C   0  0  0  0  0  0  0  0  0  0  0  0
   -0.3500    0.6420   -3.4380 C   0  0  0  0  0  0  0  0  0  0  0  0
   -0.8370    0.7590   -2.1390 O   0  0  0  0  0  0  0  0  0  0  0  0
   -0.6880   -0.4160   -1.4580 C   0  0  1  0  0  0  0  0  0  0  0  0
   -0.9680   -1.4220   -2.4370 O   0  0  0  0  0  0  0  0  0  0  0  0
   -1.4770   -0.7130   -0.4580 O   0  0  0  0  0  0  0  0  0  0  0  0
  1  2  1  0
  2  3  1  0
  3  4  1  0
  5  4  1  1
  5  6  1  0
  5 11  1  0
  5 34  1  0
  6  7  1  0
  7  8  1  0
  8  9  1  0
  8 10  1  0
 11 12  1  0
 12 13  1  0
 13 14  2  0
 13 15  1  0
 15 16  1  1
 15 24  1  0
 15 32  1  0
 16 17  1  0
 17 18  1  0
 18 19  1  0
 19 20  1  0
 20 21  1  0
 21 22  1  0
 21 23  1  0
 24 25  1  0
 24 29  1  0
 25 26  2  0
 25 27  1  0
 27 28  1  0
 29 30  1  0
 30 31  1  0
 31 32  1  0
 32 33  1  6
 32 34  1  0
M  END
