
     RDKit          3D

 34 35  0  0  0  0  0  0  0  0999 V2000
   -1.3400    3.3820    1.4910 C   0  0  0  0  0  0  0  0  0  0  0  0
   -1.9340    2.6770    0.3310 N   0  0  0  0  0  0  0  0  0  0  0  0
   -1.0130    1.7700   -0.3390 C   0  0  0  0  0  0  0  0  0  0  0  0
   -0.1790    0.9660    0.6120 C   0  0  2  0  0  0  0  0  0  0  0  0
    0.8970    0.3390   -0.0580 O   0  0  0  0  0  0  0  0  0  0  0  0
    2.1950    0.6610    0.2090 C   0  0  0  0  0  0  0  0  0  0  0  0
    2.4200    1.5460    1.0810 O   0  0  0  0  0  0  0  0  0  0  0  0
    3.3750    0.0580   -0.4420 C   0  0  2  0  0  0  0  0  0  0  0  0
    3.3850   -1.4310   -0.1920 C   0  0  0  0  0  0  0  0  0  0  0  0
    4.4840   -2.0260   -0.7920 O   0  0  0  0  0  0  0  0  0  0  0  0
    4.4710   -3.7300   -0.4900 P   0  0  0  0  0  0  0  0  0  0  0  0
    3.7960   -4.6060   -1.8110 O   0  0  0  0  0  0  0  0  0  0  0  0
    3.5370   -4.0540    0.9250 O   0  0  0  0  0  0  0  0  0  0  0  0
    4.6320    0.7000   -0.0540 C   0  0  0  0  0  0  0  0  0  0  0  0
    5.5350    0.0430    0.5010 O   0  0  0  0  0  0  0  0  0  0  0  0
    4.8440    2.0470   -0.2930 O   0  0  0  0  0  0  0  0  0  0  0  0
    6.3510    2.8130    0.1740 P   0  0  0  0  0  0  0  0  0  0  0  0
    7.6620    1.7130   -0.0690 O   0  0  0  0  0  0  0  0  0  0  0  0
    6.5800    4.2370   -0.7940 O   0  0  0  0  0  0  0  0  0  0  0  0
   -0.8660   -0.0410    1.4480 C   0  0  0  0  0  0  0  0  0  0  0  0
   -1.4210   -1.2420    0.7460 C   0  0  2  0  0  0  0  0  0  0  0  0
   -2.5740   -0.9220   -0.1460 C   0  0  0  0  0  0  0  0  0  0  0  0
   -3.7360   -1.7780   -0.0000 N   0  0  0  0  0  0  0  0  0  0  0  0
   -3.6980   -3.1080    0.5250 C   0  0  0  0  0  0  0  0  0  0  0  0
   -2.5940   -3.2620    1.4870 C   0  0  0  0  0  0  0  0  0  0  0  0
   -2.4200   -4.3830    2.0320 O   0  0  0  0  0  0  0  0  0  0  0  0
   -1.7920   -2.1810    1.7580 O   0  0  0  0  0  0  0  0  0  0  0  0
   -4.9620   -1.1690   -0.4390 C   0  0  0  0  0  0  0  0  0  0  0  0
   -5.8810   -1.9270   -0.9100 O   0  0  0  0  0  0  0  0  0  0  0  0
   -5.1640    0.2990   -0.3520 C   0  0  0  0  0  0  0  0  0  0  0  0
   -4.4990    1.1170   -1.3930 C   0  0  0  0  0  0  0  0  0  0  0  0
   -4.0020    2.3380   -1.0370 O   0  0  0  0  0  0  0  0  0  0  0  0
   -3.2850    2.9060   -0.0530 C   0  0  0  0  0  0  0  0  0  0  0  0
   -3.8680    3.7900    0.6680 O   0  0  0  0  0  0  0  0  0  0  0  0
  1  2  1  0
  2  3  1  0
  2 33  1  0
  3  4  1  0
  4  5  1  6
  4 20  1  0
  5  6  1  0
  6  7  2  0
  6  8  1  0
  8  9  1  1
  8 14  1  0
  9 10  1  0
 10 11  1  0
 11 12  1  0
 11 13  1  0
 14 15  2  0
 14 16  1  0
 16 17  1  0
 17 18  1  0
 17 19  1  0
 21 20  1  1
 21 22  1  0
 21 27  1  0
 22 23  1  0
 23 24  1  0
 23 28  1  0
 24 25  1  0
 25 26  2  0
 25 27  1  0
 28 29  2  0
 28 30  1  0
 30 31  1  0
 31 32  1  0
 32 33  1  0
 33 34  2  0
M  END
