
     RDKit          3D

 34 35  0  0  0  0  0  0  0  0999 V2000
   -0.6150    6.5070   -2.1070 O   0  0  0  0  0  0  0  0  0  0  0  0
   -1.1560    5.0650   -1.8270 P   0  0  0  0  0  0  0  0  0  0  0  0
   -1.2980    4.3940   -0.1050 C   0  0  0  0  0  0  0  0  0  0  0  0
   -0.7280    3.1520    0.0360 O   0  0  0  0  0  0  0  0  0  0  0  0
    0.6060    3.1040   -0.2490 C   0  0  0  0  0  0  0  0  0  0  0  0
    1.1390    1.7260   -0.0700 C   0  0  0  0  0  0  0  0  0  0  0  0
    2.3960    1.6180   -0.2800 O   0  0  0  0  0  0  0  0  0  0  0  0
    0.3600    0.6040    0.2990 N   0  0  0  0  0  0  0  0  0  0  0  0
   -1.1070    0.6740    0.4870 C   0  0  0  0  0  0  0  0  0  0  0  0
   -1.5370   -0.7550    0.6860 C   0  0  1  0  0  0  0  0  0  0  0  0
   -2.7980   -1.0840    0.2930 O   0  0  0  0  0  0  0  0  0  0  0  0
   -3.9560   -0.5180    0.7870 C   0  0  0  0  0  0  0  0  0  0  0  0
   -3.8340    0.3660    1.6640 O   0  0  0  0  0  0  0  0  0  0  0  0
   -5.2870   -0.9660    0.2720 C   0  0  1  0  0  0  0  0  0  0  0  0
   -5.3160   -0.6920   -1.2200 C   0  0  0  0  0  0  0  0  0  0  0  0
   -5.0880    1.1150   -1.5900 P   0  0  0  0  0  0  0  0  0  0  0  0
   -5.0660    2.1550   -0.4520 O   0  0  0  0  0  0  0  0  0  0  0  0
   -5.3860   -2.4450    0.4320 C   0  0  0  0  0  0  0  0  0  0  0  0
   -6.2740   -2.9910    1.1240 O   0  0  0  0  0  0  0  0  0  0  0  0
   -4.4740   -3.2750   -0.2000 O   0  0  0  0  0  0  0  0  0  0  0  0
   -0.4430   -1.4690   -0.1370 C   0  0  0  0  0  0  0  0  0  0  0  0
    0.6850   -0.7420    0.5650 C   0  0  1  0  0  0  0  0  0  0  0  0
    1.9970   -1.2580    0.3250 C   0  0  0  0  0  0  0  0  0  0  0  0
    2.1140   -2.2420   -0.4890 O   0  0  0  0  0  0  0  0  0  0  0  0
    3.2240   -0.8220    0.8820 N   0  0  0  0  0  0  0  0  0  0  0  0
    4.4850   -1.4240    0.5240 C   0  0  0  0  0  0  0  0  0  0  0  0
    4.5220   -2.3570   -0.2990 O   0  0  0  0  0  0  0  0  0  0  0  0
    5.6840   -0.9920    1.0740 O   0  0  0  0  0  0  0  0  0  0  0  0
    6.9300   -1.5710    0.7340 C   0  0  0  0  0  0  0  0  0  0  0  0
    7.2180   -1.4420   -0.7160 C   0  0  0  0  0  0  0  0  0  0  0  0
    8.2980   -1.9200   -1.1340 O   0  0  0  0  0  0  0  0  0  0  0  0
    6.3050   -0.8120   -1.5360 O   0  0  0  0  0  0  0  0  0  0  0  0
    0.2240   -1.0060    2.0220 C   0  0  0  0  0  0  0  0  0  0  0  0
   -1.1560   -1.1130    1.9680 O   0  0  0  0  0  0  0  0  0  0  0  0
  1  2  2  0
  2  3  1  0
  3  4  1  0
  4  5  1  0
  5  6  1  0
  6  7  2  0
  6  8  1  0
  8  9  1  0
  8 22  1  0
  9 10  1  0
 10 11  1  6
 10 21  1  0
 10 34  1  0
 11 12  1  0
 12 13  2  0
 12 14  1  0
 14 15  1  6
 14 18  1  0
 15 16  1  0
 16 17  2  0
 18 19  2  0
 18 20  1  0
 21 22  1  0
 22 23  1  1
 22 33  1  0
 23 24  2  0
 23 25  1  0
 25 26  1  0
 26 27  2  0
 26 28  1  0
 28 29  1  0
 29 30  1  0
 30 31  2  0
 30 32  1  0
 33 34  1  0
M  END
