
     RDKit          3D

 35 35  0  0  0  0  0  0  0  0999 V2000
    4.9500    3.1890    2.0200 C   0  0  0  0  0  0  0  0  0  0  0  0
    5.1730    2.4810    0.6780 C   0  0  0  0  0  0  0  0  0  0  0  0
    4.0830    2.8470   -0.1050 O   0  0  0  0  0  0  0  0  0  0  0  0
    3.1290    1.5670   -0.6440 P   0  0  0  0  0  0  0  0  0  0  0  0
    1.4730    2.0280   -1.2270 C   0  0  0  0  0  0  0  0  0  0  0  0
    0.5970    2.7540   -0.2890 C   0  0  0  0  0  0  0  0  0  0  0  0
    0.5970    4.0250   -0.3580 O   0  0  0  0  0  0  0  0  0  0  0  0
   -0.2820    2.1800    0.6480 N   0  0  0  0  0  0  0  0  0  0  0  0
   -0.5630    0.7760    0.7380 C   0  0  0  0  0  0  0  0  0  0  0  0
   -2.0170    0.5530    1.0260 C   0  0  1  0  0  0  0  0  0  0  0  0
   -2.3190    0.4690    2.3930 O   0  0  0  0  0  0  0  0  0  0  0  0
   -2.9010    1.6770    0.5210 C   0  0  0  0  0  0  0  0  0  0  0  0
   -2.5630    2.1390   -0.7440 O   0  0  0  0  0  0  0  0  0  0  0  0
   -3.4510    2.7820   -1.5530 C   0  0  0  0  0  0  0  0  0  0  0  0
   -4.6530    2.8680   -1.2360 O   0  0  0  0  0  0  0  0  0  0  0  0
   -3.0810    3.3790   -2.7840 O   0  0  0  0  0  0  0  0  0  0  0  0
   -2.4990   -0.6920    0.3210 C   0  0  2  0  0  0  0  0  0  0  0  0
   -4.0120   -0.7180    0.4080 C   0  0  0  0  0  0  0  0  0  0  0  0
   -4.7580   -0.8760   -0.6120 O   0  0  0  0  0  0  0  0  0  0  0  0
   -4.6560   -0.6060    1.6160 O   0  0  0  0  0  0  0  0  0  0  0  0
   -6.0320   -0.6690    1.8280 C   0  0  0  0  0  0  0  0  0  0  0  0
   -2.0980   -1.9570    0.8220 N   0  0  0  0  0  0  0  0  0  0  0  0
   -1.2320   -2.9240    0.2800 C   0  0  0  0  0  0  0  0  0  0  0  0
   -0.6420   -3.6410    1.0920 O   0  0  0  0  0  0  0  0  0  0  0  0
   -1.0800   -3.1150   -1.1710 C   0  0  0  0  0  0  0  0  0  0  0  0
    0.1670   -2.9650   -1.6890 O   0  0  0  0  0  0  0  0  0  0  0  0
    1.1400   -3.7480   -1.1220 C   0  0  0  0  0  0  0  0  0  0  0  0
    2.7630   -3.2990   -1.9520 P   0  0  0  0  0  0  0  0  0  0  0  0
    3.7620   -4.7410   -2.0750 O   0  0  0  0  0  0  0  0  0  0  0  0
    3.6560   -2.1930   -0.9550 O   0  0  0  0  0  0  0  0  0  0  0  0
    2.9900   -1.0110   -0.6900 C   0  0  2  0  0  0  0  0  0  0  0  0
    2.6850   -0.9390    0.7760 C   0  0  0  0  0  0  0  0  0  0  0  0
    1.8600   -0.9610   -1.4890 O   0  0  0  0  0  0  0  0  0  0  0  0
    2.2420   -0.9790   -2.7420 O   0  0  0  0  0  0  0  0  0  0  0  0
    3.7870    0.1070   -1.0480 O   0  0  0  0  0  0  0  0  0  0  0  0
  1  2  1  0
  2  3  1  0
  3  4  1  0
  4  5  1  0
  4 35  1  0
  5  6  1  0
  6  7  2  0
  6  8  1  0
  8  9  1  0
  9 10  1  0
 10 11  1  1
 10 12  1  0
 10 17  1  0
 12 13  1  0
 13 14  1  0
 14 15  2  0
 14 16  1  0
 17 18  1  1
 17 22  1  0
 18 19  2  0
 18 20  1  0
 20 21  1  0
 22 23  1  0
 23 24  2  0
 23 25  1  0
 25 26  1  0
 26 27  1  0
 27 28  1  0
 28 29  1  0
 28 30  1  0
 30 31  1  0
 31 32  1  1
 31 33  1  0
 31 35  1  0
 33 34  1  0
M  END
