
     RDKit          3D

 24 26  0  0  0  0  0  0  0  0999 V2000
   -6.5370    1.5680    1.9500 C   0  0  0  0  0  0  0  0  0  0  0  0
   -5.9070    0.2250    1.4390 C   0  0  1  0  0  0  0  0  0  0  0  0
   -6.5780   -0.0580    0.1730 C   0  0  0  0  0  0  0  0  0  0  0  0
   -4.4980    0.2670    1.5480 C   0  0  0  0  0  0  0  0  0  0  0  0
   -3.4340    0.1270    0.8580 C   0  0  0  0  0  0  0  0  0  0  0  0
   -3.2370   -0.1780   -0.5190 C   0  0  0  0  0  0  0  0  0  0  0  0
   -4.2730   -0.4260   -1.2710 O   0  0  0  0  0  0  0  0  0  0  0  0
   -2.0030   -0.2390   -1.2190 C   0  0  0  0  0  0  0  0  0  0  0  0
   -0.7380   -0.0230   -1.0510 C   0  0  0  0  0  0  0  0  0  0  0  0
    0.1790   -0.3100   -2.2720 C   0  0  0  0  0  0  0  0  0  0  0  0
    1.5230   -0.4220   -1.6910 C   0  0  0  0  0  0  0  0  0  0  0  0
    2.6880   -0.9060   -2.2400 C   0  0  0  0  0  0  0  0  0  0  0  0
    3.9100   -0.7810   -1.5800 C   0  0  0  0  0  0  0  0  0  0  0  0
    3.9260   -0.1640   -0.3720 C   0  0  0  0  0  0  0  0  0  0  0  0
    2.7230    0.3340    0.1950 C   0  0  0  0  0  0  0  0  0  0  0  0
    1.5450    0.1920   -0.4740 C   0  0  0  0  0  0  0  0  0  0  0  0
    0.1590    0.4470   -0.0970 N   0  0  0  0  0  0  0  0  0  0  0  0
   -0.1420    1.1920    1.1070 C   0  0  0  0  0  0  0  0  0  0  0  0
    5.1630    0.0300    0.4160 C   0  0  0  0  0  0  0  0  0  0  0  0
    6.3110   -0.5000   -0.2140 N   0  0  0  0  0  0  0  0  0  0  0  0
    7.5830   -0.3500    0.5230 C   0  0  0  0  0  0  0  0  0  0  0  0
    6.2600   -1.1340   -1.4670 C   0  0  0  0  0  0  0  0  0  0  0  0
    7.3630   -1.5670   -1.9350 O   0  0  0  0  0  0  0  0  0  0  0  0
    5.0690   -1.2830   -2.1620 O   0  0  0  0  0  0  0  0  0  0  0  0
  2  1  1  6
  2  3  1  0
  2  4  1  0
  4  5  2  3
  5  6  1  0
  6  7  2  0
  6  8  1  0
  8  9  2  3
  9 10  1  0
  9 17  1  0
 10 11  1  0
 11 12  2  0
 11 16  1  0
 12 13  1  0
 13 14  2  0
 13 24  1  0
 14 15  1  0
 14 19  1  0
 15 16  2  0
 16 17  1  0
 17 18  1  0
 19 20  1  0
 20 21  1  0
 20 22  1  0
 22 23  2  0
 22 24  1  0
M  END
