
     RDKit          3D

 24 26  0  0  0  0  0  0  0  0999 V2000
   -4.7440   -1.7010   -1.8220 C   0  0  0  0  0  0  0  0  0  0  0  0
   -3.7150   -1.1430   -1.2160 C   0  0  0  0  0  0  0  0  0  0  0  0
   -3.7530   -0.2250   -0.1890 C   0  0  0  0  0  0  0  0  0  0  0  0
   -4.7370    0.3410    0.4620 C   0  0  0  0  0  0  0  0  0  0  0  0
   -6.1460    0.1030    0.2190 C   0  0  0  0  0  0  0  0  0  0  0  0
   -2.3800    0.0330    0.0770 C   0  0  0  0  0  0  0  0  0  0  0  0
   -1.8070    0.8690    1.0030 C   0  0  0  0  0  0  0  0  0  0  0  0
   -0.4260    0.9670    1.0880 C   0  0  0  0  0  0  0  0  0  0  0  0
    0.1280    1.8110    2.0230 O   0  0  0  0  0  0  0  0  0  0  0  0
   -0.7230    2.5530    2.8670 C   0  0  0  0  0  0  0  0  0  0  0  0
    0.4060    0.2240    0.2430 C   0  0  0  0  0  0  0  0  0  0  0  0
    1.7950    0.3940    0.4090 N   0  0  0  0  0  0  0  0  0  0  0  0
    2.8320   -0.2320   -0.3090 C   0  0  0  0  0  0  0  0  0  0  0  0
    2.5550   -1.0370   -1.2050 O   0  0  0  0  0  0  0  0  0  0  0  0
    4.2500    0.0670    0.0010 C   0  0  0  0  0  0  0  0  0  0  0  0
    4.6910    0.9390    0.9690 C   0  0  0  0  0  0  0  0  0  0  0  0
    6.0770    0.9430    0.9490 C   0  0  0  0  0  0  0  0  0  0  0  0
    6.4160    0.0560   -0.0490 C   0  0  0  0  0  0  0  0  0  0  0  0
    7.8020   -0.3160   -0.4880 C   0  0  0  0  0  0  0  0  0  0  0  0
    5.3120   -0.4260   -0.5690 O   0  0  0  0  0  0  0  0  0  0  0  0
   -0.2160   -0.5920   -0.6600 C   0  0  0  0  0  0  0  0  0  0  0  0
   -1.6090   -0.7110   -0.7690 C   0  0  0  0  0  0  0  0  0  0  0  0
   -2.4090   -1.4260   -1.5550 N   0  0  0  0  0  0  0  0  0  0  0  0
   -1.9940   -2.3450   -2.5900 C   0  0  0  0  0  0  0  0  0  0  0  0
  1  2  2  0
  2  3  1  0
  2 23  1  0
  3  4  2  3
  3  6  1  0
  4  5  1  0
  6  7  2  0
  6 22  1  0
  7  8  1  0
  8  9  1  0
  8 11  2  0
  9 10  1  0
 11 12  1  0
 11 21  1  0
 12 13  1  0
 13 14  2  0
 13 15  1  0
 15 16  2  0
 15 20  1  0
 16 17  1  0
 17 18  2  0
 18 19  1  0
 18 20  1  0
 21 22  2  0
 22 23  1  0
 23 24  1  0
M  END
