
     RDKit          3D

 24 25  0  0  0  0  0  0  0  0999 V2000
    6.5470   -0.3390    2.0180 C   0  0  0  0  0  0  0  0  0  0  0  0
    5.2920   -0.4550    2.0280 C   0  0  0  0  0  0  0  0  0  0  0  0
    4.6120   -1.0670    3.2550 C   0  0  0  0  0  0  0  0  0  0  0  0
    4.4180   -0.1040    0.9360 C   0  0  0  0  0  0  0  0  0  0  0  0
    3.1150   -0.2480    1.0660 C   0  0  0  0  0  0  0  0  0  0  0  0
    2.1380    0.0710   -0.0050 C   0  0  0  0  0  0  0  0  0  0  0  0
    0.8750   -0.1230    0.2310 C   0  0  0  0  0  0  0  0  0  0  0  0
    0.4090   -0.6290    1.4840 O   0  0  0  0  0  0  0  0  0  0  0  0
   -0.9500   -0.6180    1.6050 C   0  0  0  0  0  0  0  0  0  0  0  0
   -1.3770   -0.3280    0.1910 C   0  0  0  0  0  0  0  0  0  0  0  0
   -0.3050    0.0580   -0.5730 C   0  0  0  0  0  0  0  0  0  0  0  0
   -0.4400    0.3730   -1.9200 C   0  0  0  0  0  0  0  0  0  0  0  0
    0.6880    0.9400   -2.7050 C   0  0  1  0  0  0  0  0  0  0  0  0
    1.0440   -0.0760   -3.8340 C   0  0  0  0  0  0  0  0  0  0  0  0
    0.1060    2.0970   -3.6240 C   0  0  0  0  0  0  0  0  0  0  0  0
   -1.7040    0.2590   -2.4260 N   0  0  0  0  0  0  0  0  0  0  0  0
   -2.7600   -0.1230   -1.6760 C   0  0  0  0  0  0  0  0  0  0  0  0
   -3.9070   -0.2020   -2.2110 O   0  0  0  0  0  0  0  0  0  0  0  0
   -2.6350   -0.4280   -0.3380 C   0  0  0  0  0  0  0  0  0  0  0  0
   -3.7580   -0.9010    0.4660 C   0  0  0  0  0  0  0  0  0  0  0  0
   -4.0060   -2.1530    0.4350 O   0  0  0  0  0  0  0  0  0  0  0  0
   -4.6030   -0.1230    1.2850 N   0  0  0  0  0  0  0  0  0  0  0  0
   -4.4290    1.3290    1.3490 C   0  0  0  0  0  0  0  0  0  0  0  0
   -5.6370   -0.7450    2.0640 C   0  0  0  0  0  0  0  0  0  0  0  0
  1  2  2  0
  2  3  1  0
  2  4  1  0
  4  5  2  3
  5  6  1  0
  6  7  2  3
  7  8  1  0
  7 11  1  0
  8  9  1  0
  9 10  1  0
 10 11  1  0
 10 19  2  0
 11 12  2  0
 12 13  1  0
 12 16  1  0
 13 14  1  6
 13 15  1  0
 16 17  1  0
 17 18  2  0
 17 19  1  0
 19 20  1  0
 20 21  2  0
 20 22  1  0
 22 23  1  0
 22 24  1  0
M  END
