
     RDKit          3D

 24 26  0  0  0  0  0  0  0  0999 V2000
    6.5270   -2.1010   -0.1420 C   0  0  0  0  0  0  0  0  0  0  0  0
    6.8150   -0.8170    0.3550 O   0  0  0  0  0  0  0  0  0  0  0  0
    5.8980    0.2120    0.4400 C   0  0  0  0  0  0  0  0  0  0  0  0
    6.3400    1.4120    0.9520 C   0  0  0  0  0  0  0  0  0  0  0  0
    5.4290    2.4430    1.0390 C   0  0  0  0  0  0  0  0  0  0  0  0
    4.1230    2.2700    0.6260 C   0  0  0  0  0  0  0  0  0  0  0  0
    3.6690    1.0660    0.1100 C   0  0  0  0  0  0  0  0  0  0  0  0
    2.2620    0.9620   -0.3080 C   0  0  0  0  0  0  0  0  0  0  0  0
    1.7430   -0.1410   -0.8090 C   0  0  0  0  0  0  0  0  0  0  0  0
    0.3420   -0.1390   -1.1910 C   0  0  0  0  0  0  0  0  0  0  0  0
   -0.1550   -1.1850   -1.6670 O   0  0  0  0  0  0  0  0  0  0  0  0
   -0.4540    1.0020   -1.0360 N   0  0  0  0  0  0  0  0  0  0  0  0
   -1.6660    0.9830   -0.5850 C   0  0  0  0  0  0  0  0  0  0  0  0
   -2.4520    2.2360   -0.4480 C   0  0  0  0  0  0  0  0  0  0  0  0
   -3.8010    1.9970   -0.8760 O   0  0  0  0  0  0  0  0  0  0  0  0
   -4.4350    0.8280   -0.5020 C   0  0  0  0  0  0  0  0  0  0  0  0
   -5.8130    0.7980   -0.4760 C   0  0  0  0  0  0  0  0  0  0  0  0
   -6.4850   -0.3610   -0.1050 C   0  0  0  0  0  0  0  0  0  0  0  0
   -5.7860   -1.5210    0.2500 C   0  0  0  0  0  0  0  0  0  0  0  0
   -6.5070   -2.7580    0.6460 C   0  0  0  0  0  0  0  0  0  0  0  0
   -4.4120   -1.4510    0.2110 C   0  0  0  0  0  0  0  0  0  0  0  0
   -3.7260   -0.3160   -0.1530 C   0  0  0  0  0  0  0  0  0  0  0  0
   -2.3070   -0.2270   -0.1980 N   0  0  0  0  0  0  0  0  0  0  0  0
    4.5720    0.0450    0.0240 C   0  0  0  0  0  0  0  0  0  0  0  0
  1  2  1  0
  2  3  1  0
  3  4  2  0
  3 24  1  0
  4  5  1  0
  5  6  2  0
  6  7  1  0
  7  8  1  0
  7 24  2  0
  8  9  2  3
  9 10  1  0
 10 11  2  0
 10 12  1  0
 12 13  2  3
 13 14  1  0
 13 23  1  0
 14 15  1  0
 15 16  1  0
 16 17  2  0
 16 22  1  0
 17 18  1  0
 18 19  2  0
 19 20  1  0
 19 21  1  0
 21 22  2  0
 22 23  1  0
M  END
