
     RDKit          3D

 22 24  0  0  0  0  0  0  0  0999 V2000
   -3.6660    2.1270    0.9790 C   0  0  0  0  0  0  0  0  0  0  0  0
   -2.6870    1.0480    0.6830 C   0  0  0  0  0  0  0  0  0  0  0  0
   -1.3360    1.0950    0.8800 N   0  0  0  0  0  0  0  0  0  0  0  0
   -0.7720   -0.0570    0.4990 C   0  0  0  0  0  0  0  0  0  0  0  0
    0.6140   -0.4990    0.4840 C   0  0  0  0  0  0  0  0  0  0  0  0
    1.6070    0.1630   -0.0420 C   0  0  0  0  0  0  0  0  0  0  0  0
    1.5380    1.4480   -0.7130 C   0  0  0  0  0  0  0  0  0  0  0  0
    0.5180    2.1220   -0.9180 O   0  0  0  0  0  0  0  0  0  0  0  0
    2.8910    1.7630   -1.0850 N   0  0  0  0  0  0  0  0  0  0  0  0
    3.7500    0.7130   -0.6600 C   0  0  0  0  0  0  0  0  0  0  0  0
    5.1130    0.5190   -0.7640 C   0  0  0  0  0  0  0  0  0  0  0  0
    5.7500   -0.6050   -0.2650 C   0  0  0  0  0  0  0  0  0  0  0  0
    5.0200   -1.5850    0.3650 C   0  0  0  0  0  0  0  0  0  0  0  0
    5.6200   -2.7080    0.8680 F   0  0  0  0  0  0  0  0  0  0  0  0
    3.6610   -1.3990    0.4730 C   0  0  0  0  0  0  0  0  0  0  0  0
    3.0220   -0.2710   -0.0280 C   0  0  0  0  0  0  0  0  0  0  0  0
   -1.8270   -0.8600    0.0420 C   0  0  0  0  0  0  0  0  0  0  0  0
   -1.6820   -2.2410   -0.4850 C   0  0  0  0  0  0  0  0  0  0  0  0
   -3.0220   -0.1770    0.1540 C   0  0  0  0  0  0  0  0  0  0  0  0
   -4.3600   -0.6740   -0.2160 C   0  0  0  0  0  0  0  0  0  0  0  0
   -5.4990    0.1340   -0.0390 N   0  0  0  0  0  0  0  0  0  0  0  0
   -4.4910   -1.8360   -0.6970 O   0  0  0  0  0  0  0  0  0  0  0  0
  1  2  1  0
  2  3  1  0
  2 19  2  0
  3  4  1  0
  4  5  1  0
  4 17  2  0
  5  6  2  3
  6  7  1  0
  6 16  1  0
  7  8  2  0
  7  9  1  0
  9 10  1  0
 10 11  2  0
 10 16  1  0
 11 12  1  0
 12 13  2  0
 13 14  1  0
 13 15  1  0
 15 16  2  0
 17 18  1  0
 17 19  1  0
 19 20  1  0
 20 21  1  0
 20 22  2  0
M  END
