
     RDKit          3D

 24 26  0  0  0  0  0  0  0  0999 V2000
   -7.3330    0.2720    0.4790 C   0  0  0  0  0  0  0  0  0  0  0  0
   -5.8620    0.2180    0.3270 C   0  0  0  0  0  0  0  0  0  0  0  0
   -5.0820    1.0580    1.0880 C   0  0  0  0  0  0  0  0  0  0  0  0
   -3.7040    1.0070    0.9420 C   0  0  0  0  0  0  0  0  0  0  0  0
   -3.1570    0.1150    0.0380 C   0  0  0  0  0  0  0  0  0  0  0  0
   -1.6910    0.1160   -0.0700 N   0  0  0  0  0  0  0  0  0  0  0  0
   -1.1270    1.4120   -0.2800 C   0  0  0  0  0  0  0  0  0  0  0  0
   -1.0410   -1.1000    0.0340 C   0  0  0  0  0  0  0  0  0  0  0  0
   -1.8190   -2.1640    0.1990 O   0  0  0  0  0  0  0  0  0  0  0  0
    0.3500   -1.4690   -0.0010 C   0  0  0  0  0  0  0  0  0  0  0  0
    1.3310   -0.6070   -0.1480 C   0  0  0  0  0  0  0  0  0  0  0  0
    2.7130   -1.0880   -0.1720 C   0  0  0  0  0  0  0  0  0  0  0  0
    3.0190   -2.4220   -0.1320 C   0  0  0  0  0  0  0  0  0  0  0  0
    4.3490   -2.8720   -0.1420 C   0  0  0  0  0  0  0  0  0  0  0  0
    5.4080   -2.0100   -0.1920 C   0  0  0  0  0  0  0  0  0  0  0  0
    5.1110   -0.6630   -0.2330 C   0  0  0  0  0  0  0  0  0  0  0  0
    3.8080   -0.2170   -0.2230 C   0  0  0  0  0  0  0  0  0  0  0  0
    3.6110    1.2210   -0.2600 C   0  0  0  0  0  0  0  0  0  0  0  0
    2.4900    1.7860   -0.2560 O   0  0  0  0  0  0  0  0  0  0  0  0
    4.7620    2.0380   -0.3030 O   0  0  0  0  0  0  0  0  0  0  0  0
    6.0420    1.6030    0.0390 C   0  0  0  0  0  0  0  0  0  0  0  0
    6.2450    0.2030   -0.2820 N   0  0  0  0  0  0  0  0  0  0  0  0
   -3.9310   -0.7160   -0.7130 C   0  0  0  0  0  0  0  0  0  0  0  0
   -5.3210   -0.6710   -0.5730 C   0  0  0  0  0  0  0  0  0  0  0  0
  1  2  1  0
  2  3  2  0
  2 24  1  0
  3  4  1  0
  4  5  2  0
  5  6  1  0
  5 23  1  0
  6  7  1  0
  6  8  1  0
  8  9  2  0
  8 10  1  0
 10 11  2  3
 11 12  1  0
 12 13  2  0
 12 17  1  0
 13 14  1  0
 14 15  2  0
 15 16  1  0
 16 17  2  0
 16 22  1  0
 17 18  1  0
 18 19  2  0
 18 20  1  0
 20 21  1  0
 21 22  1  0
 23 24  2  0
M  END
