
     RDKit          3D

 10  9  0  0  0  0  0  0  0  0999 V2000
   -3.2140   -1.4430    0.5380 C   0  0  0  0  0  0  0  0  0  0  0  0
   -2.0010   -0.8810    0.3180 C   0  0  0  0  0  0  0  0  0  0  0  0
   -1.8210    0.5230    0.5510 C   0  0  0  0  0  0  0  0  0  0  0  0
   -0.7340    1.2220    0.3910 C   0  0  0  0  0  0  0  0  0  0  0  0
   -0.8500    2.6580    0.7130 N   0  0  0  0  0  0  0  0  0  0  0  0
    0.5770    0.8460   -0.0510 C   0  0  0  0  0  0  0  0  0  0  0  0
    1.5190    1.7930   -0.1160 C   0  0  0  0  0  0  0  0  0  0  0  0
    0.9870   -0.5100   -0.4480 C   0  0  0  0  0  0  0  0  0  0  0  0
    2.3700   -0.4930   -0.8290 O   0  0  0  0  0  0  0  0  0  0  0  0
    2.7070   -1.8010   -1.1960 C   0  0  0  0  0  0  0  0  0  0  0  0
  1  2  2  0
  2  3  1  0
  3  4  2  3
  4  5  1  0
  4  6  1  0
  6  7  2  0
  6  8  1  0
  8  9  1  0
  9 10  1  0
M  END
