
     RDKit          3D

 10  9  0  0  0  0  0  0  0  0999 V2000
   -1.1290   -0.0450    2.4310 C   0  0  0  0  0  0  0  0  0  0  0  0
   -1.8570   -0.4650    1.4300 C   0  0  0  0  0  0  0  0  0  0  0  0
   -1.2740   -0.6190    0.1200 C   0  0  0  0  0  0  0  0  0  0  0  0
   -2.0240   -1.0460   -0.8840 C   0  0  0  0  0  0  0  0  0  0  0  0
   -3.4470   -1.3580   -0.6450 C   0  0  0  0  0  0  0  0  0  0  0  0
    0.0830   -0.3370   -0.1730 N   0  0  0  0  0  0  0  0  0  0  0  0
    0.4290    1.0020   -0.4920 C   0  0  0  0  0  0  0  0  0  0  0  0
    1.8860    1.2210   -0.7900 C   0  0  0  0  0  0  0  0  0  0  0  0
    2.7180    0.8950    0.2550 O   0  0  0  0  0  0  0  0  0  0  0  0
    4.0290    1.1400   -0.1410 C   0  0  0  0  0  0  0  0  0  0  0  0
  1  2  2  0
  2  3  1  0
  3  4  2  3
  3  6  1  0
  4  5  1  0
  6  7  1  0
  7  8  1  0
  8  9  1  0
  9 10  1  0
M  END
