
     RDKit          3D

 10  9  0  0  0  0  0  0  0  0999 V2000
    1.3980    1.5620   -0.9000 C   0  0  0  0  0  0  0  0  0  0  0  0
    2.2870    0.7040   -0.5520 C   0  0  0  0  0  0  0  0  0  0  0  0
    2.1910   -0.4720    0.2440 C   0  0  0  0  0  0  0  0  0  0  0  0
    3.3490   -1.1690    0.4390 C   0  0  0  0  0  0  0  0  0  0  0  0
    1.0360   -1.0530    0.9070 C   0  0  0  0  0  0  0  0  0  0  0  0
   -0.0390   -1.6500    0.0970 C   0  0  0  0  0  0  0  0  0  0  0  0
   -0.8200   -0.8770   -0.7060 O   0  0  0  0  0  0  0  0  0  0  0  0
   -1.6620   -0.0330    0.0500 C   0  0  0  0  0  0  0  0  0  0  0  0
   -2.5210    0.8220   -0.8230 C   0  0  0  0  0  0  0  0  0  0  0  0
   -3.3920    1.6940   -0.0950 N   0  0  0  0  0  0  0  0  0  0  0  0
  1  2  2  0
  2  3  1  0
  3  4  2  0
  3  5  1  0
  5  6  1  0
  6  7  1  0
  7  8  1  0
  8  9  1  0
  9 10  1  0
M  END
