
     RDKit          3D

 10  9  0  0  0  0  0  0  0  0999 V2000
   -0.8850    1.6470   -2.0000 C   0  0  0  0  0  0  0  0  0  0  0  0
   -1.4750    0.9570   -1.0530 C   0  0  0  0  0  0  0  0  0  0  0  0
   -0.7650    0.0120   -0.2090 C   0  0  0  0  0  0  0  0  0  0  0  0
    0.6140   -0.2240   -0.3550 N   0  0  0  0  0  0  0  0  0  0  0  0
    1.6490    0.6010    0.2280 C   0  0  0  0  0  0  0  0  0  0  0  0
    3.0330    0.0870   -0.1090 C   0  0  0  0  0  0  0  0  0  0  0  0
    3.1770    0.0940   -1.5150 O   0  0  0  0  0  0  0  0  0  0  0  0
   -1.4400   -0.6330    0.7140 C   0  0  0  0  0  0  0  0  0  0  0  0
   -0.7470   -1.6210    1.6110 C   0  0  0  0  0  0  0  0  0  0  0  0
   -2.9010   -0.4160    0.9040 C   0  0  0  0  0  0  0  0  0  0  0  0
  1  2  2  0
  2  3  1  0
  3  4  1  0
  3  8  2  3
  4  5  1  0
  5  6  1  0
  6  7  1  0
  8  9  1  0
  8 10  1  0
M  END
