
     RDKit          3D

 10  9  0  0  0  0  0  0  0  0999 V2000
   -3.2490   -1.0130   -0.1490 C   0  0  0  0  0  0  0  0  0  0  0  0
   -3.1150    0.4600   -0.0640 C   0  0  0  0  0  0  0  0  0  0  0  0
   -1.9610    1.0890   -0.0090 C   0  0  0  0  0  0  0  0  0  0  0  0
   -0.7090    0.3670   -0.0280 C   0  0  0  0  0  0  0  0  0  0  0  0
    0.4870    0.8820    0.0220 C   0  0  0  0  0  0  0  0  0  0  0  0
    0.7410    2.3320    0.1080 C   0  0  0  0  0  0  0  0  0  0  0  0
    1.4960    2.6540   -1.0390 O   0  0  0  0  0  0  0  0  0  0  0  0
    1.6660    0.0440   -0.0050 N   0  0  0  0  0  0  0  0  0  0  0  0
    1.5480   -1.3800    0.2060 C   0  0  0  0  0  0  0  0  0  0  0  0
    2.9110   -2.0000    0.1360 C   0  0  0  0  0  0  0  0  0  0  0  0
  1  2  1  0
  2  3  2  3
  3  4  1  0
  4  5  2  3
  5  6  1  0
  5  8  1  0
  6  7  1  0
  8  9  1  0
  9 10  1  0
M  END
