
     RDKit          3D

 10  9  0  0  0  0  0  0  0  0999 V2000
   -1.6240    2.4480   -0.8700 C   0  0  0  0  0  0  0  0  0  0  0  0
   -2.1590    1.3360   -0.3920 C   0  0  0  0  0  0  0  0  0  0  0  0
   -1.2540    0.2350   -0.0070 C   0  0  0  0  0  0  0  0  0  0  0  0
   -1.7650   -0.8710    0.4670 C   0  0  0  0  0  0  0  0  0  0  0  0
   -3.2060   -1.1020    0.6530 C   0  0  0  0  0  0  0  0  0  0  0  0
    0.2050    0.3620   -0.1210 C   0  0  0  0  0  0  0  0  0  0  0  0
    0.8810   -0.8120    0.3200 N   0  0  0  0  0  0  0  0  0  0  0  0
    2.3080   -0.7200    0.3370 C   0  0  0  0  0  0  0  0  0  0  0  0
    2.9750   -0.5910   -0.9920 C   0  0  0  0  0  0  0  0  0  0  0  0
    4.3720   -0.5160   -0.7730 O   0  0  0  0  0  0  0  0  0  0  0  0
  1  2  2  0
  2  3  1  0
  3  4  2  3
  3  6  1  0
  4  5  1  0
  6  7  1  0
  7  8  1  0
  8  9  1  0
  9 10  1  0
M  END
