
     RDKit          3D

 24 26  0  0  0  0  0  0  0  0999 V2000
    0.2080    2.4730    1.7110 O   0  0  0  0  0  0  0  0  0  0  0  0
    1.0750    1.8930    1.0030 C   0  0  0  0  0  0  0  0  0  0  0  0
    2.2280    2.5760    0.7520 N   0  0  0  0  0  0  0  0  0  0  0  0
    3.2220    2.0550    0.0090 C   0  0  0  0  0  0  0  0  0  0  0  0
    4.4640    2.4660   -0.4150 C   0  0  0  0  0  0  0  0  0  0  0  0
    4.9930    1.5060   -1.1350 O   0  0  0  0  0  0  0  0  0  0  0  0
    4.1790    0.4810   -1.2170 C   0  0  0  0  0  0  0  0  0  0  0  0
    4.4080   -0.7830   -1.9330 C   0  0  0  0  0  0  0  0  0  0  0  0
    5.6330   -0.8230   -2.5620 O   0  0  0  0  0  0  0  0  0  0  0  0
    3.0460    0.7940   -0.5030 C   0  0  0  0  0  0  0  0  0  0  0  0
    1.8780    0.0830   -0.2590 C   0  0  0  0  0  0  0  0  0  0  0  0
    0.8700    0.6240    0.5010 C   0  0  0  0  0  0  0  0  0  0  0  0
   -0.4000   -0.0350    0.8210 C   0  0  0  0  0  0  0  0  0  0  0  0
   -0.5320   -1.3570    0.2570 N   0  0  0  0  0  0  0  0  0  0  0  0
   -1.5960   -2.0570    0.9040 C   0  0  0  0  0  0  0  0  0  0  0  0
   -2.8600   -2.1930    0.1290 C   0  0  0  0  0  0  0  0  0  0  0  0
   -3.5090   -0.9940   -0.2640 N   0  0  0  0  0  0  0  0  0  0  0  0
   -3.2090   -0.4410   -1.4470 C   0  0  0  0  0  0  0  0  0  0  0  0
   -3.8030    0.7090   -1.8830 N   0  0  0  0  0  0  0  0  0  0  0  0
   -4.6980    1.3010   -1.1250 N   0  0  0  0  0  0  0  0  0  0  0  0
   -5.0130    0.7660    0.0620 C   0  0  0  0  0  0  0  0  0  0  0  0
   -5.8810    1.3190    0.8210 O   0  0  0  0  0  0  0  0  0  0  0  0
   -4.4220   -0.3940    0.5110 C   0  0  0  0  0  0  0  0  0  0  0  0
   -4.7490   -0.8740    1.6500 O   0  0  0  0  0  0  0  0  0  0  0  0
  1  2  2  0
  2  3  1  0
  2 12  1  0
  3  4  1  0
  4  5  2  0
  4 10  1  0
  5  6  1  0
  6  7  1  0
  7  8  1  0
  7 10  2  0
  8  9  1  0
 10 11  1  0
 11 12  2  0
 12 13  1  0
 13 14  1  0
 14 15  1  0
 15 16  1  0
 16 17  1  0
 17 18  1  0
 17 23  1  0
 18 19  2  0
 19 20  1  0
 20 21  1  0
 21 22  2  0
 21 23  1  0
 23 24  2  0
M  CHG  1  14   1
M  END
