
     RDKit          3D

 24 25  0  0  0  0  0  0  0  0999 V2000
    3.9450   -2.4220    1.3580 C   0  0  0  0  0  0  0  0  0  0  0  0
    3.9130   -1.6010    0.3230 C   0  0  0  0  0  0  0  0  0  0  0  0
    4.0270   -2.0410   -1.0810 C   0  0  0  0  0  0  0  0  0  0  0  0
    3.7530   -0.1200    0.5570 C   0  0  0  0  0  0  0  0  0  0  0  0
    2.5340    0.2590   -0.1280 N   0  0  0  0  0  0  0  0  0  0  0  0
    1.2690   -0.3110    0.2030 C   0  0  0  0  0  0  0  0  0  0  0  0
    1.2770   -1.1670    1.1300 O   0  0  0  0  0  0  0  0  0  0  0  0
    0.0160    0.0770   -0.4990 C   0  0  1  0  0  0  0  0  0  0  0  0
    0.0960   -0.3510   -1.9590 C   0  0  0  0  0  0  0  0  0  0  0  0
   -1.0400   -0.6730    0.0720 O   0  0  0  0  0  0  0  0  0  0  0  0
   -2.3600   -0.5820   -0.3180 C   0  0  0  0  0  0  0  0  0  0  0  0
   -2.6000    0.2390   -1.2530 O   0  0  0  0  0  0  0  0  0  0  0  0
   -3.4260   -1.3680    0.2900 C   0  0  0  0  0  0  0  0  0  0  0  0
   -3.3700   -2.2920    1.2950 C   0  0  0  0  0  0  0  0  0  0  0  0
   -4.5910   -2.7890    1.5580 N   0  0  0  0  0  0  0  0  0  0  0  0
   -5.4310   -2.1660    0.7020 C   0  0  0  0  0  0  0  0  0  0  0  0
   -4.7170   -1.2980   -0.0730 N   0  0  0  0  0  0  0  0  0  0  0  0
   -0.2290    1.5360   -0.4070 C   0  0  0  0  0  0  0  0  0  0  0  0
   -0.1100    2.2860    0.7030 N   0  0  0  0  0  0  0  0  0  0  0  0
   -0.4020    3.5470    0.4330 N   0  0  0  0  0  0  0  0  0  0  0  0
   -0.4050    4.6950    1.3300 C   0  0  0  0  0  0  0  0  0  0  0  0
   -0.7180    3.6380   -0.8690 C   0  0  0  0  0  0  0  0  0  0  0  0
   -1.0540    4.6570   -1.5210 O   0  0  0  0  0  0  0  0  0  0  0  0
   -0.6070    2.3940   -1.3710 N   0  0  0  0  0  0  0  0  0  0  0  0
  1  2  2  0
  2  3  1  0
  2  4  1  0
  4  5  1  0
  5  6  1  0
  6  7  2  0
  6  8  1  0
  8  9  1  6
  8 10  1  0
  8 18  1  0
 10 11  1  0
 11 12  2  0
 11 13  1  0
 13 14  2  0
 13 17  1  0
 14 15  1  0
 15 16  2  0
 16 17  1  0
 18 19  2  0
 18 24  1  0
 19 20  1  0
 20 21  1  0
 20 22  1  0
 22 23  2  0
 22 24  1  0
M  CHG  1  15   1
M  END
