
     RDKit          3D

 24 26  0  0  0  0  0  0  0  0999 V2000
   -5.6100    0.9450    0.4900 C   0  0  0  0  0  0  0  0  0  0  0  0
   -5.9750   -0.3770    0.8110 N   0  0  0  0  0  0  0  0  0  0  0  0
   -4.9260   -1.2570    1.1430 C   0  0  0  0  0  0  0  0  0  0  0  0
   -4.0340   -1.6670    0.0250 C   0  0  2  0  0  0  0  0  0  0  0  0
   -3.1560   -2.6640    0.6370 O   0  0  0  0  0  0  0  0  0  0  0  0
   -3.1060   -0.6020   -0.5010 C   0  0  0  0  0  0  0  0  0  0  0  0
   -2.1120   -0.0920    0.4980 C   0  0  1  0  0  0  0  0  0  0  0  0
   -1.2880   -1.1420    0.9410 O   0  0  0  0  0  0  0  0  0  0  0  0
   -1.3140    1.0010   -0.0970 C   0  0  0  0  0  0  0  0  0  0  0  0
   -1.9270    2.0360   -0.4430 O   0  0  0  0  0  0  0  0  0  0  0  0
    0.0880    0.9330   -0.2920 N   0  0  0  0  0  0  0  0  0  0  0  0
    1.0620    1.8600   -0.8240 C   0  0  0  0  0  0  0  0  0  0  0  0
    2.1140    1.1580   -0.0010 C   0  0  2  0  0  0  0  0  0  0  0  0
    3.4000    0.9930   -0.7210 C   0  0  0  0  0  0  0  0  0  0  0  0
    3.7430    1.5050   -1.9210 N   0  0  0  0  0  0  0  0  0  0  0  0
    4.9850    1.1240   -2.2120 N   0  0  0  0  0  0  0  0  0  0  0  0
    5.4790    0.3570   -1.2120 C   0  0  0  0  0  0  0  0  0  0  0  0
    6.6530   -0.2650   -1.0230 N   0  0  0  0  0  0  0  0  0  0  0  0
    6.9030   -0.9920    0.0870 C   0  0  0  0  0  0  0  0  0  0  0  0
    5.9320   -1.0810    1.0180 N   0  0  0  0  0  0  0  0  0  0  0  0
    4.7480   -0.4760    0.8670 C   0  0  0  0  0  0  0  0  0  0  0  0
    3.8210   -0.5550    1.7440 O   0  0  0  0  0  0  0  0  0  0  0  0
    4.4670    0.2780   -0.2690 C   0  0  0  0  0  0  0  0  0  0  0  0
    1.1700   -0.0080   -0.1010 C   0  0  0  0  0  0  0  0  0  0  0  0
  1  2  1  0
  2  3  1  0
  3  4  1  0
  4  5  1  1
  4  6  1  0
  6  7  1  0
  7  8  1  6
  7  9  1  0
  9 10  2  0
  9 11  1  0
 11 12  1  0
 11 24  1  0
 12 13  1  0
 13 14  1  6
 13 24  1  0
 14 15  2  0
 14 23  1  0
 15 16  1  0
 16 17  1  0
 17 18  1  0
 17 23  2  0
 18 19  2  0
 19 20  1  0
 20 21  1  0
 21 22  2  0
 21 23  1  0
M  CHG  1  15   1
M  END
