
     RDKit          3D

 24 26  0  0  0  0  0  0  0  0999 V2000
   -2.5900   -1.8830    1.9430 C   0  0  0  0  0  0  0  0  0  0  0  0
   -2.9730   -0.8290    0.9960 C   0  0  0  0  0  0  0  0  0  0  0  0
   -2.0320    0.0890    0.5910 C   0  0  0  0  0  0  0  0  0  0  0  0
   -0.7190   -0.0060    1.0990 N   0  0  0  0  0  0  0  0  0  0  0  0
    0.3470    0.1890    0.3890 C   0  0  0  0  0  0  0  0  0  0  0  0
    0.2680    0.5160   -0.9620 O   0  0  0  0  0  0  0  0  0  0  0  0
    1.5610    0.2130   -1.4950 C   0  0  1  0  0  0  0  0  0  0  0  0
    1.7870    0.9840   -2.7770 C   0  0  1  0  0  0  0  0  0  0  0  0
    0.8210    0.6330   -3.6990 F   0  0  0  0  0  0  0  0  0  0  0  0
    1.7540    2.3340   -2.5810 F   0  0  0  0  0  0  0  0  0  0  0  0
    3.0030    0.5630   -3.2990 F   0  0  0  0  0  0  0  0  0  0  0  0
    2.4560    0.6680   -0.3850 C   0  0  2  0  0  0  0  0  0  0  0  0
    3.7940   -0.0210   -0.3320 C   0  0  1  0  0  0  0  0  0  0  0  0
    4.7680    1.0020   -0.3870 O   0  0  0  0  0  0  0  0  0  0  0  0
    3.8440   -0.6680    1.0110 C   0  0  0  0  0  0  0  0  0  0  0  0
    2.6180   -0.2460    1.7930 C   0  0  0  0  0  0  0  0  0  0  0  0
    1.7080    0.1270    0.7650 N   0  0  0  0  0  0  0  0  0  0  0  0
   -2.4360    1.0560   -0.2950 C   0  0  0  0  0  0  0  0  0  0  0  0
   -3.7490    1.1060   -0.7670 C   0  0  0  0  0  0  0  0  0  0  0  0
   -4.6680    0.1880   -0.3550 C   0  0  0  0  0  0  0  0  0  0  0  0
   -6.0330    0.1980   -0.8130 C   0  0  0  0  0  0  0  0  0  0  0  0
   -7.1300    0.2230   -1.1700 N   0  0  0  0  0  0  0  0  0  0  0  0
   -4.2810   -0.7920    0.5360 C   0  0  0  0  0  0  0  0  0  0  0  0
   -5.4660   -1.9710    1.0630 Cl  0  0  0  0  0  0  0  0  0  0  0  0
  1  2  1  0
  2  3  2  0
  2 23  1  0
  3  4  1  0
  3 18  1  0
  4  5  2  3
  5  6  1  0
  5 17  1  0
  7  6  1  1
  7  8  1  0
  7 12  1  0
  8  9  1  6
  8 10  1  0
  8 11  1  0
 12 13  1  0
 12 17  1  1
 13 14  1  1
 13 15  1  0
 15 16  1  0
 16 17  1  0
 18 19  2  0
 19 20  1  0
 20 21  1  0
 20 23  2  0
 21 22  3  0
 23 24  1  0
M  END
