
     RDKit          3D

 24 25  0  0  0  0  0  0  0  0999 V2000
    2.8810   -2.5720   -1.5960 C   0  0  0  0  0  0  0  0  0  0  0  0
    3.6310   -1.5560   -1.8720 C   0  0  0  0  0  0  0  0  0  0  0  0
    3.5900   -0.2200   -1.2250 C   0  0  0  0  0  0  0  0  0  0  0  0
    4.4640    0.6320   -1.6790 C   0  0  0  0  0  0  0  0  0  0  0  0
    4.7520    2.0150   -1.3410 C   0  0  0  0  0  0  0  0  0  0  0  0
    2.6920   -0.0760   -0.1410 N   0  0  0  0  0  0  0  0  0  0  0  0
    1.4780   -0.6810   -0.0880 N   0  0  0  0  0  0  0  0  0  0  0  0
    0.8750   -0.4300    1.0650 C   0  0  0  0  0  0  0  0  0  0  0  0
   -0.4860   -0.9110    1.5240 C   0  0  1  0  0  0  0  0  0  0  0  0
   -1.1540    0.2110    2.1020 N   0  0  0  0  0  0  0  0  0  0  0  0
   -2.2840    0.5960    1.7220 C   0  0  0  0  0  0  0  0  0  0  0  0
   -3.0260   -0.1010    0.6220 C   0  0  0  0  0  0  0  0  0  0  0  0
   -4.3170    0.4160    0.2580 C   0  0  0  0  0  0  0  0  0  0  0  0
   -5.0960    0.0280   -0.5890 O   0  0  0  0  0  0  0  0  0  0  0  0
   -4.7870    1.5460    0.9700 O   0  0  0  0  0  0  0  0  0  0  0  0
   -6.0500    2.1080    0.6630 C   0  0  0  0  0  0  0  0  0  0  0  0
   -2.4730   -1.1350    0.0500 C   0  0  0  0  0  0  0  0  0  0  0  0
   -3.0210   -1.9310   -1.0140 C   0  0  0  0  0  0  0  0  0  0  0  0
   -4.2120   -1.8530   -1.7070 N   0  0  0  0  0  0  0  0  0  0  0  0
   -2.2590   -2.9380   -1.4280 O   0  0  0  0  0  0  0  0  0  0  0  0
   -1.1840   -1.5260    0.5260 O   0  0  0  0  0  0  0  0  0  0  0  0
    1.7270    0.3430    1.7410 N   0  0  0  0  0  0  0  0  0  0  0  0
    2.8670    0.5700    1.0020 C   0  0  0  0  0  0  0  0  0  0  0  0
    3.8590    1.2040    1.5250 N   0  0  0  0  0  0  0  0  0  0  0  0
  1  2  2  0
  2  3  1  0
  3  4  2  3
  3  6  1  0
  4  5  1  0
  6  7  1  0
  6 23  1  0
  7  8  2  0
  9  8  1  6
  8 22  1  0
  9 10  1  0
  9 21  1  0
 10 11  2  0
 11 12  1  0
 12 13  1  0
 12 17  2  0
 13 14  2  0
 13 15  1  0
 15 16  1  0
 17 18  1  0
 17 21  1  0
 18 19  1  0
 18 20  2  0
 22 23  1  0
 23 24  2  0
M  CHG  1  24   1
M  END
