
     RDKit          3D

 16 15  0  0  0  0  0  0  0  0999 V2000
   -2.6140    0.1700   -0.5430 N   0  0  0  0  0  0  0  0  0  0  0  0
   -1.5450   -0.5210    0.0470 C   0  0  0  0  0  0  0  0  0  0  0  0
   -1.6840   -1.6770    0.6390 C   0  0  0  0  0  0  0  0  0  0  0  0
   -2.9550   -2.3740    0.7530 C   0  0  0  0  0  0  0  0  0  0  0  0
   -3.0650   -3.4860    1.3220 O   0  0  0  0  0  0  0  0  0  0  0  0
   -4.0740   -1.7830    0.2060 O   0  0  0  0  0  0  0  0  0  0  0  0
   -0.2170    0.0460    0.0260 N   0  0  0  0  0  0  0  0  0  0  0  0
    0.1000    1.2980    0.6490 C   0  0  0  0  0  0  0  0  0  0  0  0
    0.0530    2.5040   -0.2170 C   0  0  0  0  0  0  0  0  0  0  0  0
   -1.1830    2.7570   -0.7920 O   0  0  0  0  0  0  0  0  0  0  0  0
    0.8000   -0.6920   -0.5940 C   0  0  0  0  0  0  0  0  0  0  0  0
    0.4900   -1.8520   -1.0540 O   0  0  0  0  0  0  0  0  0  0  0  0
    2.1970   -0.2880   -0.7840 C   0  0  0  0  0  0  0  0  0  0  0  0
    3.2130   -0.2810    0.7660 P   0  0  0  0  0  0  0  0  0  0  0  0
    4.1310    1.1960    0.9440 O   0  0  0  0  0  0  0  0  0  0  0  0
    4.2580   -1.6350    0.8410 O   0  0  0  0  0  0  0  0  0  0  0  0
  1  2  1  0
  2  3  2  3
  2  7  1  0
  3  4  1  0
  4  5  2  0
  4  6  1  0
  7  8  1  0
  7 11  1  0
  8  9  1  0
  9 10  1  0
 11 12  2  0
 11 13  1  0
 13 14  1  0
 14 15  1  0
 14 16  1  0
M  END
