
     RDKit          3D

 16 15  0  0  0  0  0  0  0  0999 V2000
   -3.5730   -1.2030   -0.7790 C   0  0  0  0  0  0  0  0  0  0  0  0
   -2.5980   -0.1470   -0.6300 N   0  0  0  0  0  0  0  0  0  0  0  0
   -2.9010    1.1620   -1.1690 C   0  0  0  0  0  0  0  0  0  0  0  0
   -1.3650   -0.4440    0.0490 C   0  0  0  0  0  0  0  0  0  0  0  0
   -0.2260    0.0830   -0.3470 C   0  0  0  0  0  0  0  0  0  0  0  0
    1.0130   -0.2220    0.3430 C   0  0  0  0  0  0  0  0  0  0  0  0
    2.1800    0.2860   -0.0220 C   0  0  0  0  0  0  0  0  0  0  0  0
    3.6850   -0.1490    0.9010 P   0  0  0  0  0  0  0  0  0  0  0  0
    4.1460   -1.7830    0.5940 O   0  0  0  0  0  0  0  0  0  0  0  0
    4.9910    0.9140    0.5710 O   0  0  0  0  0  0  0  0  0  0  0  0
    2.2890    1.4170   -1.4390 P   0  0  0  0  0  0  0  0  0  0  0  0
    2.9910    2.9320   -0.9910 O   0  0  0  0  0  0  0  0  0  0  0  0
    3.1680    0.7340   -2.7610 O   0  0  0  0  0  0  0  0  0  0  0  0
   -1.3430   -1.3200    1.1740 N   0  0  0  0  0  0  0  0  0  0  0  0
   -2.1000   -1.0040    2.3350 C   0  0  0  0  0  0  0  0  0  0  0  0
   -2.7660    0.0630    2.3070 O   0  0  0  0  0  0  0  0  0  0  0  0
  1  2  1  0
  2  3  1  0
  2  4  1  0
  4  5  2  3
  4 14  1  0
  5  6  1  0
  6  7  2  3
  7  8  1  0
  7 11  1  0
  8  9  1  0
  8 10  1  0
 11 12  1  0
 11 13  1  0
 14 15  1  0
 15 16  2  0
M  END
