
     RDKit          3D

 17 17  0  0  0  0  0  0  0  0999 V2000
   -3.3470    1.2980    1.0880 C   0  0  0  0  0  0  0  0  0  0  0  0
   -2.9070    0.7660   -0.2220 C   0  0  0  0  0  0  0  0  0  0  0  0
   -1.5660    0.2500   -0.2350 N   0  0  0  0  0  0  0  0  0  0  0  0
   -0.3440    0.9140   -0.5180 C   0  0  0  0  0  0  0  0  0  0  0  0
   -0.1950    2.1050   -0.8180 O   0  0  0  0  0  0  0  0  0  0  0  0
    0.7160   -0.0860   -0.3860 C   0  0  0  0  0  0  0  0  0  0  0  0
    2.0180    0.1000   -0.5620 C   0  0  0  0  0  0  0  0  0  0  0  0
    2.7420    1.6970   -1.0180 P   0  0  0  0  0  0  0  0  0  0  0  0
    2.8580    2.7790    0.3230 O   0  0  0  0  0  0  0  0  0  0  0  0
    4.2470    1.4450   -1.8010 O   0  0  0  0  0  0  0  0  0  0  0  0
    3.1220   -1.3340   -0.3310 P   0  0  0  0  0  0  0  0  0  0  0  0
    3.0450   -1.7730    1.3590 O   0  0  0  0  0  0  0  0  0  0  0  0
    4.7360   -0.9930   -0.8190 O   0  0  0  0  0  0  0  0  0  0  0  0
    0.0220   -1.3190   -0.0200 C   0  0  0  0  0  0  0  0  0  0  0  0
   -1.2840   -1.1290    0.0660 C   0  0  0  0  0  0  0  0  0  0  0  0
   -2.1930   -2.1290    0.3980 O   0  0  0  0  0  0  0  0  0  0  0  0
   -3.2740   -2.4090   -0.4190 N   0  0  0  0  0  0  0  0  0  0  0  0
  1  2  1  0
  2  3  1  0
  3  4  1  0
  3 15  1  0
  4  5  2  0
  4  6  1  0
  6  7  2  3
  6 14  1  0
  7  8  1  0
  7 11  1  0
  8  9  1  0
  8 10  1  0
 11 12  1  0
 11 13  1  0
 14 15  2  0
 15 16  1  0
 16 17  1  0
M  END
