
     RDKit          3D

 24 25  0  0  0  0  0  0  0  0999 V2000
   -5.8090   -2.3200    0.3290 C   0  0  0  0  0  0  0  0  0  0  0  0
   -4.4680   -2.3680    0.6770 O   0  0  0  0  0  0  0  0  0  0  0  0
   -3.7080   -1.6190   -0.2490 C   0  0  0  0  0  0  0  0  0  0  0  0
   -2.2440   -1.6840    0.1500 C   0  0  0  0  0  0  0  0  0  0  0  0
   -1.4920   -0.9090   -0.8170 N   0  0  0  0  0  0  0  0  0  0  0  0
   -0.9800   -1.5170   -1.9760 C   0  0  0  0  0  0  0  0  0  0  0  0
   -1.1750   -2.7330   -2.1740 O   0  0  0  0  0  0  0  0  0  0  0  0
   -1.3030    0.4740   -0.5370 C   0  0  0  0  0  0  0  0  0  0  0  0
   -0.5890    1.2320   -1.4460 O   0  0  0  0  0  0  0  0  0  0  0  0
    0.6550    1.6600   -1.0510 O   0  0  0  0  0  0  0  0  0  0  0  0
    1.6130    0.7400   -0.6360 C   0  0  0  0  0  0  0  0  0  0  0  0
    1.3350   -0.3180    0.0530 N   0  0  0  0  0  0  0  0  0  0  0  0
    2.5430   -1.0560    0.3180 C   0  0  0  0  0  0  0  0  0  0  0  0
    2.6570   -2.0270    1.0960 O   0  0  0  0  0  0  0  0  0  0  0  0
    3.5740   -0.4200   -0.5150 C   0  0  2  0  0  0  0  0  0  0  0  0
    4.8130   -0.1580    0.3170 C   0  0  0  0  0  0  0  0  0  0  0  0
    5.1330   -0.3730    1.5610 C   0  0  0  0  0  0  0  0  0  0  0  0
    6.4640    0.1980    1.3990 C   0  0  0  0  0  0  0  0  0  0  0  0
    6.0670    0.4080    0.0590 N   0  0  0  0  0  0  0  0  0  0  0  0
    2.9740    0.8200   -0.8940 O   0  0  0  0  0  0  0  0  0  0  0  0
   -1.9010    1.1960    0.8220 P   0  0  0  0  0  0  0  0  0  0  0  0
   -1.6120    3.0030    1.1140 C   0  0  1  0  0  0  0  0  0  0  0  0
   -1.8570    3.8400   -0.1020 C   0  0  0  0  0  0  0  0  0  0  0  0
   -2.3760    3.4110    2.1830 F   0  0  0  0  0  0  0  0  0  0  0  0
  1  2  1  0
  2  3  1  0
  3  4  1  0
  4  5  1  0
  5  6  1  0
  5  8  1  0
  6  7  2  0
  8  9  1  0
  8 21  2  3
  9 10  1  0
 10 11  1  0
 11 12  2  0
 11 20  1  0
 12 13  1  0
 13 14  2  0
 13 15  1  0
 15 16  1  1
 15 20  1  0
 16 17  2  0
 16 19  1  0
 17 18  1  0
 18 19  1  0
 21 22  1  0
 22 23  1  6
 22 24  1  0
M  END
