
     RDKit          3D

 17 17  0  0  0  0  0  0  0  0999 V2000
   -2.9890   -1.1540    2.3320 O   0  0  0  0  0  0  0  0  0  0  0  0
   -2.5010   -0.3930    1.4840 C   0  0  0  0  0  0  0  0  0  0  0  0
   -1.0650   -0.3750    1.2120 C   0  0  0  0  0  0  0  0  0  0  0  0
   -0.6930   -0.1750   -0.1480 N   0  0  0  0  0  0  0  0  0  0  0  0
    0.3890    0.7580   -0.3310 C   0  0  0  0  0  0  0  0  0  0  0  0
    1.6690    0.2020    0.2080 C   0  0  0  0  0  0  0  0  0  0  0  0
    2.0350   -0.9880   -0.4200 O   0  0  0  0  0  0  0  0  0  0  0  0
    3.5260   -1.5620    0.2690 P   0  0  0  0  0  0  0  0  0  0  0  0
    3.6920   -0.9460    1.8850 O   0  0  0  0  0  0  0  0  0  0  0  0
    5.2270   -0.8970   -0.9380 P   0  0  0  0  0  0  0  0  0  0  0  0
    5.8700    0.5910   -0.2790 O   0  0  0  0  0  0  0  0  0  0  0  0
    6.4870   -2.1050   -0.8890 O   0  0  0  0  0  0  0  0  0  0  0  0
   -1.7750    0.0230   -1.0660 C   0  0  0  0  0  0  0  0  0  0  0  0
   -2.8720    0.9180   -0.5480 C   0  0  1  0  0  0  0  0  0  0  0  0
   -4.0370    0.7940   -1.5270 C   0  0  0  0  0  0  0  0  0  0  0  0
   -4.4760   -0.5270   -1.5900 O   0  0  0  0  0  0  0  0  0  0  0  0
   -3.3460    0.4910    0.7480 N   0  0  0  0  0  0  0  0  0  0  0  0
  1  2  2  0
  2  3  1  0
  2 17  1  0
  3  4  1  0
  4  5  1  0
  4 13  1  0
  5  6  1  0
  6  7  1  0
  7  8  1  0
  8  9  1  0
  8 10  1  0
 10 11  1  0
 10 12  1  0
 13 14  1  0
 14 15  1  6
 14 17  1  0
 15 16  1  0
M  END
