
     RDKit          3D

 16 16  0  0  0  0  0  0  0  0999 V2000
    2.5270   -1.1490   -0.8360 C   0  0  0  0  0  0  0  0  0  0  0  0
    1.2940   -0.3260   -0.4270 C   0  0  2  0  0  0  0  0  0  0  0  0
    0.1710   -1.3100   -0.3940 C   0  0  0  0  0  0  0  0  0  0  0  0
   -1.1060   -0.7890   -0.0350 N   0  0  0  0  0  0  0  0  0  0  0  0
   -1.6350   -0.7020    1.3070 C   0  0  0  0  0  0  0  0  0  0  0  0
   -2.5360    0.5170    1.3900 C   0  0  0  0  0  0  0  0  0  0  0  0
   -3.6750    0.3740    0.4820 N   0  0  0  0  0  0  0  0  0  0  0  0
   -3.1670    0.4880   -0.8530 C   0  0  0  0  0  0  0  0  0  0  0  0
   -1.9380   -0.3110   -1.0880 C   0  0  0  0  0  0  0  0  0  0  0  0
   -1.6450   -0.5630   -2.3060 O   0  0  0  0  0  0  0  0  0  0  0  0
    1.0920    1.0040   -1.6770 P   0  0  0  0  0  0  0  0  0  0  0  0
    2.5520    1.2880   -2.5790 O   0  0  0  0  0  0  0  0  0  0  0  0
    0.7130    2.5390   -0.9200 O   0  0  0  0  0  0  0  0  0  0  0  0
    1.6670    0.4280    1.2050 P   0  0  0  0  0  0  0  0  0  0  0  0
    3.0520    1.4610    1.0450 O   0  0  0  0  0  0  0  0  0  0  0  0
    2.0260   -0.7830    2.3810 O   0  0  0  0  0  0  0  0  0  0  0  0
  2  1  1  6
  2  3  1  0
  2 11  1  0
  2 14  1  0
  3  4  1  0
  4  5  1  0
  4  9  1  0
  5  6  1  0
  6  7  1  0
  7  8  1  0
  8  9  1  0
  9 10  2  0
 11 12  1  0
 11 13  1  0
 14 15  1  0
 14 16  1  0
M  END
