
     RDKit          3D

 24 25  0  0  0  0  0  0  0  0999 V2000
    4.1870   -2.4000    0.0490 C   0  0  0  0  0  0  0  0  0  0  0  0
    3.0110   -1.8720    0.2440 C   0  0  0  0  0  0  0  0  0  0  0  0
    1.8900   -1.2400    0.0760 C   0  0  0  0  0  0  0  0  0  0  0  0
    1.8090    0.1480   -0.2900 C   0  0  0  0  0  0  0  0  0  0  0  0
    3.0270    0.8950   -0.4710 C   0  0  0  0  0  0  0  0  0  0  0  0
    4.1240    0.3140   -0.3060 O   0  0  0  0  0  0  0  0  0  0  0  0
    3.0910    2.2320   -0.8200 O   0  0  0  0  0  0  0  0  0  0  0  0
    4.3670    2.8730   -0.9700 C   0  0  0  0  0  0  0  0  0  0  0  0
    0.6000    0.7080   -0.4440 C   0  0  0  0  0  0  0  0  0  0  0  0
   -0.4930   -0.1670   -0.2180 N   0  0  0  0  0  0  0  0  0  0  0  0
   -1.8010    0.4600   -0.0690 C   0  0  1  0  0  0  0  0  0  0  0  0
   -1.7530    1.4180    1.0720 C   0  0  0  0  0  0  0  0  0  0  0  0
   -2.9820    2.0520    1.4180 N   0  0  0  0  0  0  0  0  0  0  0  0
   -3.9510    1.1630    1.9910 C   0  0  0  0  0  0  0  0  0  0  0  0
   -2.6910    3.0450    2.3100 F   0  0  0  0  0  0  0  0  0  0  0  0
   -2.2130    1.0030   -1.2920 O   0  0  0  0  0  0  0  0  0  0  0  0
   -3.2050    0.1570   -1.7240 C   0  0  1  0  0  0  0  0  0  0  0  0
   -2.7810   -0.6720   -2.9000 C   0  0  0  0  0  0  0  0  0  0  0  0
   -3.1890   -0.7530   -0.0990 P   0  0  0  0  0  0  0  0  0  0  0  0
   -0.4370   -1.5020   -0.1330 O   0  0  0  0  0  0  0  0  0  0  0  0
    0.7540   -1.9940    0.2710 N   0  0  0  0  0  0  0  0  0  0  0  0
    0.7350   -3.2410    0.8640 O   0  0  0  0  0  0  0  0  0  0  0  0
    1.2030   -3.3490    2.1830 C   0  0  0  0  0  0  0  0  0  0  0  0
    1.6210   -2.3560    2.8050 O   0  0  0  0  0  0  0  0  0  0  0  0
  1  2  2  0
  2  3  2  0
  3  4  1  0
  3 21  1  0
  4  5  1  0
  4  9  2  0
  5  6  2  0
  5  7  1  0
  7  8  1  0
  9 10  1  0
 10 11  1  0
 10 20  1  0
 11 12  1  1
 11 16  1  0
 11 19  1  0
 12 13  1  0
 13 14  1  0
 13 15  1  0
 16 17  1  0
 17 18  1  6
 17 19  1  0
 20 21  1  0
 21 22  1  0
 22 23  1  0
 23 24  2  0
M  END
