
     RDKit          3D

 24 26  0  0  0  0  0  0  0  0999 V2000
    5.5960   -1.4930    1.0190 C   0  0  0  0  0  0  0  0  0  0  0  0
    5.0680   -0.1010    1.3370 C   0  0  0  0  0  0  0  0  0  0  0  0
    3.6260   -0.0250    1.1550 N   0  0  0  0  0  0  0  0  0  0  0  0
    2.7270   -0.3020    2.1820 N   0  0  0  0  0  0  0  0  0  0  0  0
    1.4690   -0.2340    2.0180 C   0  0  0  0  0  0  0  0  0  0  0  0
    0.7500    0.1290    0.7870 C   0  0  2  0  0  0  0  0  0  0  0  0
   -0.8250    1.0350    1.0210 P   0  0  0  0  0  0  0  0  0  0  0  0
   -2.0960    0.5840   -0.1230 N   0  0  0  0  0  0  0  0  0  0  0  0
   -2.4790    1.4990   -1.1650 C   0  0  0  0  0  0  0  0  0  0  0  0
   -3.4670    0.9530   -1.9230 F   0  0  0  0  0  0  0  0  0  0  0  0
   -2.7500   -0.6650   -0.0350 C   0  0  0  0  0  0  0  0  0  0  0  0
   -3.9760   -1.1470   -0.1630 C   0  0  0  0  0  0  0  0  0  0  0  0
   -5.1970   -0.5590   -0.4580 O   0  0  0  0  0  0  0  0  0  0  0  0
   -5.8180    0.2410    0.5300 C   0  0  0  0  0  0  0  0  0  0  0  0
   -3.5590   -2.5270    0.1230 C   0  0  0  0  0  0  0  0  0  0  0  0
   -2.2930   -1.9550    0.2440 O   0  0  0  0  0  0  0  0  0  0  0  0
    0.8350   -0.9170   -0.3170 C   0  0  0  0  0  0  0  0  0  0  0  0
    1.6280    0.3830   -0.3760 C   0  0  1  0  0  0  0  0  0  0  0  0
    1.2110    1.3030   -1.4400 C   0  0  0  0  0  0  0  0  0  0  0  0
    1.1000    0.8720   -2.6140 O   0  0  0  0  0  0  0  0  0  0  0  0
    0.9510    2.6280   -1.1200 O   0  0  0  0  0  0  0  0  0  0  0  0
    0.5730    3.5050   -2.0360 O   0  0  0  0  0  0  0  0  0  0  0  0
    3.0690    0.3430   -0.1060 C   0  0  0  0  0  0  0  0  0  0  0  0
    3.8700    0.6440   -1.0180 O   0  0  0  0  0  0  0  0  0  0  0  0
  1  2  1  0
  2  3  1  0
  3  4  1  0
  3 23  1  0
  4  5  2  0
  5  6  1  0
  6  7  1  1
  6 17  1  0
  6 18  1  0
  7  8  1  0
  8  9  1  0
  8 11  1  0
  9 10  1  0
 11 12  2  0
 11 16  1  0
 12 13  1  0
 12 15  1  0
 13 14  1  0
 15 16  1  0
 17 18  1  0
 18 19  1  6
 18 23  1  0
 19 20  2  0
 19 21  1  0
 21 22  1  0
 23 24  2  0
M  END
