
     RDKit          3D

 17 17  0  0  0  0  0  0  0  0999 V2000
   -3.5540    1.7890    0.8330 N   0  0  0  0  0  0  0  0  0  0  0  0
   -2.1930    1.5800    0.4630 C   0  0  0  0  0  0  0  0  0  0  0  0
   -1.8410    0.1490    0.1680 C   0  0  1  0  0  0  0  0  0  0  0  0
   -0.4760   -0.0370   -0.2020 N   0  0  0  0  0  0  0  0  0  0  0  0
    0.4680    0.3190    0.8050 C   0  0  0  0  0  0  0  0  0  0  0  0
    1.9080    0.0920    0.3410 C   0  0  0  0  0  0  0  0  0  0  0  0
    2.1800    1.1460   -1.1540 P   0  0  0  0  0  0  0  0  0  0  0  0
    1.9740    0.2830   -2.6340 O   0  0  0  0  0  0  0  0  0  0  0  0
    3.6700    2.0080   -1.0930 O   0  0  0  0  0  0  0  0  0  0  0  0
    4.9970    1.0170   -0.6200 P   0  0  0  0  0  0  0  0  0  0  0  0
    4.8970   -0.5830   -1.2120 O   0  0  0  0  0  0  0  0  0  0  0  0
    5.3360    1.1110    1.0610 O   0  0  0  0  0  0  0  0  0  0  0  0
   -2.2630   -0.8270    1.2230 C   0  0  0  0  0  0  0  0  0  0  0  0
   -2.6420   -2.0140    0.5120 O   0  0  0  0  0  0  0  0  0  0  0  0
   -2.6130   -1.7900   -0.8510 C   0  0  0  0  0  0  0  0  0  0  0  0
   -2.4990   -2.6270   -1.7970 O   0  0  0  0  0  0  0  0  0  0  0  0
   -2.7490   -0.2970   -0.9910 C   0  0  0  0  0  0  0  0  0  0  0  0
  1  2  1  0
  3  2  1  1
  3  4  1  0
  3 13  1  0
  3 17  1  0
  4  5  1  0
  5  6  1  0
  6  7  1  0
  7  8  1  0
  7  9  1  0
  9 10  1  0
 10 11  1  0
 10 12  1  0
 13 14  1  0
 14 15  1  0
 15 16  2  0
 15 17  1  0
M  END
