
     RDKit          3D

 22 23  0  0  0  0  0  0  0  0999 V2000
   -3.8080   -3.9600   -0.8840 C   0  0  0  0  0  0  0  0  0  0  0  0
   -3.3840   -2.8230   -0.1440 O   0  0  0  0  0  0  0  0  0  0  0  0
   -2.0700   -2.3530   -0.2170 C   0  0  0  0  0  0  0  0  0  0  0  0
   -1.2370   -2.9520   -0.9580 O   0  0  0  0  0  0  0  0  0  0  0  0
   -1.6330   -1.2280    0.5100 N   0  0  0  0  0  0  0  0  0  0  0  0
   -0.2820   -0.6920    0.4760 C   0  0  2  0  0  0  0  0  0  0  0  0
    0.3740   -0.7180    1.8150 C   0  0  0  0  0  0  0  0  0  0  0  0
    1.6560   -0.2030    1.7340 O   0  0  0  0  0  0  0  0  0  0  0  0
    2.5120   -0.8760    0.9040 C   0  0  0  0  0  0  0  0  0  0  0  0
    3.8510   -0.1400    0.9770 C   0  0  0  0  0  0  0  0  0  0  0  0
    3.7290    1.1670    0.5710 O   0  0  0  0  0  0  0  0  0  0  0  0
   -0.2810    0.6940   -0.0340 C   0  0  0  0  0  0  0  0  0  0  0  0
    0.5800    1.1710   -0.9470 N   0  0  0  0  0  0  0  0  0  0  0  0
    0.2470    2.4500   -1.1320 C   0  0  0  0  0  0  0  0  0  0  0  0
    0.7590    3.4440   -1.9370 C   0  0  0  0  0  0  0  0  0  0  0  0
    1.7320    3.2670   -2.7050 O   0  0  0  0  0  0  0  0  0  0  0  0
    0.2130    4.6510   -1.9130 O   0  0  0  0  0  0  0  0  0  0  0  0
   -0.7850    4.9060   -1.1520 O   0  0  0  0  0  0  0  0  0  0  0  0
   -1.3380    4.0190   -0.3520 C   0  0  0  0  0  0  0  0  0  0  0  0
   -2.3230    4.3260    0.3780 O   0  0  0  0  0  0  0  0  0  0  0  0
   -0.8200    2.7530   -0.3300 C   0  0  0  0  0  0  0  0  0  0  0  0
   -1.1190    1.6450    0.3330 O   0  0  0  0  0  0  0  0  0  0  0  0
  1  2  1  0
  2  3  1  0
  3  4  2  0
  3  5  1  0
  5  6  1  0
  6  7  1  1
  6 12  1  0
  7  8  1  0
  8  9  1  0
  9 10  1  0
 10 11  1  0
 12 13  2  0
 12 22  1  0
 13 14  1  0
 14 15  1  0
 14 21  2  0
 15 16  2  0
 15 17  1  0
 17 18  1  0
 18 19  1  0
 19 20  2  0
 19 21  1  0
 21 22  1  0
M  END
