
     RDKit          3D

 22 24  0  0  0  0  0  0  0  0999 V2000
    4.5600   -1.3960    0.7130 O   0  0  0  0  0  0  0  0  0  0  0  0
    4.5890   -1.0340   -0.4740 C   0  0  0  0  0  0  0  0  0  0  0  0
    5.8270   -0.6530   -1.0200 O   0  0  0  0  0  0  0  0  0  0  0  0
    3.4690   -0.9850   -1.2890 O   0  0  0  0  0  0  0  0  0  0  0  0
    2.2010   -1.3540   -0.7960 C   0  0  0  0  0  0  0  0  0  0  0  0
    1.7740   -0.4840    0.3600 C   0  0  2  0  0  0  0  0  0  0  0  0
    0.3390   -0.8180    0.7850 C   0  0  0  0  0  0  0  0  0  0  0  0
   -0.4630    0.3240    0.2610 C   0  0  1  0  0  0  0  0  0  0  0  0
   -1.5910   -0.0320   -0.4260 O   0  0  0  0  0  0  0  0  0  0  0  0
   -2.4810   -0.7680    0.3540 C   0  0  0  0  0  0  0  0  0  0  0  0
   -3.7120   -1.1550   -0.3980 C   0  0  0  0  0  0  0  0  0  0  0  0
   -3.3760   -1.9360   -1.5030 O   0  0  0  0  0  0  0  0  0  0  0  0
   -4.5040   -2.2480   -2.1300 O   0  0  0  0  0  0  0  0  0  0  0  0
   -0.6970    1.3860    1.2620 C   0  0  0  0  0  0  0  0  0  0  0  0
   -1.0990    1.5770    2.5220 N   0  0  0  0  0  0  0  0  0  0  0  0
   -1.0540    2.8590    2.7430 O   0  0  0  0  0  0  0  0  0  0  0  0
   -0.6380    3.4990    1.6700 C   0  0  0  0  0  0  0  0  0  0  0  0
   -0.4700    4.7400    1.5110 O   0  0  0  0  0  0  0  0  0  0  0  0
   -0.4040    2.5770    0.7100 N   0  0  0  0  0  0  0  0  0  0  0  0
    0.0340    2.4290   -0.6470 C   0  0  0  0  0  0  0  0  0  0  0  0
    0.5040    0.9970   -0.6870 C   0  0  1  0  0  0  0  0  0  0  0  0
    1.7090    0.8380   -0.0320 O   0  0  0  0  0  0  0  0  0  0  0  0
  1  2  2  0
  2  3  1  0
  2  4  1  0
  4  5  1  0
  6  5  1  6
  6  7  1  0
  6 22  1  0
  7  8  1  0
  8  9  1  6
  8 14  1  0
  8 21  1  0
  9 10  1  0
 10 11  1  0
 11 12  1  0
 12 13  1  0
 14 15  2  0
 14 19  1  0
 15 16  1  0
 16 17  1  0
 17 18  2  0
 17 19  1  0
 19 20  1  0
 21 20  1  1
 21 22  1  0
M  END
