
     RDKit          3D

 22 22  0  0  0  0  0  0  0  0999 V2000
    2.0830    1.2300   -0.5880 O   0  0  0  0  0  0  0  0  0  0  0  0
    1.3690    0.5750    0.2070 C   0  0  0  0  0  0  0  0  0  0  0  0
    1.8840   -0.4120    1.1820 C   0  0  0  0  0  0  0  0  0  0  0  0
    3.3650   -0.5930    1.0160 C   0  0  0  0  0  0  0  0  0  0  0  0
    3.7170   -1.1290   -0.3460 C   0  0  0  0  0  0  0  0  0  0  0  0
    5.1180   -1.2910   -0.4350 O   0  0  0  0  0  0  0  0  0  0  0  0
    5.9480   -0.2070   -0.3300 C   0  0  0  0  0  0  0  0  0  0  0  0
    5.5690    0.9810   -0.1580 O   0  0  0  0  0  0  0  0  0  0  0  0
    7.3540   -0.3440   -0.4110 O   0  0  0  0  0  0  0  0  0  0  0  0
   -0.0610    0.8200    0.1490 N   0  0  0  0  0  0  0  0  0  0  0  0
   -0.6310    1.7470   -0.7540 C   0  0  0  0  0  0  0  0  0  0  0  0
    0.2120    2.3590   -1.4990 O   0  0  0  0  0  0  0  0  0  0  0  0
   -2.0720    2.0400   -0.8810 C   0  0  0  0  0  0  0  0  0  0  0  0
   -2.9330    1.2680   -0.0270 N   0  0  0  0  0  0  0  0  0  0  0  0
   -3.3480    1.5250    1.3140 C   0  0  0  0  0  0  0  0  0  0  0  0
   -2.8640    2.4350    2.0380 O   0  0  0  0  0  0  0  0  0  0  0  0
   -4.3600    0.6050    1.6570 O   0  0  0  0  0  0  0  0  0  0  0  0
   -4.9180    0.2260    0.4090 C   0  0  0  0  0  0  0  0  0  0  0  0
   -3.6170    0.0500   -0.3950 C   0  0  2  0  0  0  0  0  0  0  0  0
   -2.9900   -1.2090    0.1220 C   0  0  0  0  0  0  0  0  0  0  0  0
   -3.7060   -2.3440   -0.2590 O   0  0  0  0  0  0  0  0  0  0  0  0
   -3.1440   -3.4200    0.2000 O   0  0  0  0  0  0  0  0  0  0  0  0
  1  2  2  0
  2  3  1  0
  2 10  1  0
  3  4  1  0
  4  5  1  0
  5  6  1  0
  6  7  1  0
  7  8  2  0
  7  9  1  0
 10 11  1  0
 11 12  2  0
 11 13  1  0
 13 14  1  0
 14 15  1  0
 14 19  1  0
 15 16  2  0
 15 17  1  0
 17 18  1  0
 18 19  1  0
 19 20  1  1
 20 21  1  0
 21 22  1  0
M  END
