
     RDKit          3D

 22 22  0  0  0  0  0  0  0  0999 V2000
   -3.6370   -0.8180    1.3020 N   0  0  0  0  0  0  0  0  0  0  0  0
   -3.3350   -0.3770   -0.0930 C   0  0  1  0  0  0  0  0  0  0  0  0
   -3.7110   -1.3620   -1.0590 C   0  0  0  0  0  0  0  0  0  0  0  0
   -5.1210   -1.5270   -1.1280 O   0  0  0  0  0  0  0  0  0  0  0  0
   -4.2340    0.8640   -0.1230 C   0  0  0  0  0  0  0  0  0  0  0  0
   -5.2560    0.8710   -0.8400 O   0  0  0  0  0  0  0  0  0  0  0  0
   -3.8450    1.9080    0.7070 O   0  0  0  0  0  0  0  0  0  0  0  0
   -2.5490    2.2510    0.8820 O   0  0  0  0  0  0  0  0  0  0  0  0
   -1.7560    1.1250    1.1050 C   0  0  0  0  0  0  0  0  0  0  0  0
   -1.9330    0.1810   -0.0230 C   0  0  2  0  0  0  0  0  0  0  0  0
   -1.7370    1.0270   -1.3040 C   0  0  0  0  0  0  0  0  0  0  0  0
   -1.8990    0.3130   -2.4640 O   0  0  0  0  0  0  0  0  0  0  0  0
   -0.9530   -0.9960    0.0570 C   0  0  0  0  0  0  0  0  0  0  0  0
    0.2710   -0.6940    0.4400 O   0  0  0  0  0  0  0  0  0  0  0  0
    1.3560   -0.0500    0.0180 C   0  0  0  0  0  0  0  0  0  0  0  0
    1.4550    0.4840   -1.1050 O   0  0  0  0  0  0  0  0  0  0  0  0
    2.4520   -0.0290    0.9690 N   0  0  0  0  0  0  0  0  0  0  0  0
    3.7230    0.5630    0.5360 C   0  0  0  0  0  0  0  0  0  0  0  0
    4.7840   -0.2910    1.3100 C   0  0  0  0  0  0  0  0  0  0  0  0
    5.7720   -0.6380    0.0840 C   0  0  0  0  0  0  0  0  0  0  0  0
    6.3120    0.5870   -0.1310 O   0  0  0  0  0  0  0  0  0  0  0  0
    6.0840    1.2280   -1.2700 O   0  0  0  0  0  0  0  0  0  0  0  0
  2  1  1  1
  2  3  1  0
  2  5  1  0
  2 10  1  0
  3  4  1  0
  5  6  2  0
  5  7  1  0
  7  8  1  0
  8  9  1  0
  9 10  1  0
 10 11  1  6
 10 13  1  0
 11 12  1  0
 13 14  1  0
 14 15  1  0
 15 16  2  0
 15 17  1  0
 17 18  1  0
 18 19  1  0
 19 20  1  0
 20 21  1  0
 21 22  1  0
M  END
