
     RDKit          3D

 14 15  0  0  0  0  0  0  0  0999 V2000
   -2.1040    1.4110    0.4040 C   0  0  0  0  0  0  0  0  0  0  0  0
   -1.1650    0.2300    0.6070 C   0  0  1  0  0  0  0  0  0  0  0  0
   -1.8290   -0.6700    1.6620 C   0  0  0  0  0  0  0  0  0  0  0  0
   -0.9510   -0.4990   -0.6050 N   0  0  0  0  0  0  0  0  0  0  0  0
   -1.9540   -1.0690   -1.3150 C   0  0  0  0  0  0  0  0  0  0  0  0
   -1.4500   -1.6830   -2.4010 N   0  0  0  0  0  0  0  0  0  0  0  0
   -0.1430   -1.4830   -2.3420 N   0  0  0  0  0  0  0  0  0  0  0  0
    0.1880   -0.7640   -1.2580 C   0  0  0  0  0  0  0  0  0  0  0  0
    1.5310   -0.3460   -0.8570 C   0  0  0  0  0  0  0  0  0  0  0  0
    2.6680   -0.6330   -1.5450 N   0  0  0  0  0  0  0  0  0  0  0  0
    3.7260   -0.1210   -0.9380 N   0  0  0  0  0  0  0  0  0  0  0  0
    3.2580    0.5030    0.1570 C   0  0  0  0  0  0  0  0  0  0  0  0
    4.1060    1.1660    1.0490 O   0  0  0  0  0  0  0  0  0  0  0  0
    1.9310    0.3580    0.1910 N   0  0  0  0  0  0  0  0  0  0  0  0
  2  1  1  6
  2  3  1  0
  2  4  1  0
  4  5  1  0
  4  8  1  0
  5  6  2  0
  6  7  1  0
  7  8  2  0
  8  9  1  0
  9 10  2  0
  9 14  1  0
 10 11  1  0
 11 12  1  0
 12 13  1  0
 12 14  2  0
M  END
