
     RDKit          3D

 14 15  0  0  0  0  0  0  0  0999 V2000
   -4.8050    0.1420    0.5660 C   0  0  0  0  0  0  0  0  0  0  0  0
   -3.5190   -0.4270    0.9220 N   0  0  0  0  0  0  0  0  0  0  0  0
   -2.4260   -0.0260    0.3710 C   0  0  0  0  0  0  0  0  0  0  0  0
   -1.2220   -0.5910    0.7360 C   0  0  0  0  0  0  0  0  0  0  0  0
   -0.0040   -0.1880    0.1640 C   0  0  0  0  0  0  0  0  0  0  0  0
    1.2040   -0.7930    0.5670 N   0  0  0  0  0  0  0  0  0  0  0  0
    2.4690   -0.4410    0.0370 C   0  0  0  0  0  0  0  0  0  0  0  0
    2.7240    0.5110   -0.9200 C   0  0  0  0  0  0  0  0  0  0  0  0
    4.1040    0.5310   -1.1470 C   0  0  0  0  0  0  0  0  0  0  0  0
    4.6190   -0.3920   -0.3330 N   0  0  0  0  0  0  0  0  0  0  0  0
    3.6710   -0.9740    0.3720 N   0  0  0  0  0  0  0  0  0  0  0  0
   -0.1120    0.7790   -0.7530 N   0  0  0  0  0  0  0  0  0  0  0  0
   -1.2820    1.2900   -1.0710 N   0  0  0  0  0  0  0  0  0  0  0  0
   -2.3980    0.9150   -0.5420 O   0  0  0  0  0  0  0  0  0  0  0  0
  1  2  1  0
  2  3  2  3
  3  4  1  0
  3 14  1  0
  4  5  2  0
  5  6  1  0
  5 12  1  0
  6  7  1  0
  7  8  1  0
  7 11  2  0
  8  9  2  0
  9 10  1  0
 10 11  1  0
 12 13  2  0
 13 14  1  0
M  END
