
     RDKit          3D

 14 15  0  0  0  0  0  0  0  0999 V2000
   -3.0260   -0.8840    0.0150 C   0  0  0  0  0  0  0  0  0  0  0  0
   -2.1000   -0.2440   -0.9990 C   0  0  0  0  0  0  0  0  0  0  0  0
   -0.7530    0.0130   -0.4740 C   0  0  0  0  0  0  0  0  0  0  0  0
   -0.4560    1.0650    0.3850 C   0  0  0  0  0  0  0  0  0  0  0  0
   -1.3980    2.0960    0.9200 C   0  0  0  0  0  0  0  0  0  0  0  0
    0.8600    0.9530    0.6300 N   0  0  0  0  0  0  0  0  0  0  0  0
    1.3980   -0.0730   -0.0020 N   0  0  0  0  0  0  0  0  0  0  0  0
    2.7860   -0.4590    0.0510 C   0  0  0  0  0  0  0  0  0  0  0  0
    3.7750    0.2390    0.6420 N   0  0  0  0  0  0  0  0  0  0  0  0
    4.9080   -0.4210    0.4870 N   0  0  0  0  0  0  0  0  0  0  0  0
    4.6220   -1.5220   -0.1940 N   0  0  0  0  0  0  0  0  0  0  0  0
    3.3300   -1.5500   -0.4630 N   0  0  0  0  0  0  0  0  0  0  0  0
    0.4170   -0.6730   -0.6940 C   0  0  0  0  0  0  0  0  0  0  0  0
    0.5680   -1.6860   -1.4140 O   0  0  0  0  0  0  0  0  0  0  0  0
  1  2  1  0
  2  3  1  0
  3  4  2  0
  3 13  1  0
  4  5  1  0
  4  6  1  0
  6  7  1  0
  7  8  1  0
  7 13  1  0
  8  9  2  0
  8 12  1  0
  9 10  1  0
 10 11  2  0
 11 12  1  0
 13 14  2  0
M  END
