
     RDKit          3D

 27 28  0  0  0  0  0  0  0  0999 V2000
   -6.5690   -1.5080    0.0410 C   0  0  0  0  0  0  0  0  0  0  0  0
   -5.8230   -0.4410    0.2470 C   0  0  0  0  0  0  0  0  0  0  0  0
   -4.4010   -0.4850    0.4690 C   0  0  0  0  0  0  0  0  0  0  0  0
   -3.5290    0.4910    0.0810 C   0  0  0  0  0  0  0  0  0  0  0  0
   -2.1620    0.2860    0.3830 C   0  0  0  0  0  0  0  0  0  0  0  0
   -1.9930   -0.7350    1.5810 C   0  0  0  0  0  0  0  0  0  0  0  0
   -1.0260    0.8930    0.1340 C   0  0  0  0  0  0  0  0  0  0  0  0
   -0.9780    2.1460   -0.6520 C   0  0  0  0  0  0  0  0  0  0  0  0
    0.2500    0.1690    0.2540 C   0  0  0  0  0  0  0  0  0  0  0  0
    1.4500    0.6460    0.2720 C   0  0  0  0  0  0  0  0  0  0  0  0
    1.8200    2.0600    0.1850 C   0  0  0  0  0  0  0  0  0  0  0  0
    2.5710   -0.2570    0.5080 N   0  0  0  0  0  0  0  0  0  0  0  0
    3.9110    0.1610    0.5030 C   0  0  0  0  0  0  0  0  0  0  0  0
    4.2370    1.3260    0.2800 O   0  0  0  0  0  0  0  0  0  0  0  0
    4.9960   -0.8490    0.7800 C   0  0  1  0  0  0  0  0  0  0  0  0
    4.9020   -1.8800   -0.3100 C   0  0  0  0  0  0  0  0  0  0  0  0
    6.0160   -1.4860   -1.2420 C   0  0  0  0  0  0  0  0  0  0  0  0
    6.8350   -0.5310   -0.4580 C   0  0  0  0  0  0  0  0  0  0  0  0
    6.2170   -0.2610    0.7330 O   0  0  0  0  0  0  0  0  0  0  0  0
    0.1820   -1.3380   -0.0080 C   0  0  2  0  0  0  0  0  0  0  0  0
    0.3410   -2.1350    1.0320 F   0  0  0  0  0  0  0  0  0  0  0  0
    1.2370   -1.5990   -0.9540 F   0  0  0  0  0  0  0  0  0  0  0  0
   -0.9660   -1.6210   -0.7640 F   0  0  0  0  0  0  0  0  0  0  0  0
   -4.1610    1.6460   -0.5030 C   0  0  0  0  0  0  0  0  0  0  0  0
   -3.5760    2.6860   -0.9270 O   0  0  0  0  0  0  0  0  0  0  0  0
   -5.6060    1.6840   -0.6380 N   0  0  0  0  0  0  0  0  0  0  0  0
   -6.4380    0.9350    0.2610 C   0  0  0  0  0  0  0  0  0  0  0  0
  1  2  2  0
  2  3  1  0
  2 27  1  0
  3  4  2  0
  4  5  1  0
  4 24  1  0
  5  6  1  0
  5  7  2  3
  7  8  1  0
  7  9  1  0
  9 10  2  3
  9 20  1  0
 10 11  1  0
 10 12  1  0
 12 13  1  0
 13 14  2  0
 15 13  1  6
 15 16  1  0
 15 19  1  0
 16 17  1  0
 17 18  1  0
 18 19  1  0
 20 21  1  1
 20 22  1  0
 20 23  1  0
 24 25  2  0
 24 26  1  0
 26 27  1  0
M  END
