
     RDKit          3D

 14 15  0  0  0  0  0  0  0  0999 V2000
   -0.3460    2.4990    1.4920 O   0  0  0  0  0  0  0  0  0  0  0  0
   -0.4850    1.5040    0.7360 C   0  0  0  0  0  0  0  0  0  0  0  0
   -1.7460    1.5580    0.0160 C   0  0  0  0  0  0  0  0  0  0  0  0
   -2.1520    0.3180   -0.7000 C   0  0  0  0  0  0  0  0  0  0  0  0
   -2.3950   -0.8730    0.1400 C   0  0  0  0  0  0  0  0  0  0  0  0
   -1.2850   -1.8280    0.0990 N   0  0  0  0  0  0  0  0  0  0  0  0
    0.1080   -1.7160    0.1770 N   0  0  0  0  0  0  0  0  0  0  0  0
    0.8690   -0.7090    0.4770 C   0  0  0  0  0  0  0  0  0  0  0  0
    2.3380   -1.0460    0.4370 C   0  0  0  0  0  0  0  0  0  0  0  0
    3.0200   -0.2030   -0.5440 C   0  0  0  0  0  0  0  0  0  0  0  0
    3.7000   -0.4450   -1.6190 N   0  0  0  0  0  0  0  0  0  0  0  0
    3.9140    0.9170   -1.8300 N   0  0  0  0  0  0  0  0  0  0  0  0
    3.2540    1.1840   -0.7840 N   0  0  0  0  0  0  0  0  0  0  0  0
    0.6450    0.6500    0.8390 N   0  0  0  0  0  0  0  0  0  0  0  0
  1  2  2  0
  2  3  1  0
  2 14  1  0
  3  4  1  0
  4  5  1  0
  5  6  1  0
  6  7  1  0
  7  8  2  0
  8  9  1  0
  8 14  1  0
  9 10  1  0
 10 11  2  0
 10 13  1  0
 11 12  1  0
 12 13  2  0
M  END
