
     RDKit          3D

 14 15  0  0  0  0  0  0  0  0999 V2000
    3.8830   -1.2390    0.7760 C   0  0  0  0  0  0  0  0  0  0  0  0
    3.7080   -0.1270   -0.2520 C   0  0  0  0  0  0  0  0  0  0  0  0
    2.3490    0.3460   -0.1280 N   0  0  0  0  0  0  0  0  0  0  0  0
    1.2490   -0.5130   -0.3310 C   0  0  0  0  0  0  0  0  0  0  0  0
    1.4350   -1.7200   -0.6280 O   0  0  0  0  0  0  0  0  0  0  0  0
   -0.1100    0.0270   -0.1900 C   0  0  0  0  0  0  0  0  0  0  0  0
   -1.2730   -0.6350   -0.3450 N   0  0  0  0  0  0  0  0  0  0  0  0
   -2.2790    0.1900   -0.1370 N   0  0  0  0  0  0  0  0  0  0  0  0
   -3.6240    0.2390   -0.1160 C   0  0  0  0  0  0  0  0  0  0  0  0
   -4.5760   -0.8980   -0.3880 C   0  0  0  0  0  0  0  0  0  0  0  0
   -3.9430    1.5040    0.1950 N   0  0  0  0  0  0  0  0  0  0  0  0
   -2.8400    2.2070    0.3610 N   0  0  0  0  0  0  0  0  0  0  0  0
   -1.7740    1.4020    0.1570 C   0  0  0  0  0  0  0  0  0  0  0  0
   -0.4350    1.2890    0.1210 N   0  0  0  0  0  0  0  0  0  0  0  0
  1  2  1  0
  2  3  1  0
  3  4  1  0
  4  5  2  0
  4  6  1  0
  6  7  2  0
  6 14  1  0
  7  8  1  0
  8  9  1  0
  8 13  1  0
  9 10  1  0
  9 11  2  0
 11 12  1  0
 12 13  2  0
 13 14  1  0
M  END
