
     RDKit          3D

 13 14  0  0  0  0  0  0  0  0999 V2000
    4.5840   -0.7710    0.2180 O   0  0  0  0  0  0  0  0  0  0  0  0
    3.5380   -0.3000   -0.5800 C   0  0  0  0  0  0  0  0  0  0  0  0
    2.2490   -0.4190    0.1940 C   0  0  0  0  0  0  0  0  0  0  0  0
    1.1620    0.0650   -0.6230 N   0  0  0  0  0  0  0  0  0  0  0  0
   -0.1890    0.0850   -0.1730 C   0  0  0  0  0  0  0  0  0  0  0  0
   -0.5050   -0.3590    1.0600 N   0  0  0  0  0  0  0  0  0  0  0  0
   -1.7710   -0.3540    1.5160 C   0  0  0  0  0  0  0  0  0  0  0  0
   -2.7750    0.1020    0.7370 N   0  0  0  0  0  0  0  0  0  0  0  0
   -4.0890    0.2200    0.9240 N   0  0  0  0  0  0  0  0  0  0  0  0
   -4.6720    0.7410   -0.1720 C   0  0  0  0  0  0  0  0  0  0  0  0
   -3.6600    0.9370   -1.0380 N   0  0  0  0  0  0  0  0  0  0  0  0
   -2.4880    0.5520   -0.5010 C   0  0  0  0  0  0  0  0  0  0  0  0
   -1.2020    0.5350   -0.9330 N   0  0  0  0  0  0  0  0  0  0  0  0
  1  2  1  0
  2  3  1  0
  3  4  1  0
  4  5  1  0
  5  6  1  0
  5 13  2  0
  6  7  2  0
  7  8  1  0
  8  9  1  0
  8 12  1  0
  9 10  2  0
 10 11  1  0
 11 12  2  0
 12 13  1  0
M  END
