
     RDKit          3D

 14 15  0  0  0  0  0  0  0  0999 V2000
   -3.8730    0.6360   -0.3540 C   0  0  0  0  0  0  0  0  0  0  0  0
   -2.9340   -0.4620   -0.0630 C   0  0  0  0  0  0  0  0  0  0  0  0
   -3.3860   -1.6270    0.0620 O   0  0  0  0  0  0  0  0  0  0  0  0
   -1.5230   -0.1730    0.0710 C   0  0  0  0  0  0  0  0  0  0  0  0
   -0.9320    0.9980   -0.0380 C   0  0  0  0  0  0  0  0  0  0  0  0
    0.4620    0.8350    0.1640 N   0  0  0  0  0  0  0  0  0  0  0  0
    0.7630   -0.3860    0.3930 C   0  0  0  0  0  0  0  0  0  0  0  0
    2.1060   -0.8410    0.6340 N   0  0  0  0  0  0  0  0  0  0  0  0
    3.1600   -0.1710   -0.0350 C   0  0  0  0  0  0  0  0  0  0  0  0
    4.4530   -0.5320    0.1340 N   0  0  0  0  0  0  0  0  0  0  0  0
    5.2140    0.2500   -0.6020 N   0  0  0  0  0  0  0  0  0  0  0  0
    4.4230    1.0910   -1.2260 N   0  0  0  0  0  0  0  0  0  0  0  0
    3.1530    0.8420   -0.8850 N   0  0  0  0  0  0  0  0  0  0  0  0
   -0.4790   -1.1690    0.3600 C   0  0  0  0  0  0  0  0  0  0  0  0
  1  2  1  0
  2  3  2  0
  2  4  1  0
  4  5  2  0
  4 14  1  0
  5  6  1  0
  6  7  2  0
  7  8  1  0
  7 14  1  0
  8  9  1  0
  9 10  2  0
  9 13  1  0
 10 11  1  0
 11 12  2  0
 12 13  1  0
M  END
