
     RDKit          3D

 14 15  0  0  0  0  0  0  0  0999 V2000
   -4.5180    0.6830    0.6010 O   0  0  0  0  0  0  0  0  0  0  0  0
   -3.3140    0.3620    0.3960 C   0  0  0  0  0  0  0  0  0  0  0  0
   -2.2950    1.0580    0.9600 C   0  0  0  0  0  0  0  0  0  0  0  0
   -0.9660    0.7100    0.7370 C   0  0  0  0  0  0  0  0  0  0  0  0
   -0.7110   -0.3610   -0.0710 C   0  0  0  0  0  0  0  0  0  0  0  0
    0.5790   -0.8360   -0.3910 N   0  0  0  0  0  0  0  0  0  0  0  0
    1.8020   -0.3120    0.0480 C   0  0  0  0  0  0  0  0  0  0  0  0
    2.9660   -0.9080   -0.3690 N   0  0  0  0  0  0  0  0  0  0  0  0
    4.1570   -0.4760   -0.0010 N   0  0  0  0  0  0  0  0  0  0  0  0
    4.2790    0.5820    0.8080 C   0  0  0  0  0  0  0  0  0  0  0  0
    3.1530    1.1830    1.2300 N   0  0  0  0  0  0  0  0  0  0  0  0
    1.9920    0.7360    0.8520 N   0  0  0  0  0  0  0  0  0  0  0  0
   -1.8110   -1.0340   -0.6200 C   0  0  0  0  0  0  0  0  0  0  0  0
   -3.0840   -0.6820   -0.3920 N   0  0  0  0  0  0  0  0  0  0  0  0
  1  2  2  0
  2  3  1  0
  2 14  1  0
  3  4  2  0
  4  5  1  0
  5  6  1  0
  5 13  2  0
  6  7  1  0
  7  8  2  0
  7 12  1  0
  8  9  1  0
  9 10  2  0
 10 11  1  0
 11 12  2  0
 13 14  1  0
M  END
