
     RDKit          3D

 14 15  0  0  0  0  0  0  0  0999 V2000
   -4.2010    0.4050   -0.2250 C   0  0  0  0  0  0  0  0  0  0  0  0
   -3.1920    0.1040    0.8510 C   0  0  2  0  0  0  0  0  0  0  0  0
   -1.8190    0.4960    0.4860 C   0  0  0  0  0  0  0  0  0  0  0  0
   -1.0520   -0.5720    0.5420 C   0  0  0  0  0  0  0  0  0  0  0  0
    0.3860   -0.6710    0.2630 C   0  0  0  0  0  0  0  0  0  0  0  0
    1.0810    0.3650   -0.0900 N   0  0  0  0  0  0  0  0  0  0  0  0
    2.4560    0.2520   -0.3530 C   0  0  0  0  0  0  0  0  0  0  0  0
    3.4330    0.3070    0.5790 N   0  0  0  0  0  0  0  0  0  0  0  0
    4.5850    0.1640   -0.0470 N   0  0  0  0  0  0  0  0  0  0  0  0
    4.3740    0.0170   -1.3670 C   0  0  0  0  0  0  0  0  0  0  0  0
    5.2370   -0.1420   -2.2670 O   0  0  0  0  0  0  0  0  0  0  0  0
    3.0410    0.0730   -1.5570 N   0  0  0  0  0  0  0  0  0  0  0  0
   -1.8720   -1.6600    0.9310 N   0  0  0  0  0  0  0  0  0  0  0  0
   -3.0740   -1.2990    1.1080 N   0  0  0  0  0  0  0  0  0  0  0  0
  2  1  1  6
  2  3  1  0
  2 14  1  0
  3  4  2  0
  4  5  1  0
  4 13  1  0
  5  6  2  3
  6  7  1  0
  7  8  2  0
  7 12  1  0
  8  9  1  0
  9 10  1  0
 10 11  2  0
 10 12  1  0
 13 14  2  0
M  END
