
     RDKit          3D

 14 15  0  0  0  0  0  0  0  0999 V2000
   -3.0050    3.4570    1.6630 O   0  0  0  0  0  0  0  0  0  0  0  0
   -2.6850    2.2720    1.3850 C   0  0  0  0  0  0  0  0  0  0  0  0
   -3.4360    1.1750    1.6380 N   0  0  0  0  0  0  0  0  0  0  0  0
   -2.7790    0.1370    1.2120 N   0  0  0  0  0  0  0  0  0  0  0  0
   -1.5990    0.5690    0.6810 C   0  0  0  0  0  0  0  0  0  0  0  0
   -0.6310   -0.2940    0.1210 N   0  0  0  0  0  0  0  0  0  0  0  0
   -0.7980   -1.5180   -0.1080 C   0  0  0  0  0  0  0  0  0  0  0  0
    0.1350   -2.4580   -0.6740 C   0  0  0  0  0  0  0  0  0  0  0  0
    1.3300   -2.1860   -1.0480 C   0  0  0  0  0  0  0  0  0  0  0  0
    1.9840   -0.8830   -0.9790 C   0  0  0  0  0  0  0  0  0  0  0  0
    1.6740    0.2740   -0.5910 N   0  0  0  0  0  0  0  0  0  0  0  0
    2.9090    0.8390   -0.9110 C   0  0  0  0  0  0  0  0  0  0  0  0
    3.2760   -0.4440   -1.3500 N   0  0  0  0  0  0  0  0  0  0  0  0
   -1.5360    1.9070    0.7880 N   0  0  0  0  0  0  0  0  0  0  0  0
  1  2  2  0
  2  3  1  0
  2 14  1  0
  3  4  1  0
  4  5  2  0
  5  6  1  0
  5 14  1  0
  6  7  2  3
  7  8  1  0
  8  9  2  3
  9 10  1  0
 10 11  2  0
 10 13  1  0
 11 12  1  0
 12 13  1  0
M  END
