
     RDKit          3D

 27 30  0  0  0  0  0  0  0  0999 V2000
   -4.1770    1.4870   -2.9080 C   0  0  0  0  0  0  0  0  0  0  0  0
   -3.4750    0.9820   -1.7010 C   0  0  0  0  0  0  0  0  0  0  0  0
   -2.0850    0.8930   -1.6370 C   0  0  0  0  0  0  0  0  0  0  0  0
   -1.4250    0.4180   -0.4990 C   0  0  0  0  0  0  0  0  0  0  0  0
    0.0350    0.2910   -0.4770 C   0  0  0  0  0  0  0  0  0  0  0  0
    0.5740   -0.2140    0.5220 O   0  0  0  0  0  0  0  0  0  0  0  0
    0.8750    0.7050   -1.5170 N   0  0  0  0  0  0  0  0  0  0  0  0
    2.2790    0.6340   -1.6040 C   0  0  0  0  0  0  0  0  0  0  0  0
    3.1310    0.1310   -0.6640 C   0  0  0  0  0  0  0  0  0  0  0  0
    4.5080    0.1210   -0.8800 C   0  0  0  0  0  0  0  0  0  0  0  0
    5.3840   -0.4180    0.1360 C   0  0  0  0  0  0  0  0  0  0  0  0
    6.7170   -0.4600   -0.0040 N   0  0  0  0  0  0  0  0  0  0  0  0
    7.5540   -0.9560    0.9250 C   0  0  0  0  0  0  0  0  0  0  0  0
    7.0330   -1.4590    2.1000 C   0  0  0  0  0  0  0  0  0  0  0  0
    5.6670   -1.4160    2.2430 C   0  0  0  0  0  0  0  0  0  0  0  0
    4.8740   -0.9150    1.2970 N   0  0  0  0  0  0  0  0  0  0  0  0
    5.0020    0.6220   -2.0470 C   0  0  0  0  0  0  0  0  0  0  0  0
    4.1540    1.1200   -2.9760 N   0  0  0  0  0  0  0  0  0  0  0  0
    2.8720    1.1130   -2.7420 N   0  0  0  0  0  0  0  0  0  0  0  0
   -2.2070    0.0470    0.5430 C   0  0  0  0  0  0  0  0  0  0  0  0
   -3.6080    0.1100    0.5420 C   0  0  0  0  0  0  0  0  0  0  0  0
   -4.2100    0.5850   -0.6030 C   0  0  0  0  0  0  0  0  0  0  0  0
   -5.7020    0.6580   -0.6190 C   0  0  0  0  0  0  0  0  0  0  0  0
   -4.4000   -0.3130    1.7010 C   0  0  0  0  0  0  0  0  0  0  0  0
   -3.6870   -0.8890    2.7810 N   0  0  0  0  0  0  0  0  0  0  0  0
   -2.3920   -1.4150    2.5040 C   0  0  0  0  0  0  0  0  0  0  0  0
   -1.6340   -0.4140    1.7720 N   0  0  0  0  0  0  0  0  0  0  0  0
  1  2  1  0
  2  3  2  0
  2 22  1  0
  3  4  1  0
  4  5  1  0
  4 20  2  0
  5  6  2  0
  5  7  1  0
  7  8  1  0
  8  9  2  0
  8 19  1  0
  9 10  1  0
 10 11  1  0
 10 17  2  0
 11 12  2  0
 11 16  1  0
 12 13  1  0
 13 14  2  0
 14 15  1  0
 15 16  2  0
 17 18  1  0
 18 19  2  0
 20 21  1  0
 20 27  1  0
 21 22  2  0
 21 24  1  0
 22 23  1  0
 24 25  1  0
 25 26  1  0
 26 27  1  0
M  END
