
     RDKit          3D

 27 30  0  0  0  0  0  0  0  0999 V2000
   -4.2180   -3.4810   -0.4940 O   0  0  0  0  0  0  0  0  0  0  0  0
   -4.0700   -2.2190   -0.3440 C   0  0  0  0  0  0  0  0  0  0  0  0
   -2.9530   -1.5950   -0.7500 N   0  0  0  0  0  0  0  0  0  0  0  0
   -2.7720   -0.2790   -0.6070 C   0  0  0  0  0  0  0  0  0  0  0  0
   -1.5590    0.3950   -1.0480 C   0  0  0  0  0  0  0  0  0  0  0  0
   -0.5230    0.5100   -0.0450 N   0  0  0  0  0  0  0  0  0  0  0  0
   -0.0990   -0.8470    0.4180 C   0  0  0  0  0  0  0  0  0  0  0  0
    1.0750   -1.4260   -0.2850 C   0  0  0  0  0  0  0  0  0  0  0  0
    2.4740   -0.9980    0.0690 C   0  0  0  0  0  0  0  0  0  0  0  0
    3.0350    0.2090   -0.5580 C   0  0  0  0  0  0  0  0  0  0  0  0
    4.2470    0.5030   -0.1930 C   0  0  0  0  0  0  0  0  0  0  0  0
    5.1870   -0.1140    0.7140 C   0  0  0  0  0  0  0  0  0  0  0  0
    6.4150    0.4110    0.9300 C   0  0  0  0  0  0  0  0  0  0  0  0
    7.0930   -0.4600    1.8930 C   0  0  0  0  0  0  0  0  0  0  0  0
    6.1740   -1.4970    2.1900 N   0  0  0  0  0  0  0  0  0  0  0  0
    5.0500   -1.3030    1.5030 C   0  0  0  0  0  0  0  0  0  0  0  0
    2.6620    1.2940   -1.5740 C   0  0  0  0  0  0  0  0  0  0  0  0
    1.3380    2.0100   -1.2070 C   0  0  0  0  0  0  0  0  0  0  0  0
    0.6280    0.9970   -0.5290 C   0  0  0  0  0  0  0  0  0  0  0  0
   -3.7610    0.4220   -0.0300 N   0  0  0  0  0  0  0  0  0  0  0  0
   -4.9000   -0.1490    0.3950 C   0  0  0  0  0  0  0  0  0  0  0  0
   -5.9410    0.6450    1.0120 C   0  0  0  0  0  0  0  0  0  0  0  0
   -5.8870    2.0140    1.2230 C   0  0  0  0  0  0  0  0  0  0  0  0
   -7.0250    2.4040    1.8140 N   0  0  0  0  0  0  0  0  0  0  0  0
   -7.7920    1.3500    1.9850 N   0  0  0  0  0  0  0  0  0  0  0  0
   -7.1640    0.2600    1.5080 C   0  0  0  0  0  0  0  0  0  0  0  0
   -5.0320   -1.4720    0.2280 N   0  0  0  0  0  0  0  0  0  0  0  0
  1  2  2  0
  2  3  1  0
  2 27  1  0
  3  4  2  0
  4  5  1  0
  4 20  1  0
  5  6  1  0
  6  7  1  0
  6 19  1  0
  7  8  1  0
  8  9  1  0
  9 10  1  0
 10 11  2  3
 10 17  1  0
 11 12  1  0
 12 13  2  0
 12 16  1  0
 13 14  1  0
 14 15  1  0
 15 16  2  0
 17 18  1  0
 18 19  1  0
 20 21  2  0
 21 22  1  0
 21 27  1  0
 22 23  1  0
 22 26  2  0
 23 24  2  0
 24 25  1  0
 25 26  1  0
M  END
