
     RDKit          3D

 27 30  0  0  0  0  0  0  0  0999 V2000
    7.0130    2.0470    0.3650 C   0  0  0  0  0  0  0  0  0  0  0  0
    5.9940    0.9750    0.3330 C   0  0  0  0  0  0  0  0  0  0  0  0
    4.6330    1.1340    0.4630 C   0  0  0  0  0  0  0  0  0  0  0  0
    4.0080   -0.1060    0.3800 C   0  0  0  0  0  0  0  0  0  0  0  0
    2.5760   -0.3630    0.4710 C   0  0  0  0  0  0  0  0  0  0  0  0
    2.1270   -1.5380    0.3790 O   0  0  0  0  0  0  0  0  0  0  0  0
    1.6950    0.7290    0.6630 N   0  0  0  0  0  0  0  0  0  0  0  0
    0.3470    0.5180    0.7510 N   0  0  0  0  0  0  0  0  0  0  0  0
   -0.4520    0.3390   -0.2420 C   0  0  0  0  0  0  0  0  0  0  0  0
   -1.7960    0.1370    0.0280 C   0  0  0  0  0  0  0  0  0  0  0  0
   -2.7290   -0.0650   -0.9840 C   0  0  0  0  0  0  0  0  0  0  0  0
   -4.1200   -0.2710   -0.6690 N   0  0  0  0  0  0  0  0  0  0  0  0
   -4.9340   -1.2000   -1.1090 N   0  0  0  0  0  0  0  0  0  0  0  0
   -6.1360   -1.0130   -0.5540 C   0  0  0  0  0  0  0  0  0  0  0  0
   -6.0560    0.0800    0.2640 C   0  0  0  0  0  0  0  0  0  0  0  0
   -4.7690    0.5450    0.1840 C   0  0  0  0  0  0  0  0  0  0  0  0
   -4.2000    1.7330    0.9080 C   0  0  0  0  0  0  0  0  0  0  0  0
   -7.3630    0.3530    0.9210 C   0  0  0  0  0  0  0  0  0  0  0  0
   -8.1050   -0.8610    0.6840 N   0  0  0  0  0  0  0  0  0  0  0  0
   -7.5410   -1.5090   -0.4580 C   0  0  0  0  0  0  0  0  0  0  0  0
   -2.2810   -0.0610   -2.2850 C   0  0  0  0  0  0  0  0  0  0  0  0
   -0.9410    0.1410   -2.5410 C   0  0  0  0  0  0  0  0  0  0  0  0
   -0.0720    0.3330   -1.5230 N   0  0  0  0  0  0  0  0  0  0  0  0
    5.0030   -1.0040    0.2010 N   0  0  0  0  0  0  0  0  0  0  0  0
    4.8730   -2.4370    0.0570 C   0  0  0  0  0  0  0  0  0  0  0  0
    6.2050   -0.3660    0.1710 C   0  0  0  0  0  0  0  0  0  0  0  0
    7.5510   -0.9770   -0.0060 C   0  0  0  0  0  0  0  0  0  0  0  0
  1  2  1  0
  2  3  1  0
  2 26  2  0
  3  4  2  0
  4  5  1  0
  4 24  1  0
  5  6  2  0
  5  7  1  0
  7  8  1  0
  8  9  2  3
  9 10  1  0
  9 23  1  0
 10 11  2  0
 11 12  1  0
 11 21  1  0
 12 13  1  0
 12 16  1  0
 13 14  2  0
 14 15  1  0
 14 20  1  0
 15 16  2  0
 15 18  1  0
 16 17  1  0
 18 19  1  0
 19 20  1  0
 21 22  2  0
 22 23  1  0
 24 25  1  0
 24 26  1  0
 26 27  1  0
M  END
