
     RDKit          3D

 13 14  0  0  0  0  0  0  0  0999 V2000
   -2.9880    0.8290    1.8930 O   0  0  0  0  0  0  0  0  0  0  0  0
   -2.1480    0.5780    0.9920 C   0  0  0  0  0  0  0  0  0  0  0  0
   -0.7010    0.7390    1.1920 C   0  0  0  0  0  0  0  0  0  0  0  0
    0.1510    0.7360    0.1880 C   0  0  0  0  0  0  0  0  0  0  0  0
    1.5380    0.8930    0.4130 N   0  0  0  0  0  0  0  0  0  0  0  0
    2.4730   -0.1690    0.2750 C   0  0  0  0  0  0  0  0  0  0  0  0
    3.8030   -0.1570    0.4570 N   0  0  0  0  0  0  0  0  0  0  0  0
    4.3110   -1.3490    0.2300 N   0  0  0  0  0  0  0  0  0  0  0  0
    3.3110   -2.1460   -0.1020 N   0  0  0  0  0  0  0  0  0  0  0  0
    2.1830   -1.4340   -0.0770 N   0  0  0  0  0  0  0  0  0  0  0  0
   -0.3510    0.5670   -1.1860 C   0  0  0  0  0  0  0  0  0  0  0  0
   -1.5870   -0.2910   -1.2670 C   0  0  0  0  0  0  0  0  0  0  0  0
   -2.6600    0.1030   -0.3110 C   0  0  0  0  0  0  0  0  0  0  0  0
  1  2  2  0
  2  3  1  0
  2 13  1  0
  3  4  2  0
  4  5  1  0
  4 11  1  0
  5  6  1  0
  6  7  2  0
  6 10  1  0
  7  8  1  0
  8  9  2  0
  9 10  1  0
 11 12  1  0
 12 13  1  0
M  END
