
     RDKit          3D

 26 30  0  0  0  0  0  0  0  0999 V2000
   -1.1340   -2.0140    5.1100 C   0  0  0  0  0  0  0  0  0  0  0  0
   -1.7100   -1.2940    3.8780 C   0  0  0  0  0  0  0  0  0  0  0  0
   -2.6590   -2.0420    3.2060 N   0  0  0  0  0  0  0  0  0  0  0  0
   -3.1540   -1.3810    2.0750 C   0  0  0  0  0  0  0  0  0  0  0  0
   -4.0760   -1.8130    1.3070 O   0  0  0  0  0  0  0  0  0  0  0  0
   -2.6760   -0.2310    1.7810 N   0  0  0  0  0  0  0  0  0  0  0  0
   -1.7680    0.5000    2.3770 C   0  0  0  0  0  0  0  0  0  0  0  0
   -1.2510   -0.0750    3.5400 C   0  0  0  0  0  0  0  0  0  0  0  0
   -0.3840    0.9360    4.1650 C   0  0  0  0  0  0  0  0  0  0  0  0
    0.2200    1.5980    2.9420 C   0  0  0  0  0  0  0  0  0  0  0  0
   -0.9610    1.6960    1.9700 C   0  0  1  0  0  0  0  0  0  0  0  0
   -0.3690    1.2990    0.6080 C   0  0  0  0  0  0  0  0  0  0  0  0
    0.8740    1.0090    0.2820 N   0  0  0  0  0  0  0  0  0  0  0  0
    1.0350    0.6440   -0.9540 C   0  0  0  0  0  0  0  0  0  0  0  0
   -0.2770    0.7020   -1.5130 C   0  0  0  0  0  0  0  0  0  0  0  0
   -1.1040    1.0910   -0.5470 N   0  0  0  0  0  0  0  0  0  0  0  0
   -0.3380    0.4460   -2.9030 N   0  0  0  0  0  0  0  0  0  0  0  0
    0.7150   -0.1560   -3.6130 C   0  0  1  0  0  0  0  0  0  0  0  0
    0.7880    0.3680   -5.0160 C   0  0  0  0  0  0  0  0  0  0  0  0
    1.9120    0.3330   -5.7040 C   0  0  0  0  0  0  0  0  0  0  0  0
    3.1090   -0.1640   -5.1030 C   0  0  0  0  0  0  0  0  0  0  0  0
    4.3000   -0.3650   -6.0210 C   0  0  0  0  0  0  0  0  0  0  0  0
    5.1070   -0.5110   -6.6250 N   0  0  0  0  0  0  0  0  0  0  0  0
    3.2760   -0.5520   -3.7560 C   0  0  0  0  0  0  0  0  0  0  0  0
    2.0100   -0.2170   -3.0380 C   0  0  0  0  0  0  0  0  0  0  0  0
    2.1100    0.1940   -1.7880 N   0  0  0  0  0  0  0  0  0  0  0  0
  1  2  1  0
  2  3  1  0
  2  8  2  0
  3  4  1  0
  4  5  2  0
  4  6  1  0
  6  7  2  0
  7  8  1  0
  7 11  1  0
  8  9  1  0
  9 10  1  0
 10 11  1  0
 11 12  1  6
 12 13  2  0
 12 16  1  0
 13 14  1  0
 14 15  2  0
 14 26  1  0
 15 16  1  0
 15 17  1  0
 18 17  1  1
 18 19  1  0
 18 25  1  0
 19 20  2  0
 20 21  1  0
 21 22  1  0
 21 24  2  0
 22 23  3  0
 24 25  1  0
 25 26  2  0
M  END
