
     RDKit          3D

 27 31  0  0  0  0  0  0  0  0999 V2000
    2.4850   -0.7380   -1.2480 O   0  0  0  0  0  0  0  0  0  0  0  0
    3.0330   -0.5810   -0.1220 C   0  0  0  0  0  0  0  0  0  0  0  0
    2.2250   -0.8130    1.0870 C   0  0  0  0  0  0  0  0  0  0  0  0
    0.8250   -1.1590    0.7230 C   0  0  0  0  0  0  0  0  0  0  0  0
    0.1160   -0.1180   -0.0440 C   0  0  0  0  0  0  0  0  0  0  0  0
    0.6890    1.0010   -0.3330 N   0  0  0  0  0  0  0  0  0  0  0  0
    0.2230    2.1590   -1.0570 C   0  0  0  0  0  0  0  0  0  0  0  0
   -1.0230    2.4600   -1.3590 C   0  0  0  0  0  0  0  0  0  0  0  0
   -2.2460    1.7280   -1.0560 C   0  0  0  0  0  0  0  0  0  0  0  0
   -3.4050    2.4240   -1.2280 C   0  0  0  0  0  0  0  0  0  0  0  0
   -4.6280    1.8570   -0.9550 C   0  0  0  0  0  0  0  0  0  0  0  0
   -4.6620    0.5440   -0.4940 C   0  0  0  0  0  0  0  0  0  0  0  0
   -3.5060   -0.2070   -0.3020 C   0  0  0  0  0  0  0  0  0  0  0  0
   -2.3200    0.4160   -0.5950 C   0  0  0  0  0  0  0  0  0  0  0  0
   -1.2100   -0.4780   -0.4120 N   0  0  0  0  0  0  0  0  0  0  0  0
   -3.5640   -1.5610    0.2110 C   0  0  0  0  0  0  0  0  0  0  0  0
   -2.6870   -2.5050    0.5360 N   0  0  0  0  0  0  0  0  0  0  0  0
   -3.2610   -3.5760    1.0030 N   0  0  0  0  0  0  0  0  0  0  0  0
   -4.5740   -3.3520    0.9940 C   0  0  0  0  0  0  0  0  0  0  0  0
   -4.7600   -2.0870    0.4970 N   0  0  0  0  0  0  0  0  0  0  0  0
   -6.0070   -1.4090    0.2970 C   0  0  0  0  0  0  0  0  0  0  0  0
   -5.9020   -0.0770   -0.2000 N   0  0  0  0  0  0  0  0  0  0  0  0
    4.4140   -0.1870   -0.0370 N   0  0  0  0  0  0  0  0  0  0  0  0
    5.2100    0.0400    1.1430 C   0  0  0  0  0  0  0  0  0  0  0  0
    6.2580    1.0200    0.7280 C   0  0  0  0  0  0  0  0  0  0  0  0
    6.0270    1.3020   -0.7470 C   0  0  0  0  0  0  0  0  0  0  0  0
    5.2660    0.0570   -1.1750 C   0  0  0  0  0  0  0  0  0  0  0  0
  1  2  2  0
  2  3  1  0
  2 23  1  0
  3  4  1  0
  4  5  1  0
  5  6  2  0
  5 15  1  0
  6  7  1  0
  7  8  2  0
  8  9  1  0
  9 10  2  0
  9 14  1  0
 10 11  1  0
 11 12  2  0
 12 13  1  0
 12 22  1  0
 13 14  2  0
 13 16  1  0
 14 15  1  0
 16 17  2  0
 16 20  1  0
 17 18  1  0
 18 19  2  0
 19 20  1  0
 20 21  1  0
 21 22  1  0
 23 24  1  0
 23 27  1  0
 24 25  1  0
 25 26  1  0
 26 27  1  0
M  END
