
     RDKit          3D

 17 18  0  0  0  0  0  0  0  0999 V2000
   -0.0970    3.0740   -0.1650 O   0  0  0  0  0  0  0  0  0  0  0  0
   -0.6320    1.9170   -0.1190 C   0  0  0  0  0  0  0  0  0  0  0  0
   -1.9530    1.7400   -0.6200 N   0  0  0  0  0  0  0  0  0  0  0  0
   -2.7200    0.6210   -0.1720 C   0  0  0  0  0  0  0  0  0  0  0  0
   -3.9250    0.1920   -0.4340 C   0  0  0  0  0  0  0  0  0  0  0  0
   -4.1870   -1.0340    0.3330 C   0  0  0  0  0  0  0  0  0  0  0  0
   -2.9340   -1.2650    1.0970 C   0  0  0  0  0  0  0  0  0  0  0  0
   -2.0890   -0.2940    0.7940 C   0  0  0  0  0  0  0  0  0  0  0  0
   -0.7960   -0.0310    1.2190 O   0  0  0  0  0  0  0  0  0  0  0  0
    0.0750    0.7430    0.4390 C   0  0  1  0  0  0  0  0  0  0  0  0
    0.6840   -0.0660   -0.6580 C   0  0  0  0  0  0  0  0  0  0  0  0
    1.4200   -1.2790   -0.1390 C   0  0  0  0  0  0  0  0  0  0  0  0
    2.4540   -0.9490    0.7250 O   0  0  0  0  0  0  0  0  0  0  0  0
    3.3800   -0.1560    0.0930 C   0  0  0  0  0  0  0  0  0  0  0  0
    4.5270    0.2030    1.0430 C   0  0  1  0  0  0  0  0  0  0  0  0
    4.0300    0.8870    2.1370 F   0  0  0  0  0  0  0  0  0  0  0  0
    5.2170   -0.9360    1.4200 F   0  0  0  0  0  0  0  0  0  0  0  0
  1  2  2  0
  2  3  1  0
  2 10  1  0
  3  4  1  0
  4  5  2  0
  4  8  1  0
  5  6  1  0
  6  7  1  0
  7  8  2  0
  8  9  1  0
  9 10  1  0
 10 11  1  6
 11 12  1  0
 12 13  1  0
 13 14  1  0
 14 15  1  0
 15 16  1  1
 15 17  1  0
M  END
