
     RDKit          3D

 17 18  0  0  0  0  0  0  0  0999 V2000
   -3.9790    1.6010    0.9540 N   0  0  0  0  0  0  0  0  0  0  0  0
   -2.6220    1.2080    1.0280 C   0  0  0  0  0  0  0  0  0  0  0  0
   -2.1460    0.9380    2.1600 O   0  0  0  0  0  0  0  0  0  0  0  0
   -1.8300    1.1330   -0.2300 C   0  0  0  0  0  0  0  0  0  0  0  0
   -0.4330    0.7070    0.0250 C   0  0  0  0  0  0  0  0  0  0  0  0
    0.1310   -0.3690   -0.4750 C   0  0  0  0  0  0  0  0  0  0  0  0
   -0.7020   -1.2330   -1.3730 C   0  0  1  0  0  0  0  0  0  0  0  0
    0.0440   -2.4070   -2.0310 C   0  0  0  0  0  0  0  0  0  0  0  0
   -0.9570   -2.6630   -0.9770 C   0  0  0  0  0  0  0  0  0  0  0  0
    1.4630   -0.7310   -0.2010 O   0  0  0  0  0  0  0  0  0  0  0  0
    2.3460    0.2930    0.1810 C   0  0  2  0  0  0  0  0  0  0  0  0
    3.7340   -0.2080    0.4660 C   0  0  2  0  0  0  0  0  0  0  0  0
    4.5000    0.8970    0.8290 F   0  0  0  0  0  0  0  0  0  0  0  0
    4.2880   -0.8610   -0.5970 F   0  0  0  0  0  0  0  0  0  0  0  0
    1.7350    0.9950    1.3750 C   0  0  0  0  0  0  0  0  0  0  0  0
    0.4300    1.5300    0.9060 C   0  0  0  0  0  0  0  0  0  0  0  0
    0.0020    2.6710    1.2210 O   0  0  0  0  0  0  0  0  0  0  0  0
  1  2  1  0
  2  3  2  0
  2  4  1  0
  4  5  1  0
  5  6  2  0
  5 16  1  0
  7  6  1  1
  6 10  1  0
  7  8  1  0
  7  9  1  0
  8  9  1  0
 10 11  1  0
 11 12  1  0
 11 15  1  1
 12 13  1  6
 12 14  1  0
 15 16  1  0
 16 17  2  0
M  END
