
     RDKit          3D

 17 18  0  0  0  0  0  0  0  0999 V2000
    0.2420    1.9450    0.9420 O   0  0  0  0  0  0  0  0  0  0  0  0
    0.5440    0.8510    0.4360 C   0  0  0  0  0  0  0  0  0  0  0  0
   -0.4200    0.0360   -0.0570 O   0  0  0  0  0  0  0  0  0  0  0  0
   -1.7870    0.2680   -0.0770 C   0  0  2  0  0  0  0  0  0  0  0  0
   -2.6140   -0.7600    0.6310 C   0  0  0  0  0  0  0  0  0  0  0  0
   -4.0180   -0.4480    0.1570 C   0  0  0  0  0  0  0  0  0  0  0  0
   -3.8830    0.4800   -1.0250 C   0  0  0  0  0  0  0  0  0  0  0  0
   -2.4170    0.2700   -1.4400 C   0  0  0  0  0  0  0  0  0  0  0  0
    1.9550    0.4180    0.3630 C   0  0  0  0  0  0  0  0  0  0  0  0
    2.8890    1.1910    0.8330 C   0  0  0  0  0  0  0  0  0  0  0  0
    4.3120    0.8680    0.8150 C   0  0  2  0  0  0  0  0  0  0  0  0
    4.7980    0.8000    2.1330 F   0  0  0  0  0  0  0  0  0  0  0  0
    5.0500    1.8680    0.1760 F   0  0  0  0  0  0  0  0  0  0  0  0
    4.5590   -0.4090    0.2140 N   0  0  0  0  0  0  0  0  0  0  0  0
    3.5590   -1.2550   -0.2980 C   0  0  0  0  0  0  0  0  0  0  0  0
    2.3010   -0.8710   -0.2330 C   0  0  0  0  0  0  0  0  0  0  0  0
    1.2540   -1.6590   -0.7220 O   0  0  0  0  0  0  0  0  0  0  0  0
  1  2  2  0
  2  3  1  0
  2  9  1  0
  4  3  1  6
  4  5  1  0
  4  8  1  0
  5  6  1  0
  6  7  1  0
  7  8  1  0
  9 10  2  0
  9 16  1  0
 10 11  1  0
 11 12  1  1
 11 13  1  0
 11 14  1  0
 14 15  1  0
 15 16  2  0
 16 17  1  0
M  END
