
     RDKit          3D

 17 18  0  0  0  0  0  0  0  0999 V2000
    1.8150   -1.5840   -0.2370 O   0  0  0  0  0  0  0  0  0  0  0  0
    1.0360   -0.5650   -0.1990 C   0  0  0  0  0  0  0  0  0  0  0  0
    1.6170    0.7490   -0.3990 C   0  0  0  0  0  0  0  0  0  0  0  0
    3.0890    0.7120   -0.7730 C   0  0  2  0  0  0  0  0  0  0  0  0
    3.3340    0.0110   -1.9290 O   0  0  0  0  0  0  0  0  0  0  0  0
    4.0160    0.4280    0.3490 C   0  0  1  0  0  0  0  0  0  0  0  0
    3.8660   -0.7470    1.0010 F   0  0  0  0  0  0  0  0  0  0  0  0
    5.3100    0.4420   -0.1860 F   0  0  0  0  0  0  0  0  0  0  0  0
   -0.3130   -0.8430    0.0340 N   0  0  0  0  0  0  0  0  0  0  0  0
   -0.9090   -2.1870    0.2640 C   0  0  0  0  0  0  0  0  0  0  0  0
   -2.1670   -2.0960   -0.5360 C   0  0  0  0  0  0  0  0  0  0  0  0
   -2.6150   -0.6850   -0.2720 C   0  0  0  0  0  0  0  0  0  0  0  0
   -3.7810   -0.0850   -0.3020 C   0  0  0  0  0  0  0  0  0  0  0  0
   -3.8560    1.2560    0.0020 O   0  0  0  0  0  0  0  0  0  0  0  0
   -2.7950    2.0790    0.3370 C   0  0  0  0  0  0  0  0  0  0  0  0
   -1.5060    1.3620    0.3660 C   0  0  0  0  0  0  0  0  0  0  0  0
   -1.4170    0.0660    0.0780 C   0  0  0  0  0  0  0  0  0  0  0  0
  1  2  2  0
  2  3  1  0
  2  9  1  0
  3  4  1  0
  4  5  1  6
  4  6  1  0
  6  7  1  6
  6  8  1  0
  9 10  1  0
  9 17  1  0
 10 11  1  0
 11 12  1  0
 12 13  2  0
 12 17  1  0
 13 14  1  0
 14 15  1  0
 15 16  1  0
 16 17  2  0
M  END
