
     RDKit          3D

 17 18  0  0  0  0  0  0  0  0999 V2000
    2.3970   -0.7130    0.6140 O   0  0  0  0  0  0  0  0  0  0  0  0
    2.7360   -1.6370   -0.1450 C   0  0  0  0  0  0  0  0  0  0  0  0
    4.1150   -1.8960   -0.2210 O   0  0  0  0  0  0  0  0  0  0  0  0
    1.8140   -2.4230   -0.9200 C   0  0  1  0  0  0  0  0  0  0  0  0
    0.5450   -3.0180   -0.3620 C   0  0  0  0  0  0  0  0  0  0  0  0
    0.5000   -1.9920   -1.4400 C   0  0  1  0  0  0  0  0  0  0  0  0
   -0.1440   -0.7010   -1.1320 C   0  0  0  0  0  0  0  0  0  0  0  0
   -0.4700   -0.0010   -2.1270 O   0  0  0  0  0  0  0  0  0  0  0  0
   -0.4310   -0.1800    0.1290 N   0  0  0  0  0  0  0  0  0  0  0  0
   -1.0330    1.0460    0.4940 C   0  0  0  0  0  0  0  0  0  0  0  0
   -1.4480    1.9670   -0.4290 C   0  0  0  0  0  0  0  0  0  0  0  0
   -2.0420    3.1760   -0.0500 C   0  0  0  0  0  0  0  0  0  0  0  0
   -2.4360    4.0540   -1.0000 F   0  0  0  0  0  0  0  0  0  0  0  0
   -2.2110    3.4460    1.2720 C   0  0  0  0  0  0  0  0  0  0  0  0
   -1.7990    2.5300    2.2020 C   0  0  0  0  0  0  0  0  0  0  0  0
   -1.2200    1.3500    1.8500 C   0  0  0  0  0  0  0  0  0  0  0  0
   -0.8200    0.4620    2.7740 F   0  0  0  0  0  0  0  0  0  0  0  0
  1  2  2  0
  2  3  1  0
  4  2  1  1
  4  5  1  0
  4  6  1  0
  5  6  1  0
  6  7  1  1
  7  8  2  0
  7  9  1  0
  9 10  1  0
 10 11  2  0
 10 16  1  0
 11 12  1  0
 12 13  1  0
 12 14  2  0
 14 15  1  0
 15 16  2  0
 16 17  1  0
M  END
