
     RDKit          3D

 17 18  0  0  0  0  0  0  0  0999 V2000
    1.4490   -1.8700    0.9640 O   0  0  0  0  0  0  0  0  0  0  0  0
    1.4220   -0.8760    0.1770 C   0  0  0  0  0  0  0  0  0  0  0  0
    0.1530   -0.4510   -0.2450 N   0  0  0  0  0  0  0  0  0  0  0  0
   -1.0620   -1.1340    0.2110 C   0  0  0  0  0  0  0  0  0  0  0  0
   -2.2630   -0.4500   -0.4110 C   0  0  2  0  0  0  0  0  0  0  0  0
   -2.2490   -0.4790   -1.7910 O   0  0  0  0  0  0  0  0  0  0  0  0
   -2.3560    0.9980    0.0800 C   0  0  0  0  0  0  0  0  0  0  0  0
   -3.8410    1.2000    0.1330 C   0  0  0  0  0  0  0  0  0  0  0  0
   -4.4530   -0.0050   -0.1210 O   0  0  0  0  0  0  0  0  0  0  0  0
   -3.5500   -1.0190    0.1430 C   0  0  0  0  0  0  0  0  0  0  0  0
    2.6970   -0.2420   -0.2350 C   0  0  0  0  0  0  0  0  0  0  0  0
    2.8580    0.7840   -1.0340 C   0  0  0  0  0  0  0  0  0  0  0  0
    1.8350    1.4680   -1.6440 F   0  0  0  0  0  0  0  0  0  0  0  0
    4.3000    1.0710   -1.1610 C   0  0  0  0  0  0  0  0  0  0  0  0
    4.9530    0.0650   -0.3220 C   0  0  0  0  0  0  0  0  0  0  0  0
    4.0260   -0.6910    0.2110 C   0  0  0  0  0  0  0  0  0  0  0  0
    4.2370   -1.7500    1.0620 F   0  0  0  0  0  0  0  0  0  0  0  0
  1  2  2  0
  2  3  1  0
  2 11  1  0
  3  4  1  0
  4  5  1  0
  5  6  1  6
  5  7  1  0
  5 10  1  0
  7  8  1  0
  8  9  1  0
  9 10  1  0
 11 12  2  0
 11 16  1  0
 12 13  1  0
 12 14  1  0
 14 15  1  0
 15 16  2  0
 16 17  1  0
M  END
