
     RDKit          3D

 17 18  0  0  0  0  0  0  0  0999 V2000
   -4.0780    0.7950   -0.5300 C   0  0  0  0  0  0  0  0  0  0  0  0
   -3.7590   -0.5080    0.1670 C   0  0  2  0  0  0  0  0  0  0  0  0
   -4.5960   -1.5350   -0.2290 F   0  0  0  0  0  0  0  0  0  0  0  0
   -3.8570   -0.3520    1.5430 F   0  0  0  0  0  0  0  0  0  0  0  0
   -2.4430   -0.9080   -0.1190 O   0  0  0  0  0  0  0  0  0  0  0  0
   -1.3710   -0.0820    0.2320 C   0  0  0  0  0  0  0  0  0  0  0  0
   -1.6510    0.9760    0.7860 O   0  0  0  0  0  0  0  0  0  0  0  0
   -0.0440   -0.5270   -0.0780 C   0  0  0  0  0  0  0  0  0  0  0  0
    0.1500   -1.7090   -0.6890 C   0  0  0  0  0  0  0  0  0  0  0  0
    1.4100   -2.2300   -1.0320 N   0  0  0  0  0  0  0  0  0  0  0  0
    2.6510   -1.5510   -0.7670 C   0  0  0  0  0  0  0  0  0  0  0  0
    2.4830   -0.2430   -0.0940 C   0  0  0  0  0  0  0  0  0  0  0  0
    3.5440    0.4630    0.1970 C   0  0  0  0  0  0  0  0  0  0  0  0
    3.4600    1.6920    0.8250 O   0  0  0  0  0  0  0  0  0  0  0  0
    2.2490    2.2560    1.1870 C   0  0  0  0  0  0  0  0  0  0  0  0
    1.0560    1.4260    0.8430 C   0  0  0  0  0  0  0  0  0  0  0  0
    1.1360    0.2610    0.2470 C   0  0  0  0  0  0  0  0  0  0  0  0
  2  1  1  6
  2  3  1  0
  2  4  1  0
  2  5  1  0
  5  6  1  0
  6  7  2  0
  6  8  1  0
  8  9  2  0
  8 17  1  0
  9 10  1  0
 10 11  1  0
 11 12  1  0
 12 13  2  0
 12 17  1  0
 13 14  1  0
 14 15  1  0
 15 16  1  0
 16 17  2  0
M  END
