
     RDKit          3D

 18 19  0  0  0  0  0  0  0  0999 V2000
    2.9430    1.6680    0.7440 C   0  0  0  0  0  0  0  0  0  0  0  0
    3.1390    0.2090    0.5340 C   0  0  0  0  0  0  0  0  0  0  0  0
    2.0740   -0.5340    0.3250 C   0  0  0  0  0  0  0  0  0  0  0  0
    0.7200    0.0480    0.2960 C   0  0  0  0  0  0  0  0  0  0  0  0
   -0.3060   -0.7350    0.0840 C   0  0  0  0  0  0  0  0  0  0  0  0
   -1.7050   -0.3810    0.0160 C   0  0  0  0  0  0  0  0  0  0  0  0
   -2.2610    0.8570    0.3550 C   0  0  0  0  0  0  0  0  0  0  0  0
   -3.6180    1.1160    0.2610 C   0  0  0  0  0  0  0  0  0  0  0  0
   -4.1980    2.4370    0.6240 C   0  0  0  0  0  0  0  0  0  0  0  0
   -4.4400    0.1040   -0.1850 C   0  0  0  0  0  0  0  0  0  0  0  0
   -3.8910   -1.1100   -0.5170 C   0  0  0  0  0  0  0  0  0  0  0  0
   -2.5140   -1.3580   -0.4170 C   0  0  0  0  0  0  0  0  0  0  0  0
   -1.8990   -2.5880   -0.7450 N   0  0  0  0  0  0  0  0  0  0  0  0
   -0.2670   -2.4650   -0.1830 S   0  0  1  0  0  0  0  0  0  0  0  0
    0.7220   -2.8600   -1.2260 O   0  0  0  0  0  0  0  0  0  0  0  0
   -0.0740   -3.1960    1.1130 O   0  0  0  0  0  0  0  0  0  0  0  0
    4.4710   -0.4270    0.5520 C   0  0  0  0  0  0  0  0  0  0  0  0
    5.3670    0.0800   -0.4420 N   0  0  0  0  0  0  0  0  0  0  0  0
  1  2  1  0
  2  3  2  3
  2 17  1  0
  3  4  1  0
  4  5  2  3
  5  6  1  0
  5 14  1  0
  6  7  2  0
  6 12  1  0
  7  8  1  0
  8  9  1  0
  8 10  2  0
 10 11  1  0
 11 12  2  0
 12 13  1  0
 14 13  1  6
 14 15  2  0
 14 16  2  0
 17 18  1  0
M  END
