
     RDKit          3D

 21 24  0  0  0  0  0  0  0  0999 V2000
    3.3010    0.3250    0.7410 C   0  0  0  0  0  0  0  0  0  0  0  0
    2.1190   -0.4670    0.3750 C   0  0  0  0  0  0  0  0  0  0  0  0
    2.1710   -1.8260    0.2460 C   0  0  0  0  0  0  0  0  0  0  0  0
    3.4250   -2.4370    0.5310 N   0  0  0  0  0  0  0  0  0  0  0  0
    1.1210   -2.6020   -0.1270 C   0  0  0  0  0  0  0  0  0  0  0  0
   -0.0760   -1.9660   -0.3890 C   0  0  0  0  0  0  0  0  0  0  0  0
   -1.1620   -2.7370   -0.7350 C   0  0  0  0  0  0  0  0  0  0  0  0
   -1.0120   -4.0010   -0.8350 O   0  0  0  0  0  0  0  0  0  0  0  0
   -2.3450   -2.1540   -0.9570 N   0  0  0  0  0  0  0  0  0  0  0  0
   -2.5100   -0.8340   -0.8520 C   0  0  0  0  0  0  0  0  0  0  0  0
   -1.4520    0.0180   -0.5050 C   0  0  0  0  0  0  0  0  0  0  0  0
   -0.2310   -0.5810   -0.2830 C   0  0  0  0  0  0  0  0  0  0  0  0
    0.8900    0.1710    0.1010 C   0  0  0  0  0  0  0  0  0  0  0  0
    0.8580    1.6070    0.2380 C   0  0  0  0  0  0  0  0  0  0  0  0
    1.4780    2.3500    1.1370 C   0  0  0  0  0  0  0  0  0  0  0  0
    1.1510    3.7720    0.8850 C   0  0  0  0  0  0  0  0  0  0  0  0
    0.4600    3.7280   -0.2190 C   0  0  0  0  0  0  0  0  0  0  0  0
    0.3490    2.5510   -0.6810 N   0  0  0  0  0  0  0  0  0  0  0  0
   -1.9760    1.3680   -0.3730 C   0  0  0  0  0  0  0  0  0  0  0  0
   -3.4760    1.0540    0.0010 C   0  0  0  0  0  0  0  0  0  0  0  0
   -3.7490    0.0020   -1.0560 C   0  0  0  0  0  0  0  0  0  0  0  0
  1  2  1  0
  2  3  2  0
  2 13  1  0
  3  4  1  0
  3  5  1  0
  5  6  2  0
  6  7  1  0
  6 12  1  0
  7  8  2  0
  7  9  1  0
  9 10  1  0
 10 11  2  0
 10 21  1  0
 11 12  1  0
 11 19  1  0
 12 13  2  0
 13 14  1  0
 14 15  2  0
 14 18  1  0
 15 16  1  0
 16 17  2  0
 17 18  2  0
 19 20  1  0
 20 21  1  0
M  END
