
     RDKit          3D

 18 19  0  0  0  0  0  0  0  0999 V2000
    0.4970    1.3380   -1.0320 C   0  0  0  0  0  0  0  0  0  0  0  0
    1.5790    0.6590   -0.3680 C   0  0  1  0  0  0  0  0  0  0  0  0
    2.3590   -0.1890   -1.3200 C   0  0  0  0  0  0  0  0  0  0  0  0
    2.5510    1.8200    0.0150 C   0  0  0  0  0  0  0  0  0  0  0  0
    1.2950   -0.1060    0.8740 C   0  0  0  0  0  0  0  0  0  0  0  0
    2.0610    0.2290    2.0130 C   0  0  0  0  0  0  0  0  0  0  0  0
    1.5800   -0.8650    3.3080 S   0  0  0  0  0  0  0  0  0  0  0  0
    0.3390   -1.7600    2.2650 C   0  0  0  0  0  0  0  0  0  0  0  0
    0.4260   -1.1230    1.0340 C   0  0  0  0  0  0  0  0  0  0  0  0
   -0.5220   -1.5980   -0.0080 C   0  0  2  0  0  0  0  0  0  0  0  0
    0.0560   -1.8630   -1.2370 O   0  0  0  0  0  0  0  0  0  0  0  0
   -1.7670   -0.8370   -0.0870 C   0  0  0  0  0  0  0  0  0  0  0  0
   -2.6560   -1.1740   -1.0860 C   0  0  0  0  0  0  0  0  0  0  0  0
   -3.8240   -0.5140   -1.1960 N   0  0  0  0  0  0  0  0  0  0  0  0
   -4.1540    0.4590   -0.3690 N   0  0  0  0  0  0  0  0  0  0  0  0
   -3.2980    0.8000    0.6100 C   0  0  0  0  0  0  0  0  0  0  0  0
   -3.6460    1.7440    1.3920 O   0  0  0  0  0  0  0  0  0  0  0  0
   -2.0870    0.1560    0.7690 C   0  0  0  0  0  0  0  0  0  0  0  0
  2  1  1  6
  2  3  1  0
  2  4  1  0
  2  5  1  0
  5  6  2  0
  5  9  1  0
  6  7  1  0
  7  8  1  0
  8  9  2  0
  9 10  1  0
 10 11  1  6
 10 12  1  0
 12 13  1  0
 12 18  2  0
 13 14  2  0
 14 15  1  0
 15 16  1  0
 16 17  2  0
 16 18  1  0
M  END
