
     RDKit          3D

 17 18  0  0  0  0  0  0  0  0999 V2000
   -1.3850   -0.2480   -2.5210 C   0  0  0  0  0  0  0  0  0  0  0  0
   -1.6470    0.6120   -1.3520 C   0  0  0  0  0  0  0  0  0  0  0  0
   -2.7050    1.5100   -1.4430 C   0  0  0  0  0  0  0  0  0  0  0  0
   -2.9640    2.3190   -0.3650 C   0  0  0  0  0  0  0  0  0  0  0  0
   -2.1980    2.2430    0.7720 C   0  0  0  0  0  0  0  0  0  0  0  0
   -1.1330    1.3390    0.8620 C   0  0  0  0  0  0  0  0  0  0  0  0
   -0.8790    0.5330   -0.2180 C   0  0  0  0  0  0  0  0  0  0  0  0
    0.1810   -0.3930   -0.1780 N   0  0  0  0  0  0  0  0  0  0  0  0
    1.5010   -0.1070   -0.5900 C   0  0  0  0  0  0  0  0  0  0  0  0
    1.8810    1.3650   -1.1520 S   0  0  0  0  0  0  0  0  0  0  0  0
    2.4910   -1.0930   -0.5140 N   0  0  0  0  0  0  0  0  0  0  0  0
    2.1300   -2.4000   -0.0080 C   0  0  0  0  0  0  0  0  0  0  0  0
    3.3000   -3.3550    0.0130 C   0  0  0  0  0  0  0  0  0  0  0  0
    4.2980   -2.8570    0.8190 O   0  0  0  0  0  0  0  0  0  0  0  0
   -0.5510    1.5350    2.1980 C   0  0  0  0  0  0  0  0  0  0  0  0
   -0.8640    2.8630    2.4850 O   0  0  0  0  0  0  0  0  0  0  0  0
   -2.2140    2.9650    2.0920 C   0  0  0  0  0  0  0  0  0  0  0  0
  1  2  1  0
  2  3  2  0
  2  7  1  0
  3  4  1  0
  4  5  2  0
  5  6  1  0
  5 17  1  0
  6  7  2  0
  6 15  1  0
  7  8  1  0
  8  9  1  0
  9 10  2  0
  9 11  1  0
 11 12  1  0
 12 13  1  0
 13 14  1  0
 15 16  1  0
 16 17  1  0
M  END
