
     RDKit          3D

 18 19  0  0  0  0  0  0  0  0999 V2000
   -0.8550    0.7230    1.0920 O   0  0  0  0  0  0  0  0  0  0  0  0
   -0.8530   -0.6200    0.3900 S   0  0  1  0  0  0  0  0  0  0  0  0
   -1.2120   -1.7420    1.2990 O   0  0  0  0  0  0  0  0  0  0  0  0
   -1.8360   -0.4850   -1.0240 C   0  0  0  0  0  0  0  0  0  0  0  0
   -3.0800   -0.2500   -1.1730 C   0  0  0  0  0  0  0  0  0  0  0  0
   -4.0980   -0.0150   -0.1960 C   0  0  0  0  0  0  0  0  0  0  0  0
   -4.0250    0.0090    1.1530 C   0  0  0  0  0  0  0  0  0  0  0  0
   -5.2950    0.2860    1.6580 C   0  0  0  0  0  0  0  0  0  0  0  0
   -6.1130    0.4230    0.5720 C   0  0  0  0  0  0  0  0  0  0  0  0
   -5.3990    0.2440   -0.5420 N   0  0  0  0  0  0  0  0  0  0  0  0
    0.8140   -0.8670   -0.1730 N   0  0  0  0  0  0  0  0  0  0  0  0
    1.1310    0.3150   -0.9230 C   0  0  0  0  0  0  0  0  0  0  0  0
    2.5310    0.2910   -1.4900 C   0  0  0  0  0  0  0  0  0  0  0  0
    3.5630    0.1790   -0.4170 C   0  0  0  0  0  0  0  0  0  0  0  0
    4.4310   -0.8100   -0.3160 C   0  0  0  0  0  0  0  0  0  0  0  0
    5.3060   -0.6100    0.8570 C   0  0  0  0  0  0  0  0  0  0  0  0
    4.8290    0.6450    1.4380 C   0  0  0  0  0  0  0  0  0  0  0  0
    3.8320    1.0730    0.6870 C   0  0  0  0  0  0  0  0  0  0  0  0
  1  2  2  0
  2  3  2  0
  2  4  1  0
  2 11  1  6
  4  5  2  3
  5  6  1  0
  6  7  2  0
  6 10  1  0
  7  8  1  0
  8  9  2  0
  9 10  1  0
 11 12  1  0
 12 13  1  0
 13 14  1  0
 14 15  2  0
 14 18  1  0
 15 16  1  0
 16 17  1  0
 17 18  2  0
M  END
