
     RDKit          3D

 17 19  0  0  0  0  0  0  0  0999 V2000
    2.1900    1.8730    0.3920 C   0  0  0  0  0  0  0  0  0  0  0  0
    2.1770    0.4430    0.9330 C   0  0  2  0  0  0  0  0  0  0  0  0
    3.4040   -0.2470    0.4540 C   0  0  0  0  0  0  0  0  0  0  0  0
    3.3130   -1.2690   -0.2640 O   0  0  0  0  0  0  0  0  0  0  0  0
    4.6630    0.2120    0.7810 O   0  0  0  0  0  0  0  0  0  0  0  0
    1.0110   -0.2520    0.4400 N   0  0  0  0  0  0  0  0  0  0  0  0
   -0.0200   -0.8230    1.2020 C   0  0  0  0  0  0  0  0  0  0  0  0
   -0.0650   -0.7690    2.4650 O   0  0  0  0  0  0  0  0  0  0  0  0
   -1.0260   -1.4830    0.3320 C   0  0  1  0  0  0  0  0  0  0  0  0
   -2.3830   -0.8360    0.5000 C   0  0  1  0  0  0  0  0  0  0  0  0
   -2.1660    0.6370    0.6790 C   0  0  0  0  0  0  0  0  0  0  0  0
   -1.6940    1.1080   -0.7050 C   0  0  0  0  0  0  0  0  0  0  0  0
   -1.6580   -0.1560   -1.5410 C   0  0  2  0  0  0  0  0  0  0  0  0
   -2.8890   -0.8730   -0.9520 C   0  0  0  0  0  0  0  0  0  0  0  0
   -0.5860   -1.1000   -1.0740 C   0  0  1  0  0  0  0  0  0  0  0  0
    0.7370   -0.4600   -0.9270 C   0  0  0  0  0  0  0  0  0  0  0  0
    1.4640   -0.1680   -1.9110 O   0  0  0  0  0  0  0  0  0  0  0  0
  2  1  1  6
  2  3  1  0
  2  6  1  0
  3  4  2  0
  3  5  1  0
  6  7  1  0
  6 16  1  0
  7  8  2  0
  9  7  1  1
  9 10  1  0
  9 15  1  0
 10 11  1  6
 10 14  1  0
 11 12  1  0
 13 12  1  1
 13 14  1  0
 13 15  1  0
 15 16  1  1
 16 17  2  0
M  END
