
     RDKit          3D

 19 19  0  0  0  0  0  0  0  0999 V2000
   -2.6160    0.4950    2.0360 C   0  0  0  0  0  0  0  0  0  0  0  0
   -1.7380    0.6830    0.9870 O   0  0  0  0  0  0  0  0  0  0  0  0
   -1.5910   -0.4390    0.2000 C   0  0  2  0  0  0  0  0  0  0  0  0
   -2.8520   -0.7580   -0.3090 O   0  0  0  0  0  0  0  0  0  0  0  0
   -3.4180    0.5920   -1.2440 S   0  0  0  0  0  0  0  0  0  0  0  0
   -1.0280   -1.5950    0.9570 C   0  0  0  0  0  0  0  0  0  0  0  0
    0.3430   -1.3660    1.2920 O   0  0  0  0  0  0  0  0  0  0  0  0
    1.1480   -0.6120    0.4600 C   0  0  0  0  0  0  0  0  0  0  0  0
    2.4380   -0.5730    0.7040 C   0  0  0  0  0  0  0  0  0  0  0  0
    2.9490   -1.2960    1.7970 O   0  0  0  0  0  0  0  0  0  0  0  0
    3.3920    0.2100   -0.1310 C   0  0  0  0  0  0  0  0  0  0  0  0
    4.0190    1.1570    0.6940 O   0  0  0  0  0  0  0  0  0  0  0  0
    0.5900    0.1230   -0.6600 C   0  0  2  0  0  0  0  0  0  0  0  0
    0.7350    1.5630   -0.4840 N   0  0  0  0  0  0  0  0  0  0  0  0
    0.5340    2.3450   -1.4860 C   0  0  0  0  0  0  0  0  0  0  0  0
    0.7030    4.0750   -1.2940 Cl  0  0  0  0  0  0  0  0  0  0  0  0
    0.0880    1.7300   -3.0610 Cl  0  0  0  0  0  0  0  0  0  0  0  0
   -0.7860   -0.1500   -0.9860 N   0  0  0  0  0  0  0  0  0  0  0  0
   -0.8580   -1.3230   -1.8350 C   0  0  0  0  0  0  0  0  0  0  0  0
  1  2  1  0
  3  2  1  1
  3  4  1  0
  3  6  1  0
  3 18  1  0
  4  5  1  0
  6  7  1  0
  7  8  1  0
  8  9  2  3
  8 13  1  0
  9 10  1  0
  9 11  1  0
 11 12  1  0
 13 14  1  1
 13 18  1  0
 14 15  2  3
 15 16  1  0
 15 17  1  0
 18 19  1  0
M  END
