
     RDKit          3D

 19 20  0  0  0  0  0  0  0  0999 V2000
   -4.9740   -0.1910    1.5150 C   0  0  0  0  0  0  0  0  0  0  0  0
   -4.3860   -0.6010    0.1660 C   0  0  0  0  0  0  0  0  0  0  0  0
   -3.1280   -0.0190    0.0210 O   0  0  0  0  0  0  0  0  0  0  0  0
   -2.6230   -0.4120   -1.2150 C   0  0  0  0  0  0  0  0  0  0  0  0
   -1.3170    0.1310   -1.4790 N   0  0  0  0  0  0  0  0  0  0  0  0
   -1.3820    1.9330   -1.4670 S   0  0  0  0  0  0  0  0  0  0  0  0
    0.3350    2.1760   -0.8120 C   0  0  0  0  0  0  0  0  0  0  0  0
    0.8140    0.7780   -1.0130 C   0  0  1  0  0  0  0  0  0  0  0  0
    1.0400    0.4270   -2.7260 Cl  0  0  0  0  0  0  0  0  0  0  0  0
    1.8610    0.2750   -0.1700 C   0  0  0  0  0  0  0  0  0  0  0  0
    3.0450    0.9010    0.1300 O   0  0  0  0  0  0  0  0  0  0  0  0
    4.1040    0.3030    0.8140 C   0  0  2  0  0  0  0  0  0  0  0  0
    4.6040   -0.9160    0.0460 C   0  0  0  0  0  0  0  0  0  0  0  0
    3.7480   -0.1510    2.0800 O   0  0  0  0  0  0  0  0  0  0  0  0
    5.1490    1.2150    0.9210 O   0  0  0  0  0  0  0  0  0  0  0  0
    1.5140   -0.8790    0.2730 N   0  0  0  0  0  0  0  0  0  0  0  0
    0.2490   -1.2160   -0.2290 O   0  0  0  0  0  0  0  0  0  0  0  0
   -0.3800   -0.0150   -0.4330 C   0  0  2  0  0  0  0  0  0  0  0  0
   -0.9000    0.7990    1.0520 Cl  0  0  0  0  0  0  0  0  0  0  0  0
  1  2  1  0
  2  3  1  0
  3  4  1  0
  4  5  1  0
  5  6  1  0
  5 18  1  0
  6  7  1  0
  7  8  1  0
  8  9  1  6
  8 10  1  0
  8 18  1  0
 10 11  1  0
 10 16  2  0
 11 12  1  0
 12 13  1  6
 12 14  1  0
 12 15  1  0
 16 17  1  0
 17 18  1  0
 18 19  1  1
M  END
