
     RDKit          3D

 20 21  0  0  0  0  0  0  0  0999 V2000
    0.7180   -2.0610    0.3260 C   0  0  0  0  0  0  0  0  0  0  0  0
   -0.1450   -1.1390   -0.0180 C   0  0  0  0  0  0  0  0  0  0  0  0
   -1.5640   -1.4750    0.2310 C   0  0  0  0  0  0  0  0  0  0  0  0
   -1.8340   -2.5660    0.7830 O   0  0  0  0  0  0  0  0  0  0  0  0
   -2.7180   -0.5840   -0.1390 C   0  0  2  0  0  0  0  0  0  0  0  0
   -3.8670   -1.1490    0.3820 O   0  0  0  0  0  0  0  0  0  0  0  0
   -5.2870   -0.2630    0.0610 S   0  0  0  0  0  0  0  0  0  0  0  0
   -2.7760   -0.4950   -1.5470 O   0  0  0  0  0  0  0  0  0  0  0  0
   -4.0710    0.5120   -1.9900 Cl  0  0  0  0  0  0  0  0  0  0  0  0
   -2.4880    0.7990    0.3940 C   0  0  0  0  0  0  0  0  0  0  0  0
   -1.5540    1.5490   -0.4240 N   0  0  0  0  0  0  0  0  0  0  0  0
   -0.3510    1.2370   -0.8290 C   0  0  0  0  0  0  0  0  0  0  0  0
    0.5120    2.3940   -1.8200 Cl  0  0  0  0  0  0  0  0  0  0  0  0
    0.4050    0.0560   -0.5830 N   0  0  0  0  0  0  0  0  0  0  0  0
    1.6970    0.0410   -0.8890 O   0  0  0  0  0  0  0  0  0  0  0  0
    2.4740    0.9210   -0.1530 C   0  0  2  0  0  0  0  0  0  0  0  0
    3.8240    1.2370   -0.4880 C   0  0  0  0  0  0  0  0  0  0  0  0
    3.6610    0.2820    0.4790 C   0  0  0  0  0  0  0  0  0  0  0  0
    4.3430   -0.5730    1.3340 O   0  0  0  0  0  0  0  0  0  0  0  0
    5.4800   -0.2420    1.9410 O   0  0  0  0  0  0  0  0  0  0  0  0
  1  2  2  0
  2  3  1  0
  2 14  1  0
  3  4  2  0
  3  5  1  0
  5  6  1  1
  5  8  1  0
  5 10  1  0
  6  7  1  0
  8  9  1  0
 10 11  1  0
 11 12  2  0
 12 13  1  0
 12 14  1  0
 14 15  1  0
 16 15  1  6
 16 17  1  0
 16 18  1  0
 17 18  2  0
 18 19  1  0
 19 20  1  0
M  END
