
     RDKit          3D

 20 20  0  0  0  0  0  0  0  0999 V2000
   -3.3900   -1.4030   -0.0060 C   0  0  0  0  0  0  0  0  0  0  0  0
   -2.5890   -0.3900   -0.2520 C   0  0  0  0  0  0  0  0  0  0  0  0
   -3.1020    0.8760   -0.6090 N   0  0  0  0  0  0  0  0  0  0  0  0
   -3.4920    1.8510    0.3820 C   0  0  0  0  0  0  0  0  0  0  0  0
   -1.1070   -0.6010   -0.1480 C   0  0  1  0  0  0  0  0  0  0  0  0
   -0.6280    0.2890    0.9930 C   0  0  0  0  0  0  0  0  0  0  0  0
   -0.8100   -2.3200    0.2320 Cl  0  0  0  0  0  0  0  0  0  0  0  0
   -0.5000   -0.3130   -1.3360 O   0  0  0  0  0  0  0  0  0  0  0  0
    0.8570   -0.5420   -1.2120 N   0  0  0  0  0  0  0  0  0  0  0  0
    1.5060    0.3900   -0.5800 O   0  0  0  0  0  0  0  0  0  0  0  0
    2.7210    0.2460   -0.0390 C   0  0  1  0  0  0  0  0  0  0  0  0
    2.8950   -0.7850    1.0410 C   0  0  0  0  0  0  0  0  0  0  0  0
    3.7820    0.0980   -0.9410 O   0  0  0  0  0  0  0  0  0  0  0  0
    3.7790    1.1090   -1.7750 O   0  0  0  0  0  0  0  0  0  0  0  0
    3.7730    2.4750   -0.6760 S   0  0  0  0  0  0  0  0  0  0  0  0
    3.0110    1.5650    0.6710 C   0  0  0  0  0  0  0  0  0  0  0  0
    2.8170    1.9390    1.7640 O   0  0  0  0  0  0  0  0  0  0  0  0
    1.2930   -1.7460   -1.8090 C   0  0  0  0  0  0  0  0  0  0  0  0
    0.4170   -2.5170   -2.3620 O   0  0  0  0  0  0  0  0  0  0  0  0
    2.9140   -2.3530   -1.9040 Cl  0  0  0  0  0  0  0  0  0  0  0  0
  1  2  2  0
  2  3  1  0
  2  5  1  0
  3  4  1  0
  5  6  1  1
  5  7  1  0
  5  8  1  0
  8  9  1  0
  9 10  1  0
  9 18  1  0
 10 11  1  0
 11 12  1  1
 11 13  1  0
 11 16  1  0
 13 14  1  0
 14 15  1  0
 15 16  1  0
 16 17  2  0
 18 19  2  0
 18 20  1  0
M  END
