
     RDKit          3D

 20 23  0  0  0  0  0  0  0  0999 V2000
    5.2350   -1.9750    1.1930 C   0  0  0  0  0  0  0  0  0  0  0  0
    3.9310   -1.9870    0.8670 N   0  0  0  0  0  0  0  0  0  0  0  0
    3.4470   -1.0750    0.0200 C   0  0  0  0  0  0  0  0  0  0  0  0
    1.7320   -1.0050   -0.4770 S   0  0  0  0  0  0  0  0  0  0  0  0
    0.8700    0.0620    0.7140 C   0  0  0  0  0  0  0  0  0  0  0  0
   -0.5650    0.1970    0.4040 C   0  0  0  0  0  0  0  0  0  0  0  0
   -1.5110   -0.6190    0.8790 N   0  0  0  0  0  0  0  0  0  0  0  0
   -2.6950   -0.2180    0.4050 C   0  0  0  0  0  0  0  0  0  0  0  0
   -2.4500    0.8780   -0.3830 C   0  0  0  0  0  0  0  0  0  0  0  0
   -1.1550    1.0750   -0.3420 O   0  0  0  0  0  0  0  0  0  0  0  0
   -3.5650    1.5530   -1.0540 C   0  0  0  0  0  0  0  0  0  0  0  0
   -4.6580    0.5630   -1.3360 C   0  0  0  0  0  0  0  0  0  0  0  0
   -5.1370   -0.1090   -0.0680 C   0  0  0  0  0  0  0  0  0  0  0  0
   -4.0310   -0.8040    0.6510 C   0  0  0  0  0  0  0  0  0  0  0  0
    4.3210   -0.1390   -0.4950 C   0  0  0  0  0  0  0  0  0  0  0  0
    4.1850    0.9010   -1.3530 N   0  0  0  0  0  0  0  0  0  0  0  0
    5.3550    1.4800   -1.5100 N   0  0  0  0  0  0  0  0  0  0  0  0
    6.2830    0.8780   -0.7940 N   0  0  0  0  0  0  0  0  0  0  0  0
    5.6580   -0.1290   -0.1590 C   0  0  0  0  0  0  0  0  0  0  0  0
    6.0960   -1.0680    0.6970 N   0  0  0  0  0  0  0  0  0  0  0  0
  1  2  2  0
  1 20  1  0
  2  3  1  0
  3  4  1  0
  3 15  2  0
  4  5  1  0
  5  6  1  0
  6  7  2  0
  6 10  1  0
  7  8  1  0
  8  9  2  0
  8 14  1  0
  9 10  1  0
  9 11  1  0
 11 12  1  0
 12 13  1  0
 13 14  1  0
 15 16  1  0
 15 19  1  0
 16 17  2  0
 17 18  1  0
 18 19  1  0
 19 20  2  0
M  END
