
     RDKit          3D

 20 22  0  0  0  0  0  0  0  0999 V2000
   -2.5130   -0.2050   -2.9050 C   0  0  0  0  0  0  0  0  0  0  0  0
   -3.1370   -0.3150   -1.7480 C   0  0  0  0  0  0  0  0  0  0  0  0
   -4.4310   -0.8640   -1.6900 O   0  0  0  0  0  0  0  0  0  0  0  0
   -5.1550   -1.0160   -0.5280 C   0  0  0  0  0  0  0  0  0  0  0  0
   -4.5830   -0.6160    0.5920 C   0  0  0  0  0  0  0  0  0  0  0  0
   -3.2330   -0.0360    0.5870 C   0  0  0  0  0  0  0  0  0  0  0  0
   -2.5150    0.1220   -0.5130 C   0  0  0  0  0  0  0  0  0  0  0  0
   -1.1720    0.7080   -0.4470 C   0  0  0  0  0  0  0  0  0  0  0  0
   -0.2740    0.9570   -1.4080 N   0  0  0  0  0  0  0  0  0  0  0  0
    0.8170    1.4980   -0.8900 N   0  0  0  0  0  0  0  0  0  0  0  0
    0.6680    1.6210    0.4330 C   0  0  0  0  0  0  0  0  0  0  0  0
    1.8100    2.2850    1.6560 S   0  0  0  0  0  0  0  0  0  0  0  0
    2.8230    0.9020    2.2500 C   0  0  0  0  0  0  0  0  0  0  0  0
    3.6710    0.4160    1.1430 C   0  0  0  0  0  0  0  0  0  0  0  0
    3.2460   -0.5670    0.2810 C   0  0  0  0  0  0  0  0  0  0  0  0
    3.9990   -1.0300   -0.7360 N   0  0  0  0  0  0  0  0  0  0  0  0
    5.1970   -0.5210   -0.9160 N   0  0  0  0  0  0  0  0  0  0  0  0
    5.6310    0.4330   -0.0920 C   0  0  0  0  0  0  0  0  0  0  0  0
    4.8990    0.9270    0.9470 N   0  0  0  0  0  0  0  0  0  0  0  0
   -0.5660    1.1280    0.6850 N   0  0  0  0  0  0  0  0  0  0  0  0
  1  2  2  0
  2  3  1  0
  2  7  1  0
  3  4  1  0
  4  5  2  0
  5  6  1  0
  6  7  2  0
  7  8  1  0
  8  9  2  0
  8 20  1  0
  9 10  1  0
 10 11  2  0
 11 12  1  0
 11 20  1  0
 12 13  1  0
 13 14  1  0
 14 15  2  0
 14 19  1  0
 15 16  1  0
 16 17  2  0
 17 18  1  0
 18 19  2  0
M  END
