
     RDKit          3D

 20 23  0  0  0  0  0  0  0  0999 V2000
   -4.2680   -1.8550    1.1590 O   0  0  0  0  0  0  0  0  0  0  0  0
   -3.8460   -1.4320   -0.1350 C   0  0  0  0  0  0  0  0  0  0  0  0
   -2.4350   -1.0050   -0.0110 C   0  0  0  0  0  0  0  0  0  0  0  0
   -1.4290   -1.8820    0.1510 N   0  0  0  0  0  0  0  0  0  0  0  0
   -0.1410   -1.5430    0.1130 N   0  0  0  0  0  0  0  0  0  0  0  0
    0.1880   -0.2700   -0.0890 C   0  0  0  0  0  0  0  0  0  0  0  0
    1.5950    0.1200   -0.4280 C   0  0  0  0  0  0  0  0  0  0  0  0
    1.8320    1.0440   -1.4950 C   0  0  0  0  0  0  0  0  0  0  0  0
    3.1510    1.1610   -1.5340 N   0  0  0  0  0  0  0  0  0  0  0  0
    3.7320    0.4330   -0.6360 N   0  0  0  0  0  0  0  0  0  0  0  0
    2.7920   -0.2250    0.0600 C   0  0  0  0  0  0  0  0  0  0  0  0
    3.3120   -1.1490    0.9990 N   0  0  0  0  0  0  0  0  0  0  0  0
    4.6880   -1.5730    0.7270 C   0  0  0  0  0  0  0  0  0  0  0  0
    5.3040    0.0180    0.0200 S   0  0  0  0  0  0  0  0  0  0  0  0
   -0.8070    0.6830   -0.2520 C   0  0  0  0  0  0  0  0  0  0  0  0
   -0.5340    1.9970   -0.3860 C   0  0  0  0  0  0  0  0  0  0  0  0
   -1.5770    2.9050   -0.5470 C   0  0  0  0  0  0  0  0  0  0  0  0
   -2.8610    2.5110   -0.5900 N   0  0  0  0  0  0  0  0  0  0  0  0
   -3.1680    1.2010   -0.4130 C   0  0  0  0  0  0  0  0  0  0  0  0
   -2.1240    0.3110   -0.2280 C   0  0  0  0  0  0  0  0  0  0  0  0
  1  2  1  0
  2  3  1  0
  3  4  2  0
  3 20  1  0
  4  5  1  0
  5  6  2  0
  6  7  1  0
  6 15  1  0
  7  8  1  0
  7 11  2  0
  8  9  2  0
  9 10  1  0
 10 11  1  0
 10 14  1  0
 11 12  1  0
 12 13  1  0
 13 14  1  0
 15 16  2  0
 15 20  1  0
 16 17  1  0
 17 18  2  0
 18 19  1  0
 19 20  2  0
M  END
