
     RDKit          3D

 20 22  0  0  0  0  0  0  0  0999 V2000
    4.4780   -1.8100   -1.1740 C   0  0  0  0  0  0  0  0  0  0  0  0
    4.3050   -0.7880   -0.3190 C   0  0  0  0  0  0  0  0  0  0  0  0
    5.5090   -0.2960    0.2790 N   0  0  0  0  0  0  0  0  0  0  0  0
    5.5360    1.3310    0.9480 S   0  0  0  0  0  0  0  0  0  0  0  0
    3.8620    1.5490    1.6330 C   0  0  0  0  0  0  0  0  0  0  0  0
    2.8810    0.7880    0.8350 C   0  0  0  0  0  0  0  0  0  0  0  0
    3.0430   -0.1940    0.0110 C   0  0  0  0  0  0  0  0  0  0  0  0
    1.8000   -0.7190   -0.6220 C   0  0  0  0  0  0  0  0  0  0  0  0
    1.6490   -1.7090   -1.4990 N   0  0  0  0  0  0  0  0  0  0  0  0
    0.3850   -1.8800   -1.8290 N   0  0  0  0  0  0  0  0  0  0  0  0
   -0.2840   -0.9560   -1.1280 C   0  0  0  0  0  0  0  0  0  0  0  0
   -1.7480   -0.7620   -1.1730 C   0  0  0  0  0  0  0  0  0  0  0  0
   -2.6190   -1.4690   -1.9100 N   0  0  0  0  0  0  0  0  0  0  0  0
   -3.8240   -0.9930   -1.6730 N   0  0  0  0  0  0  0  0  0  0  0  0
   -3.7550   -0.0050   -0.8110 N   0  0  0  0  0  0  0  0  0  0  0  0
   -4.8750    0.7810   -0.2950 C   0  0  0  0  0  0  0  0  0  0  0  0
   -5.3660    0.0740    0.9480 C   0  0  0  0  0  0  0  0  0  0  0  0
   -2.4840    0.1670   -0.4780 C   0  0  0  0  0  0  0  0  0  0  0  0
   -1.9080    1.1610    0.4630 C   0  0  0  0  0  0  0  0  0  0  0  0
    0.5700   -0.2830   -0.4240 O   0  0  0  0  0  0  0  0  0  0  0  0
  1  2  2  0
  2  3  1  0
  2  7  1  0
  3  4  1  0
  4  5  1  0
  5  6  1  0
  6  7  2  0
  7  8  1  0
  8  9  2  0
  8 20  1  0
  9 10  1  0
 10 11  2  0
 11 12  1  0
 11 20  1  0
 12 13  1  0
 12 18  2  0
 13 14  2  0
 14 15  1  0
 15 16  1  0
 15 18  1  0
 16 17  1  0
 18 19  1  0
M  END
