
     RDKit          3D

 20 23  0  0  0  0  0  0  0  0999 V2000
   -6.0090   -0.1980   -0.1520 C   0  0  0  0  0  0  0  0  0  0  0  0
   -4.6510   -0.0140    0.3000 N   0  0  0  0  0  0  0  0  0  0  0  0
   -4.3240    0.4180    1.5010 N   0  0  0  0  0  0  0  0  0  0  0  0
   -2.9940    0.4750    1.5980 C   0  0  0  0  0  0  0  0  0  0  0  0
   -2.4810    0.0580    0.3990 C   0  0  0  0  0  0  0  0  0  0  0  0
   -3.5600   -0.2570   -0.4350 C   0  0  0  0  0  0  0  0  0  0  0  0
   -3.0510   -0.6710   -1.6260 N   0  0  0  0  0  0  0  0  0  0  0  0
   -1.7070   -0.6040   -1.5010 C   0  0  0  0  0  0  0  0  0  0  0  0
   -0.5580   -0.8260   -2.1820 N   0  0  0  0  0  0  0  0  0  0  0  0
    0.4700   -0.5270   -1.3880 N   0  0  0  0  0  0  0  0  0  0  0  0
   -0.0100   -0.1130   -0.2010 C   0  0  0  0  0  0  0  0  0  0  0  0
    0.9210    0.4180    1.2510 S   0  0  0  0  0  0  0  0  0  0  0  0
    2.6590    0.3360    0.9360 C   0  0  0  0  0  0  0  0  0  0  0  0
    3.4060   -0.7880    1.1900 C   0  0  0  0  0  0  0  0  0  0  0  0
    4.7560   -0.7780    0.9180 C   0  0  0  0  0  0  0  0  0  0  0  0
    5.4080    0.3190    0.3950 C   0  0  0  0  0  0  0  0  0  0  0  0
    6.7740    0.2890    0.1350 O   0  0  0  0  0  0  0  0  0  0  0  0
    4.6600    1.4430    0.1410 C   0  0  0  0  0  0  0  0  0  0  0  0
    3.2950    1.4390    0.4140 C   0  0  0  0  0  0  0  0  0  0  0  0
   -1.3490   -0.1710   -0.2980 N   0  0  0  0  0  0  0  0  0  0  0  0
  1  2  1  0
  2  3  1  0
  2  6  1  0
  3  4  2  0
  4  5  1  0
  5  6  2  0
  5 20  1  0
  6  7  1  0
  7  8  1  0
  8  9  2  0
  8 20  1  0
  9 10  1  0
 10 11  2  0
 11 12  1  0
 11 20  1  0
 12 13  1  0
 13 14  2  0
 13 19  1  0
 14 15  1  0
 15 16  2  0
 16 17  1  0
 16 18  1  0
 18 19  2  0
M  END
