
     RDKit          3D

 20 22  0  0  0  0  0  0  0  0999 V2000
    5.3280   -1.1260    1.3260 C   0  0  0  0  0  0  0  0  0  0  0  0
    4.4300   -0.4210    0.4380 N   0  0  0  0  0  0  0  0  0  0  0  0
    4.8710    0.3440   -0.5660 C   0  0  0  0  0  0  0  0  0  0  0  0
    3.9500    0.9840   -1.3670 C   0  0  0  0  0  0  0  0  0  0  0  0
    2.6260    0.8370   -1.1370 N   0  0  0  0  0  0  0  0  0  0  0  0
    2.1810    0.0790   -0.1420 C   0  0  0  0  0  0  0  0  0  0  0  0
    0.7010   -0.0500    0.0700 C   0  0  0  0  0  0  0  0  0  0  0  0
    0.2950   -0.8570    1.1280 N   0  0  0  0  0  0  0  0  0  0  0  0
   -1.5230   -0.7190    1.0040 S   0  0  0  0  0  0  0  0  0  0  0  0
   -1.5050    0.3110   -0.3320 C   0  0  0  0  0  0  0  0  0  0  0  0
   -2.5340    0.8470   -0.9950 N   0  0  0  0  0  0  0  0  0  0  0  0
   -3.8450    0.5450   -0.5650 C   0  0  0  0  0  0  0  0  0  0  0  0
   -4.7840    1.5000   -0.2660 C   0  0  0  0  0  0  0  0  0  0  0  0
   -6.0630    1.1330    0.1550 C   0  0  0  0  0  0  0  0  0  0  0  0
   -6.3760   -0.1760    0.2680 N   0  0  0  0  0  0  0  0  0  0  0  0
   -5.4890   -1.1320   -0.0140 C   0  0  0  0  0  0  0  0  0  0  0  0
   -4.2210   -0.7840   -0.4310 C   0  0  0  0  0  0  0  0  0  0  0  0
   -0.1980    0.5240   -0.6460 N   0  0  0  0  0  0  0  0  0  0  0  0
    3.0890   -0.5490    0.6450 C   0  0  0  0  0  0  0  0  0  0  0  0
    2.6800   -1.2720    1.5950 O   0  0  0  0  0  0  0  0  0  0  0  0
  1  2  1  0
  2  3  1  0
  2 19  1  0
  3  4  2  0
  4  5  1  0
  5  6  2  0
  6  7  1  0
  6 19  1  0
  7  8  2  0
  7 18  1  0
  8  9  1  0
  9 10  1  0
 10 11  2  3
 10 18  1  0
 11 12  1  0
 12 13  2  0
 12 17  1  0
 13 14  1  0
 14 15  2  0
 15 16  1  0
 16 17  2  0
 19 20  2  0
M  END
