
     RDKit          3D

 20 22  0  0  0  0  0  0  0  0999 V2000
    4.8450    1.0100   -1.5390 C   0  0  0  0  0  0  0  0  0  0  0  0
    4.7880   -0.1800   -0.6520 C   0  0  0  0  0  0  0  0  0  0  0  0
    5.7290   -1.0080   -0.6570 O   0  0  0  0  0  0  0  0  0  0  0  0
    3.6500   -0.4100    0.2320 C   0  0  0  0  0  0  0  0  0  0  0  0
    2.6250    0.4190    0.2900 C   0  0  0  0  0  0  0  0  0  0  0  0
    1.5380    0.1570    1.1650 N   0  0  0  0  0  0  0  0  0  0  0  0
    1.6650    0.6090    2.5480 C   0  0  0  0  0  0  0  0  0  0  0  0
    0.3590   -0.5100    0.7650 C   0  0  0  0  0  0  0  0  0  0  0  0
   -0.3650   -1.2380    1.5370 N   0  0  0  0  0  0  0  0  0  0  0  0
   -1.5520   -1.9440    1.2370 C   0  0  0  0  0  0  0  0  0  0  0  0
   -2.5010   -1.1810    0.4150 C   0  0  0  0  0  0  0  0  0  0  0  0
   -3.8570   -1.0310    0.4320 N   0  0  0  0  0  0  0  0  0  0  0  0
   -4.2650   -0.2290   -0.5580 C   0  0  0  0  0  0  0  0  0  0  0  0
   -5.4620    0.2290   -0.9720 N   0  0  0  0  0  0  0  0  0  0  0  0
   -5.5910    1.0510   -2.0310 C   0  0  0  0  0  0  0  0  0  0  0  0
   -4.4850    1.4210   -2.6900 N   0  0  0  0  0  0  0  0  0  0  0  0
   -3.2610    1.0040   -2.3350 N   0  0  0  0  0  0  0  0  0  0  0  0
   -3.1520    0.1850   -1.2760 C   0  0  0  0  0  0  0  0  0  0  0  0
   -2.0920   -0.4190   -0.6500 C   0  0  0  0  0  0  0  0  0  0  0  0
   -0.2970   -0.3880   -0.9320 S   0  0  0  0  0  0  0  0  0  0  0  0
  1  2  1  0
  2  3  2  0
  2  4  1  0
  4  5  2  3
  5  6  1  0
  6  7  1  0
  6  8  1  0
  8  9  2  0
  8 20  1  0
  9 10  1  0
 10 11  1  0
 11 12  1  0
 11 19  2  0
 12 13  1  0
 13 14  2  0
 13 18  1  0
 14 15  1  0
 15 16  2  0
 16 17  1  0
 17 18  2  0
 18 19  1  0
 19 20  1  0
M  END
