
     RDKit          3D

 20 23  0  0  0  0  0  0  0  0999 V2000
    0.7510   -0.8470   -1.0110 O   0  0  0  0  0  0  0  0  0  0  0  0
    0.7460    0.2820   -0.4480 C   0  0  0  0  0  0  0  0  0  0  0  0
   -0.3570    0.6630    0.3540 C   0  0  0  0  0  0  0  0  0  0  0  0
   -1.4860   -0.0220    0.6440 C   0  0  0  0  0  0  0  0  0  0  0  0
   -2.4150    0.5610    1.4510 C   0  0  0  0  0  0  0  0  0  0  0  0
   -1.7170    2.1390    1.8450 S   0  0  0  0  0  0  0  0  0  0  0  0
   -0.2010    1.9140    0.8880 C   0  0  0  0  0  0  0  0  0  0  0  0
    0.8700    2.7120    0.6860 N   0  0  0  0  0  0  0  0  0  0  0  0
    1.8860    2.2700   -0.0980 C   0  0  0  0  0  0  0  0  0  0  0  0
    1.8010    1.0580   -0.6520 N   0  0  0  0  0  0  0  0  0  0  0  0
    2.9140    0.5700   -1.5140 C   0  0  0  0  0  0  0  0  0  0  0  0
    3.8850   -0.1360   -0.6750 C   0  0  0  0  0  0  0  0  0  0  0  0
    3.9400   -1.4350   -0.3410 N   0  0  0  0  0  0  0  0  0  0  0  0
    4.9880   -1.6520    0.4420 N   0  0  0  0  0  0  0  0  0  0  0  0
    5.6170   -0.5050    0.6220 N   0  0  0  0  0  0  0  0  0  0  0  0
    4.9620    0.4180   -0.0460 N   0  0  0  0  0  0  0  0  0  0  0  0
   -3.6900   -0.0950    1.8380 C   0  0  0  0  0  0  0  0  0  0  0  0
   -4.3040   -0.7730    0.6610 C   0  0  0  0  0  0  0  0  0  0  0  0
   -3.3260   -1.2520   -0.3550 C   0  0  0  0  0  0  0  0  0  0  0  0
   -1.9250   -1.4170    0.1960 C   0  0  0  0  0  0  0  0  0  0  0  0
  1  2  2  0
  2  3  1  0
  2 10  1  0
  3  4  1  0
  3  7  2  0
  4  5  2  0
  4 20  1  0
  5  6  1  0
  5 17  1  0
  6  7  1  0
  7  8  1  0
  8  9  2  0
  9 10  1  0
 10 11  1  0
 11 12  1  0
 12 13  1  0
 12 16  2  0
 13 14  2  0
 14 15  1  0
 15 16  1  0
 17 18  1  0
 18 19  1  0
 19 20  1  0
M  END
