
     RDKit          3D

 14 14  0  0  0  0  0  0  0  0999 V2000
    3.3800    1.8790    1.1140 C   0  0  0  0  0  0  0  0  0  0  0  0
    2.5870    1.0920    0.4290 C   0  0  0  0  0  0  0  0  0  0  0  0
    1.1450    0.9950    0.7230 C   0  0  0  0  0  0  0  0  0  0  0  0
    0.4040    0.0100    0.2540 C   0  0  0  0  0  0  0  0  0  0  0  0
   -1.0400   -0.0600    0.5670 C   0  0  0  0  0  0  0  0  0  0  0  0
   -1.5970    0.7960    1.2730 O   0  0  0  0  0  0  0  0  0  0  0  0
   -1.7940   -1.0840    0.0750 O   0  0  0  0  0  0  0  0  0  0  0  0
   -3.1500   -1.2690    0.2890 C   0  0  0  0  0  0  0  0  0  0  0  0
   -4.0350   -0.1590   -0.1910 C   0  0  0  0  0  0  0  0  0  0  0  0
   -3.9160    0.0540   -1.5690 O   0  0  0  0  0  0  0  0  0  0  0  0
    1.0460   -0.9980   -0.5740 C   0  0  0  0  0  0  0  0  0  0  0  0
    0.3020   -1.8270   -1.1990 O   0  0  0  0  0  0  0  0  0  0  0  0
    2.5080   -1.0910   -0.7130 C   0  0  0  0  0  0  0  0  0  0  0  0
    3.1770    0.2700   -0.6860 C   0  0  0  0  0  0  0  0  0  0  0  0
  1  2  2  0
  2  3  1  0
  2 14  1  0
  3  4  2  0
  4  5  1  0
  4 11  1  0
  5  6  2  0
  5  7  1  0
  7  8  1  0
  8  9  1  0
  9 10  1  0
 11 12  2  0
 11 13  1  0
 13 14  1  0
M  END
