
     RDKit          3D

 13 13  0  0  0  0  0  0  0  0999 V2000
    4.6080   -0.1920    0.5340 C   0  0  0  0  0  0  0  0  0  0  0  0
    3.2370   -0.5030    0.2330 O   0  0  0  0  0  0  0  0  0  0  0  0
    2.5200    0.2410   -0.6780 C   0  0  0  0  0  0  0  0  0  0  0  0
    3.0670    1.2040   -1.2550 O   0  0  0  0  0  0  0  0  0  0  0  0
    1.1100   -0.0740   -0.9840 C   0  0  0  0  0  0  0  0  0  0  0  0
    0.2200    0.4990    0.1020 C   0  0  0  0  0  0  0  0  0  0  0  0
   -1.2030    0.2180   -0.1370 C   0  0  0  0  0  0  0  0  0  0  0  0
   -1.9870   -0.5010    0.6640 C   0  0  0  0  0  0  0  0  0  0  0  0
   -1.6720   -1.1240    1.8520 O   0  0  0  0  0  0  0  0  0  0  0  0
   -3.3790   -0.5730    0.0870 C   0  0  0  0  0  0  0  0  0  0  0  0
   -3.4330    0.6520   -0.8170 C   0  0  0  0  0  0  0  0  0  0  0  0
   -2.0090    0.6810   -1.2770 C   0  0  0  0  0  0  0  0  0  0  0  0
   -1.5050    1.0100   -2.3700 O   0  0  0  0  0  0  0  0  0  0  0  0
  1  2  1  0
  2  3  1  0
  3  4  2  0
  3  5  1  0
  5  6  1  0
  6  7  1  0
  7  8  2  0
  7 12  1  0
  8  9  1  0
  8 10  1  0
 10 11  1  0
 11 12  1  0
 12 13  2  0
M  END
