
     RDKit          3D

 14 14  0  0  0  0  0  0  0  0999 V2000
   -5.0510    0.5300    0.3520 C   0  0  0  0  0  0  0  0  0  0  0  0
   -3.9190    0.9140    1.0630 O   0  0  0  0  0  0  0  0  0  0  0  0
   -2.7520    0.7350    0.3300 C   0  0  0  0  0  0  0  0  0  0  0  0
   -2.5210   -0.6780   -0.0750 C   0  0  0  0  0  0  0  0  0  0  0  0
   -1.3280   -0.7850   -0.8120 O   0  0  0  0  0  0  0  0  0  0  0  0
   -0.0680   -0.4800   -0.3840 C   0  0  0  0  0  0  0  0  0  0  0  0
    0.0680   -0.0570    0.7930 O   0  0  0  0  0  0  0  0  0  0  0  0
    1.1450   -0.6240   -1.2430 C   0  0  0  0  0  0  0  0  0  0  0  0
    2.3460   -0.2090   -0.4730 C   0  0  0  0  0  0  0  0  0  0  0  0
    3.1140    0.7890   -0.8790 C   0  0  0  0  0  0  0  0  0  0  0  0
    4.3120    1.2250   -0.1370 C   0  0  0  0  0  0  0  0  0  0  0  0
    4.4920    0.4540    1.0030 O   0  0  0  0  0  0  0  0  0  0  0  0
    3.7050   -0.5830    1.4370 C   0  0  0  0  0  0  0  0  0  0  0  0
    2.6320   -0.9520    0.7460 C   0  0  0  0  0  0  0  0  0  0  0  0
  1  2  1  0
  2  3  1  0
  3  4  1  0
  4  5  1  0
  5  6  1  0
  6  7  2  0
  6  8  1  0
  8  9  1  0
  9 10  2  0
  9 14  1  0
 10 11  1  0
 11 12  1  0
 12 13  1  0
 13 14  2  0
M  END
