
     RDKit          3D

 14 15  0  0  0  0  0  0  0  0999 V2000
   -2.9250    1.4820    0.9140 C   0  0  0  0  0  0  0  0  0  0  0  0
   -2.2740    0.3850    0.1230 C   0  0  0  0  0  0  0  0  0  0  0  0
   -2.9130   -0.2630   -0.9220 C   0  0  0  0  0  0  0  0  0  0  0  0
   -2.0120   -1.1920   -1.3940 C   0  0  0  0  0  0  0  0  0  0  0  0
   -0.8710   -1.0770   -0.6260 C   0  0  0  0  0  0  0  0  0  0  0  0
    0.3280   -1.9120   -0.8310 C   0  0  0  0  0  0  0  0  0  0  0  0
    1.3690   -1.6510    0.0350 O   0  0  0  0  0  0  0  0  0  0  0  0
    2.0460   -0.4800    0.2020 C   0  0  0  0  0  0  0  0  0  0  0  0
    2.6200   -0.0800    1.3170 C   0  0  0  0  0  0  0  0  0  0  0  0
    3.2670    1.2250    1.1740 C   0  0  0  0  0  0  0  0  0  0  0  0
    3.0190    1.5780   -0.1690 O   0  0  0  0  0  0  0  0  0  0  0  0
    2.2870    0.5690   -0.7720 C   0  0  0  0  0  0  0  0  0  0  0  0
    1.9190    0.6130   -1.9790 O   0  0  0  0  0  0  0  0  0  0  0  0
   -1.0930   -0.1290    0.2490 O   0  0  0  0  0  0  0  0  0  0  0  0
  1  2  1  0
  2  3  2  0
  2 14  1  0
  3  4  1  0
  4  5  2  0
  5  6  1  0
  5 14  1  0
  6  7  1  0
  7  8  1  0
  8  9  2  0
  8 12  1  0
  9 10  1  0
 10 11  1  0
 11 12  1  0
 12 13  2  0
M  END
