
     RDKit          3D

 14 15  0  0  0  0  0  0  0  0999 V2000
    3.4550   -1.4250   -0.0770 C   0  0  0  0  0  0  0  0  0  0  0  0
    2.9110   -0.2640    0.0060 O   0  0  0  0  0  0  0  0  0  0  0  0
    1.8860    0.3650    0.4040 C   0  0  0  0  0  0  0  0  0  0  0  0
    0.4450    0.1730    0.1080 C   0  0  0  0  0  0  0  0  0  0  0  0
   -0.0570   -1.0960   -0.2140 C   0  0  0  0  0  0  0  0  0  0  0  0
   -1.4340   -1.2480   -0.3340 C   0  0  0  0  0  0  0  0  0  0  0  0
   -2.2950   -0.2140   -0.1470 C   0  0  0  0  0  0  0  0  0  0  0  0
   -1.7830    1.0140    0.1740 C   0  0  0  0  0  0  0  0  0  0  0  0
   -0.4130    1.2210    0.3010 C   0  0  0  0  0  0  0  0  0  0  0  0
    0.1380    2.5420    0.6910 C   0  0  0  0  0  0  0  0  0  0  0  0
    0.1120    3.4850   -0.3710 O   0  0  0  0  0  0  0  0  0  0  0  0
   -3.6220   -0.7100   -0.3320 O   0  0  0  0  0  0  0  0  0  0  0  0
   -3.5320   -2.1130   -0.1080 C   0  0  0  0  0  0  0  0  0  0  0  0
   -2.2280   -2.3950   -0.6460 O   0  0  0  0  0  0  0  0  0  0  0  0
  1  2  1  0
  2  3  1  0
  3  4  1  0
  4  5  2  0
  4  9  1  0
  5  6  1  0
  6  7  2  0
  6 14  1  0
  7  8  1  0
  7 12  1  0
  8  9  2  0
  9 10  1  0
 10 11  1  0
 12 13  1  0
 13 14  1  0
M  END
