
     RDKit          3D

 14 14  0  0  0  0  0  0  0  0999 V2000
   -2.9930    1.6300    1.0190 C   0  0  0  0  0  0  0  0  0  0  0  0
   -3.2160    0.3630    0.7110 C   0  0  0  0  0  0  0  0  0  0  0  0
   -4.4070   -0.2910    0.8480 O   0  0  0  0  0  0  0  0  0  0  0  0
   -4.2620   -1.6280    0.4190 C   0  0  0  0  0  0  0  0  0  0  0  0
   -2.8600   -1.7190    0.0060 C   0  0  0  0  0  0  0  0  0  0  0  0
   -2.2490   -0.5770    0.1710 C   0  0  0  0  0  0  0  0  0  0  0  0
   -0.9170   -0.2540   -0.1010 O   0  0  0  0  0  0  0  0  0  0  0  0
   -0.5830    0.5200   -1.2470 C   0  0  0  0  0  0  0  0  0  0  0  0
    0.8760    0.7410   -1.3390 C   0  0  0  0  0  0  0  0  0  0  0  0
    1.4400    1.3810   -2.2360 O   0  0  0  0  0  0  0  0  0  0  0  0
    1.6850    0.1900   -0.3440 O   0  0  0  0  0  0  0  0  0  0  0  0
    3.0690    0.3090   -0.2910 C   0  0  2  0  0  0  0  0  0  0  0  0
    3.7930   -1.0160   -0.3680 C   0  0  0  0  0  0  0  0  0  0  0  0
    3.5600    1.0160    0.9510 C   0  0  0  0  0  0  0  0  0  0  0  0
  1  2  2  0
  2  3  1  0
  2  6  1  0
  3  4  1  0
  4  5  1  0
  5  6  2  0
  6  7  1  0
  7  8  1  0
  8  9  1  0
  9 10  2  0
  9 11  1  0
 11 12  1  0
 12 13  1  1
 12 14  1  0
M  END
