
     RDKit          3D

 14 14  0  0  0  0  0  0  0  0999 V2000
    5.3950   -0.4080    0.5080 C   0  0  0  0  0  0  0  0  0  0  0  0
    4.5360    0.5870   -0.0310 O   0  0  0  0  0  0  0  0  0  0  0  0
    3.1890    0.3410   -0.2500 C   0  0  0  0  0  0  0  0  0  0  0  0
    2.7470   -0.7980    0.0450 O   0  0  0  0  0  0  0  0  0  0  0  0
    2.3170    1.3960   -0.8130 C   0  0  0  0  0  0  0  0  0  0  0  0
    0.9930    0.9060   -0.9410 O   0  0  0  0  0  0  0  0  0  0  0  0
    0.2790    0.4680    0.1400 C   0  0  0  0  0  0  0  0  0  0  0  0
    0.8150    0.5040    1.2740 O   0  0  0  0  0  0  0  0  0  0  0  0
   -1.0870   -0.0440    0.0500 C   0  0  0  0  0  0  0  0  0  0  0  0
   -1.7390   -0.1220   -1.0960 C   0  0  0  0  0  0  0  0  0  0  0  0
   -3.1000   -0.6370   -1.1580 C   0  0  0  0  0  0  0  0  0  0  0  0
   -3.9710   -0.2470   -0.0060 C   0  0  0  0  0  0  0  0  0  0  0  0
   -3.2300    0.0000    1.2710 C   0  0  0  0  0  0  0  0  0  0  0  0
   -1.8150   -0.5060    1.2570 C   0  0  0  0  0  0  0  0  0  0  0  0
  1  2  1  0
  2  3  1  0
  3  4  2  0
  3  5  1  0
  5  6  1  0
  6  7  1  0
  7  8  2  0
  7  9  1  0
  9 10  2  0
  9 14  1  0
 10 11  1  0
 11 12  1  0
 12 13  1  0
 13 14  1  0
M  END
