
     RDKit          3D

 14 15  0  0  0  0  0  0  0  0999 V2000
    1.3210    0.9460   -0.1560 O   0  0  0  0  0  0  0  0  0  0  0  0
    1.0980   -0.1160    0.4780 C   0  0  0  0  0  0  0  0  0  0  0  0
    2.1690   -0.7660    1.0110 O   0  0  0  0  0  0  0  0  0  0  0  0
    3.5140   -0.4390    0.9650 C   0  0  0  0  0  0  0  0  0  0  0  0
    4.1560   -0.3630   -0.3720 C   0  0  0  0  0  0  0  0  0  0  0  0
    3.6440    0.5450   -1.2530 O   0  0  0  0  0  0  0  0  0  0  0  0
   -0.2880   -0.5820    0.6020 C   0  0  0  0  0  0  0  0  0  0  0  0
   -0.7370   -1.6490    1.2120 O   0  0  0  0  0  0  0  0  0  0  0  0
   -2.0340   -1.7600    1.1270 C   0  0  0  0  0  0  0  0  0  0  0  0
   -2.5240   -0.6940    0.4050 C   0  0  0  0  0  0  0  0  0  0  0  0
   -1.4150    0.0530    0.0720 C   0  0  0  0  0  0  0  0  0  0  0  0
   -1.8240    1.2220   -0.7080 C   0  0  0  0  0  0  0  0  0  0  0  0
   -3.2840    1.3900   -0.3790 C   0  0  0  0  0  0  0  0  0  0  0  0
   -3.7610   -0.0350   -0.1500 C   0  0  0  0  0  0  0  0  0  0  0  0
  1  2  2  0
  2  3  1  0
  2  7  1  0
  3  4  1  0
  4  5  1  0
  5  6  1  0
  7  8  1  0
  7 11  2  0
  8  9  1  0
  9 10  2  0
 10 11  1  0
 10 14  1  0
 11 12  1  0
 12 13  1  0
 13 14  1  0
M  END
