
     RDKit          3D

 17 18  0  0  0  0  0  0  0  0999 V2000
   -4.2610    2.0540   -0.1520 C   0  0  0  0  0  0  0  0  0  0  0  0
   -5.0390    0.8510    0.1610 C   0  0  0  0  0  0  0  0  0  0  0  0
   -4.6680   -0.3880    0.2120 C   0  0  0  0  0  0  0  0  0  0  0  0
   -5.9180   -1.5860    0.6330 Cl  0  0  0  0  0  0  0  0  0  0  0  0
   -3.3350   -0.9180   -0.0350 C   0  0  0  0  0  0  0  0  0  0  0  0
   -2.1670   -0.2710   -0.3730 C   0  0  0  0  0  0  0  0  0  0  0  0
   -1.1480   -1.1860   -0.5080 C   0  0  0  0  0  0  0  0  0  0  0  0
    0.2700   -0.8540   -0.8690 C   0  0  0  0  0  0  0  0  0  0  0  0
    1.0170   -0.6080    0.3390 N   0  0  0  0  0  0  0  0  0  0  0  0
    2.4130   -0.2670    0.2680 C   0  0  0  0  0  0  0  0  0  0  0  0
    3.0160   -0.3610   -0.8660 N   0  0  0  0  0  0  0  0  0  0  0  0
    4.4190   -0.0170   -0.9310 C   0  0  0  0  0  0  0  0  0  0  0  0
    4.7900    1.1340   -0.0660 C   0  0  0  0  0  0  0  0  0  0  0  0
    4.1760    1.1450    1.2880 C   0  0  0  0  0  0  0  0  0  0  0  0
    3.1290    0.1620    1.3980 N   0  0  0  0  0  0  0  0  0  0  0  0
   -1.6930   -2.4130   -0.2500 C   0  0  0  0  0  0  0  0  0  0  0  0
   -2.9860   -2.2440    0.0290 N   0  0  0  0  0  0  0  0  0  0  0  0
  1  2  1  0
  2  3  2  3
  3  4  1  0
  3  5  1  0
  5  6  2  0
  5 17  1  0
  6  7  1  0
  7  8  1  0
  7 16  2  0
  8  9  1  0
  9 10  1  0
 10 11  2  0
 10 15  1  0
 11 12  1  0
 12 13  1  0
 13 14  1  0
 14 15  1  0
 16 17  1  0
M  END
