
     RDKit          3D

 18 20  0  0  0  0  0  0  0  0999 V2000
    3.0720   -1.9760   -1.0650 N   0  0  0  0  0  0  0  0  0  0  0  0
    3.4500   -1.0120   -0.0960 C   0  0  0  0  0  0  0  0  0  0  0  0
    4.6110   -1.0690    0.5750 N   0  0  0  0  0  0  0  0  0  0  0  0
    4.9450   -0.1440    1.4870 C   0  0  0  0  0  0  0  0  0  0  0  0
    4.1240    0.8820    1.7650 N   0  0  0  0  0  0  0  0  0  0  0  0
    2.9550    0.9670    1.1100 C   0  0  0  0  0  0  0  0  0  0  0  0
    1.9170    1.8370    1.1350 N   0  0  0  0  0  0  0  0  0  0  0  0
    0.9880    1.4610    0.2760 N   0  0  0  0  0  0  0  0  0  0  0  0
    1.3370    0.3410   -0.3640 C   0  0  0  0  0  0  0  0  0  0  0  0
    0.6500   -0.4550   -1.3960 C   0  0  0  0  0  0  0  0  0  0  0  0
   -0.5770    0.0830   -1.7400 O   0  0  0  0  0  0  0  0  0  0  0  0
   -1.4040    0.1430   -0.6600 C   0  0  1  0  0  0  0  0  0  0  0  0
   -2.0730    1.4420   -0.3820 C   0  0  0  0  0  0  0  0  0  0  0  0
   -2.6150    1.3330    1.0530 C   0  0  0  0  0  0  0  0  0  0  0  0
   -3.6320    0.2180    1.1090 C   0  0  0  0  0  0  0  0  0  0  0  0
   -3.0710   -1.0820    0.6070 C   0  0  0  0  0  0  0  0  0  0  0  0
   -2.5730   -0.8740   -0.8100 C   0  0  0  0  0  0  0  0  0  0  0  0
    2.5860    0.0200    0.1600 C   0  0  0  0  0  0  0  0  0  0  0  0
  1  2  1  0
  2  3  2  0
  2 18  1  0
  3  4  1  0
  4  5  2  0
  5  6  1  0
  6  7  1  0
  6 18  2  0
  7  8  1  0
  8  9  2  0
  9 10  1  0
  9 18  1  0
 10 11  1  0
 12 11  1  6
 12 13  1  0
 12 17  1  0
 13 14  1  0
 14 15  1  0
 15 16  1  0
 16 17  1  0
M  END
