
     RDKit          3D

 17 18  0  0  0  0  0  0  0  0999 V2000
   -2.7760   -0.8900    1.6630 C   0  0  0  0  0  0  0  0  0  0  0  0
   -2.1690   -1.1370    0.3060 C   0  0  1  0  0  0  0  0  0  0  0  0
   -3.2040   -1.1410   -0.8010 C   0  0  0  0  0  0  0  0  0  0  0  0
   -3.7250    0.2600   -0.9090 C   0  0  0  0  0  0  0  0  0  0  0  0
   -2.6180    1.1840   -1.2980 C   0  0  0  0  0  0  0  0  0  0  0  0
   -1.2790    0.8570   -0.7840 C   0  0  0  0  0  0  0  0  0  0  0  0
   -1.0840   -0.3160   -0.0410 N   0  0  0  0  0  0  0  0  0  0  0  0
   -0.2550   -0.0790    1.1320 C   0  0  0  0  0  0  0  0  0  0  0  0
    1.1530    0.2340    0.7180 C   0  0  0  0  0  0  0  0  0  0  0  0
    1.7660    1.3280    0.9430 N   0  0  0  0  0  0  0  0  0  0  0  0
    3.0820    1.3080    0.4230 C   0  0  0  0  0  0  0  0  0  0  0  0
    4.0010    2.2600    0.4680 C   0  0  0  0  0  0  0  0  0  0  0  0
    5.2940    2.0810   -0.1120 N   0  0  0  0  0  0  0  0  0  0  0  0
    3.2520   -0.0140   -0.2050 C   0  0  0  0  0  0  0  0  0  0  0  0
    4.2900   -0.4750   -0.8050 N   0  0  0  0  0  0  0  0  0  0  0  0
    1.9920   -0.6680    0.0070 N   0  0  0  0  0  0  0  0  0  0  0  0
    1.6850   -2.0090   -0.4420 C   0  0  0  0  0  0  0  0  0  0  0  0
  2  1  1  1
  2  3  1  0
  2  7  1  0
  3  4  1  0
  4  5  1  0
  5  6  1  0
  6  7  1  0
  7  8  1  0
  8  9  1  0
  9 10  2  0
  9 16  1  0
 10 11  1  0
 11 12  2  3
 11 14  1  0
 12 13  1  0
 14 15  2  0
 14 16  1  0
 16 17  1  0
M  END
