
     RDKit          3D

 18 20  0  0  0  0  0  0  0  0999 V2000
    0.8840   -0.4090   -1.3460 O   0  0  0  0  0  0  0  0  0  0  0  0
    0.6570    0.5850   -0.6130 C   0  0  0  0  0  0  0  0  0  0  0  0
    1.6890    1.5530   -0.4960 N   0  0  0  0  0  0  0  0  0  0  0  0
    2.9470    1.3900   -1.2010 C   0  0  0  0  0  0  0  0  0  0  0  0
    3.6250    0.1220   -0.7770 C   0  0  0  0  0  0  0  0  0  0  0  0
    3.9210   -0.8790   -1.6110 C   0  0  0  0  0  0  0  0  0  0  0  0
    4.5800   -1.9460   -0.8200 C   0  0  0  0  0  0  0  0  0  0  0  0
    4.6030   -1.3940    0.5410 C   0  0  0  0  0  0  0  0  0  0  0  0
    4.0590   -0.2340    0.5250 N   0  0  0  0  0  0  0  0  0  0  0  0
   -0.5840    0.7020    0.0520 N   0  0  0  0  0  0  0  0  0  0  0  0
   -1.6450   -0.2350   -0.0300 C   0  0  0  0  0  0  0  0  0  0  0  0
   -1.6830   -1.4210   -0.7260 C   0  0  0  0  0  0  0  0  0  0  0  0
   -2.8880   -1.9940   -0.5160 N   0  0  0  0  0  0  0  0  0  0  0  0
   -3.5750   -1.1990    0.2790 N   0  0  0  0  0  0  0  0  0  0  0  0
   -2.8440   -0.1180    0.5930 C   0  0  0  0  0  0  0  0  0  0  0  0
   -3.3630    0.9630    1.4710 C   0  0  2  0  0  0  0  0  0  0  0  0
   -4.6420    0.8820    2.1710 C   0  0  0  0  0  0  0  0  0  0  0  0
   -4.6330    1.5960    0.8660 C   0  0  0  0  0  0  0  0  0  0  0  0
  1  2  2  0
  2  3  1  0
  2 10  1  0
  3  4  1  0
  4  5  1  0
  5  6  2  0
  5  9  1  0
  6  7  1  0
  7  8  1  0
  8  9  2  0
 10 11  1  0
 11 12  2  0
 11 15  1  0
 12 13  1  0
 13 14  1  0
 14 15  2  0
 16 15  1  6
 16 17  1  0
 16 18  1  0
 17 18  1  0
M  END
