
     RDKit          3D

 17 18  0  0  0  0  0  0  0  0999 V2000
   -5.3450    1.1930   -1.1140 C   0  0  0  0  0  0  0  0  0  0  0  0
   -4.7780    0.7510    0.2030 C   0  0  0  0  0  0  0  0  0  0  0  0
   -3.4220    0.1850    0.0970 C   0  0  0  0  0  0  0  0  0  0  0  0
   -3.0780   -1.1460   -0.1140 C   0  0  0  0  0  0  0  0  0  0  0  0
   -1.7320   -1.2520   -0.1480 N   0  0  0  0  0  0  0  0  0  0  0  0
   -1.2340   -0.0230    0.0370 C   0  0  0  0  0  0  0  0  0  0  0  0
    0.2430    0.2900    0.0680 C   0  0  0  0  0  0  0  0  0  0  0  0
    1.0130   -0.9450   -0.1310 C   0  0  0  0  0  0  0  0  0  0  0  0
    2.4620   -0.8920   -0.1400 C   0  0  0  0  0  0  0  0  0  0  0  0
    3.1020   -2.1370   -0.3040 C   0  0  0  0  0  0  0  0  0  0  0  0
    4.4380   -2.2500   -0.3320 N   0  0  0  0  0  0  0  0  0  0  0  0
    5.2150   -1.1660   -0.2020 C   0  0  0  0  0  0  0  0  0  0  0  0
    4.6290    0.0650   -0.0410 C   0  0  0  0  0  0  0  0  0  0  0  0
    5.4130    1.2490    0.1010 N   0  0  0  0  0  0  0  0  0  0  0  0
    3.2440    0.2270   -0.0070 C   0  0  0  0  0  0  0  0  0  0  0  0
    2.5110    1.7960    0.1980 Cl  0  0  0  0  0  0  0  0  0  0  0  0
   -2.2450    0.8490    0.1860 N   0  0  0  0  0  0  0  0  0  0  0  0
  1  2  1  0
  2  3  1  0
  3  4  2  0
  3 17  1  0
  4  5  1  0
  5  6  2  0
  6  7  1  0
  6 17  1  0
  7  8  1  0
  8  9  1  0
  9 10  2  0
  9 15  1  0
 10 11  1  0
 11 12  2  0
 12 13  1  0
 13 14  1  0
 13 15  2  0
 15 16  1  0
M  END
