
     RDKit          3D

 21 23  0  0  0  0  0  0  0  0999 V2000
   -1.5480    3.1520   -0.4620 C   0  0  0  0  0  0  0  0  0  0  0  0
   -0.9830    1.9030   -1.6500 S   0  0  0  0  0  0  0  0  0  0  0  0
    0.1920    0.8500   -0.7750 C   0  0  0  0  0  0  0  0  0  0  0  0
    1.4790    1.2440   -0.8240 N   0  0  0  0  0  0  0  0  0  0  0  0
    2.4750    0.5660   -0.2230 C   0  0  0  0  0  0  0  0  0  0  0  0
    3.7910    0.9480   -0.2580 C   0  0  0  0  0  0  0  0  0  0  0  0
    4.7460    0.2040    0.3790 C   0  0  0  0  0  0  0  0  0  0  0  0
    4.3620   -0.9270    1.0520 C   0  0  0  0  0  0  0  0  0  0  0  0
    3.0420   -1.3130    1.0900 C   0  0  0  0  0  0  0  0  0  0  0  0
    2.0710   -0.5900    0.4630 C   0  0  0  0  0  0  0  0  0  0  0  0
    0.7530   -0.9930    0.5120 C   0  0  0  0  0  0  0  0  0  0  0  0
    0.4670   -2.0520    1.1540 O   0  0  0  0  0  0  0  0  0  0  0  0
   -0.1890   -0.2610   -0.1150 N   0  0  0  0  0  0  0  0  0  0  0  0
   -1.5360   -0.6360   -0.0900 C   0  0  0  0  0  0  0  0  0  0  0  0
   -1.9800   -1.5680   -1.0050 C   0  0  0  0  0  0  0  0  0  0  0  0
   -1.1410   -2.1300   -1.9290 F   0  0  0  0  0  0  0  0  0  0  0  0
   -3.3140   -1.9130   -0.9490 C   0  0  0  0  0  0  0  0  0  0  0  0
   -4.1900   -1.3680   -0.0320 C   0  0  0  0  0  0  0  0  0  0  0  0
   -3.6840   -0.4270    0.8720 C   0  0  0  0  0  0  0  0  0  0  0  0
   -2.3570   -0.0520    0.8530 C   0  0  0  0  0  0  0  0  0  0  0  0
   -1.9050    0.8700    1.7530 F   0  0  0  0  0  0  0  0  0  0  0  0
  1  2  1  0
  2  3  1  0
  3  4  2  0
  3 13  1  0
  4  5  1  0
  5  6  2  0
  5 10  1  0
  6  7  1  0
  7  8  2  0
  8  9  1  0
  9 10  2  0
 10 11  1  0
 11 12  2  0
 11 13  1  0
 13 14  1  0
 14 15  2  0
 14 20  1  0
 15 16  1  0
 15 17  1  0
 17 18  2  0
 18 19  1  0
 19 20  2  0
 20 21  1  0
M  END
