
     RDKit          3D

  7  6  0  0  0  0  0  0  0  0999 V2000
   -2.2930    0.1570   -0.3100 C   0  0  0  0  0  0  0  0  0  0  0  0
   -0.9610    0.3810   -0.5370 O   0  0  0  0  0  0  0  0  0  0  0  0
   -0.1940    0.2340    0.6220 C   0  0  0  0  0  0  0  0  0  0  0  0
    1.1410    0.4570    0.4040 O   0  0  0  0  0  0  0  0  0  0  0  0
    1.6850   -0.3420   -0.4660 O   0  0  0  0  0  0  0  0  0  0  0  0
    2.5020    0.4120   -1.2070 O   0  0  0  0  0  0  0  0  0  0  0  0
    3.6180    0.5270   -0.5050 O   0  0  0  0  0  0  0  0  0  0  0  0
  1  2  1  0
  2  3  1  0
  3  4  1  0
  4  5  1  0
  5  6  1  0
  6  7  1  0
M  END
