
     RDKit          3D

  7  6  0  0  0  0  0  0  0  0999 V2000
    0.5320   -0.2890    1.6740 O   0  0  0  0  0  0  0  0  0  0  0  0
    0.5210   -0.2090    0.4850 C   0  0  0  0  0  0  0  0  0  0  0  0
   -0.8190   -0.5360   -0.2640 C   0  0  0  0  0  0  0  0  0  0  0  0
   -1.7400   -0.0180    0.6270 O   0  0  0  0  0  0  0  0  0  0  0  0
   -2.4190    1.0050    0.1000 O   0  0  0  0  0  0  0  0  0  0  0  0
    1.5130    0.1960   -0.3750 O   0  0  0  0  0  0  0  0  0  0  0  0
    2.6740    0.5560    0.0800 O   0  0  0  0  0  0  0  0  0  0  0  0
  1  2  2  0
  2  3  1  0
  2  6  1  0
  3  4  1  0
  4  5  1  0
  6  7  1  0
M  END
