
     RDKit          3D

  7  6  0  0  0  0  0  0  0  0999 V2000
    3.0760   -0.9310   -0.1890 O   0  0  0  0  0  0  0  0  0  0  0  0
    2.5190    0.0860    0.2970 C   0  0  0  0  0  0  0  0  0  0  0  0
    1.1520    0.2450    0.1410 O   0  0  0  0  0  0  0  0  0  0  0  0
    0.4510   -0.6780   -0.5200 O   0  0  0  0  0  0  0  0  0  0  0  0
   -0.8970   -0.5790   -0.2580 C   0  0  0  0  0  0  0  0  0  0  0  0
   -1.4110    0.6740   -0.6310 O   0  0  0  0  0  0  0  0  0  0  0  0
   -2.6780    0.7790   -0.3890 O   0  0  0  0  0  0  0  0  0  0  0  0
  1  2  2  0
  2  3  1  0
  3  4  1  0
  4  5  1  0
  5  6  1  0
  6  7  1  0
M  END
