
     RDKit          3D

  7  7  0  0  0  0  0  0  0  0999 V2000
   -0.8990    0.4620    0.0440 C   0  0  0  0  0  0  0  0  0  0  0  0
   -0.2370   -0.8780   -0.2830 C   0  0  0  0  0  0  0  0  0  0  0  0
    0.5550   -1.1860    0.8370 O   0  0  0  0  0  0  0  0  0  0  0  0
    1.0710   -0.0180    1.2250 O   0  0  0  0  0  0  0  0  0  0  0  0
    1.8110    0.4990    0.2910 O   0  0  0  0  0  0  0  0  0  0  0  0
    1.1550    0.9710   -0.7210 O   0  0  0  0  0  0  0  0  0  0  0  0
   -0.0290    1.4450   -0.4230 O   0  0  0  0  0  0  0  0  0  0  0  0
  1  2  1  0
  1  7  1  0
  2  3  1  0
  3  4  1  0
  4  5  1  0
  5  6  1  0
  6  7  1  0
M  END
