
     RDKit          3D

 13 12  0  0  0  0  0  0  0  0999 V2000
   -3.3520   -1.3550   -1.0970 O   0  0  0  0  0  0  0  0  0  0  0  0
   -2.6710   -0.2860    0.0820 P   0  0  0  0  0  0  0  0  0  0  0  0
   -3.3220   -1.1890    1.1370 O   0  0  0  0  0  0  0  0  0  0  0  0
   -3.6310    0.9770    0.5000 O   0  0  0  0  0  0  0  0  0  0  0  0
   -1.1230   -0.4760    0.5500 N   0  0  0  0  0  0  0  0  0  0  0  0
    0.0260    0.8150    0.2030 P   0  0  0  0  0  0  0  0  0  0  0  0
    0.2430    0.1810   -1.1580 O   0  0  0  0  0  0  0  0  0  0  0  0
   -0.6290    2.2160   -0.3680 O   0  0  0  0  0  0  0  0  0  0  0  0
    1.5170    0.6710    0.7380 O   0  0  0  0  0  0  0  0  0  0  0  0
    2.7060    0.0060   -0.1400 P   0  0  0  0  0  0  0  0  0  0  0  0
    2.3420   -1.2510   -1.2140 O   0  0  0  0  0  0  0  0  0  0  0  0
    3.0350   -1.0370    0.9220 O   0  0  0  0  0  0  0  0  0  0  0  0
    4.2060    0.6460   -0.1700 O   0  0  0  0  0  0  0  0  0  0  0  0
  1  2  1  0
  2  3  1  0
  2  4  1  0
  2  5  1  0
  5  6  1  0
  6  7  1  0
  6  8  1  0
  6  9  1  0
  9 10  1  0
 10 11  1  0
 10 12  1  0
 10 13  1  0
M  END
