
     RDKit          3D

  7  6  0  0  0  0  0  0  0  0999 V2000
   -2.6570    1.1130   -0.0600 O   0  0  0  0  0  0  0  0  0  0  0  0
   -2.0600    0.0450    0.4020 O   0  0  0  0  0  0  0  0  0  0  0  0
   -0.9980   -0.3820   -0.3700 C   0  0  0  0  0  0  0  0  0  0  0  0
    0.2650   -0.1160    0.4280 C   0  0  0  0  0  0  0  0  0  0  0  0
    1.3440   -0.8420   -0.0420 O   0  0  0  0  0  0  0  0  0  0  0  0
    2.2120   -0.1350   -0.7120 O   0  0  0  0  0  0  0  0  0  0  0  0
    2.9860    0.4990    0.1560 O   0  0  0  0  0  0  0  0  0  0  0  0
  1  2  1  0
  2  3  1  0
  3  4  1  0
  4  5  1  0
  5  6  1  0
  6  7  1  0
M  END
