
     RDKit          3D

  7  6  0  0  0  0  0  0  0  0999 V2000
    0.8760    0.6310   -1.5840 O   0  0  0  0  0  0  0  0  0  0  0  0
    0.5710    0.1720   -0.4550 C   0  0  0  0  0  0  0  0  0  0  0  0
    1.6080   -0.2050    0.3790 O   0  0  0  0  0  0  0  0  0  0  0  0
    2.8700   -0.0690   -0.0440 O   0  0  0  0  0  0  0  0  0  0  0  0
   -1.1920    0.0090    0.0700 P   0  0  0  0  0  0  0  0  0  0  0  0
   -1.8360   -1.3820   -0.7210 O   0  0  0  0  0  0  0  0  0  0  0  0
   -2.0110    1.4300   -0.4760 O   0  0  0  0  0  0  0  0  0  0  0  0
  1  2  2  0
  2  3  1  0
  2  5  1  0
  3  4  1  0
  5  6  1  0
  5  7  1  0
M  END
