
     RDKit          3D

  7  6  0  0  0  0  0  0  0  0999 V2000
   -2.0640   -0.0780    0.2160 C   0  0  0  0  0  0  0  0  0  0  0  0
   -1.2690   -0.0760   -0.9100 O   0  0  0  0  0  0  0  0  0  0  0  0
   -0.1550   -0.7380   -0.7810 O   0  0  0  0  0  0  0  0  0  0  0  0
    1.1860    0.3610   -0.6970 P   0  0  0  0  0  0  0  0  0  0  0  0
    0.6760    1.8930   -0.0350 O   0  0  0  0  0  0  0  0  0  0  0  0
    2.3850   -0.2930    0.3730 O   0  0  0  0  0  0  0  0  0  0  0  0
    2.8410   -1.4460   -0.0200 O   0  0  0  0  0  0  0  0  0  0  0  0
  1  2  1  0
  2  3  1  0
  3  4  1  0
  4  5  1  0
  4  6  1  0
  6  7  1  0
M  END
