
     RDKit          3D

  7  6  0  0  0  0  0  0  0  0999 V2000
   -2.1400    0.0620   -0.0750 C   0  0  0  0  0  0  0  0  0  0  0  0
   -1.3130   -0.3450   -1.1210 O   0  0  0  0  0  0  0  0  0  0  0  0
   -0.2020   -0.8360   -0.5980 O   0  0  0  0  0  0  0  0  0  0  0  0
    0.9000   -0.0400   -0.2750 C   0  0  0  0  0  0  0  0  0  0  0  0
    0.8360    1.1810   -0.4870 O   0  0  0  0  0  0  0  0  0  0  0  0
    2.0550   -0.5630    0.2720 O   0  0  0  0  0  0  0  0  0  0  0  0
    3.1270    0.1780    0.5910 O   0  0  0  0  0  0  0  0  0  0  0  0
  1  2  1  0
  2  3  1  0
  3  4  1  0
  4  5  2  0
  4  6  1  0
  6  7  1  0
M  END
