
     RDKit          3D

 28 31  0  0  0  0  0  0  0  0999 V2000
   -5.4470   -4.2390    0.2200 C   0  0  0  0  0  0  0  0  0  0  0  0
   -4.0500   -3.6690    0.2210 C   0  0  0  0  0  0  0  0  0  0  0  0
   -2.9520   -4.4970    0.2700 C   0  0  0  0  0  0  0  0  0  0  0  0
   -1.6920   -3.9670    0.2700 C   0  0  0  0  0  0  0  0  0  0  0  0
   -1.5030   -2.5790    0.2200 C   0  0  0  0  0  0  0  0  0  0  0  0
   -0.1260   -2.0640    0.2230 C   0  0  0  0  0  0  0  0  0  0  0  0
    0.9800   -2.8690    0.2710 N   0  0  0  0  0  0  0  0  0  0  0  0
    2.0490   -2.1370    0.2600 O   0  0  0  0  0  0  0  0  0  0  0  0
    1.7230   -0.8690    0.2070 C   0  0  0  0  0  0  0  0  0  0  0  0
    2.6560    0.2590    0.1790 C   0  0  0  0  0  0  0  0  0  0  0  0
    2.2120    1.5590    0.1220 C   0  0  0  0  0  0  0  0  0  0  0  0
    3.1530    2.5670    0.0990 C   0  0  0  0  0  0  0  0  0  0  0  0
    4.5160    2.3280    0.1300 C   0  0  0  0  0  0  0  0  0  0  0  0
    4.9490    1.0290    0.1860 C   0  0  0  0  0  0  0  0  0  0  0  0
    4.0060    0.0080    0.2100 C   0  0  0  0  0  0  0  0  0  0  0  0
    6.3050    0.7920    0.2170 O   0  0  0  0  0  0  0  0  0  0  0  0
    7.2300    1.8370   -0.1130 C   0  0  0  0  0  0  0  0  0  0  0  0
    6.7390    3.0940    0.5900 C   0  0  0  0  0  0  0  0  0  0  0  0
    5.4350    3.3880    0.1040 O   0  0  0  0  0  0  0  0  0  0  0  0
    0.3830   -0.8400    0.1840 N   0  0  0  0  0  0  0  0  0  0  0  0
   -2.6130   -1.7700    0.1720 C   0  0  0  0  0  0  0  0  0  0  0  0
   -2.5080   -0.3550    0.1200 N   0  0  0  0  0  0  0  0  0  0  0  0
   -3.6920    0.4360    0.0710 C   0  0  0  0  0  0  0  0  0  0  0  0
   -3.4810    1.8430    0.0210 N   0  0  1  0  0  0  0  0  0  0  0  0
   -2.2520    2.2790    0.6230 C   0  0  0  0  0  0  0  0  0  0  0  0
   -3.5700    2.2580   -1.3830 C   0  0  0  0  0  0  0  0  0  0  0  0
   -4.4920    2.5100    0.6600 O   0  0  0  0  0  0  0  0  0  0  0  0
   -3.8420   -2.3560    0.1740 N   0  0  0  0  0  0  0  0  0  0  0  0
  1  2  1  0
  2  3  2  0
  2 28  1  0
  3  4  1  0
  4  5  2  0
  5  6  1  0
  5 21  1  0
  6  7  2  0
  6 20  1  0
  7  8  1  0
  8  9  1  0
  9 10  1  0
  9 20  2  0
 10 11  2  0
 10 15  1  0
 11 12  1  0
 12 13  2  0
 13 14  1  0
 13 19  1  0
 14 15  2  0
 14 16  1  0
 16 17  1  0
 17 18  1  0
 18 19  1  0
 21 22  1  0
 21 28  2  0
 22 23  1  0
 23 24  1  0
 24 25  1  1
 24 26  1  0
 24 27  1  0
M  CHG  2  24   1  27  -1
M  END
