
     RDKit          3D

 28 31  0  0  0  0  0  0  0  0999 V2000
    2.5920   -2.3310   -0.4110 O   0  0  0  0  0  0  0  0  0  0  0  0
    1.4940   -1.7520   -0.4740 C   0  0  0  0  0  0  0  0  0  0  0  0
    0.3940   -2.3930    0.0330 C   0  0  0  0  0  0  0  0  0  0  0  0
    0.4470   -3.6450    0.6090 C   0  0  0  0  0  0  0  0  0  0  0  0
   -0.6730   -4.2760    1.1150 C   0  0  0  0  0  0  0  0  0  0  0  0
   -1.8730   -3.5930    1.0210 C   0  0  0  0  0  0  0  0  0  0  0  0
   -1.9210   -2.3710    0.4600 N   0  0  0  0  0  0  0  0  0  0  0  0
   -0.8220   -1.7500   -0.0380 C   0  0  0  0  0  0  0  0  0  0  0  0
   -0.8870   -0.5290   -0.5960 N   0  0  0  0  0  0  0  0  0  0  0  0
   -2.1520    0.1140   -0.6580 C   0  0  0  0  0  0  0  0  0  0  0  0
   -3.2200   -0.5560   -1.2170 C   0  0  0  0  0  0  0  0  0  0  0  0
   -4.4380    0.0860   -1.2670 C   0  0  0  0  0  0  0  0  0  0  0  0
   -4.6280    1.3610   -0.7840 C   0  0  0  0  0  0  0  0  0  0  0  0
   -3.5640    2.0410   -0.2210 C   0  0  0  0  0  0  0  0  0  0  0  0
   -3.7330    3.3640    0.2880 N   0  0  0  0  0  0  0  0  0  0  0  0
   -2.7570    3.9460    0.7870 O   0  0  0  0  0  0  0  0  0  0  0  0
   -4.9420    4.0050    0.2400 O   0  0  0  0  0  0  0  0  0  0  0  0
   -2.3470    1.4000   -0.1700 C   0  0  0  0  0  0  0  0  0  0  0  0
    0.2370    0.0590   -1.0830 C   0  0  0  0  0  0  0  0  0  0  0  0
    0.1070    1.2110   -1.5970 O   0  0  0  0  0  0  0  0  0  0  0  0
    1.4510   -0.5150   -1.0430 N   0  0  0  0  0  0  0  0  0  0  0  0
    2.6370    0.1290   -1.5680 C   0  0  0  0  0  0  0  0  0  0  0  0
    3.3610    0.9550   -0.5920 C   0  0  0  0  0  0  0  0  0  0  0  0
    3.0770    2.2920   -0.4410 C   0  0  0  0  0  0  0  0  0  0  0  0
    3.7550    3.0510    0.4690 C   0  0  0  0  0  0  0  0  0  0  0  0
    4.7060    2.5310    1.2350 N   0  0  0  0  0  0  0  0  0  0  0  0
    5.0070    1.2280    1.1130 C   0  0  0  0  0  0  0  0  0  0  0  0
    4.3460    0.4090    0.2000 C   0  0  0  0  0  0  0  0  0  0  0  0
  1  2  2  0
  2  3  1  0
  2 21  1  0
  3  4  2  0
  3  8  1  0
  4  5  1  0
  5  6  2  0
  6  7  1  0
  7  8  2  0
  8  9  1  0
  9 10  1  0
  9 19  1  0
 10 11  2  0
 10 18  1  0
 11 12  1  0
 12 13  2  0
 13 14  1  0
 14 15  1  0
 14 18  2  0
 15 16  2  0
 15 17  1  0
 19 20  2  0
 19 21  1  0
 21 22  1  0
 22 23  1  0
 23 24  2  0
 23 28  1  0
 24 25  1  0
 25 26  2  0
 26 27  1  0
 27 28  2  0
M  CHG  2  15   1  17  -1
M  END
