
     RDKit          3D

 28 31  0  0  0  0  0  0  0  0999 V2000
   -6.7090   -2.6380   -0.7150 C   0  0  0  0  0  0  0  0  0  0  0  0
   -5.1990   -2.5620   -0.6260 C   0  0  0  0  0  0  0  0  0  0  0  0
   -4.8060   -1.1350   -0.4600 C   0  0  0  0  0  0  0  0  0  0  0  0
   -5.6760   -0.2290   -0.4170 O   0  0  0  0  0  0  0  0  0  0  0  0
   -3.4250   -0.7600   -0.3470 N   0  0  0  0  0  0  0  0  0  0  0  0
   -3.0990    0.6220   -0.1900 C   0  0  0  0  0  0  0  0  0  0  0  0
   -4.1140    1.5430   -0.1530 N   0  0  0  0  0  0  0  0  0  0  0  0
   -3.8950    2.8550   -0.0090 C   0  0  0  0  0  0  0  0  0  0  0  0
   -5.0090    3.8370    0.0290 C   0  0  0  0  0  0  0  0  0  0  0  0
   -5.3360    4.3140   -1.2320 O   0  0  0  0  0  0  0  0  0  0  0  0
   -2.5830    3.2620    0.1040 C   0  0  0  0  0  0  0  0  0  0  0  0
   -1.5450    2.3630    0.0700 C   0  0  0  0  0  0  0  0  0  0  0  0
   -1.7800    0.9870   -0.0820 C   0  0  0  0  0  0  0  0  0  0  0  0
   -0.6650    0.0590   -0.1140 C   0  0  0  0  0  0  0  0  0  0  0  0
    0.6350    0.4670   -0.0030 N   0  0  0  0  0  0  0  0  0  0  0  0
    1.4500   -0.5970   -0.0650 C   0  0  0  0  0  0  0  0  0  0  0  0
    2.9160   -0.5690    0.0170 C   0  0  0  0  0  0  0  0  0  0  0  0
    3.6330   -1.7440   -0.0620 C   0  0  0  0  0  0  0  0  0  0  0  0
    5.0170   -1.7680    0.0110 C   0  0  0  0  0  0  0  0  0  0  0  0
    5.6890   -0.5700    0.1680 C   0  0  0  0  0  0  0  0  0  0  0  0
    4.9910    0.6240    0.2500 C   0  0  0  0  0  0  0  0  0  0  0  0
    3.6170    0.5990    0.1730 C   0  0  0  0  0  0  0  0  0  0  0  0
    5.9020    1.5500    0.3930 O   0  0  0  0  0  0  0  0  0  0  0  0
    7.0910    1.0460    0.4070 C   0  0  0  0  0  0  0  0  0  0  0  0
    6.9910   -0.3050    0.2660 N   0  0  0  0  0  0  0  0  0  0  0  0
    8.1170   -1.2270    0.2340 C   0  0  0  0  0  0  0  0  0  0  0  0
    0.6510   -1.6580   -0.2160 N   0  0  0  0  0  0  0  0  0  0  0  0
   -0.5620   -1.2280   -0.2380 O   0  0  0  0  0  0  0  0  0  0  0  0
  1  2  1  0
  2  3  1  0
  3  4  2  0
  3  5  1  0
  5  6  1  0
  6  7  2  0
  6 13  1  0
  7  8  1  0
  8  9  1  0
  8 11  2  0
  9 10  1  0
 11 12  1  0
 12 13  2  0
 13 14  1  0
 14 15  2  0
 14 28  1  0
 15 16  1  0
 16 17  1  0
 16 27  2  0
 17 18  2  0
 17 22  1  0
 18 19  1  0
 19 20  2  0
 20 21  1  0
 20 25  1  0
 21 22  2  0
 21 23  1  0
 23 24  1  0
 24 25  2  0
 25 26  1  0
 27 28  1  0
M  CHG  2  10  -1  25   1
M  END
