
     RDKit          3D

 27 30  0  0  0  0  0  0  0  0999 V2000
    5.9580   -1.8020   -1.6380 C   0  0  0  0  0  0  0  0  0  0  0  0
    4.8640   -1.2050   -1.0090 O   0  0  0  0  0  0  0  0  0  0  0  0
    4.9350   -0.3040    0.0320 C   0  0  0  0  0  0  0  0  0  0  0  0
    6.1570    0.1080    0.5710 C   0  0  0  0  0  0  0  0  0  0  0  0
    6.2260    1.0100    1.6130 C   0  0  0  0  0  0  0  0  0  0  0  0
    7.4410    1.4280    2.1580 O   0  0  0  0  0  0  0  0  0  0  0  0
    5.0310    1.4960    2.1080 C   0  0  0  0  0  0  0  0  0  0  0  0
    3.8240    1.0950    1.5840 C   0  0  0  0  0  0  0  0  0  0  0  0
    3.7590    0.1940    0.5430 C   0  0  0  0  0  0  0  0  0  0  0  0
    2.4880   -0.2450   -0.0300 C   0  0  0  0  0  0  0  0  0  0  0  0
    2.2980   -1.1130   -1.0380 N   0  0  0  0  0  0  0  0  0  0  0  0
    0.9650   -1.2600   -1.2790 C   0  0  0  0  0  0  0  0  0  0  0  0
    0.3380   -0.4630   -0.3950 N   0  0  0  0  0  0  0  0  0  0  0  0
   -1.0750   -0.3430   -0.3310 C   0  0  0  0  0  0  0  0  0  0  0  0
   -1.6630    0.4680    0.6140 C   0  0  0  0  0  0  0  0  0  0  0  0
   -3.0230    0.5940    0.6870 C   0  0  0  0  0  0  0  0  0  0  0  0
   -3.5660    1.3390    1.5540 O   0  0  0  0  0  0  0  0  0  0  0  0
   -3.8010   -0.0800   -0.1710 N   0  0  0  0  0  0  0  0  0  0  0  0
   -5.2330    0.0800   -0.0600 C   0  0  0  0  0  0  0  0  0  0  0  0
   -6.0470   -1.0130    0.1450 C   0  0  0  0  0  0  0  0  0  0  0  0
   -7.4020   -0.8180    0.2450 C   0  0  0  0  0  0  0  0  0  0  0  0
   -7.9000    0.4580    0.1370 C   0  0  0  0  0  0  0  0  0  0  0  0
   -7.1020    1.5450   -0.0660 C   0  0  0  0  0  0  0  0  0  0  0  0
   -5.7420    1.3540   -0.1670 C   0  0  0  0  0  0  0  0  0  0  0  0
   -3.2450   -0.8620   -1.0830 C   0  0  0  0  0  0  0  0  0  0  0  0
   -1.9090   -0.9880   -1.1580 N   0  0  0  0  0  0  0  0  0  0  0  0
    1.2530    0.1360    0.3430 N   0  0  0  0  0  0  0  0  0  0  0  0
  1  2  1  0
  2  3  1  0
  3  4  2  0
  3  9  1  0
  4  5  1  0
  5  6  1  0
  5  7  2  0
  7  8  1  0
  8  9  2  0
  9 10  1  0
 10 11  1  0
 10 27  2  0
 11 12  2  0
 12 13  1  0
 13 14  1  0
 13 27  1  0
 14 15  2  0
 14 26  1  0
 15 16  1  0
 16 17  2  0
 16 18  1  0
 18 19  1  0
 18 25  1  0
 19 20  2  0
 19 24  1  0
 20 21  1  0
 21 22  2  0
 22 23  1  0
 23 24  2  0
 25 26  2  0
M  END
