
     RDKit          3D

 28 31  0  0  0  0  0  0  0  0999 V2000
   -0.8180   -2.2320   -2.5030 O   0  0  0  0  0  0  0  0  0  0  0  0
   -0.8090   -1.7150   -1.3650 C   0  0  0  0  0  0  0  0  0  0  0  0
    0.5180   -1.4700   -0.7560 C   0  0  0  0  0  0  0  0  0  0  0  0
    1.6530   -1.8890   -1.6220 C   0  0  0  0  0  0  0  0  0  0  0  0
    2.9190   -1.5900   -0.9000 C   0  0  0  0  0  0  0  0  0  0  0  0
    3.6280   -0.4260   -0.9640 N   0  0  0  0  0  0  0  0  0  0  0  0
    4.7010   -0.5130   -0.1930 C   0  0  0  0  0  0  0  0  0  0  0  0
    5.7410    0.4780    0.0490 C   0  0  0  0  0  0  0  0  0  0  0  0
    5.6020    1.6270   -0.5850 C   0  0  0  0  0  0  0  0  0  0  0  0
    6.4830    2.8110   -0.5420 C   0  0  0  0  0  0  0  0  0  0  0  0
    7.5830    3.0270    0.1490 C   0  0  0  0  0  0  0  0  0  0  0  0
    8.1810    2.1380    1.0320 O   0  0  0  0  0  0  0  0  0  0  0  0
    7.8350    0.8480    1.3450 N   0  0  0  0  0  0  0  0  0  0  0  0
    8.7080    0.2380    2.2120 O   0  0  0  0  0  0  0  0  0  0  0  0
    6.8240    0.1270    0.9520 C   0  0  0  0  0  0  0  0  0  0  0  0
    4.6590   -1.7480    0.3590 N   0  0  0  0  0  0  0  0  0  0  0  0
    3.5990   -2.3550   -0.0770 O   0  0  0  0  0  0  0  0  0  0  0  0
   -2.0330   -1.4020   -0.7370 N   0  0  0  0  0  0  0  0  0  0  0  0
   -3.2730   -1.6800   -1.4120 C   0  0  0  0  0  0  0  0  0  0  0  0
   -4.3970   -1.2440   -0.4830 C   0  0  0  0  0  0  0  0  0  0  0  0
   -4.1730    0.2220   -0.1810 C   0  0  1  0  0  0  0  0  0  0  0  0
   -5.3560    0.8170    0.3840 N   0  0  0  0  0  0  0  0  0  0  0  0
   -5.5070    1.6150    1.4570 C   0  0  0  0  0  0  0  0  0  0  0  0
   -6.8390    1.9450    1.6230 C   0  0  0  0  0  0  0  0  0  0  0  0
   -7.5110    1.3170    0.6050 C   0  0  0  0  0  0  0  0  0  0  0  0
   -6.5870    0.6360   -0.1360 C   0  0  0  0  0  0  0  0  0  0  0  0
   -2.9760    0.3380    0.7220 C   0  0  0  0  0  0  0  0  0  0  0  0
   -2.0150   -0.8130    0.5600 C   0  0  0  0  0  0  0  0  0  0  0  0
  1  2  2  0
  2  3  1  0
  2 18  1  0
  3  4  1  0
  4  5  1  0
  5  6  2  0
  5 17  1  0
  6  7  1  0
  7  8  1  0
  7 16  2  0
  8  9  2  0
  8 15  1  0
  9 10  1  0
 10 11  2  0
 11 12  1  0
 12 13  1  0
 13 14  1  0
 13 15  2  0
 16 17  1  0
 18 19  1  0
 18 28  1  0
 19 20  1  0
 20 21  1  0
 21 22  1  1
 21 27  1  0
 22 23  1  0
 22 26  1  0
 23 24  2  0
 24 25  1  0
 25 26  2  0
 27 28  1  0
M  CHG  2  13   1  14  -1
M  END
