
     RDKit          3D

 28 31  0  0  0  0  0  0  0  0999 V2000
   -6.7000   -1.3450   -0.4390 C   0  0  0  0  0  0  0  0  0  0  0  0
   -5.4320   -1.2170   -0.7240 C   0  0  0  0  0  0  0  0  0  0  0  0
   -4.9420   -1.4640   -2.0920 C   0  0  0  0  0  0  0  0  0  0  0  0
   -5.6940   -1.8070   -3.0560 N   0  0  0  0  0  0  0  0  0  0  0  0
   -4.4280   -0.8530    0.2960 C   0  0  0  0  0  0  0  0  0  0  0  0
   -3.2980   -0.1520   -0.1120 C   0  0  0  0  0  0  0  0  0  0  0  0
   -2.3290    0.1760    0.8200 C   0  0  0  0  0  0  0  0  0  0  0  0
   -1.1730    0.8960    0.4440 N   0  0  0  0  0  0  0  0  0  0  0  0
   -0.0500    1.0330    1.3390 C   0  0  0  0  0  0  0  0  0  0  0  0
    1.1880    0.6780    0.4630 C   0  0  0  0  0  0  0  0  0  0  0  0
    1.3550    1.6990   -0.5070 N   0  0  0  0  0  0  0  0  0  0  0  0
    2.5170    2.0060   -1.1800 C   0  0  0  0  0  0  0  0  0  0  0  0
    2.4300    3.0520   -2.0010 O   0  0  0  0  0  0  0  0  0  0  0  0
    3.8070    1.3670   -1.1270 C   0  0  0  0  0  0  0  0  0  0  0  0
    4.8770    1.9150   -1.7750 O   0  0  0  0  0  0  0  0  0  0  0  0
    5.9270    1.2060   -1.6120 C   0  0  0  0  0  0  0  0  0  0  0  0
    7.1060    1.4050   -2.0660 O   0  0  0  0  0  0  0  0  0  0  0  0
    5.6130    0.1340   -0.8370 N   0  0  0  0  0  0  0  0  0  0  0  0
    4.3160    0.2360   -0.5470 C   0  0  0  0  0  0  0  0  0  0  0  0
    3.9130   -0.9710    0.2740 C   0  0  0  0  0  0  0  0  0  0  0  0
    5.0840   -1.9360    0.0440 C   0  0  0  0  0  0  0  0  0  0  0  0
    6.2390   -1.0420   -0.2300 C   0  0  0  0  0  0  0  0  0  0  0  0
    0.1310    2.4850   -0.8270 C   0  0  0  0  0  0  0  0  0  0  0  0
   -1.0740    1.5530   -0.8840 C   0  0  0  0  0  0  0  0  0  0  0  0
   -2.5750   -0.2320    2.1100 C   0  0  0  0  0  0  0  0  0  0  0  0
   -3.6950   -0.9220    2.4970 C   0  0  0  0  0  0  0  0  0  0  0  0
   -4.6200   -1.2250    1.5520 N   0  0  0  0  0  0  0  0  0  0  0  0
   -5.7200   -1.9510    2.0000 O   0  0  0  0  0  0  0  0  0  0  0  0
  1  2  2  0
  2  3  1  0
  2  5  1  0
  3  4  2  0
  5  6  2  0
  5 27  1  0
  6  7  1  0
  7  8  1  0
  7 25  2  0
  8  9  1  0
  8 24  1  0
  9 10  1  0
 10 11  1  0
 11 12  1  0
 11 23  1  0
 12 13  2  0
 12 14  1  0
 14 15  1  0
 14 19  2  0
 15 16  1  0
 16 17  2  0
 16 18  1  0
 18 19  1  0
 18 22  1  0
 19 20  1  0
 20 21  1  0
 21 22  1  0
 23 24  1  0
 25 26  1  0
 26 27  2  0
 27 28  1  0
M  CHG  2  27   1  28  -1
M  END
