
     RDKit          3D

 28 31  0  0  0  0  0  0  0  0999 V2000
   -3.8130    2.2340    0.2100 C   0  0  0  0  0  0  0  0  0  0  0  0
   -5.0370    1.9080   -0.1990 C   0  0  0  0  0  0  0  0  0  0  0  0
   -5.5190    0.5850   -0.1230 N   0  0  0  0  0  0  0  0  0  0  0  0
   -6.1640    0.1680    0.8860 C   0  0  0  0  0  0  0  0  0  0  0  0
   -5.2690   -0.3150   -1.2270 C   0  0  0  0  0  0  0  0  0  0  0  0
   -3.7950   -0.4370   -1.3940 C   0  0  0  0  0  0  0  0  0  0  0  0
   -2.9380   -1.3010   -0.8400 N   0  0  0  0  0  0  0  0  0  0  0  0
   -1.7090   -1.0140   -1.2970 C   0  0  0  0  0  0  0  0  0  0  0  0
   -0.4430   -1.5420   -1.0930 C   0  0  0  0  0  0  0  0  0  0  0  0
    0.6530   -0.9960   -1.7370 C   0  0  0  0  0  0  0  0  0  0  0  0
    1.8950   -1.5240   -1.5290 O   0  0  0  0  0  0  0  0  0  0  0  0
    2.7690   -1.1180   -0.5400 C   0  0  0  0  0  0  0  0  0  0  0  0
    2.3930   -0.1100    0.3150 C   0  0  0  0  0  0  0  0  0  0  0  0
    3.2170    0.3580    1.3400 C   0  0  0  0  0  0  0  0  0  0  0  0
    4.4580   -0.2340    1.4780 C   0  0  0  0  0  0  0  0  0  0  0  0
    5.3440    0.1580    2.4600 C   0  0  0  0  0  0  0  0  0  0  0  0
    5.0320    1.2010    3.3930 C   0  0  0  0  0  0  0  0  0  0  0  0
    4.0180    1.8750    3.4860 O   0  0  0  0  0  0  0  0  0  0  0  0
    6.0350    1.5020    4.3490 O   0  0  0  0  0  0  0  0  0  0  0  0
    6.5440   -0.4870    2.5140 N   0  0  0  0  0  0  0  0  0  0  0  0
    6.8980   -1.4610    1.6810 C   0  0  0  0  0  0  0  0  0  0  0  0
    6.0460   -1.8460    0.7290 N   0  0  0  0  0  0  0  0  0  0  0  0
    4.8280   -1.2440    0.6160 C   0  0  0  0  0  0  0  0  0  0  0  0
    3.9830   -1.6610   -0.3670 N   0  0  0  0  0  0  0  0  0  0  0  0
    0.5440    0.0780   -2.5970 C   0  0  0  0  0  0  0  0  0  0  0  0
   -0.7120    0.6020   -2.8000 C   0  0  0  0  0  0  0  0  0  0  0  0
   -1.8290    0.0580   -2.1530 C   0  0  0  0  0  0  0  0  0  0  0  0
   -3.1060    0.3620   -2.1710 O   0  0  0  0  0  0  0  0  0  0  0  0
  1  2  2  0
  2  3  1  0
  3  4  2  0
  3  5  1  0
  5  6  1  0
  6  7  2  0
  6 28  1  0
  7  8  1  0
  8  9  2  0
  8 27  1  0
  9 10  1  0
 10 11  1  0
 10 25  2  0
 11 12  1  0
 12 13  2  0
 12 24  1  0
 13 14  1  0
 14 15  2  0
 15 16  1  0
 15 23  1  0
 16 17  1  0
 16 20  2  0
 17 18  2  0
 17 19  1  0
 20 21  1  0
 21 22  2  0
 22 23  1  0
 23 24  2  0
 25 26  1  0
 26 27  2  0
 27 28  1  0
M  CHG  2   3   1  19  -1
M  END
