
     RDKit          3D

 28 31  0  0  0  0  0  0  0  0999 V2000
    3.6250   -1.6180    0.7480 O   0  0  0  0  0  0  0  0  0  0  0  0
    2.9130   -0.6430    0.3260 C   0  0  0  0  0  0  0  0  0  0  0  0
    1.4610   -0.8300    0.3620 C   0  0  0  0  0  0  0  0  0  0  0  0
    0.9210   -2.0290    0.8380 C   0  0  0  0  0  0  0  0  0  0  0  0
   -0.3980   -2.1850    0.8660 N   0  0  0  0  0  0  0  0  0  0  0  0
   -1.2910   -1.2200    0.4470 C   0  0  0  0  0  0  0  0  0  0  0  0
   -2.6700   -1.4930    0.5400 N   0  0  0  0  0  0  0  0  0  0  0  0
   -3.4450   -1.9010   -0.5810 C   0  0  0  0  0  0  0  0  0  0  0  0
   -4.2300   -3.1310   -0.1760 C   0  0  0  0  0  0  0  0  0  0  0  0
   -3.7860   -3.6050    1.0550 O   0  0  0  0  0  0  0  0  0  0  0  0
   -4.0080   -2.6910    2.0840 C   0  0  0  0  0  0  0  0  0  0  0  0
   -3.3420   -1.3610    1.8180 C   0  0  0  0  0  0  0  0  0  0  0  0
   -0.7600   -0.0410   -0.0220 C   0  0  0  0  0  0  0  0  0  0  0  0
   -1.5480    1.1060   -0.4340 C   0  0  0  0  0  0  0  0  0  0  0  0
   -1.4040    2.3240    0.2380 C   0  0  0  0  0  0  0  0  0  0  0  0
   -2.0930    3.4490   -0.1540 C   0  0  0  0  0  0  0  0  0  0  0  0
   -2.9270    3.3860   -1.2080 N   0  0  0  0  0  0  0  0  0  0  0  0
   -3.6180    4.5280   -1.5950 O   0  0  0  0  0  0  0  0  0  0  0  0
   -3.0620    2.2220   -1.8490 C   0  0  0  0  0  0  0  0  0  0  0  0
   -2.3890    1.0570   -1.4930 C   0  0  0  0  0  0  0  0  0  0  0  0
    0.6110    0.0850   -0.0360 N   0  0  0  0  0  0  0  0  0  0  0  0
    3.5650    0.5200   -0.1340 N   0  0  0  0  0  0  0  0  0  0  0  0
    2.9620    1.7470   -0.6660 C   0  0  0  0  0  0  0  0  0  0  0  0
    3.9590    2.0590   -1.7920 C   0  0  0  0  0  0  0  0  0  0  0  0
    5.2250    1.6650   -1.1400 C   0  0  0  0  0  0  0  0  0  0  0  0
    4.9660    0.7580   -0.1690 C   0  0  0  0  0  0  0  0  0  0  0  0
    5.9810    0.1590    0.7030 C   0  0  0  0  0  0  0  0  0  0  0  0
    6.1160   -1.1970    0.6550 O   0  0  0  0  0  0  0  0  0  0  0  0
  1  2  2  0
  2  3  1  0
  2 22  1  0
  3  4  2  0
  3 21  1  0
  4  5  1  0
  5  6  2  0
  6  7  1  0
  6 13  1  0
  7  8  1  0
  7 12  1  0
  8  9  1  0
  9 10  1  0
 10 11  1  0
 11 12  1  0
 13 14  1  0
 13 21  2  0
 14 15  2  0
 14 20  1  0
 15 16  1  0
 16 17  2  0
 17 18  1  0
 17 19  1  0
 19 20  2  0
 22 23  1  0
 22 26  1  0
 23 24  1  0
 24 25  1  0
 25 26  2  0
 26 27  1  0
 27 28  1  0
M  CHG  2  17   1  18  -1
M  END
