
     RDKit          3D

 28 31  0  0  0  0  0  0  0  0999 V2000
   -6.0800   -3.4210    0.0430 C   0  0  0  0  0  0  0  0  0  0  0  0
   -4.7770   -2.7440    0.2660 C   0  0  0  0  0  0  0  0  0  0  0  0
   -4.4230   -1.4520   -0.1140 C   0  0  0  0  0  0  0  0  0  0  0  0
   -3.1010   -1.2150    0.2940 C   0  0  0  0  0  0  0  0  0  0  0  0
   -2.3770    0.0200    0.0770 C   0  0  0  0  0  0  0  0  0  0  0  0
   -2.9710    1.0900   -0.5750 C   0  0  0  0  0  0  0  0  0  0  0  0
   -2.3030    2.2730   -0.7930 C   0  0  0  0  0  0  0  0  0  0  0  0
   -0.9960    2.4360   -0.3640 C   0  0  0  0  0  0  0  0  0  0  0  0
   -0.3060    3.6590   -0.5920 N   0  0  0  0  0  0  0  0  0  0  0  0
   -0.8370    4.6230   -1.1750 O   0  0  0  0  0  0  0  0  0  0  0  0
    0.9840    3.8120   -0.1670 O   0  0  0  0  0  0  0  0  0  0  0  0
   -0.4550    1.3870    0.2590 N   0  0  0  0  0  0  0  0  0  0  0  0
   -1.0540    0.2120    0.5010 C   0  0  0  0  0  0  0  0  0  0  0  0
   -0.4570   -0.9400    1.1770 C   0  0  0  0  0  0  0  0  0  0  0  0
    0.8870   -0.8810    1.7510 C   0  0  0  0  0  0  0  0  0  0  0  0
    2.0080   -0.5920    0.9570 N   0  0  0  0  0  0  0  0  0  0  0  0
    2.5170   -1.5870    0.1710 C   0  0  0  0  0  0  0  0  0  0  0  0
    3.5660   -1.3770   -0.6610 N   0  0  0  0  0  0  0  0  0  0  0  0
    4.1660   -0.1820   -0.7650 C   0  0  0  0  0  0  0  0  0  0  0  0
    5.2340    0.0370   -1.6110 C   0  0  0  0  0  0  0  0  0  0  0  0
    5.8270    1.2770   -1.6930 C   0  0  0  0  0  0  0  0  0  0  0  0
    5.3440    2.3250   -0.9110 C   0  0  0  0  0  0  0  0  0  0  0  0
    4.2850    2.0650   -0.0850 C   0  0  0  0  0  0  0  0  0  0  0  0
    3.6720    0.8350    0.0170 C   0  0  0  0  0  0  0  0  0  0  0  0
    2.5950    0.5980    0.8660 C   0  0  0  0  0  0  0  0  0  0  0  0
    2.2020    1.5680    1.5540 O   0  0  0  0  0  0  0  0  0  0  0  0
   -2.7390   -2.3170    0.8700 O   0  0  0  0  0  0  0  0  0  0  0  0
   -3.6650   -3.2120    0.8760 N   0  0  0  0  0  0  0  0  0  0  0  0
  1  2  1  0
  2  3  1  0
  2 28  2  0
  3  4  2  0
  4  5  1  0
  4 27  1  0
  5  6  2  0
  5 13  1  0
  6  7  1  0
  7  8  2  0
  8  9  1  0
  8 12  1  0
  9 10  2  0
  9 11  1  0
 12 13  2  0
 13 14  1  0
 14 15  1  0
 15 16  1  0
 16 17  1  0
 16 25  1  0
 17 18  2  0
 18 19  1  0
 19 20  2  0
 19 24  1  0
 20 21  1  0
 21 22  2  0
 22 23  1  0
 23 24  2  0
 24 25  1  0
 25 26  2  0
 27 28  1  0
M  CHG  2   9   1  11  -1
M  END
