
     RDKit          3D

 32 33  0  0  0  0  0  0  0  0999 V2000
   -8.7610   -2.7550   -0.8900 O   0  0  0  0  0  0  0  0  0  0  0  0
   -7.8280   -1.9410   -1.0970 C   0  0  0  0  0  0  0  0  0  0  0  0
   -8.1520   -0.7340   -1.7260 O   0  0  0  0  0  0  0  0  0  0  0  0
   -6.4370   -2.2640   -0.6810 C   0  0  0  0  0  0  0  0  0  0  0  0
   -5.6210   -1.1850   -1.0350 O   0  0  0  0  0  0  0  0  0  0  0  0
   -4.2610   -1.1060   -0.8120 C   0  0  0  0  0  0  0  0  0  0  0  0
   -3.6950   -2.0830   -0.2420 O   0  0  0  0  0  0  0  0  0  0  0  0
   -3.4760    0.0860   -1.2250 C   0  0  1  0  0  0  0  0  0  0  0  0
   -3.6190    0.2080   -2.7040 C   0  0  0  0  0  0  0  0  0  0  0  0
   -4.2980   -0.5910   -3.3920 O   0  0  0  0  0  0  0  0  0  0  0  0
   -2.9820    1.2440   -3.3600 O   0  0  0  0  0  0  0  0  0  0  0  0
   -4.0940    1.3190   -0.6270 C   0  0  0  0  0  0  0  0  0  0  0  0
   -3.8980    1.4110    0.8720 C   0  0  0  0  0  0  0  0  0  0  0  0
   -2.3780    1.4540    1.0840 C   0  0  1  0  0  0  0  0  0  0  0  0
   -2.0580    1.6060    2.4100 O   0  0  0  0  0  0  0  0  0  0  0  0
   -1.8390    0.1570    0.5820 C   0  0  2  0  0  0  0  0  0  0  0  0
   -0.3880   -0.0680    0.9120 C   0  0  0  0  0  0  0  0  0  0  0  0
    0.5460    0.6550   -0.0380 C   0  0  1  0  0  0  0  0  0  0  0  0
    1.5250   -0.2270   -0.3970 O   0  0  0  0  0  0  0  0  0  0  0  0
    2.7930    0.0730    0.0690 C   0  0  2  0  0  0  0  0  0  0  0  0
    3.5850    0.3630   -1.2170 C   0  0  0  0  0  0  0  0  0  0  0  0
    3.5750   -0.7780   -2.0380 O   0  0  0  0  0  0  0  0  0  0  0  0
    3.4740   -1.0300    0.7760 C   0  0  0  0  0  0  0  0  0  0  0  0
    4.8120   -0.5640    1.2490 C   0  0  0  0  0  0  0  0  0  0  0  0
    5.1970    0.6230    1.1010 O   0  0  0  0  0  0  0  0  0  0  0  0
    5.6950   -1.4290    1.8780 O   0  0  0  0  0  0  0  0  0  0  0  0
    6.9430   -0.9660    2.3080 C   0  0  0  0  0  0  0  0  0  0  0  0
    7.8390   -0.4620    1.2050 C   0  0  0  0  0  0  0  0  0  0  0  0
    9.0590   -0.0260    1.7420 O   0  0  0  0  0  0  0  0  0  0  0  0
   -0.1050    1.2520   -1.2180 C   0  0  0  0  0  0  0  0  0  0  0  0
   -1.2360    0.6860   -1.6970 O   0  0  0  0  0  0  0  0  0  0  0  0
   -2.0090   -0.0720   -0.8870 C   0  0  2  0  0  0  0  0  0  0  0  0
  1  2  2  0
  2  3  1  0
  2  4  1  0
  4  5  1  0
  5  6  1  0
  6  7  2  0
  8  6  1  1
  8  9  1  0
  8 12  1  0
  8 32  1  0
  9 10  2  0
  9 11  1  0
 12 13  1  0
 13 14  1  0
 14 15  1  1
 14 16  1  0
 16 17  1  6
 16 32  1  0
 17 18  1  0
 18 19  1  6
 18 30  1  0
 19 20  1  0
 20 21  1  6
 20 23  1  0
 21 22  1  0
 23 24  1  0
 24 25  2  0
 24 26  1  0
 26 27  1  0
 27 28  1  0
 28 29  1  0
 30 31  1  0
 32 31  1  6
M  CHG  2   3  -1  11  -1
M  END
