
     RDKit          3D

 32 33  0  0  0  0  0  0  0  0999 V2000
   -6.1240    2.1670   -1.0020 C   0  0  0  0  0  0  0  0  0  0  0  0
   -5.4640    1.2300   -0.2110 O   0  0  0  0  0  0  0  0  0  0  0  0
   -4.7030    0.3390   -0.9310 C   0  0  2  0  0  0  0  0  0  0  0  0
   -5.0870   -1.0840   -0.5830 C   0  0  0  0  0  0  0  0  0  0  0  0
   -3.6110   -1.4230   -0.6110 C   0  0  2  0  0  0  0  0  0  0  0  0
   -3.2560   -2.2890    0.4130 O   0  0  0  0  0  0  0  0  0  0  0  0
   -3.3250    0.0380   -0.3310 C   0  0  2  0  0  0  0  0  0  0  0  0
   -3.3030    0.4220    1.1070 C   0  0  0  0  0  0  0  0  0  0  0  0
   -2.9360    1.8640    1.2580 C   0  0  0  0  0  0  0  0  0  0  0  0
   -1.6770    2.2790    0.5800 C   0  0  0  0  0  0  0  0  0  0  0  0
   -1.0940    1.2260   -0.3100 C   0  0  1  0  0  0  0  0  0  0  0  0
   -0.2470    0.2880    0.4630 C   0  0  0  0  0  0  0  0  0  0  0  0
   -0.0590    0.4240    1.7090 O   0  0  0  0  0  0  0  0  0  0  0  0
    0.3910   -0.7910   -0.1300 O   0  0  0  0  0  0  0  0  0  0  0  0
    1.2020   -1.6850    0.6180 C   0  0  1  0  0  0  0  0  0  0  0  0
    0.6720   -3.0540    0.6110 C   0  0  0  0  0  0  0  0  0  0  0  0
    1.2320   -3.9460   -0.0420 O   0  0  0  0  0  0  0  0  0  0  0  0
   -0.4870   -3.2990    1.3700 O   0  0  0  0  0  0  0  0  0  0  0  0
    2.6490   -1.6040    0.1790 C   0  0  2  0  0  0  0  0  0  0  0  0
    2.7210   -1.9540   -1.1630 O   0  0  0  0  0  0  0  0  0  0  0  0
    3.5200   -2.4520    1.0690 C   0  0  0  0  0  0  0  0  0  0  0  0
    4.8700   -2.3140    0.6650 O   0  0  0  0  0  0  0  0  0  0  0  0
    3.1460   -0.1780    0.3070 C   0  0  0  0  0  0  0  0  0  0  0  0
    4.4950   -0.1730   -0.1720 O   0  0  0  0  0  0  0  0  0  0  0  0
    5.1960    1.0160   -0.1670 C   0  0  0  0  0  0  0  0  0  0  0  0
    4.6370    2.0540    0.2540 O   0  0  0  0  0  0  0  0  0  0  0  0
    6.5600    1.0970   -0.6350 C   0  0  0  0  0  0  0  0  0  0  0  0
    7.2080   -0.0350   -1.1070 O   0  0  0  0  0  0  0  0  0  0  0  0
    7.2310    2.2330   -0.6300 C   0  0  0  0  0  0  0  0  0  0  0  0
    8.5410    2.3250   -1.0770 O   0  0  0  0  0  0  0  0  0  0  0  0
    6.6460    3.4130   -0.1700 O   0  0  0  0  0  0  0  0  0  0  0  0
   -2.1780    0.5810   -1.1010 C   0  0  0  0  0  0  0  0  0  0  0  0
  1  2  1  0
  3  2  1  1
  3  4  1  0
  3  7  1  0
  4  5  1  0
  5  6  1  1
  5  7  1  0
  7  8  1  1
  7 32  1  0
  8  9  1  0
  9 10  1  0
 10 11  1  0
 11 12  1  1
 11 32  1  0
 12 13  2  0
 12 14  1  0
 15 14  1  6
 15 16  1  0
 15 19  1  0
 16 17  2  0
 16 18  1  0
 19 20  1  6
 19 21  1  0
 19 23  1  0
 21 22  1  0
 23 24  1  0
 24 25  1  0
 25 26  2  0
 25 27  1  0
 27 28  1  0
 27 29  2  3
 29 30  1  0
 29 31  1  0
M  CHG  2  18  -1  30  -1
M  END
