
     RDKit          3D

 32 33  0  0  0  0  0  0  0  0999 V2000
   -3.2290    5.2710   -0.6330 O   0  0  0  0  0  0  0  0  0  0  0  0
   -2.3860    4.3890   -0.3620 C   0  0  0  0  0  0  0  0  0  0  0  0
   -2.7550    2.9110   -0.4130 C   0  0  0  0  0  0  0  0  0  0  0  0
   -1.5270    2.1410   -0.0380 C   0  0  1  0  0  0  0  0  0  0  0  0
   -1.1470    2.4760    1.2280 O   0  0  0  0  0  0  0  0  0  0  0  0
   -1.6220    0.6230   -0.2950 C   0  0  2  0  0  0  0  0  0  0  0  0
   -2.7160    0.0830    0.4790 C   0  0  1  0  0  0  0  0  0  0  0  0
   -3.9290    0.6980    0.0370 O   0  0  0  0  0  0  0  0  0  0  0  0
   -3.0540   -1.3350    0.6040 C   0  0  1  0  0  0  0  0  0  0  0  0
   -4.3400   -1.3470    1.5040 C   0  0  0  0  0  0  0  0  0  0  0  0
   -5.0700   -2.5770    1.0890 C   0  0  0  0  0  0  0  0  0  0  0  0
   -4.8340   -2.6450   -0.4020 C   0  0  0  0  0  0  0  0  0  0  0  0
   -3.4410   -2.0880   -0.6050 C   0  0  0  0  0  0  0  0  0  0  0  0
   -0.2610    0.0400   -0.3320 C   0  0  2  0  0  0  0  0  0  0  0  0
    0.4250    0.7870   -1.4050 O   0  0  0  0  0  0  0  0  0  0  0  0
   -0.0930   -1.3350   -0.8020 C   0  0  0  0  0  0  0  0  0  0  0  0
    0.2080   -1.6390   -2.0070 O   0  0  0  0  0  0  0  0  0  0  0  0
   -0.2430   -2.4120    0.0360 O   0  0  0  0  0  0  0  0  0  0  0  0
    0.6140    0.2450    0.8540 C   0  0  1  0  0  0  0  0  0  0  0  0
    0.1770   -0.3650    2.0000 O   0  0  0  0  0  0  0  0  0  0  0  0
    1.9400   -0.4120    0.5050 C   0  0  0  0  0  0  0  0  0  0  0  0
    2.4150   -1.3100    1.2050 O   0  0  0  0  0  0  0  0  0  0  0  0
    2.5580    0.0530   -0.6180 O   0  0  0  0  0  0  0  0  0  0  0  0
    3.7620   -0.3490   -1.1560 C   0  0  0  0  0  0  0  0  0  0  0  0
    5.0160   -0.0860   -0.4110 C   0  0  1  0  0  0  0  0  0  0  0  0
    5.0770    1.3150   -0.1990 O   0  0  0  0  0  0  0  0  0  0  0  0
    5.2050   -0.8050    0.8520 C   0  0  0  0  0  0  0  0  0  0  0  0
    6.7560   -0.7270    0.9940 C   0  0  0  0  0  0  0  0  0  0  0  0
    7.1240   -0.8930   -0.4580 C   0  0  0  0  0  0  0  0  0  0  0  0
    6.1400   -0.3410   -1.2220 O   0  0  0  0  0  0  0  0  0  0  0  0
   -1.1060    4.7980   -0.0160 O   0  0  0  0  0  0  0  0  0  0  0  0
   -0.7890    6.1060    0.0260 O   0  0  0  0  0  0  0  0  0  0  0  0
  1  2  2  0
  2  3  1  0
  2 31  1  0
  3  4  1  0
  4  5  1  1
  6  4  1  1
  6  7  1  0
  6 14  1  0
  7  8  1  6
  7  9  1  0
  9 10  1  1
  9 13  1  0
 10 11  1  0
 11 12  1  0
 12 13  1  0
 14 15  1  6
 14 16  1  0
 14 19  1  0
 16 17  2  0
 16 18  1  0
 19 20  1  1
 19 21  1  0
 21 22  2  0
 21 23  1  0
 23 24  1  0
 24 25  1  0
 25 26  1  1
 25 27  1  0
 25 30  1  0
 27 28  1  0
 28 29  1  0
 29 30  1  0
 31 32  1  0
M  CHG  2  18  -1  32  -1
M  END
