
     RDKit          3D

 32 35  0  0  0  0  0  0  0  0999 V2000
   -1.9310    2.8830    1.0920 C   0  0  0  0  0  0  0  0  0  0  0  0
   -3.1980    2.9600    0.7420 C   0  0  0  0  0  0  0  0  0  0  0  0
   -3.7920    1.9130   -0.0690 C   0  0  0  0  0  0  0  0  0  0  0  0
   -5.0530    1.9880   -0.4180 C   0  0  0  0  0  0  0  0  0  0  0  0
   -5.8800    3.1330    0.0100 C   0  0  0  0  0  0  0  0  0  0  0  0
   -3.0100    0.8030   -0.4910 N   0  0  0  0  0  0  0  0  0  0  0  0
   -3.0560   -0.4740    0.1960 C   0  0  0  0  0  0  0  0  0  0  0  0
   -1.6710   -0.8810    0.6670 C   0  0  0  0  0  0  0  0  0  0  0  0
   -0.6320   -0.6300   -0.3710 C   0  0  1  0  0  0  0  0  0  0  0  0
    0.3140   -1.7510   -0.5300 N   0  0  0  0  0  0  0  0  0  0  0  0
    1.6780   -1.4480   -0.5210 C   0  0  0  0  0  0  0  0  0  0  0  0
    2.5170   -2.3400   -0.9380 O   0  0  0  0  0  0  0  0  0  0  0  0
    2.2520   -0.2160   -0.0810 N   0  0  0  0  0  0  0  0  0  0  0  0
    3.7080   -0.0940   -0.1540 C   0  0  0  0  0  0  0  0  0  0  0  0
    4.1340    1.2330    0.3370 C   0  0  0  0  0  0  0  0  0  0  0  0
    3.4030    2.3070    0.7510 C   0  0  0  0  0  0  0  0  0  0  0  0
    4.3160    3.2970    1.1090 C   0  0  0  0  0  0  0  0  0  0  0  0
    5.5500    2.7630    0.8920 C   0  0  0  0  0  0  0  0  0  0  0  0
    5.3960    1.5600    0.4420 O   0  0  0  0  0  0  0  0  0  0  0  0
    6.5150    3.6150    1.1980 C   0  0  0  0  0  0  0  0  0  0  0  0
    5.8630    4.8580    1.6730 C   0  0  0  0  0  0  0  0  0  0  0  0
    4.4220    4.5310    1.5700 C   0  0  0  0  0  0  0  0  0  0  0  0
   -0.2430   -3.0740   -0.4750 C   0  0  0  0  0  0  0  0  0  0  0  0
   -1.4760   -3.2010   -0.8990 N   0  0  0  0  0  0  0  0  0  0  0  0
   -2.2640   -4.3620   -0.9600 C   0  0  0  0  0  0  0  0  0  0  0  0
   -1.3950   -5.6150   -0.9220 C   0  0  0  0  0  0  0  0  0  0  0  0
   -0.3770   -5.4180    0.1350 C   0  0  0  0  0  0  0  0  0  0  0  0
   -0.1470   -6.2270    1.0490 O   0  0  0  0  0  0  0  0  0  0  0  0
    0.4100   -4.1780    0.0900 N   0  0  0  0  0  0  0  0  0  0  0  0
    1.6750   -4.1940    0.7300 C   0  0  0  0  0  0  0  0  0  0  0  0
   -1.3570   -0.4350   -1.7050 C   0  0  0  0  0  0  0  0  0  0  0  0
   -2.1120    0.8900   -1.6520 C   0  0  0  0  0  0  0  0  0  0  0  0
  1  2  2  0
  2  3  1  0
  3  4  2  3
  3  6  1  0
  4  5  1  0
  6  7  1  0
  6 32  1  0
  7  8  1  0
  8  9  1  0
  9 10  1  6
  9 31  1  0
 10 11  1  0
 10 23  1  0
 11 12  2  0
 11 13  1  0
 13 14  1  0
 14 15  1  0
 15 16  2  0
 15 19  1  0
 16 17  1  0
 17 18  1  0
 17 22  2  0
 18 19  1  0
 18 20  2  0
 20 21  1  0
 21 22  1  0
 23 24  2  0
 23 29  1  0
 24 25  1  0
 25 26  1  0
 26 27  1  0
 27 28  2  0
 27 29  1  0
 29 30  1  0
 31 32  1  0
M  END
