
     RDKit          3D

 33 34  0  0  0  0  0  0  0  0999 V2000
    0.1740    2.9560    1.1290 C   0  0  0  0  0  0  0  0  0  0  0  0
    0.5450    1.7820    2.0090 C   0  0  1  0  0  0  0  0  0  0  0  0
    1.2630    2.1800    3.1220 O   0  0  0  0  0  0  0  0  0  0  0  0
   -0.7360    1.0690    2.4530 C   0  0  0  0  0  0  0  0  0  0  0  0
   -1.4490    0.8060    1.3240 O   0  0  0  0  0  0  0  0  0  0  0  0
   -0.9260   -0.0080    0.4010 C   0  0  1  0  0  0  0  0  0  0  0  0
   -1.6520    0.1080   -0.9110 C   0  0  0  0  0  0  0  0  0  0  0  0
   -2.9860   -0.2370   -0.8420 O   0  0  0  0  0  0  0  0  0  0  0  0
   -3.9610    0.4010   -0.1460 C   0  0  0  0  0  0  0  0  0  0  0  0
   -3.7170    1.4300    0.5290 O   0  0  0  0  0  0  0  0  0  0  0  0
   -5.3810   -0.0760   -0.1380 C   0  0  2  0  0  0  0  0  0  0  0  0
   -6.1990    0.7220    0.6370 O   0  0  0  0  0  0  0  0  0  0  0  0
   -5.4790   -1.5080    0.2880 C   0  0  0  0  0  0  0  0  0  0  0  0
   -6.5550   -2.1820   -0.5400 C   0  0  0  0  0  0  0  0  0  0  0  0
   -7.6550   -1.3500   -0.7240 O   0  0  0  0  0  0  0  0  0  0  0  0
   -7.3900   -0.2580   -1.5100 C   0  0  0  0  0  0  0  0  0  0  0  0
   -5.8930    0.0100   -1.5770 C   0  0  0  0  0  0  0  0  0  0  0  0
    0.5550    0.0500    0.1910 C   0  0  0  0  0  0  0  0  0  0  0  0
    1.3260    0.7330    1.2530 C   0  0  2  0  0  0  0  0  0  0  0  0
    1.6770   -0.2290    2.2390 O   0  0  0  0  0  0  0  0  0  0  0  0
    2.6390    1.3000    0.7890 C   0  0  0  0  0  0  0  0  0  0  0  0
    3.4430    0.3080    0.0320 C   0  0  0  0  0  0  0  0  0  0  0  0
    2.9080   -0.2050   -0.9780 O   0  0  0  0  0  0  0  0  0  0  0  0
    4.7120   -0.0710    0.3710 O   0  0  0  0  0  0  0  0  0  0  0  0
    5.4000   -1.0290   -0.4200 C   0  0  2  0  0  0  0  0  0  0  0  0
    5.7020   -2.2300    0.4440 C   0  0  0  0  0  0  0  0  0  0  0  0
    6.8470   -2.4100    0.9140 O   0  0  0  0  0  0  0  0  0  0  0  0
    4.6710   -3.1190    0.6970 O   0  0  0  0  0  0  0  0  0  0  0  0
    6.6940   -0.4420   -0.9190 C   0  0  2  0  0  0  0  0  0  0  0  0
    6.3740    0.6950   -1.6820 O   0  0  0  0  0  0  0  0  0  0  0  0
    7.4110   -1.4480   -1.8090 C   0  0  0  0  0  0  0  0  0  0  0  0
    6.5730   -1.8000   -2.8670 O   0  0  0  0  0  0  0  0  0  0  0  0
    7.1720   -2.6710   -3.6530 O   0  0  0  0  0  0  0  0  0  0  0  0
  2  1  1  6
  2  3  1  0
  2  4  1  0
  2 19  1  0
  4  5  1  0
  5  6  1  0
  6  7  1  6
  6 18  1  0
  7  8  1  0
  8  9  1  0
  9 10  2  0
  9 11  1  0
 11 12  1  1
 11 13  1  0
 11 17  1  0
 13 14  1  0
 14 15  1  0
 15 16  1  0
 16 17  1  0
 18 19  1  0
 19 20  1  1
 19 21  1  0
 21 22  1  0
 22 23  2  0
 22 24  1  0
 25 24  1  1
 25 26  1  0
 25 29  1  0
 26 27  2  0
 26 28  1  0
 29 30  1  6
 29 31  1  0
 31 32  1  0
 32 33  1  0
M  CHG  2  28  -1  33  -1
M  END
