
     RDKit          3D

 33 35  0  0  0  0  0  0  0  0999 V2000
   -5.5910    1.0660    0.1710 C   0  0  0  0  0  0  0  0  0  0  0  0
   -4.5690    0.9940    1.2330 C   0  0  2  0  0  0  0  0  0  0  0  0
   -4.3520    2.2190    1.8600 O   0  0  0  0  0  0  0  0  0  0  0  0
   -3.3780    0.1500    1.0100 C   0  0  0  0  0  0  0  0  0  0  0  0
   -2.4710    0.3670   -0.1270 C   0  0  1  0  0  0  0  0  0  0  0  0
   -3.0290    0.2110   -1.4000 O   0  0  0  0  0  0  0  0  0  0  0  0
   -2.0740    1.8520   -0.1480 C   0  0  0  0  0  0  0  0  0  0  0  0
   -3.3080    2.5640   -0.4120 O   0  0  0  0  0  0  0  0  0  0  0  0
   -3.1990    3.9630   -0.5230 C   0  0  0  0  0  0  0  0  0  0  0  0
   -2.0890    4.5230   -0.3960 O   0  0  0  0  0  0  0  0  0  0  0  0
   -4.3460    4.6900   -0.7740 O   0  0  0  0  0  0  0  0  0  0  0  0
   -1.2570   -0.5290    0.0790 C   0  0  1  0  0  0  0  0  0  0  0  0
   -0.8260   -0.3390    1.4170 O   0  0  0  0  0  0  0  0  0  0  0  0
   -1.6950   -1.9440   -0.0390 C   0  0  0  0  0  0  0  0  0  0  0  0
   -0.6580   -3.0120    0.1540 C   0  0  1  0  0  0  0  0  0  0  0  0
   -1.2850   -4.4160   -0.0110 C   0  0  0  0  0  0  0  0  0  0  0  0
   -0.3480   -3.9080   -0.8850 O   0  0  0  0  0  0  0  0  0  0  0  0
   -0.0850   -0.1820   -0.7470 C   0  0  1  0  0  0  0  0  0  0  0  0
   -0.2610   -0.1880   -2.2360 C   0  0  0  0  0  0  0  0  0  0  0  0
   -0.6460   -1.4590   -2.7240 O   0  0  0  0  0  0  0  0  0  0  0  0
    0.8400    0.8670   -0.2380 C   0  0  0  0  0  0  0  0  0  0  0  0
    1.4040    0.4330    0.9510 O   0  0  0  0  0  0  0  0  0  0  0  0
    2.1090   -0.6960    0.7840 C   0  0  2  0  0  0  0  0  0  0  0  0
    3.5130   -0.6310    0.3350 C   0  0  1  0  0  0  0  0  0  0  0  0
    3.9530   -1.9810    0.2580 O   0  0  0  0  0  0  0  0  0  0  0  0
    3.6960   -0.1180   -0.9410 O   0  0  0  0  0  0  0  0  0  0  0  0
    4.9870   -0.3790   -1.3270 C   0  0  0  0  0  0  0  0  0  0  0  0
    5.7710   -1.0170   -0.4050 O   0  0  0  0  0  0  0  0  0  0  0  0
    5.8750   -0.4240    0.8240 C   0  0  0  0  0  0  0  0  0  0  0  0
    4.4770    0.0480    1.2440 C   0  0  1  0  0  0  0  0  0  0  0  0
    4.4970    1.5470    1.1350 C   0  0  0  0  0  0  0  0  0  0  0  0
    3.3120    2.1750    1.4120 O   0  0  0  0  0  0  0  0  0  0  0  0
    1.1300   -1.5820   -0.4780 S   0  0  0  0  0  0  0  0  0  0  0  0
  2  1  1  6
  2  3  1  0
  2  4  1  0
  4  5  1  0
  5  6  1  6
  5  7  1  0
  5 12  1  0
  7  8  1  0
  8  9  1  0
  9 10  2  0
  9 11  1  0
 12 13  1  1
 12 14  1  0
 12 18  1  0
 15 14  1  6
 15 16  1  0
 15 17  1  0
 16 17  1  0
 18 19  1  6
 18 21  1  0
 18 33  1  0
 19 20  1  0
 21 22  1  0
 23 22  1  6
 23 24  1  0
 23 33  1  0
 24 25  1  6
 24 26  1  0
 24 30  1  0
 26 27  1  0
 27 28  1  0
 28 29  1  0
 29 30  1  0
 30 31  1  6
 31 32  1  0
M  CHG  1  11  -1
M  END
