
     RDKit          3D

 32 33  0  0  0  0  0  0  0  0999 V2000
   -2.8440   -1.7860    1.6660 C   0  0  0  0  0  0  0  0  0  0  0  0
   -2.4680   -1.5260    0.2310 C   0  0  1  0  0  0  0  0  0  0  0  0
   -2.1190   -2.8630   -0.3910 C   0  0  0  0  0  0  0  0  0  0  0  0
   -3.5840   -0.9220   -0.5730 C   0  0  2  0  0  0  0  0  0  0  0  0
   -3.9530   -1.6980   -1.6670 O   0  0  0  0  0  0  0  0  0  0  0  0
   -3.1500    0.4690   -0.9780 C   0  0  2  0  0  0  0  0  0  0  0  0
   -3.8010    1.4390   -0.0470 C   0  0  0  0  0  0  0  0  0  0  0  0
   -3.5730    0.8060   -2.3890 C   0  0  2  0  0  0  0  0  0  0  0  0
   -3.1660    2.0890   -2.7460 O   0  0  0  0  0  0  0  0  0  0  0  0
   -4.9790    0.7970   -2.4770 O   0  0  0  0  0  0  0  0  0  0  0  0
   -3.0990   -0.0670   -3.3330 O   0  0  0  0  0  0  0  0  0  0  0  0
   -1.6740    0.3990   -0.9050 C   0  0  1  0  0  0  0  0  0  0  0  0
   -1.2040   -0.0240   -2.1700 O   0  0  0  0  0  0  0  0  0  0  0  0
   -0.9850    1.6540   -0.4870 C   0  0  0  0  0  0  0  0  0  0  0  0
   -0.3350    1.3880    0.8410 C   0  0  2  0  0  0  0  0  0  0  0  0
   -0.6580    2.5020    1.8230 C   0  0  0  0  0  0  0  0  0  0  0  0
   -0.0450    2.2240    3.0300 O   0  0  0  0  0  0  0  0  0  0  0  0
    1.1630    1.3720    0.7210 C   0  0  0  0  0  0  0  0  0  0  0  0
    1.6810    1.5710   -0.4100 O   0  0  0  0  0  0  0  0  0  0  0  0
    1.9900    1.1510    1.7880 O   0  0  0  0  0  0  0  0  0  0  0  0
    3.4040    1.1270    1.7270 C   0  0  0  0  0  0  0  0  0  0  0  0
    3.8930    0.0690    0.8040 C   0  0  0  0  0  0  0  0  0  0  0  0
    3.0350   -0.6390    0.2210 O   0  0  0  0  0  0  0  0  0  0  0  0
    5.2560   -0.1010    0.6190 O   0  0  0  0  0  0  0  0  0  0  0  0
    5.7320   -1.1000   -0.2530 C   0  0  1  0  0  0  0  0  0  0  0  0
    6.5340   -0.5060   -1.3890 C   0  0  0  0  0  0  0  0  0  0  0  0
    6.9680   -1.5510   -2.2030 O   0  0  0  0  0  0  0  0  0  0  0  0
    6.6330   -1.9960    0.5080 C   0  0  0  0  0  0  0  0  0  0  0  0
    7.0560   -1.6540    1.6390 O   0  0  0  0  0  0  0  0  0  0  0  0
    6.9990   -3.2210   -0.0540 O   0  0  0  0  0  0  0  0  0  0  0  0
   -0.8560    0.0550    1.3370 C   0  0  0  0  0  0  0  0  0  0  0  0
   -1.2680   -0.6350    0.0880 C   0  0  1  0  0  0  0  0  0  0  0  0
  2  1  1  1
  2  3  1  0
  2  4  1  0
  2 32  1  0
  4  5  1  6
  4  6  1  0
  6  7  1  1
  6  8  1  0
  6 12  1  0
  8  9  1  6
  8 10  1  0
  8 11  1  0
 12 13  1  6
 12 14  1  0
 12 32  1  0
 14 15  1  0
 15 16  1  1
 15 18  1  0
 15 31  1  0
 16 17  1  0
 18 19  2  0
 18 20  1  0
 20 21  1  0
 21 22  1  0
 22 23  2  0
 22 24  1  0
 24 25  1  0
 25 26  1  6
 25 28  1  0
 26 27  1  0
 28 29  2  0
 28 30  1  0
 32 31  1  1
M  CHG  2   9  -1  30  -1
M  END
