
     RDKit          3D

 24 26  0  0  0  0  0  0  0  0999 V2000
   -0.2320    3.3990   -0.5200 C   0  0  0  0  0  0  0  0  0  0  0  0
   -1.1610    2.4560   -0.6810 C   0  0  0  0  0  0  0  0  0  0  0  0
   -2.5300    2.8420   -0.2590 C   0  0  0  0  0  0  0  0  0  0  0  0
   -3.4440    2.7920   -1.4350 C   0  0  0  0  0  0  0  0  0  0  0  0
   -0.8170    1.1050   -1.2430 C   0  0  0  0  0  0  0  0  0  0  0  0
   -1.1010    0.0180   -0.3730 N   0  0  1  0  0  0  0  0  0  0  0  0
   -2.0920   -0.8660   -0.9950 C   0  0  0  0  0  0  0  0  0  0  0  0
   -2.8760   -1.6550    0.0130 C   0  0  1  0  0  0  0  0  0  0  0  0
   -3.6250   -0.7150    0.9440 C   0  0  0  0  0  0  0  0  0  0  0  0
   -4.7730   -1.5550    1.4560 C   0  0  0  0  0  0  0  0  0  0  0  0
   -5.1850   -2.3250    0.2180 C   0  0  0  0  0  0  0  0  0  0  0  0
   -3.9800   -2.3850   -0.6750 C   0  0  0  0  0  0  0  0  0  0  0  0
    0.0050   -0.7220    0.1750 C   0  0  1  0  0  0  0  0  0  0  0  0
    0.4550   -1.8860   -0.6810 C   0  0  0  0  0  0  0  0  0  0  0  0
    1.5340   -2.6060    0.0970 C   0  0  0  0  0  0  0  0  0  0  0  0
    2.7480   -1.7860    0.3700 C   0  0  0  0  0  0  0  0  0  0  0  0
    2.5100   -0.3070    0.3730 C   0  0  2  0  0  0  0  0  0  0  0  0
    2.8830    0.3930   -0.8840 C   0  0  0  0  0  0  0  0  0  0  0  0
    4.3730    0.6150   -1.0580 C   0  0  0  0  0  0  0  0  0  0  0  0
    4.9040    1.5670   -0.0390 C   0  0  0  0  0  0  0  0  0  0  0  0
    3.8980    1.6650    1.0750 C   0  0  0  0  0  0  0  0  0  0  0  0
    3.4340    0.2710    1.4500 C   0  0  2  0  0  0  0  0  0  0  0  0
    4.5540   -0.5360    1.7670 N   0  0  0  0  0  0  0  0  0  0  0  0
    1.0800    0.0370    0.8160 C   0  0  0  0  0  0  0  0  0  0  0  0
  1  2  2  0
  2  3  1  0
  2  5  1  0
  3  4  1  0
  6  5  1  6
  6  7  1  0
  6 13  1  0
  8  7  1  6
  8  9  1  0
  8 12  1  0
  9 10  1  0
 10 11  1  0
 11 12  1  0
 13 14  1  6
 13 24  1  0
 14 15  1  0
 15 16  1  0
 17 16  1  6
 17 18  1  0
 17 22  1  0
 17 24  1  0
 18 19  1  0
 19 20  1  0
 20 21  1  0
 21 22  1  0
 22 23  1  6
M  CHG  2   6   1  23   1
M  END
