
     RDKit          3D

 24 26  0  0  0  0  0  0  0  0999 V2000
   -3.6780   -3.9210   -0.7910 C   0  0  0  0  0  0  0  0  0  0  0  0
   -3.5540   -2.9140    0.3600 C   0  0  0  0  0  0  0  0  0  0  0  0
   -2.7420   -1.7730   -0.1550 C   0  0  0  0  0  0  0  0  0  0  0  0
   -2.5360   -0.7250    0.8950 C   0  0  2  0  0  0  0  0  0  0  0  0
   -3.8490   -0.1780    1.3530 C   0  0  0  0  0  0  0  0  0  0  0  0
   -4.6090    0.4730    0.1930 C   0  0  0  0  0  0  0  0  0  0  0  0
   -3.6900    1.4180   -0.5560 C   0  0  1  0  0  0  0  0  0  0  0  0
   -4.3650    2.6600   -0.8820 N   0  0  0  0  0  0  0  0  0  0  0  0
   -5.4310    2.3680   -1.8030 C   0  0  0  0  0  0  0  0  0  0  0  0
   -2.4350    1.6630    0.2540 C   0  0  0  0  0  0  0  0  0  0  0  0
   -1.6650    0.3690    0.3150 C   0  0  1  0  0  0  0  0  0  0  0  0
   -0.4220    0.5080    1.0470 N   0  0  0  0  0  0  0  0  0  0  0  0
    0.5150   -0.5400    0.6880 C   0  0  0  0  0  0  0  0  0  0  0  0
    1.9030   -0.0360    0.8990 C   0  0  1  0  0  0  0  0  0  0  0  0
    3.0080   -1.0190    0.5660 C   0  0  0  0  0  0  0  0  0  0  0  0
    3.7910    0.1820    0.0780 C   0  0  1  0  0  0  0  0  0  0  0  0
    4.6150    0.7820    1.1510 C   0  0  0  0  0  0  0  0  0  0  0  0
    5.6130   -0.2170    1.6410 C   0  0  0  0  0  0  0  0  0  0  0  0
    6.2830   -1.0310    0.6230 C   0  0  0  0  0  0  0  0  0  0  0  0
    5.6520   -1.1660   -0.7080 C   0  0  0  0  0  0  0  0  0  0  0  0
    4.6920   -0.0690   -1.0830 C   0  0  0  0  0  0  0  0  0  0  0  0
    2.4750    0.8420   -0.1970 C   0  0  1  0  0  0  0  0  0  0  0  0
    1.8370    0.5310   -1.5070 C   0  0  0  0  0  0  0  0  0  0  0  0
    2.3810    2.3000    0.1550 C   0  0  0  0  0  0  0  0  0  0  0  0
  1  2  1  0
  2  3  1  0
  4  3  1  6
  4  5  1  0
  4 11  1  0
  5  6  1  0
  6  7  1  0
  7  8  1  1
  7 10  1  0
  8  9  1  0
 10 11  1  0
 11 12  1  1
 12 13  1  0
 14 13  1  6
 14 15  1  0
 14 22  1  0
 16 15  1  1
 16 17  1  0
 16 21  1  0
 16 22  1  0
 17 18  1  0
 18 19  1  0
 19 20  1  0
 20 21  1  0
 22 23  1  6
 22 24  1  0
M  CHG  2   8   1  12   1
M  END
