
     RDKit          3D

 24 25  0  0  0  0  0  0  0  0999 V2000
    3.1230   -3.9580    2.8340 C   0  0  0  0  0  0  0  0  0  0  0  0
    2.9330   -3.2840    1.5140 C   0  0  0  0  0  0  0  0  0  0  0  0
    2.4950   -1.8230    1.6580 C   0  0  0  0  0  0  0  0  0  0  0  0
    2.3560   -1.2350    0.3420 N   0  0  0  0  0  0  0  0  0  0  0  0
    2.3940    0.1910    0.4660 C   0  0  1  0  0  0  0  0  0  0  0  0
    3.8630    0.5830    0.0660 C   0  0  0  0  0  0  0  0  0  0  0  0
    3.6620    1.5640   -1.1050 C   0  0  0  0  0  0  0  0  0  0  0  0
    2.4180    2.2430   -0.5210 C   0  0  0  0  0  0  0  0  0  0  0  0
    1.5680    0.9920   -0.4110 C   0  0  0  0  0  0  0  0  0  0  0  0
    0.3320    0.9270   -0.9420 C   0  0  0  0  0  0  0  0  0  0  0  0
   -0.0180    2.0770   -1.8610 C   0  0  0  0  0  0  0  0  0  0  0  0
   -0.8500    3.0880   -1.1340 C   0  0  0  0  0  0  0  0  0  0  0  0
   -1.2400    4.1970   -1.9670 N   0  0  0  0  0  0  0  0  0  0  0  0
   -2.5600    4.6920   -1.5720 C   0  0  0  0  0  0  0  0  0  0  0  0
   -0.7330    0.0870   -0.4720 C   0  0  0  0  0  0  0  0  0  0  0  0
   -1.8750   -0.1300   -1.0470 C   0  0  0  0  0  0  0  0  0  0  0  0
   -2.2750    0.4650   -2.3360 C   0  0  0  0  0  0  0  0  0  0  0  0
   -2.9320   -1.0540   -0.4760 C   0  0  1  0  0  0  0  0  0  0  0  0
   -3.0050   -2.3590   -1.2080 C   0  0  0  0  0  0  0  0  0  0  0  0
   -1.7540   -3.1640   -1.2040 C   0  0  0  0  0  0  0  0  0  0  0  0
   -2.9150   -1.1810    0.9950 C   0  0  0  0  0  0  0  0  0  0  0  0
   -1.9270   -0.2150    1.6250 C   0  0  1  0  0  0  0  0  0  0  0  0
   -1.8790   -0.4850    3.0950 C   0  0  0  0  0  0  0  0  0  0  0  0
   -0.5970   -0.4860    0.9220 C   0  0  0  0  0  0  0  0  0  0  0  0
  1  2  1  0
  2  3  1  0
  3  4  1  0
  5  4  1  6
  5  6  1  0
  5  9  1  0
  6  7  1  0
  7  8  1  0
  8  9  1  0
  9 10  2  3
 10 11  1  0
 10 15  1  0
 11 12  1  0
 12 13  1  0
 13 14  1  0
 15 16  2  0
 15 24  1  0
 16 17  1  0
 16 18  1  0
 18 19  1  6
 18 21  1  0
 19 20  1  0
 21 22  1  0
 22 23  1  1
 22 24  1  0
M  CHG  2   4   1  13   1
M  END
