
     RDKit          3D

 24 25  0  0  0  0  0  0  0  0999 V2000
   -2.2450   -4.0440    1.2120 C   0  0  0  0  0  0  0  0  0  0  0  0
   -1.9270   -2.9710    0.2360 C   0  0  0  0  0  0  0  0  0  0  0  0
   -2.4110   -1.5940    0.7280 C   0  0  2  0  0  0  0  0  0  0  0  0
   -3.8640   -1.6170    0.8310 C   0  0  0  0  0  0  0  0  0  0  0  0
   -4.5600   -2.5850    1.7380 C   0  0  0  0  0  0  0  0  0  0  0  0
   -1.7680   -0.5270   -0.1630 C   0  0  2  0  0  0  0  0  0  0  0  0
   -0.3470   -0.6450   -0.0360 N   0  0  0  0  0  0  0  0  0  0  0  0
    0.5760    0.3080    0.2960 C   0  0  0  0  0  0  0  0  0  0  0  0
    1.9640   -0.0890   -0.3070 C   0  0  1  0  0  0  0  0  0  0  0  0
    2.3680   -1.4100    0.2490 C   0  0  0  0  0  0  0  0  0  0  0  0
    1.9380   -0.0520   -1.8050 C   0  0  0  0  0  0  0  0  0  0  0  0
    2.8910    0.9950    0.1460 C   0  0  0  0  0  0  0  0  0  0  0  0
    4.3030    0.9260   -0.2720 C   0  0  1  0  0  0  0  0  0  0  0  0
    5.0280    2.1730    0.3080 C   0  0  0  0  0  0  0  0  0  0  0  0
    6.4680    1.7650    0.0890 C   0  0  0  0  0  0  0  0  0  0  0  0
    6.5010    0.3360    0.0790 N   0  0  0  0  0  0  0  0  0  0  0  0
    5.1460   -0.1320    0.3890 C   0  0  0  0  0  0  0  0  0  0  0  0
   -2.3170    0.8370   -0.2020 C   0  0  1  0  0  0  0  0  0  0  0  0
   -2.2540    1.5740    1.1130 C   0  0  0  0  0  0  0  0  0  0  0  0
   -2.8370    2.9760    1.0400 C   0  0  0  0  0  0  0  0  0  0  0  0
   -1.5200    1.6190   -1.2950 C   0  0  0  0  0  0  0  0  0  0  0  0
   -2.4310    1.8270   -2.4810 C   0  0  0  0  0  0  0  0  0  0  0  0
   -3.6320    0.9440   -2.2400 C   0  0  0  0  0  0  0  0  0  0  0  0
   -3.6720    1.0850   -0.7250 C   0  0  0  0  0  0  0  0  0  0  0  0
  1  2  1  0
  3  2  1  6
  3  4  1  0
  3  6  1  0
  4  5  1  0
  6  7  1  1
  6 18  1  0
  7  8  1  0
  8  9  1  0
  9 10  1  6
  9 11  1  0
  9 12  1  0
 13 12  1  1
 13 14  1  0
 13 17  1  0
 14 15  1  0
 15 16  1  0
 16 17  1  0
 18 19  1  1
 18 21  1  0
 18 24  1  0
 19 20  1  0
 21 22  1  0
 22 23  1  0
 23 24  1  0
M  CHG  2   7   1  16   1
M  END
