
     RDKit          3D

 24 26  0  0  0  0  0  0  0  0999 V2000
    5.4320   -0.0010   -0.4220 C   0  0  0  0  0  0  0  0  0  0  0  0
    4.1580    0.2710    0.3070 C   0  0  2  0  0  0  0  0  0  0  0  0
    3.9760   -0.6880    1.4470 C   0  0  0  0  0  0  0  0  0  0  0  0
    2.9490    0.2350   -0.6430 C   0  0  2  0  0  0  0  0  0  0  0  0
    3.2190    1.3090   -1.6610 C   0  0  0  0  0  0  0  0  0  0  0  0
    1.9800    2.0920   -2.0210 C   0  0  0  0  0  0  0  0  0  0  0  0
    0.8410    1.0570   -2.0000 C   0  0  0  0  0  0  0  0  0  0  0  0
    0.4970    0.8920   -0.5460 C   0  0  1  0  0  0  0  0  0  0  0  0
   -0.6550   -0.0280   -0.2690 C   0  0  2  0  0  0  0  0  0  0  0  0
   -0.3650   -1.3260   -0.7850 N   0  0  0  0  0  0  0  0  0  0  0  0
   -0.7710   -2.4630   -0.0560 C   0  0  2  0  0  0  0  0  0  0  0  0
   -2.0920   -3.0620   -0.4770 C   0  0  0  0  0  0  0  0  0  0  0  0
   -1.9770   -4.5780   -0.2670 C   0  0  0  0  0  0  0  0  0  0  0  0
   -1.1130   -4.7930    0.9440 C   0  0  0  0  0  0  0  0  0  0  0  0
   -1.2410   -3.7100    1.9770 C   0  0  0  0  0  0  0  0  0  0  0  0
   -0.8270   -2.3370    1.4380 C   0  0  0  0  0  0  0  0  0  0  0  0
   -2.0230    0.4680   -0.4950 C   0  0  2  0  0  0  0  0  0  0  0  0
   -2.3700    0.9280   -1.8870 C   0  0  0  0  0  0  0  0  0  0  0  0
   -2.6260    1.3040    0.5620 C   0  0  0  0  0  0  0  0  0  0  0  0
   -2.0020    2.5270    0.9180 N   0  0  0  0  0  0  0  0  0  0  0  0
   -2.8870    3.3960    1.6980 C   0  0  2  0  0  0  0  0  0  0  0  0
   -3.5020    4.5730    1.0300 C   0  0  0  0  0  0  0  0  0  0  0  0
   -2.3390    4.8220    1.9010 C   0  0  0  0  0  0  0  0  0  0  0  0
    1.7430    0.4340    0.1830 C   0  0  0  0  0  0  0  0  0  0  0  0
  2  1  1  6
  2  3  1  0
  2  4  1  0
  4  5  1  6
  4 24  1  0
  5  6  1  0
  6  7  1  0
  8  7  1  6
  8  9  1  0
  8 24  1  0
  9 10  1  6
  9 17  1  0
 11 10  1  6
 11 12  1  0
 11 16  1  0
 12 13  1  0
 13 14  1  0
 14 15  1  0
 15 16  1  0
 17 18  1  6
 17 19  1  0
 19 20  1  0
 21 20  1  6
 21 22  1  0
 21 23  1  0
 22 23  1  0
M  CHG  2  10   1  20   1
M  END
