
     RDKit          3D

 24 26  0  0  0  0  0  0  0  0999 V2000
    7.6180    2.3100    0.4850 C   0  0  0  0  0  0  0  0  0  0  0  0
    6.8120    1.1090    0.1110 C   0  0  0  0  0  0  0  0  0  0  0  0
    5.3040    1.3890    0.1540 C   0  0  0  0  0  0  0  0  0  0  0  0
    4.6720    0.1220   -0.2350 N   0  0  0  0  0  0  0  0  0  0  0  0
    3.2950    0.0610    0.2500 C   0  0  0  0  0  0  0  0  0  0  0  0
    2.7680   -1.2870   -0.0970 C   0  0  1  0  0  0  0  0  0  0  0  0
    3.6230   -2.3830    0.5720 C   0  0  0  0  0  0  0  0  0  0  0  0
    2.6650   -3.5440    0.4260 C   0  0  0  0  0  0  0  0  0  0  0  0
    1.4040   -3.0680    0.4770 C   0  0  0  0  0  0  0  0  0  0  0  0
    1.4430   -1.6020    0.6600 C   0  0  2  0  0  0  0  0  0  0  0  0
    0.4170   -0.8020   -0.0040 C   0  0  0  0  0  0  0  0  0  0  0  0
   -0.9980   -0.8030    0.4880 C   0  0  2  0  0  0  0  0  0  0  0  0
   -1.7400   -2.0530    0.5210 C   0  0  0  0  0  0  0  0  0  0  0  0
   -2.0440   -2.7060   -0.7060 N   0  0  0  0  0  0  0  0  0  0  0  0
   -2.4630   -1.8010   -1.7590 C   0  0  0  0  0  0  0  0  0  0  0  0
   -3.5340   -0.9350   -1.1960 C   0  0  0  0  0  0  0  0  0  0  0  0
   -3.0790    0.3050   -0.5000 C   0  0  1  0  0  0  0  0  0  0  0  0
   -3.3410    1.4420   -1.5130 C   0  0  0  0  0  0  0  0  0  0  0  0
   -3.3170    2.7860   -0.8530 C   0  0  0  0  0  0  0  0  0  0  0  0
   -4.6030    2.9480   -0.0840 C   0  0  0  0  0  0  0  0  0  0  0  0
   -5.0950    1.5830    0.2800 C   0  0  2  0  0  0  0  0  0  0  0  0
   -5.9960    1.7170    1.5070 C   0  0  0  0  0  0  0  0  0  0  0  0
   -3.9620    0.6380    0.6850 C   0  0  0  0  0  0  0  0  0  0  0  0
   -1.6410    0.3550   -0.2110 C   0  0  0  0  0  0  0  0  0  0  0  0
  1  2  1  0
  2  3  1  0
  3  4  1  0
  4  5  1  0
  6  5  1  1
  6  7  1  0
  6 10  1  0
  7  8  1  0
  8  9  2  0
  9 10  1  0
 10 11  1  6
 12 11  1  6
 12 13  1  0
 12 24  1  0
 13 14  1  0
 14 15  1  0
 15 16  1  0
 17 16  1  6
 17 18  1  0
 17 23  1  0
 17 24  1  0
 18 19  1  0
 19 20  1  0
 20 21  1  0
 21 22  1  1
 21 23  1  0
M  CHG  2   4   1  14   1
M  END
