
     RDKit          3D

 42 45  0  0  0  0  0  0  0  0999 V2000
   -9.0830   -2.8790    1.4990 C   0  0  0  0  0  0  0  0  0  0  0  0
   -7.9730   -1.9620    1.1340 C   0  0  0  0  0  0  0  0  0  0  0  0
   -6.7490   -2.3760    0.9230 C   0  0  0  0  0  0  0  0  0  0  0  0
   -6.1640   -3.7250    0.9800 C   0  0  0  0  0  0  0  0  0  0  0  0
   -5.9640   -1.1800    0.5850 C   0  0  0  0  0  0  0  0  0  0  0  0
   -4.7980   -0.6820    0.2610 C   0  0  0  0  0  0  0  0  0  0  0  0
   -3.6720   -1.4440    0.1220 F   0  0  0  0  0  0  0  0  0  0  0  0
   -4.8780    0.7820    0.0730 C   0  0  0  0  0  0  0  0  0  0  0  0
   -3.7650    1.5300   -0.2750 O   0  0  0  0  0  0  0  0  0  0  0  0
   -2.9000    2.1320    0.5790 C   0  0  0  0  0  0  0  0  0  0  0  0
   -3.1240    2.0260    1.8180 O   0  0  0  0  0  0  0  0  0  0  0  0
   -1.6840    2.9260    0.1970 C   0  0  2  0  0  0  0  0  0  0  0  0
   -1.0410    3.4460    1.2710 F   0  0  0  0  0  0  0  0  0  0  0  0
   -2.1320    3.9220   -0.6200 F   0  0  0  0  0  0  0  0  0  0  0  0
   -0.7350    1.9430   -0.5810 C   0  0  1  0  0  0  0  0  0  0  0  0
   -0.5400    0.8640    0.4040 C   0  0  0  0  0  0  0  0  0  0  0  0
    0.2560   -0.3150    0.2100 C   0  0  0  0  0  0  0  0  0  0  0  0
    1.6870   -0.3170    0.0480 C   0  0  0  0  0  0  0  0  0  0  0  0
    2.3720    0.7180    0.1290 O   0  0  0  0  0  0  0  0  0  0  0  0
    2.4360   -1.5150   -0.2190 N   0  0  0  0  0  0  0  0  0  0  0  0
    3.8520   -1.4950   -0.3870 C   0  0  0  0  0  0  0  0  0  0  0  0
    4.4110   -1.9840   -1.4830 C   0  0  0  0  0  0  0  0  0  0  0  0
    5.8400   -2.0270   -1.7820 C   0  0  1  0  0  0  0  0  0  0  0  0
    6.1210   -3.4230   -1.9180 F   0  0  0  0  0  0  0  0  0  0  0  0
    6.0370   -1.4770   -3.0640 F   0  0  0  0  0  0  0  0  0  0  0  0
    6.6950   -1.4180   -0.7690 C   0  0  0  0  0  0  0  0  0  0  0  0
    6.0540   -0.8880    0.4100 C   0  0  0  0  0  0  0  0  0  0  0  0
    6.8470   -0.2260    1.5000 C   0  0  0  0  0  0  0  0  0  0  0  0
    8.0190   -1.2510    2.2770 S   0  0  2  0  0  0  0  0  0  0  0  0
    8.8640   -0.2620    3.5170 C   0  0  0  0  0  0  0  0  0  0  0  0
    9.0510   -1.6920    1.2920 O   0  0  0  0  0  0  0  0  0  0  0  0
    7.4220   -2.3940    3.0340 O   0  0  0  0  0  0  0  0  0  0  0  0
    4.7600   -0.9190    0.5950 C   0  0  0  0  0  0  0  0  0  0  0  0
   -1.4810    1.5910   -1.8440 C   0  0  0  0  0  0  0  0  0  0  0  0
   -0.6960    1.9800   -3.1060 C   0  0  0  0  0  0  0  0  0  0  0  0
   -0.5210    3.4870   -3.0650 C   0  0  0  0  0  0  0  0  0  0  0  0
    0.2010    3.9050   -1.8190 C   0  0  0  0  0  0  0  0  0  0  0  0
    0.5060    2.7110   -0.9250 C   0  0  0  0  0  0  0  0  0  0  0  0
   -6.1280    1.1020    0.3010 C   0  0  0  0  0  0  0  0  0  0  0  0
   -6.8870   -0.0610    0.6300 C   0  0  0  0  0  0  0  0  0  0  0  0
   -8.1000   -0.5270    0.9590 C   0  0  0  0  0  0  0  0  0  0  0  0
   -9.2480    0.1920    1.1070 F   0  0  0  0  0  0  0  0  0  0  0  0
  1  2  1  0
  2  3  2  0
  2 41  1  0
  3  4  1  0
  3  5  1  0
  5  6  2  0
  5 40  1  0
  6  7  1  0
  6  8  1  0
  8  9  1  0
  8 39  2  0
  9 10  1  0
 10 11  2  0
 10 12  1  0
 12 13  1  1
 12 14  1  0
 12 15  1  0
 15 16  1  1
 15 34  1  0
 15 38  1  0
 16 17  1  0
 17 18  1  0
 18 19  2  0
 18 20  1  0
 20 21  1  0
 21 22  2  0
 21 33  1  0
 22 23  1  0
 23 24  1  6
 23 25  1  0
 23 26  1  0
 26 27  1  0
 27 28  1  0
 27 33  2  0
 28 29  1  0
 29 30  1  1
 29 31  2  0
 29 32  2  0
 34 35  1  0
 35 36  1  0
 36 37  1  0
 37 38  1  0
 39 40  1  0
 40 41  2  0
 41 42  1  0
M  END
