
     RDKit          3D

 31 34  0  0  0  0  0  0  0  0999 V2000
   -4.9070    1.5480   -2.6110 C   0  0  0  0  0  0  0  0  0  0  0  0
   -5.3820    1.9850   -1.3740 O   0  0  0  0  0  0  0  0  0  0  0  0
   -6.1590    1.0040   -0.7530 C   0  0  1  0  0  0  0  0  0  0  0  0
   -5.5860    0.6750    0.6000 C   0  0  0  0  0  0  0  0  0  0  0  0
   -4.2160    0.1710    0.5080 C   0  0  0  0  0  0  0  0  0  0  0  0
   -3.1400    0.9870    0.8410 C   0  0  0  0  0  0  0  0  0  0  0  0
   -1.9050    0.4200    0.7230 C   0  0  0  0  0  0  0  0  0  0  0  0
   -1.6750   -0.8680    0.3080 C   0  0  0  0  0  0  0  0  0  0  0  0
   -0.3990   -1.3070    0.2350 O   0  0  0  0  0  0  0  0  0  0  0  0
    0.7730   -0.6220    0.5290 C   0  0  0  0  0  0  0  0  0  0  0  0
    1.9210   -1.5860    0.2730 C   0  0  0  0  0  0  0  0  0  0  0  0
    3.2380   -0.9950    0.5450 C   0  0  0  0  0  0  0  0  0  0  0  0
    4.1270   -0.5580   -0.3540 N   0  0  0  0  0  0  0  0  0  0  0  0
    5.2090   -0.0860    0.2900 C   0  0  0  0  0  0  0  0  0  0  0  0
    6.4080    0.4840   -0.3620 C   0  0  0  0  0  0  0  0  0  0  0  0
    7.4610    0.9380    0.3720 C   0  0  0  0  0  0  0  0  0  0  0  0
    8.5780    1.4690   -0.2430 C   0  0  0  0  0  0  0  0  0  0  0  0
    8.6340    1.5440   -1.6260 C   0  0  0  0  0  0  0  0  0  0  0  0
    7.5780    1.0890   -2.3890 C   0  0  0  0  0  0  0  0  0  0  0  0
    6.4870    0.5680   -1.7340 C   0  0  0  0  0  0  0  0  0  0  0  0
    4.9780   -0.2350    1.5560 O   0  0  0  0  0  0  0  0  0  0  0  0
    3.8140   -0.7740    1.7780 C   0  0  0  0  0  0  0  0  0  0  0  0
    3.2370   -1.0840    3.0970 C   0  0  0  0  0  0  0  0  0  0  0  0
   -2.7540   -1.7030   -0.0320 C   0  0  0  0  0  0  0  0  0  0  0  0
   -2.6780   -2.9760   -0.4510 C   0  0  0  0  0  0  0  0  0  0  0  0
   -3.8590   -3.6300   -0.7370 C   0  0  0  0  0  0  0  0  0  0  0  0
   -5.1120   -2.4400   -0.4130 S   0  0  0  0  0  0  0  0  0  0  0  0
   -3.9720   -1.1200    0.0920 C   0  0  0  0  0  0  0  0  0  0  0  0
   -7.5520    1.4850   -0.5760 C   0  0  0  0  0  0  0  0  0  0  0  0
   -8.4210    0.7620   -0.0400 O   0  0  0  0  0  0  0  0  0  0  0  0
   -7.8900    2.7520   -1.0130 O   0  0  0  0  0  0  0  0  0  0  0  0
  1  2  1  0
  2  3  1  0
  3  4  1  1
  3 29  1  0
  4  5  1  0
  5  6  2  0
  5 28  1  0
  6  7  1  0
  7  8  2  0
  8  9  1  0
  8 24  1  0
  9 10  1  0
 10 11  1  0
 11 12  1  0
 12 13  1  0
 12 22  2  0
 13 14  2  0
 14 15  1  0
 14 21  1  0
 15 16  2  0
 15 20  1  0
 16 17  1  0
 17 18  2  0
 18 19  1  0
 19 20  2  0
 21 22  1  0
 22 23  1  0
 24 25  1  0
 24 28  2  0
 25 26  2  0
 26 27  1  0
 27 28  1  0
 29 30  2  0
 29 31  1  0
M  END
