
     RDKit          3D

 29 31  0  0  0  0  0  0  0  0999 V2000
   -2.9450   -4.4930    1.3640 C   0  0  0  0  0  0  0  0  0  0  0  0
   -3.4860   -3.1610    0.8890 C   0  0  2  0  0  0  0  0  0  0  0  0
   -4.8890   -3.3660    0.3170 C   0  0  0  0  0  0  0  0  0  0  0  0
   -5.3510   -2.1200   -0.1040 O   0  0  0  0  0  0  0  0  0  0  0  0
   -2.6770   -2.6180   -0.1890 N   0  0  0  0  0  0  0  0  0  0  0  0
   -2.1250   -1.3110   -0.1170 C   0  0  0  0  0  0  0  0  0  0  0  0
   -2.3690   -0.6420    0.9230 O   0  0  0  0  0  0  0  0  0  0  0  0
   -1.2900   -0.7490   -1.2280 C   0  0  0  0  0  0  0  0  0  0  0  0
   -0.8800    0.6240   -0.8380 C   0  0  0  0  0  0  0  0  0  0  0  0
   -1.5260    1.6820   -1.4230 C   0  0  0  0  0  0  0  0  0  0  0  0
   -1.1830    3.0090   -1.0930 C   0  0  0  0  0  0  0  0  0  0  0  0
   -0.1880    3.1850   -0.1720 C   0  0  0  0  0  0  0  0  0  0  0  0
    0.4490    2.1160    0.4060 C   0  0  0  0  0  0  0  0  0  0  0  0
    0.1460    0.8090    0.1120 C   0  0  0  0  0  0  0  0  0  0  0  0
    0.7240   -0.2540    0.6370 O   0  0  0  0  0  0  0  0  0  0  0  0
    1.6720   -0.6510    1.4980 C   0  0  0  0  0  0  0  0  0  0  0  0
    3.1000   -0.3240    1.2730 C   0  0  2  0  0  0  0  0  0  0  0  0
    3.4700    0.9750    1.2120 O   0  0  0  0  0  0  0  0  0  0  0  0
    4.7470    0.9730    0.6580 C   0  0  0  0  0  0  0  0  0  0  0  0
    4.7330   -0.0830   -0.4260 C   0  0  0  0  0  0  0  0  0  0  0  0
    3.4840   -0.8460   -0.1220 C   0  0  1  0  0  0  0  0  0  0  0  0
    3.7230   -2.3350    0.0070 C   0  0  0  0  0  0  0  0  0  0  0  0
    4.7580   -2.5440    0.9230 O   0  0  0  0  0  0  0  0  0  0  0  0
    0.0290    4.9210    0.0090 S   0  0  1  0  0  0  0  0  0  0  0  0
   -0.8190    5.4860    1.0820 O   0  0  0  0  0  0  0  0  0  0  0  0
    1.4500    5.3210    0.0510 O   0  0  0  0  0  0  0  0  0  0  0  0
   -0.7410    5.3600   -1.5720 C   0  0  0  0  0  0  0  0  0  0  0  0
   -1.7770    4.2660   -1.6020 C   0  0  2  0  0  0  0  0  0  0  0  0
   -2.8330    4.7040   -0.8010 O   0  0  0  0  0  0  0  0  0  0  0  0
  2  1  1  6
  2  3  1  0
  2  5  1  0
  3  4  1  0
  5  6  1  0
  6  7  2  0
  6  8  1  0
  8  9  1  0
  9 10  2  0
  9 14  1  0
 10 11  1  0
 11 12  2  0
 11 28  1  0
 12 13  1  0
 12 24  1  0
 13 14  2  0
 14 15  1  0
 15 16  1  0
 17 16  1  6
 17 18  1  0
 17 21  1  0
 18 19  1  0
 19 20  1  0
 20 21  1  0
 21 22  1  1
 22 23  1  0
 24 25  2  0
 24 26  2  0
 24 27  1  6
 27 28  1  0
 28 29  1  1
M  END
