
     RDKit          3D

 42 45  0  0  0  0  0  0  0  0999 V2000
   -6.3720   -1.8730   -1.6550 C   0  0  0  0  0  0  0  0  0  0  0  0
   -5.3390   -1.0430   -2.0960 O   0  0  0  0  0  0  0  0  0  0  0  0
   -4.1000   -0.8840   -1.3960 C   0  0  0  0  0  0  0  0  0  0  0  0
   -3.1510    0.0130   -2.0890 C   0  0  0  0  0  0  0  0  0  0  0  0
   -3.9900   -1.5280   -0.2940 C   0  0  0  0  0  0  0  0  0  0  0  0
   -2.9770   -1.6780    0.7250 C   0  0  0  0  0  0  0  0  0  0  0  0
   -3.3060   -2.5030    1.7410 C   0  0  0  0  0  0  0  0  0  0  0  0
   -4.5900   -3.2250    1.8520 C   0  0  2  0  0  0  0  0  0  0  0  0
   -4.5550   -4.0500    3.0010 F   0  0  0  0  0  0  0  0  0  0  0  0
   -4.8290   -4.1090    0.8210 F   0  0  0  0  0  0  0  0  0  0  0  0
   -5.6810   -2.3740    1.9680 F   0  0  0  0  0  0  0  0  0  0  0  0
   -1.6550   -1.0580    0.7200 C   0  0  0  0  0  0  0  0  0  0  0  0
   -1.2360   -0.1010   -0.0780 O   0  0  0  0  0  0  0  0  0  0  0  0
   -0.0300    0.2650    0.1180 C   0  0  0  0  0  0  0  0  0  0  0  0
    0.7550    1.2880   -0.5660 C   0  0  0  0  0  0  0  0  0  0  0  0
    1.9620    1.1780   -0.8420 O   0  0  0  0  0  0  0  0  0  0  0  0
    0.0670    2.5350   -0.9500 C   0  0  0  0  0  0  0  0  0  0  0  0
   -1.2020    2.9330   -0.5900 C   0  0  0  0  0  0  0  0  0  0  0  0
   -1.4990    4.1350   -1.1090 N   0  0  0  0  0  0  0  0  0  0  0  0
   -0.4160    4.5130   -1.8050 C   0  0  0  0  0  0  0  0  0  0  0  0
   -0.1930    5.6780   -2.5350 C   0  0  0  0  0  0  0  0  0  0  0  0
    1.0110    5.8350   -3.1630 C   0  0  0  0  0  0  0  0  0  0  0  0
    1.2200    6.9860   -3.8800 F   0  0  0  0  0  0  0  0  0  0  0  0
    1.9970    4.8800   -3.0910 C   0  0  0  0  0  0  0  0  0  0  0  0
    1.8030    3.7220   -2.3780 C   0  0  0  0  0  0  0  0  0  0  0  0
    0.5750    3.5590   -1.7370 C   0  0  0  0  0  0  0  0  0  0  0  0
    0.4700   -0.4880    1.1420 C   0  0  0  0  0  0  0  0  0  0  0  0
    1.8180   -0.4830    1.7550 C   0  0  0  0  0  0  0  0  0  0  0  0
    2.7250   -1.2560    0.8470 C   0  0  0  0  0  0  0  0  0  0  0  0
    2.2820   -1.8070   -0.2180 O   0  0  0  0  0  0  0  0  0  0  0  0
    4.1150   -1.3870    1.1690 C   0  0  0  0  0  0  0  0  0  0  0  0
    4.6330   -0.7870    2.3020 C   0  0  0  0  0  0  0  0  0  0  0  0
    5.9710   -0.9160    2.6220 C   0  0  0  0  0  0  0  0  0  0  0  0
    6.4940   -0.3260    3.7370 F   0  0  0  0  0  0  0  0  0  0  0  0
    6.8220   -1.6460    1.8180 C   0  0  0  0  0  0  0  0  0  0  0  0
    8.5540   -1.8290    2.2080 S   0  0  0  0  0  0  0  0  0  0  0  0
    6.2900   -2.2440    0.6830 C   0  0  0  0  0  0  0  0  0  0  0  0
    7.1010   -2.9740   -0.1320 F   0  0  0  0  0  0  0  0  0  0  0  0
    4.9630   -2.1240    0.3530 C   0  0  0  0  0  0  0  0  0  0  0  0
   -0.5850   -1.3430    1.5300 C   0  0  0  0  0  0  0  0  0  0  0  0
   -0.4430   -2.3260    2.6080 C   0  0  0  0  0  0  0  0  0  0  0  0
   -0.0440   -3.4920    2.3540 O   0  0  0  0  0  0  0  0  0  0  0  0
  1  2  1  0
  2  3  1  0
  3  4  1  0
  3  5  2  3
  5  6  1  0
  6  7  2  3
  6 12  1  0
  7  8  1  0
  8  9  1  1
  8 10  1  0
  8 11  1  0
 12 13  1  0
 12 40  2  0
 13 14  1  0
 14 15  1  0
 14 27  2  0
 15 16  2  0
 15 17  1  0
 17 18  2  0
 17 26  1  0
 18 19  1  0
 19 20  1  0
 20 21  2  0
 20 26  1  0
 21 22  1  0
 22 23  1  0
 22 24  2  0
 24 25  1  0
 25 26  2  0
 27 28  1  0
 27 40  1  0
 28 29  1  0
 29 30  2  0
 29 31  1  0
 31 32  2  0
 31 39  1  0
 32 33  1  0
 33 34  1  0
 33 35  2  0
 35 36  1  0
 35 37  1  0
 37 38  1  0
 37 39  2  0
 40 41  1  0
 41 42  2  0
M  END
