
     RDKit          3D

 29 31  0  0  0  0  0  0  0  0999 V2000
    2.4090    0.6010    1.8670 C   0  0  0  0  0  0  0  0  0  0  0  0
    2.4570    1.4380    0.6160 C   0  0  1  0  0  0  0  0  0  0  0  0
    3.7630    1.8440    0.2700 O   0  0  0  0  0  0  0  0  0  0  0  0
    4.8220    1.0400   -0.0290 C   0  0  0  0  0  0  0  0  0  0  0  0
    5.3670    0.1390    0.7550 C   0  0  0  0  0  0  0  0  0  0  0  0
    6.5180   -0.7080    0.3770 C   0  0  0  0  0  0  0  0  0  0  0  0
    6.9970   -0.4820   -0.8990 O   0  0  0  0  0  0  0  0  0  0  0  0
    6.4500    0.4500   -1.7410 C   0  0  0  0  0  0  0  0  0  0  0  0
    5.4140    1.1930   -1.3630 C   0  0  0  0  0  0  0  0  0  0  0  0
    4.9040    2.1150   -2.2510 O   0  0  0  0  0  0  0  0  0  0  0  0
    1.8290    0.6530   -0.4800 C   0  0  0  0  0  0  0  0  0  0  0  0
    2.4230    0.3930   -1.5550 O   0  0  0  0  0  0  0  0  0  0  0  0
    0.5360    0.1750   -0.3420 O   0  0  0  0  0  0  0  0  0  0  0  0
   -0.0300   -0.5590   -1.3940 C   0  0  0  0  0  0  0  0  0  0  0  0
   -1.4000   -0.9600   -1.0550 C   0  0  0  0  0  0  0  0  0  0  0  0
   -2.0210   -1.5670   -2.0020 O   0  0  0  0  0  0  0  0  0  0  0  0
   -2.0990   -0.7640    0.1520 N   0  0  0  0  0  0  0  0  0  0  0  0
   -1.5060   -0.1570    1.3280 C   0  0  0  0  0  0  0  0  0  0  0  0
   -2.2490   -0.4030    2.6020 C   0  0  1  0  0  0  0  0  0  0  0  0
   -1.8880    0.6250    3.4930 O   0  0  0  0  0  0  0  0  0  0  0  0
   -3.7310   -0.4320    2.5040 C   0  0  0  0  0  0  0  0  0  0  0  0
   -4.2490   -0.2520    1.1170 C   0  0  2  0  0  0  0  0  0  0  0  0
   -5.5870   -0.5510    1.0480 O   0  0  0  0  0  0  0  0  0  0  0  0
   -3.5000   -1.1870    0.1890 C   0  0  1  0  0  0  0  0  0  0  0  0
   -4.1570   -0.9600   -1.1590 C   0  0  0  0  0  0  0  0  0  0  0  0
   -4.1370    0.1300   -1.9350 C   0  0  0  0  0  0  0  0  0  0  0  0
   -4.8010    0.1100   -3.1090 C   0  0  0  0  0  0  0  0  0  0  0  0
   -5.4640   -1.0090   -3.4660 C   0  0  0  0  0  0  0  0  0  0  0  0
   -5.1180   -2.0910   -2.0410 S   0  0  0  0  0  0  0  0  0  0  0  0
  2  1  1  1
  2  3  1  0
  2 11  1  0
  3  4  1  0
  4  5  2  0
  4  9  1  0
  5  6  1  0
  6  7  1  0
  7  8  1  0
  8  9  2  0
  9 10  1  0
 11 12  2  0
 11 13  1  0
 13 14  1  0
 14 15  1  0
 15 16  2  0
 15 17  1  0
 17 18  1  0
 17 24  1  0
 18 19  1  0
 19 20  1  1
 19 21  1  0
 21 22  1  0
 22 23  1  1
 22 24  1  0
 24 25  1  6
 25 26  2  0
 25 29  1  0
 26 27  1  0
 27 28  2  0
 28 29  1  0
M  END
