
     RDKit          3D

 29 31  0  0  0  0  0  0  0  0999 V2000
    7.8780    1.3510    0.0990 C   0  0  0  0  0  0  0  0  0  0  0  0
    7.7790    0.1220    0.8300 O   0  0  0  0  0  0  0  0  0  0  0  0
    7.9490   -0.8700   -0.1090 C   0  0  0  0  0  0  0  0  0  0  0  0
    6.9050   -0.9560   -1.1260 C   0  0  0  0  0  0  0  0  0  0  0  0
    7.3170   -1.4330   -2.2960 O   0  0  0  0  0  0  0  0  0  0  0  0
    5.5280   -0.6150   -1.0620 C   0  0  0  0  0  0  0  0  0  0  0  0
    4.7290   -0.2000   -0.1230 C   0  0  0  0  0  0  0  0  0  0  0  0
    5.1930    0.0840    1.5580 S   0  0  0  0  0  0  0  0  0  0  0  0
    3.8290   -0.4710    2.6170 C   0  0  0  0  0  0  0  0  0  0  0  0
    2.5480    0.0000    1.9830 C   0  0  0  0  0  0  0  0  0  0  0  0
    2.3600   -0.5320    0.5860 C   0  0  1  0  0  0  0  0  0  0  0  0
    1.0620   -0.3040    0.2030 O   0  0  0  0  0  0  0  0  0  0  0  0
    0.3110   -1.4220   -0.0510 C   0  0  0  0  0  0  0  0  0  0  0  0
   -1.0580   -0.9390   -0.4500 C   0  0  0  0  0  0  0  0  0  0  0  0
   -1.5190   -0.6410   -1.7170 C   0  0  0  0  0  0  0  0  0  0  0  0
   -2.8180   -0.2480   -1.5500 C   0  0  0  0  0  0  0  0  0  0  0  0
   -3.1190   -0.3120   -0.2140 C   0  0  0  0  0  0  0  0  0  0  0  0
   -4.3870    0.0120    0.4500 C   0  0  0  0  0  0  0  0  0  0  0  0
   -4.4880   -0.1070    1.6980 O   0  0  0  0  0  0  0  0  0  0  0  0
   -5.4990    0.4600   -0.3290 N   0  0  0  0  0  0  0  0  0  0  0  0
   -6.7250    0.7680    0.3620 C   0  0  1  0  0  0  0  0  0  0  0  0
   -7.1670    2.1980    0.1400 C   0  0  0  0  0  0  0  0  0  0  0  0
   -8.4940    2.1910    0.4620 O   0  0  0  0  0  0  0  0  0  0  0  0
   -9.0410    0.9770    0.1610 C   0  0  0  0  0  0  0  0  0  0  0  0
   -7.9090    0.0100   -0.1240 C   0  0  1  0  0  0  0  0  0  0  0  0
   -7.9180   -0.2660   -1.4660 O   0  0  0  0  0  0  0  0  0  0  0  0
   -2.0290   -0.7310    0.3980 O   0  0  0  0  0  0  0  0  0  0  0  0
    3.2710    0.0830   -0.4230 C   0  0  2  0  0  0  0  0  0  0  0  0
    3.0060   -0.5140   -1.6530 O   0  0  0  0  0  0  0  0  0  0  0  0
  1  2  1  0
  2  3  1  0
  3  4  1  0
  4  5  2  0
  4  6  1  0
  6  7  2  3
  7  8  1  0
  7 28  1  0
  8  9  1  0
  9 10  1  0
 10 11  1  0
 11 12  1  6
 11 28  1  0
 12 13  1  0
 13 14  1  0
 14 15  2  0
 14 27  1  0
 15 16  1  0
 16 17  2  0
 17 18  1  0
 17 27  1  0
 18 19  2  0
 18 20  1  0
 21 20  1  6
 21 22  1  0
 21 25  1  0
 22 23  1  0
 23 24  1  0
 24 25  1  0
 25 26  1  6
 28 29  1  6
M  END
