
     RDKit          3D

 41 44  0  0  0  0  0  0  0  0999 V2000
   -0.5340    1.9340    5.5890 C   0  0  0  0  0  0  0  0  0  0  0  0
   -0.3210    1.5590    4.2380 O   0  0  0  0  0  0  0  0  0  0  0  0
    0.8170    0.9270    3.8130 C   0  0  0  0  0  0  0  0  0  0  0  0
    1.7050    0.6670    4.6340 O   0  0  0  0  0  0  0  0  0  0  0  0
    1.0120    0.5430    2.3770 C   0  0  0  0  0  0  0  0  0  0  0  0
   -0.1090    0.9080    1.5360 C   0  0  0  0  0  0  0  0  0  0  0  0
   -1.1980    1.3580    2.0680 O   0  0  0  0  0  0  0  0  0  0  0  0
   -0.1180    0.8240    0.1520 N   0  0  0  0  0  0  0  0  0  0  0  0
   -1.3070    1.2340   -0.5710 C   0  0  0  0  0  0  0  0  0  0  0  0
   -2.3100    0.3260   -0.8100 C   0  0  0  0  0  0  0  0  0  0  0  0
   -2.2340   -1.0460   -0.3540 C   0  0  0  0  0  0  0  0  0  0  0  0
   -1.2100   -1.4280    0.2540 O   0  0  0  0  0  0  0  0  0  0  0  0
   -3.3230   -1.9670   -0.5940 C   0  0  0  0  0  0  0  0  0  0  0  0
   -3.1650   -3.1050   -1.3910 C   0  0  0  0  0  0  0  0  0  0  0  0
   -4.1740   -3.9920   -1.6550 C   0  0  0  0  0  0  0  0  0  0  0  0
   -5.4160   -3.7650   -1.1150 C   0  0  0  0  0  0  0  0  0  0  0  0
   -6.4370   -4.6310   -1.3630 F   0  0  0  0  0  0  0  0  0  0  0  0
   -5.6410   -2.6730   -0.3270 C   0  0  0  0  0  0  0  0  0  0  0  0
   -4.5990   -1.7950   -0.0790 C   0  0  0  0  0  0  0  0  0  0  0  0
   -4.8630   -0.7430    0.7160 F   0  0  0  0  0  0  0  0  0  0  0  0
   -3.4560    0.6970   -1.5160 C   0  0  0  0  0  0  0  0  0  0  0  0
   -3.5600    1.9870   -1.9650 C   0  0  0  0  0  0  0  0  0  0  0  0
   -2.5770    2.9260   -1.7450 C   0  0  0  0  0  0  0  0  0  0  0  0
   -1.4480    2.5200   -1.0380 C   0  0  0  0  0  0  0  0  0  0  0  0
   -0.5930    3.7330   -0.9660 C   0  0  0  0  0  0  0  0  0  0  0  0
   -1.0010    4.5210   -2.0280 O   0  0  0  0  0  0  0  0  0  0  0  0
   -2.4060    4.3630   -2.0980 C   0  0  0  0  0  0  0  0  0  0  0  0
    2.1640    0.0350    2.0240 C   0  0  0  0  0  0  0  0  0  0  0  0
    3.3960   -0.1150    3.3670 S   0  0  0  0  0  0  0  0  0  0  0  0
    4.8380   -1.0000    2.7350 C   0  0  0  0  0  0  0  0  0  0  0  0
    2.5600   -0.5300    0.7550 C   0  0  0  0  0  0  0  0  0  0  0  0
    2.0210   -1.7160    0.2430 C   0  0  0  0  0  0  0  0  0  0  0  0
    2.4450   -2.1810   -0.9810 C   0  0  0  0  0  0  0  0  0  0  0  0
    3.3900   -1.5230   -1.7350 C   0  0  0  0  0  0  0  0  0  0  0  0
    3.8260   -2.0670   -3.0690 C   0  0  0  0  0  0  0  0  0  0  0  0
    3.9160   -0.3520   -1.2170 C   0  0  0  0  0  0  0  0  0  0  0  0
    4.9260    0.3870   -1.9810 C   0  0  1  0  0  0  0  0  0  0  0  0
    5.3180    1.5300   -1.2850 F   0  0  0  0  0  0  0  0  0  0  0  0
    6.0870   -0.3260   -2.2010 F   0  0  0  0  0  0  0  0  0  0  0  0
    4.4310    0.8050   -3.2130 F   0  0  0  0  0  0  0  0  0  0  0  0
    3.5030    0.1240    0.0010 C   0  0  0  0  0  0  0  0  0  0  0  0
  1  2  1  0
  2  3  1  0
  3  4  2  0
  3  5  1  0
  5  6  1  0
  5 28  2  3
  6  7  2  0
  6  8  1  0
  8  9  1  0
  9 10  1  0
  9 24  2  0
 10 11  1  0
 10 21  2  0
 11 12  2  0
 11 13  1  0
 13 14  2  0
 13 19  1  0
 14 15  1  0
 15 16  2  0
 16 17  1  0
 16 18  1  0
 18 19  2  0
 19 20  1  0
 21 22  1  0
 22 23  2  0
 23 24  1  0
 23 27  1  0
 24 25  1  0
 25 26  1  0
 26 27  1  0
 28 29  1  0
 28 31  1  0
 29 30  1  0
 31 32  2  0
 31 41  1  0
 32 33  1  0
 33 34  2  0
 34 35  1  0
 34 36  1  0
 36 37  1  0
 36 41  2  0
 37 38  1  1
 37 39  1  0
 37 40  1  0
M  END
