
     RDKit          3D

 29 31  0  0  0  0  0  0  0  0999 V2000
   -6.4810   -2.7630    0.5300 N   0  0  0  0  0  0  0  0  0  0  0  0
   -6.4410   -1.4070    0.9240 C   0  0  0  0  0  0  0  0  0  0  0  0
   -6.3440   -1.1440    2.1520 O   0  0  0  0  0  0  0  0  0  0  0  0
   -6.5130   -0.2900   -0.0940 C   0  0  1  0  0  0  0  0  0  0  0  0
   -6.4540    0.8980    0.5560 O   0  0  0  0  0  0  0  0  0  0  0  0
   -5.5320   -0.5520   -1.1860 C   0  0  0  0  0  0  0  0  0  0  0  0
   -4.2140   -0.5520   -0.9340 O   0  0  0  0  0  0  0  0  0  0  0  0
   -3.2530    0.3080   -0.5450 C   0  0  0  0  0  0  0  0  0  0  0  0
   -3.4520    1.6400   -0.3030 C   0  0  0  0  0  0  0  0  0  0  0  0
   -2.4030    2.4350    0.0970 C   0  0  0  0  0  0  0  0  0  0  0  0
   -1.1300    1.9640    0.2720 C   0  0  0  0  0  0  0  0  0  0  0  0
   -0.9020    0.6260    0.0330 C   0  0  0  0  0  0  0  0  0  0  0  0
   -1.9240   -0.1870   -0.3640 C   0  0  0  0  0  0  0  0  0  0  0  0
    0.4010    0.1820    0.2200 O   0  0  0  0  0  0  0  0  0  0  0  0
    1.3400    0.7870    1.0570 C   0  0  1  0  0  0  0  0  0  0  0  0
    2.6730    0.9320    0.4080 C   0  0  0  0  0  0  0  0  0  0  0  0
    3.5770    1.4740    1.1110 O   0  0  0  0  0  0  0  0  0  0  0  0
    2.9450    0.5160   -0.8680 O   0  0  0  0  0  0  0  0  0  0  0  0
    4.2400    0.6910   -1.4100 C   0  0  0  0  0  0  0  0  0  0  0  0
    5.2620   -0.0460   -0.5790 C   0  0  0  0  0  0  0  0  0  0  0  0
    6.2460    0.6100   -0.0050 C   0  0  0  0  0  0  0  0  0  0  0  0
    7.2860    0.0290    0.8140 C   0  0  0  0  0  0  0  0  0  0  0  0
    7.4160   -1.2420    1.1180 C   0  0  0  0  0  0  0  0  0  0  0  0
    6.2340   -2.4130    0.4960 S   0  0  0  0  0  0  0  0  0  0  0  0
    5.0770   -1.4820   -0.4850 C   0  0  0  0  0  0  0  0  0  0  0  0
    4.1030   -2.0980   -1.0960 C   0  0  0  0  0  0  0  0  0  0  0  0
    3.9510   -3.4820   -0.9860 O   0  0  0  0  0  0  0  0  0  0  0  0
    0.9220    2.1540    1.5480 C   0  0  0  0  0  0  0  0  0  0  0  0
   -0.0550    2.7330    0.6710 O   0  0  0  0  0  0  0  0  0  0  0  0
  1  2  1  0
  2  3  2  0
  2  4  1  0
  4  5  1  1
  4  6  1  0
  6  7  1  0
  7  8  1  0
  8  9  2  0
  8 13  1  0
  9 10  1  0
 10 11  2  0
 11 12  1  0
 11 29  1  0
 12 13  2  0
 12 14  1  0
 14 15  1  0
 15 16  1  6
 15 28  1  0
 16 17  2  0
 16 18  1  0
 18 19  1  0
 19 20  1  0
 20 21  2  0
 20 25  1  0
 21 22  1  0
 22 23  2  0
 23 24  1  0
 24 25  1  0
 25 26  2  3
 26 27  1  0
 28 29  1  0
M  END
