
     RDKit          3D

 41 44  0  0  0  0  0  0  0  0999 V2000
   -4.3490    4.1680    0.2880 C   0  0  0  0  0  0  0  0  0  0  0  0
   -3.2220    3.2110    0.3760 C   0  0  0  0  0  0  0  0  0  0  0  0
   -2.8770    2.4450   -0.7140 C   0  0  0  0  0  0  0  0  0  0  0  0
   -1.8330    1.5550   -0.6440 C   0  0  0  0  0  0  0  0  0  0  0  0
   -1.0890    1.3800    0.4870 C   0  0  0  0  0  0  0  0  0  0  0  0
    0.0160    0.4490    0.6080 C   0  0  0  0  0  0  0  0  0  0  0  0
    1.2310    1.1240    0.9940 O   0  0  0  0  0  0  0  0  0  0  0  0
    1.6660    2.2390    0.2450 C   0  0  1  0  0  0  0  0  0  0  0  0
    0.6970    3.2050    0.2930 F   0  0  0  0  0  0  0  0  0  0  0  0
    2.8310    2.6780    0.8440 F   0  0  0  0  0  0  0  0  0  0  0  0
    1.9540    1.8470   -1.0430 F   0  0  0  0  0  0  0  0  0  0  0  0
    0.1230   -0.7970    0.4470 C   0  0  0  0  0  0  0  0  0  0  0  0
    1.4500   -1.4270    0.6540 C   0  0  0  0  0  0  0  0  0  0  0  0
    1.6580   -2.6450    0.5160 O   0  0  0  0  0  0  0  0  0  0  0  0
    2.4850   -0.6240    1.0120 O   0  0  0  0  0  0  0  0  0  0  0  0
    3.8090   -0.9080    1.2620 C   0  0  0  0  0  0  0  0  0  0  0  0
    4.4930   -1.4100    0.0190 C   0  0  1  0  0  0  0  0  0  0  0  0
    3.9600   -2.5700   -0.5050 O   0  0  0  0  0  0  0  0  0  0  0  0
    4.4310   -0.3460   -1.0770 C   0  0  0  0  0  0  0  0  0  0  0  0
    5.7350   -0.4210   -1.8390 C   0  0  0  0  0  0  0  0  0  0  0  0
    6.8050    0.2180   -0.9710 C   0  0  0  0  0  0  0  0  0  0  0  0
    6.7410   -0.4470    0.3860 C   0  0  0  0  0  0  0  0  0  0  0  0
    5.9510   -1.7260    0.3510 C   0  0  0  0  0  0  0  0  0  0  0  0
   -0.9220   -1.7530    0.1150 C   0  0  2  0  0  0  0  0  0  0  0  0
   -0.3360   -2.6600   -1.3570 S   0  0  0  0  0  0  0  0  0  0  0  0
   -1.6630   -2.7960   -2.5360 C   0  0  0  0  0  0  0  0  0  0  0  0
   -2.6550   -1.6660   -2.3720 C   0  0  0  0  0  0  0  0  0  0  0  0
   -3.0880   -1.0330   -3.3620 O   0  0  0  0  0  0  0  0  0  0  0  0
   -3.1080   -1.3130   -1.0560 N   0  0  0  0  0  0  0  0  0  0  0  0
   -2.3070   -1.3490    0.0160 C   0  0  0  0  0  0  0  0  0  0  0  0
   -3.1220   -0.9380    1.0810 C   0  0  0  0  0  0  0  0  0  0  0  0
   -4.3980   -0.6660    0.6180 C   0  0  0  0  0  0  0  0  0  0  0  0
   -5.4970   -0.1910    1.4780 C   0  0  0  0  0  0  0  0  0  0  0  0
   -6.6980   -0.7120    1.4170 C   0  0  0  0  0  0  0  0  0  0  0  0
   -7.6700   -0.2220    2.2420 F   0  0  0  0  0  0  0  0  0  0  0  0
   -7.0570   -1.7160    0.6140 F   0  0  0  0  0  0  0  0  0  0  0  0
   -4.3630   -0.9090   -0.7310 C   0  0  0  0  0  0  0  0  0  0  0  0
   -5.5440   -0.7130   -1.6250 C   0  0  0  0  0  0  0  0  0  0  0  0
   -1.4580    2.1720    1.5850 C   0  0  0  0  0  0  0  0  0  0  0  0
   -2.4930    3.0580    1.5240 C   0  0  0  0  0  0  0  0  0  0  0  0
   -2.8260    3.8110    2.6090 F   0  0  0  0  0  0  0  0  0  0  0  0
  1  2  1  0
  2  3  2  0
  2 40  1  0
  3  4  1  0
  4  5  2  0
  5  6  1  0
  5 39  1  0
  6  7  1  0
  6 12  2  3
  7  8  1  0
  8  9  1  6
  8 10  1  0
  8 11  1  0
 12 13  1  0
 24 12  1  6
 13 14  2  0
 13 15  1  0
 15 16  1  0
 16 17  1  0
 17 18  1  6
 17 19  1  0
 17 23  1  0
 19 20  1  0
 20 21  1  0
 21 22  1  0
 22 23  1  0
 24 25  1  0
 24 30  1  0
 25 26  1  0
 26 27  1  0
 27 28  2  0
 27 29  1  0
 29 30  1  0
 29 37  1  0
 30 31  2  0
 31 32  1  0
 32 33  1  0
 32 37  2  0
 33 34  2  3
 34 35  1  0
 34 36  1  0
 37 38  1  0
 39 40  2  0
 40 41  1  0
M  END
