
     RDKit          3D

  9  9  0  0  0  0  0  0  0  0999 V2000
    3.0560    0.4930   -0.1670 C   0  0  0  0  0  0  0  0  0  0  0  0
    1.7270    1.0220   -0.0890 N   0  0  0  0  0  0  0  0  0  0  0  0
    0.5480    0.2450   -0.1490 C   0  0  0  0  0  0  0  0  0  0  0  0
    0.5880   -1.1170   -0.2890 C   0  0  0  0  0  0  0  0  0  0  0  0
   -0.5880   -1.8460   -0.3440 C   0  0  0  0  0  0  0  0  0  0  0  0
   -1.8310   -1.2530   -0.2610 C   0  0  0  0  0  0  0  0  0  0  0  0
   -1.8750    0.1230   -0.1190 C   0  0  0  0  0  0  0  0  0  0  0  0
   -3.1440    0.7560   -0.0320 N   0  0  0  0  0  0  0  0  0  0  0  0
   -0.6910    0.8380   -0.0660 C   0  0  0  0  0  0  0  0  0  0  0  0
  1  2  1  0
  2  3  1  0
  3  4  2  0
  3  9  1  0
  4  5  1  0
  5  6  2  0
  6  7  1  0
  7  8  1  0
  7  9  2  0
M  END
