
     RDKit          3D

  9  9  0  0  0  0  0  0  0  0999 V2000
    2.9780    0.3980    0.4220 C   0  0  0  0  0  0  0  0  0  0  0  0
    2.0990   -0.5190   -0.3740 C   0  0  0  0  0  0  0  0  0  0  0  0
    0.6570   -0.2260   -0.1680 C   0  0  0  0  0  0  0  0  0  0  0  0
   -0.2650   -0.9900   -0.8370 C   0  0  0  0  0  0  0  0  0  0  0  0
   -1.6300   -0.7910   -0.7090 C   0  0  0  0  0  0  0  0  0  0  0  0
   -2.0800    0.2150    0.1240 C   0  0  0  0  0  0  0  0  0  0  0  0
   -3.4610    0.4900    0.3150 N   0  0  0  0  0  0  0  0  0  0  0  0
   -1.1210    0.9620    0.7780 C   0  0  0  0  0  0  0  0  0  0  0  0
    0.2030    0.7470    0.6350 N   0  0  0  0  0  0  0  0  0  0  0  0
  1  2  1  0
  2  3  1  0
  3  4  2  0
  3  9  1  0
  4  5  1  0
  5  6  2  0
  6  7  1  0
  6  8  1  0
  8  9  2  0
M  END
