
     RDKit          3D

  9  9  0  0  0  0  0  0  0  0999 V2000
    2.6650   -0.1250    0.0540 C   0  0  0  0  0  0  0  0  0  0  0  0
    1.4690   -0.6510    0.1810 C   0  0  0  0  0  0  0  0  0  0  0  0
    0.2280    0.0850   -0.0190 C   0  0  0  0  0  0  0  0  0  0  0  0
    0.1910    1.4190   -0.3630 C   0  0  0  0  0  0  0  0  0  0  0  0
   -0.9860    2.1130   -0.5510 C   0  0  0  0  0  0  0  0  0  0  0  0
   -2.1290    1.4260   -0.3820 N   0  0  0  0  0  0  0  0  0  0  0  0
   -2.1420    0.1230   -0.0460 C   0  0  0  0  0  0  0  0  0  0  0  0
   -0.9850   -0.5930    0.1470 C   0  0  0  0  0  0  0  0  0  0  0  0
   -0.9950   -1.9680    0.5020 N   0  0  0  0  0  0  0  0  0  0  0  0
  1  2  2  0
  2  3  1  0
  3  4  2  0
  3  8  1  0
  4  5  1  0
  5  6  2  0
  6  7  1  0
  7  8  2  0
  8  9  1  0
M  END
