
     RDKit          3D

  9  9  0  0  0  0  0  0  0  0999 V2000
   -2.1060   -1.6300    0.3210 C   0  0  0  0  0  0  0  0  0  0  0  0
   -1.0000   -0.6490    0.1290 C   0  0  0  0  0  0  0  0  0  0  0  0
    0.3100   -1.0780    0.1240 C   0  0  0  0  0  0  0  0  0  0  0  0
    1.3640   -0.1860   -0.0530 C   0  0  0  0  0  0  0  0  0  0  0  0
    2.7630   -0.6980   -0.0500 C   0  0  0  0  0  0  0  0  0  0  0  0
    1.0620    1.1090   -0.2200 N   0  0  0  0  0  0  0  0  0  0  0  0
   -0.1880    1.6140   -0.2290 C   0  0  0  0  0  0  0  0  0  0  0  0
   -0.4450    2.9960   -0.4100 N   0  0  0  0  0  0  0  0  0  0  0  0
   -1.2200    0.6950   -0.0490 C   0  0  0  0  0  0  0  0  0  0  0  0
  1  2  1  0
  2  3  2  0
  2  9  1  0
  3  4  1  0
  4  5  1  0
  4  6  2  0
  6  7  1  0
  7  8  1  0
  7  9  2  0
M  END
