
     RDKit          3D

  9  9  0  0  0  0  0  0  0  0999 V2000
    3.1170    0.0160    0.2760 C   0  0  0  0  0  0  0  0  0  0  0  0
    2.0980   -0.3950   -0.6290 N   0  0  0  0  0  0  0  0  0  0  0  0
    0.7160   -0.2040   -0.3590 C   0  0  0  0  0  0  0  0  0  0  0  0
    0.2810    0.3910    0.7970 C   0  0  0  0  0  0  0  0  0  0  0  0
   -1.0680    0.5590    1.0240 C   0  0  0  0  0  0  0  0  0  0  0  0
   -2.0430    0.1500    0.1270 C   0  0  0  0  0  0  0  0  0  0  0  0
   -3.4180    0.3480    0.4110 N   0  0  0  0  0  0  0  0  0  0  0  0
   -1.5960   -0.4490   -1.0370 C   0  0  0  0  0  0  0  0  0  0  0  0
   -0.2450   -0.6150   -1.2590 C   0  0  0  0  0  0  0  0  0  0  0  0
  1  2  1  0
  2  3  1  0
  3  4  2  0
  3  9  1  0
  4  5  1  0
  5  6  2  0
  6  7  1  0
  6  8  1  0
  8  9  2  0
M  END
