
     RDKit          3D

 20 20  0  0  0  0  0  0  0  0999 V2000
    2.3860   -0.8270    2.0300 O   0  0  0  0  0  0  0  0  0  0  0  0
    1.8250   -0.1800    1.1590 C   0  0  0  0  0  0  0  0  0  0  0  0
    0.4360    0.2200    1.4170 C   0  0  0  0  0  0  0  0  0  0  0  0
   -0.1010    0.5910    0.1070 O   0  0  0  0  0  0  0  0  0  0  0  0
   -1.5240    0.4580    0.1080 C   0  0  0  0  0  0  0  0  0  0  0  0
   -2.1150    0.1430    1.1050 O   0  0  0  0  0  0  0  0  0  0  0  0
   -2.2040    0.6960   -1.1040 N   0  0  0  0  0  0  0  0  0  0  0  0
   -3.6310    0.4630   -1.1820 C   0  0  2  0  0  0  0  0  0  0  0  0
   -4.5090    1.4310   -0.5100 C   0  0  0  0  0  0  0  0  0  0  0  0
   -5.8940    0.7590   -0.4050 C   0  0  0  0  0  0  0  0  0  0  0  0
   -5.7260   -0.2860    0.5070 O   0  0  0  0  0  0  0  0  0  0  0  0
   -5.0630   -1.3380   -0.1080 C   0  0  0  0  0  0  0  0  0  0  0  0
   -3.7640   -0.9810   -0.6930 C   0  0  0  0  0  0  0  0  0  0  0  0
    2.5720    0.1290   -0.0390 N   0  0  0  0  0  0  0  0  0  0  0  0
    3.8450   -0.4260   -0.2680 C   0  0  0  0  0  0  0  0  0  0  0  0
    4.8780   -0.2810    0.8150 C   0  0  0  0  0  0  0  0  0  0  0  0
    6.0100   -0.9390    0.2830 O   0  0  0  0  0  0  0  0  0  0  0  0
    6.9200   -0.0510   -0.7810 P   0  0  0  0  0  0  0  0  0  0  0  0
    7.8780   -1.0940   -1.7430 O   0  0  0  0  0  0  0  0  0  0  0  0
    7.5360    1.4430   -0.4950 O   0  0  0  0  0  0  0  0  0  0  0  0
  1  2  2  0
  2  3  1  0
  2 14  1  0
  3  4  1  0
  4  5  1  0
  5  6  2  0
  5  7  1  0
  8  7  1  1
  8  9  1  0
  8 13  1  0
  9 10  1  0
 10 11  1  0
 11 12  1  0
 12 13  1  0
 14 15  1  0
 15 16  1  0
 16 17  1  0
 17 18  1  0
 18 19  1  0
 18 20  1  0
M  END
