
     RDKit          3D

  9  8  0  0  0  0  0  0  0  0999 V2000
   -0.5220   -1.0280    0.1970 N   0  0  0  0  0  0  0  0  0  0  0  0
   -0.9540    0.1730    0.0590 C   0  0  0  0  0  0  0  0  0  0  0  0
   -2.3600    0.4650    0.4730 C   0  0  0  0  0  0  0  0  0  0  0  0
   -3.0020    0.9330   -0.6980 O   0  0  0  0  0  0  0  0  0  0  0  0
   -0.1100    1.1140   -0.4540 O   0  0  0  0  0  0  0  0  0  0  0  0
    1.1390    0.8960   -0.8610 O   0  0  0  0  0  0  0  0  0  0  0  0
    2.1500    0.2340    0.3600 P   0  0  0  0  0  0  0  0  0  0  0  0
    2.3040   -1.4920    0.1980 O   0  0  0  0  0  0  0  0  0  0  0  0
    3.7590    0.8930    0.2740 O   0  0  0  0  0  0  0  0  0  0  0  0
  1  2  2  0
  2  3  1  0
  2  5  1  0
  3  4  1  0
  5  6  1  0
  6  7  1  0
  7  8  1  0
  7  9  1  0
M  END
