
     RDKit          3D

 19 19  0  0  0  0  0  0  0  0999 V2000
   -5.7060    0.9050    0.2790 C   0  0  0  0  0  0  0  0  0  0  0  0
   -4.3700    0.6180    0.8530 C   0  0  0  0  0  0  0  0  0  0  0  0
   -3.7590   -0.4950    0.4950 C   0  0  0  0  0  0  0  0  0  0  0  0
   -4.3460   -1.3950   -0.4060 N   0  0  0  0  0  0  0  0  0  0  0  0
   -2.5040   -0.7680    1.0340 O   0  0  0  0  0  0  0  0  0  0  0  0
   -1.3300   -0.7480    0.2310 C   0  0  2  0  0  0  0  0  0  0  0  0
   -1.4120   -1.6890   -0.8160 O   0  0  0  0  0  0  0  0  0  0  0  0
   -0.1790   -1.1940    1.1060 C   0  0  0  0  0  0  0  0  0  0  0  0
    1.0530   -1.1300    0.2210 C   0  0  0  0  0  0  0  0  0  0  0  0
    1.3030    0.1780   -0.2120 N   0  0  0  0  0  0  0  0  0  0  0  0
    2.5660    0.4400   -0.7780 C   0  0  0  0  0  0  0  0  0  0  0  0
    3.6600    0.3640    0.2350 C   0  0  0  0  0  0  0  0  0  0  0  0
    3.4310    0.1120    1.4520 O   0  0  0  0  0  0  0  0  0  0  0  0
    4.9950    0.5680   -0.1150 O   0  0  0  0  0  0  0  0  0  0  0  0
    6.2420    0.4640    1.1440 P   0  0  0  0  0  0  0  0  0  0  0  0
    7.3050   -0.8580    0.8060 O   0  0  0  0  0  0  0  0  0  0  0  0
    7.1210    1.9580    1.0940 O   0  0  0  0  0  0  0  0  0  0  0  0
    0.2740    1.1140   -0.3150 C   0  0  0  0  0  0  0  0  0  0  0  0
   -1.1180    0.5930   -0.3920 C   0  0  0  0  0  0  0  0  0  0  0  0
  1  2  1  0
  2  3  2  3
  3  4  1  0
  3  5  1  0
  5  6  1  0
  6  7  1  6
  6  8  1  0
  6 19  1  0
  8  9  1  0
  9 10  1  0
 10 11  1  0
 10 18  1  0
 11 12  1  0
 12 13  2  0
 12 14  1  0
 14 15  1  0
 15 16  1  0
 15 17  1  0
 18 19  1  0
M  END
