
     RDKit          3D

 20 20  0  0  0  0  0  0  0  0999 V2000
   -1.8990    3.7560   -1.0110 C   0  0  0  0  0  0  0  0  0  0  0  0
   -1.8050    2.3490   -0.7710 O   0  0  0  0  0  0  0  0  0  0  0  0
   -0.6570    1.6450   -1.0530 C   0  0  0  0  0  0  0  0  0  0  0  0
    0.3140    2.3160   -1.5350 O   0  0  0  0  0  0  0  0  0  0  0  0
   -0.4510    0.2610   -0.8630 N   0  0  0  0  0  0  0  0  0  0  0  0
    0.8030   -0.3630   -1.1970 C   0  0  0  0  0  0  0  0  0  0  0  0
    1.8000   -0.4000   -0.0740 C   0  0  0  0  0  0  0  0  0  0  0  0
    2.1560    0.8320    0.4160 O   0  0  0  0  0  0  0  0  0  0  0  0
    3.1170    0.5960    1.4200 C   0  0  0  0  0  0  0  0  0  0  0  0
    4.5400   -0.2440    0.5640 P   0  0  0  0  0  0  0  0  0  0  0  0
    5.5250    0.8590   -0.2950 O   0  0  0  0  0  0  0  0  0  0  0  0
    5.3940   -1.3130    1.5920 O   0  0  0  0  0  0  0  0  0  0  0  0
   -1.4980   -0.5330   -0.3380 C   0  0  0  0  0  0  0  0  0  0  0  0
   -2.6050   -0.7280   -1.1370 C   0  0  0  0  0  0  0  0  0  0  0  0
   -3.6850   -1.4920   -0.7060 C   0  0  0  0  0  0  0  0  0  0  0  0
   -3.5950   -2.0370    0.5460 C   0  0  0  0  0  0  0  0  0  0  0  0
   -4.6400   -2.8080    1.0330 O   0  0  0  0  0  0  0  0  0  0  0  0
   -2.4740   -1.8210    1.3190 C   0  0  0  0  0  0  0  0  0  0  0  0
   -2.4090   -2.3790    2.5710 O   0  0  0  0  0  0  0  0  0  0  0  0
   -1.4390   -1.0770    0.8790 N   0  0  0  0  0  0  0  0  0  0  0  0
  1  2  1  0
  2  3  1  0
  3  4  2  0
  3  5  1  0
  5  6  1  0
  5 13  1  0
  6  7  1  0
  7  8  1  0
  8  9  1  0
  9 10  1  0
 10 11  1  0
 10 12  1  0
 13 14  2  0
 13 20  1  0
 14 15  1  0
 15 16  2  0
 16 17  1  0
 16 18  1  0
 18 19  1  0
 18 20  2  0
M  END
