
     RDKit          3D

 19 19  0  0  0  0  0  0  0  0999 V2000
    3.9480    2.0140    0.4580 C   0  0  0  0  0  0  0  0  0  0  0  0
    4.3670    0.5800    0.4100 C   0  0  0  0  0  0  0  0  0  0  0  0
    5.5630    0.2760    0.3040 O   0  0  0  0  0  0  0  0  0  0  0  0
    3.3570   -0.4360    0.4890 C   0  0  0  0  0  0  0  0  0  0  0  0
    2.0390   -0.1280    0.6060 N   0  0  0  0  0  0  0  0  0  0  0  0
    1.0930   -1.0680    0.6800 C   0  0  0  0  0  0  0  0  0  0  0  0
   -0.2650   -0.7150    0.8010 O   0  0  0  0  0  0  0  0  0  0  0  0
   -0.9700   -0.5500   -0.4050 C   0  0  1  0  0  0  0  0  0  0  0  0
   -0.3040    0.5500   -1.1980 C   0  0  0  0  0  0  0  0  0  0  0  0
   -0.7910   -1.7810   -1.1690 N   0  0  0  0  0  0  0  0  0  0  0  0
   -2.4300   -0.3420   -0.2220 C   0  0  0  0  0  0  0  0  0  0  0  0
   -2.7830    0.8710    0.5910 C   0  0  0  0  0  0  0  0  0  0  0  0
   -4.6300    1.0100    0.7390 P   0  0  0  0  0  0  0  0  0  0  0  0
   -5.3830    0.7210   -0.8110 O   0  0  0  0  0  0  0  0  0  0  0  0
   -5.1070    2.6140    1.2260 O   0  0  0  0  0  0  0  0  0  0  0  0
    1.4640   -2.3940    0.6370 C   0  0  0  0  0  0  0  0  0  0  0  0
    2.8150   -2.6570    0.5180 C   0  0  0  0  0  0  0  0  0  0  0  0
    3.1860   -3.8500    0.4760 O   0  0  0  0  0  0  0  0  0  0  0  0
    3.6870   -1.6920    0.4500 O   0  0  0  0  0  0  0  0  0  0  0  0
  1  2  1  0
  2  3  2  0
  2  4  1  0
  4  5  2  0
  4 19  1  0
  5  6  1  0
  6  7  1  0
  6 16  2  0
  7  8  1  0
  8  9  1  6
  8 10  1  0
  8 11  1  0
 11 12  1  0
 12 13  1  0
 13 14  1  0
 13 15  1  0
 16 17  1  0
 17 18  2  0
 17 19  1  0
M  END
