
     RDKit          3D

 20 21  0  0  0  0  0  0  0  0999 V2000
   -6.5560   -0.2010    0.4830 O   0  0  0  0  0  0  0  0  0  0  0  0
   -6.0120   -0.3640   -0.7800 C   0  0  0  0  0  0  0  0  0  0  0  0
   -4.5720    0.0200   -0.8620 C   0  0  0  0  0  0  0  0  0  0  0  0
   -3.7560   -0.7460    0.0100 O   0  0  0  0  0  0  0  0  0  0  0  0
   -2.3750   -0.5200    0.0640 C   0  0  0  0  0  0  0  0  0  0  0  0
   -1.8380    0.4810    0.7200 C   0  0  0  0  0  0  0  0  0  0  0  0
   -2.5300    1.4430    1.4420 O   0  0  0  0  0  0  0  0  0  0  0  0
   -0.3940    0.4070    0.5600 C   0  0  0  0  0  0  0  0  0  0  0  0
    0.4450    1.2820    1.1050 C   0  0  0  0  0  0  0  0  0  0  0  0
    1.8710    1.1150    0.8810 C   0  0  0  0  0  0  0  0  0  0  0  0
    2.8440    1.3730    1.8030 N   0  0  0  0  0  0  0  0  0  0  0  0
    4.0060    1.1190    1.2770 O   0  0  0  0  0  0  0  0  0  0  0  0
    3.8800    0.7000    0.0420 C   0  0  0  0  0  0  0  0  0  0  0  0
    4.9800    0.3130   -0.8800 C   0  0  0  0  0  0  0  0  0  0  0  0
    5.3790   -1.4960   -0.7350 P   0  0  0  0  0  0  0  0  0  0  0  0
    5.2270   -2.0050    0.9170 O   0  0  0  0  0  0  0  0  0  0  0  0
    7.0420   -1.6860   -1.2560 O   0  0  0  0  0  0  0  0  0  0  0  0
    2.5470    0.6980   -0.2030 N   0  0  0  0  0  0  0  0  0  0  0  0
   -0.1160   -0.6830   -0.2200 O   0  0  0  0  0  0  0  0  0  0  0  0
   -1.3100   -1.3260   -0.5770 C   0  0  0  0  0  0  0  0  0  0  0  0
  1  2  1  0
  2  3  1  0
  3  4  1  0
  4  5  1  0
  5  6  2  0
  5 20  1  0
  6  7  1  0
  6  8  1  0
  8  9  2  3
  8 19  1  0
  9 10  1  0
 10 11  2  0
 10 18  1  0
 11 12  1  0
 12 13  1  0
 13 14  1  0
 13 18  2  0
 14 15  1  0
 15 16  1  0
 15 17  1  0
 19 20  1  0
M  END
