
     RDKit          3D

 20 19  0  0  0  0  0  0  0  0999 V2000
    1.3280   -0.2840    2.1640 O   0  0  0  0  0  0  0  0  0  0  0  0
    1.3630   -0.0510    0.9540 C   0  0  0  0  0  0  0  0  0  0  0  0
    2.6990    0.2180    0.3540 C   0  0  0  0  0  0  0  0  0  0  0  0
    3.7030    0.1570    1.2940 O   0  0  0  0  0  0  0  0  0  0  0  0
    5.1840    0.4660    0.5770 P   0  0  2  0  0  0  0  0  0  0  0  0
    5.8160    1.7550    1.1020 O   0  0  0  0  0  0  0  0  0  0  0  0
    5.0580    0.5660   -1.0940 O   0  0  0  0  0  0  0  0  0  0  0  0
    6.2990   -0.7740    0.9330 O   0  0  0  0  0  0  0  0  0  0  0  0
    0.1130   -0.0440    0.1460 C   0  0  1  0  0  0  0  0  0  0  0  0
    0.4730    0.2470   -1.1660 O   0  0  0  0  0  0  0  0  0  0  0  0
   -0.5950   -1.3940    0.2320 C   0  0  1  0  0  0  0  0  0  0  0  0
   -0.9460   -1.6700    1.5260 O   0  0  0  0  0  0  0  0  0  0  0  0
   -1.7110   -1.5020   -0.7580 C   0  0  2  0  0  0  0  0  0  0  0  0
   -1.2770   -1.2090   -2.0270 O   0  0  0  0  0  0  0  0  0  0  0  0
   -2.9050   -0.6690   -0.4360 C   0  0  0  0  0  0  0  0  0  0  0  0
   -2.6420    0.7020   -0.4900 O   0  0  0  0  0  0  0  0  0  0  0  0
   -4.0410    1.5740   -0.1140 P   0  0  2  0  0  0  0  0  0  0  0  0
   -3.7780    2.2320    1.2440 O   0  0  0  0  0  0  0  0  0  0  0  0
   -5.3670    0.5120    0.0430 O   0  0  0  0  0  0  0  0  0  0  0  0
   -4.3840    2.7400   -1.2810 O   0  0  0  0  0  0  0  0  0  0  0  0
  1  2  2  0
  2  3  1  0
  2  9  1  0
  3  4  1  0
  4  5  1  0
  5  6  2  0
  5  7  1  6
  5  8  1  0
  9 10  1  6
  9 11  1  0
 11 12  1  1
 11 13  1  0
 13 14  1  6
 13 15  1  0
 15 16  1  0
 16 17  1  0
 17 18  2  0
 17 19  1  1
 17 20  1  0
M  END
