
     RDKit          3D

 19 19  0  0  0  0  0  0  0  0999 V2000
    5.0850   -1.6230   -1.1030 C   0  0  0  0  0  0  0  0  0  0  0  0
    3.8890   -0.9240   -0.5470 C   0  0  0  0  0  0  0  0  0  0  0  0
    2.9410   -1.6080    0.1890 C   0  0  0  0  0  0  0  0  0  0  0  0
    1.8840   -0.9050    0.6560 N   0  0  0  0  0  0  0  0  0  0  0  0
    1.7450    0.4040    0.4240 C   0  0  0  0  0  0  0  0  0  0  0  0
    0.5380    1.1080    0.9830 C   0  0  2  0  0  0  0  0  0  0  0  0
   -0.6070    0.3110    0.6870 N   0  0  0  0  0  0  0  0  0  0  0  0
   -1.8310    0.7460    1.2550 C   0  0  0  0  0  0  0  0  0  0  0  0
   -2.9620   -0.1490    0.8390 C   0  0  0  0  0  0  0  0  0  0  0  0
   -3.1420   -0.1460   -0.6580 C   0  0  0  0  0  0  0  0  0  0  0  0
   -4.5920   -1.2710   -1.0060 P   0  0  0  0  0  0  0  0  0  0  0  0
   -4.1780   -2.9150   -0.7620 O   0  0  0  0  0  0  0  0  0  0  0  0
   -5.9810   -0.7910   -0.0910 O   0  0  0  0  0  0  0  0  0  0  0  0
    0.4390    2.4600    0.4270 C   0  0  0  0  0  0  0  0  0  0  0  0
   -0.5100    2.8780   -0.2680 O   0  0  0  0  0  0  0  0  0  0  0  0
    1.4670    3.3940    0.6660 O   0  0  0  0  0  0  0  0  0  0  0  0
    2.6530    1.0440   -0.2780 O   0  0  0  0  0  0  0  0  0  0  0  0
    3.7060    0.4410   -0.7660 C   0  0  0  0  0  0  0  0  0  0  0  0
    4.5670    1.0550   -1.4320 O   0  0  0  0  0  0  0  0  0  0  0  0
  1  2  1  0
  2  3  2  0
  2 18  1  0
  3  4  1  0
  4  5  2  0
  5  6  1  0
  5 17  1  0
  6  7  1  6
  6 14  1  0
  7  8  1  0
  8  9  1  0
  9 10  1  0
 10 11  1  0
 11 12  1  0
 11 13  1  0
 14 15  2  0
 14 16  1  0
 17 18  1  0
 18 19  2  0
M  END
