
     RDKit          3D

 20 20  0  0  0  0  0  0  0  0999 V2000
   -1.2800    2.1590   -2.1550 O   0  0  0  0  0  0  0  0  0  0  0  0
   -1.0250    1.1610   -1.4330 C   0  0  0  0  0  0  0  0  0  0  0  0
    0.3720    0.7300   -1.2480 C   0  0  0  0  0  0  0  0  0  0  0  0
    0.4960   -0.4060   -0.3410 N   0  0  0  0  0  0  0  0  0  0  0  0
    1.8670   -0.9020   -0.4740 C   0  0  0  0  0  0  0  0  0  0  0  0
    2.9010    0.0390    0.0910 C   0  0  0  0  0  0  0  0  0  0  0  0
    4.2760   -0.5850   -0.1300 C   0  0  0  0  0  0  0  0  0  0  0  0
    5.6400    0.4530    0.5310 P   0  0  0  0  0  0  0  0  0  0  0  0
    7.0900   -0.5020    0.7140 O   0  0  0  0  0  0  0  0  0  0  0  0
    5.9500    1.8000   -0.5250 O   0  0  0  0  0  0  0  0  0  0  0  0
   -2.1420    0.4800   -0.8180 N   0  0  0  0  0  0  0  0  0  0  0  0
   -2.3700   -0.6290    0.0580 C   0  0  0  0  0  0  0  0  0  0  0  0
   -3.7840   -0.1660    0.2730 C   0  0  2  0  0  0  0  0  0  0  0  0
   -3.9660    0.5880    1.5420 C   0  0  0  0  0  0  0  0  0  0  0  0
   -4.7250    0.1000    2.4100 O   0  0  0  0  0  0  0  0  0  0  0  0
   -3.3570    1.7920    1.8370 O   0  0  0  0  0  0  0  0  0  0  0  0
   -4.7870   -1.2640    0.1220 C   0  0  0  0  0  0  0  0  0  0  0  0
   -5.5120   -1.5310    1.1070 O   0  0  0  0  0  0  0  0  0  0  0  0
   -4.9390   -1.9840   -1.0440 O   0  0  0  0  0  0  0  0  0  0  0  0
   -3.5680    0.6710   -0.9270 C   0  0  0  0  0  0  0  0  0  0  0  0
  1  2  2  0
  2  3  1  0
  2 11  1  0
  3  4  1  0
  4  5  1  0
  5  6  1  0
  6  7  1  0
  7  8  1  0
  8  9  1  0
  8 10  1  0
 11 12  1  0
 11 20  1  0
 12 13  1  0
 13 14  1  1
 13 17  1  0
 13 20  1  0
 14 15  2  0
 14 16  1  0
 17 18  2  0
 17 19  1  0
M  END
