
     RDKit          3D

 19 19  0  0  0  0  0  0  0  0999 V2000
   -4.7890   -1.7040    0.2950 C   0  0  0  0  0  0  0  0  0  0  0  0
   -5.0810   -0.3440    0.2540 O   0  0  0  0  0  0  0  0  0  0  0  0
   -4.1920    0.6750   -0.0220 C   0  0  0  0  0  0  0  0  0  0  0  0
   -2.9610    0.6400   -0.4940 C   0  0  0  0  0  0  0  0  0  0  0  0
   -2.3190   -0.5410   -0.8120 O   0  0  0  0  0  0  0  0  0  0  0  0
   -0.9850   -0.6430   -0.5120 N   0  0  0  0  0  0  0  0  0  0  0  0
   -0.0380   -0.9070   -1.5320 C   0  0  0  0  0  0  0  0  0  0  0  0
   -0.3450   -1.0560   -2.7240 O   0  0  0  0  0  0  0  0  0  0  0  0
    1.4050   -1.0100   -1.1350 C   0  0  0  0  0  0  0  0  0  0  0  0
    1.5110   -0.7970    0.2810 N   0  0  0  0  0  0  0  0  0  0  0  0
    2.8640   -0.9760    0.7170 C   0  0  0  0  0  0  0  0  0  0  0  0
    3.7210    0.1390    0.1780 C   0  0  0  0  0  0  0  0  0  0  0  0
    5.4920   -0.0720    0.7770 P   0  0  0  0  0  0  0  0  0  0  0  0
    6.4730   -0.4100   -0.6100 O   0  0  0  0  0  0  0  0  0  0  0  0
    6.0580    1.3760    1.5410 O   0  0  0  0  0  0  0  0  0  0  0  0
   -2.4160    1.9890   -0.6180 C   0  0  0  0  0  0  0  0  0  0  0  0
   -1.2580    2.2950   -1.0410 O   0  0  0  0  0  0  0  0  0  0  0  0
   -3.3940    2.8490   -0.1900 O   0  0  0  0  0  0  0  0  0  0  0  0
   -4.5220    2.1230    0.1940 C   0  0  0  0  0  0  0  0  0  0  0  0
  1  2  1  0
  2  3  1  0
  3  4  2  0
  3 19  1  0
  4  5  1  0
  4 16  1  0
  5  6  1  0
  6  7  1  0
  7  8  2  0
  7  9  1  0
  9 10  1  0
 10 11  1  0
 11 12  1  0
 12 13  1  0
 13 14  1  0
 13 15  1  0
 16 17  2  0
 16 18  1  0
 18 19  1  0
M  END
