
     RDKit          3D

 21 22  0  0  0  0  0  0  0  0999 V2000
    4.3680   -2.5020   -0.4940 O   0  0  0  0  0  0  0  0  0  0  0  0
    3.5350   -1.6570   -0.1020 C   0  0  0  0  0  0  0  0  0  0  0  0
    2.2750   -2.1220    0.5040 C   0  0  0  0  0  0  0  0  0  0  0  0
    1.2340   -2.3740   -0.4740 N   0  0  0  0  0  0  0  0  0  0  0  0
   -0.0970   -2.2240    0.0840 C   0  0  0  0  0  0  0  0  0  0  0  0
   -0.8920   -1.1390   -0.6230 C   0  0  1  0  0  0  0  0  0  0  0  0
   -1.3320   -1.6790   -1.8280 O   0  0  0  0  0  0  0  0  0  0  0  0
   -2.0670   -0.7770    0.2370 C   0  0  0  0  0  0  0  0  0  0  0  0
   -2.7500    0.4870   -0.1280 C   0  0  1  0  0  0  0  0  0  0  0  0
   -3.5500    0.9450    1.1000 C   0  0  0  0  0  0  0  0  0  0  0  0
   -4.4440   -0.0590    1.4920 O   0  0  0  0  0  0  0  0  0  0  0  0
   -1.8580    1.5820   -0.4600 N   0  0  0  0  0  0  0  0  0  0  0  0
   -0.5740    1.2540    0.0430 C   0  0  2  0  0  0  0  0  0  0  0  0
    0.4580    2.3350   -0.0670 C   0  0  1  0  0  0  0  0  0  0  0  0
   -0.0190    3.5950    0.2320 O   0  0  0  0  0  0  0  0  0  0  0  0
    1.5240    1.9580    0.7830 O   0  0  0  0  0  0  0  0  0  0  0  0
    2.7000    1.7750    0.1020 C   0  0  0  0  0  0  0  0  0  0  0  0
    3.5810    0.6910    0.7170 C   0  0  0  0  0  0  0  0  0  0  0  0
    3.7980   -0.3230   -0.2380 O   0  0  0  0  0  0  0  0  0  0  0  0
   -0.0480    0.0840   -0.8060 C   0  0  2  0  0  0  0  0  0  0  0  0
    0.0870    0.4640   -2.1360 O   0  0  0  0  0  0  0  0  0  0  0  0
  1  2  2  0
  2  3  1  0
  2 19  1  0
  3  4  1  0
  4  5  1  0
  5  6  1  0
  6  7  1  6
  6  8  1  0
  6 20  1  0
  8  9  1  0
  9 10  1  1
  9 12  1  0
 10 11  1  0
 13 12  1  6
 13 14  1  0
 13 20  1  0
 14 15  1  1
 14 16  1  0
 16 17  1  0
 17 18  1  0
 18 19  1  0
 20 21  1  6
M  CHG  2   4   1  12   1
M  END
