
     RDKit          3D

 20 20  0  0  0  0  0  0  0  0999 V2000
    3.9740    2.4660    1.6020 C   0  0  0  0  0  0  0  0  0  0  0  0
    3.1880    2.2370    0.4480 O   0  0  0  0  0  0  0  0  0  0  0  0
    1.8680    1.8330    0.4930 C   0  0  0  0  0  0  0  0  0  0  0  0
    1.3580    1.6660    1.6110 O   0  0  0  0  0  0  0  0  0  0  0  0
    1.1230    1.6160   -0.7460 C   0  0  1  0  0  0  0  0  0  0  0  0
    2.0280    2.0450   -1.8060 O   0  0  0  0  0  0  0  0  0  0  0  0
    0.7800    0.2390   -1.1170 C   0  0  1  0  0  0  0  0  0  0  0  0
    2.0330   -0.4620   -1.1700 O   0  0  0  0  0  0  0  0  0  0  0  0
   -0.1780   -0.5970   -0.3830 C   0  0  1  0  0  0  0  0  0  0  0  0
   -1.5870   -0.1190   -0.2430 C   0  0  2  0  0  0  0  0  0  0  0  0
   -2.2370    0.1230   -1.5020 N   0  0  0  0  0  0  0  0  0  0  0  0
   -1.8940    0.9120    0.7550 C   0  0  0  0  0  0  0  0  0  0  0  0
   -3.3720    1.2660    0.7550 C   0  0  2  0  0  0  0  0  0  0  0  0
   -3.8130    1.7700   -0.4550 O   0  0  0  0  0  0  0  0  0  0  0  0
   -3.6390    2.2380    1.7240 O   0  0  0  0  0  0  0  0  0  0  0  0
   -0.3150   -1.8840   -1.2530 C   0  0  0  0  0  0  0  0  0  0  0  0
    0.7440   -2.8900   -0.9870 C   0  0  0  0  0  0  0  0  0  0  0  0
    0.8710   -3.2710    0.4760 C   0  0  0  0  0  0  0  0  0  0  0  0
   -0.1510   -2.4580    1.1560 N   0  0  0  0  0  0  0  0  0  0  0  0
    0.2850   -1.0880    0.9630 C   0  0  0  0  0  0  0  0  0  0  0  0
  1  2  1  0
  2  3  1  0
  3  4  2  0
  3  5  1  0
  5  6  1  6
  5  7  1  0
  7  8  1  1
  7  9  1  0
  9 10  1  0
  9 16  1  6
  9 20  1  0
 10 11  1  6
 10 12  1  0
 12 13  1  0
 13 14  1  6
 13 15  1  0
 16 17  1  0
 17 18  1  0
 18 19  1  0
 19 20  1  0
M  CHG  2  11   1  19   1
M  END
