
     RDKit          3D

 25 26  0  0  0  0  0  0  0  0999 V2000
   -4.2620    1.0970    0.9740 C   0  0  0  0  0  0  0  0  0  0  0  0
   -3.4820   -0.0850    0.5010 C   0  0  2  0  0  0  0  0  0  0  0  0
   -2.2610    0.2880   -0.2930 C   0  0  2  0  0  0  0  0  0  0  0  0
   -2.6320    1.0730   -1.3810 O   0  0  0  0  0  0  0  0  0  0  0  0
   -1.5020   -0.8930   -0.8030 C   0  0  0  0  0  0  0  0  0  0  0  0
   -0.1950   -0.2640   -1.2480 C   0  0  2  0  0  0  0  0  0  0  0  0
    0.8670   -1.1450   -1.1470 O   0  0  0  0  0  0  0  0  0  0  0  0
   -0.0280    0.9860   -0.4440 C   0  0  2  0  0  0  0  0  0  0  0  0
   -0.0110    2.1840   -1.3670 C   0  0  0  0  0  0  0  0  0  0  0  0
    1.2100    0.9950    0.4150 C   0  0  2  0  0  0  0  0  0  0  0  0
    1.2320    2.2580    1.1270 N   0  0  0  0  0  0  0  0  0  0  0  0
    2.3670    0.8680   -0.3020 O   0  0  0  0  0  0  0  0  0  0  0  0
    3.0030   -0.2120    0.0810 O   0  0  0  0  0  0  0  0  0  0  0  0
    4.2400   -0.3400   -0.5510 C   0  0  2  0  0  0  0  0  0  0  0  0
    4.2530   -1.6550   -1.2840 C   0  0  0  0  0  0  0  0  0  0  0  0
    5.4690   -1.8520   -1.9440 O   0  0  0  0  0  0  0  0  0  0  0  0
    5.3850   -0.3620    0.4480 C   0  0  1  0  0  0  0  0  0  0  0  0
    5.4300    0.8090    1.2050 O   0  0  0  0  0  0  0  0  0  0  0  0
    5.3230   -1.4920    1.2370 O   0  0  0  0  0  0  0  0  0  0  0  0
   -1.2400    1.0460    0.4940 C   0  0  2  0  0  0  0  0  0  0  0  0
   -0.8730    0.4280    1.6780 O   0  0  0  0  0  0  0  0  0  0  0  0
   -4.3220   -0.8050   -0.3800 O   0  0  0  0  0  0  0  0  0  0  0  0
   -5.2270   -1.4690    0.4480 C   0  0  0  0  0  0  0  0  0  0  0  0
   -4.3210   -1.8240    1.6300 C   0  0  0  0  0  0  0  0  0  0  0  0
   -3.2150   -1.0110    1.4830 O   0  0  0  0  0  0  0  0  0  0  0  0
  2  1  1  1
  2  3  1  0
  2 22  1  0
  2 25  1  0
  3  4  1  6
  3  5  1  0
  3 20  1  0
  5  6  1  0
  6  7  1  1
  6  8  1  0
  8  9  1  6
  8 10  1  0
  8 20  1  0
 10 11  1  6
 10 12  1  0
 12 13  1  0
 13 14  1  0
 14 15  1  1
 14 17  1  0
 15 16  1  0
 17 18  1  1
 17 19  1  0
 20 21  1  1
 22 23  1  0
 23 24  1  0
 24 25  1  0
M  END
