
     RDKit          3D

 20 20  0  0  0  0  0  0  0  0999 V2000
    6.2270   -0.0340    1.0490 C   0  0  0  0  0  0  0  0  0  0  0  0
    5.2990   -0.9060    0.3560 N   0  0  0  0  0  0  0  0  0  0  0  0
    4.6330   -0.2440   -0.7090 C   0  0  0  0  0  0  0  0  0  0  0  0
    5.3000    0.3220   -1.5410 O   0  0  0  0  0  0  0  0  0  0  0  0
    3.1560   -0.2860   -0.7390 C   0  0  2  0  0  0  0  0  0  0  0  0
    2.6250   -1.6870   -0.9790 C   0  0  0  0  0  0  0  0  0  0  0  0
    1.1610   -1.3540   -1.2390 C   0  0  0  0  0  0  0  0  0  0  0  0
    1.2530    0.0780   -1.7120 C   0  0  1  0  0  0  0  0  0  0  0  0
    0.6450    1.0280   -0.7490 C   0  0  0  0  0  0  0  0  0  0  0  0
    1.3300    1.9270   -0.1700 O   0  0  0  0  0  0  0  0  0  0  0  0
   -0.7060    0.9980   -0.4190 O   0  0  0  0  0  0  0  0  0  0  0  0
   -1.2500    1.9230    0.5060 C   0  0  0  0  0  0  0  0  0  0  0  0
   -2.7750    1.5500    0.5920 C   0  0  1  0  0  0  0  0  0  0  0  0
   -3.2160    1.7310   -0.7790 N   0  0  0  0  0  0  0  0  0  0  0  0
   -2.8670    0.1440    1.0350 C   0  0  0  0  0  0  0  0  0  0  0  0
   -4.1570   -0.5120    1.2820 C   0  0  2  0  0  0  0  0  0  0  0  0
   -3.7940   -1.8650    1.6960 O   0  0  0  0  0  0  0  0  0  0  0  0
   -5.1100   -0.7430    0.1670 C   0  0  0  0  0  0  0  0  0  0  0  0
   -5.7310    0.3410   -0.3780 O   0  0  0  0  0  0  0  0  0  0  0  0
    2.6050    0.3840   -1.8090 O   0  0  0  0  0  0  0  0  0  0  0  0
  1  2  1  0
  2  3  1  0
  3  4  2  0
  5  3  1  6
  5  6  1  0
  5 20  1  0
  6  7  1  0
  7  8  1  0
  8  9  1  1
  8 20  1  0
  9 10  2  0
  9 11  1  0
 11 12  1  0
 12 13  1  0
 13 14  1  6
 13 15  1  0
 15 16  1  0
 16 17  1  6
 16 18  1  0
 18 19  1  0
M  CHG  2   2   1  14   1
M  END
