
     RDKit          3D

 21 21  0  0  0  0  0  0  0  0999 V2000
   -3.8880   -1.7410   -0.5810 N   0  0  0  0  0  0  0  0  0  0  0  0
   -3.4710   -0.4100   -0.9320 C   0  0  0  0  0  0  0  0  0  0  0  0
   -2.5450    0.2240    0.0500 C   0  0  2  0  0  0  0  0  0  0  0  0
   -3.1990    0.3320    1.4120 C   0  0  0  0  0  0  0  0  0  0  0  0
   -2.3220    0.9280    2.3220 O   0  0  0  0  0  0  0  0  0  0  0  0
   -2.2680    1.6400   -0.4180 C   0  0  0  0  0  0  0  0  0  0  0  0
   -0.9480    1.8310   -0.7850 O   0  0  0  0  0  0  0  0  0  0  0  0
   -0.3680    2.9110   -0.1100 C   0  0  0  0  0  0  0  0  0  0  0  0
    1.0880    2.6520    0.1210 C   0  0  0  0  0  0  0  0  0  0  0  0
    1.3490    1.3250   -0.1190 O   0  0  0  0  0  0  0  0  0  0  0  0
    2.6290    0.9830    0.2320 C   0  0  0  0  0  0  0  0  0  0  0  0
    2.8260   -0.4960    0.4340 C   0  0  2  0  0  0  0  0  0  0  0  0
    3.0880   -0.6820    1.8070 O   0  0  0  0  0  0  0  0  0  0  0  0
    4.1000   -0.8840   -0.2880 C   0  0  0  0  0  0  0  0  0  0  0  0
    4.0140   -0.7590   -1.6540 O   0  0  0  0  0  0  0  0  0  0  0  0
    1.6540   -1.3260    0.0480 C   0  0  2  0  0  0  0  0  0  0  0  0
    2.0880   -2.6780   -0.3240 N   0  0  0  0  0  0  0  0  0  0  0  0
    0.8400   -0.7690   -1.0430 C   0  0  0  0  0  0  0  0  0  0  0  0
    1.4380   -0.4170   -2.0940 O   0  0  0  0  0  0  0  0  0  0  0  0
   -0.5270   -0.6030   -1.0010 O   0  0  0  0  0  0  0  0  0  0  0  0
   -1.2970   -0.6000    0.1580 C   0  0  0  0  0  0  0  0  0  0  0  0
  1  2  1  0
  3  2  1  6
  3  4  1  0
  3  6  1  0
  3 21  1  0
  4  5  1  0
  6  7  1  0
  7  8  1  0
  8  9  1  0
  9 10  1  0
 10 11  1  0
 11 12  1  0
 12 13  1  1
 12 14  1  0
 12 16  1  0
 14 15  1  0
 16 17  1  6
 16 18  1  0
 18 19  2  0
 18 20  1  0
 20 21  1  0
M  CHG  2   1   1  17   1
M  END
