
     RDKit          3D

 21 21  0  0  0  0  0  0  0  0999 V2000
   -3.4820    2.8690    0.7080 C   0  0  0  0  0  0  0  0  0  0  0  0
   -3.2300    1.9470   -0.2750 O   0  0  0  0  0  0  0  0  0  0  0  0
   -3.0720    0.6500    0.1500 C   0  0  1  0  0  0  0  0  0  0  0  0
   -4.1450   -0.2670   -0.4370 C   0  0  0  0  0  0  0  0  0  0  0  0
   -3.8840   -1.5490    0.0620 O   0  0  0  0  0  0  0  0  0  0  0  0
   -4.7630   -2.4600   -0.3810 N   0  0  0  0  0  0  0  0  0  0  0  0
   -1.7490    0.1290   -0.3430 C   0  0  1  0  0  0  0  0  0  0  0  0
   -1.7680    0.1890   -1.7980 N   0  0  0  0  0  0  0  0  0  0  0  0
   -0.5970    0.9260    0.1830 C   0  0  2  0  0  0  0  0  0  0  0  0
   -0.5090    0.8520    1.6890 C   0  0  0  0  0  0  0  0  0  0  0  0
   -0.7030    2.2510   -0.2120 O   0  0  0  0  0  0  0  0  0  0  0  0
    0.6990    0.3770   -0.3550 C   0  0  0  0  0  0  0  0  0  0  0  0
    1.4580    1.1110   -1.0320 O   0  0  0  0  0  0  0  0  0  0  0  0
    1.0870   -0.9150   -0.1290 O   0  0  0  0  0  0  0  0  0  0  0  0
    2.2340   -1.5750   -0.5390 C   0  0  0  0  0  0  0  0  0  0  0  0
    3.5140   -1.0040    0.0080 C   0  0  1  0  0  0  0  0  0  0  0  0
    4.6890   -1.9270   -0.2220 C   0  0  0  0  0  0  0  0  0  0  0  0
    5.7740   -1.2970   -0.7790 O   0  0  0  0  0  0  0  0  0  0  0  0
    6.0760   -0.0680   -0.2670 C   0  0  0  0  0  0  0  0  0  0  0  0
    4.9340    0.6860    0.3250 C   0  0  0  0  0  0  0  0  0  0  0  0
    3.7700    0.2930   -0.3340 O   0  0  0  0  0  0  0  0  0  0  0  0
  1  2  1  0
  2  3  1  0
  3  4  1  6
  3  7  1  0
  4  5  1  0
  5  6  1  0
  7  8  1  6
  7  9  1  0
  9 10  1  1
  9 11  1  0
  9 12  1  0
 12 13  2  0
 12 14  1  0
 14 15  1  0
 16 15  1  6
 16 17  1  0
 16 21  1  0
 17 18  1  0
 18 19  1  0
 19 20  1  0
 20 21  1  0
M  CHG  2   6   1   8   1
M  END
