
     RDKit          3D

 18 19  0  0  0  0  0  0  0  0999 V2000
   -2.4290    1.7910    1.0300 N   0  0  0  0  0  0  0  0  0  0  0  0
   -2.7330    1.3710   -0.3400 C   0  0  2  0  0  0  0  0  0  0  0  0
   -4.0160    0.5850   -0.3290 C   0  0  0  0  0  0  0  0  0  0  0  0
   -3.7090   -0.7060   -0.7630 O   0  0  0  0  0  0  0  0  0  0  0  0
   -2.4850   -0.9320   -0.1830 C   0  0  1  0  0  0  0  0  0  0  0  0
   -1.8150   -2.1980   -0.6310 C   0  0  0  0  0  0  0  0  0  0  0  0
   -1.6090   -2.1620   -2.0010 O   0  0  0  0  0  0  0  0  0  0  0  0
   -1.7130    0.2890   -0.6920 C   0  0  2  0  0  0  0  0  0  0  0  0
   -0.4950    0.4630   -0.0420 O   0  0  0  0  0  0  0  0  0  0  0  0
    0.6650    0.4740   -0.8040 C   0  0  0  0  0  0  0  0  0  0  0  0
    0.6160    0.3310   -2.0370 O   0  0  0  0  0  0  0  0  0  0  0  0
    1.9730    0.6570   -0.1330 C   0  0  1  0  0  0  0  0  0  0  0  0
    2.1800   -0.5300    0.7900 C   0  0  0  0  0  0  0  0  0  0  0  0
    3.4290   -0.2620    1.5900 C   0  0  0  0  0  0  0  0  0  0  0  0
    4.6310   -0.0710    0.7230 C   0  0  0  0  0  0  0  0  0  0  0  0
    4.3230    0.4780   -0.6090 C   0  0  0  0  0  0  0  0  0  0  0  0
    5.2820    0.8100   -1.3450 O   0  0  0  0  0  0  0  0  0  0  0  0
    3.0240    0.6390   -1.0720 O   0  0  0  0  0  0  0  0  0  0  0  0
  2  1  1  1
  2  3  1  0
  2  8  1  0
  3  4  1  0
  4  5  1  0
  5  6  1  6
  5  8  1  0
  6  7  1  0
  8  9  1  1
  9 10  1  0
 10 11  2  0
 12 10  1  6
 12 13  1  0
 12 18  1  0
 13 14  1  0
 14 15  1  0
 15 16  1  0
 16 17  2  0
 16 18  1  0
M  CHG  1   1   1
M  END
