
     RDKit          3D

 16 17  0  0  0  0  0  0  0  0999 V2000
   -1.4660    2.2960    1.4090 C   0  0  0  0  0  0  0  0  0  0  0  0
   -1.9820    0.9300    1.1330 C   0  0  1  0  0  0  0  0  0  0  0  0
   -2.9310    0.9910   -0.0150 C   0  0  0  0  0  0  0  0  0  0  0  0
   -2.5170   -0.0040   -1.0370 C   0  0  0  0  0  0  0  0  0  0  0  0
   -1.6200   -0.9320   -0.2110 C   0  0  2  0  0  0  0  0  0  0  0  0
   -0.8840   -1.7850   -1.1570 C   0  0  0  0  0  0  0  0  0  0  0  0
   -2.6020   -1.8130    0.5820 C   0  0  0  0  0  0  0  0  0  0  0  0
   -0.8820   -0.0750    0.7350 C   0  0  2  0  0  0  0  0  0  0  0  0
   -0.6620   -0.8250    1.9130 O   0  0  0  0  0  0  0  0  0  0  0  0
    0.2800    0.6830    0.2920 C   0  0  0  0  0  0  0  0  0  0  0  0
    1.5220    0.0770   -0.1530 C   0  0  2  0  0  0  0  0  0  0  0  0
    2.2850   -0.7980    0.7580 C   0  0  0  0  0  0  0  0  0  0  0  0
    3.5950   -0.8680   -0.0570 C   0  0  1  0  0  0  0  0  0  0  0  0
    3.2970   -1.3910   -1.2890 O   0  0  0  0  0  0  0  0  0  0  0  0
    3.8140    0.6150   -0.2050 C   0  0  0  0  0  0  0  0  0  0  0  0
    2.5170    1.1250   -0.4800 N   0  0  0  0  0  0  0  0  0  0  0  0
  2  1  1  6
  2  3  1  0
  2  8  1  0
  3  4  1  0
  4  5  1  0
  5  6  1  6
  5  7  1  0
  5  8  1  0
  8  9  1  1
  8 10  1  0
 11 10  1  1
 11 12  1  0
 11 16  1  0
 12 13  1  0
 13 14  1  6
 13 15  1  0
 15 16  1  0
M  CHG  1  16   1
M  END
