
     RDKit          3D

 18 19  0  0  0  0  0  0  0  0999 V2000
   -3.4200   -0.2320    0.6330 N   0  0  0  0  0  0  0  0  0  0  0  0
   -2.6260   -0.0910   -0.5400 C   0  0  1  0  0  0  0  0  0  0  0  0
   -1.2480   -0.6030   -0.5200 C   0  0  0  0  0  0  0  0  0  0  0  0
   -0.2400   -0.0670    0.4170 C   0  0  2  0  0  0  0  0  0  0  0  0
   -0.4860   -0.1770    1.8520 C   0  0  0  0  0  0  0  0  0  0  0  0
    0.2160   -0.9890    2.5240 O   0  0  0  0  0  0  0  0  0  0  0  0
   -1.4180    0.5270    2.5760 O   0  0  0  0  0  0  0  0  0  0  0  0
    0.1070    1.3790    0.1050 C   0  0  0  0  0  0  0  0  0  0  0  0
    1.6170    1.2950   -0.0040 C   0  0  1  0  0  0  0  0  0  0  0  0
    2.1140    1.1980    1.2740 O   0  0  0  0  0  0  0  0  0  0  0  0
    3.1990    0.3960    1.4330 C   0  0  0  0  0  0  0  0  0  0  0  0
    3.9420    0.0810    0.1660 C   0  0  0  0  0  0  0  0  0  0  0  0
    3.0780   -0.4600   -0.9180 C   0  0  0  0  0  0  0  0  0  0  0  0
    1.6670   -0.0450   -0.7540 C   0  0  1  0  0  0  0  0  0  0  0  0
    0.9380   -0.8250    0.1140 O   0  0  0  0  0  0  0  0  0  0  0  0
   -3.3290   -0.8020   -1.6710 C   0  0  0  0  0  0  0  0  0  0  0  0
   -2.8450   -0.8350   -2.8230 O   0  0  0  0  0  0  0  0  0  0  0  0
   -4.5310   -1.4230   -1.4040 O   0  0  0  0  0  0  0  0  0  0  0  0
  2  1  1  1
  2  3  1  0
  2 16  1  0
  4  3  1  6
  4  5  1  0
  4  8  1  0
  4 15  1  0
  5  6  2  0
  5  7  1  0
  9  8  1  1
  9 10  1  0
  9 14  1  0
 10 11  1  0
 11 12  1  0
 12 13  1  0
 14 13  1  1
 14 15  1  0
 16 17  2  0
 16 18  1  0
M  CHG  1   1   1
M  END
