
     RDKit          3D

 18 19  0  0  0  0  0  0  0  0999 V2000
   -5.3820    1.1320    0.4710 N   0  0  0  0  0  0  0  0  0  0  0  0
   -4.0430    0.5580    0.5400 C   0  0  0  0  0  0  0  0  0  0  0  0
   -3.7050    0.0050   -0.8290 C   0  0  2  0  0  0  0  0  0  0  0  0
   -4.6780   -0.9710   -1.1120 O   0  0  0  0  0  0  0  0  0  0  0  0
   -2.3670   -0.6800   -0.8450 C   0  0  2  0  0  0  0  0  0  0  0  0
   -2.3490   -1.6740    0.1130 O   0  0  0  0  0  0  0  0  0  0  0  0
   -1.0200   -1.9410    0.4480 C   0  0  0  0  0  0  0  0  0  0  0  0
   -0.1530   -1.7430   -0.7730 C   0  0  0  0  0  0  0  0  0  0  0  0
   -0.1260   -0.2600   -1.0880 C   0  0  2  0  0  0  0  0  0  0  0  0
    0.9490    0.3840   -0.2310 C   0  0  0  0  0  0  0  0  0  0  0  0
    2.2180   -0.0680   -0.5840 O   0  0  0  0  0  0  0  0  0  0  0  0
    3.1410    0.5500    0.2250 C   0  0  1  0  0  0  0  0  0  0  0  0
    3.9900   -0.4220    1.0070 C   0  0  0  0  0  0  0  0  0  0  0  0
    5.2420    0.1030    1.1410 O   0  0  0  0  0  0  0  0  0  0  0  0
    5.3330    1.2810    0.4540 C   0  0  0  0  0  0  0  0  0  0  0  0
    4.2330    1.2480   -0.5970 C   0  0  1  0  0  0  0  0  0  0  0  0
    4.6360    0.4090   -1.6070 O   0  0  0  0  0  0  0  0  0  0  0  0
   -1.3540    0.2570   -0.6560 O   0  0  0  0  0  0  0  0  0  0  0  0
  1  2  1  0
  2  3  1  0
  3  4  1  1
  3  5  1  0
  5  6  1  1
  5 18  1  0
  6  7  1  0
  7  8  1  0
  8  9  1  0
  9 10  1  1
  9 18  1  0
 10 11  1  0
 12 11  1  6
 12 13  1  0
 12 16  1  0
 13 14  1  0
 14 15  1  0
 15 16  1  0
 16 17  1  6
M  CHG  1   1   1
M  END
