
     RDKit          3D

 18 19  0  0  0  0  0  0  0  0999 V2000
    2.5000   -2.0630   -1.8470 N   0  0  0  0  0  0  0  0  0  0  0  0
    1.2700   -1.8950   -1.1850 C   0  0  0  0  0  0  0  0  0  0  0  0
    0.4950   -2.8280   -1.1600 O   0  0  0  0  0  0  0  0  0  0  0  0
    0.8530   -0.6250   -0.5030 C   0  0  1  0  0  0  0  0  0  0  0  0
   -0.3790   -0.8130    0.0250 O   0  0  0  0  0  0  0  0  0  0  0  0
   -1.4480   -0.1580   -0.4920 C   0  0  1  0  0  0  0  0  0  0  0  0
   -2.5270   -1.0570   -1.0250 C   0  0  0  0  0  0  0  0  0  0  0  0
   -3.7160   -0.5150   -1.2720 O   0  0  0  0  0  0  0  0  0  0  0  0
   -4.0140    0.7500   -0.9810 C   0  0  0  0  0  0  0  0  0  0  0  0
   -3.1720    1.4880   -0.0220 C   0  0  1  0  0  0  0  0  0  0  0  0
   -3.9170    2.0260    1.0530 O   0  0  0  0  0  0  0  0  0  0  0  0
   -2.0680    0.6710    0.6050 C   0  0  0  0  0  0  0  0  0  0  0  0
    1.9170   -0.1280    0.4380 C   0  0  1  0  0  0  0  0  0  0  0  0
    1.4840    1.2130    0.9770 C   0  0  0  0  0  0  0  0  0  0  0  0
    2.6260    1.8750    1.4480 O   0  0  0  0  0  0  0  0  0  0  0  0
    3.4820    0.9810    2.0440 C   0  0  0  0  0  0  0  0  0  0  0  0
    2.8000   -0.2790    2.5270 C   0  0  0  0  0  0  0  0  0  0  0  0
    2.1510   -0.9610    1.5090 O   0  0  0  0  0  0  0  0  0  0  0  0
  1  2  1  0
  2  3  2  0
  2  4  1  0
  4  5  1  1
  4 13  1  0
  6  5  1  1
  6  7  1  0
  6 12  1  0
  7  8  1  0
  8  9  1  0
  9 10  1  0
 10 11  1  1
 10 12  1  0
 13 14  1  1
 13 18  1  0
 14 15  1  0
 15 16  1  0
 16 17  1  0
 17 18  1  0
M  CHG  1   1   1
M  END
