
     RDKit          3D

 18 19  0  0  0  0  0  0  0  0999 V2000
    3.2350    0.8080    1.3560 N   0  0  0  0  0  0  0  0  0  0  0  0
    2.5610    0.3720    0.1500 C   0  0  1  0  0  0  0  0  0  0  0  0
    3.1260    1.0680   -0.9990 C   0  0  0  0  0  0  0  0  0  0  0  0
    2.6980    0.8540   -2.1790 O   0  0  0  0  0  0  0  0  0  0  0  0
    4.1500    1.9840   -0.8230 O   0  0  0  0  0  0  0  0  0  0  0  0
    2.6640   -1.1530    0.0060 C   0  0  0  0  0  0  0  0  0  0  0  0
    1.7450   -1.5500    1.1680 C   0  0  0  0  0  0  0  0  0  0  0  0
    0.5090   -0.7650    0.8030 C   0  0  2  0  0  0  0  0  0  0  0  0
   -0.2500   -1.3440   -0.1670 O   0  0  0  0  0  0  0  0  0  0  0  0
   -1.5660   -1.5490    0.1150 C   0  0  0  0  0  0  0  0  0  0  0  0
   -2.3150   -0.2510    0.4260 C   0  0  2  0  0  0  0  0  0  0  0  0
   -3.7290   -0.5490    0.8470 C   0  0  0  0  0  0  0  0  0  0  0  0
   -4.3930    0.7220    0.9490 O   0  0  0  0  0  0  0  0  0  0  0  0
   -4.3100    1.4860   -0.2340 C   0  0  0  0  0  0  0  0  0  0  0  0
   -4.9030    2.5600   -0.3950 O   0  0  0  0  0  0  0  0  0  0  0  0
   -3.4250    0.8600   -1.2800 C   0  0  0  0  0  0  0  0  0  0  0  0
   -2.2290    0.5750   -0.6790 O   0  0  0  0  0  0  0  0  0  0  0  0
    1.0600    0.5390    0.2630 C   0  0  0  0  0  0  0  0  0  0  0  0
  2  1  1  1
  2  3  1  0
  2  6  1  0
  2 18  1  0
  3  4  2  0
  3  5  1  0
  6  7  1  0
  7  8  1  0
  8  9  1  6
  8 18  1  0
  9 10  1  0
 11 10  1  6
 11 12  1  0
 11 17  1  0
 12 13  1  0
 13 14  1  0
 14 15  2  0
 14 16  1  0
 16 17  1  0
M  CHG  1   1   1
M  END
