
     RDKit          3D

 18 19  0  0  0  0  0  0  0  0999 V2000
   -5.1380   -0.2000   -0.6720 N   0  0  0  0  0  0  0  0  0  0  0  0
   -4.1150    0.3960    0.1330 C   0  0  0  0  0  0  0  0  0  0  0  0
   -2.7400    0.3280   -0.4850 C   0  0  1  0  0  0  0  0  0  0  0  0
   -2.7730    0.9910   -1.6890 O   0  0  0  0  0  0  0  0  0  0  0  0
   -1.7860    1.0200    0.4520 C   0  0  0  0  0  0  0  0  0  0  0  0
   -0.7300   -0.0100    0.8320 C   0  0  2  0  0  0  0  0  0  0  0  0
    0.4460    0.2930    0.1040 O   0  0  0  0  0  0  0  0  0  0  0  0
    1.6300    0.5710    0.7650 C   0  0  0  0  0  0  0  0  0  0  0  0
    1.6640    0.5560    2.0210 O   0  0  0  0  0  0  0  0  0  0  0  0
    2.8850    0.8930    0.0430 C   0  0  2  0  0  0  0  0  0  0  0  0
    3.2180   -0.1490   -0.9980 C   0  0  0  0  0  0  0  0  0  0  0  0
    4.1940   -1.0250   -0.5970 O   0  0  0  0  0  0  0  0  0  0  0  0
    5.3210   -0.4510   -0.0760 C   0  0  0  0  0  0  0  0  0  0  0  0
    5.1140    1.0110    0.1840 C   0  0  0  0  0  0  0  0  0  0  0  0
    3.9130    1.1290    0.9200 O   0  0  0  0  0  0  0  0  0  0  0  0
   -1.3030   -1.3580    0.4720 C   0  0  2  0  0  0  0  0  0  0  0  0
   -0.3340   -2.2880    0.1650 O   0  0  0  0  0  0  0  0  0  0  0  0
   -2.2360   -1.0640   -0.6530 C   0  0  0  0  0  0  0  0  0  0  0  0
  1  2  1  0
  2  3  1  0
  3  4  1  6
  3  5  1  0
  3 18  1  0
  5  6  1  0
  6  7  1  6
  6 16  1  0
  7  8  1  0
  8  9  2  0
 10  8  1  1
 10 11  1  0
 10 15  1  0
 11 12  1  0
 12 13  1  0
 13 14  1  0
 14 15  1  0
 16 17  1  6
 16 18  1  0
M  CHG  1   1   1
M  END
