
     RDKit          3D

 18 19  0  0  0  0  0  0  0  0999 V2000
    5.6140    0.2160    0.9270 O   0  0  0  0  0  0  0  0  0  0  0  0
    4.4780   -0.1790    0.5390 C   0  0  0  0  0  0  0  0  0  0  0  0
    4.3750   -0.5120   -0.9030 C   0  0  0  0  0  0  0  0  0  0  0  0
    3.0600   -0.2820   -1.3100 O   0  0  0  0  0  0  0  0  0  0  0  0
    2.5900    0.8810   -0.7110 C   0  0  0  0  0  0  0  0  0  0  0  0
    1.5920    0.5830    0.3870 C   0  0  1  0  0  0  0  0  0  0  0  0
    1.3550    1.7300    1.1280 O   0  0  0  0  0  0  0  0  0  0  0  0
    0.2790    0.1710   -0.2690 C   0  0  0  0  0  0  0  0  0  0  0  0
   -0.7190   -0.0930    0.7410 N   0  0  0  0  0  0  0  0  0  0  0  0
   -1.8460   -0.8060    0.2130 C   0  0  2  0  0  0  0  0  0  0  0  0
   -2.2380   -0.3880   -1.1740 C   0  0  0  0  0  0  0  0  0  0  0  0
   -3.0590    0.8840   -1.1440 C   0  0  0  0  0  0  0  0  0  0  0  0
   -4.1990    0.7140   -0.3600 O   0  0  0  0  0  0  0  0  0  0  0  0
   -3.8150    0.5610    0.9560 C   0  0  0  0  0  0  0  0  0  0  0  0
   -2.9960   -0.6870    1.1830 C   0  0  1  0  0  0  0  0  0  0  0  0
   -3.8630   -1.7790    1.0690 O   0  0  0  0  0  0  0  0  0  0  0  0
    2.1120   -0.4720    1.3130 C   0  0  0  0  0  0  0  0  0  0  0  0
    3.5050   -0.2440    1.5070 O   0  0  0  0  0  0  0  0  0  0  0  0
  1  2  2  0
  2  3  1  0
  2 18  1  0
  3  4  1  0
  4  5  1  0
  5  6  1  0
  6  7  1  1
  6  8  1  0
  6 17  1  0
  8  9  1  0
 10  9  1  1
 10 11  1  0
 10 15  1  0
 11 12  1  0
 12 13  1  0
 13 14  1  0
 14 15  1  0
 15 16  1  6
 17 18  1  0
M  CHG  1   9   1
M  END
