
     RDKit          3D

 18 18  0  0  0  0  0  0  0  0999 V2000
   -4.6360    1.3250   -0.6330 C   0  0  0  0  0  0  0  0  0  0  0  0
   -3.6350    0.9100    0.4570 C   0  0  1  0  0  0  0  0  0  0  0  0
   -3.9260   -0.4680    0.8810 C   0  0  0  0  0  0  0  0  0  0  0  0
   -2.9100   -1.4350    0.7390 N   0  0  0  0  0  0  0  0  0  0  0  0
   -2.0440   -1.2860   -0.3860 C   0  0  0  0  0  0  0  0  0  0  0  0
   -0.7930   -0.5660    0.1480 C   0  0  1  0  0  0  0  0  0  0  0  0
   -0.2900   -1.4080    1.1260 O   0  0  0  0  0  0  0  0  0  0  0  0
    0.1410   -0.1890   -0.9360 C   0  0  0  0  0  0  0  0  0  0  0  0
    1.2730    0.4690   -0.6280 O   0  0  0  0  0  0  0  0  0  0  0  0
    2.2140   -0.0930    0.1670 C   0  0  2  0  0  0  0  0  0  0  0  0
    2.3810    0.5400    1.3980 O   0  0  0  0  0  0  0  0  0  0  0  0
    3.5510   -0.2010   -0.4520 C   0  0  0  0  0  0  0  0  0  0  0  0
    3.7070   -0.9400   -1.6030 O   0  0  0  0  0  0  0  0  0  0  0  0
    4.5930    0.3920    0.0730 C   0  0  0  0  0  0  0  0  0  0  0  0
    5.9590    0.3190   -0.5040 C   0  0  0  0  0  0  0  0  0  0  0  0
    6.4360    1.6030   -0.8380 O   0  0  0  0  0  0  0  0  0  0  0  0
   -1.3520    0.7220    0.7730 C   0  0  0  0  0  0  0  0  0  0  0  0
   -2.3880    1.1530   -0.0480 O   0  0  0  0  0  0  0  0  0  0  0  0
  2  1  1  6
  2  3  1  0
  2 18  1  0
  3  4  1  0
  4  5  1  0
  5  6  1  0
  6  7  1  1
  6  8  1  0
  6 17  1  0
  8  9  1  0
  9 10  1  0
 10 11  1  1
 10 12  1  0
 12 13  1  0
 12 14  2  3
 14 15  1  0
 15 16  1  0
 17 18  1  0
M  CHG  1   4   1
M  END
