
     RDKit          3D

 11 11  0  0  0  0  0  0  0  0999 V2000
   -1.9550    0.9050    1.5220 N   0  0  0  0  0  0  0  0  0  0  0  0
   -1.5930   -0.2510    0.7350 C   0  0  1  0  0  0  0  0  0  0  0  0
   -2.0280    0.0120   -0.6830 C   0  0  0  0  0  0  0  0  0  0  0  0
   -1.1590   -0.4680   -1.6340 O   0  0  0  0  0  0  0  0  0  0  0  0
    0.1270    0.0020   -1.5540 C   0  0  0  0  0  0  0  0  0  0  0  0
    0.6000    0.3330   -0.1740 C   0  0  2  0  0  0  0  0  0  0  0  0
    2.0750    0.0570    0.0270 C   0  0  0  0  0  0  0  0  0  0  0  0
    2.8750    0.6610   -0.9230 O   0  0  0  0  0  0  0  0  0  0  0  0
    4.1260    0.5390   -0.5000 O   0  0  0  0  0  0  0  0  0  0  0  0
   -0.1290   -0.5700    0.8110 C   0  0  2  0  0  0  0  0  0  0  0  0
    0.1360   -1.8850    0.4780 O   0  0  0  0  0  0  0  0  0  0  0  0
  2  1  1  1
  2  3  1  0
  2 10  1  0
  3  4  1  0
  4  5  1  0
  5  6  1  0
  6  7  1  6
  6 10  1  0
  7  8  1  0
  8  9  1  0
 10 11  1  6
M  CHG  1   1   1
M  END
