
     RDKit          3D

 11 11  0  0  0  0  0  0  0  0999 V2000
   -1.5000    0.8580    0.7710 N   0  0  0  0  0  0  0  0  0  0  0  0
   -0.3710    0.1050    0.2180 C   0  0  2  0  0  0  0  0  0  0  0  0
   -0.8680   -0.5780   -1.0270 C   0  0  1  0  0  0  0  0  0  0  0  0
   -1.9220   -1.4230   -0.6330 O   0  0  0  0  0  0  0  0  0  0  0  0
   -1.4200    0.3250   -1.9350 O   0  0  0  0  0  0  0  0  0  0  0  0
    0.0870   -0.9460    1.1970 C   0  0  0  0  0  0  0  0  0  0  0  0
    1.4120   -1.4830    0.7270 C   0  0  0  0  0  0  0  0  0  0  0  0
    2.3550   -0.4700    0.7880 O   0  0  0  0  0  0  0  0  0  0  0  0
    2.0750    0.4220   -0.2700 C   0  0  0  0  0  0  0  0  0  0  0  0
    0.7390    1.0680   -0.0320 C   0  0  1  0  0  0  0  0  0  0  0  0
    0.4830    1.9590   -1.0580 O   0  0  0  0  0  0  0  0  0  0  0  0
  2  1  1  1
  2  3  1  0
  2  6  1  0
  2 10  1  0
  3  4  1  1
  3  5  1  0
  6  7  1  0
  7  8  1  0
  8  9  1  0
  9 10  1  0
 10 11  1  6
M  CHG  1   1   1
M  END
