
     RDKit          3D

 11 11  0  0  0  0  0  0  0  0999 V2000
    2.0360   -0.7960    0.6610 N   0  0  0  0  0  0  0  0  0  0  0  0
    1.4660    0.1360   -0.2910 C   0  0  1  0  0  0  0  0  0  0  0  0
    1.6550   -0.4180   -1.5550 O   0  0  0  0  0  0  0  0  0  0  0  0
    0.0150    0.4490   -0.0240 C   0  0  2  0  0  0  0  0  0  0  0  0
   -0.3420    1.5800   -1.0030 C   0  0  0  0  0  0  0  0  0  0  0  0
   -0.1940    1.0870   -2.2930 O   0  0  0  0  0  0  0  0  0  0  0  0
   -0.1520    1.0050    1.2410 O   0  0  0  0  0  0  0  0  0  0  0  0
   -1.4780    0.7290    1.5740 C   0  0  0  0  0  0  0  0  0  0  0  0
   -1.5170   -0.7700    1.2410 C   0  0  0  0  0  0  0  0  0  0  0  0
   -0.9180   -0.6940   -0.1710 C   0  0  2  0  0  0  0  0  0  0  0  0
   -0.3770   -1.9110   -0.4660 O   0  0  0  0  0  0  0  0  0  0  0  0
  2  1  1  1
  2  3  1  0
  2  4  1  0
  4  5  1  6
  4  7  1  0
  4 10  1  0
  5  6  1  0
  7  8  1  0
  8  9  1  0
  9 10  1  0
 10 11  1  1
M  CHG  1   1   1
M  END
