
     RDKit          3D

 11 11  0  0  0  0  0  0  0  0999 V2000
   -2.6040    0.6010    0.5790 N   0  0  0  0  0  0  0  0  0  0  0  0
   -2.3020   -0.4840   -0.3300 C   0  0  0  0  0  0  0  0  0  0  0  0
   -1.4660   -1.5530    0.3340 C   0  0  0  0  0  0  0  0  0  0  0  0
   -0.2800   -1.0320    0.7690 O   0  0  0  0  0  0  0  0  0  0  0  0
    0.5390   -0.4880   -0.1740 C   0  0  2  0  0  0  0  0  0  0  0  0
    1.9380   -1.0610   -0.1710 C   0  0  0  0  0  0  0  0  0  0  0  0
    2.6610   -0.0380   -0.7850 O   0  0  0  0  0  0  0  0  0  0  0  0
    2.3050    1.0710   -0.0480 C   0  0  2  0  0  0  0  0  0  0  0  0
    3.0480    1.1350    1.1220 O   0  0  0  0  0  0  0  0  0  0  0  0
    0.8290    0.9630    0.2250 C   0  0  1  0  0  0  0  0  0  0  0  0
    0.0770    1.8620   -0.4900 O   0  0  0  0  0  0  0  0  0  0  0  0
  1  2  1  0
  2  3  1  0
  3  4  1  0
  5  4  1  1
  5  6  1  0
  5 10  1  0
  6  7  1  0
  7  8  1  0
  8  9  1  1
  8 10  1  0
 10 11  1  6
M  CHG  1   1   1
M  END
