
     RDKit          3D

 11 11  0  0  0  0  0  0  0  0999 V2000
   -0.5980   -0.2970   -1.5840 N   0  0  0  0  0  0  0  0  0  0  0  0
   -0.6270   -0.1490   -0.1560 C   0  0  2  0  0  0  0  0  0  0  0  0
   -1.6740   -1.1180    0.3760 C   0  0  0  0  0  0  0  0  0  0  0  0
   -1.7420   -1.0140    1.7710 O   0  0  0  0  0  0  0  0  0  0  0  0
   -1.0790    1.2370    0.2520 C   0  0  0  0  0  0  0  0  0  0  0  0
    0.2180    1.8880    0.6250 C   0  0  0  0  0  0  0  0  0  0  0  0
    1.0440    0.8840    1.1060 O   0  0  0  0  0  0  0  0  0  0  0  0
    0.6840   -0.2900    0.5170 C   0  0  2  0  0  0  0  0  0  0  0  0
    1.8050   -0.7400   -0.3890 C   0  0  1  0  0  0  0  0  0  0  0  0
    2.0660    0.2020   -1.3830 O   0  0  0  0  0  0  0  0  0  0  0  0
    2.9660   -0.8360    0.3840 O   0  0  0  0  0  0  0  0  0  0  0  0
  2  1  1  6
  2  3  1  0
  2  5  1  0
  2  8  1  0
  3  4  1  0
  5  6  1  0
  6  7  1  0
  8  7  1  6
  8  9  1  0
  9 10  1  6
  9 11  1  0
M  CHG  1   1   1
M  END
