
     RDKit          3D

 12 12  0  0  0  0  0  0  0  0999 V2000
    0.7680    1.2660   -0.7980 O   0  0  0  0  0  0  0  0  0  0  0  0
    0.2530    0.2350   -0.3140 C   0  0  0  0  0  0  0  0  0  0  0  0
    1.0340   -0.8900   -0.1840 O   0  0  0  0  0  0  0  0  0  0  0  0
    2.3700   -1.0300   -0.5330 C   0  0  0  0  0  0  0  0  0  0  0  0
    3.2160   -0.0570    0.2530 C   0  0  0  0  0  0  0  0  0  0  0  0
    4.5370   -0.2570   -0.1490 O   0  0  0  0  0  0  0  0  0  0  0  0
   -1.1340    0.1690    0.1180 C   0  0  0  0  0  0  0  0  0  0  0  0
   -1.9120    1.2360    0.0050 C   0  0  0  0  0  0  0  0  0  0  0  0
   -3.3330    1.2600    0.4190 C   0  0  0  0  0  0  0  0  0  0  0  0
   -3.7780    0.0400    0.9430 O   0  0  0  0  0  0  0  0  0  0  0  0
   -2.9940   -1.0890    1.0740 C   0  0  0  0  0  0  0  0  0  0  0  0
   -1.7290   -1.0280    0.6800 C   0  0  0  0  0  0  0  0  0  0  0  0
  1  2  2  0
  2  3  1  0
  2  7  1  0
  3  4  1  0
  4  5  1  0
  5  6  1  0
  7  8  2  0
  7 12  1  0
  8  9  1  0
  9 10  1  0
 10 11  1  0
 11 12  2  0
M  END
