
     RDKit          3D

 10 10  0  0  0  0  0  0  0  0999 V2000
   -3.5340    0.1510    0.2590 O   0  0  0  0  0  0  0  0  0  0  0  0
   -2.2730   -0.3720    0.4610 C   0  0  0  0  0  0  0  0  0  0  0  0
   -1.2130    0.6850    0.4510 C   0  0  2  0  0  0  0  0  0  0  0  0
   -1.2400    1.3220   -0.7950 O   0  0  0  0  0  0  0  0  0  0  0  0
    0.1460    0.0420    0.6080 C   0  0  2  0  0  0  0  0  0  0  0  0
    0.2480   -0.6120    1.8260 O   0  0  0  0  0  0  0  0  0  0  0  0
    1.2610    1.0650    0.5440 C   0  0  0  0  0  0  0  0  0  0  0  0
    2.4490    0.1620    0.1880 C   0  0  0  0  0  0  0  0  0  0  0  0
    1.9080   -0.7300   -0.7880 N   0  0  0  0  0  0  0  0  0  0  0  0
    0.4920   -0.8480   -0.5660 C   0  0  0  0  0  0  0  0  0  0  0  0
  1  2  1  0
  2  3  1  0
  3  4  1  6
  3  5  1  0
  5  6  1  1
  5  7  1  0
  5 10  1  0
  7  8  1  0
  8  9  1  0
  9 10  1  0
M  CHG  1   9   1
M  END
