
     RDKit          3D

 11 11  0  0  0  0  0  0  0  0999 V2000
    1.3040   -1.1760    0.8460 N   0  0  0  0  0  0  0  0  0  0  0  0
    0.8200    0.0380    0.2110 C   0  0  1  0  0  0  0  0  0  0  0  0
    1.6260    0.2430   -1.0270 C   0  0  0  0  0  0  0  0  0  0  0  0
    2.9650    0.3680   -0.6530 O   0  0  0  0  0  0  0  0  0  0  0  0
   -0.6600    0.0120   -0.0010 C   0  0  1  0  0  0  0  0  0  0  0  0
   -1.3430   -0.1310    1.3450 C   0  0  0  0  0  0  0  0  0  0  0  0
   -0.9420    0.9990    2.0950 O   0  0  0  0  0  0  0  0  0  0  0  0
   -1.2170    1.2110   -0.6750 C   0  0  0  0  0  0  0  0  0  0  0  0
   -1.2770    0.8180   -1.9980 O   0  0  0  0  0  0  0  0  0  0  0  0
   -1.7910   -0.3850   -1.9410 O   0  0  0  0  0  0  0  0  0  0  0  0
   -1.0940   -1.0830   -0.9580 C   0  0  0  0  0  0  0  0  0  0  0  0
  2  1  1  6
  2  3  1  0
  2  5  1  0
  3  4  1  0
  5  6  1  1
  5  8  1  0
  5 11  1  0
  6  7  1  0
  8  9  1  0
  9 10  1  0
 10 11  1  0
M  CHG  1   1   1
M  END
