
     RDKit          3D

 27 30  0  0  0  0  0  0  0  0999 V2000
   -6.0470    0.0800    1.6240 C   0  0  0  0  0  0  0  0  0  0  0  0
   -5.0010   -1.0210    1.4550 C   0  0  0  0  0  0  0  0  0  0  0  0
   -4.7970   -1.1900    0.0290 N   0  0  0  0  0  0  0  0  0  0  0  0
   -4.1760   -0.0540   -0.5780 C   0  0  0  0  0  0  0  0  0  0  0  0
   -2.6980   -0.2180   -0.6130 C   0  0  0  0  0  0  0  0  0  0  0  0
   -1.9500   -1.2210   -0.1780 N   0  0  0  0  0  0  0  0  0  0  0  0
   -0.6300   -0.9610   -0.4090 C   0  0  0  0  0  0  0  0  0  0  0  0
   -0.5850    0.2730   -1.0190 C   0  0  0  0  0  0  0  0  0  0  0  0
   -1.8460    0.6910   -1.1270 N   0  0  0  0  0  0  0  0  0  0  0  0
    0.7340    0.8410   -1.4010 C   0  0  1  0  0  0  0  0  0  0  0  0
    0.9150    2.2150   -0.8710 C   0  0  0  0  0  0  0  0  0  0  0  0
    0.6750    3.3490   -1.6260 C   0  0  0  0  0  0  0  0  0  0  0  0
    0.8500    4.6200   -1.1140 C   0  0  0  0  0  0  0  0  0  0  0  0
    1.2730    4.8020    0.1800 C   0  0  0  0  0  0  0  0  0  0  0  0
    1.4540    6.0780    0.7140 O   0  0  0  0  0  0  0  0  0  0  0  0
    1.5180    3.6870    0.9520 C   0  0  0  0  0  0  0  0  0  0  0  0
    1.3390    2.4160    0.4240 C   0  0  0  0  0  0  0  0  0  0  0  0
    1.8220   -0.0200   -1.0630 N   0  0  0  0  0  0  0  0  0  0  0  0
    1.7190   -1.2860   -0.4320 C   0  0  0  0  0  0  0  0  0  0  0  0
    2.9270   -2.0510   -0.1500 C   0  0  0  0  0  0  0  0  0  0  0  0
    3.0120   -2.9160    0.9220 C   0  0  0  0  0  0  0  0  0  0  0  0
    4.1900   -3.5900    1.1020 C   0  0  0  0  0  0  0  0  0  0  0  0
    5.2860   -3.4520    0.2780 C   0  0  0  0  0  0  0  0  0  0  0  0
    6.5000   -4.1740    0.5000 N   0  0  0  0  0  0  0  0  0  0  0  0
    5.1810   -2.6060   -0.7570 N   0  0  0  0  0  0  0  0  0  0  0  0
    4.0370   -1.9300   -0.9610 C   0  0  0  0  0  0  0  0  0  0  0  0
    0.5510   -1.7120   -0.1320 N   0  0  0  0  0  0  0  0  0  0  0  0
  1  2  1  0
  2  3  1  0
  3  4  1  0
  4  5  1  0
  5  6  2  0
  5  9  1  0
  6  7  1  0
  7  8  2  0
  7 27  1  0
  8  9  1  0
  8 10  1  0
 10 11  1  1
 10 18  1  0
 11 12  2  0
 11 17  1  0
 12 13  1  0
 13 14  2  0
 14 15  1  0
 14 16  1  0
 16 17  2  0
 18 19  1  0
 19 20  1  0
 19 27  2  0
 20 21  2  0
 20 26  1  0
 21 22  1  0
 22 23  2  0
 23 24  1  0
 23 25  1  0
 25 26  2  0
M  CHG  2   3   1  27   1
M  END
