
     RDKit          3D

 27 29  0  0  0  0  0  0  0  0999 V2000
   -5.9410    1.4440    3.4490 C   0  0  0  0  0  0  0  0  0  0  0  0
   -5.3930    1.0630    2.1400 C   0  0  0  0  0  0  0  0  0  0  0  0
   -6.1440    1.1160    1.1290 O   0  0  0  0  0  0  0  0  0  0  0  0
   -4.0420    0.6320    1.9410 N   0  0  0  0  0  0  0  0  0  0  0  0
   -3.5660    0.2780    0.6600 C   0  0  0  0  0  0  0  0  0  0  0  0
   -3.5750    1.2560   -0.4500 C   0  0  0  0  0  0  0  0  0  0  0  0
   -3.1040   -0.9260    0.4160 C   0  0  0  0  0  0  0  0  0  0  0  0
   -2.6100   -1.3170   -0.8880 N   0  0  0  0  0  0  0  0  0  0  0  0
   -1.3370   -1.4400   -1.2300 C   0  0  0  0  0  0  0  0  0  0  0  0
   -0.0840   -1.2370   -0.4650 C   0  0  0  0  0  0  0  0  0  0  0  0
   -0.0260   -0.8240    0.9310 C   0  0  0  0  0  0  0  0  0  0  0  0
    1.0810   -1.4410   -1.0780 C   0  0  0  0  0  0  0  0  0  0  0  0
    2.3700   -1.2820   -0.4600 C   0  0  0  0  0  0  0  0  0  0  0  0
    2.5600   -0.9280    0.7500 N   0  0  0  0  0  0  0  0  0  0  0  0
    3.8130   -0.7800    1.3290 N   0  0  0  0  0  0  0  0  0  0  0  0
    4.7470    0.2160    0.9390 C   0  0  0  0  0  0  0  0  0  0  0  0
    4.4520    1.1240   -0.0740 C   0  0  0  0  0  0  0  0  0  0  0  0
    5.3420    2.1000   -0.4710 C   0  0  0  0  0  0  0  0  0  0  0  0
    6.5760    2.2050    0.1360 C   0  0  0  0  0  0  0  0  0  0  0  0
    7.5180    3.2100   -0.2590 N   0  0  0  0  0  0  0  0  0  0  0  0
    6.8810    1.3120    1.1400 C   0  0  0  0  0  0  0  0  0  0  0  0
    5.9850    0.3390    1.5320 C   0  0  0  0  0  0  0  0  0  0  0  0
   -1.3300   -1.8280   -2.5500 N   0  0  0  0  0  0  0  0  0  0  0  0
   -2.5810   -1.9270   -2.9650 C   0  0  0  0  0  0  0  0  0  0  0  0
   -3.4430   -1.6060   -1.9230 C   0  0  0  0  0  0  0  0  0  0  0  0
   -4.0620   -1.9740   -3.2150 C   0  0  2  0  0  0  0  0  0  0  0  0
   -4.5630   -3.2950   -3.4380 N   0  0  0  0  0  0  0  0  0  0  0  0
  1  2  1  0
  2  3  2  0
  2  4  1  0
  4  5  1  0
  5  6  1  0
  5  7  2  3
  7  8  1  0
  8  9  1  0
  8 25  1  0
  9 10  1  0
  9 23  2  0
 10 11  1  0
 10 12  2  3
 12 13  1  0
 13 14  2  3
 14 15  1  0
 15 16  1  0
 16 17  2  0
 16 22  1  0
 17 18  1  0
 18 19  2  0
 19 20  1  0
 19 21  1  0
 21 22  2  0
 23 24  1  0
 24 25  2  0
 24 26  1  0
 25 26  1  0
 26 27  1  1
M  CHG  2  20   1  27   1
M  END
