
     RDKit          3D

 27 29  0  0  0  0  0  0  0  0999 V2000
   -0.9090   -2.6140   -3.6500 C   0  0  0  0  0  0  0  0  0  0  0  0
   -1.9680   -2.2630   -2.7970 N   0  0  0  0  0  0  0  0  0  0  0  0
   -2.1730   -1.2420   -2.0650 C   0  0  0  0  0  0  0  0  0  0  0  0
   -3.4260   -1.1690   -1.2590 C   0  0  0  0  0  0  0  0  0  0  0  0
   -4.2580   -2.1500   -1.3360 N   0  0  0  0  0  0  0  0  0  0  0  0
   -3.6360    0.0020   -0.4360 C   0  0  0  0  0  0  0  0  0  0  0  0
   -2.7810    1.0040   -0.3600 C   0  0  0  0  0  0  0  0  0  0  0  0
   -3.1080    2.1710    0.5320 C   0  0  0  0  0  0  0  0  0  0  0  0
   -2.0440    2.2510    1.5110 N   0  0  0  0  0  0  0  0  0  0  0  0
   -1.5590    0.9520   -1.1350 C   0  0  0  0  0  0  0  0  0  0  0  0
   -0.6190    1.9930   -1.0880 N   0  0  0  0  0  0  0  0  0  0  0  0
    0.6310    1.9240   -0.4300 C   0  0  0  0  0  0  0  0  0  0  0  0
    1.4960    2.9980   -0.4410 C   0  0  0  0  0  0  0  0  0  0  0  0
    2.7180    2.9610    0.1900 C   0  0  0  0  0  0  0  0  0  0  0  0
    3.1290    1.8210    0.8720 C   0  0  0  0  0  0  0  0  0  0  0  0
    4.3860    1.7830    1.5210 N   0  0  0  0  0  0  0  0  0  0  0  0
    2.2970    0.7280    0.9080 C   0  0  0  0  0  0  0  0  0  0  0  0
    2.6150   -0.5200    1.5890 C   0  0  0  0  0  0  0  0  0  0  0  0
    3.7280   -0.8560    2.2950 C   0  0  0  0  0  0  0  0  0  0  0  0
    3.5920   -2.1360    2.7590 N   0  0  0  0  0  0  0  0  0  0  0  0
    2.3900   -2.5400    2.3170 C   0  0  0  0  0  0  0  0  0  0  0  0
    1.8180   -3.8820    2.5860 C   0  0  0  0  0  0  0  0  0  0  0  0
    1.8370   -1.5750    1.6340 O   0  0  0  0  0  0  0  0  0  0  0  0
    1.0560    0.8110    0.2470 C   0  0  0  0  0  0  0  0  0  0  0  0
   -1.2900   -0.1030   -1.9260 C   0  0  0  0  0  0  0  0  0  0  0  0
   -0.0450   -0.0990   -2.6790 C   0  0  0  0  0  0  0  0  0  0  0  0
    0.9540   -0.0800   -3.2700 N   0  0  0  0  0  0  0  0  0  0  0  0
  1  2  1  0
  2  3  2  3
  3  4  1  0
  3 25  1  0
  4  5  2  0
  4  6  1  0
  6  7  2  0
  7  8  1  0
  7 10  1  0
  8  9  1  0
 10 11  1  0
 10 25  2  0
 11 12  1  0
 12 13  2  0
 12 24  1  0
 13 14  1  0
 14 15  2  0
 15 16  1  0
 15 17  1  0
 17 18  1  0
 17 24  2  0
 18 19  2  0
 18 23  1  0
 19 20  1  0
 20 21  2  0
 21 22  1  0
 21 23  1  0
 25 26  1  0
 26 27  3  0
M  CHG  2   5   1   9   1
M  END
