
     RDKit          3D

 27 29  0  0  0  0  0  0  0  0999 V2000
    7.9150   -0.2850   -3.2940 C   0  0  0  0  0  0  0  0  0  0  0  0
    7.2140   -1.1780   -2.3440 C   0  0  0  0  0  0  0  0  0  0  0  0
    6.0150   -0.7200   -1.8020 C   0  0  0  0  0  0  0  0  0  0  0  0
    5.2630   -1.4320   -0.9180 C   0  0  0  0  0  0  0  0  0  0  0  0
    4.0480   -0.9950   -0.3700 N   0  0  0  0  0  0  0  0  0  0  0  0
    3.3050    0.1440   -0.7420 C   0  0  0  0  0  0  0  0  0  0  0  0
    3.7250    0.8620   -1.6430 O   0  0  0  0  0  0  0  0  0  0  0  0
    2.0670    0.4840   -0.0910 N   0  0  0  0  0  0  0  0  0  0  0  0
    1.2690    1.5990   -0.4030 C   0  0  0  0  0  0  0  0  0  0  0  0
    1.5590    2.5340   -1.3730 C   0  0  0  0  0  0  0  0  0  0  0  0
    0.7410    3.6260   -1.6480 C   0  0  0  0  0  0  0  0  0  0  0  0
   -0.4180    3.8060   -0.9340 C   0  0  0  0  0  0  0  0  0  0  0  0
   -0.7020    2.9050    0.0040 N   0  0  0  0  0  0  0  0  0  0  0  0
    0.0890    1.8280    0.2870 C   0  0  0  0  0  0  0  0  0  0  0  0
   -0.3130    0.9300    1.3100 N   0  0  0  0  0  0  0  0  0  0  0  0
   -1.5660    1.2430    1.9880 C   0  0  0  0  0  0  0  0  0  0  0  0
   -2.6360    0.4980    1.7690 C   0  0  0  0  0  0  0  0  0  0  0  0
   -3.9090    0.7420    2.3990 C   0  0  0  0  0  0  0  0  0  0  0  0
   -4.9850    0.0150    2.1970 C   0  0  0  0  0  0  0  0  0  0  0  0
   -6.3410    0.1500    2.7710 C   0  0  0  0  0  0  0  0  0  0  0  0
   -7.0750   -0.9690    2.2640 N   0  0  0  0  0  0  0  0  0  0  0  0
   -6.1250   -1.9850    1.8950 C   0  0  0  0  0  0  0  0  0  0  0  0
   -5.0070   -1.1670    1.2720 C   0  0  1  0  0  0  0  0  0  0  0  0
   -5.3910   -0.7440   -0.0520 N   0  0  0  0  0  0  0  0  0  0  0  0
    5.7640   -2.6920   -0.5600 C   0  0  0  0  0  0  0  0  0  0  0  0
    6.9490   -3.1190   -1.1090 C   0  0  0  0  0  0  0  0  0  0  0  0
    7.6520   -2.3730   -1.9810 N   0  0  0  0  0  0  0  0  0  0  0  0
  1  2  1  0
  2  3  2  0
  2 27  1  0
  3  4  1  0
  4  5  1  0
  4 25  2  0
  5  6  1  0
  6  7  2  0
  6  8  1  0
  8  9  1  0
  9 10  2  0
  9 14  1  0
 10 11  1  0
 11 12  2  0
 12 13  1  0
 13 14  2  0
 14 15  1  0
 15 16  1  0
 16 17  2  3
 17 18  1  0
 18 19  2  3
 19 20  1  0
 19 23  1  0
 20 21  1  0
 21 22  1  0
 22 23  1  0
 23 24  1  6
 25 26  1  0
 26 27  2  0
M  CHG  2  21   1  24   1
M  END
