
     RDKit          3D

 27 29  0  0  0  0  0  0  0  0999 V2000
   -3.2040    0.6160   -2.8580 C   0  0  0  0  0  0  0  0  0  0  0  0
   -2.7970    1.7190   -1.9430 C   0  0  0  0  0  0  0  0  0  0  0  0
   -2.4890    1.3660   -0.6030 N   0  0  2  0  0  0  0  0  0  0  0  0
   -1.3120    0.5640   -0.4140 C   0  0  0  0  0  0  0  0  0  0  0  0
   -1.5020   -0.9050   -0.3550 C   0  0  0  0  0  0  0  0  0  0  0  0
   -0.1350   -1.5020   -0.1390 C   0  0  0  0  0  0  0  0  0  0  0  0
   -0.0760   -2.8360   -0.0540 N   0  0  0  0  0  0  0  0  0  0  0  0
    1.0770   -3.4840    0.1360 C   0  0  0  0  0  0  0  0  0  0  0  0
    1.1400   -4.9080    0.2260 N   0  0  0  0  0  0  0  0  0  0  0  0
    2.2290   -2.7080    0.2440 C   0  0  0  0  0  0  0  0  0  0  0  0
    2.1850   -1.3380    0.1590 C   0  0  0  0  0  0  0  0  0  0  0  0
    3.3930   -0.4910    0.2710 C   0  0  0  0  0  0  0  0  0  0  0  0
    4.6460   -1.0110    0.4670 C   0  0  0  0  0  0  0  0  0  0  0  0
    5.7670   -0.1760    0.5680 C   0  0  0  0  0  0  0  0  0  0  0  0
    5.6620    1.1920    0.4750 C   0  0  0  0  0  0  0  0  0  0  0  0
    6.8110    2.0470    0.5790 N   0  0  0  0  0  0  0  0  0  0  0  0
    4.4030    1.7150    0.2780 C   0  0  0  0  0  0  0  0  0  0  0  0
    4.2590    3.0890    0.1800 O   0  0  0  0  0  0  0  0  0  0  0  0
    3.2880    0.8820    0.1780 C   0  0  0  0  0  0  0  0  0  0  0  0
    0.9790   -0.7750   -0.0330 N   0  0  0  0  0  0  0  0  0  0  0  0
   -3.6140    0.9750    0.1300 C   0  0  0  0  0  0  0  0  0  0  0  0
   -4.8650    0.9700   -0.4310 C   0  0  0  0  0  0  0  0  0  0  0  0
   -6.0170    0.5850    0.2600 C   0  0  0  0  0  0  0  0  0  0  0  0
   -5.8760    0.2040    1.5350 N   0  0  0  0  0  0  0  0  0  0  0  0
   -4.6590    0.1980    2.1160 C   0  0  0  0  0  0  0  0  0  0  0  0
   -4.6450   -0.2310    3.4830 N   0  0  0  0  0  0  0  0  0  0  0  0
   -3.5260    0.5710    1.4530 C   0  0  0  0  0  0  0  0  0  0  0  0
  1  2  1  0
  3  2  1  6
  3  4  1  0
  3 21  1  0
  4  5  1  0
  5  6  1  0
  6  7  2  0
  6 20  1  0
  7  8  1  0
  8  9  1  0
  8 10  2  0
 10 11  1  0
 11 12  1  0
 11 20  2  0
 12 13  2  0
 12 19  1  0
 13 14  1  0
 14 15  2  0
 15 16  1  0
 15 17  1  0
 17 18  1  0
 17 19  2  0
 21 22  2  0
 21 27  1  0
 22 23  1  0
 23 24  2  0
 24 25  1  0
 25 26  1  0
 25 27  2  0
M  CHG  2   3   1  16   1
M  END
