
     RDKit          3D

 27 30  0  0  0  0  0  0  0  0999 V2000
    5.9360   -0.0810    2.9320 C   0  0  0  0  0  0  0  0  0  0  0  0
    6.2990   -0.3230    1.5400 N   0  0  0  0  0  0  0  0  0  0  0  0
    5.2920   -0.2670    0.5420 C   0  0  0  0  0  0  0  0  0  0  0  0
    3.9830    0.0060    0.8080 C   0  0  0  0  0  0  0  0  0  0  0  0
    3.0070    0.0530   -0.2160 C   0  0  0  0  0  0  0  0  0  0  0  0
    1.6870    0.3510    0.1510 N   0  0  0  0  0  0  0  0  0  0  0  0
    0.5220    0.2890   -0.6450 C   0  0  0  0  0  0  0  0  0  0  0  0
    0.5070   -0.0860   -1.9230 N   0  0  0  0  0  0  0  0  0  0  0  0
   -0.5740   -0.1520   -2.6920 C   0  0  0  0  0  0  0  0  0  0  0  0
   -1.7710    0.2000   -2.1060 C   0  0  0  0  0  0  0  0  0  0  0  0
   -1.8440    0.6000   -0.7870 C   0  0  0  0  0  0  0  0  0  0  0  0
   -3.1000    0.9530   -0.1410 C   0  0  0  0  0  0  0  0  0  0  0  0
   -4.1960    0.2690   -0.0100 C   0  0  0  0  0  0  0  0  0  0  0  0
   -4.5680   -1.0880   -0.4510 C   0  0  0  0  0  0  0  0  0  0  0  0
   -5.7460   -1.6000   -0.2080 N   0  0  0  0  0  0  0  0  0  0  0  0
   -5.8630   -2.9000   -0.7190 C   0  0  0  0  0  0  0  0  0  0  0  0
   -4.7770   -3.2320   -1.2880 N   0  0  0  0  0  0  0  0  0  0  0  0
   -3.8490   -2.1240   -1.1810 C   0  0  0  0  0  0  0  0  0  0  0  0
   -5.1700    1.1440    0.7580 C   0  0  0  0  0  0  0  0  0  0  0  0
   -4.6360    2.5230    0.4610 C   0  0  1  0  0  0  0  0  0  0  0  0
   -5.0020    3.5380    1.4930 C   0  0  0  0  0  0  0  0  0  0  0  0
   -3.2270    2.2280    0.4630 O   0  0  0  0  0  0  0  0  0  0  0  0
   -0.6870    0.6280   -0.1070 N   0  0  0  0  0  0  0  0  0  0  0  0
    3.3670   -0.1790   -1.5180 C   0  0  0  0  0  0  0  0  0  0  0  0
    4.7110   -0.4580   -1.7850 C   0  0  0  0  0  0  0  0  0  0  0  0
    5.6470   -0.5000   -0.7760 C   0  0  0  0  0  0  0  0  0  0  0  0
    7.0140   -0.7860   -1.0610 N   0  0  0  0  0  0  0  0  0  0  0  0
  1  2  1  0
  2  3  1  0
  3  4  2  0
  3 26  1  0
  4  5  1  0
  5  6  1  0
  5 24  2  0
  6  7  1  0
  7  8  2  0
  7 23  1  0
  8  9  1  0
  9 10  2  0
 10 11  1  0
 11 12  1  0
 11 23  2  0
 12 13  2  0
 12 22  1  0
 13 14  1  0
 13 19  1  0
 14 15  2  0
 14 18  1  0
 15 16  1  0
 16 17  2  0
 17 18  1  0
 19 20  1  0
 20 21  1  1
 20 22  1  0
 24 25  1  0
 25 26  2  0
 26 27  1  0
M  CHG  2  17   1  27   1
M  END
