
     RDKit          3D

 27 29  0  0  0  0  0  0  0  0999 V2000
   -5.4990   -1.0330    0.9070 C   0  0  0  0  0  0  0  0  0  0  0  0
   -5.6720    0.3160    0.4270 N   0  0  2  0  0  0  0  0  0  0  0  0
   -6.5520    0.2410   -0.7400 C   0  0  0  0  0  0  0  0  0  0  0  0
   -4.4500    0.9480    0.1150 C   0  0  0  0  0  0  0  0  0  0  0  0
   -4.4910    2.2450   -0.3540 C   0  0  0  0  0  0  0  0  0  0  0  0
   -3.3500    2.8950   -0.6670 N   0  0  0  0  0  0  0  0  0  0  0  0
   -2.1810    2.2800   -0.5200 C   0  0  0  0  0  0  0  0  0  0  0  0
   -1.0000    2.9760   -0.8520 N   0  0  0  0  0  0  0  0  0  0  0  0
   -2.0730    0.9630   -0.0480 C   0  0  0  0  0  0  0  0  0  0  0  0
   -0.8030    0.4040    0.0800 N   0  0  0  0  0  0  0  0  0  0  0  0
   -0.4770   -0.8980    0.5260 C   0  0  0  0  0  0  0  0  0  0  0  0
   -1.4610   -1.8160    0.7610 C   0  0  0  0  0  0  0  0  0  0  0  0
   -1.1270   -3.1010    1.1570 C   0  0  0  0  0  0  0  0  0  0  0  0
    0.1660   -3.4670    1.3160 C   0  0  0  0  0  0  0  0  0  0  0  0
    1.1670   -2.5550    1.0840 C   0  0  0  0  0  0  0  0  0  0  0  0
    0.8730   -1.2640    0.6880 C   0  0  0  0  0  0  0  0  0  0  0  0
    1.9250   -0.3140    0.4840 C   0  0  0  0  0  0  0  0  0  0  0  0
    2.9650   -0.6140   -0.3840 C   0  0  0  0  0  0  0  0  0  0  0  0
    3.9810    0.2940   -0.5490 C   0  0  0  0  0  0  0  0  0  0  0  0
    5.0820   -0.0680   -1.4920 C   0  0  0  0  0  0  0  0  0  0  0  0
    6.1660   -0.8010   -0.7190 C   0  0  0  0  0  0  0  0  0  0  0  0
    6.6710    0.0680    0.3230 N   0  0  0  0  0  0  0  0  0  0  0  0
    4.0430    1.4790    0.0810 N   0  0  0  0  0  0  0  0  0  0  0  0
    3.0370    1.7910    0.9330 C   0  0  0  0  0  0  0  0  0  0  0  0
    3.1140    2.9050    1.5130 O   0  0  0  0  0  0  0  0  0  0  0  0
    1.9980    0.9030    1.1260 C   0  0  0  0  0  0  0  0  0  0  0  0
   -3.2530    0.3840    0.2420 N   0  0  0  0  0  0  0  0  0  0  0  0
  2  1  1  6
  2  3  1  0
  2  4  1  0
  4  5  2  0
  4 27  1  0
  5  6  1  0
  6  7  2  0
  7  8  1  0
  7  9  1  0
  9 10  1  0
  9 27  2  0
 10 11  1  0
 11 12  2  0
 11 16  1  0
 12 13  1  0
 13 14  2  0
 14 15  1  0
 15 16  2  0
 16 17  1  0
 17 18  1  0
 17 26  2  0
 18 19  2  0
 19 20  1  0
 19 23  1  0
 20 21  1  0
 21 22  1  0
 23 24  1  0
 24 25  2  0
 24 26  1  0
M  CHG  2   2   1  22   1
M  END
