
     RDKit          3D

 23 25  0  0  0  0  0  0  0  0999 V2000
   -3.6410   -3.5430   -0.1120 C   0  0  0  0  0  0  0  0  0  0  0  0
   -3.0680   -2.5840    0.8690 C   0  0  0  0  0  0  0  0  0  0  0  0
   -2.8260   -1.1970    0.3050 C   0  0  0  0  0  0  0  0  0  0  0  0
   -1.8810   -1.1990   -0.8400 C   0  0  0  0  0  0  0  0  0  0  0  0
   -1.5910    0.1040   -1.4770 C   0  0  0  0  0  0  0  0  0  0  0  0
   -0.9720    1.1570   -0.5860 C   0  0  1  0  0  0  0  0  0  0  0  0
    0.3360    0.6360   -0.0420 C   0  0  0  0  0  0  0  0  0  0  0  0
    1.0990   -0.1960   -0.7630 N   0  0  0  0  0  0  0  0  0  0  0  0
    2.2840   -0.6800   -0.2820 C   0  0  0  0  0  0  0  0  0  0  0  0
    3.0560   -1.5780   -1.0740 N   0  0  0  0  0  0  0  0  0  0  0  0
    4.3240   -2.1020   -0.6960 C   0  0  0  0  0  0  0  0  0  0  0  0
    5.4120   -1.0570   -0.6620 C   0  0  0  0  0  0  0  0  0  0  0  0
    2.7210   -0.3330    0.9370 N   0  0  0  0  0  0  0  0  0  0  0  0
    3.7980   -0.6320    1.6720 N   0  0  0  0  0  0  0  0  0  0  0  0
    3.7520   -0.0090    2.8610 C   0  0  0  0  0  0  0  0  0  0  0  0
    2.6060    0.6870    2.8350 N   0  0  0  0  0  0  0  0  0  0  0  0
    1.9540    0.5060    1.6670 C   0  0  0  0  0  0  0  0  0  0  0  0
    0.7920    0.9690    1.1730 N   0  0  0  0  0  0  0  0  0  0  0  0
   -0.5840    2.3000   -1.5030 C   0  0  0  0  0  0  0  0  0  0  0  0
   -0.5980    3.6030   -0.7750 C   0  0  0  0  0  0  0  0  0  0  0  0
   -2.0610    3.8260   -0.3800 C   0  0  0  0  0  0  0  0  0  0  0  0
   -2.6200    2.6780    0.3710 C   0  0  0  0  0  0  0  0  0  0  0  0
   -1.8260    1.5070    0.4700 N   0  0  0  0  0  0  0  0  0  0  0  0
  1  2  1  0
  2  3  1  0
  3  4  1  0
  4  5  1  0
  6  5  1  6
  6  7  1  0
  6 19  1  0
  6 23  1  0
  7  8  1  0
  7 18  2  0
  8  9  2  0
  9 10  1  0
  9 13  1  0
 10 11  1  0
 11 12  1  0
 13 14  1  0
 13 17  1  0
 14 15  2  0
 15 16  1  0
 16 17  2  0
 17 18  1  0
 19 20  1  0
 20 21  1  0
 21 22  1  0
 22 23  1  0
M  END
