
     RDKit          3D

 18 19  0  0  0  0  0  0  0  0999 V2000
    6.2150    0.7690    0.2540 C   0  0  0  0  0  0  0  0  0  0  0  0
    4.8750    0.8690   -0.2490 O   0  0  0  0  0  0  0  0  0  0  0  0
    3.8070    0.3080    0.4300 C   0  0  0  0  0  0  0  0  0  0  0  0
    4.0700   -0.2910    1.5050 O   0  0  0  0  0  0  0  0  0  0  0  0
    2.4090    0.3930   -0.0620 C   0  0  0  0  0  0  0  0  0  0  0  0
    1.4380   -0.2930    0.8490 C   0  0  2  0  0  0  0  0  0  0  0  0
    1.7680   -1.7610    0.9920 C   0  0  0  0  0  0  0  0  0  0  0  0
    2.4380   -2.3220    1.8860 O   0  0  0  0  0  0  0  0  0  0  0  0
    1.1470   -2.3990   -0.1270 N   0  0  0  0  0  0  0  0  0  0  0  0
    0.2570   -1.6550   -0.6370 C   0  0  0  0  0  0  0  0  0  0  0  0
   -0.9670   -1.5310   -1.9330 S   0  0  0  0  0  0  0  0  0  0  0  0
   -1.2480    0.2820   -1.6590 C   0  0  0  0  0  0  0  0  0  0  0  0
   -1.1010    0.2450   -0.1580 C   0  0  1  0  0  0  0  0  0  0  0  0
   -2.1330   -0.5390    0.5580 C   0  0  0  0  0  0  0  0  0  0  0  0
   -3.5480   -0.1630    0.4650 C   0  0  2  0  0  0  0  0  0  0  0  0
   -4.2210   -0.1590   -0.8510 C   0  0  0  0  0  0  0  0  0  0  0  0
   -3.8430    1.1910    1.1180 C   0  0  0  0  0  0  0  0  0  0  0  0
    0.1710   -0.4250    0.0860 N   0  0  0  0  0  0  0  0  0  0  0  0
  1  2  1  0
  2  3  1  0
  3  4  2  0
  3  5  1  0
  6  5  1  6
  6  7  1  0
  6 18  1  0
  7  8  2  0
  7  9  1  0
  9 10  2  0
 10 11  1  0
 10 18  1  0
 11 12  1  0
 12 13  1  0
 13 14  1  1
 13 18  1  0
 14 15  1  0
 15 16  1  6
 15 17  1  0
M  END
