
     RDKit          3D

 23 25  0  0  0  0  0  0  0  0999 V2000
   -1.4870    1.7990    0.4330 C   0  0  0  0  0  0  0  0  0  0  0  0
   -1.5770    0.4720   -0.1200 C   0  0  1  0  0  0  0  0  0  0  0  0
   -1.2680   -0.6980    0.7500 C   0  0  0  0  0  0  0  0  0  0  0  0
   -2.1040   -1.2910    1.7090 C   0  0  0  0  0  0  0  0  0  0  0  0
   -1.5690   -2.5080    1.9990 N   0  0  0  0  0  0  0  0  0  0  0  0
   -0.4820   -2.7500    1.3090 C   0  0  0  0  0  0  0  0  0  0  0  0
    0.4590   -3.7350    1.2100 N   0  0  0  0  0  0  0  0  0  0  0  0
    1.5230   -3.7620    0.4820 C   0  0  0  0  0  0  0  0  0  0  0  0
    1.6780   -2.5880   -0.2610 N   0  0  0  0  0  0  0  0  0  0  0  0
    0.9360   -1.5770   -0.3000 C   0  0  0  0  0  0  0  0  0  0  0  0
    1.3290   -0.2740   -0.7800 N   0  0  0  0  0  0  0  0  0  0  0  0
    2.6340   -0.3130   -1.4640 C   0  0  0  0  0  0  0  0  0  0  0  0
    3.5500    0.6280   -0.6920 C   0  0  0  0  0  0  0  0  0  0  0  0
    4.4510    0.3450    0.3010 C   0  0  0  0  0  0  0  0  0  0  0  0
    5.0210    1.5180    0.7370 C   0  0  0  0  0  0  0  0  0  0  0  0
    4.4790    2.5400    0.0240 N   0  0  0  0  0  0  0  0  0  0  0  0
    3.6050    1.9880   -0.8380 C   0  0  0  0  0  0  0  0  0  0  0  0
   -0.2620   -1.5920    0.4960 C   0  0  0  0  0  0  0  0  0  0  0  0
   -2.9860    0.2850   -0.6680 N   0  0  0  0  0  0  0  0  0  0  0  0
   -3.0350    0.9320   -2.0230 C   0  0  0  0  0  0  0  0  0  0  0  0
   -4.0120    0.9360    0.0770 C   0  0  0  0  0  0  0  0  0  0  0  0
   -4.8160   -0.2650    0.7890 C   0  0  0  0  0  0  0  0  0  0  0  0
   -5.3230   -1.0360    1.2620 N   0  0  0  0  0  0  0  0  0  0  0  0
  2  1  1  1
  2  3  1  0
  2 19  1  0
  3  4  2  0
  3 18  1  0
  4  5  1  0
  5  6  1  0
  6  7  2  0
  6 18  1  0
  7  8  1  0
  8  9  2  0
  9 10  1  0
 10 11  1  0
 10 18  2  0
 11 12  1  0
 12 13  1  0
 13 14  1  0
 13 17  2  0
 14 15  2  0
 15 16  1  0
 16 17  1  0
 19 20  1  0
 19 21  1  0
 21 22  1  0
 22 23  3  0
M  END
