
     RDKit          3D

 18 19  0  0  0  0  0  0  0  0999 V2000
   -0.0890   -0.6540   -2.0370 C   0  0  0  0  0  0  0  0  0  0  0  0
   -0.2280   -0.8050   -0.5650 C   0  0  1  0  0  0  0  0  0  0  0  0
    1.0060   -0.6790    0.2330 C   0  0  0  0  0  0  0  0  0  0  0  0
    0.9250   -0.3450    1.4190 O   0  0  0  0  0  0  0  0  0  0  0  0
    2.2730   -0.9280   -0.3200 N   0  0  0  0  0  0  0  0  0  0  0  0
    3.5100   -0.8260    0.3900 C   0  0  2  0  0  0  0  0  0  0  0  0
    4.6380   -0.0990   -0.3400 C   0  0  0  0  0  0  0  0  0  0  0  0
    4.7180   -1.5730    0.0310 C   0  0  0  0  0  0  0  0  0  0  0  0
   -1.4080   -0.2540    0.0240 N   0  0  0  0  0  0  0  0  0  0  0  0
   -2.6970   -0.9160   -0.1330 C   0  0  0  0  0  0  0  0  0  0  0  0
   -3.5880   -0.7340    1.0620 C   0  0  0  0  0  0  0  0  0  0  0  0
   -2.8440   -0.1990    2.2640 C   0  0  0  0  0  0  0  0  0  0  0  0
   -2.0760    1.0250    1.8800 C   0  0  0  0  0  0  0  0  0  0  0  0
   -1.3660    0.9630    0.7500 C   0  0  0  0  0  0  0  0  0  0  0  0
   -0.5890    2.1090    0.3240 C   0  0  0  0  0  0  0  0  0  0  0  0
   -1.1580    2.7030   -1.2640 S   0  0  2  0  0  0  0  0  0  0  0  0
   -2.2060    1.8030   -1.8490 O   0  0  0  0  0  0  0  0  0  0  0  0
    0.0160    2.8830   -2.2160 O   0  0  0  0  0  0  0  0  0  0  0  0
  2  1  1  6
  2  3  1  0
  2  9  1  0
  3  4  2  0
  3  5  1  0
  6  5  1  6
  6  7  1  0
  6  8  1  0
  7  8  1  0
  9 10  1  0
  9 14  1  0
 10 11  1  0
 11 12  1  0
 12 13  1  0
 13 14  2  0
 14 15  1  0
 16 15  1  1
 16 17  2  0
 16 18  2  0
M  END
