
     RDKit          3D

 18 19  0  0  0  0  0  0  0  0999 V2000
   -4.4190   -1.7910   -1.0910 C   0  0  0  0  0  0  0  0  0  0  0  0
   -3.8480   -0.7730   -0.1570 C   0  0  1  0  0  0  0  0  0  0  0  0
   -3.1050    0.2720   -0.9420 C   0  0  0  0  0  0  0  0  0  0  0  0
   -2.4450    1.2500   -0.1710 N   0  0  0  0  0  0  0  0  0  0  0  0
   -1.0280    1.2950   -0.2320 C   0  0  0  0  0  0  0  0  0  0  0  0
   -0.3410    0.1230    0.3760 C   0  0  0  0  0  0  0  0  0  0  0  0
    1.0950    0.2750    0.2560 N   0  0  0  0  0  0  0  0  0  0  0  0
    2.0210   -0.6890    0.7420 C   0  0  0  0  0  0  0  0  0  0  0  0
    1.5350   -1.7180    1.2990 O   0  0  0  0  0  0  0  0  0  0  0  0
    3.4960   -0.5490    0.6290 C   0  0  1  0  0  0  0  0  0  0  0  0
    4.0100   -1.7720   -0.0970 C   0  0  0  0  0  0  0  0  0  0  0  0
    5.3410   -1.6580   -0.4420 O   0  0  0  0  0  0  0  0  0  0  0  0
    5.9080   -0.4690    0.0210 C   0  0  0  0  0  0  0  0  0  0  0  0
    5.0890    0.6680   -0.5530 C   0  0  0  0  0  0  0  0  0  0  0  0
    3.8400    0.6250    0.0070 O   0  0  0  0  0  0  0  0  0  0  0  0
   -2.9810    1.5910    1.0960 C   0  0  0  0  0  0  0  0  0  0  0  0
   -4.4940    1.7850    1.0150 C   0  0  0  0  0  0  0  0  0  0  0  0
   -5.1770    0.1110    0.7490 S   0  0  0  0  0  0  0  0  0  0  0  0
  2  1  1  6
  2  3  1  0
  2 18  1  0
  3  4  1  0
  4  5  1  0
  4 16  1  0
  5  6  1  0
  6  7  1  0
  7  8  1  0
  8  9  2  0
 10  8  1  6
 10 11  1  0
 10 15  1  0
 11 12  1  0
 12 13  1  0
 13 14  1  0
 14 15  1  0
 16 17  1  0
 17 18  1  0
M  END
