
     RDKit          3D

 18 19  0  0  0  0  0  0  0  0999 V2000
    4.6810   -1.9240    0.7680 C   0  0  0  0  0  0  0  0  0  0  0  0
    3.8230   -1.1390   -0.5960 S   0  0  1  0  0  0  0  0  0  0  0  0
    4.6070    0.0300   -1.1030 O   0  0  0  0  0  0  0  0  0  0  0  0
    3.6350   -2.1490   -1.6790 O   0  0  0  0  0  0  0  0  0  0  0  0
    2.2370   -0.6630    0.0240 C   0  0  0  0  0  0  0  0  0  0  0  0
    1.3610    0.0150   -1.0050 C   0  0  2  0  0  0  0  0  0  0  0  0
    1.9820    1.2850   -1.5490 C   0  0  0  0  0  0  0  0  0  0  0  0
    2.2300    2.2180   -0.4820 N   0  0  0  0  0  0  0  0  0  0  0  0
    1.1400    2.3440    0.4330 C   0  0  0  0  0  0  0  0  0  0  0  0
   -0.1200    1.6340    0.0340 C   0  0  0  0  0  0  0  0  0  0  0  0
    0.1260    0.3200   -0.3860 N   0  0  0  0  0  0  0  0  0  0  0  0
   -0.7620   -0.7110   -0.0680 C   0  0  0  0  0  0  0  0  0  0  0  0
   -2.0850   -0.6420   -0.7290 C   0  0  0  0  0  0  0  0  0  0  0  0
   -3.1700   -0.5570    0.0060 C   0  0  0  0  0  0  0  0  0  0  0  0
   -4.5730   -0.4790   -0.4820 C   0  0  0  0  0  0  0  0  0  0  0  0
   -5.2750    0.0930    0.7500 C   0  0  0  0  0  0  0  0  0  0  0  0
   -4.6390   -0.6320    1.7730 O   0  0  0  0  0  0  0  0  0  0  0  0
   -3.2760   -0.5180    1.5020 C   0  0  0  0  0  0  0  0  0  0  0  0
  2  1  1  1
  2  3  2  0
  2  4  2  0
  2  5  1  0
  6  5  1  1
  6  7  1  0
  6 11  1  0
  7  8  1  0
  8  9  1  0
  9 10  1  0
 10 11  1  0
 11 12  1  0
 12 13  1  0
 13 14  2  3
 14 15  1  0
 14 18  1  0
 15 16  1  0
 16 17  1  0
 17 18  1  0
M  END
