
     RDKit          3D

 22 24  0  0  0  0  0  0  0  0999 V2000
    7.7330   -1.0900    0.9770 C   0  0  0  0  0  0  0  0  0  0  0  0
    6.4340   -0.4720    0.5580 C   0  0  0  0  0  0  0  0  0  0  0  0
    6.4870    0.6200   -0.2820 C   0  0  0  0  0  0  0  0  0  0  0  0
    5.3440    1.2450   -0.7130 C   0  0  0  0  0  0  0  0  0  0  0  0
    4.1260    0.7530   -0.2830 C   0  0  0  0  0  0  0  0  0  0  0  0
    2.9400    1.3410   -0.6820 C   0  0  0  0  0  0  0  0  0  0  0  0
    1.7670    0.7950   -0.2130 C   0  0  0  0  0  0  0  0  0  0  0  0
    1.7140   -0.2970    0.6270 C   0  0  0  0  0  0  0  0  0  0  0  0
    0.5000   -0.8660    1.0910 N   0  0  0  0  0  0  0  0  0  0  0  0
   -0.8010   -0.4160    0.6820 C   0  0  0  0  0  0  0  0  0  0  0  0
   -1.1760   -0.7640   -0.7230 C   0  0  0  0  0  0  0  0  0  0  0  0
   -2.5520   -0.2280   -1.0200 C   0  0  0  0  0  0  0  0  0  0  0  0
   -3.5730   -0.7620   -0.1640 N   0  0  0  0  0  0  0  0  0  0  0  0
   -4.9380   -0.3790   -0.2640 C   0  0  0  0  0  0  0  0  0  0  0  0
   -5.9600   -0.8110    0.4760 N   0  0  0  0  0  0  0  0  0  0  0  0
   -7.0710   -0.1690    0.0210 C   0  0  0  0  0  0  0  0  0  0  0  0
   -8.4420   -0.3600    0.5730 C   0  0  0  0  0  0  0  0  0  0  0  0
   -6.7290    0.6490   -0.9890 N   0  0  0  0  0  0  0  0  0  0  0  0
   -5.4110    0.5100   -1.1550 N   0  0  0  0  0  0  0  0  0  0  0  0
    2.9100   -0.8350    0.9880 N   0  0  0  0  0  0  0  0  0  0  0  0
    4.0860   -0.3380    0.5560 C   0  0  0  0  0  0  0  0  0  0  0  0
    5.2510   -0.9400    0.9690 N   0  0  0  0  0  0  0  0  0  0  0  0
  1  2  1  0
  2  3  2  0
  2 22  1  0
  3  4  1  0
  4  5  2  0
  5  6  1  0
  5 21  1  0
  6  7  2  0
  7  8  1  0
  8  9  1  0
  8 20  2  0
  9 10  1  0
 10 11  1  0
 11 12  1  0
 12 13  1  0
 13 14  1  0
 14 15  2  0
 14 19  1  0
 15 16  1  0
 16 17  1  0
 16 18  2  0
 18 19  1  0
 20 21  1  0
 21 22  2  0
M  END
