
     RDKit          3D

 18 19  0  0  0  0  0  0  0  0999 V2000
    5.0610    0.9510    0.2740 C   0  0  0  0  0  0  0  0  0  0  0  0
    4.9000   -0.5420    0.2040 C   0  0  0  0  0  0  0  0  0  0  0  0
    3.5860   -0.9530   -0.4040 C   0  0  0  0  0  0  0  0  0  0  0  0
    2.4540   -0.4260    0.3910 C   0  0  0  0  0  0  0  0  0  0  0  0
    2.6900    0.2350    1.3790 O   0  0  0  0  0  0  0  0  0  0  0  0
    1.0310   -0.7140   -0.0330 C   0  0  0  0  0  0  0  0  0  0  0  0
    0.1470   -0.0530    0.9610 C   0  0  0  0  0  0  0  0  0  0  0  0
   -1.3130   -0.2070    0.8530 C   0  0  0  0  0  0  0  0  0  0  0  0
   -2.0180    0.2730   -0.3490 C   0  0  1  0  0  0  0  0  0  0  0  0
   -1.7860    1.6510   -0.5500 O   0  0  0  0  0  0  0  0  0  0  0  0
   -1.8700   -0.5080   -1.6110 C   0  0  0  0  0  0  0  0  0  0  0  0
   -3.2380    0.3260   -2.5680 S   0  0  0  0  0  0  0  0  0  0  0  0
   -4.2680    0.6060   -1.1330 C   0  0  0  0  0  0  0  0  0  0  0  0
   -5.4180    0.9980   -0.6680 N   0  0  0  0  0  0  0  0  0  0  0  0
   -5.4760    0.9200    0.7440 C   0  0  0  0  0  0  0  0  0  0  0  0
   -6.2140    1.4600    1.5930 O   0  0  0  0  0  0  0  0  0  0  0  0
   -4.3780   -0.0300    1.1070 C   0  0  0  0  0  0  0  0  0  0  0  0
   -3.4740    0.2430   -0.0260 N   0  0  0  0  0  0  0  0  0  0  0  0
  1  2  1  0
  2  3  1  0
  3  4  1  0
  4  5  2  0
  4  6  1  0
  6  7  1  0
  7  8  1  0
  8  9  1  0
  9 10  1  6
  9 11  1  0
  9 18  1  0
 11 12  1  0
 12 13  1  0
 13 14  2  0
 13 18  1  0
 14 15  1  0
 15 16  2  0
 15 17  1  0
 17 18  1  0
M  END
