
     RDKit          3D

 33 36  0  0  0  0  0  0  0  0999 V2000
   -1.9690    5.6750   -0.5450 C   0  0  0  0  0  0  0  0  0  0  0  0
   -1.9320    4.3330   -1.2950 C   0  0  1  0  0  0  0  0  0  0  0  0
   -1.4820    3.3090   -0.3460 C   0  0  0  0  0  0  0  0  0  0  0  0
   -1.8880    1.9400   -0.6340 N   0  0  0  0  0  0  0  0  0  0  0  0
   -0.7240    1.0390   -0.5440 C   0  0  2  0  0  0  0  0  0  0  0  0
    0.2850    1.2450   -1.5960 C   0  0  0  0  0  0  0  0  0  0  0  0
    1.3920    0.3480   -1.4430 N   0  0  0  0  0  0  0  0  0  0  0  0
    2.1930    0.3070   -0.2700 C   0  0  0  0  0  0  0  0  0  0  0  0
    2.0500    1.0810    0.8470 N   0  0  0  0  0  0  0  0  0  0  0  0
    2.9690    0.7540    1.7360 N   0  0  0  0  0  0  0  0  0  0  0  0
    3.7410   -0.2490    1.2210 C   0  0  0  0  0  0  0  0  0  0  0  0
    4.8760   -0.9010    1.9310 C   0  0  1  0  0  0  0  0  0  0  0  0
    4.5540   -2.4020    2.0340 C   0  0  0  0  0  0  0  0  0  0  0  0
    5.3850   -3.0250    0.9200 C   0  0  0  0  0  0  0  0  0  0  0  0
    6.6550   -2.2000    1.0540 C   0  0  0  0  0  0  0  0  0  0  0  0
    6.1100   -0.8020    1.1000 C   0  0  0  0  0  0  0  0  0  0  0  0
    3.2360   -0.4810    0.0180 N   0  0  0  0  0  0  0  0  0  0  0  0
   -1.0420   -0.3300   -0.0750 C   0  0  1  0  0  0  0  0  0  0  0  0
   -1.6350   -0.1260    1.3580 C   0  0  0  0  0  0  0  0  0  0  0  0
   -2.0120   -1.1220   -0.8740 C   0  0  0  0  0  0  0  0  0  0  0  0
   -2.2400   -2.4560   -0.2770 C   0  0  0  0  0  0  0  0  0  0  0  0
   -3.4930   -2.6080    0.1620 C   0  0  0  0  0  0  0  0  0  0  0  0
   -4.2100   -3.6990    0.8140 C   0  0  0  0  0  0  0  0  0  0  0  0
   -4.0370   -4.9260    0.1930 O   0  0  0  0  0  0  0  0  0  0  0  0
   -2.5910   -5.5720    0.9170 S   0  0  0  0  0  0  0  0  0  0  0  0
   -1.2060   -4.7250    0.1750 C   0  0  0  0  0  0  0  0  0  0  0  0
   -1.1990   -3.4540   -0.2700 C   0  0  0  0  0  0  0  0  0  0  0  0
    0.0320   -3.1160   -0.8790 C   0  0  0  0  0  0  0  0  0  0  0  0
    1.0200   -2.8240   -1.3760 N   0  0  0  0  0  0  0  0  0  0  0  0
   -2.3570    2.0050   -2.0160 C   0  0  0  0  0  0  0  0  0  0  0  0
   -3.6120    2.8730   -1.9520 C   0  0  1  0  0  0  0  0  0  0  0  0
   -4.4170    2.5560   -0.7330 C   0  0  0  0  0  0  0  0  0  0  0  0
   -3.1730    4.1760   -1.8530 O   0  0  0  0  0  0  0  0  0  0  0  0
  2  1  1  1
  2  3  1  0
  2 33  1  0
  3  4  1  0
  4  5  1  0
  4 30  1  0
  5  6  1  6
  5 18  1  0
  6  7  1  0
  7  8  1  0
  8  9  2  0
  8 17  1  0
  9 10  1  0
 10 11  1  0
 12 11  1  6
 11 17  2  0
 12 13  1  0
 12 16  1  0
 13 14  1  0
 14 15  1  0
 15 16  1  0
 18 19  1  1
 18 20  1  0
 20 21  1  0
 21 22  2  0
 21 27  1  0
 22 23  1  0
 23 24  1  0
 24 25  1  0
 25 26  1  0
 26 27  2  0
 27 28  1  0
 28 29  3  0
 30 31  1  0
 31 32  1  1
 31 33  1  0
M  END
