
     RDKit          3D

 33 35  0  0  0  0  0  0  0  0999 V2000
    3.1110   -5.4960    1.2160 C   0  0  0  0  0  0  0  0  0  0  0  0
    3.0450   -4.1000    0.8660 N   0  0  0  0  0  0  0  0  0  0  0  0
    2.0430   -3.3430    0.9890 C   0  0  0  0  0  0  0  0  0  0  0  0
    1.7590   -1.9890    0.7210 C   0  0  0  0  0  0  0  0  0  0  0  0
    2.3140   -0.9490    0.2290 C   0  0  0  0  0  0  0  0  0  0  0  0
    3.6710   -0.8840   -0.3080 C   0  0  0  0  0  0  0  0  0  0  0  0
    4.3570   -2.1460   -0.6410 C   0  0  0  0  0  0  0  0  0  0  0  0
    4.1950    0.2460   -0.7200 C   0  0  0  0  0  0  0  0  0  0  0  0
    5.5270    0.4900   -1.2580 C   0  0  0  0  0  0  0  0  0  0  0  0
    5.9010    1.7090   -1.6950 C   0  0  0  0  0  0  0  0  0  0  0  0
    7.2830    1.6430   -2.1650 C   0  0  0  0  0  0  0  0  0  0  0  0
    7.7220    0.2810   -1.9320 C   0  0  0  0  0  0  0  0  0  0  0  0
    6.6760   -0.3710   -1.4060 C   0  0  0  0  0  0  0  0  0  0  0  0
    1.5300    0.3800    0.2090 C   0  0  2  0  0  0  0  0  0  0  0  0
    2.1530    1.2440    1.2370 C   0  0  0  0  0  0  0  0  0  0  0  0
    0.1020    0.1830    0.3320 N   0  0  0  0  0  0  0  0  0  0  0  0
   -0.6300    1.2730   -0.2910 C   0  0  0  0  0  0  0  0  0  0  0  0
   -1.7960    1.8040    0.4620 C   0  0  2  0  0  0  0  0  0  0  0  0
   -1.3730    2.3230    1.7340 N   0  0  2  0  0  0  0  0  0  0  0  0
   -2.4680    2.6820    2.6150 C   0  0  0  0  0  0  0  0  0  0  0  0
   -0.4850    3.4430    1.6920 C   0  0  0  0  0  0  0  0  0  0  0  0
   -2.8460    0.7430    0.7460 C   0  0  0  0  0  0  0  0  0  0  0  0
   -3.4140    0.2000   -0.5190 C   0  0  1  0  0  0  0  0  0  0  0  0
   -4.2820   -0.9360   -0.2630 N   0  0  0  0  0  0  0  0  0  0  0  0
   -4.7960   -1.4910   -1.4740 C   0  0  0  0  0  0  0  0  0  0  0  0
   -5.9720   -2.4100   -1.1450 C   0  0  0  0  0  0  0  0  0  0  0  0
   -5.8780   -2.8290    0.1870 O   0  0  0  0  0  0  0  0  0  0  0  0
   -4.5720   -3.1760    0.4800 C   0  0  0  0  0  0  0  0  0  0  0  0
   -3.6980   -1.9360    0.5750 C   0  0  0  0  0  0  0  0  0  0  0  0
   -4.2520    1.2720   -1.1790 C   0  0  0  0  0  0  0  0  0  0  0  0
   -3.9790    2.5980   -0.5300 C   0  0  0  0  0  0  0  0  0  0  0  0
   -2.4910    2.8410   -0.3950 C   0  0  1  0  0  0  0  0  0  0  0  0
   -2.1950    4.1320   -0.0270 O   0  0  0  0  0  0  0  0  0  0  0  0
  1  2  1  0
  2  3  2  3
  3  4  1  0
  4  5  2  3
  5  6  1  0
  5 14  1  0
  6  7  1  0
  6  8  2  3
  8  9  1  0
  9 10  2  0
  9 13  1  0
 10 11  1  0
 11 12  1  0
 12 13  2  0
 14 15  1  1
 14 16  1  0
 16 17  1  0
 18 17  1  6
 18 19  1  0
 18 22  1  0
 18 32  1  0
 19 20  1  1
 19 21  1  0
 22 23  1  0
 23 24  1  1
 23 30  1  0
 24 25  1  0
 24 29  1  0
 25 26  1  0
 26 27  1  0
 27 28  1  0
 28 29  1  0
 30 31  1  0
 31 32  1  0
 32 33  1  1
M  CHG  2  16   1  19   1
M  END
