
     RDKit          3D

 33 36  0  0  0  0  0  0  0  0999 V2000
    5.1520    0.9280   -2.8850 C   0  0  0  0  0  0  0  0  0  0  0  0
    4.0390    1.0430   -2.2070 C   0  0  0  0  0  0  0  0  0  0  0  0
    3.7780    0.1730   -1.0780 C   0  0  0  0  0  0  0  0  0  0  0  0
    2.6650    0.2360   -0.3400 C   0  0  0  0  0  0  0  0  0  0  0  0
    2.4950   -0.6810    0.7750 C   0  0  0  0  0  0  0  0  0  0  0  0
    3.4230   -0.9320    1.6280 C   0  0  0  0  0  0  0  0  0  0  0  0
    4.7630   -0.3530    1.6400 C   0  0  0  0  0  0  0  0  0  0  0  0
    5.8430   -1.3050    1.4750 N   0  0  0  0  0  0  0  0  0  0  0  0
    6.0170   -2.2010    2.5740 C   0  0  0  0  0  0  0  0  0  0  0  0
    1.0960   -1.2840    0.8840 C   0  0  0  0  0  0  0  0  0  0  0  0
    0.4410   -0.9610   -0.4420 C   0  0  0  0  0  0  0  0  0  0  0  0
    0.3450    0.3770   -0.8090 N   0  0  0  0  0  0  0  0  0  0  0  0
   -0.8530    1.0450   -0.4890 C   0  0  0  0  0  0  0  0  0  0  0  0
   -2.0420    0.5420   -1.2630 C   0  0  0  0  0  0  0  0  0  0  0  0
   -3.1080    0.1610   -0.6200 C   0  0  0  0  0  0  0  0  0  0  0  0
   -3.3130    0.1610    0.8180 C   0  0  0  0  0  0  0  0  0  0  0  0
   -2.5360   -0.5110    1.7060 C   0  0  0  0  0  0  0  0  0  0  0  0
   -2.7970   -0.4210    3.0770 C   0  0  0  0  0  0  0  0  0  0  0  0
   -3.8360    0.3420    3.5580 C   0  0  0  0  0  0  0  0  0  0  0  0
   -4.1090    0.4320    5.0330 C   0  0  0  0  0  0  0  0  0  0  0  0
   -4.6320    1.0270    2.6770 C   0  0  0  0  0  0  0  0  0  0  0  0
   -4.3670    0.9310    1.3380 C   0  0  0  0  0  0  0  0  0  0  0  0
   -4.5220   -0.4750   -1.5060 S   0  0  2  0  0  0  0  0  0  0  0  0
   -5.7560    0.2990   -1.2000 O   0  0  0  0  0  0  0  0  0  0  0  0
   -4.7460   -1.9120   -1.0990 O   0  0  0  0  0  0  0  0  0  0  0  0
   -4.1510   -0.3740   -3.1640 N   0  0  0  0  0  0  0  0  0  0  0  0
   -5.0860   -0.7530   -4.1740 C   0  0  0  0  0  0  0  0  0  0  0  0
   -2.8770    0.1010   -3.5390 C   0  0  0  0  0  0  0  0  0  0  0  0
   -1.9470    0.5040   -2.7150 C   0  0  0  0  0  0  0  0  0  0  0  0
    1.5380    1.1730   -0.6200 C   0  0  2  0  0  0  0  0  0  0  0  0
    1.8470    2.0770   -1.7490 C   0  0  0  0  0  0  0  0  0  0  0  0
    1.0110    3.0020   -2.0760 N   0  0  0  0  0  0  0  0  0  0  0  0
    3.0370    2.0050   -2.5250 N   0  0  0  0  0  0  0  0  0  0  0  0
  1  2  2  0
  2  3  1  0
  2 33  1  0
  3  4  2  0
  4  5  1  0
  4 30  1  0
  5  6  2  3
  5 10  1  0
  6  7  1  0
  7  8  1  0
  8  9  1  0
 10 11  1  0
 11 12  1  0
 12 13  1  0
 30 12  1  6
 13 14  1  0
 14 15  2  0
 14 29  1  0
 15 16  1  0
 15 23  1  0
 16 17  2  0
 16 22  1  0
 17 18  1  0
 18 19  2  0
 19 20  1  0
 19 21  1  0
 21 22  2  0
 23 24  2  0
 23 25  2  0
 23 26  1  6
 26 27  1  0
 26 28  1  0
 28 29  2  0
 30 31  1  0
 31 32  2  0
 31 33  1  0
M  END
