
     RDKit          3D

 33 37  0  0  0  0  0  0  0  0999 V2000
    8.6980    1.7700   -2.4680 C   0  0  0  0  0  0  0  0  0  0  0  0
    7.4440    1.4300   -1.7260 C   0  0  0  0  0  0  0  0  0  0  0  0
    7.4910    0.5880   -0.6490 C   0  0  0  0  0  0  0  0  0  0  0  0
    6.3150    0.2910    0.0260 C   0  0  0  0  0  0  0  0  0  0  0  0
    5.1090    0.8140   -0.3510 C   0  0  0  0  0  0  0  0  0  0  0  0
    3.8560    0.4490    0.4290 C   0  0  2  0  0  0  0  0  0  0  0  0
    3.8440    1.3280    1.6280 C   0  0  0  0  0  0  0  0  0  0  0  0
    3.7920   -0.9550    0.6430 N   0  0  1  0  0  0  0  0  0  0  0  0
    4.1150   -1.4450    1.9410 C   0  0  0  0  0  0  0  0  0  0  0  0
    3.0710   -2.5130    2.2660 C   0  0  0  0  0  0  0  0  0  0  0  0
    2.5710   -2.9280    0.8760 C   0  0  0  0  0  0  0  0  0  0  0  0
    2.6020   -1.5630    0.1510 C   0  0  1  0  0  0  0  0  0  0  0  0
    1.3290   -0.8520    0.4130 C   0  0  0  0  0  0  0  0  0  0  0  0
    1.2330    0.2320    1.0220 O   0  0  0  0  0  0  0  0  0  0  0  0
    0.1550   -1.4830   -0.0770 N   0  0  0  0  0  0  0  0  0  0  0  0
   -1.1650   -0.9820    0.0640 C   0  0  0  0  0  0  0  0  0  0  0  0
   -1.5100    0.2960    0.4130 C   0  0  0  0  0  0  0  0  0  0  0  0
   -2.8290    0.6920    0.5650 C   0  0  0  0  0  0  0  0  0  0  0  0
   -3.9100   -0.1730    0.3740 C   0  0  0  0  0  0  0  0  0  0  0  0
   -5.2580    0.1850    0.5340 C   0  0  0  0  0  0  0  0  0  0  0  0
   -6.1440   -0.2870   -0.2930 C   0  0  0  0  0  0  0  0  0  0  0  0
   -7.5200   -0.5150    0.2810 C   0  0  0  0  0  0  0  0  0  0  0  0
   -7.9470    0.9220    0.0500 N   0  0  2  0  0  0  0  0  0  0  0  0
   -7.6580    1.2730   -1.2940 C   0  0  0  0  0  0  0  0  0  0  0  0
   -7.2970    0.1320   -2.2810 C   0  0  0  0  0  0  0  0  0  0  0  0
   -6.0450   -0.4200   -1.6850 N   0  0  0  0  0  0  0  0  0  0  0  0
   -7.2420    1.6420    1.0820 C   0  0  0  0  0  0  0  0  0  0  0  0
   -5.9110    1.1260    1.5020 C   0  0  0  0  0  0  0  0  0  0  0  0
   -5.3260    1.3930    2.5260 O   0  0  0  0  0  0  0  0  0  0  0  0
   -3.5420   -1.4550    0.0220 C   0  0  0  0  0  0  0  0  0  0  0  0
   -2.2460   -1.8620   -0.1310 C   0  0  0  0  0  0  0  0  0  0  0  0
    5.0790    1.6560   -1.4320 C   0  0  0  0  0  0  0  0  0  0  0  0
    6.2390    1.9730   -2.1280 C   0  0  0  0  0  0  0  0  0  0  0  0
  1  2  1  0
  2  3  2  0
  2 33  1  0
  3  4  1  0
  4  5  2  0
  5  6  1  0
  5 32  1  0
  6  7  1  1
  6  8  1  0
  8  9  1  1
  8 12  1  0
  9 10  1  0
 10 11  1  0
 11 12  1  0
 12 13  1  1
 13 14  2  0
 13 15  1  0
 15 16  1  0
 16 17  2  0
 16 31  1  0
 17 18  1  0
 18 19  2  0
 19 20  1  0
 19 30  1  0
 20 21  2  0
 20 28  1  0
 21 22  1  0
 21 26  1  0
 22 23  1  0
 23 24  1  6
 23 27  1  0
 24 25  1  0
 25 26  1  0
 27 28  1  0
 28 29  2  0
 30 31  2  0
 32 33  2  0
M  CHG  2   8   1  23   1
M  END
