
     RDKit          3D

 33 37  0  0  0  0  0  0  0  0999 V2000
   -1.5640    0.5990   -3.2950 C   0  0  0  0  0  0  0  0  0  0  0  0
   -0.8050    0.3620   -2.0440 C   0  0  0  0  0  0  0  0  0  0  0  0
    0.5980    0.3850   -2.0720 C   0  0  0  0  0  0  0  0  0  0  0  0
    1.3920    0.1830   -0.9750 C   0  0  0  0  0  0  0  0  0  0  0  0
    2.8490    0.2230   -1.0670 C   0  0  0  0  0  0  0  0  0  0  0  0
    3.3750    0.6600   -2.1490 O   0  0  0  0  0  0  0  0  0  0  0  0
    3.6900   -0.1940   -0.0250 N   0  0  0  0  0  0  0  0  0  0  0  0
    5.1290   -0.1470   -0.1300 C   0  0  2  0  0  0  0  0  0  0  0  0
    5.7320   -1.5300   -0.1220 C   0  0  0  0  0  0  0  0  0  0  0  0
    7.2050   -1.5740    0.0680 C   0  0  0  0  0  0  0  0  0  0  0  0
    7.7270   -0.2340    0.2670 N   0  0  2  0  0  0  0  0  0  0  0  0
    9.1020   -0.2330    0.6650 C   0  0  0  0  0  0  0  0  0  0  0  0
    9.2790    1.0260    1.4880 C   0  0  0  0  0  0  0  0  0  0  0  0
    7.8810    1.5330    1.7520 C   0  0  0  0  0  0  0  0  0  0  0  0
    7.0410    0.3220    1.4150 C   0  0  1  0  0  0  0  0  0  0  0  0
    5.6470    0.7260    0.9730 C   0  0  0  0  0  0  0  0  0  0  0  0
    0.7460   -0.0510    0.2070 C   0  0  0  0  0  0  0  0  0  0  0  0
   -0.6250   -0.0790    0.2610 C   0  0  0  0  0  0  0  0  0  0  0  0
   -1.4470    0.1280   -0.8710 C   0  0  0  0  0  0  0  0  0  0  0  0
   -2.8820    0.0610   -0.7120 C   0  0  0  0  0  0  0  0  0  0  0  0
   -3.5010   -0.1190    0.5410 C   0  0  0  0  0  0  0  0  0  0  0  0
   -4.8780   -0.1350    0.3910 C   0  0  0  0  0  0  0  0  0  0  0  0
   -5.8460   -0.3050    1.5020 C   0  0  0  0  0  0  0  0  0  0  0  0
   -5.1810   -0.4580    2.7770 N   0  0  2  0  0  0  0  0  0  0  0  0
   -6.1960   -0.7960    3.7780 C   0  0  0  0  0  0  0  0  0  0  0  0
   -4.5330    0.7460    3.2370 C   0  0  0  0  0  0  0  0  0  0  0  0
   -5.1000    0.0350   -0.9410 C   0  0  0  0  0  0  0  0  0  0  0  0
   -6.4320    0.0880   -1.6010 C   0  0  1  0  0  0  0  0  0  0  0  0
   -6.3510    0.2030   -3.0940 C   0  0  0  0  0  0  0  0  0  0  0  0
   -7.5990   -0.5220   -3.5390 C   0  0  0  0  0  0  0  0  0  0  0  0
   -7.8980   -1.4590   -2.5760 O   0  0  0  0  0  0  0  0  0  0  0  0
   -7.1770   -1.1970   -1.4290 C   0  0  0  0  0  0  0  0  0  0  0  0
   -3.8890    0.1460   -1.5500 N   0  0  0  0  0  0  0  0  0  0  0  0
  1  2  1  0
  2  3  2  0
  2 19  1  0
  3  4  1  0
  4  5  1  0
  4 17  2  0
  5  6  2  0
  5  7  1  0
  8  7  1  1
  8  9  1  0
  8 16  1  0
  9 10  1  0
 11 10  1  1
 11 12  1  0
 11 15  1  0
 12 13  1  0
 13 14  1  0
 15 14  1  6
 15 16  1  0
 17 18  1  0
 18 19  2  0
 19 20  1  0
 20 21  2  0
 20 33  1  0
 21 22  1  0
 22 23  1  0
 22 27  2  0
 23 24  1  0
 24 25  1  1
 24 26  1  0
 28 27  1  1
 27 33  1  0
 28 29  1  0
 28 32  1  0
 29 30  1  0
 30 31  1  0
 31 32  1  0
M  CHG  2  11   1  24   1
M  END
