
     RDKit          3D

 33 35  0  0  0  0  0  0  0  0999 V2000
   -4.2690   -2.3030    1.3390 C   0  0  0  0  0  0  0  0  0  0  0  0
   -4.6020   -1.1960    0.4000 C   0  0  0  0  0  0  0  0  0  0  0  0
   -3.9000    0.0730    0.5410 C   0  0  1  0  0  0  0  0  0  0  0  0
   -4.1770    0.5750    1.9730 C   0  0  0  0  0  0  0  0  0  0  0  0
   -2.4390    0.1110    0.2360 N   0  0  0  0  0  0  0  0  0  0  0  0
   -1.5910   -0.7910    0.8510 C   0  0  0  0  0  0  0  0  0  0  0  0
   -1.6170   -1.9930    0.2730 O   0  0  0  0  0  0  0  0  0  0  0  0
   -0.6370   -0.8870    1.9690 C   0  0  0  0  0  0  0  0  0  0  0  0
    0.3670   -2.0360    1.8330 C   0  0  0  0  0  0  0  0  0  0  0  0
    1.4040   -1.6060    0.8520 C   0  0  0  0  0  0  0  0  0  0  0  0
    2.3310   -2.6630    0.3710 C   0  0  0  0  0  0  0  0  0  0  0  0
    2.1200   -3.9080    0.9060 C   0  0  0  0  0  0  0  0  0  0  0  0
    2.8280   -5.0260    0.4980 C   0  0  0  0  0  0  0  0  0  0  0  0
    3.7790   -4.8730   -0.4850 C   0  0  0  0  0  0  0  0  0  0  0  0
    3.9770   -3.6310   -1.0030 C   0  0  0  0  0  0  0  0  0  0  0  0
    3.2750   -2.4550   -0.6120 C   0  0  0  0  0  0  0  0  0  0  0  0
    3.6120   -1.2070   -1.2250 N   0  0  0  0  0  0  0  0  0  0  0  0
    4.0350    0.0410   -0.7840 C   0  0  0  0  0  0  0  0  0  0  0  0
    5.3300    0.3710   -0.9820 O   0  0  0  0  0  0  0  0  0  0  0  0
    3.4080    1.1990   -0.1070 C   0  0  0  0  0  0  0  0  0  0  0  0
    3.8290    1.4330    1.1620 C   0  0  0  0  0  0  0  0  0  0  0  0
    3.3410    2.5000    1.9710 N   0  0  0  0  0  0  0  0  0  0  0  0
    4.3710    3.6450    2.7920 S   0  0  0  0  0  0  0  0  0  0  0  0
    4.1310    5.2910    2.1510 N   0  0  0  0  0  0  0  0  0  0  0  0
    2.5160    2.0890   -0.6720 N   0  0  0  0  0  0  0  0  0  0  0  0
    1.3370    2.2690   -1.0280 C   0  0  0  0  0  0  0  0  0  0  0  0
    0.5770    3.4160   -1.6640 C   0  0  0  0  0  0  0  0  0  0  0  0
   -0.6490    2.6070   -2.2070 C   0  0  0  0  0  0  0  0  0  0  0  0
   -1.0010    1.8520   -0.9530 C   0  0  2  0  0  0  0  0  0  0  0  0
    0.3170    1.1820   -0.7980 C   0  0  0  0  0  0  0  0  0  0  0  0
   -2.2320    1.1710   -0.7960 C   0  0  1  0  0  0  0  0  0  0  0  0
   -2.8590    0.6790   -2.0730 C   0  0  0  0  0  0  0  0  0  0  0  0
   -2.8960    1.5480   -3.2690 C   0  0  0  0  0  0  0  0  0  0  0  0
  1  2  1  0
  2  3  1  0
  3  4  1  1
  3  5  1  0
  5  6  1  0
  5 31  1  0
  6  7  2  0
  6  8  1  0
  8  9  1  0
  9 10  1  0
 10 11  1  0
 11 12  2  0
 11 16  1  0
 12 13  1  0
 13 14  2  0
 14 15  1  0
 15 16  2  0
 16 17  1  0
 17 18  1  0
 18 19  2  0
 18 20  1  0
 20 21  2  3
 20 25  1  0
 21 22  1  0
 22 23  1  0
 23 24  1  0
 25 26  2  0
 26 27  1  0
 26 30  1  0
 27 28  1  0
 29 28  1  6
 29 30  1  0
 29 31  1  0
 31 32  1  6
 32 33  1  0
M  END
