
     RDKit          3D

 32 34  0  0  0  0  0  0  0  0999 V2000
   10.2890    0.2880    0.6820 C   0  0  0  0  0  0  0  0  0  0  0  0
    8.8930   -0.1260    0.7790 N   0  0  0  0  0  0  0  0  0  0  0  0
    7.8520    0.5500    0.0850 C   0  0  0  0  0  0  0  0  0  0  0  0
    8.1390    1.5280   -0.6300 O   0  0  0  0  0  0  0  0  0  0  0  0
    6.4600    0.1270    0.1900 C   0  0  0  0  0  0  0  0  0  0  0  0
    5.4690    0.7990   -0.4930 C   0  0  0  0  0  0  0  0  0  0  0  0
    4.1370    0.4350   -0.4240 C   0  0  0  0  0  0  0  0  0  0  0  0
    3.1670    1.1560   -1.1420 O   0  0  0  0  0  0  0  0  0  0  0  0
    1.8520    0.7470   -1.0350 C   0  0  0  0  0  0  0  0  0  0  0  0
    1.3730   -0.1900   -1.9340 C   0  0  0  0  0  0  0  0  0  0  0  0
    0.0910   -0.6460   -1.8980 C   0  0  0  0  0  0  0  0  0  0  0  0
   -0.7830   -0.1560   -0.9220 C   0  0  0  0  0  0  0  0  0  0  0  0
   -2.0880   -0.6720   -0.9140 N   0  0  0  0  0  0  0  0  0  0  0  0
   -3.2270   -0.0720   -0.2680 C   0  0  0  0  0  0  0  0  0  0  0  0
   -3.0840    1.0010    0.3420 O   0  0  0  0  0  0  0  0  0  0  0  0
   -4.4780   -0.7140   -0.3400 N   0  0  0  0  0  0  0  0  0  0  0  0
   -5.6600   -0.2410    0.2490 C   0  0  0  0  0  0  0  0  0  0  0  0
   -5.6650    0.7360    1.1970 C   0  0  0  0  0  0  0  0  0  0  0  0
   -6.8620    1.1850    1.7410 C   0  0  0  0  0  0  0  0  0  0  0  0
   -8.0410    0.6420    1.3200 C   0  0  0  0  0  0  0  0  0  0  0  0
   -9.5530    1.1980    1.9950 Cl  0  0  0  0  0  0  0  0  0  0  0  0
   -8.0820   -0.3540    0.3580 C   0  0  0  0  0  0  0  0  0  0  0  0
   -9.4020   -0.9060   -0.0580 C   0  0  1  0  0  0  0  0  0  0  0  0
  -10.0890   -1.4730    0.9880 F   0  0  0  0  0  0  0  0  0  0  0  0
  -10.1550    0.2000   -0.4750 F   0  0  0  0  0  0  0  0  0  0  0  0
   -9.2910   -1.7250   -1.1510 F   0  0  0  0  0  0  0  0  0  0  0  0
   -6.8980   -0.7730   -0.1550 C   0  0  0  0  0  0  0  0  0  0  0  0
   -0.3550    0.7730   -0.0080 C   0  0  0  0  0  0  0  0  0  0  0  0
    0.9700    1.2080   -0.0880 C   0  0  0  0  0  0  0  0  0  0  0  0
    3.7900   -0.6520    0.3670 C   0  0  0  0  0  0  0  0  0  0  0  0
    4.8030   -1.2960    1.0310 C   0  0  0  0  0  0  0  0  0  0  0  0
    6.0920   -0.9210    0.9470 N   0  0  0  0  0  0  0  0  0  0  0  0
  1  2  1  0
  2  3  1  0
  3  4  2  0
  3  5  1  0
  5  6  2  0
  5 32  1  0
  6  7  1  0
  7  8  1  0
  7 30  2  0
  8  9  1  0
  9 10  2  0
  9 29  1  0
 10 11  1  0
 11 12  2  0
 12 13  1  0
 12 28  1  0
 13 14  1  0
 14 15  2  0
 14 16  1  0
 16 17  1  0
 17 18  2  0
 17 27  1  0
 18 19  1  0
 19 20  2  0
 20 21  1  0
 20 22  1  0
 22 23  1  0
 22 27  2  0
 23 24  1  1
 23 25  1  0
 23 26  1  0
 28 29  2  0
 30 31  1  0
 31 32  2  0
M  END
