
     RDKit          3D

 33 37  0  0  0  0  0  0  0  0999 V2000
   -0.2580    5.2080    0.4300 C   0  0  0  0  0  0  0  0  0  0  0  0
   -0.7790    3.9750    0.9690 N   0  0  0  0  0  0  0  0  0  0  0  0
   -1.5010    4.0230    2.2180 C   0  0  0  0  0  0  0  0  0  0  0  0
   -0.6360    2.7910    0.2740 C   0  0  0  0  0  0  0  0  0  0  0  0
   -0.0960    2.8700   -0.8890 O   0  0  0  0  0  0  0  0  0  0  0  0
   -1.0210    1.4410    0.6890 C   0  0  0  0  0  0  0  0  0  0  0  0
   -0.7880    0.4350   -0.2850 N   0  0  2  0  0  0  0  0  0  0  0  0
   -1.4920   -0.7520    0.1240 C   0  0  0  0  0  0  0  0  0  0  0  0
   -2.9130   -0.8720   -0.2110 C   0  0  0  0  0  0  0  0  0  0  0  0
   -3.6950    0.0310   -0.8710 C   0  0  0  0  0  0  0  0  0  0  0  0
   -5.0500   -0.1670   -1.1630 C   0  0  0  0  0  0  0  0  0  0  0  0
   -5.6610   -1.3330   -0.7770 C   0  0  0  0  0  0  0  0  0  0  0  0
   -4.9130   -2.2670   -0.1120 C   0  0  0  0  0  0  0  0  0  0  0  0
   -5.5170   -3.4430    0.2740 C   0  0  0  0  0  0  0  0  0  0  0  0
   -4.7760   -4.3950    0.9410 C   0  0  0  0  0  0  0  0  0  0  0  0
   -3.4380   -4.2020    1.2340 C   0  0  0  0  0  0  0  0  0  0  0  0
   -2.7190   -5.1980    1.9200 O   0  0  0  0  0  0  0  0  0  0  0  0
   -2.8450   -3.0230    0.8430 C   0  0  0  0  0  0  0  0  0  0  0  0
   -3.5930   -2.0610    0.1690 C   0  0  0  0  0  0  0  0  0  0  0  0
    0.4550    0.1880   -0.8760 C   0  0  2  0  0  0  0  0  0  0  0  0
    1.0930   -1.1890   -0.6880 C   0  0  0  0  0  0  0  0  0  0  0  0
    2.4300   -0.6070   -0.8820 C   0  0  1  0  0  0  0  0  0  0  0  0
    3.2790   -0.9160    0.2880 C   0  0  0  0  0  0  0  0  0  0  0  0
    2.7990   -0.8660    1.5720 C   0  0  0  0  0  0  0  0  0  0  0  0
    3.5800   -1.1620    2.6650 C   0  0  0  0  0  0  0  0  0  0  0  0
    4.9140   -1.5310    2.5120 C   0  0  0  0  0  0  0  0  0  0  0  0
    5.3900   -1.5810    1.2290 C   0  0  0  0  0  0  0  0  0  0  0  0
    4.5870   -1.2790    0.1430 C   0  0  0  0  0  0  0  0  0  0  0  0
    3.1760   -0.6180   -2.0480 N   0  0  0  0  0  0  0  0  0  0  0  0
    3.7870    0.6430   -2.2690 C   0  0  0  0  0  0  0  0  0  0  0  0
    3.9010    1.5590   -1.1650 N   0  0  0  0  0  0  0  0  0  0  0  0
    2.7270    1.5510   -0.2460 C   0  0  0  0  0  0  0  0  0  0  0  0
    1.7200    0.7680   -0.9200 C   0  0  2  0  0  0  0  0  0  0  0  0
  1  2  1  0
  2  3  1  0
  2  4  1  0
  4  5  2  0
  4  6  1  0
  7  6  1  1
  7  8  1  0
  7 20  1  0
  8  9  1  0
  9 10  2  0
  9 19  1  0
 10 11  1  0
 11 12  2  0
 12 13  1  0
 13 14  2  0
 13 19  1  0
 14 15  1  0
 15 16  2  0
 16 17  1  0
 16 18  1  0
 18 19  2  0
 20 21  1  1
 20 33  1  0
 21 22  1  0
 22 23  1  1
 22 29  1  0
 22 33  1  0
 23 24  2  0
 23 28  1  0
 24 25  1  0
 25 26  2  0
 26 27  1  0
 27 28  2  0
 29 30  1  0
 30 31  1  0
 31 32  1  0
 33 32  1  1
M  CHG  2   7   1  31   1
M  END
