
     RDKit          3D

 37 41  0  0  0  0  0  0  0  0999 V2000
    5.0370    2.2510   -0.9420 O   0  0  0  0  0  0  0  0  0  0  0  0
    3.8890    1.7700   -0.8570 C   0  0  0  0  0  0  0  0  0  0  0  0
    3.0600    1.3020   -1.9370 N   0  0  0  0  0  0  0  0  0  0  0  0
    1.8250    0.8280   -1.4320 C   0  0  0  0  0  0  0  0  0  0  0  0
    0.8740    0.3550   -2.1260 N   0  0  0  0  0  0  0  0  0  0  0  0
   -0.3390   -0.1120   -1.5920 N   0  0  0  0  0  0  0  0  0  0  0  0
   -1.2120    0.7350   -1.0530 N   0  0  0  0  0  0  0  0  0  0  0  0
   -2.0950    1.5430   -1.1950 C   0  0  0  0  0  0  0  0  0  0  0  0
   -2.7030    2.1880   -0.0060 C   0  0  0  0  0  0  0  0  0  0  0  0
   -2.1920    1.8540    1.2260 C   0  0  0  0  0  0  0  0  0  0  0  0
   -2.7290    2.3960    2.3910 C   0  0  0  0  0  0  0  0  0  0  0  0
   -3.7860    3.2780    2.2930 C   0  0  0  0  0  0  0  0  0  0  0  0
   -4.2690    3.5860    1.0340 C   0  0  0  0  0  0  0  0  0  0  0  0
   -5.2820    4.4060    0.6650 N   0  0  0  0  0  0  0  0  0  0  0  0
   -5.3410    4.3480   -0.6870 C   0  0  0  0  0  0  0  0  0  0  0  0
   -4.3750    3.5010   -1.1670 C   0  0  0  0  0  0  0  0  0  0  0  0
   -3.7160    3.0350   -0.0790 N   0  0  0  0  0  0  0  0  0  0  0  0
   -0.5140   -1.5390   -1.6790 C   0  0  0  0  0  0  0  0  0  0  0  0
    0.4640   -2.3090   -2.2110 C   0  0  0  0  0  0  0  0  0  0  0  0
    0.2680   -3.6850   -2.2810 C   0  0  0  0  0  0  0  0  0  0  0  0
   -0.8540   -4.3130   -1.8440 C   0  0  0  0  0  0  0  0  0  0  0  0
   -1.1060   -5.7060   -1.8700 N   0  0  0  0  0  0  0  0  0  0  0  0
   -0.2170   -6.6740   -2.3500 C   0  0  0  0  0  0  0  0  0  0  0  0
    0.9060   -6.3820   -2.8130 O   0  0  0  0  0  0  0  0  0  0  0  0
   -0.6530   -8.1270   -2.2930 C   0  0  1  0  0  0  0  0  0  0  0  0
   -0.9160   -8.3980   -0.9600 F   0  0  0  0  0  0  0  0  0  0  0  0
   -1.8230   -8.2800   -2.9910 F   0  0  0  0  0  0  0  0  0  0  0  0
    0.3620   -8.9340   -2.7510 F   0  0  0  0  0  0  0  0  0  0  0  0
   -1.8300   -3.4820   -1.3070 C   0  0  0  0  0  0  0  0  0  0  0  0
   -1.6660   -2.0860   -1.2200 C   0  0  0  0  0  0  0  0  0  0  0  0
    1.8730    0.9980   -0.0330 N   0  0  0  0  0  0  0  0  0  0  0  0
    3.1030    1.5650    0.3700 C   0  0  0  0  0  0  0  0  0  0  0  0
    3.5500    1.8570    1.5730 C   0  0  0  0  0  0  0  0  0  0  0  0
    2.7070    1.6310    2.8000 C   0  0  0  0  0  0  0  0  0  0  0  0
    3.6710    1.4950    3.9200 C   0  0  0  0  0  0  0  0  0  0  0  0
    5.0480    1.7540    3.3690 C   0  0  0  0  0  0  0  0  0  0  0  0
    4.8250    2.4140    2.0110 C   0  0  0  0  0  0  0  0  0  0  0  0
  1  2  2  0
  2  3  1  0
  2 32  1  0
  3  4  1  0
  4  5  2  3
  4 31  1  0
  5  6  1  0
  6  7  1  0
  6 18  1  0
  7  8  2  3
  8  9  1  0
  9 10  2  0
  9 17  1  0
 10 11  1  0
 11 12  2  0
 12 13  1  0
 13 14  2  0
 13 17  1  0
 14 15  1  0
 15 16  2  0
 16 17  1  0
 18 19  2  0
 18 30  1  0
 19 20  1  0
 20 21  2  0
 21 22  1  0
 21 29  1  0
 22 23  1  0
 23 24  2  0
 23 25  1  0
 25 26  1  1
 25 27  1  0
 25 28  1  0
 29 30  2  0
 31 32  1  0
 32 33  2  3
 33 34  1  0
 33 37  1  0
 34 35  1  0
 35 36  1  0
 36 37  1  0
M  CHG  1  14   1
M  END
