
     RDKit          3D

 38 42  0  0  0  0  0  0  0  0999 V2000
    2.2390    0.3020   -0.1580 O   0  0  0  0  0  0  0  0  0  0  0  0
    1.2620   -0.5400   -0.0970 C   0  0  0  0  0  0  0  0  0  0  0  0
    1.5740   -1.8410    0.3310 N   0  0  0  0  0  0  0  0  0  0  0  0
    2.8320   -2.3180    0.6970 N   0  0  0  0  0  0  0  0  0  0  0  0
    3.9640   -1.4690    0.6650 C   0  0  0  0  0  0  0  0  0  0  0  0
    4.5670   -1.0070   -0.4820 C   0  0  0  0  0  0  0  0  0  0  0  0
    5.7010   -0.2200   -0.4620 C   0  0  0  0  0  0  0  0  0  0  0  0
    6.3020    0.1520    0.7220 C   0  0  0  0  0  0  0  0  0  0  0  0
    7.4880    0.9540    0.7600 N   0  0  0  0  0  0  0  0  0  0  0  0
    8.3140    1.1850   -0.2730 C   0  0  0  0  0  0  0  0  0  0  0  0
    9.3690    2.0050    0.1520 C   0  0  0  0  0  0  0  0  0  0  0  0
    9.1220    2.2330    1.4530 N   0  0  0  0  0  0  0  0  0  0  0  0
    7.9850    1.5870    1.7850 N   0  0  0  0  0  0  0  0  0  0  0  0
    5.7040   -0.3050    1.8780 C   0  0  0  0  0  0  0  0  0  0  0  0
    4.5760   -1.0870    1.8770 C   0  0  0  0  0  0  0  0  0  0  0  0
   -0.0280   -0.0300   -0.4860 C   0  0  0  0  0  0  0  0  0  0  0  0
   -0.0800    1.1540   -1.1360 N   0  0  0  0  0  0  0  0  0  0  0  0
   -1.2170    1.7050   -1.5220 N   0  0  0  0  0  0  0  0  0  0  0  0
   -2.4030    1.1180   -1.2890 C   0  0  0  0  0  0  0  0  0  0  0  0
   -2.3850   -0.0940   -0.6240 C   0  0  0  0  0  0  0  0  0  0  0  0
   -1.2220   -0.6530   -0.2310 C   0  0  0  0  0  0  0  0  0  0  0  0
   -1.2750   -1.7520    0.3710 O   0  0  0  0  0  0  0  0  0  0  0  0
   -3.7750   -0.6680   -0.3700 C   0  0  1  0  0  0  0  0  0  0  0  0
   -3.7540   -1.8800    0.4220 C   0  0  0  0  0  0  0  0  0  0  0  0
   -3.5660   -3.0590   -0.1690 C   0  0  0  0  0  0  0  0  0  0  0  0
   -3.3850   -3.2180   -1.6120 C   0  0  1  0  0  0  0  0  0  0  0  0
   -2.5820   -4.3320   -1.9040 F   0  0  0  0  0  0  0  0  0  0  0  0
   -4.6330   -3.5710   -2.1880 F   0  0  0  0  0  0  0  0  0  0  0  0
   -2.8400   -2.1750   -2.2930 F   0  0  0  0  0  0  0  0  0  0  0  0
   -4.0760   -1.8320    1.8590 C   0  0  0  0  0  0  0  0  0  0  0  0
   -4.5340   -0.7650    2.4740 C   0  0  0  0  0  0  0  0  0  0  0  0
   -4.6990    0.4560    1.6540 C   0  0  0  0  0  0  0  0  0  0  0  0
   -4.3810    0.5080    0.3970 C   0  0  0  0  0  0  0  0  0  0  0  0
   -4.5500    1.7060   -0.4600 C   0  0  0  0  0  0  0  0  0  0  0  0
   -5.3840    2.5960   -0.0920 N   0  0  0  0  0  0  0  0  0  0  0  0
   -5.6300    3.8070   -0.8520 C   0  0  0  0  0  0  0  0  0  0  0  0
   -5.2580    4.9410   -0.1400 F   0  0  0  0  0  0  0  0  0  0  0  0
   -3.7080    1.7700   -1.7070 C   0  0  0  0  0  0  0  0  0  0  0  0
  1  2  2  0
  2  3  1  0
  2 16  1  0
  3  4  1  0
  4  5  1  0
  5  6  2  0
  5 15  1  0
  6  7  1  0
  7  8  2  0
  8  9  1  0
  8 14  1  0
  9 10  1  0
  9 13  1  0
 10 11  2  0
 11 12  1  0
 12 13  2  0
 14 15  2  0
 16 17  2  0
 16 21  1  0
 17 18  1  0
 18 19  1  0
 19 20  2  0
 19 38  1  0
 20 21  1  0
 20 23  1  0
 21 22  2  0
 23 24  1  1
 23 33  1  0
 24 25  2  3
 24 30  1  0
 25 26  1  0
 26 27  1  1
 26 28  1  0
 26 29  1  0
 30 31  2  0
 31 32  1  0
 32 33  2  0
 33 34  1  0
 34 35  2  3
 34 38  1  0
 35 36  1  0
 36 37  1  0
M  CHG  1  35   1
M  END
