
     RDKit          3D

 38 43  0  0  0  0  0  0  0  0999 V2000
   -0.8980    7.5260    2.9250 N   0  0  0  0  0  0  0  0  0  0  0  0
   -0.1550    6.8920    2.0620 C   0  0  0  0  0  0  0  0  0  0  0  0
    0.6880    6.1610    1.0980 C   0  0  0  0  0  0  0  0  0  0  0  0
    1.8860    6.7250    0.8240 C   0  0  0  0  0  0  0  0  0  0  0  0
    2.7810    5.9530    0.0280 N   0  0  0  0  0  0  0  0  0  0  0  0
    2.3130    4.7120   -0.3480 C   0  0  0  0  0  0  0  0  0  0  0  0
    3.1370    4.0140   -1.0360 O   0  0  0  0  0  0  0  0  0  0  0  0
    1.1470    4.1980   -0.0640 N   0  0  0  0  0  0  0  0  0  0  0  0
    0.5630    2.9900   -0.4600 C   0  0  0  0  0  0  0  0  0  0  0  0
    0.7660    1.7110    0.1030 C   0  0  2  0  0  0  0  0  0  0  0  0
    2.0800    1.0890   -0.1140 O   0  0  0  0  0  0  0  0  0  0  0  0
    2.3040   -0.1310    0.2940 C   0  0  0  0  0  0  0  0  0  0  0  0
    1.0610   -0.6210    0.8520 O   0  0  0  0  0  0  0  0  0  0  0  0
    3.1980   -1.2230    0.4540 C   0  0  0  0  0  0  0  0  0  0  0  0
    3.0750   -2.5130    0.8740 C   0  0  0  0  0  0  0  0  0  0  0  0
    4.2600   -3.1790    0.8150 C   0  0  0  0  0  0  0  0  0  0  0  0
    4.6580   -4.4470    1.0980 C   0  0  0  0  0  0  0  0  0  0  0  0
    5.9350   -4.8920    0.9320 C   0  0  0  0  0  0  0  0  0  0  0  0
    6.8690   -3.9450    0.4330 C   0  0  0  0  0  0  0  0  0  0  0  0
    6.4470   -2.6790    0.1550 C   0  0  0  0  0  0  0  0  0  0  0  0
    5.2050   -2.1820    0.2920 C   0  0  0  0  0  0  0  0  0  0  0  0
    4.5080   -1.1080    0.1240 O   0  0  0  0  0  0  0  0  0  0  0  0
   -0.3170    0.7270   -0.3630 C   0  0  0  0  0  0  0  0  0  0  0  0
   -0.2620   -0.0720   -1.2340 O   0  0  0  0  0  0  0  0  0  0  0  0
   -1.5660    0.8060    0.4250 N   0  0  0  0  0  0  0  0  0  0  0  0
   -2.6350   -0.1030    0.2630 C   0  0  0  0  0  0  0  0  0  0  0  0
   -3.4520   -0.8550    0.0670 N   0  0  0  0  0  0  0  0  0  0  0  0
   -4.2520   -1.5980   -0.2300 C   0  0  0  0  0  0  0  0  0  0  0  0
   -4.0840   -1.5420   -1.6970 C   0  0  0  0  0  0  0  0  0  0  0  0
   -2.7430   -0.3630   -1.8710 S   0  0  0  0  0  0  0  0  0  0  0  0
   -4.9520   -2.2440   -2.6290 C   0  0  0  0  0  0  0  0  0  0  0  0
   -4.7240   -2.1480   -3.8250 O   0  0  0  0  0  0  0  0  0  0  0  0
   -6.0050   -2.9740   -2.0620 N   0  0  0  0  0  0  0  0  0  0  0  0
   -6.4510   -2.5580   -0.7330 C   0  0  1  0  0  0  0  0  0  0  0  0
   -7.3850   -3.5380   -0.1800 N   0  0  0  0  0  0  0  0  0  0  0  0
   -5.2710   -2.5670    0.2120 C   0  0  0  0  0  0  0  0  0  0  0  0
    0.2620    4.9840    0.7170 C   0  0  0  0  0  0  0  0  0  0  0  0
   -0.8610    4.4720    0.9620 O   0  0  0  0  0  0  0  0  0  0  0  0
  1  2  3  0
  2  3  1  0
  3  4  2  0
  3 37  1  0
  4  5  1  0
  5  6  1  0
  6  7  2  0
  6  8  1  0
  8  9  1  0
  8 37  1  0
 10  9  1  6
 10 11  1  0
 10 23  1  0
 11 12  1  0
 12 13  2  0
 12 14  1  0
 14 15  2  0
 14 22  1  0
 15 16  1  0
 16 17  2  0
 16 21  1  0
 17 18  1  0
 18 19  2  0
 19 20  1  0
 20 21  2  0
 21 22  1  0
 23 24  2  0
 23 25  1  0
 25 26  1  0
 26 27  2  0
 26 30  1  0
 27 28  1  0
 28 29  2  0
 28 36  1  0
 29 30  1  0
 29 31  1  0
 31 32  2  0
 31 33  1  0
 33 34  1  0
 34 35  1  1
 34 36  1  0
 37 38  2  0
 30 27  1  0
M  CHG  1  27   1
M  END
