
     RDKit          3D

 38 42  0  0  0  0  0  0  0  0999 V2000
    9.4490   -1.3650    1.2770 C   0  0  0  0  0  0  0  0  0  0  0  0
    8.1030   -1.0350    0.7990 N   0  0  0  0  0  0  0  0  0  0  0  0
    8.1880   -0.3030   -0.4290 C   0  0  0  0  0  0  0  0  0  0  0  0
    6.8860    0.1150   -0.9660 C   0  0  0  0  0  0  0  0  0  0  0  0
    6.9060    0.8190   -2.1770 C   0  0  0  0  0  0  0  0  0  0  0  0
    8.0860    1.0750   -2.7960 F   0  0  0  0  0  0  0  0  0  0  0  0
    5.7010    1.2210   -2.6820 C   0  0  0  0  0  0  0  0  0  0  0  0
    4.5020    0.9420   -2.0210 C   0  0  0  0  0  0  0  0  0  0  0  0
    4.4550    0.2590   -0.8400 C   0  0  0  0  0  0  0  0  0  0  0  0
    3.2950   -0.0690   -0.0990 N   0  0  0  0  0  0  0  0  0  0  0  0
    1.9740    0.2430   -0.4340 C   0  0  0  0  0  0  0  0  0  0  0  0
    1.7450    0.8840   -1.5050 O   0  0  0  0  0  0  0  0  0  0  0  0
    0.8210   -0.1450    0.4110 C   0  0  0  0  0  0  0  0  0  0  0  0
    0.9260   -0.6600    1.6720 C   0  0  0  0  0  0  0  0  0  0  0  0
   -0.1780   -1.0030    2.4000 N   0  0  0  0  0  0  0  0  0  0  0  0
   -1.3560   -0.8320    1.8730 N   0  0  0  0  0  0  0  0  0  0  0  0
   -1.5570   -0.3320    0.6400 C   0  0  0  0  0  0  0  0  0  0  0  0
   -2.8940   -0.2000    0.1920 N   0  0  0  0  0  0  0  0  0  0  0  0
   -3.7700   -1.1870    0.0270 C   0  0  0  0  0  0  0  0  0  0  0  0
   -3.5530   -2.3990    0.2410 O   0  0  0  0  0  0  0  0  0  0  0  0
   -4.9520   -0.7070   -0.4120 N   0  0  0  0  0  0  0  0  0  0  0  0
   -6.1720   -1.4360   -0.7190 C   0  0  0  0  0  0  0  0  0  0  0  0
   -7.0280   -1.5440    0.4630 C   0  0  0  0  0  0  0  0  0  0  0  0
   -6.8080   -1.0790    1.6730 C   0  0  0  0  0  0  0  0  0  0  0  0
   -7.9220   -1.4310    2.4800 N   0  0  0  0  0  0  0  0  0  0  0  0
   -8.7970   -2.1220    1.6740 N   0  0  0  0  0  0  0  0  0  0  0  0
   -8.3200   -2.2110    0.5010 C   0  0  0  0  0  0  0  0  0  0  0  0
   -4.7710    0.6330   -0.5130 C   0  0  0  0  0  0  0  0  0  0  0  0
   -5.5860    1.6850   -0.9010 C   0  0  0  0  0  0  0  0  0  0  0  0
   -6.8530    1.3660   -1.2730 F   0  0  0  0  0  0  0  0  0  0  0  0
   -5.1340    2.9970   -0.9110 C   0  0  0  0  0  0  0  0  0  0  0  0
   -3.8480    3.2970   -0.5320 C   0  0  0  0  0  0  0  0  0  0  0  0
   -3.0190    2.2400   -0.1380 C   0  0  0  0  0  0  0  0  0  0  0  0
   -1.7440    2.4640    0.2470 F   0  0  0  0  0  0  0  0  0  0  0  0
   -3.4840    0.9500   -0.1350 C   0  0  0  0  0  0  0  0  0  0  0  0
   -0.4540    0.0210   -0.1110 C   0  0  0  0  0  0  0  0  0  0  0  0
    5.6960   -0.1480   -0.3300 C   0  0  0  0  0  0  0  0  0  0  0  0
    5.6910   -0.8290    0.8610 F   0  0  0  0  0  0  0  0  0  0  0  0
  1  2  1  0
  2  3  1  0
  3  4  1  0
  4  5  2  0
  4 37  1  0
  5  6  1  0
  5  7  1  0
  7  8  2  0
  8  9  1  0
  9 10  1  0
  9 37  2  0
 10 11  1  0
 11 12  2  0
 11 13  1  0
 13 14  2  0
 13 36  1  0
 14 15  1  0
 15 16  2  0
 16 17  1  0
 17 18  1  0
 17 36  2  0
 18 19  1  0
 18 35  1  0
 19 20  2  0
 19 21  1  0
 21 22  1  0
 21 28  1  0
 22 23  1  0
 23 24  2  0
 23 27  1  0
 24 25  1  0
 25 26  1  0
 26 27  2  0
 28 29  2  0
 28 35  1  0
 29 30  1  0
 29 31  1  0
 31 32  2  0
 32 33  1  0
 33 34  1  0
 33 35  2  0
 37 38  1  0
M  CHG  1  25   1
M  END
