
     RDKit          3D

 38 42  0  0  0  0  0  0  0  0999 V2000
   -3.4630   -4.5740   -3.0300 C   0  0  0  0  0  0  0  0  0  0  0  0
   -3.6220   -3.2670   -2.3230 C   0  0  0  0  0  0  0  0  0  0  0  0
   -3.8190   -2.1100   -3.0260 C   0  0  0  0  0  0  0  0  0  0  0  0
   -3.9640   -0.9080   -2.3480 C   0  0  0  0  0  0  0  0  0  0  0  0
   -3.9180   -0.8250   -0.9670 C   0  0  0  0  0  0  0  0  0  0  0  0
   -4.1120    0.3710   -0.2410 N   0  0  0  0  0  0  0  0  0  0  0  0
   -5.3620    0.8200    0.0550 N   0  0  0  0  0  0  0  0  0  0  0  0
   -5.2920    1.9300    0.7460 C   0  0  0  0  0  0  0  0  0  0  0  0
   -6.4000    2.7920    1.2960 C   0  0  1  0  0  0  0  0  0  0  0  0
   -6.8590    3.7380    0.2100 C   0  0  0  0  0  0  0  0  0  0  0  0
   -7.5210    1.8960    1.7740 C   0  0  0  0  0  0  0  0  0  0  0  0
   -5.8770    3.5510    2.4920 C   0  0  0  0  0  0  0  0  0  0  0  0
   -3.9770    2.2160    0.9070 C   0  0  0  0  0  0  0  0  0  0  0  0
   -3.2240    1.1950    0.2610 C   0  0  0  0  0  0  0  0  0  0  0  0
   -1.8170    1.2890    0.2680 N   0  0  0  0  0  0  0  0  0  0  0  0
   -0.8530    0.4870   -0.3740 C   0  0  0  0  0  0  0  0  0  0  0  0
   -1.2180   -0.4330   -1.0800 O   0  0  0  0  0  0  0  0  0  0  0  0
    0.5390    0.7120   -0.2290 N   0  0  0  0  0  0  0  0  0  0  0  0
    1.5390   -0.0470   -0.8500 C   0  0  0  0  0  0  0  0  0  0  0  0
    1.3750   -0.8560   -1.9430 C   0  0  0  0  0  0  0  0  0  0  0  0
    2.4260   -1.6000   -2.4940 C   0  0  0  0  0  0  0  0  0  0  0  0
    3.6780   -1.5540   -1.9610 C   0  0  0  0  0  0  0  0  0  0  0  0
    3.8870   -0.7410   -0.8450 C   0  0  0  0  0  0  0  0  0  0  0  0
    5.2120   -0.6940   -0.3310 N   0  0  0  0  0  0  0  0  0  0  0  0
    5.5040   -0.3710    0.9980 C   0  0  0  0  0  0  0  0  0  0  0  0
    4.5430   -0.1460    1.8940 N   0  0  0  0  0  0  0  0  0  0  0  0
    4.7520    0.1360    3.1820 C   0  0  0  0  0  0  0  0  0  0  0  0
    6.0470    0.1920    3.5830 N   0  0  0  0  0  0  0  0  0  0  0  0
    7.0600   -0.0210    2.7450 C   0  0  0  0  0  0  0  0  0  0  0  0
    8.3820    0.0400    3.1590 C   0  0  0  0  0  0  0  0  0  0  0  0
    9.4320   -0.1740    2.3120 C   0  0  0  0  0  0  0  0  0  0  0  0
    9.1950   -0.4610    0.9970 C   0  0  0  0  0  0  0  0  0  0  0  0
   10.2870   -0.6840    0.1030 N   0  0  0  0  0  0  0  0  0  0  0  0
    7.8920   -0.5300    0.5460 C   0  0  0  0  0  0  0  0  0  0  0  0
    6.8360   -0.3130    1.4090 C   0  0  0  0  0  0  0  0  0  0  0  0
    2.8480   -0.0210   -0.3220 C   0  0  0  0  0  0  0  0  0  0  0  0
   -3.7150   -2.0290   -0.2850 C   0  0  0  0  0  0  0  0  0  0  0  0
   -3.5690   -3.2330   -0.9440 C   0  0  0  0  0  0  0  0  0  0  0  0
  1  2  1  0
  2  3  2  0
  2 38  1  0
  3  4  1  0
  4  5  2  0
  5  6  1  0
  5 37  1  0
  6  7  1  0
  6 14  1  0
  7  8  2  0
  8  9  1  0
  8 13  1  0
  9 10  1  6
  9 11  1  0
  9 12  1  0
 13 14  2  0
 14 15  1  0
 15 16  1  0
 16 17  2  0
 16 18  1  0
 18 19  1  0
 19 20  2  0
 19 36  1  0
 20 21  1  0
 21 22  2  0
 22 23  1  0
 23 24  1  0
 23 36  2  0
 24 25  1  0
 25 26  2  0
 25 35  1  0
 26 27  1  0
 27 28  2  0
 28 29  1  0
 29 30  2  0
 29 35  1  0
 30 31  1  0
 31 32  2  0
 32 33  1  0
 32 34  1  0
 34 35  2  0
 37 38  2  0
M  END
