
     RDKit          3D

 38 42  0  0  0  0  0  0  0  0999 V2000
    7.5250   -0.0020   -2.3750 C   0  0  0  0  0  0  0  0  0  0  0  0
    6.1650    0.0580   -2.6000 O   0  0  0  0  0  0  0  0  0  0  0  0
    5.2160   -0.0980   -1.6030 C   0  0  0  0  0  0  0  0  0  0  0  0
    5.6370   -0.3250   -0.3120 C   0  0  0  0  0  0  0  0  0  0  0  0
    4.6810   -0.4790    0.6660 C   0  0  0  0  0  0  0  0  0  0  0  0
    3.2970   -0.4260    0.4580 C   0  0  0  0  0  0  0  0  0  0  0  0
    2.8650   -0.1990   -0.8240 C   0  0  0  0  0  0  0  0  0  0  0  0
    3.8800   -0.0440   -1.8170 C   0  0  0  0  0  0  0  0  0  0  0  0
    1.5200   -0.1050   -1.2850 N   0  0  0  0  0  0  0  0  0  0  0  0
    0.3960    0.6510   -1.0190 C   0  0  0  0  0  0  0  0  0  0  0  0
   -0.2570    1.2450   -2.0320 O   0  0  0  0  0  0  0  0  0  0  0  0
   -0.3100    0.9830    0.2020 C   0  0  1  0  0  0  0  0  0  0  0  0
    0.0030    2.8500    0.3490 S   0  0  0  0  0  0  0  0  0  0  0  0
   -0.7720    3.6410   -1.0590 C   0  0  0  0  0  0  0  0  0  0  0  0
   -2.0230    4.0960   -1.1330 N   0  0  0  0  0  0  0  0  0  0  0  0
   -2.1830    4.6060   -2.3430 N   0  0  0  0  0  0  0  0  0  0  0  0
   -1.0250    4.4560   -2.9990 C   0  0  0  0  0  0  0  0  0  0  0  0
   -0.1950    3.8740   -2.2020 O   0  0  0  0  0  0  0  0  0  0  0  0
   -1.7830    0.8930    0.1470 C   0  0  1  0  0  0  0  0  0  0  0  0
   -2.5700   -0.2800    0.3570 C   0  0  0  0  0  0  0  0  0  0  0  0
   -3.1810   -0.5810    1.5440 C   0  0  0  0  0  0  0  0  0  0  0  0
   -4.1110   -1.6100    1.7020 C   0  0  0  0  0  0  0  0  0  0  0  0
   -4.4630   -2.3930    0.6280 C   0  0  0  0  0  0  0  0  0  0  0  0
   -3.8530   -2.1040   -0.5880 C   0  0  0  0  0  0  0  0  0  0  0  0
   -2.9400   -1.0940   -0.7340 C   0  0  0  0  0  0  0  0  0  0  0  0
   -2.3940   -0.8960   -1.9750 O   0  0  0  0  0  0  0  0  0  0  0  0
   -2.6400   -1.6270   -3.1420 C   0  0  0  0  0  0  0  0  0  0  0  0
   -5.3930   -3.3200    1.0730 O   0  0  0  0  0  0  0  0  0  0  0  0
   -5.9700   -2.8210    2.2930 C   0  0  0  0  0  0  0  0  0  0  0  0
   -4.8350   -2.0750    2.7840 O   0  0  0  0  0  0  0  0  0  0  0  0
   -2.0570    1.7280    1.3990 N   0  0  0  0  0  0  0  0  0  0  0  0
   -1.3570    1.7080    2.5940 C   0  0  0  0  0  0  0  0  0  0  0  0
   -1.1480    2.9980    2.9260 O   0  0  0  0  0  0  0  0  0  0  0  0
   -0.8410    0.8140    3.5010 N   0  0  0  0  0  0  0  0  0  0  0  0
   -0.0870   -0.3790    3.6060 C   0  0  0  0  0  0  0  0  0  0  0  0
    0.6420   -1.0390    2.9100 N   0  0  0  0  0  0  0  0  0  0  0  0
    1.3810   -1.4900    1.8530 C   0  0  0  0  0  0  0  0  0  0  0  0
    2.5450   -0.6510    1.6440 N   0  0  0  0  0  0  0  0  0  0  0  0
  1  2  1  0
  2  3  1  0
  3  4  2  0
  3  8  1  0
  4  5  1  0
  5  6  2  0
  6  7  1  0
  6 38  1  0
  7  8  2  0
  7  9  1  0
  9 10  1  0
 10 11  2  0
 10 12  1  0
 12 13  1  6
 12 19  1  0
 13 14  1  0
 14 15  2  0
 14 18  1  0
 15 16  1  0
 16 17  2  0
 17 18  1  0
 19 20  1  1
 19 31  1  0
 20 21  2  0
 20 25  1  0
 21 22  1  0
 22 23  2  0
 22 30  1  0
 23 24  1  0
 23 28  1  0
 24 25  2  0
 25 26  1  0
 26 27  1  0
 28 29  1  0
 29 30  1  0
 31 32  1  0
 32 33  2  0
 32 34  1  0
 34 35  1  0
 35 36  2  0
 36 37  1  0
 37 38  1  0
M  END
