
     RDKit          3D

 38 42  0  0  0  0  0  0  0  0999 V2000
   -7.6860    0.3620    3.8690 C   0  0  0  0  0  0  0  0  0  0  0  0
   -6.2630    0.2160    3.5020 C   0  0  0  0  0  0  0  0  0  0  0  0
   -5.9520    0.0610    2.2270 C   0  0  0  0  0  0  0  0  0  0  0  0
   -6.9820    0.0350    1.2230 N   0  0  0  0  0  0  0  0  0  0  0  0
   -6.6780   -0.1300   -0.1510 C   0  0  0  0  0  0  0  0  0  0  0  0
   -7.6100   -0.1440   -0.9620 O   0  0  0  0  0  0  0  0  0  0  0  0
   -5.2800   -0.2760   -0.5350 C   0  0  0  0  0  0  0  0  0  0  0  0
   -4.2850   -0.2490    0.4520 C   0  0  0  0  0  0  0  0  0  0  0  0
   -2.9830   -0.3820    0.1140 N   0  0  0  0  0  0  0  0  0  0  0  0
   -2.5800   -0.5440   -1.1490 C   0  0  0  0  0  0  0  0  0  0  0  0
   -1.1980   -0.6850   -1.5010 N   0  0  0  0  0  0  0  0  0  0  0  0
   -0.1390   -0.6650   -0.5340 C   0  0  2  0  0  0  0  0  0  0  0  0
   -0.0430    0.5930    0.2480 C   0  0  0  0  0  0  0  0  0  0  0  0
    0.2260    2.0520   -0.7220 S   0  0  1  0  0  0  0  0  0  0  0  0
    1.7260    1.9630   -1.6300 C   0  0  0  0  0  0  0  0  0  0  0  0
   -0.9500    2.3840   -1.5790 O   0  0  0  0  0  0  0  0  0  0  0  0
    0.3660    3.2000    0.2660 O   0  0  0  0  0  0  0  0  0  0  0  0
    1.1490   -1.0380   -1.1660 C   0  0  0  0  0  0  0  0  0  0  0  0
    1.1680   -1.2750   -2.3920 O   0  0  0  0  0  0  0  0  0  0  0  0
    2.3470   -1.1340   -0.4220 N   0  0  0  0  0  0  0  0  0  0  0  0
    3.6220   -1.4730   -0.8880 C   0  0  0  0  0  0  0  0  0  0  0  0
    3.8940   -1.7700   -2.1930 C   0  0  0  0  0  0  0  0  0  0  0  0
    5.1820   -2.0980   -2.5850 C   0  0  0  0  0  0  0  0  0  0  0  0
    6.1970   -2.1250   -1.6550 C   0  0  0  0  0  0  0  0  0  0  0  0
    5.9040   -1.8210   -0.3320 C   0  0  0  0  0  0  0  0  0  0  0  0
    4.6430   -1.4970    0.0710 C   0  0  0  0  0  0  0  0  0  0  0  0
    4.3280   -1.1930    1.4050 O   0  0  0  0  0  0  0  0  0  0  0  0
    5.2490   -1.1480    2.4370 C   0  0  0  0  0  0  0  0  0  0  0  0
    6.2070   -0.0020    2.3270 C   0  0  2  0  0  0  0  0  0  0  0  0
    5.7170    1.4010    2.4070 C   0  0  0  0  0  0  0  0  0  0  0  0
    6.1530    0.8230    1.0890 C   0  0  0  0  0  0  0  0  0  0  0  0
   -3.5720   -0.5670   -2.1010 C   0  0  0  0  0  0  0  0  0  0  0  0
   -3.4530   -0.7150   -3.4390 N   0  0  0  0  0  0  0  0  0  0  0  0
   -4.6580   -0.6770   -3.9570 N   0  0  0  0  0  0  0  0  0  0  0  0
   -5.5790   -0.5040   -2.9540 C   0  0  0  0  0  0  0  0  0  0  0  0
   -6.8130   -0.4280   -3.1260 O   0  0  0  0  0  0  0  0  0  0  0  0
   -4.9030   -0.4370   -1.8160 N   0  0  0  0  0  0  0  0  0  0  0  0
   -4.6610   -0.0830    1.7780 O   0  0  0  0  0  0  0  0  0  0  0  0
  1  2  1  0
  2  3  2  3
  3  4  1  0
  3 38  1  0
  4  5  1  0
  5  6  2  0
  5  7  1  0
  7  8  2  0
  7 37  1  0
  8  9  1  0
  8 38  1  0
  9 10  2  0
 10 11  1  0
 10 32  1  0
 11 12  1  0
 12 13  1  6
 12 18  1  0
 13 14  1  0
 14 15  1  6
 14 16  2  0
 14 17  2  0
 18 19  2  0
 18 20  1  0
 20 21  1  0
 21 22  2  0
 21 26  1  0
 22 23  1  0
 23 24  2  0
 24 25  1  0
 25 26  2  0
 26 27  1  0
 27 28  1  0
 29 28  1  6
 29 30  1  0
 29 31  1  0
 30 31  1  0
 32 33  2  0
 32 37  1  0
 33 34  1  0
 34 35  1  0
 35 36  2  0
 35 37  1  0
M  END
