
     RDKit          3D

 13 13  0  0  0  0  0  0  0  0999 V2000
   -2.3800    3.0910   -0.7280 O   0  0  0  0  0  0  0  0  0  0  0  0
   -2.1450    1.8970   -0.4550 C   0  0  0  0  0  0  0  0  0  0  0  0
   -0.7610    1.3240   -0.3920 C   0  0  0  0  0  0  0  0  0  0  0  0
   -0.7790    0.2400    0.6380 C   0  0  2  0  0  0  0  0  0  0  0  0
    0.4720   -0.3200    0.9650 N   0  0  0  0  0  0  0  0  0  0  0  0
    1.2010   -0.9860   -0.0520 C   0  0  0  0  0  0  0  0  0  0  0  0
    2.8270   -1.6430    0.6290 P   0  0  0  0  0  0  0  0  0  0  0  0
    3.7640   -2.1660   -0.7310 O   0  0  0  0  0  0  0  0  0  0  0  0
    3.7060   -0.3530    1.3960 O   0  0  0  0  0  0  0  0  0  0  0  0
    3.3830    0.8250    0.8610 O   0  0  0  0  0  0  0  0  0  0  0  0
   -1.7740   -0.8200    0.3230 C   0  0  0  0  0  0  0  0  0  0  0  0
   -2.9070   -0.3680   -0.4550 N   0  0  0  0  0  0  0  0  0  0  0  0
   -3.1990    0.9760   -0.1780 N   0  0  0  0  0  0  0  0  0  0  0  0
  1  2  2  0
  2  3  1  0
  2 13  1  0
  3  4  1  0
  4  5  1  6
  4 11  1  0
  5  6  1  0
  6  7  1  0
  7  8  1  0
  7  9  1  0
  9 10  1  0
 11 12  1  0
 12 13  1  0
M  END
