
     RDKit          3D

 13 13  0  0  0  0  0  0  0  0999 V2000
    5.8240   -0.6590   -0.5490 O   0  0  0  0  0  0  0  0  0  0  0  0
    4.3470    0.0700   -0.7650 P   0  0  0  0  0  0  0  0  0  0  0  0
    4.1160    1.4540    0.2800 O   0  0  0  0  0  0  0  0  0  0  0  0
    2.9260   -0.9640   -0.7490 O   0  0  0  0  0  0  0  0  0  0  0  0
    2.2130   -0.4560    0.3810 C   0  0  0  0  0  0  0  0  0  0  0  0
    0.8520   -0.0890   -0.0350 C   0  0  0  0  0  0  0  0  0  0  0  0
   -0.1410   -0.9690   -0.5290 N   0  0  0  0  0  0  0  0  0  0  0  0
   -1.5320   -0.5690   -0.2680 C   0  0  0  0  0  0  0  0  0  0  0  0
   -1.6830    0.0900    0.8700 N   0  0  0  0  0  0  0  0  0  0  0  0
   -2.9740    0.4740    1.1670 N   0  0  0  0  0  0  0  0  0  0  0  0
   -4.1210    0.1470    0.3560 C   0  0  0  0  0  0  0  0  0  0  0  0
   -3.7160   -0.0050   -1.0750 C   0  0  0  0  0  0  0  0  0  0  0  0
   -2.5500   -0.8580   -1.1070 O   0  0  0  0  0  0  0  0  0  0  0  0
  1  2  1  0
  2  3  1  0
  2  4  1  0
  4  5  1  0
  5  6  1  0
  6  7  1  0
  7  8  1  0
  8  9  2  0
  8 13  1  0
  9 10  1  0
 10 11  1  0
 11 12  1  0
 12 13  1  0
M  END
