
     RDKit          3D

 22 22  0  0  0  0  0  0  0  0999 V2000
   -2.7620   -2.9670   -0.4060 C   0  0  0  0  0  0  0  0  0  0  0  0
   -2.3150   -1.6200   -0.1320 N   0  0  0  0  0  0  0  0  0  0  0  0
   -1.7540   -1.4130    1.1720 C   0  0  0  0  0  0  0  0  0  0  0  0
   -0.3750   -0.7870    1.1270 C   0  0  0  0  0  0  0  0  0  0  0  0
    0.6260   -1.4010    1.9700 C   0  0  0  0  0  0  0  0  0  0  0  0
    1.7760   -0.9490    2.0140 O   0  0  0  0  0  0  0  0  0  0  0  0
    0.3050   -2.5020    2.7380 O   0  0  0  0  0  0  0  0  0  0  0  0
    0.0650    0.2640    0.4350 C   0  0  0  0  0  0  0  0  0  0  0  0
    1.3770    0.6030    0.5930 O   0  0  0  0  0  0  0  0  0  0  0  0
    2.3620    0.1970   -0.2200 O   0  0  0  0  0  0  0  0  0  0  0  0
    3.5290    0.7240    0.0800 O   0  0  0  0  0  0  0  0  0  0  0  0
    4.7540    0.1660   -0.1900 C   0  0  0  0  0  0  0  0  0  0  0  0
    4.8050   -0.9420   -0.7730 O   0  0  0  0  0  0  0  0  0  0  0  0
    5.9290    0.8010    0.1690 O   0  0  0  0  0  0  0  0  0  0  0  0
   -0.7400    1.0670   -0.4680 C   0  0  0  0  0  0  0  0  0  0  0  0
   -0.5630    2.3160   -0.4850 N   0  0  0  0  0  0  0  0  0  0  0  0
    0.3850    2.9960    0.3350 C   0  0  0  0  0  0  0  0  0  0  0  0
    1.6390    3.1540   -0.2710 O   0  0  0  0  0  0  0  0  0  0  0  0
   -1.7730    0.5940   -1.3750 N   0  0  0  0  0  0  0  0  0  0  0  0
   -2.1040    1.3910   -2.5080 C   0  0  0  0  0  0  0  0  0  0  0  0
   -2.4800   -0.6500   -1.1750 C   0  0  0  0  0  0  0  0  0  0  0  0
   -3.3600   -0.9240   -2.0280 O   0  0  0  0  0  0  0  0  0  0  0  0
  1  2  1  0
  2  3  1  0
  2 21  1  0
  3  4  1  0
  4  5  1  0
  4  8  2  0
  5  6  2  0
  5  7  1  0
  8  9  1  0
  8 15  1  0
  9 10  1  0
 10 11  1  0
 11 12  1  0
 12 13  2  0
 12 14  1  0
 15 16  2  3
 15 19  1  0
 16 17  1  0
 17 18  1  0
 19 20  1  0
 19 21  1  0
 21 22  2  0
M  END
