
     RDKit          3D

 21 22  0  0  0  0  0  0  0  0999 V2000
   -5.8880    0.7400   -1.9860 O   0  0  0  0  0  0  0  0  0  0  0  0
   -4.8070    0.6110   -1.3360 C   0  0  0  0  0  0  0  0  0  0  0  0
   -4.5000   -0.6070   -0.7730 C   0  0  0  0  0  0  0  0  0  0  0  0
   -3.3580   -0.7320   -0.0910 N   0  0  0  0  0  0  0  0  0  0  0  0
   -2.4910    0.2610    0.0800 N   0  0  0  0  0  0  0  0  0  0  0  0
   -1.3090   -0.0070    0.8310 C   0  0  2  0  0  0  0  0  0  0  0  0
   -0.2620    0.8690    0.5690 O   0  0  0  0  0  0  0  0  0  0  0  0
    0.7810    0.3400    1.3010 C   0  0  2  0  0  0  0  0  0  0  0  0
    2.1390    0.6760    0.6850 C   0  0  0  0  0  0  0  0  0  0  0  0
    2.1740    0.1550   -0.5760 O   0  0  0  0  0  0  0  0  0  0  0  0
    3.6500    0.5030   -1.2730 P   0  0  0  0  0  0  0  0  0  0  0  0
    4.3280    1.9450   -1.0710 O   0  0  0  0  0  0  0  0  0  0  0  0
    4.2790   -0.5630   -2.4130 O   0  0  0  0  0  0  0  0  0  0  0  0
    4.3870   -0.2610   -0.1780 O   0  0  0  0  0  0  0  0  0  0  0  0
    0.6540   -1.1740    1.2170 C   0  0  1  0  0  0  0  0  0  0  0  0
    0.4950   -1.6820    2.5000 O   0  0  0  0  0  0  0  0  0  0  0  0
   -0.6630   -1.3330    0.4860 C   0  0  1  0  0  0  0  0  0  0  0  0
   -1.3980   -2.4110    0.9650 O   0  0  0  0  0  0  0  0  0  0  0  0
   -2.7990    1.4520   -0.4750 C   0  0  0  0  0  0  0  0  0  0  0  0
   -1.9940    2.3930   -0.3220 O   0  0  0  0  0  0  0  0  0  0  0  0
   -3.9370    1.6310   -1.1730 N   0  0  0  0  0  0  0  0  0  0  0  0
  1  2  2  0
  2  3  1  0
  2 21  1  0
  3  4  2  0
  4  5  1  0
  6  5  1  6
  5 19  1  0
  6  7  1  0
  6 17  1  0
  7  8  1  0
  8  9  1  6
  8 15  1  0
  9 10  1  0
 10 11  1  0
 11 12  1  0
 11 13  1  0
 11 14  1  0
 15 16  1  1
 15 17  1  0
 17 18  1  1
 19 20  2  0
 19 21  1  0
M  END
