
     RDKit          3D

 13 13  0  0  0  0  0  0  0  0999 V2000
   -4.6470   -0.5010    0.0860 C   0  0  0  0  0  0  0  0  0  0  0  0
   -3.1840   -0.5350    0.0830 C   0  0  0  0  0  0  0  0  0  0  0  0
   -2.5230    0.2030    0.9600 C   0  0  0  0  0  0  0  0  0  0  0  0
   -1.1010    0.2070    1.0010 N   0  0  0  0  0  0  0  0  0  0  0  0
   -0.3540    0.7780   -0.1010 C   0  0  1  0  0  0  0  0  0  0  0  0
    1.0670    0.6810    0.1370 N   0  0  0  0  0  0  0  0  0  0  0  0
    1.6380    0.0430   -0.8250 C   0  0  0  0  0  0  0  0  0  0  0  0
    3.0310   -0.2410   -0.9270 N   0  0  0  0  0  0  0  0  0  0  0  0
    4.1900    0.6000    0.1590 P   0  0  0  0  0  0  0  0  0  0  0  0
    5.6510    0.9580   -0.7370 O   0  0  0  0  0  0  0  0  0  0  0  0
    4.5550   -0.3330    1.5530 O   0  0  0  0  0  0  0  0  0  0  0  0
    0.6410   -0.3000   -1.7150 O   0  0  0  0  0  0  0  0  0  0  0  0
   -0.5580    0.0630   -1.2630 O   0  0  0  0  0  0  0  0  0  0  0  0
  1  2  1  0
  2  3  2  3
  3  4  1  0
  5  4  1  1
  5  6  1  0
  5 13  1  0
  6  7  2  0
  7  8  1  0
  7 12  1  0
  8  9  1  0
  9 10  1  0
  9 11  1  0
 12 13  1  0
M  END
