
     RDKit          3D

 13 13  0  0  0  0  0  0  0  0999 V2000
   -1.7610    1.0270    1.4930 O   0  0  0  0  0  0  0  0  0  0  0  0
   -2.0850    0.3030    0.5070 C   0  0  0  0  0  0  0  0  0  0  0  0
   -3.3430   -0.1460    0.2240 N   0  0  0  0  0  0  0  0  0  0  0  0
   -3.2550   -0.8720   -0.8940 C   0  0  0  0  0  0  0  0  0  0  0  0
   -1.9780   -0.8680   -1.2840 N   0  0  0  0  0  0  0  0  0  0  0  0
   -1.2420   -0.1490   -0.4330 N   0  0  0  0  0  0  0  0  0  0  0  0
    0.1870    0.0670   -0.5540 C   0  0  1  0  0  0  0  0  0  0  0  0
    0.6790    1.1270    0.3820 C   0  0  0  0  0  0  0  0  0  0  0  0
    0.0700    2.3580    0.1580 O   0  0  0  0  0  0  0  0  0  0  0  0
    0.8580   -1.2390   -0.1680 C   0  0  0  0  0  0  0  0  0  0  0  0
    2.6930   -1.1410   -0.2670 P   0  0  0  0  0  0  0  0  0  0  0  0
    3.3300   -0.8650    1.3230 O   0  0  0  0  0  0  0  0  0  0  0  0
    3.1990    0.1420   -1.3370 O   0  0  0  0  0  0  0  0  0  0  0  0
  1  2  2  0
  2  3  1  0
  2  6  1  0
  3  4  1  0
  4  5  2  0
  5  6  1  0
  6  7  1  0
  7  8  1  1
  7 10  1  0
  8  9  1  0
 10 11  1  0
 11 12  1  0
 11 13  1  0
M  END
