
     RDKit          3D

 12 12  0  0  0  0  0  0  0  0999 V2000
    4.1570   -0.1880   -0.6550 C   0  0  0  0  0  0  0  0  0  0  0  0
    3.0790    0.2180    0.7140 S   0  0  2  0  0  0  0  0  0  0  0  0
    3.7160    1.3660    1.4340 O   0  0  0  0  0  0  0  0  0  0  0  0
    2.9550   -0.9290    1.6730 O   0  0  0  0  0  0  0  0  0  0  0  0
    1.4660    0.6930    0.0790 C   0  0  0  0  0  0  0  0  0  0  0  0
    0.9220   -0.4650   -0.6890 C   0  0  0  0  0  0  0  0  0  0  0  0
   -0.3610   -0.2620   -1.2860 N   0  0  0  0  0  0  0  0  0  0  0  0
   -1.5610   -0.1430   -0.5050 C   0  0  0  0  0  0  0  0  0  0  0  0
   -2.7780   -0.1640   -1.0100 C   0  0  0  0  0  0  0  0  0  0  0  0
   -3.8250   -0.0230    0.0240 C   0  0  0  0  0  0  0  0  0  0  0  0
   -3.0560   -0.3450    1.2950 C   0  0  0  0  0  0  0  0  0  0  0  0
   -1.6370    0.0200    0.9390 C   0  0  0  0  0  0  0  0  0  0  0  0
  2  1  1  6
  2  3  2  0
  2  4  2  0
  2  5  1  0
  5  6  1  0
  6  7  1  0
  7  8  1  0
  8  9  2  0
  8 12  1  0
  9 10  1  0
 10 11  1  0
 11 12  1  0
M  END
