
     RDKit          3D

 13 13  0  0  0  0  0  0  0  0999 V2000
    4.2270   -0.5410    0.2010 C   0  0  0  0  0  0  0  0  0  0  0  0
    2.7360   -0.7720   -0.0530 C   0  0  0  0  0  0  0  0  0  0  0  0
    2.0660    0.7990   -0.5820 S   0  0  1  0  0  0  0  0  0  0  0  0
    2.2730    1.7880    0.5280 O   0  0  0  0  0  0  0  0  0  0  0  0
    2.8030    1.2910   -1.7760 O   0  0  0  0  0  0  0  0  0  0  0  0
    0.3790    0.6750   -0.9040 N   0  0  0  0  0  0  0  0  0  0  0  0
   -0.3100    0.2920    0.3160 C   0  0  0  0  0  0  0  0  0  0  0  0
   -1.7790    0.1740    0.0800 C   0  0  0  0  0  0  0  0  0  0  0  0
   -2.4570    0.3650   -1.0250 C   0  0  0  0  0  0  0  0  0  0  0  0
   -3.8800    0.1280   -0.7580 C   0  0  0  0  0  0  0  0  0  0  0  0
   -3.9340   -0.2300    0.6700 C   0  0  0  0  0  0  0  0  0  0  0  0
   -2.7040   -0.1980    1.1410 C   0  0  0  0  0  0  0  0  0  0  0  0
   -2.4220   -0.4850    2.4460 F   0  0  0  0  0  0  0  0  0  0  0  0
  1  2  1  0
  3  2  1  1
  3  4  2  0
  3  5  2  0
  3  6  1  0
  6  7  1  0
  7  8  1  0
  8  9  2  0
  8 12  1  0
  9 10  1  0
 10 11  1  0
 11 12  2  0
 12 13  1  0
M  END
