
     RDKit          3D

 13 13  0  0  0  0  0  0  0  0999 V2000
    5.2640   -0.6870   -0.1900 O   0  0  0  0  0  0  0  0  0  0  0  0
    4.1390   -0.4220    0.2670 C   0  0  0  0  0  0  0  0  0  0  0  0
    3.2580   -1.1720    1.0800 N   0  0  0  0  0  0  0  0  0  0  0  0
    1.9210   -0.7750    1.0730 C   0  0  0  0  0  0  0  0  0  0  0  0
    1.0050   -1.3630    1.7650 O   0  0  0  0  0  0  0  0  0  0  0  0
    1.5980    0.3560    0.2340 C   0  0  0  0  0  0  0  0  0  0  0  0
    0.4870    0.8140   -0.2910 C   0  0  0  0  0  0  0  0  0  0  0  0
   -0.7610    0.1440   -0.0650 C   0  0  0  0  0  0  0  0  0  0  0  0
   -1.8680    0.6420   -0.6160 C   0  0  0  0  0  0  0  0  0  0  0  0
   -3.1200   -0.0490   -0.3770 C   0  0  0  0  0  0  0  0  0  0  0  0
   -4.2460    0.4150   -0.9070 C   0  0  0  0  0  0  0  0  0  0  0  0
   -4.2050    1.5170   -1.6570 F   0  0  0  0  0  0  0  0  0  0  0  0
    3.2340    1.1280   -0.0030 S   0  0  0  0  0  0  0  0  0  0  0  0
  1  2  2  0
  2  3  1  0
  2 13  1  0
  3  4  1  0
  4  5  2  0
  4  6  1  0
  6  7  2  3
  6 13  1  0
  7  8  1  0
  8  9  2  3
  9 10  1  0
 10 11  2  3
 11 12  1  0
M  END
