
     RDKit          3D

 26 29  0  0  0  0  0  0  0  0999 V2000
   -4.3890   -4.9800   -0.2220 C   0  0  0  0  0  0  0  0  0  0  0  0
   -3.3970   -4.2690    0.5290 N   0  0  0  0  0  0  0  0  0  0  0  0
   -3.1860   -2.8670    0.2770 C   0  0  0  0  0  0  0  0  0  0  0  0
   -2.3090   -2.0470    0.8770 N   0  0  0  0  0  0  0  0  0  0  0  0
   -2.3900   -0.7970    0.3850 C   0  0  0  0  0  0  0  0  0  0  0  0
   -1.6970    0.3910    0.6820 C   0  0  0  0  0  0  0  0  0  0  0  0
   -0.6860    0.3200    1.7090 C   0  0  0  0  0  0  0  0  0  0  0  0
    0.5780   -0.3500    1.2020 C   0  0  0  0  0  0  0  0  0  0  0  0
    1.1840    0.3220    0.0980 N   0  0  0  0  0  0  0  0  0  0  0  0
    2.2280   -0.5210   -0.4330 C   0  0  0  0  0  0  0  0  0  0  0  0
    3.5890    0.1100   -0.3900 C   0  0  1  0  0  0  0  0  0  0  0  0
    4.0050    0.4560    1.0360 C   0  0  0  0  0  0  0  0  0  0  0  0
    5.5080    0.6500    0.8520 C   0  0  0  0  0  0  0  0  0  0  0  0
    5.8980   -0.5340   -0.0100 C   0  0  0  0  0  0  0  0  0  0  0  0
    4.6190   -0.9440   -0.7370 C   0  0  0  0  0  0  0  0  0  0  0  0
   -2.0550    1.5160   -0.0430 C   0  0  0  0  0  0  0  0  0  0  0  0
   -1.4250    2.6480    0.2080 N   0  0  0  0  0  0  0  0  0  0  0  0
   -1.6820    3.8250   -0.4340 C   0  0  0  0  0  0  0  0  0  0  0  0
   -0.9770    5.0220   -0.1280 N   0  0  0  0  0  0  0  0  0  0  0  0
   -2.6410    3.8130   -1.3820 N   0  0  0  0  0  0  0  0  0  0  0  0
   -3.3070    2.6790   -1.6690 C   0  0  0  0  0  0  0  0  0  0  0  0
   -4.1890    2.6910   -2.5480 O   0  0  0  0  0  0  0  0  0  0  0  0
   -3.0350    1.5070   -1.0130 C   0  0  0  0  0  0  0  0  0  0  0  0
   -3.6810    0.3200   -1.2640 C   0  0  0  0  0  0  0  0  0  0  0  0
   -3.3730   -0.8370   -0.5780 C   0  0  0  0  0  0  0  0  0  0  0  0
   -3.8370   -2.1080   -0.6190 N   0  0  0  0  0  0  0  0  0  0  0  0
  1  2  1  0
  2  3  1  0
  3  4  2  0
  3 26  1  0
  4  5  1  0
  5  6  2  0
  5 25  1  0
  6  7  1  0
  6 16  1  0
  7  8  1  0
  8  9  1  0
  9 10  1  0
 11 10  1  1
 11 12  1  0
 11 15  1  0
 12 13  1  0
 13 14  1  0
 14 15  1  0
 16 17  1  0
 16 23  2  0
 17 18  1  0
 18 19  1  0
 18 20  2  0
 20 21  1  0
 21 22  2  0
 21 23  1  0
 23 24  1  0
 24 25  2  0
 25 26  1  0
M  CHG  2   9   1  20   1
M  END
