
     RDKit          3D

 25 27  0  0  0  0  0  0  0  0999 V2000
    0.3660    0.0190   -1.8240 C   0  0  0  0  0  0  0  0  0  0  0  0
    0.8490    1.0140   -0.7760 C   0  0  0  0  0  0  0  0  0  0  0  0
    0.8890    0.3830    0.5770 C   0  0  0  0  0  0  0  0  0  0  0  0
   -0.1990    0.1280    1.4250 C   0  0  0  0  0  0  0  0  0  0  0  0
   -1.5470    0.4520    1.1110 N   0  0  0  0  0  0  0  0  0  0  0  0
   -2.2610   -0.3900    0.4330 C   0  0  0  0  0  0  0  0  0  0  0  0
   -1.8550   -1.6510   -0.0580 N   0  0  0  0  0  0  0  0  0  0  0  0
   -2.9420   -2.2300   -0.7480 C   0  0  0  0  0  0  0  0  0  0  0  0
   -3.9740   -1.4200   -0.7160 C   0  0  0  0  0  0  0  0  0  0  0  0
   -3.6560   -0.2090    0.0150 C   0  0  0  0  0  0  0  0  0  0  0  0
   -4.3880    0.8540    0.2860 C   0  0  0  0  0  0  0  0  0  0  0  0
   -3.7310    2.1740    1.1960 Cl  0  0  0  0  0  0  0  0  0  0  0  0
   -5.7850    0.9140   -0.2060 C   0  0  0  0  0  0  0  0  0  0  0  0
   -5.9730    2.0100   -1.0520 O   0  0  0  0  0  0  0  0  0  0  0  0
    0.3450   -0.4480    2.5060 N   0  0  0  0  0  0  0  0  0  0  0  0
    1.6860   -0.5450    2.3400 C   0  0  0  0  0  0  0  0  0  0  0  0
    2.4550   -1.0530    3.2120 O   0  0  0  0  0  0  0  0  0  0  0  0
    2.0290   -0.0320    1.1480 N   0  0  0  0  0  0  0  0  0  0  0  0
    3.3310    0.0540    0.5930 C   0  0  0  0  0  0  0  0  0  0  0  0
    4.2450    1.0020    1.0480 C   0  0  0  0  0  0  0  0  0  0  0  0
    5.4970    1.0830    0.5060 C   0  0  0  0  0  0  0  0  0  0  0  0
    5.8530    0.2060   -0.5070 C   0  0  0  0  0  0  0  0  0  0  0  0
    7.4490    0.3280   -1.1810 Cl  0  0  0  0  0  0  0  0  0  0  0  0
    4.9400   -0.7350   -0.9560 C   0  0  0  0  0  0  0  0  0  0  0  0
    3.6840   -0.8290   -0.4250 C   0  0  0  0  0  0  0  0  0  0  0  0
  1  2  1  0
  2  3  1  0
  3  4  2  0
  3 18  1  0
  4  5  1  0
  4 15  1  0
  5  6  2  3
  6  7  1  0
  6 10  1  0
  7  8  1  0
  8  9  2  0
  9 10  1  0
 10 11  2  3
 11 12  1  0
 11 13  1  0
 13 14  1  0
 15 16  1  0
 16 17  2  0
 16 18  1  0
 18 19  1  0
 19 20  2  0
 19 25  1  0
 20 21  1  0
 21 22  2  0
 22 23  1  0
 22 24  1  0
 24 25  2  0
M  END
