
     RDKit          3D

 13 13  0  0  0  0  0  0  0  0999 V2000
    3.3250    0.3370    0.8320 C   0  0  0  0  0  0  0  0  0  0  0  0
    2.8150   -0.0210   -0.5480 C   0  0  0  0  0  0  0  0  0  0  0  0
    1.4170   -0.4730   -0.4660 N   0  0  0  0  0  0  0  0  0  0  0  0
    0.4170    0.3720    0.0350 C   0  0  0  0  0  0  0  0  0  0  0  0
    0.7920    1.5490    0.4130 O   0  0  0  0  0  0  0  0  0  0  0  0
   -0.9770   -0.0250    0.1370 C   0  0  0  0  0  0  0  0  0  0  0  0
   -1.3360   -1.2160   -0.2490 C   0  0  0  0  0  0  0  0  0  0  0  0
   -2.6920   -1.8140   -0.2300 C   0  0  0  0  0  0  0  0  0  0  0  0
   -3.9520   -0.7250    0.4100 S   0  0  0  0  0  0  0  0  0  0  0  0
   -3.1770    0.8120    0.8520 C   0  0  0  0  0  0  0  0  0  0  0  0
   -3.9470    1.8110    1.3700 F   0  0  0  0  0  0  0  0  0  0  0  0
   -1.8860    0.9700    0.6780 C   0  0  0  0  0  0  0  0  0  0  0  0
   -1.4030    2.2420    1.0730 O   0  0  0  0  0  0  0  0  0  0  0  0
  1  2  1  0
  2  3  1  0
  3  4  1  0
  4  5  2  0
  4  6  1  0
  6  7  2  0
  6 12  1  0
  7  8  1  0
  8  9  1  0
  9 10  1  0
 10 11  1  0
 10 12  2  0
 12 13  1  0
M  END
