
     RDKit          3D

 10 10  0  0  0  0  0  0  0  0999 V2000
    2.3370   -1.6730   -0.1830 O   0  0  0  0  0  0  0  0  0  0  0  0
    1.8860   -0.4860    0.0470 C   0  0  0  0  0  0  0  0  0  0  0  0
    2.8240    0.4850    0.3720 O   0  0  0  0  0  0  0  0  0  0  0  0
    0.4700   -0.2520   -0.0450 C   0  0  0  0  0  0  0  0  0  0  0  0
   -0.3220   -1.3580   -0.3860 C   0  0  0  0  0  0  0  0  0  0  0  0
   -1.6830   -1.1920   -0.4880 C   0  0  0  0  0  0  0  0  0  0  0  0
   -2.2470    0.0450   -0.2580 C   0  0  0  0  0  0  0  0  0  0  0  0
   -1.4790    1.1290    0.0750 C   0  0  0  0  0  0  0  0  0  0  0  0
   -0.0760    0.9830    0.1870 C   0  0  0  0  0  0  0  0  0  0  0  0
    0.6160    2.1000    0.5200 O   0  0  0  0  0  0  0  0  0  0  0  0
  1  2  2  0
  2  3  1  0
  2  4  1  0
  4  5  2  0
  4  9  1  0
  5  6  1  0
  6  7  2  0
  7  8  1  0
  8  9  2  0
  9 10  1  0
M  END
