
     RDKit          3D

 10 10  0  0  0  0  0  0  0  0999 V2000
   -3.0620    2.0080   -0.4460 O   0  0  0  0  0  0  0  0  0  0  0  0
   -2.3880    0.9310   -0.3380 C   0  0  0  0  0  0  0  0  0  0  0  0
   -2.8640   -0.3040    0.2410 C   0  0  0  0  0  0  0  0  0  0  0  0
   -1.8730   -1.1810    0.1680 C   0  0  0  0  0  0  0  0  0  0  0  0
   -0.7050   -0.5580   -0.4620 C   0  0  0  0  0  0  0  0  0  0  0  0
    0.4830   -1.2290   -0.6740 O   0  0  0  0  0  0  0  0  0  0  0  0
    1.7250   -0.5270   -0.8180 C   0  0  0  0  0  0  0  0  0  0  0  0
    1.9270    0.2420    0.4670 C   0  0  0  0  0  0  0  0  0  0  0  0
    3.1110    0.9730    0.4530 O   0  0  0  0  0  0  0  0  0  0  0  0
   -1.0190    0.6960   -0.7590 C   0  0  0  0  0  0  0  0  0  0  0  0
  1  2  2  0
  2  3  1  0
  2 10  1  0
  3  4  2  0
  4  5  1  0
  5  6  1  0
  5 10  2  0
  6  7  1  0
  7  8  1  0
  8  9  1  0
M  END
