
     RDKit          3D

 10 10  0  0  0  0  0  0  0  0999 V2000
   -3.1400    0.0580    0.1330 C   0  0  0  0  0  0  0  0  0  0  0  0
   -1.9780    0.7980    0.3410 O   0  0  0  0  0  0  0  0  0  0  0  0
   -0.6920    0.3620    0.1620 C   0  0  0  0  0  0  0  0  0  0  0  0
   -0.4200   -0.9240   -0.2640 C   0  0  0  0  0  0  0  0  0  0  0  0
    0.8650   -1.3550   -0.4410 C   0  0  0  0  0  0  0  0  0  0  0  0
    1.8910   -0.4920   -0.1890 C   0  0  0  0  0  0  0  0  0  0  0  0
    3.2000   -0.8680   -0.3480 O   0  0  0  0  0  0  0  0  0  0  0  0
    1.6430    0.8070    0.2410 C   0  0  0  0  0  0  0  0  0  0  0  0
    2.7000    1.6620    0.4890 O   0  0  0  0  0  0  0  0  0  0  0  0
    0.3450    1.2380    0.4180 C   0  0  0  0  0  0  0  0  0  0  0  0
  1  2  1  0
  2  3  1  0
  3  4  2  0
  3 10  1  0
  4  5  1  0
  5  6  2  0
  6  7  1  0
  6  8  1  0
  8  9  1  0
  8 10  2  0
M  END
