
     RDKit          3D

  9  9  0  0  0  0  0  0  0  0999 V2000
    4.0160    0.0500    0.4280 O   0  0  0  0  0  0  0  0  0  0  0  0
    2.8120    0.1790   -0.2890 C   0  0  0  0  0  0  0  0  0  0  0  0
    1.7820   -0.0810    0.5740 O   0  0  0  0  0  0  0  0  0  0  0  0
    0.5320   -0.0020    0.0470 C   0  0  1  0  0  0  0  0  0  0  0  0
   -0.2440   -1.2780    0.2320 C   0  0  0  0  0  0  0  0  0  0  0  0
   -1.6240   -1.2120   -0.3430 C   0  0  0  0  0  0  0  0  0  0  0  0
   -2.3510    0.0670   -0.0950 C   0  0  0  0  0  0  0  0  0  0  0  0
   -1.5020    1.2760    0.0250 C   0  0  0  0  0  0  0  0  0  0  0  0
   -0.2340    1.0830    0.7920 C   0  0  0  0  0  0  0  0  0  0  0  0
  1  2  1  0
  2  3  1  0
  4  3  1  1
  4  5  1  0
  4  9  1  0
  5  6  1  0
  6  7  1  0
  7  8  1  0
  8  9  1  0
M  END
