
     RDKit          3D

  9  9  0  0  0  0  0  0  0  0999 V2000
   -3.0300   -0.3370   -0.7270 O   0  0  0  0  0  0  0  0  0  0  0  0
   -2.1560    0.6460   -0.2370 C   0  0  0  0  0  0  0  0  0  0  0  0
   -0.9760    0.0070    0.4430 C   0  0  1  0  0  0  0  0  0  0  0  0
   -0.3250   -1.0080   -0.4500 C   0  0  0  0  0  0  0  0  0  0  0  0
    0.8770   -1.6150    0.2190 C   0  0  0  0  0  0  0  0  0  0  0  0
    1.8350   -0.5360    0.6570 C   0  0  0  0  0  0  0  0  0  0  0  0
    1.8470    0.5900   -0.3660 C   0  0  0  0  0  0  0  0  0  0  0  0
    0.7130    1.5200   -0.0290 C   0  0  0  0  0  0  0  0  0  0  0  0
   -0.1270    0.9720    0.9190 O   0  0  0  0  0  0  0  0  0  0  0  0
  1  2  1  0
  3  2  1  6
  3  4  1  0
  3  9  1  0
  4  5  1  0
  5  6  1  0
  6  7  1  0
  7  8  1  0
  8  9  1  0
M  END
