
     RDKit          3D

 10 10  0  0  0  0  0  0  0  0999 V2000
    2.8980    0.7280    0.3480 C   0  0  0  0  0  0  0  0  0  0  0  0
    2.1150   -0.4150    0.1470 O   0  0  0  0  0  0  0  0  0  0  0  0
    0.7390   -0.3390    0.0870 C   0  0  0  0  0  0  0  0  0  0  0  0
    0.0350   -1.4980   -0.1120 C   0  0  0  0  0  0  0  0  0  0  0  0
   -1.3550   -1.4540   -0.1770 C   0  0  0  0  0  0  0  0  0  0  0  0
   -2.0510   -2.6300   -0.3780 O   0  0  0  0  0  0  0  0  0  0  0  0
   -2.0160   -0.2420   -0.0400 C   0  0  0  0  0  0  0  0  0  0  0  0
   -1.3010    0.9160    0.1600 C   0  0  0  0  0  0  0  0  0  0  0  0
   -1.9650    2.1030    0.2930 O   0  0  0  0  0  0  0  0  0  0  0  0
    0.0940    0.8640    0.2240 C   0  0  0  0  0  0  0  0  0  0  0  0
  1  2  1  0
  2  3  1  0
  3  4  2  0
  3 10  1  0
  4  5  1  0
  5  6  1  0
  5  7  2  0
  7  8  1  0
  8  9  1  0
  8 10  2  0
M  END
