
     RDKit          3D

  9  8  0  0  0  0  0  0  0  0999 V2000
   -1.6280    0.9840   -0.3530 C   0  0  0  0  0  0  0  0  0  0  0  0
   -0.9290   -0.2880    0.0710 C   0  0  1  0  0  0  0  0  0  0  0  0
   -1.1740   -0.4490    1.5600 C   0  0  0  0  0  0  0  0  0  0  0  0
   -1.5170   -1.3550   -0.5650 O   0  0  0  0  0  0  0  0  0  0  0  0
    0.5460   -0.1840   -0.2370 C   0  0  2  0  0  0  0  0  0  0  0  0
    0.6770    0.0220   -1.7390 C   0  0  0  0  0  0  0  0  0  0  0  0
    1.2720   -1.4760    0.0820 C   0  0  0  0  0  0  0  0  0  0  0  0
    1.2220    0.9120    0.5150 C   0  0  0  0  0  0  0  0  0  0  0  0
    0.7170    2.1720    0.2650 O   0  0  0  0  0  0  0  0  0  0  0  0
  2  1  1  6
  2  3  1  0
  2  4  1  0
  2  5  1  0
  5  6  1  6
  5  7  1  0
  5  8  1  0
  8  9  1  0
M  END
