
     RDKit          3D

 10 10  0  0  0  0  0  0  0  0999 V2000
    2.5880    0.9190   -0.2250 O   0  0  0  0  0  0  0  0  0  0  0  0
    2.4820   -0.4530   -0.0770 C   0  0  0  0  0  0  0  0  0  0  0  0
    1.1730   -0.9610   -0.6260 C   0  0  0  0  0  0  0  0  0  0  0  0
   -0.0140   -0.3400    0.0820 C   0  0  1  0  0  0  0  0  0  0  0  0
    0.1310   -0.7070    1.4440 O   0  0  0  0  0  0  0  0  0  0  0  0
   -0.0390    1.1300   -0.0630 C   0  0  0  0  0  0  0  0  0  0  0  0
   -1.3940    1.7650   -0.0620 C   0  0  0  0  0  0  0  0  0  0  0  0
   -2.4110    0.9870   -0.5250 O   0  0  0  0  0  0  0  0  0  0  0  0
   -2.4910   -0.2210    0.1210 C   0  0  0  0  0  0  0  0  0  0  0  0
   -1.2870   -1.0240   -0.3660 C   0  0  0  0  0  0  0  0  0  0  0  0
  1  2  1  0
  2  3  1  0
  3  4  1  0
  4  5  1  1
  4  6  1  0
  4 10  1  0
  6  7  1  0
  7  8  1  0
  8  9  1  0
  9 10  1  0
M  END
