
     RDKit          3D

 38 42  0  0  0  0  0  0  0  0999 V2000
    9.1270    0.8580    0.2180 C   0  0  0  0  0  0  0  0  0  0  0  0
    8.5590    2.0440   -0.4950 C   0  0  0  0  0  0  0  0  0  0  0  0
    7.0880    1.9340   -0.5670 C   0  0  0  0  0  0  0  0  0  0  0  0
    6.3270    1.0410    0.1500 N   0  0  0  0  0  0  0  0  0  0  0  0
    4.9990    0.9940    0.0300 C   0  0  0  0  0  0  0  0  0  0  0  0
    4.3230    1.8490   -0.8270 C   0  0  0  0  0  0  0  0  0  0  0  0
    5.0960    2.7150   -1.5250 C   0  0  0  0  0  0  0  0  0  0  0  0
    4.4860    3.4900   -2.3240 O   0  0  0  0  0  0  0  0  0  0  0  0
    6.4130    2.7420   -1.3870 O   0  0  0  0  0  0  0  0  0  0  0  0
    2.8520    1.6600   -0.8440 C   0  0  0  0  0  0  0  0  0  0  0  0
    2.7430    0.1290   -1.1390 C   0  0  0  0  0  0  0  0  0  0  0  0
    3.1720   -0.5870    0.0290 N   0  0  2  0  0  0  0  0  0  0  0  0
    2.1550   -1.3250    0.6480 C   0  0  0  0  0  0  0  0  0  0  0  0
    0.8410   -1.2960   -0.0380 C   0  0  0  0  0  0  0  0  0  0  0  0
   -0.0980   -0.4040   -0.1190 N   0  0  0  0  0  0  0  0  0  0  0  0
   -1.2390   -0.9960   -0.5350 C   0  0  0  0  0  0  0  0  0  0  0  0
   -2.5210   -0.1970   -0.5790 C   0  0  2  0  0  0  0  0  0  0  0  0
   -2.9840   -0.2210    0.9410 C   0  0  0  0  0  0  0  0  0  0  0  0
   -3.8890   -1.3930    1.1210 C   0  0  0  0  0  0  0  0  0  0  0  0
   -5.2280   -1.0260    0.5380 C   0  0  0  0  0  0  0  0  0  0  0  0
   -4.9050   -0.2610   -0.6830 N   0  0  0  0  0  0  0  0  0  0  0  0
   -5.6900    0.8280   -1.0090 C   0  0  0  0  0  0  0  0  0  0  0  0
   -5.6940    1.3300   -2.1610 O   0  0  0  0  0  0  0  0  0  0  0  0
   -6.5440    1.4620    0.0230 C   0  0  0  0  0  0  0  0  0  0  0  0
   -6.1310    1.4580    1.3160 O   0  0  0  0  0  0  0  0  0  0  0  0
   -6.9730    2.0350    2.1010 C   0  0  0  0  0  0  0  0  0  0  0  0
   -8.0250    2.4710    1.3640 C   0  0  0  0  0  0  0  0  0  0  0  0
   -7.7360    2.0880    0.0460 C   0  0  0  0  0  0  0  0  0  0  0  0
   -8.6470    2.3310   -1.1130 C   0  0  0  0  0  0  0  0  0  0  0  0
   -3.6710   -0.6960   -1.3690 C   0  0  0  0  0  0  0  0  0  0  0  0
   -0.9990   -2.2810   -0.7130 N   0  0  0  0  0  0  0  0  0  0  0  0
    0.2700   -2.5220   -0.4290 C   0  0  0  0  0  0  0  0  0  0  0  0
    1.0980   -3.7070   -0.7210 C   0  0  0  0  0  0  0  0  0  0  0  0
    1.1590   -4.8070   -0.0820 C   0  0  0  0  0  0  0  0  0  0  0  0
    0.3730   -5.0070    1.1140 C   0  0  0  0  0  0  0  0  0  0  0  0
    0.3890   -6.1300    1.6940 O   0  0  0  0  0  0  0  0  0  0  0  0
   -0.5710   -3.6460    1.7480 Cl  0  0  0  0  0  0  0  0  0  0  0  0
    4.1400    0.0430    0.8380 C   0  0  0  0  0  0  0  0  0  0  0  0
  1  2  1  0
  2  3  1  0
  3  4  2  0
  3  9  1  0
  4  5  1  0
  5  6  2  0
  5 38  1  0
  6  7  1  0
  6 10  1  0
  7  8  2  0
  7  9  1  0
 10 11  1  0
 11 12  1  0
 12 13  1  1
 12 38  1  0
 13 14  1  0
 14 15  1  0
 14 32  2  0
 15 16  1  0
 17 16  1  1
 16 31  2  0
 17 18  1  0
 17 30  1  0
 18 19  1  0
 19 20  1  0
 20 21  1  0
 21 22  1  0
 21 30  1  0
 22 23  2  0
 22 24  1  0
 24 25  1  0
 24 28  2  0
 25 26  1  0
 26 27  2  0
 27 28  1  0
 28 29  1  0
 31 32  1  0
 32 33  1  0
 33 34  2  3
 34 35  1  0
 35 36  2  0
 35 37  1  0
M  CHG  2   4   1  12   1
M  END
