
     RDKit          3D

 38 42  0  0  0  0  0  0  0  0999 V2000
    7.8450    3.3780   -1.0110 C   0  0  0  0  0  0  0  0  0  0  0  0
    7.6120    2.7200   -2.1920 O   0  0  0  0  0  0  0  0  0  0  0  0
    6.9140    1.5380   -2.0820 C   0  0  0  0  0  0  0  0  0  0  0  0
    7.6120    0.5210   -1.2600 C   0  0  0  0  0  0  0  0  0  0  0  0
    8.9880    0.5630   -1.1330 C   0  0  0  0  0  0  0  0  0  0  0  0
    9.6950   -0.3420   -0.3820 C   0  0  0  0  0  0  0  0  0  0  0  0
    9.0120   -1.3350    0.2730 C   0  0  0  0  0  0  0  0  0  0  0  0
    9.8240   -2.5430    1.2570 Cl  0  0  0  0  0  0  0  0  0  0  0  0
    7.6610   -1.3700    0.1440 C   0  0  0  0  0  0  0  0  0  0  0  0
    6.9660   -0.4610   -0.6090 N   0  0  0  0  0  0  0  0  0  0  0  0
    5.5510   -0.5570   -0.7120 C   0  0  0  0  0  0  0  0  0  0  0  0
    4.6720    0.0170    0.1640 C   0  0  0  0  0  0  0  0  0  0  0  0
    3.2850   -0.1120    0.0320 C   0  0  0  0  0  0  0  0  0  0  0  0
    2.8090   -0.8400   -1.0160 C   0  0  0  0  0  0  0  0  0  0  0  0
    1.4120   -1.0570   -1.2520 C   0  0  0  0  0  0  0  0  0  0  0  0
    1.0590   -1.7690   -2.2600 O   0  0  0  0  0  0  0  0  0  0  0  0
    0.4130   -0.5290   -0.4320 N   0  0  0  0  0  0  0  0  0  0  0  0
   -0.9900   -0.6670   -0.5480 C   0  0  0  0  0  0  0  0  0  0  0  0
   -1.6160   -1.1870   -1.6440 C   0  0  0  0  0  0  0  0  0  0  0  0
   -2.9780   -1.3320   -1.6970 C   0  0  0  0  0  0  0  0  0  0  0  0
   -3.8170   -0.9500   -0.6190 C   0  0  0  0  0  0  0  0  0  0  0  0
   -5.0960   -1.0910   -0.6730 O   0  0  0  0  0  0  0  0  0  0  0  0
   -6.3680   -1.2270   -0.7200 C   0  0  1  0  0  0  0  0  0  0  0  0
   -6.9140   -0.6930   -2.0760 C   0  0  0  0  0  0  0  0  0  0  0  0
   -6.8100   -1.9460   -2.9180 C   0  0  0  0  0  0  0  0  0  0  0  0
   -7.4550   -2.9070   -2.0420 N   0  0  0  0  0  0  0  0  0  0  0  0
   -6.8090   -2.7030   -0.7870 C   0  0  0  0  0  0  0  0  0  0  0  0
   -3.1710   -0.4220    0.4890 C   0  0  0  0  0  0  0  0  0  0  0  0
   -3.8920    0.0030    1.6740 C   0  0  0  0  0  0  0  0  0  0  0  0
   -5.1230   -0.0610    1.8000 O   0  0  0  0  0  0  0  0  0  0  0  0
   -3.1830    0.5140    2.7510 O   0  0  0  0  0  0  0  0  0  0  0  0
   -3.7450    0.9570    3.9530 C   0  0  0  0  0  0  0  0  0  0  0  0
   -4.6880    2.0990    3.6650 C   0  0  2  0  0  0  0  0  0  0  0  0
   -4.0840    3.2970    3.0200 C   0  0  0  0  0  0  0  0  0  0  0  0
   -4.5040    3.3720    4.4340 C   0  0  0  0  0  0  0  0  0  0  0  0
   -1.7830   -0.2850    0.5170 C   0  0  0  0  0  0  0  0  0  0  0  0
    3.7040   -1.3960   -1.8700 N   0  0  0  0  0  0  0  0  0  0  0  0
    5.0100   -1.2630   -1.7260 N   0  0  0  0  0  0  0  0  0  0  0  0
  1  2  1  0
  2  3  1  0
  3  4  1  0
  4  5  2  0
  4 10  1  0
  5  6  1  0
  6  7  2  0
  7  8  1  0
  7  9  1  0
  9 10  2  0
 10 11  1  0
 11 12  2  0
 11 38  1  0
 12 13  1  0
 13 14  2  0
 14 15  1  0
 14 37  1  0
 15 16  2  0
 15 17  1  0
 17 18  1  0
 18 19  2  0
 18 36  1  0
 19 20  1  0
 20 21  2  0
 21 22  1  0
 21 28  1  0
 23 22  1  6
 23 24  1  0
 23 27  1  0
 24 25  1  0
 25 26  1  0
 26 27  1  0
 28 29  1  0
 28 36  2  0
 29 30  2  0
 29 31  1  0
 31 32  1  0
 33 32  1  1
 33 34  1  0
 33 35  1  0
 34 35  1  0
 37 38  2  0
M  CHG  2  10   1  26   1
M  END
