
     RDKit          3D

 37 42  0  0  0  0  0  0  0  0999 V2000
   10.0280   -0.4880    0.1240 C   0  0  0  0  0  0  0  0  0  0  0  0
    8.7650    0.1550    0.4330 N   0  0  0  0  0  0  0  0  0  0  0  0
    7.8520   -0.8670    0.8830 C   0  0  0  0  0  0  0  0  0  0  0  0
    6.6990   -0.2610    1.6350 C   0  0  0  0  0  0  0  0  0  0  0  0
    5.9290    0.6960    0.7750 C   0  0  0  0  0  0  0  0  0  0  0  0
    6.2440    2.0300    0.7150 C   0  0  0  0  0  0  0  0  0  0  0  0
    5.5100    2.9000   -0.0970 C   0  0  0  0  0  0  0  0  0  0  0  0
    4.4660    2.4500   -0.8470 C   0  0  0  0  0  0  0  0  0  0  0  0
    4.1320    1.1030   -0.7980 C   0  0  0  0  0  0  0  0  0  0  0  0
    3.0970    0.5640   -1.5190 O   0  0  0  0  0  0  0  0  0  0  0  0
    1.8060    0.4890   -1.0220 C   0  0  0  0  0  0  0  0  0  0  0  0
    1.5750    0.9840    0.2580 C   0  0  0  0  0  0  0  0  0  0  0  0
    0.2860    0.9210    0.7810 C   0  0  0  0  0  0  0  0  0  0  0  0
   -0.7370    0.3800    0.0450 C   0  0  0  0  0  0  0  0  0  0  0  0
   -0.5230   -0.1250   -1.2500 C   0  0  0  0  0  0  0  0  0  0  0  0
    0.7620   -0.0500   -1.7420 C   0  0  0  0  0  0  0  0  0  0  0  0
    1.0330   -0.5300   -3.0070 O   0  0  0  0  0  0  0  0  0  0  0  0
    1.4220   -1.8610   -3.2690 C   0  0  0  0  0  0  0  0  0  0  0  0
    0.3840   -2.6800   -2.8130 O   0  0  0  0  0  0  0  0  0  0  0  0
   -1.5800   -0.6720   -1.9860 O   0  0  0  0  0  0  0  0  0  0  0  0
   -2.8740   -0.7320   -1.4480 C   0  0  0  0  0  0  0  0  0  0  0  0
   -4.0530   -1.1510   -1.8520 N   0  0  0  0  0  0  0  0  0  0  0  0
   -5.0160   -0.9050   -0.8290 N   0  0  0  0  0  0  0  0  0  0  0  0
   -6.4060   -1.2190   -1.2450 C   0  0  0  0  0  0  0  0  0  0  0  0
   -7.2660    0.0050   -0.9660 C   0  0  0  0  0  0  0  0  0  0  0  0
   -7.8750    0.0460    0.3060 N   0  0  1  0  0  0  0  0  0  0  0  0
   -8.1930   -1.3340    0.7270 C   0  0  0  0  0  0  0  0  0  0  0  0
   -7.2250    0.6760    1.3860 C   0  0  0  0  0  0  0  0  0  0  0  0
   -6.0320    1.5380    1.0880 C   0  0  0  0  0  0  0  0  0  0  0  0
   -4.8310    0.7920    0.9760 N   0  0  0  0  0  0  0  0  0  0  0  0
   -3.8650    1.4770    1.7970 C   0  0  0  0  0  0  0  0  0  0  0  0
   -4.1490    2.5200    2.3860 O   0  0  0  0  0  0  0  0  0  0  0  0
   -2.4490    0.9130    1.9530 C   0  0  0  0  0  0  0  0  0  0  0  0
   -2.0640    0.3180    0.6210 C   0  0  0  0  0  0  0  0  0  0  0  0
   -2.9970   -0.2130   -0.1240 C   0  0  0  0  0  0  0  0  0  0  0  0
   -4.3870   -0.3800    0.3090 C   0  0  2  0  0  0  0  0  0  0  0  0
    4.8670    0.2660    0.0060 C   0  0  0  0  0  0  0  0  0  0  0  0
  1  2  1  0
  2  3  1  0
  3  4  1  0
  4  5  1  0
  5  6  2  0
  5 37  1  0
  6  7  1  0
  7  8  2  0
  8  9  1  0
  9 10  1  0
  9 37  2  0
 10 11  1  0
 11 12  2  0
 11 16  1  0
 12 13  1  0
 13 14  2  0
 14 15  1  0
 14 34  1  0
 15 16  2  0
 15 20  1  0
 16 17  1  0
 17 18  1  0
 18 19  1  0
 20 21  1  0
 21 22  2  0
 21 35  1  0
 22 23  1  0
 23 24  1  0
 36 23  1  6
 24 25  1  0
 25 26  1  0
 26 27  1  1
 26 28  1  0
 28 29  1  0
 29 30  1  0
 30 31  1  0
 30 36  1  0
 31 32  2  0
 31 33  1  0
 33 34  1  0
 34 35  2  0
 35 36  1  0
M  CHG  2   2   1  26   1
M  END
