
     RDKit          3D

 38 42  0  0  0  0  0  0  0  0999 V2000
   -9.8120   -0.3410   -0.4580 C   0  0  0  0  0  0  0  0  0  0  0  0
   -9.0310    0.8460   -0.1640 N   0  0  2  0  0  0  0  0  0  0  0  0
   -8.3380    1.2570   -1.3820 C   0  0  0  0  0  0  0  0  0  0  0  0
   -7.2690    2.2700   -1.0230 C   0  0  0  0  0  0  0  0  0  0  0  0
   -6.2080    1.6650   -0.1500 C   0  0  0  0  0  0  0  0  0  0  0  0
   -6.7050    0.3350    0.4010 C   0  0  1  0  0  0  0  0  0  0  0  0
   -5.8550   -0.1870    1.4860 C   0  0  0  0  0  0  0  0  0  0  0  0
   -6.3820   -0.3590    2.6210 O   0  0  0  0  0  0  0  0  0  0  0  0
   -4.4900   -0.5060    1.3360 N   0  0  0  0  0  0  0  0  0  0  0  0
   -3.6130   -1.0220    2.3650 C   0  0  0  0  0  0  0  0  0  0  0  0
   -2.2580   -0.9450    1.7020 C   0  0  0  0  0  0  0  0  0  0  0  0
   -2.5910   -1.2770    0.3190 N   0  0  2  0  0  0  0  0  0  0  0  0
   -1.4900   -1.0110   -0.5820 C   0  0  0  0  0  0  0  0  0  0  0  0
   -0.5110   -2.1590   -0.5320 C   0  0  0  0  0  0  0  0  0  0  0  0
    0.5910   -1.9990   -1.3690 O   0  0  0  0  0  0  0  0  0  0  0  0
    1.4810   -0.9630   -1.2690 C   0  0  0  0  0  0  0  0  0  0  0  0
    1.2900   -0.1070   -0.3680 O   0  0  0  0  0  0  0  0  0  0  0  0
    2.6540   -0.7830   -2.1520 C   0  0  0  0  0  0  0  0  0  0  0  0
    3.8370   -1.4490   -1.6010 N   0  0  0  0  0  0  0  0  0  0  0  0
    4.2490   -2.6860   -1.8030 N   0  0  0  0  0  0  0  0  0  0  0  0
    5.3850   -2.9210   -1.1170 C   0  0  0  0  0  0  0  0  0  0  0  0
    5.7190   -1.7560   -0.4330 C   0  0  0  0  0  0  0  0  0  0  0  0
    6.7640   -1.4200    0.4140 C   0  0  0  0  0  0  0  0  0  0  0  0
    6.8420   -0.1570    0.9630 C   0  0  0  0  0  0  0  0  0  0  0  0
    7.8900    0.2050    1.8220 O   0  0  0  0  0  0  0  0  0  0  0  0
    9.0560    0.7620    1.2920 C   0  0  0  0  0  0  0  0  0  0  0  0
   10.1390    0.0030    0.9020 C   0  0  0  0  0  0  0  0  0  0  0  0
   11.2550    0.6560    0.3860 C   0  0  0  0  0  0  0  0  0  0  0  0
   11.2670    2.0290    0.2710 C   0  0  0  0  0  0  0  0  0  0  0  0
   12.3570    2.7340   -0.2380 O   0  0  0  0  0  0  0  0  0  0  0  0
   10.1650    2.7850    0.6700 C   0  0  0  0  0  0  0  0  0  0  0  0
   10.1730    4.5400    0.5260 Cl  0  0  0  0  0  0  0  0  0  0  0  0
    9.0540    2.1520    1.1830 C   0  0  0  0  0  0  0  0  0  0  0  0
    5.8450    0.7390    0.6300 C   0  0  0  0  0  0  0  0  0  0  0  0
    4.8030    0.4110   -0.2120 C   0  0  0  0  0  0  0  0  0  0  0  0
    4.7260   -0.8550   -0.7600 C   0  0  0  0  0  0  0  0  0  0  0  0
   -3.7060   -0.3730    0.0980 C   0  0  0  0  0  0  0  0  0  0  0  0
   -8.1110    0.5750    0.9060 C   0  0  0  0  0  0  0  0  0  0  0  0
  2  1  1  6
  2  3  1  0
  2 38  1  0
  3  4  1  0
  4  5  1  0
  5  6  1  0
  6  7  1  1
  6 38  1  0
  7  8  2  0
  7  9  1  0
  9 10  1  0
  9 37  1  0
 10 11  1  0
 11 12  1  0
 12 13  1  6
 12 37  1  0
 13 14  1  0
 14 15  1  0
 15 16  1  0
 16 17  2  0
 16 18  1  0
 18 19  1  0
 19 20  1  0
 19 36  1  0
 20 21  2  0
 21 22  1  0
 22 23  2  0
 22 36  1  0
 23 24  1  0
 24 25  1  0
 24 34  2  0
 25 26  1  0
 26 27  2  0
 26 33  1  0
 27 28  1  0
 28 29  2  0
 29 30  1  0
 29 31  1  0
 31 32  1  0
 31 33  2  0
 34 35  1  0
 35 36  2  0
M  CHG  2   2   1  12   1
M  END
