
     RDKit          3D

 38 42  0  0  0  0  0  0  0  0999 V2000
   10.6510    2.6300   -0.5780 C   0  0  0  0  0  0  0  0  0  0  0  0
    9.2690    2.1320   -0.6890 N   0  0  0  0  0  0  0  0  0  0  0  0
    9.0430    1.0230    0.1810 C   0  0  0  0  0  0  0  0  0  0  0  0
    7.8760    0.2010   -0.1120 C   0  0  0  0  0  0  0  0  0  0  0  0
    6.9630    0.5710   -1.0550 C   0  0  0  0  0  0  0  0  0  0  0  0
    5.8410   -0.2110   -1.3520 C   0  0  0  0  0  0  0  0  0  0  0  0
    5.6350   -1.4010   -0.6780 C   0  0  0  0  0  0  0  0  0  0  0  0
    4.5430   -2.2170   -0.9300 O   0  0  0  0  0  0  0  0  0  0  0  0
    3.3270   -2.1420   -0.2890 C   0  0  0  0  0  0  0  0  0  0  0  0
    3.1160   -1.1950    0.6850 C   0  0  0  0  0  0  0  0  0  0  0  0
    1.8870   -1.1020    1.3480 C   0  0  0  0  0  0  0  0  0  0  0  0
    0.8800   -1.9840    1.0070 C   0  0  0  0  0  0  0  0  0  0  0  0
   -0.3170   -1.8980    1.6530 O   0  0  0  0  0  0  0  0  0  0  0  0
   -1.5160   -1.5290    1.1310 C   0  0  0  0  0  0  0  0  0  0  0  0
   -2.5840   -1.6010    1.9850 N   0  0  0  0  0  0  0  0  0  0  0  0
   -3.8040   -1.2710    1.6150 N   0  0  0  0  0  0  0  0  0  0  0  0
   -4.0260   -0.8510    0.3670 C   0  0  0  0  0  0  0  0  0  0  0  0
   -5.3810   -0.5230    0.0040 N   0  0  0  0  0  0  0  0  0  0  0  0
   -5.7280    0.6920   -0.0630 C   0  0  0  0  0  0  0  0  0  0  0  0
   -4.6230    1.6210    0.2580 C   0  0  0  0  0  0  0  0  0  0  0  0
   -3.7620    1.1910    1.0540 O   0  0  0  0  0  0  0  0  0  0  0  0
   -4.4610    2.9220   -0.2480 O   0  0  0  0  0  0  0  0  0  0  0  0
   -5.4650    3.7230   -0.8680 C   0  0  0  0  0  0  0  0  0  0  0  0
   -6.7200    3.5920   -0.0700 C   0  0  0  0  0  0  0  0  0  0  0  0
   -7.6540    2.5210   -0.5470 C   0  0  0  0  0  0  0  0  0  0  0  0
   -7.0870    1.1580   -0.4200 C   0  0  0  0  0  0  0  0  0  0  0  0
   -7.9820    0.2330   -0.6800 C   0  0  0  0  0  0  0  0  0  0  0  0
   -7.6860   -1.2160   -0.6300 C   0  0  0  0  0  0  0  0  0  0  0  0
   -6.3080   -1.5900   -0.3020 C   0  0  2  0  0  0  0  0  0  0  0  0
   -6.2860   -2.6370    0.8020 C   0  0  0  0  0  0  0  0  0  0  0  0
   -3.0090   -0.7680   -0.4910 N   0  0  0  0  0  0  0  0  0  0  0  0
   -1.7390   -1.0990   -0.1430 C   0  0  0  0  0  0  0  0  0  0  0  0
   -0.7890   -1.0150   -0.9510 O   0  0  0  0  0  0  0  0  0  0  0  0
    1.1030   -2.9260    0.0350 C   0  0  0  0  0  0  0  0  0  0  0  0
   -0.1320   -4.0860   -0.3610 Cl  0  0  0  0  0  0  0  0  0  0  0  0
    2.3310   -3.0160   -0.6270 C   0  0  0  0  0  0  0  0  0  0  0  0
    6.5640   -1.7760    0.2800 C   0  0  0  0  0  0  0  0  0  0  0  0
    7.6670   -0.9870    0.5580 C   0  0  0  0  0  0  0  0  0  0  0  0
  1  2  1  0
  2  3  1  0
  3  4  1  0
  4  5  2  0
  4 38  1  0
  5  6  1  0
  6  7  2  0
  7  8  1  0
  7 37  1  0
  8  9  1  0
  9 10  2  0
  9 36  1  0
 10 11  1  0
 11 12  2  0
 12 13  1  0
 12 34  1  0
 13 14  1  0
 14 15  2  0
 14 32  1  0
 15 16  1  0
 16 17  2  0
 17 18  1  0
 17 31  1  0
 18 19  2  0
 18 29  1  0
 19 20  1  0
 19 26  1  0
 20 21  2  0
 20 22  1  0
 22 23  1  0
 23 24  1  0
 24 25  1  0
 25 26  1  0
 26 27  2  0
 27 28  1  0
 28 29  1  0
 29 30  1  1
 31 32  1  0
 32 33  2  0
 34 35  1  0
 34 36  2  0
 37 38  2  0
M  CHG  2   2   1  18   1
M  END
