
     RDKit          3D

 38 43  0  0  0  0  0  0  0  0999 V2000
    9.8560    1.8660   -0.1060 C   0  0  0  0  0  0  0  0  0  0  0  0
    8.6710    1.8180    0.8590 C   0  0  0  0  0  0  0  0  0  0  0  0
    7.6920    2.6030    0.4620 O   0  0  0  0  0  0  0  0  0  0  0  0
    6.8530    2.5100   -0.5240 C   0  0  0  0  0  0  0  0  0  0  0  0
    5.8630    1.3920   -0.3050 C   0  0  0  0  0  0  0  0  0  0  0  0
    5.9140    0.1240   -0.2890 O   0  0  0  0  0  0  0  0  0  0  0  0
    4.6840   -0.4240   -0.0840 C   0  0  0  0  0  0  0  0  0  0  0  0
    4.5400   -1.7570   -0.0520 O   0  0  0  0  0  0  0  0  0  0  0  0
    4.5340   -2.8220    0.7500 C   0  0  0  0  0  0  0  0  0  0  0  0
    3.8180    0.6120    0.0480 C   0  0  0  0  0  0  0  0  0  0  0  0
    2.3690    0.6160    0.1800 C   0  0  0  0  0  0  0  0  0  0  0  0
    1.5590   -0.4180   -0.0510 N   0  0  0  0  0  0  0  0  0  0  0  0
    0.2830   -0.0010   -0.0260 C   0  0  0  0  0  0  0  0  0  0  0  0
   -0.9130   -0.6050   -0.2940 C   0  0  0  0  0  0  0  0  0  0  0  0
   -2.0530    0.1340   -0.3090 C   0  0  0  0  0  0  0  0  0  0  0  0
   -2.0420    1.4640   -0.0540 N   0  0  0  0  0  0  0  0  0  0  0  0
   -0.8800    2.0700    0.2170 C   0  0  0  0  0  0  0  0  0  0  0  0
    0.3120    1.3460    0.2350 C   0  0  0  0  0  0  0  0  0  0  0  0
    1.5810    1.7190    0.3640 N   0  0  0  0  0  0  0  0  0  0  0  0
   -3.1270   -0.7950   -0.6970 C   0  0  2  0  0  0  0  0  0  0  0  0
   -4.4140   -0.4290   -0.3480 N   0  0  0  0  0  0  0  0  0  0  0  0
   -4.6160    0.6130    0.6300 C   0  0  0  0  0  0  0  0  0  0  0  0
   -5.7110    0.0150    1.5410 C   0  0  2  0  0  0  0  0  0  0  0  0
   -6.6910   -0.4910    0.6370 O   0  0  0  0  0  0  0  0  0  0  0  0
   -7.2010    0.6150   -0.0110 C   0  0  0  0  0  0  0  0  0  0  0  0
   -7.7420    0.8160   -1.2700 C   0  0  0  0  0  0  0  0  0  0  0  0
   -8.1900    2.0440   -1.6720 C   0  0  0  0  0  0  0  0  0  0  0  0
   -8.0860    3.1010   -0.7760 C   0  0  0  0  0  0  0  0  0  0  0  0
   -7.5340    2.8810    0.4940 C   0  0  0  0  0  0  0  0  0  0  0  0
   -7.0820    1.6530    0.9030 C   0  0  0  0  0  0  0  0  0  0  0  0
   -6.4880    1.1150    2.0700 O   0  0  0  0  0  0  0  0  0  0  0  0
   -2.6300   -2.1120   -0.0830 C   0  0  0  0  0  0  0  0  0  0  0  0
   -1.1910   -2.0680   -0.5630 C   0  0  2  0  0  0  0  0  0  0  0  0
   -0.3260   -2.9320    0.1820 N   0  0  2  0  0  0  0  0  0  0  0  0
    0.7400   -3.3810   -0.7250 C   0  0  0  0  0  0  0  0  0  0  0  0
   -0.9710   -4.1310    0.6810 C   0  0  0  0  0  0  0  0  0  0  0  0
    4.5260    1.7800   -0.0870 C   0  0  0  0  0  0  0  0  0  0  0  0
    4.0340    3.4560    0.0450 Cl  0  0  0  0  0  0  0  0  0  0  0  0
  1  2  1  0
  2  3  1  0
  3  4  1  0
  4  5  1  0
  5  6  1  0
  5 37  2  0
  6  7  1  0
  7  8  1  0
  7 10  2  0
  8  9  1  0
 10 11  1  0
 10 37  1  0
 11 12  2  0
 11 19  1  0
 12 13  1  0
 13 14  2  0
 13 18  1  0
 14 15  1  0
 14 33  1  0
 15 16  2  0
 15 20  1  0
 16 17  1  0
 17 18  2  0
 18 19  1  0
 20 21  1  1
 20 32  1  0
 21 22  1  0
 23 22  1  6
 23 24  1  0
 23 31  1  0
 24 25  1  0
 25 26  2  0
 25 30  1  0
 26 27  1  0
 27 28  2  0
 28 29  1  0
 29 30  2  0
 30 31  1  0
 33 32  1  1
 33 34  1  0
 34 35  1  6
 34 36  1  0
 37 38  1  0
M  CHG  2  21   1  34   1
M  END
