
     RDKit          3D

 38 42  0  0  0  0  0  0  0  0999 V2000
    8.4110   -2.0890    1.7830 C   0  0  0  0  0  0  0  0  0  0  0  0
    7.2050   -1.4960    1.3710 O   0  0  0  0  0  0  0  0  0  0  0  0
    7.1660   -0.6360    0.2610 C   0  0  0  0  0  0  0  0  0  0  0  0
    8.3200   -0.3810   -0.4180 C   0  0  0  0  0  0  0  0  0  0  0  0
    8.3290    0.4550   -1.5100 C   0  0  0  0  0  0  0  0  0  0  0  0
    7.1610    1.0450   -1.9280 C   0  0  0  0  0  0  0  0  0  0  0  0
    6.0000    0.7640   -1.2140 C   0  0  0  0  0  0  0  0  0  0  0  0
    5.9650   -0.0590   -0.1310 C   0  0  0  0  0  0  0  0  0  0  0  0
    4.7880   -0.3350    0.5730 N   0  0  0  0  0  0  0  0  0  0  0  0
    3.4880    0.1580    0.3330 C   0  0  0  0  0  0  0  0  0  0  0  0
    3.2790    0.9370   -0.5960 O   0  0  0  0  0  0  0  0  0  0  0  0
    2.4040   -0.2800    1.2140 C   0  0  0  0  0  0  0  0  0  0  0  0
    1.1440    0.2160    0.9820 O   0  0  0  0  0  0  0  0  0  0  0  0
    0.3930    0.0990   -0.1630 C   0  0  0  0  0  0  0  0  0  0  0  0
    0.8530   -0.5050   -1.1380 O   0  0  0  0  0  0  0  0  0  0  0  0
   -0.9300    0.7130   -0.1700 C   0  0  0  0  0  0  0  0  0  0  0  0
   -0.9070    2.0780   -0.5390 C   0  0  0  0  0  0  0  0  0  0  0  0
    0.3660    2.7820   -0.8400 C   0  0  0  0  0  0  0  0  0  0  0  0
    1.1460    3.1180    0.7400 Cl  0  0  0  0  0  0  0  0  0  0  0  0
   -2.0590    2.7200   -0.6030 N   0  0  0  0  0  0  0  0  0  0  0  0
   -3.2010    2.0740   -0.3220 C   0  0  0  0  0  0  0  0  0  0  0  0
   -4.4560    2.7820   -0.3870 N   0  0  0  0  0  0  0  0  0  0  0  0
   -4.5870    4.1700   -0.7390 C   0  0  0  0  0  0  0  0  0  0  0  0
   -6.0540    4.4560   -0.8520 C   0  0  0  0  0  0  0  0  0  0  0  0
   -6.7290    3.1090   -0.8870 C   0  0  0  0  0  0  0  0  0  0  0  0
   -5.7720    2.2530   -0.1170 C   0  0  0  0  0  0  0  0  0  0  0  0
   -3.2320    0.7840    0.0270 N   0  0  0  0  0  0  0  0  0  0  0  0
   -2.1000    0.0540    0.1150 C   0  0  0  0  0  0  0  0  0  0  0  0
   -2.2210   -1.3500    0.3990 C   0  0  0  0  0  0  0  0  0  0  0  0
   -1.2110   -2.1830    0.7710 C   0  0  0  0  0  0  0  0  0  0  0  0
   -1.4470   -3.5560    0.9550 C   0  0  0  0  0  0  0  0  0  0  0  0
   -2.6760   -4.1340    0.7780 C   0  0  0  0  0  0  0  0  0  0  0  0
   -3.6950   -3.3070    0.4050 C   0  0  0  0  0  0  0  0  0  0  0  0
   -3.4730   -1.9590    0.2210 C   0  0  0  0  0  0  0  0  0  0  0  0
   -4.8740   -4.1560    0.2830 C   0  0  0  0  0  0  0  0  0  0  0  0
   -6.0260   -3.7450    0.0710 O   0  0  0  0  0  0  0  0  0  0  0  0
   -4.5000   -5.5800    0.4490 C   0  0  0  0  0  0  0  0  0  0  0  0
   -3.1480   -5.4810    0.9040 N   0  0  0  0  0  0  0  0  0  0  0  0
  1  2  1  0
  2  3  1  0
  3  4  2  0
  3  8  1  0
  4  5  1  0
  5  6  2  0
  6  7  1  0
  7  8  2  0
  8  9  1  0
  9 10  1  0
 10 11  2  0
 10 12  1  0
 12 13  1  0
 13 14  1  0
 14 15  2  0
 14 16  1  0
 16 17  2  0
 16 28  1  0
 17 18  1  0
 17 20  1  0
 18 19  1  0
 20 21  2  0
 21 22  1  0
 21 27  1  0
 22 23  1  0
 22 26  1  0
 23 24  1  0
 24 25  1  0
 25 26  1  0
 27 28  2  0
 28 29  1  0
 29 30  2  0
 29 34  1  0
 30 31  1  0
 31 32  2  0
 32 33  1  0
 32 38  1  0
 33 34  2  0
 33 35  1  0
 35 36  2  0
 35 37  1  0
 37 38  1  0
M  CHG  2  20   1  27   1
M  END
