
     RDKit          3D

 46 49  0  0  0  0  0  0  0  0999 V2000
   -7.8540   -4.7610    0.4900 C   0  0  0  0  0  0  0  0  0  0  0  0
   -6.4700   -5.3340    0.3700 C   0  0  0  0  0  0  0  0  0  0  0  0
   -5.6610   -4.4400   -0.5910 C   0  0  0  0  0  0  0  0  0  0  0  0
   -4.2860   -4.9600   -0.6800 C   0  0  2  0  0  0  0  0  0  0  0  0
   -3.5490   -5.0300    0.6620 C   0  0  0  0  0  0  0  0  0  0  0  0
   -3.4880   -4.2340   -1.6050 O   0  0  0  0  0  0  0  0  0  0  0  0
   -2.8590   -3.0420   -1.3470 C   0  0  0  0  0  0  0  0  0  0  0  0
   -1.9310   -2.5820   -2.2980 C   0  0  0  0  0  0  0  0  0  0  0  0
   -1.2770   -1.4110   -2.0870 C   0  0  0  0  0  0  0  0  0  0  0  0
   -1.4820   -0.6110   -0.9450 C   0  0  0  0  0  0  0  0  0  0  0  0
   -0.8290    0.4790   -0.7580 O   0  0  0  0  0  0  0  0  0  0  0  0
    0.0370    1.4310   -1.0410 C   0  0  0  0  0  0  0  0  0  0  0  0
    1.4670    1.0380   -1.1520 C   0  0  0  0  0  0  0  0  0  0  0  0
    2.1340    1.3790   -2.4010 C   0  0  0  0  0  0  0  0  0  0  0  0
    3.4740    1.1090   -2.4410 C   0  0  0  0  0  0  0  0  0  0  0  0
    4.2000    0.5680   -1.4320 C   0  0  0  0  0  0  0  0  0  0  0  0
    3.5810    0.2250   -0.1950 C   0  0  0  0  0  0  0  0  0  0  0  0
    4.1950   -0.2210    1.0250 C   0  0  0  0  0  0  0  0  0  0  0  0
    5.5690   -0.7040    0.9060 C   0  0  0  0  0  0  0  0  0  0  0  0
    5.7880   -2.0070    1.1980 C   0  0  0  0  0  0  0  0  0  0  0  0
    7.1460   -2.4870    1.0870 C   0  0  0  0  0  0  0  0  0  0  0  0
    7.3470   -3.7380    1.2670 O   0  0  0  0  0  0  0  0  0  0  0  0
    8.3040   -1.5820    0.7660 C   0  0  0  0  0  0  0  0  0  0  0  0
    7.7020   -0.5870   -0.2240 C   0  0  2  0  0  0  0  0  0  0  0  0
    8.6520    0.1530   -1.0520 C   0  0  0  0  0  0  0  0  0  0  0  0
    9.2800    1.3690   -0.4770 C   0  0  0  0  0  0  0  0  0  0  0  0
    8.2000    2.3770   -0.4630 N   0  0  0  0  0  0  0  0  0  0  0  0
    7.7150    2.3440    0.8630 C   0  0  0  0  0  0  0  0  0  0  0  0
    6.5200    1.4100    1.0270 C   0  0  2  0  0  0  0  0  0  0  0  0
    6.1090    1.6330    2.3900 C   0  0  0  0  0  0  0  0  0  0  0  0
    5.7760    1.8380    3.5190 N   0  0  0  0  0  0  0  0  0  0  0  0
    6.7010    0.1250    0.5340 N   0  0  0  0  0  0  0  0  0  0  0  0
    2.2130    0.5260   -0.2310 C   0  0  0  0  0  0  0  0  0  0  0  0
   -2.4260   -1.0640    0.0080 C   0  0  0  0  0  0  0  0  0  0  0  0
   -2.7710   -0.3210    1.2130 C   0  0  0  0  0  0  0  0  0  0  0  0
   -3.8370    0.6700    1.1990 C   0  0  0  0  0  0  0  0  0  0  0  0
   -3.8190    1.9020    0.3820 C   0  0  2  0  0  0  0  0  0  0  0  0
   -3.7750    1.7070   -1.1040 C   0  0  0  0  0  0  0  0  0  0  0  0
   -2.7040    2.8610    0.8250 C   0  0  0  0  0  0  0  0  0  0  0  0
   -5.0880    2.6350    0.6780 C   0  0  0  0  0  0  0  0  0  0  0  0
   -6.0770    1.9160    1.0810 O   0  0  0  0  0  0  0  0  0  0  0  0
   -5.3230    4.0010    0.5550 N   0  0  0  0  0  0  0  0  0  0  0  0
   -6.5350    4.7270    0.8260 C   0  0  0  0  0  0  0  0  0  0  0  0
   -6.3260    6.2150    0.5430 C   0  0  0  0  0  0  0  0  0  0  0  0
   -7.5020    6.8750    0.8210 O   0  0  0  0  0  0  0  0  0  0  0  0
   -3.0680   -2.2720   -0.2490 C   0  0  0  0  0  0  0  0  0  0  0  0
  1  2  1  0
  2  3  1  0
  3  4  1  0
  4  5  1  1
  4  6  1  0
  6  7  1  0
  7  8  2  0
  7 46  1  0
  8  9  1  0
  9 10  2  0
 10 11  1  0
 10 34  1  0
 11 12  1  0
 12 13  1  0
 13 14  2  0
 13 33  1  0
 14 15  1  0
 15 16  2  0
 16 17  1  0
 17 18  1  0
 17 33  2  0
 18 19  1  0
 19 20  2  0
 19 32  1  0
 20 21  1  0
 21 22  2  0
 21 23  1  0
 24 23  1  1
 24 25  1  0
 24 32  1  0
 25 26  1  0
 26 27  1  0
 27 28  1  0
 28 29  1  0
 29 30  1  1
 29 32  1  0
 30 31  3  0
 34 35  1  0
 34 46  2  0
 35 36  1  0
 36 37  1  0
 37 38  1  6
 37 39  1  0
 37 40  1  0
 40 41  2  0
 40 42  1  0
 42 43  1  0
 43 44  1  0
 44 45  1  0
M  END
