
     RDKit          3D

 46 49  0  0  0  0  0  0  0  0999 V2000
    9.1130   -0.2110    2.9440 C   0  0  0  0  0  0  0  0  0  0  0  0
   10.1980   -0.2180    1.8940 C   0  0  0  0  0  0  0  0  0  0  0  0
    9.8020   -1.0880    0.6990 C   0  0  0  0  0  0  0  0  0  0  0  0
    8.5570   -0.5520    0.0750 C   0  0  2  0  0  0  0  0  0  0  0  0
    7.4710   -0.5250    0.9840 O   0  0  0  0  0  0  0  0  0  0  0  0
    6.4300    0.1400    0.3270 C   0  0  2  0  0  0  0  0  0  0  0  0
    5.5610    0.8990    1.2640 C   0  0  0  0  0  0  0  0  0  0  0  0
    4.4540    1.5880    0.4810 C   0  0  0  0  0  0  0  0  0  0  0  0
    3.6540    2.3630    1.2770 O   0  0  0  0  0  0  0  0  0  0  0  0
    2.9550    1.7920    2.2750 C   0  0  0  0  0  0  0  0  0  0  0  0
    1.9090    0.7810    1.9090 C   0  0  0  0  0  0  0  0  0  0  0  0
    0.8620    1.3670    1.0300 C   0  0  0  0  0  0  0  0  0  0  0  0
    1.0850    2.5050    0.4810 O   0  0  0  0  0  0  0  0  0  0  0  0
   -0.3920    0.7730    0.7450 N   0  0  0  0  0  0  0  0  0  0  0  0
   -1.3760    1.3840   -0.1040 C   0  0  0  0  0  0  0  0  0  0  0  0
   -2.6240    0.6200   -0.2020 C   0  0  2  0  0  0  0  0  0  0  0  0
   -2.4420   -0.6940   -0.7570 N   0  0  0  0  0  0  0  0  0  0  0  0
   -2.7220   -1.8840   -0.0360 C   0  0  0  0  0  0  0  0  0  0  0  0
   -3.1150   -1.7190    1.1720 O   0  0  0  0  0  0  0  0  0  0  0  0
   -2.6010   -3.1880   -0.5480 N   0  0  0  0  0  0  0  0  0  0  0  0
   -2.9280   -4.2950    0.3430 C   0  0  0  0  0  0  0  0  0  0  0  0
   -4.2980   -4.0980    0.7690 C   0  0  0  0  0  0  0  0  0  0  0  0
   -5.4830   -3.9340    1.1210 C   0  0  0  0  0  0  0  0  0  0  0  0
   -6.8400   -3.7470    1.5500 C   0  0  0  0  0  0  0  0  0  0  0  0
   -7.7310   -4.8370    1.2800 N   0  0  0  0  0  0  0  0  0  0  0  0
   -7.4090   -6.0060    2.0950 C   0  0  0  0  0  0  0  0  0  0  0  0
   -7.7050   -5.7310    3.5520 C   0  0  0  0  0  0  0  0  0  0  0  0
   -3.7400    1.3550   -0.8540 C   0  0  0  0  0  0  0  0  0  0  0  0
   -4.4910    2.2090   -0.0830 C   0  0  0  0  0  0  0  0  0  0  0  0
   -5.5380    2.9030   -0.6360 C   0  0  0  0  0  0  0  0  0  0  0  0
   -5.8060    2.7070   -2.0000 C   0  0  0  0  0  0  0  0  0  0  0  0
   -6.8980    3.4350   -2.6380 C   0  0  0  0  0  0  0  0  0  0  0  0
   -7.1250    4.7130   -2.3690 C   0  0  0  0  0  0  0  0  0  0  0  0
   -8.2370    5.5020   -3.0040 C   0  0  0  0  0  0  0  0  0  0  0  0
   -8.3100    6.7520   -2.1470 C   0  0  0  0  0  0  0  0  0  0  0  0
   -6.8920    6.8900   -1.6430 C   0  0  0  0  0  0  0  0  0  0  0  0
   -6.4660    5.5650   -1.5220 O   0  0  0  0  0  0  0  0  0  0  0  0
   -5.0400    1.8490   -2.7440 C   0  0  0  0  0  0  0  0  0  0  0  0
   -3.9790    1.1390   -2.2040 C   0  0  0  0  0  0  0  0  0  0  0  0
    5.7470   -0.8110   -0.5930 C   0  0  0  0  0  0  0  0  0  0  0  0
    6.8040   -1.3860   -1.4960 C   0  0  0  0  0  0  0  0  0  0  0  0
    6.4000   -2.0290   -2.6440 C   0  0  0  0  0  0  0  0  0  0  0  0
    7.3820   -2.5700   -3.5040 C   0  0  0  0  0  0  0  0  0  0  0  0
    8.7120   -2.4430   -3.1830 C   0  0  0  0  0  0  0  0  0  0  0  0
    9.0890   -1.7800   -2.0040 C   0  0  0  0  0  0  0  0  0  0  0  0
    8.1360   -1.2530   -1.1640 C   0  0  0  0  0  0  0  0  0  0  0  0
  1  2  1  0
  2  3  1  0
  4  3  1  1
  4  5  1  0
  4 46  1  0
  5  6  1  0
  6  7  1  1
  6 40  1  0
  7  8  1  0
  8  9  1  0
  9 10  1  0
 10 11  1  0
 11 12  1  0
 12 13  2  0
 12 14  1  0
 14 15  1  0
 16 15  1  6
 16 17  1  0
 16 28  1  0
 17 18  1  0
 18 19  2  0
 18 20  1  0
 20 21  1  0
 21 22  1  0
 22 23  3  0
 23 24  1  0
 24 25  1  0
 25 26  1  0
 26 27  1  0
 28 29  2  0
 28 39  1  0
 29 30  1  0
 30 31  2  0
 31 32  1  0
 31 38  1  0
 32 33  2  3
 33 34  1  0
 33 37  1  0
 34 35  1  0
 35 36  1  0
 36 37  1  0
 38 39  2  0
 40 41  1  0
 41 42  2  0
 41 46  1  0
 42 43  1  0
 43 44  2  0
 44 45  1  0
 45 46  2  0
M  END
