
     RDKit          3D

 46 49  0  0  0  0  0  0  0  0999 V2000
    0.8490   -4.2050   -0.7050 C   0  0  0  0  0  0  0  0  0  0  0  0
    1.3140   -3.1870    0.2890 C   0  0  0  0  0  0  0  0  0  0  0  0
    1.2070   -1.8150   -0.1670 C   0  0  0  0  0  0  0  0  0  0  0  0
    2.2370   -1.0520   -0.4440 C   0  0  0  0  0  0  0  0  0  0  0  0
    3.6520   -1.1770   -0.4400 C   0  0  0  0  0  0  0  0  0  0  0  0
    4.3460   -0.1010   -0.7460 O   0  0  0  0  0  0  0  0  0  0  0  0
    4.4650   -2.2800   -0.1640 N   0  0  0  0  0  0  0  0  0  0  0  0
    5.9250   -2.2100   -0.2080 C   0  0  0  0  0  0  0  0  0  0  0  0
    6.4720   -1.8590   -1.5460 C   0  0  0  0  0  0  0  0  0  0  0  0
    8.0060   -1.8440   -1.5120 C   0  0  0  0  0  0  0  0  0  0  0  0
    8.4040   -0.8430   -0.4810 C   0  0  0  0  0  0  0  0  0  0  0  0
    8.5930   -1.2750    0.8390 C   0  0  0  0  0  0  0  0  0  0  0  0
    8.9550   -0.3930    1.8500 C   0  0  0  0  0  0  0  0  0  0  0  0
    9.1300    0.9360    1.5410 C   0  0  0  0  0  0  0  0  0  0  0  0
    9.4720    1.9640    2.3350 N   0  0  0  0  0  0  0  0  0  0  0  0
    9.5130    3.0770    1.5650 C   0  0  0  0  0  0  0  0  0  0  0  0
    9.8610    4.4310    2.1050 C   0  0  0  0  0  0  0  0  0  0  0  0
    9.1970    2.7660    0.2650 C   0  0  0  0  0  0  0  0  0  0  0  0
    9.1340    3.7020   -0.8770 C   0  0  0  0  0  0  0  0  0  0  0  0
    8.9520    1.4100    0.2370 C   0  0  0  0  0  0  0  0  0  0  0  0
    8.5920    0.4880   -0.7290 C   0  0  0  0  0  0  0  0  0  0  0  0
   -0.1730   -1.1580   -0.1920 C   0  0  0  0  0  0  0  0  0  0  0  0
   -1.1250   -1.6890   -1.1750 C   0  0  2  0  0  0  0  0  0  0  0  0
   -0.5920   -1.4980   -2.5930 C   0  0  0  0  0  0  0  0  0  0  0  0
   -2.5320   -1.3410   -1.1020 C   0  0  0  0  0  0  0  0  0  0  0  0
   -3.3100   -2.2690   -1.6400 O   0  0  0  0  0  0  0  0  0  0  0  0
   -3.2590   -0.2550   -0.6040 N   0  0  0  0  0  0  0  0  0  0  0  0
   -2.8170    0.9090    0.0750 C   0  0  0  0  0  0  0  0  0  0  0  0
   -3.6150    1.2200    1.2970 C   0  0  0  0  0  0  0  0  0  0  0  0
   -5.0140    0.7190    1.3770 C   0  0  0  0  0  0  0  0  0  0  0  0
   -5.2990   -0.4980    0.5850 C   0  0  1  0  0  0  0  0  0  0  0  0
   -6.6830   -0.9130    0.4880 C   0  0  0  0  0  0  0  0  0  0  0  0
   -7.2200   -0.9460   -0.6640 O   0  0  0  0  0  0  0  0  0  0  0  0
   -7.5070   -1.2910    1.5740 N   0  0  0  0  0  0  0  0  0  0  0  0
   -8.8710   -1.6830    1.3260 C   0  0  1  0  0  0  0  0  0  0  0  0
   -9.0690   -3.1510    1.6930 C   0  0  0  0  0  0  0  0  0  0  0  0
   -9.8030   -0.8070    2.1600 C   0  0  0  0  0  0  0  0  0  0  0  0
   -9.5240   -0.9550    3.5150 O   0  0  0  0  0  0  0  0  0  0  0  0
   -4.7390   -0.3060   -0.8230 C   0  0  1  0  0  0  0  0  0  0  0  0
   -5.1610    0.9840   -1.3880 C   0  0  0  0  0  0  0  0  0  0  0  0
   -5.9710    1.0700   -2.5300 C   0  0  0  0  0  0  0  0  0  0  0  0
   -6.1820    2.4010   -2.7880 C   0  0  0  0  0  0  0  0  0  0  0  0
   -5.5040    3.0870   -1.8080 C   0  0  0  0  0  0  0  0  0  0  0  0
   -5.4520    4.5890   -1.6860 C   0  0  0  0  0  0  0  0  0  0  0  0
   -6.6130    4.9780   -0.8190 C   0  0  0  0  0  0  0  0  0  0  0  0
   -4.9430    2.2020   -1.0420 O   0  0  0  0  0  0  0  0  0  0  0  0
  1  2  1  0
  2  3  1  0
  3  4  2  3
  3 22  1  0
  4  5  1  0
  5  6  2  0
  5  7  1  0
  7  8  1  0
  8  9  1  0
  9 10  1  0
 10 11  1  0
 11 12  2  0
 11 21  1  0
 12 13  1  0
 13 14  2  0
 14 15  1  0
 14 20  1  0
 15 16  1  0
 16 17  1  0
 16 18  2  0
 18 19  1  0
 18 20  1  0
 20 21  2  0
 22 23  1  0
 23 24  1  6
 23 25  1  0
 25 26  2  0
 25 27  1  0
 27 28  1  0
 27 39  1  0
 28 29  1  0
 29 30  1  0
 30 31  1  0
 31 32  1  6
 31 39  1  0
 32 33  2  0
 32 34  1  0
 34 35  1  0
 35 36  1  1
 35 37  1  0
 37 38  1  0
 39 40  1  1
 40 41  2  0
 40 46  1  0
 41 42  1  0
 42 43  2  0
 43 44  1  0
 43 46  1  0
 44 45  1  0
M  END
