
     RDKit          3D

 46 52  0  0  0  0  0  0  0  0999 V2000
   -8.5870   -1.9450    2.0930 C   0  0  0  0  0  0  0  0  0  0  0  0
   -7.4180   -2.3670    1.2360 C   0  0  0  0  0  0  0  0  0  0  0  0
   -7.1420   -1.3410    0.1560 C   0  0  0  0  0  0  0  0  0  0  0  0
   -6.1010   -1.6410   -0.6680 O   0  0  0  0  0  0  0  0  0  0  0  0
   -4.8510   -1.7440   -0.0070 C   0  0  1  0  0  0  0  0  0  0  0  0
   -4.4330   -3.1520   -0.0460 C   0  0  0  0  0  0  0  0  0  0  0  0
   -3.0180   -3.2980    0.3730 C   0  0  0  0  0  0  0  0  0  0  0  0
   -2.6340   -4.4010    1.0990 C   0  0  0  0  0  0  0  0  0  0  0  0
   -1.3000   -4.6140    1.3760 C   0  0  0  0  0  0  0  0  0  0  0  0
   -0.4030   -3.6820    0.8980 C   0  0  0  0  0  0  0  0  0  0  0  0
   -0.7830   -2.5760    0.1760 C   0  0  0  0  0  0  0  0  0  0  0  0
   -2.1160   -2.3510   -0.1090 C   0  0  0  0  0  0  0  0  0  0  0  0
   -2.5770   -1.0610   -0.6230 C   0  0  0  0  0  0  0  0  0  0  0  0
   -1.7810   -0.0370   -1.1150 N   0  0  0  0  0  0  0  0  0  0  0  0
   -0.4420    0.1600   -1.4380 C   0  0  0  0  0  0  0  0  0  0  0  0
    0.3640   -0.7390   -1.4130 O   0  0  0  0  0  0  0  0  0  0  0  0
    0.0920    1.4470   -1.8260 N   0  0  0  0  0  0  0  0  0  0  0  0
    1.4960    1.6010   -2.1510 C   0  0  0  0  0  0  0  0  0  0  0  0
    2.2800    1.6250   -0.8640 C   0  0  0  0  0  0  0  0  0  0  0  0
    1.6650    1.4920    0.3560 C   0  0  0  0  0  0  0  0  0  0  0  0
    2.3990    1.5230    1.5070 C   0  0  0  0  0  0  0  0  0  0  0  0
    3.7880    1.6900    1.4630 C   0  0  0  0  0  0  0  0  0  0  0  0
    4.5300    1.7300    2.7300 C   0  0  0  0  0  0  0  0  0  0  0  0
    4.4480    1.8280    0.2480 C   0  0  0  0  0  0  0  0  0  0  0  0
    5.9070    1.9970    0.1440 C   0  0  0  0  0  0  0  0  0  0  0  0
    6.5810    0.6790    0.3080 C   0  0  0  0  0  0  0  0  0  0  0  0
    5.9420   -0.4700    0.7180 C   0  0  0  0  0  0  0  0  0  0  0  0
    6.6270   -1.6760    0.8660 C   0  0  0  0  0  0  0  0  0  0  0  0
    7.9760   -1.7600    0.6040 C   0  0  0  0  0  0  0  0  0  0  0  0
    8.6370   -0.6230    0.1920 C   0  0  0  0  0  0  0  0  0  0  0  0
    7.9530    0.5630    0.0490 C   0  0  0  0  0  0  0  0  0  0  0  0
   10.0690   -1.0230   -0.0160 C   0  0  1  0  0  0  0  0  0  0  0  0
   11.0310    0.0730    0.3150 C   0  0  0  0  0  0  0  0  0  0  0  0
   10.1850   -2.2330    0.8820 C   0  0  0  0  0  0  0  0  0  0  0  0
    8.8920   -2.8310    0.6710 O   0  0  0  0  0  0  0  0  0  0  0  0
    3.6460    1.7880   -0.8780 C   0  0  0  0  0  0  0  0  0  0  0  0
   -3.9040   -0.7970   -0.5700 C   0  0  0  0  0  0  0  0  0  0  0  0
   -4.3790    0.4380   -1.1880 C   0  0  0  0  0  0  0  0  0  0  0  0
   -4.1690    0.7940   -2.5010 C   0  0  0  0  0  0  0  0  0  0  0  0
   -4.6470    2.0000   -2.9670 C   0  0  0  0  0  0  0  0  0  0  0  0
   -5.3390    2.8820   -2.1620 C   0  0  0  0  0  0  0  0  0  0  0  0
   -5.5580    2.5400   -0.8420 C   0  0  0  0  0  0  0  0  0  0  0  0
   -5.0700    1.3260   -0.3940 C   0  0  0  0  0  0  0  0  0  0  0  0
   -6.3170    3.6270   -0.1640 C   0  0  0  0  0  0  0  0  0  0  0  0
   -6.9980    4.3500   -1.3220 C   0  0  0  0  0  0  0  0  0  0  0  0
   -5.9530    4.2300   -2.4120 C   0  0  0  0  0  0  0  0  0  0  0  0
  1  2  1  0
  2  3  1  0
  3  4  1  0
  5  4  1  6
  5  6  1  0
  5 37  1  0
  6  7  1  0
  7  8  2  0
  7 12  1  0
  8  9  1  0
  9 10  2  0
 10 11  1  0
 11 12  2  0
 12 13  1  0
 13 14  1  0
 13 37  2  0
 14 15  1  0
 15 16  2  0
 15 17  1  0
 17 18  1  0
 18 19  1  0
 19 20  2  0
 19 36  1  0
 20 21  1  0
 21 22  2  0
 22 23  1  0
 22 24  1  0
 24 25  1  0
 24 36  2  0
 25 26  1  0
 26 27  2  0
 26 31  1  0
 27 28  1  0
 28 29  2  0
 29 30  1  0
 29 35  1  0
 30 31  2  0
 30 32  1  0
 32 33  1  1
 32 34  1  0
 34 35  1  0
 37 38  1  0
 38 39  2  0
 38 43  1  0
 39 40  1  0
 40 41  2  0
 41 42  1  0
 41 46  1  0
 42 43  2  0
 42 44  1  0
 44 45  1  0
 45 46  1  0
M  END
