
     RDKit          3D

 46 49  0  0  0  0  0  0  0  0999 V2000
    5.8220   -1.8520   -1.1360 C   0  0  0  0  0  0  0  0  0  0  0  0
    5.1330   -0.8720   -1.1390 C   0  0  0  0  0  0  0  0  0  0  0  0
    3.6890   -0.6990   -1.1500 C   0  0  0  0  0  0  0  0  0  0  0  0
    2.7950   -1.8820   -1.1750 C   0  0  0  0  0  0  0  0  0  0  0  0
    1.3890   -1.3170   -1.1970 C   0  0  0  0  0  0  0  0  0  0  0  0
    1.3240   -0.0900   -1.5610 O   0  0  0  0  0  0  0  0  0  0  0  0
    0.2270   -2.0260   -0.8600 N   0  0  0  0  0  0  0  0  0  0  0  0
   -1.0060   -1.2330   -0.9390 C   0  0  0  0  0  0  0  0  0  0  0  0
   -1.2890   -0.4900    0.3090 C   0  0  0  0  0  0  0  0  0  0  0  0
   -0.5390   -0.6040    1.2780 O   0  0  0  0  0  0  0  0  0  0  0  0
   -2.4340    0.3480    0.3340 N   0  0  0  0  0  0  0  0  0  0  0  0
   -2.8330    1.1630    1.4450 C   0  0  1  0  0  0  0  0  0  0  0  0
   -2.5410    2.6000    1.0440 C   0  0  0  0  0  0  0  0  0  0  0  0
   -4.2140    0.9820    1.9560 C   0  0  2  0  0  0  0  0  0  0  0  0
   -4.3970   -0.4210    2.4570 C   0  0  0  0  0  0  0  0  0  0  0  0
   -3.4530   -0.7700    3.5880 C   0  0  0  0  0  0  0  0  0  0  0  0
   -3.7490   -2.1050    3.9540 O   0  0  0  0  0  0  0  0  0  0  0  0
   -5.2520    1.2740    0.9270 C   0  0  0  0  0  0  0  0  0  0  0  0
   -5.5810    0.3390   -0.0250 C   0  0  0  0  0  0  0  0  0  0  0  0
   -6.5360    0.6170   -1.0070 C   0  0  0  0  0  0  0  0  0  0  0  0
   -7.1600    1.8310   -1.0330 C   0  0  0  0  0  0  0  0  0  0  0  0
   -6.8550    2.8110   -0.0840 C   0  0  0  0  0  0  0  0  0  0  0  0
   -7.5100    4.0620   -0.1450 N   0  0  0  0  0  0  0  0  0  0  0  0
   -7.2080    5.1060    0.8010 C   0  0  0  0  0  0  0  0  0  0  0  0
   -5.8990    2.4860    0.8720 C   0  0  0  0  0  0  0  0  0  0  0  0
    0.2320   -3.3730   -0.5110 C   0  0  0  0  0  0  0  0  0  0  0  0
    0.4170   -3.8900    0.7360 C   0  0  0  0  0  0  0  0  0  0  0  0
    0.3670   -5.2520    1.0100 C   0  0  0  0  0  0  0  0  0  0  0  0
    0.1180   -6.1630   -0.0200 C   0  0  0  0  0  0  0  0  0  0  0  0
    0.0620   -7.6300    0.2570 C   0  0  0  0  0  0  0  0  0  0  0  0
   -0.0710   -5.6650   -1.2870 C   0  0  0  0  0  0  0  0  0  0  0  0
   -0.3170   -6.5640   -2.3150 C   0  0  0  0  0  0  0  0  0  0  0  0
   -0.5040   -6.0690   -3.5840 C   0  0  0  0  0  0  0  0  0  0  0  0
   -0.4480   -4.7110   -3.8300 C   0  0  0  0  0  0  0  0  0  0  0  0
   -0.2040   -3.8100   -2.8110 C   0  0  0  0  0  0  0  0  0  0  0  0
   -0.0170   -4.3120   -1.5360 C   0  0  0  0  0  0  0  0  0  0  0  0
    5.8740    0.4780   -1.1740 C   0  0  0  0  0  0  0  0  0  0  0  0
    7.1050    0.4720   -1.2210 O   0  0  0  0  0  0  0  0  0  0  0  0
    5.1470    1.6580   -1.1510 N   0  0  0  0  0  0  0  0  0  0  0  0
    5.8550    2.9550   -1.2030 C   0  0  1  0  0  0  0  0  0  0  0  0
    5.1520    3.9100   -2.0940 C   0  0  0  0  0  0  0  0  0  0  0  0
    6.0930    3.4570    0.2070 C   0  0  1  0  0  0  0  0  0  0  0  0
    6.9140    4.6930    0.2310 C   0  0  0  0  0  0  0  0  0  0  0  0
    6.2710    5.5620    1.2710 C   0  0  0  0  0  0  0  0  0  0  0  0
    5.1580    4.7100    1.7890 C   0  0  0  0  0  0  0  0  0  0  0  0
    4.9280    3.6780    0.8860 O   0  0  0  0  0  0  0  0  0  0  0  0
  1  2  2  0
  2  3  1  0
  2 37  1  0
  3  4  1  0
  4  5  1  0
  5  6  2  0
  5  7  1  0
  7  8  1  0
  7 26  1  0
  8  9  1  0
  9 10  2  0
  9 11  1  0
 11 12  1  0
 12 13  1  6
 12 14  1  0
 14 15  1  6
 14 18  1  0
 15 16  1  0
 16 17  1  0
 18 19  2  0
 18 25  1  0
 19 20  1  0
 20 21  2  0
 21 22  1  0
 22 23  1  0
 22 25  2  0
 23 24  1  0
 26 27  2  0
 26 36  1  0
 27 28  1  0
 28 29  2  0
 29 30  1  0
 29 31  1  0
 31 32  2  0
 31 36  1  0
 32 33  1  0
 33 34  2  0
 34 35  1  0
 35 36  2  0
 37 38  2  0
 37 39  1  0
 39 40  1  0
 40 41  1  6
 40 42  1  0
 42 43  1  6
 42 46  1  0
 43 44  1  0
 44 45  1  0
 45 46  1  0
M  END
