
     RDKit          3D

 46 52  0  0  0  0  0  0  0  0999 V2000
   -5.0690   -4.7760   -2.4180 C   0  0  0  0  0  0  0  0  0  0  0  0
   -4.1590   -3.8320   -2.5390 C   0  0  0  0  0  0  0  0  0  0  0  0
   -3.1700   -3.5550   -1.4500 C   0  0  0  0  0  0  0  0  0  0  0  0
   -3.4200   -2.0960   -1.0500 C   0  0  0  0  0  0  0  0  0  0  0  0
   -2.4720   -1.6890    0.0610 C   0  0  1  0  0  0  0  0  0  0  0  0
   -1.0920   -1.8190   -0.3720 N   0  0  0  0  0  0  0  0  0  0  0  0
   -0.0420   -1.3500    0.4610 C   0  0  0  0  0  0  0  0  0  0  0  0
    1.0360   -1.9910    0.3630 O   0  0  0  0  0  0  0  0  0  0  0  0
   -0.2910   -0.2140    1.3230 C   0  0  1  0  0  0  0  0  0  0  0  0
   -0.1790   -0.6050    2.7930 C   0  0  0  0  0  0  0  0  0  0  0  0
    1.1350   -1.2230    3.0600 C   0  0  0  0  0  0  0  0  0  0  0  0
    2.2260   -0.3810    2.4440 N   0  0  0  0  0  0  0  0  0  0  0  0
    3.4380   -1.0430    2.2780 C   0  0  0  0  0  0  0  0  0  0  0  0
    3.3520   -2.3010    2.6940 O   0  0  0  0  0  0  0  0  0  0  0  0
    4.7230   -0.7190    1.7810 C   0  0  0  0  0  0  0  0  0  0  0  0
    5.1010    0.5210    1.3520 C   0  0  0  0  0  0  0  0  0  0  0  0
    6.3810    0.8100    0.8470 C   0  0  0  0  0  0  0  0  0  0  0  0
    7.3080   -0.1920    0.7750 C   0  0  0  0  0  0  0  0  0  0  0  0
    6.9800   -1.4590    1.1940 C   0  0  0  0  0  0  0  0  0  0  0  0
    7.9900   -2.5400    1.1120 C   0  0  0  0  0  0  0  0  0  0  0  0
    5.7150   -1.7050    1.6830 C   0  0  0  0  0  0  0  0  0  0  0  0
    1.8020    0.9260    2.1510 C   0  0  0  0  0  0  0  0  0  0  0  0
    0.6290    0.9490    1.1330 C   0  0  1  0  0  0  0  0  0  0  0  0
    1.1860    1.0970   -0.2050 C   0  0  0  0  0  0  0  0  0  0  0  0
    2.4120    1.0820   -0.3880 O   0  0  0  0  0  0  0  0  0  0  0  0
    0.3410    1.2610   -1.3210 N   0  0  0  0  0  0  0  0  0  0  0  0
    0.7190    1.4160   -2.6750 C   0  0  0  0  0  0  0  0  0  0  0  0
   -0.2880    1.5590   -3.6310 C   0  0  0  0  0  0  0  0  0  0  0  0
   -0.0110    1.7150   -4.9710 C   0  0  0  0  0  0  0  0  0  0  0  0
    1.2880    1.7370   -5.4330 C   0  0  0  0  0  0  0  0  0  0  0  0
    2.2950    1.5990   -4.5190 C   0  0  0  0  0  0  0  0  0  0  0  0
    1.9910    1.4420   -3.1680 C   0  0  0  0  0  0  0  0  0  0  0  0
   -0.1890    2.1030    1.5430 C   0  0  0  0  0  0  0  0  0  0  0  0
    0.1580    3.3920    1.9620 C   0  0  0  0  0  0  0  0  0  0  0  0
   -0.8080    4.2920    2.3350 C   0  0  0  0  0  0  0  0  0  0  0  0
   -2.1320    3.9290    2.2990 C   0  0  0  0  0  0  0  0  0  0  0  0
   -2.5080    2.6470    1.8840 C   0  0  0  0  0  0  0  0  0  0  0  0
   -1.5180    1.7570    1.5110 C   0  0  0  0  0  0  0  0  0  0  0  0
   -1.6270    0.3550    1.0240 C   0  0  0  0  0  0  0  0  0  0  0  0
   -2.6390   -0.2530    0.4470 C   0  0  0  0  0  0  0  0  0  0  0  0
   -3.9010    0.4220    0.1020 C   0  0  0  0  0  0  0  0  0  0  0  0
   -5.1130   -0.0700    0.5280 C   0  0  0  0  0  0  0  0  0  0  0  0
   -6.3100    0.5380    0.1570 C   0  0  0  0  0  0  0  0  0  0  0  0
   -6.2770    1.6650   -0.6580 C   0  0  0  0  0  0  0  0  0  0  0  0
   -5.0710    2.1690   -1.0910 C   0  0  0  0  0  0  0  0  0  0  0  0
   -3.9010    1.5390   -0.7040 C   0  0  0  0  0  0  0  0  0  0  0  0
  1  2  2  0
  2  3  1  0
  3  4  1  0
  5  4  1  6
  5  6  1  0
  5 40  1  0
  6  7  1  0
  7  8  2  0
  7  9  1  0
  9 10  1  1
  9 23  1  0
  9 39  1  0
 10 11  1  0
 11 12  1  0
 12 13  1  0
 12 22  1  0
 13 14  2  0
 13 15  1  0
 15 16  2  0
 15 21  1  0
 16 17  1  0
 17 18  2  0
 18 19  1  0
 19 20  1  0
 19 21  2  0
 22 23  1  0
 23 24  1  6
 23 33  1  0
 24 25  2  0
 24 26  1  0
 26 27  1  0
 27 28  2  0
 27 32  1  0
 28 29  1  0
 29 30  2  0
 30 31  1  0
 31 32  2  0
 33 34  2  0
 33 38  1  0
 34 35  1  0
 35 36  2  0
 36 37  1  0
 37 38  2  0
 38 39  1  0
 39 40  2  0
 40 41  1  0
 41 42  2  0
 41 46  1  0
 42 43  1  0
 43 44  2  0
 44 45  1  0
 45 46  2  0
M  END
