
     RDKit          3D

 46 48  0  0  0  0  0  0  0  0999 V2000
   -6.1390   -1.0810   -0.3030 C   0  0  0  0  0  0  0  0  0  0  0  0
   -5.5850    0.1120   -1.0020 C   0  0  0  0  0  0  0  0  0  0  0  0
   -4.4960    0.7620   -0.0680 C   0  0  0  0  0  0  0  0  0  0  0  0
   -3.4850   -0.2640    0.1540 C   0  0  0  0  0  0  0  0  0  0  0  0
   -2.2140   -0.3210   -0.0880 C   0  0  0  0  0  0  0  0  0  0  0  0
   -1.4360   -1.4830    0.2260 C   0  0  0  0  0  0  0  0  0  0  0  0
   -0.1760   -1.4310   -0.0520 O   0  0  0  0  0  0  0  0  0  0  0  0
   -1.7950   -2.7170    0.7980 N   0  0  0  0  0  0  0  0  0  0  0  0
   -3.0790   -3.1800    1.2340 C   0  0  0  0  0  0  0  0  0  0  0  0
   -2.8910   -4.6370    1.7590 C   0  0  0  0  0  0  0  0  0  0  0  0
   -1.4910   -4.5330    2.2230 C   0  0  1  0  0  0  0  0  0  0  0  0
   -0.7930   -5.8290    2.5300 C   0  0  0  0  0  0  0  0  0  0  0  0
    0.0040   -6.4060    1.4200 C   0  0  0  0  0  0  0  0  0  0  0  0
    1.4210   -5.9430    1.3000 C   0  0  0  0  0  0  0  0  0  0  0  0
    1.5570   -4.4820    1.2760 N   0  0  0  0  0  0  0  0  0  0  0  0
    0.4860   -3.5110    1.4280 C   0  0  0  0  0  0  0  0  0  0  0  0
    0.8700   -2.4570    1.9130 O   0  0  0  0  0  0  0  0  0  0  0  0
   -0.8770   -3.8340    1.0260 C   0  0  2  0  0  0  0  0  0  0  0  0
   -1.4930    0.8390   -0.6190 C   0  0  0  0  0  0  0  0  0  0  0  0
   -0.2030    0.8390   -0.9510 C   0  0  0  0  0  0  0  0  0  0  0  0
    0.3730    2.1300   -1.4820 C   0  0  0  0  0  0  0  0  0  0  0  0
    1.6330    2.2060   -1.8190 C   0  0  0  0  0  0  0  0  0  0  0  0
    2.4450    1.0460   -1.6690 N   0  0  0  0  0  0  0  0  0  0  0  0
    3.1030    0.4000   -2.7530 C   0  0  0  0  0  0  0  0  0  0  0  0
    2.9230    0.9290   -3.9040 O   0  0  0  0  0  0  0  0  0  0  0  0
    3.9330   -0.7770   -2.6250 C   0  0  0  0  0  0  0  0  0  0  0  0
    4.1480   -1.3600   -1.4670 C   0  0  0  0  0  0  0  0  0  0  0  0
    5.0100   -2.5860   -1.3100 C   0  0  1  0  0  0  0  0  0  0  0  0
    5.4840   -2.9970   -2.6670 C   0  0  0  0  0  0  0  0  0  0  0  0
    6.1260   -2.1930   -0.3650 C   0  0  2  0  0  0  0  0  0  0  0  0
    6.8890   -1.1580   -0.8780 O   0  0  0  0  0  0  0  0  0  0  0  0
    6.9790   -3.3470    0.0670 C   0  0  0  0  0  0  0  0  0  0  0  0
    8.0680   -2.9170    1.0080 C   0  0  0  0  0  0  0  0  0  0  0  0
    8.9860   -1.9350    0.3580 C   0  0  0  0  0  0  0  0  0  0  0  0
   -2.0710    2.1380   -0.8280 N   0  0  0  0  0  0  0  0  0  0  0  0
   -2.2160    3.0890    0.2520 C   0  0  0  0  0  0  0  0  0  0  0  0
   -1.8180    2.7560    1.3730 O   0  0  0  0  0  0  0  0  0  0  0  0
   -2.8200    4.4210   -0.0020 C   0  0  0  0  0  0  0  0  0  0  0  0
   -2.5140    5.3980    1.0910 C   0  0  0  0  0  0  0  0  0  0  0  0
   -3.1810    6.6870    0.6960 C   0  0  0  0  0  0  0  0  0  0  0  0
   -4.4800    6.9720    1.0310 C   0  0  0  0  0  0  0  0  0  0  0  0
   -5.0730    8.1700    0.6430 C   0  0  0  0  0  0  0  0  0  0  0  0
   -4.3380    9.0580   -0.0780 C   0  0  0  0  0  0  0  0  0  0  0  0
   -4.9530   10.3570   -0.5130 C   0  0  0  0  0  0  0  0  0  0  0  0
   -3.0210    8.7820   -0.4240 C   0  0  0  0  0  0  0  0  0  0  0  0
   -2.4540    7.5950   -0.0320 C   0  0  0  0  0  0  0  0  0  0  0  0
  1  2  1  0
  2  3  1  0
  3  4  1  0
  4  5  2  3
  5  6  1  0
  5 19  1  0
  6  7  2  0
  6  8  1  0
  8  9  1  0
 18  8  1  1
  9 10  1  0
 11 10  1  6
 11 12  1  0
 11 18  1  0
 12 13  1  0
 13 14  1  0
 14 15  1  0
 15 16  1  0
 16 17  2  0
 16 18  1  0
 19 20  2  3
 19 35  1  0
 20 21  1  0
 21 22  2  3
 22 23  1  0
 23 24  1  0
 24 25  2  0
 24 26  1  0
 26 27  2  3
 27 28  1  0
 28 29  1  6
 28 30  1  0
 30 31  1  6
 30 32  1  0
 32 33  1  0
 33 34  1  0
 35 36  1  0
 36 37  2  0
 36 38  1  0
 38 39  1  0
 39 40  1  0
 40 41  2  0
 40 46  1  0
 41 42  1  0
 42 43  2  0
 43 44  1  0
 43 45  1  0
 45 46  2  0
M  END
