
     RDKit          3D

 46 52  0  0  0  0  0  0  0  0999 V2000
   10.2400   -0.7390   -1.4280 C   0  0  0  0  0  0  0  0  0  0  0  0
    9.4200   -0.0090   -2.3190 O   0  0  0  0  0  0  0  0  0  0  0  0
    8.0480    0.0100   -2.0720 C   0  0  0  0  0  0  0  0  0  0  0  0
    7.4740   -0.6450   -1.0070 C   0  0  0  0  0  0  0  0  0  0  0  0
    6.1170   -0.6180   -0.7740 C   0  0  0  0  0  0  0  0  0  0  0  0
    5.5240   -1.3300    0.3740 C   0  0  0  0  0  0  0  0  0  0  0  0
    5.1400   -0.5040    1.5200 C   0  0  0  0  0  0  0  0  0  0  0  0
    3.7850   -0.2490    1.7610 C   0  0  0  0  0  0  0  0  0  0  0  0
    3.3170    0.4880    2.8140 C   0  0  0  0  0  0  0  0  0  0  0  0
    1.9180    0.7410    3.1430 C   0  0  0  0  0  0  0  0  0  0  0  0
    0.9390    0.2240    2.2460 N   0  0  0  0  0  0  0  0  0  0  0  0
    0.6950    0.6380    0.9190 C   0  0  0  0  0  0  0  0  0  0  0  0
    1.4870    1.5910    0.5580 O   0  0  0  0  0  0  0  0  0  0  0  0
   -0.2810    0.1480   -0.0230 C   0  0  1  0  0  0  0  0  0  0  0  0
   -0.8890   -1.1790   -0.0540 C   0  0  1  0  0  0  0  0  0  0  0  0
   -1.3650   -1.6710   -1.4260 C   0  0  0  0  0  0  0  0  0  0  0  0
   -0.4220   -2.3200    0.7960 C   0  0  0  0  0  0  0  0  0  0  0  0
   -1.7050   -0.0490    0.4670 C   0  0  1  0  0  0  0  0  0  0  0  0
   -2.0020    0.1130    1.9330 C   0  0  0  0  0  0  0  0  0  0  0  0
   -2.8500    0.4260   -0.3670 C   0  0  0  0  0  0  0  0  0  0  0  0
   -2.7880    1.3210   -1.3780 C   0  0  0  0  0  0  0  0  0  0  0  0
   -3.9360    1.6770   -2.0460 C   0  0  0  0  0  0  0  0  0  0  0  0
   -3.8940    2.6500   -3.1430 C   0  0  0  0  0  0  0  0  0  0  0  0
   -5.1610    1.1200   -1.6880 C   0  0  0  0  0  0  0  0  0  0  0  0
   -6.4220    1.2650   -2.1350 N   0  0  0  0  0  0  0  0  0  0  0  0
   -7.2700    0.4800   -1.4270 C   0  0  0  0  0  0  0  0  0  0  0  0
   -8.6500    0.2490   -1.4730 C   0  0  0  0  0  0  0  0  0  0  0  0
   -9.2520   -0.6300   -0.6070 C   0  0  0  0  0  0  0  0  0  0  0  0
  -10.6980   -0.8880   -0.6120 C   0  0  2  0  0  0  0  0  0  0  0  0
  -11.5370   -0.4520   -1.7980 C   0  0  0  0  0  0  0  0  0  0  0  0
  -11.6610    0.2390   -0.4650 C   0  0  0  0  0  0  0  0  0  0  0  0
   -8.4640   -1.2970    0.3300 C   0  0  0  0  0  0  0  0  0  0  0  0
   -7.0970   -1.0620    0.3700 C   0  0  0  0  0  0  0  0  0  0  0  0
   -6.5070   -0.1830   -0.5000 C   0  0  0  0  0  0  0  0  0  0  0  0
   -5.2160    0.2130   -0.6630 C   0  0  0  0  0  0  0  0  0  0  0  0
   -4.0770   -0.1450    0.0060 C   0  0  0  0  0  0  0  0  0  0  0  0
    4.2630    1.0190    3.7000 C   0  0  0  0  0  0  0  0  0  0  0  0
    3.8140    1.8290    4.8600 C   0  0  0  0  0  0  0  0  0  0  0  0
    5.6080    0.7990    3.5090 C   0  0  0  0  0  0  0  0  0  0  0  0
    6.0290    0.0380    2.4180 C   0  0  0  0  0  0  0  0  0  0  0  0
    7.4800   -0.1790    2.2760 C   0  0  0  0  0  0  0  0  0  0  0  0
    5.3250    0.0960   -1.6490 C   0  0  0  0  0  0  0  0  0  0  0  0
    5.9010    0.7500   -2.7140 C   0  0  0  0  0  0  0  0  0  0  0  0
    7.2670    0.7240   -2.9510 C   0  0  0  0  0  0  0  0  0  0  0  0
    7.8540    1.4320   -4.1020 C   0  0  0  0  0  0  0  0  0  0  0  0
    7.1060    2.0810   -4.8930 O   0  0  0  0  0  0  0  0  0  0  0  0
  1  2  1  0
  2  3  1  0
  3  4  2  0
  3 44  1  0
  4  5  1  0
  5  6  1  0
  5 42  2  0
  6  7  1  0
  7  8  2  0
  7 40  1  0
  8  9  1  0
  9 10  1  0
  9 37  2  0
 10 11  1  0
 11 12  1  0
 12 13  2  0
 14 12  1  1
 14 15  1  0
 14 18  1  0
 15 16  1  6
 15 17  1  0
 15 18  1  0
 18 19  1  1
 18 20  1  0
 20 21  2  0
 20 36  1  0
 21 22  1  0
 22 23  1  0
 22 24  2  0
 24 25  1  0
 24 35  1  0
 25 26  1  0
 26 27  2  0
 26 34  1  0
 27 28  1  0
 29 28  1  6
 28 32  2  0
 29 30  1  0
 29 31  1  0
 30 31  1  0
 32 33  1  0
 33 34  2  0
 34 35  1  0
 35 36  2  0
 37 38  1  0
 37 39  1  0
 39 40  2  0
 40 41  1  0
 42 43  1  0
 43 44  2  0
 44 45  1  0
 45 46  2  0
M  END
