
     RDKit          3D

 46 50  0  0  0  0  0  0  0  0999 V2000
   10.3490    0.2360   -1.0190 C   0  0  0  0  0  0  0  0  0  0  0  0
    9.3610   -0.1140    0.0240 C   0  0  0  0  0  0  0  0  0  0  0  0
    9.7450   -0.3510    1.1940 O   0  0  0  0  0  0  0  0  0  0  0  0
    7.9450   -0.1880   -0.2820 C   0  0  0  0  0  0  0  0  0  0  0  0
    7.4540    0.0610   -1.5500 C   0  0  0  0  0  0  0  0  0  0  0  0
    6.1010   -0.0130   -1.8230 C   0  0  0  0  0  0  0  0  0  0  0  0
    5.2300   -0.3400   -0.8200 C   0  0  0  0  0  0  0  0  0  0  0  0
    5.6780   -0.5950    0.4540 C   0  0  0  0  0  0  0  0  0  0  0  0
    4.7440   -0.9200    1.4450 N   0  0  0  0  0  0  0  0  0  0  0  0
    4.2980   -0.0320    2.5240 C   0  0  0  0  0  0  0  0  0  0  0  0
    2.9200   -0.5110    2.8350 C   0  0  1  0  0  0  0  0  0  0  0  0
    1.8550    0.1030    2.0040 C   0  0  0  0  0  0  0  0  0  0  0  0
    1.6660    1.3380    2.0800 O   0  0  0  0  0  0  0  0  0  0  0  0
    1.0450   -0.6600    1.1280 N   0  0  0  0  0  0  0  0  0  0  0  0
   -0.0130   -0.0460    0.3000 C   0  0  1  0  0  0  0  0  0  0  0  0
    0.2200   -0.3420   -1.1300 C   0  0  0  0  0  0  0  0  0  0  0  0
    0.2520   -1.7520   -1.5100 C   0  0  0  0  0  0  0  0  0  0  0  0
   -0.8730   -2.4240   -1.9150 C   0  0  0  0  0  0  0  0  0  0  0  0
   -0.8120   -3.7690   -2.2680 C   0  0  0  0  0  0  0  0  0  0  0  0
    0.3800   -4.4580   -2.2210 C   0  0  0  0  0  0  0  0  0  0  0  0
    1.5070   -3.7790   -1.8140 C   0  0  0  0  0  0  0  0  0  0  0  0
    1.4290   -2.4700   -1.4740 C   0  0  0  0  0  0  0  0  0  0  0  0
   -1.3460   -0.3150    0.8810 C   0  0  2  0  0  0  0  0  0  0  0  0
   -1.7610   -1.6020    1.0000 O   0  0  0  0  0  0  0  0  0  0  0  0
   -2.4720    0.5710    0.4210 C   0  0  0  0  0  0  0  0  0  0  0  0
   -3.0800    0.2370   -0.7990 N   0  0  0  0  0  0  0  0  0  0  0  0
   -3.2840    1.1890   -1.7950 C   0  0  0  0  0  0  0  0  0  0  0  0
   -3.2540    2.6370   -1.5150 C   0  0  1  0  0  0  0  0  0  0  0  0
   -4.2460    3.1360   -0.5090 C   0  0  0  0  0  0  0  0  0  0  0  0
   -1.8660    3.2270   -1.3440 C   0  0  0  0  0  0  0  0  0  0  0  0
   -4.4850   -0.7130   -0.5360 S   0  0  1  0  0  0  0  0  0  0  0  0
   -5.0840   -1.1140   -1.8730 O   0  0  0  0  0  0  0  0  0  0  0  0
   -4.1750   -2.0030    0.2180 O   0  0  0  0  0  0  0  0  0  0  0  0
   -5.7320    0.0780    0.3920 C   0  0  0  0  0  0  0  0  0  0  0  0
   -6.7270    0.8360   -0.2240 C   0  0  0  0  0  0  0  0  0  0  0  0
   -7.7260    1.4660    0.5010 C   0  0  0  0  0  0  0  0  0  0  0  0
   -7.7710    1.3630    1.8760 C   0  0  0  0  0  0  0  0  0  0  0  0
   -6.8020    0.6210    2.5170 C   0  0  0  0  0  0  0  0  0  0  0  0
   -5.8080   -0.0040    1.7690 C   0  0  0  0  0  0  0  0  0  0  0  0
   -7.1080    0.7020    3.8750 O   0  0  0  0  0  0  0  0  0  0  0  0
   -7.9430    1.8470    4.1120 C   0  0  0  0  0  0  0  0  0  0  0  0
   -8.6360    1.8740    2.8620 O   0  0  0  0  0  0  0  0  0  0  0  0
    3.0300   -1.9010    2.5740 O   0  0  0  0  0  0  0  0  0  0  0  0
    4.0380   -2.1190    1.6370 C   0  0  0  0  0  0  0  0  0  0  0  0
    4.2400   -3.2340    1.0820 O   0  0  0  0  0  0  0  0  0  0  0  0
    7.0220   -0.5120    0.6870 C   0  0  0  0  0  0  0  0  0  0  0  0
  1  2  1  0
  2  3  2  0
  2  4  1  0
  4  5  2  0
  4 46  1  0
  5  6  1  0
  6  7  2  0
  7  8  1  0
  8  9  1  0
  8 46  2  0
  9 10  1  0
  9 44  1  0
 10 11  1  0
 11 12  1  6
 11 43  1  0
 12 13  2  0
 12 14  1  0
 14 15  1  0
 15 16  1  6
 15 23  1  0
 16 17  1  0
 17 18  2  0
 17 22  1  0
 18 19  1  0
 19 20  2  0
 20 21  1  0
 21 22  2  0
 23 24  1  6
 23 25  1  0
 25 26  1  0
 26 27  1  0
 31 26  1  6
 27 28  1  0
 28 29  1  1
 28 30  1  0
 31 32  2  0
 31 33  2  0
 31 34  1  0
 34 35  2  0
 34 39  1  0
 35 36  1  0
 36 37  2  0
 37 38  1  0
 37 42  1  0
 38 39  2  0
 38 40  1  0
 40 41  1  0
 41 42  1  0
 43 44  1  0
 44 45  2  0
M  END
