
     RDKit          3D

 46 49  0  0  0  0  0  0  0  0999 V2000
    4.4940    5.2580   -0.9290 C   0  0  0  0  0  0  0  0  0  0  0  0
    3.2210    4.6480   -0.4500 C   0  0  0  0  0  0  0  0  0  0  0  0
    3.3400    3.2430   -0.2080 O   0  0  0  0  0  0  0  0  0  0  0  0
    2.2310    2.5390    0.2430 C   0  0  0  0  0  0  0  0  0  0  0  0
    1.0300    3.1840    0.4540 C   0  0  0  0  0  0  0  0  0  0  0  0
   -0.0660    2.4180    0.9140 C   0  0  0  0  0  0  0  0  0  0  0  0
   -0.0290    1.0940    1.1650 C   0  0  0  0  0  0  0  0  0  0  0  0
   -1.1400    0.2700    1.5610 C   0  0  0  0  0  0  0  0  0  0  0  0
   -0.7500   -0.8890    2.0980 O   0  0  0  0  0  0  0  0  0  0  0  0
   -2.5280    0.3830    1.5200 N   0  0  0  0  0  0  0  0  0  0  0  0
   -3.2500    1.4860    0.9490 C   0  0  0  0  0  0  0  0  0  0  0  0
   -3.5340    1.5050   -0.5120 C   0  0  2  0  0  0  0  0  0  0  0  0
   -4.2780    0.4680   -1.0080 O   0  0  0  0  0  0  0  0  0  0  0  0
   -2.3290    1.6870   -1.4060 C   0  0  0  0  0  0  0  0  0  0  0  0
   -2.7760    1.7790   -2.8390 C   0  0  0  0  0  0  0  0  0  0  0  0
   -3.6800    2.9700   -3.0750 C   0  0  0  0  0  0  0  0  0  0  0  0
   -4.8810    2.7900   -2.1250 C   0  0  2  0  0  0  0  0  0  0  0  0
   -5.8340    3.8440   -2.3180 N   0  0  0  0  0  0  0  0  0  0  0  0
   -7.1200    3.5480   -2.8240 C   0  0  0  0  0  0  0  0  0  0  0  0
   -7.4400    2.3450   -3.1110 O   0  0  0  0  0  0  0  0  0  0  0  0
   -4.3260    2.8420   -0.7480 C   0  0  0  0  0  0  0  0  0  0  0  0
   -3.2790   -0.6580    2.2530 C   0  0  1  0  0  0  0  0  0  0  0  0
   -3.9770   -0.1010    3.4750 C   0  0  0  0  0  0  0  0  0  0  0  0
   -4.1860   -1.5320    1.5120 C   0  0  0  0  0  0  0  0  0  0  0  0
   -3.6250   -2.4420    0.4720 C   0  0  1  0  0  0  0  0  0  0  0  0
   -2.6910   -3.4180    0.9640 N   0  0  0  0  0  0  0  0  0  0  0  0
   -4.7930   -3.2110   -0.1740 C   0  0  1  0  0  0  0  0  0  0  0  0
   -5.6890   -2.1810   -0.5710 O   0  0  0  0  0  0  0  0  0  0  0  0
   -4.3650   -3.8850   -1.4480 C   0  0  0  0  0  0  0  0  0  0  0  0
   -3.5500   -4.9730   -1.3110 O   0  0  0  0  0  0  0  0  0  0  0  0
   -4.1340   -6.0530   -0.6670 C   0  0  0  0  0  0  0  0  0  0  0  0
    1.2280    0.4600    0.9360 C   0  0  0  0  0  0  0  0  0  0  0  0
    2.3000    1.1890    0.4890 C   0  0  0  0  0  0  0  0  0  0  0  0
    3.5720    0.5430    0.2010 C   0  0  0  0  0  0  0  0  0  0  0  0
    4.0980   -0.4210    0.9260 C   0  0  0  0  0  0  0  0  0  0  0  0
    3.3970   -0.8630    2.0580 O   0  0  0  0  0  0  0  0  0  0  0  0
    3.8270   -0.5390    3.3670 C   0  0  0  0  0  0  0  0  0  0  0  0
    5.3830   -1.0390    0.5800 C   0  0  0  0  0  0  0  0  0  0  0  0
    6.0620   -2.0610    1.2030 C   0  0  0  0  0  0  0  0  0  0  0  0
    7.2360   -2.2940    0.5000 C   0  0  0  0  0  0  0  0  0  0  0  0
    7.2210   -1.3900   -0.5360 C   0  0  0  0  0  0  0  0  0  0  0  0
    6.1320   -0.6890   -0.4460 O   0  0  0  0  0  0  0  0  0  0  0  0
    8.4010   -1.4460   -1.4520 C   0  0  0  0  0  0  0  0  0  0  0  0
    9.6300   -1.3530   -0.5540 C   0  0  0  0  0  0  0  0  0  0  0  0
    9.6690   -2.4230    0.4910 C   0  0  0  0  0  0  0  0  0  0  0  0
    8.3900   -3.2130    0.6120 C   0  0  0  0  0  0  0  0  0  0  0  0
  1  2  1  0
  2  3  1  0
  3  4  1  0
  4  5  2  0
  4 33  1  0
  5  6  1  0
  6  7  2  0
  7  8  1  0
  7 32  1  0
  8  9  2  0
  8 10  1  0
 10 11  1  0
 10 22  1  0
 11 12  1  0
 12 13  1  6
 12 14  1  0
 12 21  1  0
 14 15  1  0
 15 16  1  0
 16 17  1  0
 17 18  1  1
 17 21  1  0
 18 19  1  0
 19 20  2  0
 22 23  1  1
 22 24  1  0
 24 25  1  0
 25 26  1  1
 25 27  1  0
 27 28  1  6
 27 29  1  0
 29 30  1  0
 30 31  1  0
 32 33  2  0
 33 34  1  0
 34 35  2  3
 35 36  1  0
 35 38  1  0
 36 37  1  0
 38 39  2  0
 38 42  1  0
 39 40  1  0
 40 41  2  0
 40 46  1  0
 41 42  1  0
 41 43  1  0
 43 44  1  0
 44 45  1  0
 45 46  1  0
M  CHG  1  26   1
M  END
