
     RDKit          3D

 46 49  0  0  0  0  0  0  0  0999 V2000
   -3.2510    2.6750    0.1310 C   0  0  0  0  0  0  0  0  0  0  0  0
   -3.6510    1.2920   -0.2390 C   0  0  0  0  0  0  0  0  0  0  0  0
   -2.7910    0.1970    0.3540 C   0  0  0  0  0  0  0  0  0  0  0  0
   -1.4070    0.1710   -0.0440 C   0  0  2  0  0  0  0  0  0  0  0  0
   -1.2930   -0.0390   -1.5010 C   0  0  0  0  0  0  0  0  0  0  0  0
   -1.4470   -1.2620   -1.9180 O   0  0  0  0  0  0  0  0  0  0  0  0
   -1.0460    0.8960   -2.5010 N   0  0  0  0  0  0  0  0  0  0  0  0
   -1.0440    0.4230   -3.9070 C   0  0  0  0  0  0  0  0  0  0  0  0
   -1.8570    1.3590   -4.7940 C   0  0  0  0  0  0  0  0  0  0  0  0
   -1.3710    2.7500   -4.5660 C   0  0  1  0  0  0  0  0  0  0  0  0
   -2.1100    3.8300   -5.2770 C   0  0  0  0  0  0  0  0  0  0  0  0
   -1.9770    4.9830   -4.2750 C   0  0  0  0  0  0  0  0  0  0  0  0
   -1.5750    4.4410   -3.0850 O   0  0  0  0  0  0  0  0  0  0  0  0
   -1.7390    3.0870   -3.1120 C   0  0  2  0  0  0  0  0  0  0  0  0
   -0.7590    2.3010   -2.2730 C   0  0  0  0  0  0  0  0  0  0  0  0
   -0.3710   -0.6810    0.6760 C   0  0  2  0  0  0  0  0  0  0  0  0
   -0.2250   -0.3540    2.1140 C   0  0  0  0  0  0  0  0  0  0  0  0
    0.7780   -0.0520    0.0630 O   0  0  0  0  0  0  0  0  0  0  0  0
   -0.2600   -2.0810    0.2760 C   0  0  0  0  0  0  0  0  0  0  0  0
   -1.1920   -3.0010    0.7760 C   0  0  0  0  0  0  0  0  0  0  0  0
   -2.1050   -2.7390    1.8530 C   0  0  0  0  0  0  0  0  0  0  0  0
   -2.8560   -3.9400    2.1040 O   0  0  0  0  0  0  0  0  0  0  0  0
   -3.7450   -3.6880    3.1160 C   0  0  2  0  0  0  0  0  0  0  0  0
   -3.3750   -4.6180    4.2830 C   0  0  0  0  0  0  0  0  0  0  0  0
   -5.1220   -4.1040    2.6660 C   0  0  0  0  0  0  0  0  0  0  0  0
   -1.1550   -4.2840    0.2720 C   0  0  0  0  0  0  0  0  0  0  0  0
   -0.2790   -4.7390   -0.6790 C   0  0  0  0  0  0  0  0  0  0  0  0
    0.6290   -3.8590   -1.1630 C   0  0  0  0  0  0  0  0  0  0  0  0
    0.6410   -2.5470   -0.6900 C   0  0  0  0  0  0  0  0  0  0  0  0
    1.7790   -1.7450   -1.1640 C   0  0  0  0  0  0  0  0  0  0  0  0
    1.7640   -1.4980   -2.3870 O   0  0  0  0  0  0  0  0  0  0  0  0
    2.8390   -1.2660   -0.3830 N   0  0  0  0  0  0  0  0  0  0  0  0
    3.9580   -0.5090   -0.7680 C   0  0  0  0  0  0  0  0  0  0  0  0
    4.3570   -0.4280   -2.0850 C   0  0  0  0  0  0  0  0  0  0  0  0
    5.4940    0.2480   -2.4840 C   0  0  0  0  0  0  0  0  0  0  0  0
    6.2510    0.8560   -1.5470 C   0  0  0  0  0  0  0  0  0  0  0  0
    5.8520    0.7780   -0.2130 C   0  0  0  0  0  0  0  0  0  0  0  0
    4.7270    0.1160    0.2090 C   0  0  0  0  0  0  0  0  0  0  0  0
    4.2690    0.0900    1.5300 N   0  0  0  0  0  0  0  0  0  0  0  0
    4.9910    0.5660    2.6590 C   0  0  0  0  0  0  0  0  0  0  0  0
    6.1370    1.0580    2.5580 O   0  0  0  0  0  0  0  0  0  0  0  0
    4.3600    0.4810    4.0390 C   0  0  2  0  0  0  0  0  0  0  0  0
    3.1340   -0.1280    3.9190 O   0  0  0  0  0  0  0  0  0  0  0  0
    4.1650    1.8720    4.5980 C   0  0  1  0  0  0  0  0  0  0  0  0
    3.3130    2.7570    3.7450 C   0  0  0  0  0  0  0  0  0  0  0  0
    3.5470    1.7360    5.8370 O   0  0  0  0  0  0  0  0  0  0  0  0
  1  2  1  0
  2  3  1  0
  4  3  1  1
  4  5  1  0
  4 16  1  0
  5  6  2  0
  5  7  1  0
  7  8  1  0
  7 15  1  0
  8  9  1  0
 10  9  1  6
 10 11  1  0
 10 14  1  0
 11 12  1  0
 12 13  1  0
 13 14  1  0
 14 15  1  1
 16 17  1  1
 16 18  1  0
 16 19  1  0
 19 20  2  0
 19 29  1  0
 20 21  1  0
 20 26  1  0
 21 22  1  0
 22 23  1  0
 23 24  1  1
 23 25  1  0
 26 27  2  0
 27 28  1  0
 28 29  2  0
 29 30  1  0
 30 31  2  0
 30 32  1  0
 32 33  1  0
 33 34  2  0
 33 38  1  0
 34 35  1  0
 35 36  2  0
 36 37  1  0
 37 38  2  0
 38 39  1  0
 39 40  1  0
 40 41  2  0
 40 42  1  0
 42 43  1  6
 42 44  1  0
 44 45  1  6
 44 46  1  0
M  END
