
     RDKit          3D

 46 49  0  0  0  0  0  0  0  0999 V2000
   -3.7330   -8.0630   -1.4040 C   0  0  0  0  0  0  0  0  0  0  0  0
   -3.7010   -6.5960   -1.1650 C   0  0  0  0  0  0  0  0  0  0  0  0
   -4.4540   -5.7370   -1.9590 C   0  0  0  0  0  0  0  0  0  0  0  0
   -4.4250   -4.3760   -1.7390 C   0  0  0  0  0  0  0  0  0  0  0  0
   -3.6650   -3.8010   -0.7430 C   0  0  0  0  0  0  0  0  0  0  0  0
   -3.6310   -2.4320   -0.5150 O   0  0  0  0  0  0  0  0  0  0  0  0
   -2.7660   -1.5600   -1.1100 C   0  0  0  0  0  0  0  0  0  0  0  0
   -1.9310   -2.0100   -1.9280 O   0  0  0  0  0  0  0  0  0  0  0  0
   -2.7520   -0.1150   -0.8490 C   0  0  0  0  0  0  0  0  0  0  0  0
   -3.5030    0.7440   -1.6220 C   0  0  0  0  0  0  0  0  0  0  0  0
   -4.3610    0.3590   -2.7720 C   0  0  0  0  0  0  0  0  0  0  0  0
   -3.2840    1.9520   -1.1100 N   0  0  0  0  0  0  0  0  0  0  0  0
   -2.4350    1.9190   -0.0510 C   0  0  0  0  0  0  0  0  0  0  0  0
   -2.0320    3.0890    0.7360 C   0  0  0  0  0  0  0  0  0  0  0  0
   -1.2660    2.9570    1.6940 O   0  0  0  0  0  0  0  0  0  0  0  0
   -2.5860    4.4160    0.3290 C   0  0  1  0  0  0  0  0  0  0  0  0
   -4.0880    4.3530    0.4540 C   0  0  0  0  0  0  0  0  0  0  0  0
   -2.0830    5.5160    1.2370 C   0  0  2  0  0  0  0  0  0  0  0  0
   -2.7070    6.7970    0.7290 C   0  0  0  0  0  0  0  0  0  0  0  0
   -1.7870    7.4810   -0.2830 C   0  0  0  0  0  0  0  0  0  0  0  0
   -0.6840    8.0290    0.4490 N   0  0  0  0  0  0  0  0  0  0  0  0
   -0.2870    7.1330    1.5160 C   0  0  0  0  0  0  0  0  0  0  0  0
   -0.5850    5.6780    1.1340 C   0  0  0  0  0  0  0  0  0  0  0  0
   -2.0830    0.6060    0.1290 C   0  0  0  0  0  0  0  0  0  0  0  0
   -1.2050   -0.0060    1.1480 C   0  0  0  0  0  0  0  0  0  0  0  0
    0.0880   -0.5360    0.6440 C   0  0  0  0  0  0  0  0  0  0  0  0
    1.0080    0.4530    0.0590 C   0  0  1  0  0  0  0  0  0  0  0  0
    1.5170    1.4990    0.9840 C   0  0  0  0  0  0  0  0  0  0  0  0
    1.3010    1.5880    2.1930 O   0  0  0  0  0  0  0  0  0  0  0  0
    2.3570    2.5010    0.3700 N   0  0  0  0  0  0  0  0  0  0  0  0
    3.1280    2.1400   -0.7920 C   0  0  0  0  0  0  0  0  0  0  0  0
    4.1020    2.8330   -1.1850 O   0  0  0  0  0  0  0  0  0  0  0  0
    2.7650    0.9340   -1.5340 C   0  0  0  0  0  0  0  0  0  0  0  0
    2.2410   -0.1360   -0.5980 C   0  0  1  0  0  0  0  0  0  0  0  0
    3.2310   -0.4530    0.4960 C   0  0  0  0  0  0  0  0  0  0  0  0
    4.5060   -1.0530   -0.0580 C   0  0  0  0  0  0  0  0  0  0  0  0
    5.4790   -1.3600    1.0600 C   0  0  1  0  0  0  0  0  0  0  0  0
    4.9770   -2.2590    1.9810 O   0  0  0  0  0  0  0  0  0  0  0  0
    6.7970   -1.7840    0.4850 C   0  0  0  0  0  0  0  0  0  0  0  0
    6.6750   -3.0240   -0.3760 C   0  0  1  0  0  0  0  0  0  0  0  0
    8.0220   -3.4300   -0.9420 C   0  0  0  0  0  0  0  0  0  0  0  0
    6.1960   -4.1030    0.3570 O   0  0  0  0  0  0  0  0  0  0  0  0
   -2.9160   -4.6490    0.0480 C   0  0  0  0  0  0  0  0  0  0  0  0
   -2.9370   -6.0330   -0.1660 C   0  0  0  0  0  0  0  0  0  0  0  0
   -2.1290   -6.9470    0.6870 C   0  0  0  0  0  0  0  0  0  0  0  0
   -1.4170   -6.2170    1.6470 O   0  0  0  0  0  0  0  0  0  0  0  0
  1  2  1  0
  2  3  2  0
  2 44  1  0
  3  4  1  0
  4  5  2  0
  5  6  1  0
  5 43  1  0
  6  7  1  0
  7  8  2  0
  7  9  1  0
  9 10  2  0
  9 24  1  0
 10 11  1  0
 10 12  1  0
 12 13  1  0
 13 14  1  0
 13 24  2  0
 14 15  2  0
 14 16  1  0
 16 17  1  1
 16 18  1  0
 18 19  1  6
 18 23  1  0
 19 20  1  0
 20 21  1  0
 21 22  1  0
 22 23  1  0
 24 25  1  0
 25 26  1  0
 27 26  1  1
 27 28  1  0
 27 34  1  0
 28 29  2  0
 28 30  1  0
 30 31  1  0
 31 32  2  0
 31 33  1  0
 33 34  1  0
 34 35  1  1
 35 36  1  0
 36 37  1  0
 37 38  1  1
 37 39  1  0
 39 40  1  0
 40 41  1  1
 40 42  1  0
 43 44  2  0
 44 45  1  0
 45 46  1  0
M  END
