
     RDKit          3D

 46 49  0  0  0  0  0  0  0  0999 V2000
   11.3270   -0.1830    1.8500 C   0  0  0  0  0  0  0  0  0  0  0  0
   10.5110    0.7170    2.6830 C   0  0  0  0  0  0  0  0  0  0  0  0
    9.3490    1.4340    2.1390 C   0  0  0  0  0  0  0  0  0  0  0  0
    8.2840    0.6360    1.6470 N   0  0  0  0  0  0  0  0  0  0  0  0
    8.2740   -0.2100    0.5380 C   0  0  0  0  0  0  0  0  0  0  0  0
    9.3720   -0.2530   -0.1430 O   0  0  0  0  0  0  0  0  0  0  0  0
    7.1670   -1.0210    0.0960 C   0  0  0  0  0  0  0  0  0  0  0  0
    5.9700   -1.1970    0.5500 C   0  0  0  0  0  0  0  0  0  0  0  0
    5.0790   -2.1650   -0.2260 C   0  0  0  0  0  0  0  0  0  0  0  0
    3.8440   -1.4050   -0.6490 C   0  0  0  0  0  0  0  0  0  0  0  0
    3.2120   -0.6720    0.5030 C   0  0  1  0  0  0  0  0  0  0  0  0
    1.8120   -0.7730    0.5000 O   0  0  0  0  0  0  0  0  0  0  0  0
    0.9620    0.3130    0.3580 C   0  0  0  0  0  0  0  0  0  0  0  0
    1.4780    1.4340    0.2260 O   0  0  0  0  0  0  0  0  0  0  0  0
   -0.4760    0.0790    0.3730 C   0  0  0  0  0  0  0  0  0  0  0  0
   -0.9960   -1.1810    0.5210 C   0  0  0  0  0  0  0  0  0  0  0  0
   -2.3760   -1.4310    0.5390 C   0  0  0  0  0  0  0  0  0  0  0  0
   -3.2530   -0.4020    0.4060 C   0  0  0  0  0  0  0  0  0  0  0  0
   -4.6910   -0.6630    0.4330 C   0  0  0  0  0  0  0  0  0  0  0  0
   -5.4380    0.2500   -0.0360 O   0  0  0  0  0  0  0  0  0  0  0  0
   -5.2860   -1.8430    0.9390 N   0  0  0  0  0  0  0  0  0  0  0  0
   -6.6530   -2.1410    0.9850 C   0  0  0  0  0  0  0  0  0  0  0  0
   -7.0030   -3.3950    1.5090 C   0  0  0  0  0  0  0  0  0  0  0  0
   -8.3150   -3.8060    1.6090 C   0  0  0  0  0  0  0  0  0  0  0  0
   -9.3480   -2.9920    1.1940 C   0  0  0  0  0  0  0  0  0  0  0  0
  -10.7550   -3.4460    1.3060 C   0  0  2  0  0  0  0  0  0  0  0  0
  -10.9440   -4.0220    2.5590 O   0  0  0  0  0  0  0  0  0  0  0  0
  -11.0700   -4.4240    0.2140 C   0  0  0  0  0  0  0  0  0  0  0  0
  -10.2390   -5.5420    0.3130 O   0  0  0  0  0  0  0  0  0  0  0  0
   -9.0320   -1.7700    0.6820 C   0  0  0  0  0  0  0  0  0  0  0  0
   -7.7000   -1.3700    0.5880 C   0  0  0  0  0  0  0  0  0  0  0  0
   -2.7500    0.8750    0.2550 C   0  0  0  0  0  0  0  0  0  0  0  0
   -1.3910    1.1140    0.2380 C   0  0  0  0  0  0  0  0  0  0  0  0
   -0.8680    2.4480    0.0810 C   0  0  0  0  0  0  0  0  0  0  0  0
   -0.6710    3.1070    1.1410 O   0  0  0  0  0  0  0  0  0  0  0  0
   -0.6030    2.9600   -1.2140 N   0  0  0  0  0  0  0  0  0  0  0  0
   -0.8620    2.1340   -2.3530 C   0  0  0  0  0  0  0  0  0  0  0  0
   -1.5140    2.9740   -3.4460 C   0  0  0  0  0  0  0  0  0  0  0  0
   -0.5690    4.1090   -3.7380 C   0  0  1  0  0  0  0  0  0  0  0  0
   -1.0760    4.8530   -4.8090 O   0  0  0  0  0  0  0  0  0  0  0  0
   -0.1160    4.8460   -5.8150 C   0  0  0  0  0  0  0  0  0  0  0  0
   -0.4650    5.0220   -2.5410 C   0  0  0  0  0  0  0  0  0  0  0  0
   -0.0780    4.3050   -1.2860 C   0  0  0  0  0  0  0  0  0  0  0  0
    3.8510   -1.0970    1.7770 C   0  0  2  0  0  0  0  0  0  0  0  0
    3.3050   -0.4650    2.8920 O   0  0  0  0  0  0  0  0  0  0  0  0
    5.3230   -0.6000    1.7240 C   0  0  0  0  0  0  0  0  0  0  0  0
  1  2  1  0
  2  3  1  0
  3  4  1  0
  4  5  1  0
  5  6  2  0
  5  7  1  0
  7  8  2  3
  8  9  1  0
  8 46  1  0
  9 10  1  0
 10 11  1  0
 11 12  1  1
 11 44  1  0
 12 13  1  0
 13 14  2  0
 13 15  1  0
 15 16  2  0
 15 33  1  0
 16 17  1  0
 17 18  2  0
 18 19  1  0
 18 32  1  0
 19 20  2  0
 19 21  1  0
 21 22  1  0
 22 23  2  0
 22 31  1  0
 23 24  1  0
 24 25  2  0
 25 26  1  0
 25 30  1  0
 26 27  1  1
 26 28  1  0
 28 29  1  0
 30 31  2  0
 32 33  2  0
 33 34  1  0
 34 35  2  0
 34 36  1  0
 36 37  1  0
 36 43  1  0
 37 38  1  0
 38 39  1  0
 39 40  1  6
 39 42  1  0
 40 41  1  0
 42 43  1  0
 44 45  1  1
 44 46  1  0
M  END
