
     RDKit          3D

 46 50  0  0  0  0  0  0  0  0999 V2000
   -6.0470   -2.6890    0.0910 C   0  0  0  0  0  0  0  0  0  0  0  0
   -5.0170   -3.0850   -0.5830 C   0  0  0  0  0  0  0  0  0  0  0  0
   -3.9910   -2.3810   -1.2740 C   0  0  0  0  0  0  0  0  0  0  0  0
   -3.0500   -3.1140   -1.9210 C   0  0  0  0  0  0  0  0  0  0  0  0
   -3.1600   -4.5800   -1.8580 C   0  0  0  0  0  0  0  0  0  0  0  0
   -3.8120   -0.9180   -1.3840 C   0  0  1  0  0  0  0  0  0  0  0  0
   -5.0130   -0.2560   -2.0240 C   0  0  0  0  0  0  0  0  0  0  0  0
   -5.3610    1.0920   -1.5150 C   0  0  0  0  0  0  0  0  0  0  0  0
   -4.2710    2.1330   -1.6260 C   0  0  0  0  0  0  0  0  0  0  0  0
   -4.1840    2.9760   -0.5300 O   0  0  0  0  0  0  0  0  0  0  0  0
   -3.4030    2.9890    0.5610 C   0  0  0  0  0  0  0  0  0  0  0  0
   -3.9560    3.1290    1.7090 O   0  0  0  0  0  0  0  0  0  0  0  0
   -1.8990    2.8510    0.5920 C   0  0  1  0  0  0  0  0  0  0  0  0
   -1.4450    4.3070    0.7860 C   0  0  0  0  0  0  0  0  0  0  0  0
   -1.9910    5.0800   -0.4240 C   0  0  0  0  0  0  0  0  0  0  0  0
   -1.5910    6.4050   -0.2700 O   0  0  0  0  0  0  0  0  0  0  0  0
   -1.5550    1.9870    1.7740 C   0  0  0  0  0  0  0  0  0  0  0  0
   -0.5240    0.8990    1.4450 C   0  0  1  0  0  0  0  0  0  0  0  0
    0.8290    1.4050    1.4310 C   0  0  0  0  0  0  0  0  0  0  0  0
    1.7450    0.9870    0.3420 C   0  0  2  0  0  0  0  0  0  0  0  0
    2.8410    2.0270    0.2460 C   0  0  0  0  0  0  0  0  0  0  0  0
    3.8490    1.7270   -0.8240 C   0  0  0  0  0  0  0  0  0  0  0  0
    4.5090    0.4210   -0.5710 C   0  0  0  0  0  0  0  0  0  0  0  0
    3.8990   -0.6560   -0.8460 O   0  0  0  0  0  0  0  0  0  0  0  0
    5.7830    0.2820   -0.0410 O   0  0  0  0  0  0  0  0  0  0  0  0
    6.3400   -0.9910    0.1710 C   0  0  2  0  0  0  0  0  0  0  0  0
    6.7170   -1.2210    1.6290 C   0  0  0  0  0  0  0  0  0  0  0  0
    7.5780   -1.2030   -0.6150 C   0  0  0  0  0  0  0  0  0  0  0  0
    8.1730   -2.3030   -0.5230 O   0  0  0  0  0  0  0  0  0  0  0  0
    8.1270   -0.2390   -1.4620 O   0  0  0  0  0  0  0  0  0  0  0  0
    9.3160   -0.5440   -2.1700 C   0  0  0  0  0  0  0  0  0  0  0  0
    0.9690    0.8690   -0.9190 C   0  0  0  0  0  0  0  0  0  0  0  0
   -0.1380   -0.1430   -0.8110 C   0  0  1  0  0  0  0  0  0  0  0  0
    0.5100   -1.5070   -1.0030 C   0  0  0  0  0  0  0  0  0  0  0  0
    1.1100   -1.8700    0.1780 O   0  0  0  0  0  0  0  0  0  0  0  0
    0.1150   -2.2180    1.0630 C   0  0  1  0  0  0  0  0  0  0  0  0
   -0.5280   -3.3350    0.4680 O   0  0  0  0  0  0  0  0  0  0  0  0
    0.7920   -2.7630    2.3170 C   0  0  0  0  0  0  0  0  0  0  0  0
    0.7390   -1.8140    3.4680 C   0  0  0  0  0  0  0  0  0  0  0  0
    0.5160   -0.5000    3.1510 O   0  0  0  0  0  0  0  0  0  0  0  0
   -0.6530   -0.2490    2.4580 C   0  0  2  0  0  0  0  0  0  0  0  0
   -0.8960   -1.1940    1.3400 C   0  0  1  0  0  0  0  0  0  0  0  0
   -1.0080   -0.0420    0.3860 C   0  0  1  0  0  0  0  0  0  0  0  0
   -2.3160    0.3270    0.1110 O   0  0  0  0  0  0  0  0  0  0  0  0
   -3.5020   -0.2270   -0.1200 C   0  0  0  0  0  0  0  0  0  0  0  0
   -4.4090   -0.1740    0.7470 O   0  0  0  0  0  0  0  0  0  0  0  0
  1  2  2  0
  2  3  1  0
  3  4  2  3
  6  3  1  1
  4  5  1  0
  6  7  1  0
  6 45  1  0
  7  8  1  0
  8  9  1  0
  9 10  1  0
 10 11  1  0
 11 12  2  0
 11 13  1  0
 13 14  1  1
 13 17  1  0
 14 15  1  0
 15 16  1  0
 18 17  1  1
 18 19  1  0
 18 41  1  0
 18 43  1  0
 19 20  1  0
 20 21  1  6
 20 32  1  0
 21 22  1  0
 22 23  1  0
 23 24  2  0
 23 25  1  0
 25 26  1  0
 26 27  1  1
 26 28  1  0
 28 29  2  0
 28 30  1  0
 30 31  1  0
 33 32  1  1
 33 34  1  0
 33 43  1  0
 34 35  1  0
 35 36  1  0
 36 37  1  6
 36 38  1  0
 42 36  1  6
 38 39  1  0
 39 40  1  0
 41 40  1  6
 41 42  1  0
 42 43  1  0
 43 44  1  6
 44 45  1  0
 45 46  2  0
M  END
