
     RDKit          3D

 46 50  0  0  0  0  0  0  0  0999 V2000
    8.5700   -2.4130   -2.7140 C   0  0  0  0  0  0  0  0  0  0  0  0
    7.8730   -1.8500   -1.6450 O   0  0  0  0  0  0  0  0  0  0  0  0
    7.9230   -0.4590   -1.6720 C   0  0  1  0  0  0  0  0  0  0  0  0
    6.4960    0.0670   -1.8210 C   0  0  0  0  0  0  0  0  0  0  0  0
    5.5890   -0.8970   -1.3370 O   0  0  0  0  0  0  0  0  0  0  0  0
    4.2880   -0.7000   -0.9620 C   0  0  0  0  0  0  0  0  0  0  0  0
    3.4050   -1.6040   -0.9630 O   0  0  0  0  0  0  0  0  0  0  0  0
    3.8640    0.6530   -0.5210 C   0  0  1  0  0  0  0  0  0  0  0  0
    2.4700    0.7870   -0.8450 O   0  0  0  0  0  0  0  0  0  0  0  0
    2.0080    1.7610   -1.6860 C   0  0  0  0  0  0  0  0  0  0  0  0
    2.9040    2.5390   -2.1690 O   0  0  0  0  0  0  0  0  0  0  0  0
    0.5990    1.9910   -2.0780 C   0  0  1  0  0  0  0  0  0  0  0  0
   -0.0260    0.6950   -2.6120 C   0  0  0  0  0  0  0  0  0  0  0  0
   -0.2560    2.5600   -0.9970 C   0  0  0  0  0  0  0  0  0  0  0  0
   -0.3200    1.6630    0.1620 C   0  0  0  0  0  0  0  0  0  0  0  0
    0.1200    0.5320    0.1950 O   0  0  0  0  0  0  0  0  0  0  0  0
   -0.9800    2.1930    1.3960 C   0  0  0  0  0  0  0  0  0  0  0  0
   -0.9960    1.0980    2.4240 C   0  0  0  0  0  0  0  0  0  0  0  0
   -1.7280    0.0310    1.9810 O   0  0  0  0  0  0  0  0  0  0  0  0
   -3.0590    0.2420    1.7610 C   0  0  2  0  0  0  0  0  0  0  0  0
   -3.8530   -0.5810    2.7700 C   0  0  0  0  0  0  0  0  0  0  0  0
   -5.3270   -0.3880    2.5940 C   0  0  0  0  0  0  0  0  0  0  0  0
   -5.6400    0.5250    1.4510 C   0  0  0  0  0  0  0  0  0  0  0  0
   -4.9780    0.1250    0.1770 C   0  0  2  0  0  0  0  0  0  0  0  0
   -5.2340    1.1780   -0.7420 O   0  0  0  0  0  0  0  0  0  0  0  0
   -5.5780   -1.1030   -0.4580 C   0  0  0  0  0  0  0  0  0  0  0  0
   -7.0020   -0.8510   -0.7650 C   0  0  0  0  0  0  0  0  0  0  0  0
   -7.3340   -0.3260   -2.0120 C   0  0  0  0  0  0  0  0  0  0  0  0
   -8.6340   -0.0660   -2.3540 C   0  0  0  0  0  0  0  0  0  0  0  0
   -9.6180   -0.3300   -1.4520 C   0  0  0  0  0  0  0  0  0  0  0  0
   -9.3430   -0.8510   -0.2020 C   0  0  0  0  0  0  0  0  0  0  0  0
   -8.0250   -1.1040    0.1190 C   0  0  0  0  0  0  0  0  0  0  0  0
  -10.6280   -1.0010    0.4980 C   0  0  0  0  0  0  0  0  0  0  0  0
  -11.6160   -0.9150   -0.4740 O   0  0  0  0  0  0  0  0  0  0  0  0
  -11.0820   -0.1630   -1.5180 C   0  0  0  0  0  0  0  0  0  0  0  0
   -3.4980   -0.0280    0.3630 C   0  0  0  0  0  0  0  0  0  0  0  0
    3.9960    0.6790    0.9840 C   0  0  0  0  0  0  0  0  0  0  0  0
    4.3500   -0.5950    1.5010 O   0  0  0  0  0  0  0  0  0  0  0  0
    5.4860   -0.8820    2.2050 C   0  0  0  0  0  0  0  0  0  0  0  0
    5.4810   -1.5070    3.3080 O   0  0  0  0  0  0  0  0  0  0  0  0
    6.7950   -0.4530    1.6720 C   0  0  1  0  0  0  0  0  0  0  0  0
    7.8250   -0.2520    2.7710 C   0  0  0  0  0  0  0  0  0  0  0  0
    9.1090   -0.2810    1.9420 C   0  0  0  0  0  0  0  0  0  0  0  0
    8.6550   -0.8910    0.6500 C   0  0  2  0  0  0  0  0  0  0  0  0
    8.5980    0.1260   -0.4610 C   0  0  0  0  0  0  0  0  0  0  0  0
    7.4200   -1.4510    0.9210 O   0  0  0  0  0  0  0  0  0  0  0  0
  1  2  1  0
  3  2  1  1
  3  4  1  0
  3 45  1  0
  4  5  1  0
  5  6  1  0
  6  7  2  0
  6  8  1  0
  8  9  1  1
  8 37  1  0
  9 10  1  0
 10 11  2  0
 10 12  1  0
 12 13  1  1
 12 14  1  0
 14 15  1  0
 15 16  2  0
 15 17  1  0
 17 18  1  0
 18 19  1  0
 20 19  1  6
 20 21  1  0
 20 36  1  0
 21 22  1  0
 22 23  1  0
 23 24  1  0
 24 25  1  6
 24 26  1  0
 24 36  1  0
 26 27  1  0
 27 28  2  0
 27 32  1  0
 28 29  1  0
 29 30  2  0
 30 31  1  0
 30 35  1  0
 31 32  2  0
 31 33  1  0
 33 34  1  0
 34 35  1  0
 37 38  1  0
 38 39  1  0
 39 40  2  0
 39 41  1  0
 41 42  1  1
 41 46  1  0
 42 43  1  0
 44 43  1  1
 44 45  1  0
 44 46  1  0
M  END
