
     RDKit          3D

 46 50  0  0  0  0  0  0  0  0999 V2000
    2.0790   -1.8860    4.3160 C   0  0  0  0  0  0  0  0  0  0  0  0
    1.4040   -1.7800    2.9200 C   0  0  0  0  0  0  0  0  0  0  0  0
    2.4500   -1.4400    1.9320 C   0  0  0  0  0  0  0  0  0  0  0  0
    2.1150   -1.3280    0.5110 C   0  0  0  0  0  0  0  0  0  0  0  0
    1.0680   -0.3030    0.1020 C   0  0  2  0  0  0  0  0  0  0  0  0
    1.6380    0.9920    0.6300 C   0  0  0  0  0  0  0  0  0  0  0  0
    1.0580    1.7090    1.4570 O   0  0  0  0  0  0  0  0  0  0  0  0
    2.8810    1.3830    0.1510 O   0  0  0  0  0  0  0  0  0  0  0  0
    3.4390    2.5950    0.6370 C   0  0  0  0  0  0  0  0  0  0  0  0
    4.7500    2.8790    0.0020 C   0  0  2  0  0  0  0  0  0  0  0  0
    4.6000    2.9900   -1.3860 O   0  0  0  0  0  0  0  0  0  0  0  0
    5.8080    1.8790    0.2360 C   0  0  0  0  0  0  0  0  0  0  0  0
    6.8970    2.1800    0.9250 C   0  0  0  0  0  0  0  0  0  0  0  0
    8.0000    1.2600    1.2110 C   0  0  0  0  0  0  0  0  0  0  0  0
    7.7720   -0.0180    0.6930 O   0  0  0  0  0  0  0  0  0  0  0  0
    6.6430   -0.3470   -0.0280 C   0  0  0  0  0  0  0  0  0  0  0  0
    6.4930   -1.6410   -0.5270 O   0  0  0  0  0  0  0  0  0  0  0  0
    5.6610    0.5300   -0.2800 C   0  0  0  0  0  0  0  0  0  0  0  0
   -0.1300   -0.6660    0.5140 O   0  0  0  0  0  0  0  0  0  0  0  0
   -1.2720   -0.8480    1.1020 C   0  0  0  0  0  0  0  0  0  0  0  0
   -1.6920   -0.0410    1.9810 O   0  0  0  0  0  0  0  0  0  0  0  0
   -2.2090   -1.9570    0.8590 C   0  0  2  0  0  0  0  0  0  0  0  0
   -1.3920   -3.0550    0.1400 C   0  0  0  0  0  0  0  0  0  0  0  0
   -1.9900   -4.4170    0.4230 C   0  0  0  0  0  0  0  0  0  0  0  0
   -3.3790   -4.1940    0.8940 C   0  0  0  0  0  0  0  0  0  0  0  0
   -4.0640   -3.1900    0.0360 C   0  0  1  0  0  0  0  0  0  0  0  0
   -5.4420   -3.0090    0.6200 C   0  0  0  0  0  0  0  0  0  0  0  0
   -5.7600   -1.6430    0.0980 C   0  0  0  0  0  0  0  0  0  0  0  0
   -4.4700   -0.8060    0.4080 C   0  0  2  0  0  0  0  0  0  0  0  0
   -4.6220   -0.5270    1.8700 C   0  0  0  0  0  0  0  0  0  0  0  0
   -4.6820    0.3430   -0.5070 C   0  0  0  0  0  0  0  0  0  0  0  0
   -4.0120    1.5880   -0.3680 C   0  0  0  0  0  0  0  0  0  0  0  0
   -3.5170    1.9740    0.7220 O   0  0  0  0  0  0  0  0  0  0  0  0
   -3.8570    2.4620   -1.4120 O   0  0  0  0  0  0  0  0  0  0  0  0
   -3.5330    2.1860   -2.7270 C   0  0  0  0  0  0  0  0  0  0  0  0
   -2.2490    1.4170   -2.7920 C   0  0  2  0  0  0  0  0  0  0  0  0
   -2.0210    0.7360   -1.5710 O   0  0  0  0  0  0  0  0  0  0  0  0
   -1.0900    2.2970   -3.0520 C   0  0  1  0  0  0  0  0  0  0  0  0
   -1.2930    3.7630   -2.7510 C   0  0  0  0  0  0  0  0  0  0  0  0
    0.1160    4.2880   -2.4190 C   0  0  0  0  0  0  0  0  0  0  0  0
    1.0080    3.0560   -2.3920 C   0  0  0  0  0  0  0  0  0  0  0  0
    0.0090    1.9870   -2.0070 C   0  0  2  0  0  0  0  0  0  0  0  0
    0.5480    0.7480   -2.1700 O   0  0  0  0  0  0  0  0  0  0  0  0
    1.2200   -0.1160   -1.3930 C   0  0  0  0  0  0  0  0  0  0  0  0
    2.0700   -0.8520   -1.9630 O   0  0  0  0  0  0  0  0  0  0  0  0
   -3.4140   -1.7890    0.0630 C   0  0  1  0  0  0  0  0  0  0  0  0
  1  2  1  0
  2  3  1  0
  3  4  1  0
  5  4  1  1
  5  6  1  0
  5 19  1  0
  5 44  1  0
  6  7  2  0
  6  8  1  0
  8  9  1  0
  9 10  1  0
 10 11  1  6
 10 12  1  0
 12 13  2  0
 12 18  1  0
 13 14  1  0
 14 15  1  0
 15 16  1  0
 16 17  1  0
 16 18  2  0
 19 20  1  0
 20 21  2  0
 20 22  1  0
 22 23  1  6
 46 22  1  1
 23 24  1  0
 24 25  1  0
 26 25  1  1
 26 27  1  0
 26 46  1  0
 27 28  1  0
 28 29  1  0
 29 30  1  1
 29 31  1  0
 29 46  1  0
 31 32  1  0
 32 33  2  0
 32 34  1  0
 34 35  1  0
 35 36  1  0
 36 37  1  1
 36 38  1  0
 38 39  1  1
 38 42  1  0
 39 40  1  0
 40 41  1  0
 42 41  1  6
 42 43  1  0
 43 44  1  0
 44 45  2  0
M  END
