
     RDKit          3D

 45 49  0  0  0  0  0  0  0  0999 V2000
    1.8610    0.7770    3.9550 C   0  0  0  0  0  0  0  0  0  0  0  0
    0.7480    0.6490    2.9390 C   0  0  2  0  0  0  0  0  0  0  0  0
    1.0230   -0.5710    2.1010 C   0  0  0  0  0  0  0  0  0  0  0  0
   -0.0170   -0.7950    1.0360 C   0  0  0  0  0  0  0  0  0  0  0  0
   -0.4330    0.4580    0.3290 C   0  0  1  0  0  0  0  0  0  0  0  0
   -1.4340    0.2060   -0.7050 C   0  0  0  0  0  0  0  0  0  0  0  0
   -2.7390   -0.3890   -0.4320 C   0  0  1  0  0  0  0  0  0  0  0  0
   -3.6390    0.3750    0.5600 C   0  0  0  0  0  0  0  0  0  0  0  0
   -3.8320    1.6720    0.1610 O   0  0  0  0  0  0  0  0  0  0  0  0
   -5.0760    1.9450   -0.3870 C   0  0  1  0  0  0  0  0  0  0  0  0
   -6.0870    1.9720    0.7240 C   0  0  0  0  0  0  0  0  0  0  0  0
   -7.4870    2.2390    0.2900 C   0  0  0  0  0  0  0  0  0  0  0  0
   -7.5500    3.5780   -0.4090 C   0  0  0  0  0  0  0  0  0  0  0  0
   -6.1770    4.1790   -0.5030 C   0  0  0  0  0  0  0  0  0  0  0  0
   -5.9730    5.3490   -0.2170 O   0  0  0  0  0  0  0  0  0  0  0  0
   -5.0060    3.3660   -0.9500 C   0  0  0  0  0  0  0  0  0  0  0  0
   -5.4500    1.0430   -1.5220 C   0  0  0  0  0  0  0  0  0  0  0  0
   -4.9430   -0.2420   -1.4350 O   0  0  0  0  0  0  0  0  0  0  0  0
   -3.5930   -0.2100   -1.7290 C   0  0  2  0  0  0  0  0  0  0  0  0
   -3.1320   -1.5990   -2.1090 C   0  0  0  0  0  0  0  0  0  0  0  0
   -3.0620   -1.8060   -0.5840 C   0  0  1  0  0  0  0  0  0  0  0  0
   -2.2710   -2.8380   -0.1710 O   0  0  0  0  0  0  0  0  0  0  0  0
   -2.6850   -3.9320    0.5620 C   0  0  0  0  0  0  0  0  0  0  0  0
   -3.8820   -4.0100    0.8880 O   0  0  0  0  0  0  0  0  0  0  0  0
   -1.7590   -4.9820    0.9550 C   0  0  0  0  0  0  0  0  0  0  0  0
   -0.5350   -4.9490    0.6430 O   0  0  0  0  0  0  0  0  0  0  0  0
   -2.2850   -6.1240    1.7480 C   0  0  0  0  0  0  0  0  0  0  0  0
   -3.6430   -5.9760    1.9950 O   0  0  0  0  0  0  0  0  0  0  0  0
   -0.6430    1.6300    1.2420 C   0  0  0  0  0  0  0  0  0  0  0  0
    0.6960    1.8210    1.9880 C   0  0  2  0  0  0  0  0  0  0  0  0
    1.7650    1.6660    1.0510 O   0  0  0  0  0  0  0  0  0  0  0  0
    2.6710    2.7000    0.8570 C   0  0  0  0  0  0  0  0  0  0  0  0
    2.5010    3.7410    1.5350 O   0  0  0  0  0  0  0  0  0  0  0  0
    3.7890    2.5990   -0.0980 C   0  0  0  0  0  0  0  0  0  0  0  0
    3.7790    1.3470   -0.7330 O   0  0  0  0  0  0  0  0  0  0  0  0
    4.8280    1.3240   -1.6360 C   0  0  0  0  0  0  0  0  0  0  0  0
    4.9310    0.0300   -2.3830 C   0  0  1  0  0  0  0  0  0  0  0  0
    3.7160    0.0340   -3.3530 C   0  0  0  0  0  0  0  0  0  0  0  0
    6.0290    0.0520   -3.2600 O   0  0  0  0  0  0  0  0  0  0  0  0
    4.8050   -1.2020   -1.5930 C   0  0  0  0  0  0  0  0  0  0  0  0
    5.7490   -1.4900   -0.5040 C   0  0  1  0  0  0  0  0  0  0  0  0
    7.2010   -1.5610   -0.8800 C   0  0  0  0  0  0  0  0  0  0  0  0
    7.8950   -1.6740    0.4590 C   0  0  0  0  0  0  0  0  0  0  0  0
    6.8700   -1.3340    1.5250 C   0  0  0  0  0  0  0  0  0  0  0  0
    5.7080   -0.6910    0.7330 C   0  0  0  0  0  0  0  0  0  0  0  0
  2  1  1  1
  2  3  1  0
  2 30  1  0
  3  4  1  0
  4  5  1  0
  5  6  1  1
  5 29  1  0
  7  6  1  6
  7  8  1  0
  7 19  1  0
  7 21  1  0
  8  9  1  0
  9 10  1  0
 10 11  1  1
 10 16  1  0
 10 17  1  0
 11 12  1  0
 12 13  1  0
 13 14  1  0
 14 15  2  0
 14 16  1  0
 17 18  1  0
 18 19  1  0
 19 20  1  6
 20 21  1  0
 21 22  1  6
 22 23  1  0
 23 24  2  0
 23 25  1  0
 25 26  2  0
 25 27  1  0
 27 28  1  0
 29 30  1  0
 30 31  1  6
 31 32  1  0
 32 33  2  0
 32 34  1  0
 34 35  1  0
 35 36  1  0
 36 37  1  0
 37 38  1  6
 37 39  1  0
 37 40  1  0
 41 40  1  6
 41 42  1  0
 41 45  1  0
 42 43  1  0
 43 44  1  0
 44 45  1  0
M  END
