
     RDKit          3D

 45 49  0  0  0  0  0  0  0  0999 V2000
   -4.9900   -0.0070    2.9510 C   0  0  0  0  0  0  0  0  0  0  0  0
   -3.5210   -0.0110    3.2360 C   0  0  0  0  0  0  0  0  0  0  0  0
   -2.6580   -0.7160    2.5610 O   0  0  0  0  0  0  0  0  0  0  0  0
   -2.3920   -0.5700    1.1880 C   0  0  2  0  0  0  0  0  0  0  0  0
   -3.6520   -0.9730    0.5240 C   0  0  0  0  0  0  0  0  0  0  0  0
   -4.0990   -2.2860    0.6840 C   0  0  0  0  0  0  0  0  0  0  0  0
   -5.2950   -2.7270    0.1410 C   0  0  0  0  0  0  0  0  0  0  0  0
   -6.1080   -1.8930   -0.5840 C   0  0  0  0  0  0  0  0  0  0  0  0
   -7.3220   -2.2790   -1.1400 O   0  0  0  0  0  0  0  0  0  0  0  0
   -7.8250   -3.5680   -0.9680 C   0  0  0  0  0  0  0  0  0  0  0  0
   -5.6720   -0.5800   -0.7550 C   0  0  0  0  0  0  0  0  0  0  0  0
   -6.4730    0.2760   -1.4900 O   0  0  0  0  0  0  0  0  0  0  0  0
   -6.1060    1.6390   -1.7070 C   0  0  0  0  0  0  0  0  0  0  0  0
   -4.4730   -0.1640   -0.2000 C   0  0  0  0  0  0  0  0  0  0  0  0
   -1.2970   -1.5730    0.9660 C   0  0  0  0  0  0  0  0  0  0  0  0
   -0.4730   -1.3530   -0.2370 C   0  0  1  0  0  0  0  0  0  0  0  0
    0.1820   -0.0200   -0.0810 C   0  0  0  0  0  0  0  0  0  0  0  0
   -0.9070    1.0410   -0.1370 C   0  0  2  0  0  0  0  0  0  0  0  0
   -1.3330    1.0980   -1.4320 O   0  0  0  0  0  0  0  0  0  0  0  0
   -2.1210    2.1340   -1.8140 C   0  0  0  0  0  0  0  0  0  0  0  0
   -0.1530    2.3350    0.2420 C   0  0  0  0  0  0  0  0  0  0  0  0
    0.5340    2.8150   -0.8980 O   0  0  0  0  0  0  0  0  0  0  0  0
    1.6400    3.5730   -0.9680 C   0  0  0  0  0  0  0  0  0  0  0  0
    2.1280    3.8440   -2.1110 O   0  0  0  0  0  0  0  0  0  0  0  0
    2.3720    4.1420    0.1960 C   0  0  2  0  0  0  0  0  0  0  0  0
    1.9150    5.6110    0.2380 C   0  0  0  0  0  0  0  0  0  0  0  0
    3.7260    4.1140    0.0890 O   0  0  0  0  0  0  0  0  0  0  0  0
    4.8140    3.6570    0.6980 C   0  0  0  0  0  0  0  0  0  0  0  0
    5.4070    4.1130    1.7340 O   0  0  0  0  0  0  0  0  0  0  0  0
    5.5150    2.4550    0.1770 C   0  0  2  0  0  0  0  0  0  0  0  0
    6.0380    2.7250   -1.2410 C   0  0  0  0  0  0  0  0  0  0  0  0
    4.9080    1.7240   -0.9270 C   0  0  1  0  0  0  0  0  0  0  0  0
    5.4010    0.3260   -1.0160 C   0  0  0  0  0  0  0  0  0  0  0  0
    4.3720   -0.7580   -1.1160 C   0  0  1  0  0  0  0  0  0  0  0  0
    5.0880   -2.0010   -1.5120 C   0  0  0  0  0  0  0  0  0  0  0  0
    4.6660   -3.2600   -0.8990 C   0  0  0  0  0  0  0  0  0  0  0  0
    3.8580   -3.1690    0.3530 C   0  0  2  0  0  0  0  0  0  0  0  0
    3.3000   -4.5410    0.6600 C   0  0  0  0  0  0  0  0  0  0  0  0
    2.5290   -4.5060    1.8350 O   0  0  0  0  0  0  0  0  0  0  0  0
    2.8110   -2.0840    0.3210 C   0  0  1  0  0  0  0  0  0  0  0  0
    3.6070   -0.8110    0.1680 C   0  0  0  0  0  0  0  0  0  0  0  0
    1.8030   -2.3050   -0.7400 C   0  0  0  0  0  0  0  0  0  0  0  0
    2.3290   -2.4140   -1.9180 O   0  0  0  0  0  0  0  0  0  0  0  0
    0.4810   -2.3790   -0.4630 O   0  0  0  0  0  0  0  0  0  0  0  0
   -1.9460    0.8170    0.8920 C   0  0  0  0  0  0  0  0  0  0  0  0
  1  2  1  0
  2  3  1  0
  4  3  1  1
  4  5  1  0
  4 15  1  0
  4 45  1  0
  5  6  2  0
  5 14  1  0
  6  7  1  0
  7  8  2  0
  8  9  1  0
  8 11  1  0
  9 10  1  0
 11 12  1  0
 11 14  2  0
 12 13  1  0
 16 15  1  1
 16 17  1  0
 16 44  1  0
 17 18  1  0
 18 19  1  6
 18 21  1  0
 18 45  1  0
 19 20  1  0
 21 22  1  0
 22 23  1  0
 23 24  2  0
 23 25  1  0
 25 26  1  6
 25 27  1  0
 27 28  1  0
 28 29  2  0
 28 30  1  0
 30 31  1  6
 30 32  1  0
 32 31  1  6
 32 33  1  0
 34 33  1  1
 34 35  1  0
 34 41  1  0
 35 36  1  0
 36 37  1  0
 37 38  1  6
 37 40  1  0
 38 39  1  0
 40 41  1  0
 40 42  1  6
 42 43  2  0
 42 44  1  0
M  END
