
     RDKit          3D

 46 50  0  0  0  0  0  0  0  0999 V2000
    4.3800   -1.2020    2.3160 C   0  0  0  0  0  0  0  0  0  0  0  0
    3.0850   -1.4330    1.9320 O   0  0  0  0  0  0  0  0  0  0  0  0
    2.7330   -0.7550    0.7270 C   0  0  2  0  0  0  0  0  0  0  0  0
    1.7140    0.2930    0.9910 C   0  0  0  0  0  0  0  0  0  0  0  0
    1.2530    1.0090    0.0410 O   0  0  0  0  0  0  0  0  0  0  0  0
    1.4690    1.8860   -0.8490 C   0  0  0  0  0  0  0  0  0  0  0  0
    2.4720    1.6360   -1.9130 C   0  0  0  0  0  0  0  0  0  0  0  0
    3.7670    1.4420   -1.5470 O   0  0  0  0  0  0  0  0  0  0  0  0
    4.2870    2.5450   -0.9230 C   0  0  2  0  0  0  0  0  0  0  0  0
    5.4210    3.0480   -1.8430 C   0  0  0  0  0  0  0  0  0  0  0  0
    6.2630    3.7910   -0.8350 C   0  0  0  0  0  0  0  0  0  0  0  0
    5.7940    3.4740    0.4370 O   0  0  0  0  0  0  0  0  0  0  0  0
    5.0990    2.2600    0.3160 C   0  0  2  0  0  0  0  0  0  0  0  0
    6.1130    1.1780   -0.0230 C   0  0  0  0  0  0  0  0  0  0  0  0
    2.4890   -1.7050   -0.3830 C   0  0  0  0  0  0  0  0  0  0  0  0
    1.4570   -2.7290   -0.2980 C   0  0  2  0  0  0  0  0  0  0  0  0
    0.0530   -2.4190   -0.1060 C   0  0  2  0  0  0  0  0  0  0  0  0
   -0.7450   -3.6150   -0.0600 O   0  0  0  0  0  0  0  0  0  0  0  0
   -0.7010   -1.4980   -0.9850 C   0  0  0  0  0  0  0  0  0  0  0  0
   -0.2010   -1.1410   -2.2030 C   0  0  0  0  0  0  0  0  0  0  0  0
   -0.9360   -0.3090   -3.0210 C   0  0  0  0  0  0  0  0  0  0  0  0
   -2.1540    0.1450   -2.6050 C   0  0  0  0  0  0  0  0  0  0  0  0
   -2.6730   -0.2080   -1.3810 C   0  0  0  0  0  0  0  0  0  0  0  0
   -1.9600   -1.0290   -0.5520 C   0  0  0  0  0  0  0  0  0  0  0  0
   -2.4240   -1.4160    0.6930 O   0  0  0  0  0  0  0  0  0  0  0  0
   -2.8690   -0.7080    1.7850 C   0  0  0  0  0  0  0  0  0  0  0  0
   -2.2890    0.6440    1.9830 C   0  0  0  0  0  0  0  0  0  0  0  0
   -1.4170    0.6360    2.9470 O   0  0  0  0  0  0  0  0  0  0  0  0
   -2.5300    1.7680    1.3520 O   0  0  0  0  0  0  0  0  0  0  0  0
   -3.2770    2.4970    0.5150 C   0  0  0  0  0  0  0  0  0  0  0  0
   -2.4870    3.5610   -0.2700 C   0  0  0  0  0  0  0  0  0  0  0  0
   -1.8870    4.4430    0.6620 O   0  0  0  0  0  0  0  0  0  0  0  0
   -4.5640    2.4780    0.2350 C   0  0  0  0  0  0  0  0  0  0  0  0
   -5.7260    1.7290    0.6510 C   0  0  2  0  0  0  0  0  0  0  0  0
   -5.7750    1.6560    2.1520 C   0  0  0  0  0  0  0  0  0  0  0  0
   -6.6410    0.4680    2.4560 C   0  0  0  0  0  0  0  0  0  0  0  0
   -6.7200   -0.3560    1.2210 C   0  0  0  0  0  0  0  0  0  0  0  0
   -6.0590    0.4350    0.1440 C   0  0  2  0  0  0  0  0  0  0  0  0
   -5.0850   -0.3370   -0.6840 C   0  0  0  0  0  0  0  0  0  0  0  0
   -3.9190    0.3010   -1.0560 O   0  0  0  0  0  0  0  0  0  0  0  0
    1.8200   -3.7530    0.8430 C   0  0  0  0  0  0  0  0  0  0  0  0
    1.3670   -5.0910    0.3430 C   0  0  1  0  0  0  0  0  0  0  0  0
    0.4240   -5.8220    1.2180 C   0  0  0  0  0  0  0  0  0  0  0  0
    0.8900   -4.8090   -0.9620 O   0  0  0  0  0  0  0  0  0  0  0  0
    1.6380   -3.6960   -1.4300 C   0  0  0  0  0  0  0  0  0  0  0  0
    2.2720   -3.5910   -2.5110 O   0  0  0  0  0  0  0  0  0  0  0  0
  1  2  1  0
  2  3  1  0
  3  4  1  1
  3 15  1  0
  4  5  1  0
  5  6  1  0
  6  7  1  0
  7  8  1  0
  9  8  1  6
  9 10  1  0
  9 13  1  0
 10 11  1  0
 11 12  1  0
 12 13  1  0
 13 14  1  6
 16 15  1  6
 16 17  1  0
 16 41  1  0
 16 45  1  0
 17 18  1  6
 17 19  1  0
 19 20  2  0
 19 24  1  0
 20 21  1  0
 21 22  2  0
 22 23  1  0
 23 24  2  0
 23 40  1  0
 24 25  1  0
 25 26  1  0
 26 27  1  0
 27 28  2  0
 27 29  1  0
 29 30  1  0
 30 31  1  0
 30 33  2  0
 31 32  1  0
 33 34  1  0
 34 35  1  1
 34 38  1  0
 35 36  1  0
 36 37  1  0
 38 37  1  1
 38 39  1  0
 39 40  1  0
 41 42  1  0
 42 43  1  1
 42 44  1  0
 44 45  1  0
 45 46  2  0
M  END
