
     RDKit          3D

 45 49  0  0  0  0  0  0  0  0999 V2000
   -6.4370   -0.1940    2.8150 C   0  0  0  0  0  0  0  0  0  0  0  0
   -5.3350   -0.5690    1.8460 C   0  0  0  0  0  0  0  0  0  0  0  0
   -5.0240    0.6450    0.9290 C   0  0  1  0  0  0  0  0  0  0  0  0
   -4.5900    1.7460    1.8230 C   0  0  0  0  0  0  0  0  0  0  0  0
   -3.1800    2.2660    1.6910 C   0  0  0  0  0  0  0  0  0  0  0  0
   -2.7560    2.6800    0.3530 C   0  0  0  0  0  0  0  0  0  0  0  0
   -1.5720    2.2630   -0.3280 C   0  0  1  0  0  0  0  0  0  0  0  0
   -1.8010    2.0130   -1.7200 O   0  0  0  0  0  0  0  0  0  0  0  0
   -0.8420    3.5030   -0.5830 O   0  0  0  0  0  0  0  0  0  0  0  0
   -0.2350    3.7560    0.6300 C   0  0  0  0  0  0  0  0  0  0  0  0
    0.1690    2.3980    1.1420 C   0  0  0  0  0  0  0  0  0  0  0  0
   -0.4530    1.4650    0.0980 C   0  0  2  0  0  0  0  0  0  0  0  0
    0.5320    1.6040   -1.0450 C   0  0  0  0  0  0  0  0  0  0  0  0
    0.3440    2.4190   -2.0220 O   0  0  0  0  0  0  0  0  0  0  0  0
    1.7700    0.8370   -1.1440 C   0  0  0  0  0  0  0  0  0  0  0  0
    1.7090   -0.3940   -0.6880 C   0  0  0  0  0  0  0  0  0  0  0  0
    0.5010   -0.7690   -0.1920 O   0  0  0  0  0  0  0  0  0  0  0  0
   -0.4450    0.0640    0.4750 C   0  0  1  0  0  0  0  0  0  0  0  0
    0.2160    0.0720    1.9030 C   0  0  0  0  0  0  0  0  0  0  0  0
   -1.5940   -0.8300    0.6500 C   0  0  0  0  0  0  0  0  0  0  0  0
   -2.1650   -1.7030   -0.3700 C   0  0  2  0  0  0  0  0  0  0  0  0
   -1.0870   -2.6690   -0.8820 C   0  0  0  0  0  0  0  0  0  0  0  0
   -1.7840   -3.8960   -1.4020 C   0  0  0  0  0  0  0  0  0  0  0  0
   -3.2680   -3.8230   -1.4130 C   0  0  0  0  0  0  0  0  0  0  0  0
   -3.8440   -2.5310   -1.9180 C   0  0  0  0  0  0  0  0  0  0  0  0
   -2.9920   -1.3210   -1.4740 C   0  0  2  0  0  0  0  0  0  0  0  0
   -2.1260   -1.0420   -2.7100 C   0  0  0  0  0  0  0  0  0  0  0  0
   -4.0120   -0.2390   -1.2630 C   0  0  0  0  0  0  0  0  0  0  0  0
   -4.5050    0.0620   -2.4200 O   0  0  0  0  0  0  0  0  0  0  0  0
   -4.2600    0.2270   -0.0750 O   0  0  0  0  0  0  0  0  0  0  0  0
    2.9160   -1.2800   -0.7360 C   0  0  2  0  0  0  0  0  0  0  0  0
    3.4890   -1.5000    0.5080 O   0  0  0  0  0  0  0  0  0  0  0  0
    3.5310   -2.7840    1.0250 C   0  0  0  0  0  0  0  0  0  0  0  0
    3.0380   -3.7220    0.3300 O   0  0  0  0  0  0  0  0  0  0  0  0
    4.1240   -3.1060    2.3440 C   0  0  0  0  0  0  0  0  0  0  0  0
    4.0120   -4.5900    2.6140 C   0  0  0  0  0  0  0  0  0  0  0  0
    2.6700   -4.9960    2.6180 O   0  0  0  0  0  0  0  0  0  0  0  0
    3.7960   -0.7590   -1.6790 O   0  0  0  0  0  0  0  0  0  0  0  0
    4.1460    0.5780   -1.3000 C   0  0  1  0  0  0  0  0  0  0  0  0
    5.5010    0.8590   -1.8150 C   0  0  0  0  0  0  0  0  0  0  0  0
    6.0550    2.2050   -1.5050 C   0  0  0  0  0  0  0  0  0  0  0  0
    7.3740    2.3270   -2.0240 O   0  0  0  0  0  0  0  0  0  0  0  0
    7.8070    3.6250   -1.6810 C   0  0  0  0  0  0  0  0  0  0  0  0
    3.0140    1.4250   -1.7640 C   0  0  2  0  0  0  0  0  0  0  0  0
    3.1320    2.8580   -1.2680 C   0  0  0  0  0  0  0  0  0  0  0  0
  1  2  1  0
  3  2  1  1
  3  4  1  0
  3 30  1  0
  4  5  1  0
  5  6  1  0
  6  7  1  0
  7  8  1  6
  7  9  1  0
  7 12  1  0
  9 10  1  0
 10 11  1  0
 12 11  1  1
 12 13  1  0
 12 18  1  0
 13 14  2  0
 13 15  1  0
 15 16  2  0
 15 44  1  0
 16 17  1  0
 16 31  1  0
 17 18  1  0
 18 19  1  1
 18 20  1  0
 21 20  1  6
 21 22  1  0
 21 26  1  0
 22 23  1  0
 23 24  1  0
 24 25  1  0
 25 26  1  0
 26 27  1  6
 26 28  1  0
 28 29  2  0
 28 30  1  0
 31 32  1  1
 31 38  1  0
 32 33  1  0
 33 34  2  0
 33 35  1  0
 35 36  1  0
 36 37  1  0
 38 39  1  0
 39 40  1  6
 39 44  1  0
 40 41  1  0
 41 42  1  0
 42 43  1  0
 44 45  1  1
M  END
