
     RDKit          3D

 20 22  0  0  0  0  0  0  0  0999 V2000
   -0.0090   -0.7120    1.5420 O   0  0  0  0  0  0  0  0  0  0  0  0
   -0.2560   -0.2640    0.3950 C   0  0  0  0  0  0  0  0  0  0  0  0
    0.8110    0.1580   -0.3650 O   0  0  0  0  0  0  0  0  0  0  0  0
    2.1470    0.1380    0.0140 C   0  0  1  0  0  0  0  0  0  0  0  0
    3.0280   -0.7070   -0.8460 C   0  0  0  0  0  0  0  0  0  0  0  0
    4.4330   -0.1470   -0.7900 C   0  0  0  0  0  0  0  0  0  0  0  0
    4.7990    0.2940    0.4580 O   0  0  0  0  0  0  0  0  0  0  0  0
    4.0440    1.3280    0.9450 C   0  0  0  0  0  0  0  0  0  0  0  0
    2.7730    1.5170    0.1060 C   0  0  0  0  0  0  0  0  0  0  0  0
   -1.6350   -0.1980   -0.1070 C   0  0  0  0  0  0  0  0  0  0  0  0
   -2.0400    0.2460   -1.2860 C   0  0  0  0  0  0  0  0  0  0  0  0
   -1.1500    0.7520   -2.2940 N   0  0  0  0  0  0  0  0  0  0  0  0
   -1.3760    2.0090   -2.7310 O   0  0  0  0  0  0  0  0  0  0  0  0
   -3.4850    0.1540   -1.4200 C   0  0  0  0  0  0  0  0  0  0  0  0
   -4.1570    0.4900   -2.4010 O   0  0  0  0  0  0  0  0  0  0  0  0
   -3.9950   -0.4180   -0.1580 C   0  0  0  0  0  0  0  0  0  0  0  0
   -5.0970   -0.7900    0.4730 C   0  0  0  0  0  0  0  0  0  0  0  0
   -4.6860   -1.2930    1.7960 C   0  0  0  0  0  0  0  0  0  0  0  0
   -3.2270   -1.1510    1.8110 C   0  0  0  0  0  0  0  0  0  0  0  0
   -2.8070   -0.6320    0.6570 C   0  0  0  0  0  0  0  0  0  0  0  0
  1  2  2  0
  2  3  1  0
  2 10  1  0
  4  3  1  6
  4  5  1  0
  4  9  1  0
  5  6  1  0
  6  7  1  0
  7  8  1  0
  8  9  1  0
 10 11  2  0
 10 20  1  0
 11 12  1  0
 11 14  1  0
 12 13  1  0
 14 15  2  0
 14 16  1  0
 16 17  2  0
 16 20  1  0
 17 18  1  0
 18 19  1  0
 19 20  2  0
M  CHG  1  13  -1
M  END
