
     RDKit          3D

 20 21  0  0  0  0  0  0  0  0999 V2000
   -3.5960    1.9790   -0.3680 C   0  0  0  0  0  0  0  0  0  0  0  0
   -4.0440    0.8100    0.0270 C   0  0  0  0  0  0  0  0  0  0  0  0
   -3.2400   -0.3970    0.1280 C   0  0  0  0  0  0  0  0  0  0  0  0
   -3.8960   -1.5000    0.5570 C   0  0  0  0  0  0  0  0  0  0  0  0
   -5.3140   -1.4580    0.8920 C   0  0  0  0  0  0  0  0  0  0  0  0
   -1.8230   -0.4870   -0.1960 C   0  0  0  0  0  0  0  0  0  0  0  0
   -1.2410   -1.6210   -0.0600 O   0  0  0  0  0  0  0  0  0  0  0  0
   -1.0710    0.5490   -0.6340 O   0  0  0  0  0  0  0  0  0  0  0  0
    0.2710    0.5740   -0.9550 C   0  0  0  0  0  0  0  0  0  0  0  0
    1.2260    0.3050    0.1290 C   0  0  0  0  0  0  0  0  0  0  0  0
    2.6010    0.2600   -0.1320 C   0  0  0  0  0  0  0  0  0  0  0  0
    3.3780    0.3940   -1.2580 C   0  0  0  0  0  0  0  0  0  0  0  0
    4.7480    0.2960   -1.1980 C   0  0  0  0  0  0  0  0  0  0  0  0
    5.3500    0.0570    0.0260 C   0  0  0  0  0  0  0  0  0  0  0  0
    6.7560   -0.0470    0.1110 O   0  0  0  0  0  0  0  0  0  0  0  0
    4.5630   -0.0760    1.1470 C   0  0  0  0  0  0  0  0  0  0  0  0
    3.1860    0.0220    1.0930 C   0  0  0  0  0  0  0  0  0  0  0  0
    2.2260   -0.0650    1.9960 O   0  0  0  0  0  0  0  0  0  0  0  0
    1.0520    0.1010    1.4430 N   0  0  0  0  0  0  0  0  0  0  0  0
   -0.1590    0.0880    2.1360 O   0  0  0  0  0  0  0  0  0  0  0  0
  1  2  2  0
  2  3  1  0
  3  4  2  3
  3  6  1  0
  4  5  1  0
  6  7  2  0
  6  8  1  0
  8  9  1  0
  9 10  1  0
 10 11  1  0
 10 19  2  0
 11 12  2  0
 11 17  1  0
 12 13  1  0
 13 14  2  0
 14 15  1  0
 14 16  1  0
 16 17  2  0
 17 18  1  0
 18 19  1  0
 19 20  1  0
M  CHG  2  19   1  20  -1
M  END
