
     RDKit          3D

 20 22  0  0  0  0  0  0  0  0999 V2000
    2.4610    2.8180    0.5290 C   0  0  0  0  0  0  0  0  0  0  0  0
    2.5120    1.3820    0.2390 C   0  0  0  0  0  0  0  0  0  0  0  0
    3.7420    0.7310    0.1020 C   0  0  0  0  0  0  0  0  0  0  0  0
    3.7740   -0.6060   -0.1680 C   0  0  0  0  0  0  0  0  0  0  0  0
    4.7040   -1.5560   -0.3640 N   0  0  0  0  0  0  0  0  0  0  0  0
    6.0510   -1.3200   -0.3220 O   0  0  0  0  0  0  0  0  0  0  0  0
    4.1160   -2.7430   -0.6020 C   0  0  0  0  0  0  0  0  0  0  0  0
    2.7420   -2.6190   -0.5710 C   0  0  0  0  0  0  0  0  0  0  0  0
    2.4890   -1.2880   -0.3010 C   0  0  0  0  0  0  0  0  0  0  0  0
    1.4100   -0.5960   -0.1560 O   0  0  0  0  0  0  0  0  0  0  0  0
    1.3400    0.6830    0.1020 C   0  0  0  0  0  0  0  0  0  0  0  0
    0.0320    1.3100    0.2350 C   0  0  0  0  0  0  0  0  0  0  0  0
   -0.0720    2.5460    0.4850 O   0  0  0  0  0  0  0  0  0  0  0  0
   -1.1420    0.5890    0.0940 O   0  0  0  0  0  0  0  0  0  0  0  0
   -2.3760    1.2250    0.2280 C   0  0  0  0  0  0  0  0  0  0  0  0
   -3.5450    0.2870    0.0430 C   0  0  1  0  0  0  0  0  0  0  0  0
   -4.7890    0.8970    0.1710 O   0  0  0  0  0  0  0  0  0  0  0  0
   -3.4840   -0.5800   -1.1780 C   0  0  0  0  0  0  0  0  0  0  0  0
   -4.0030   -1.7330   -0.3120 C   0  0  0  0  0  0  0  0  0  0  0  0
   -3.4180   -0.9790    0.8810 C   0  0  0  0  0  0  0  0  0  0  0  0
  1  2  1  0
  2  3  1  0
  2 11  2  0
  3  4  2  0
  4  5  1  0
  4  9  1  0
  5  6  1  0
  5  7  2  0
  7  8  1  0
  8  9  2  0
  9 10  1  0
 10 11  1  0
 11 12  1  0
 12 13  2  0
 12 14  1  0
 14 15  1  0
 15 16  1  0
 16 17  1  1
 16 18  1  0
 16 20  1  0
 18 19  1  0
 19 20  1  0
M  CHG  2   5   1   6  -1
M  END
