
     RDKit          3D

 19 20  0  0  0  0  0  0  0  0999 V2000
   -3.8270   -1.2700   -0.9430 C   0  0  0  0  0  0  0  0  0  0  0  0
   -2.5880   -1.5340   -0.1450 C   0  0  0  0  0  0  0  0  0  0  0  0
   -1.6390   -0.4230   -0.0900 C   0  0  0  0  0  0  0  0  0  0  0  0
   -2.0190    0.6510   -0.7550 C   0  0  0  0  0  0  0  0  0  0  0  0
   -1.3820    1.9740   -0.9620 C   0  0  0  0  0  0  0  0  0  0  0  0
   -0.1700    2.4900   -0.9250 C   0  0  0  0  0  0  0  0  0  0  0  0
    1.1290    1.8820   -0.6340 C   0  0  0  0  0  0  0  0  0  0  0  0
    1.5270    0.7910    0.0180 C   0  0  0  0  0  0  0  0  0  0  0  0
    2.9560    0.6380    0.0140 C   0  0  0  0  0  0  0  0  0  0  0  0
    3.6290    1.5450   -0.5910 O   0  0  0  0  0  0  0  0  0  0  0  0
    3.7140   -0.3870    0.5950 N   0  0  0  0  0  0  0  0  0  0  0  0
    5.1810   -0.3860    0.4960 C   0  0  0  0  0  0  0  0  0  0  0  0
    0.7740   -0.2480    0.7220 C   0  0  0  0  0  0  0  0  0  0  0  0
   -0.4400   -0.7460    0.7130 C   0  0  0  0  0  0  0  0  0  0  0  0
   -0.7060   -1.7620    1.5920 O   0  0  0  0  0  0  0  0  0  0  0  0
    0.1090   -2.9040    1.7550 C   0  0  0  0  0  0  0  0  0  0  0  0
   -0.2430    3.8590   -1.2290 O   0  0  0  0  0  0  0  0  0  0  0  0
   -1.5290    4.2080   -0.9660 O   0  0  0  0  0  0  0  0  0  0  0  0
   -2.2900    3.0870   -1.3160 C   0  0  0  0  0  0  0  0  0  0  0  0
  1  2  1  0
  2  3  1  0
  3  4  2  0
  3 14  1  0
  4  5  1  0
  5  6  2  0
  5 19  1  0
  6  7  1  0
  6 17  1  0
  7  8  2  0
  8  9  1  0
  8 13  1  0
  9 10  2  0
  9 11  1  0
 11 12  1  0
 13 14  2  0
 14 15  1  0
 15 16  1  0
 17 18  1  0
 18 19  1  0
M  END
