
     RDKit          3D

 20 21  0  0  0  0  0  0  0  0999 V2000
   -1.5610   -3.5270   -0.1980 C   0  0  0  0  0  0  0  0  0  0  0  0
   -1.9260   -2.3210   -0.4980 C   0  0  0  0  0  0  0  0  0  0  0  0
   -3.3350   -2.0680   -0.6550 O   0  0  0  0  0  0  0  0  0  0  0  0
   -3.4370   -0.7720   -0.9420 O   0  0  0  0  0  0  0  0  0  0  0  0
   -2.2250   -0.1780   -0.9830 C   0  0  0  0  0  0  0  0  0  0  0  0
   -1.2290   -1.0890   -0.7170 C   0  0  0  0  0  0  0  0  0  0  0  0
    0.1130   -0.6160   -0.5500 C   0  0  0  0  0  0  0  0  0  0  0  0
    1.2150   -1.3340   -0.5050 C   0  0  0  0  0  0  0  0  0  0  0  0
    1.1350   -3.0070   -0.6590 Cl  0  0  0  0  0  0  0  0  0  0  0  0
    2.6510   -0.8090   -0.4260 C   0  0  2  0  0  0  0  0  0  0  0  0
    2.8510   -0.1790    0.8530 N   0  0  0  0  0  0  0  0  0  0  0  0
    2.9250    0.0730   -1.5310 N   0  0  0  0  0  0  0  0  0  0  0  0
    2.2730    1.2920   -1.5090 N   0  0  0  0  0  0  0  0  0  0  0  0
    1.1540    1.6480   -0.6590 C   0  0  0  0  0  0  0  0  0  0  0  0
    1.0510    2.9940   -0.2580 N   0  0  0  0  0  0  0  0  0  0  0  0
    0.1950    0.8590   -0.2110 C   0  0  0  0  0  0  0  0  0  0  0  0
   -0.7430    1.4380    0.6980 C   0  0  0  0  0  0  0  0  0  0  0  0
   -0.6780    2.6600    0.9720 O   0  0  0  0  0  0  0  0  0  0  0  0
   -1.7270    0.7120    1.3120 O   0  0  0  0  0  0  0  0  0  0  0  0
   -2.6660    1.2190    2.2210 C   0  0  0  0  0  0  0  0  0  0  0  0
  1  2  2  0
  2  3  1  0
  2  6  1  0
  3  4  1  0
  4  5  1  0
  5  6  2  0
  6  7  1  0
  7  8  2  0
  7 16  1  0
  8  9  1  0
  8 10  1  0
 10 11  1  1
 10 12  1  0
 12 13  1  0
 13 14  1  0
 14 15  1  0
 14 16  2  0
 16 17  1  0
 17 18  2  0
 17 19  1  0
 19 20  1  0
M  END
