
     RDKit          3D

 20 22  0  0  0  0  0  0  0  0999 V2000
   -3.2170   -0.4710    1.3880 C   0  0  0  0  0  0  0  0  0  0  0  0
   -2.9400    0.2930    0.1090 C   0  0  2  0  0  0  0  0  0  0  0  0
   -4.1150    1.2300   -0.1000 C   0  0  0  0  0  0  0  0  0  0  0  0
   -2.8600   -0.7410   -0.9950 C   0  0  0  0  0  0  0  0  0  0  0  0
   -1.5770   -1.4640   -0.8310 C   0  0  0  0  0  0  0  0  0  0  0  0
   -1.4750   -2.7130   -0.8830 O   0  0  0  0  0  0  0  0  0  0  0  0
   -0.3810   -0.6610   -0.5970 C   0  0  0  0  0  0  0  0  0  0  0  0
    0.8890   -1.1140   -0.8450 C   0  0  0  0  0  0  0  0  0  0  0  0
    2.0280   -0.3700   -0.6300 C   0  0  0  0  0  0  0  0  0  0  0  0
    3.3820   -0.9070   -0.9140 C   0  0  0  0  0  0  0  0  0  0  0  0
    4.1170   -1.3220    0.3160 C   0  0  0  0  0  0  0  0  0  0  0  0
    4.3530   -0.2770    1.2710 N   0  0  0  0  0  0  0  0  0  0  0  0
    3.8800   -0.3530    2.4100 O   0  0  0  0  0  0  0  0  0  0  0  0
    5.1060    0.8020    0.9080 O   0  0  0  0  0  0  0  0  0  0  0  0
    1.8370    0.9070   -0.1330 C   0  0  0  0  0  0  0  0  0  0  0  0
    0.5910    1.4300    0.1410 C   0  0  0  0  0  0  0  0  0  0  0  0
   -0.5010    0.6200   -0.1020 C   0  0  0  0  0  0  0  0  0  0  0  0
   -1.7870    1.0700    0.1460 O   0  0  0  0  0  0  0  0  0  0  0  0
    1.1770    2.7310    0.6000 C   0  0  0  0  0  0  0  0  0  0  0  0
    2.3880    2.1080    0.2910 O   0  0  0  0  0  0  0  0  0  0  0  0
  2  1  1  1
  2  3  1  0
  2  4  1  0
  2 18  1  0
  4  5  1  0
  5  6  2  0
  5  7  1  0
  7  8  2  0
  7 17  1  0
  8  9  1  0
  9 10  1  0
  9 15  2  0
 10 11  1  0
 11 12  1  0
 12 13  2  0
 12 14  1  0
 15 16  1  0
 15 20  1  0
 16 17  2  0
 16 19  1  0
 17 18  1  0
 19 20  1  0
M  CHG  2  12   1  14  -1
M  END
