
     RDKit          3D

 19 20  0  0  0  0  0  0  0  0999 V2000
   -0.7540    1.3720    1.9760 C   0  0  0  0  0  0  0  0  0  0  0  0
   -1.3190    1.7100    0.8470 C   0  0  0  0  0  0  0  0  0  0  0  0
   -1.8770    0.7590   -0.0720 C   0  0  0  0  0  0  0  0  0  0  0  0
   -2.5170    1.2810   -1.1520 C   0  0  0  0  0  0  0  0  0  0  0  0
   -3.1770    0.5250   -2.2180 C   0  0  0  0  0  0  0  0  0  0  0  0
   -3.6150   -0.7430   -2.1320 C   0  0  0  0  0  0  0  0  0  0  0  0
   -3.5680   -1.7090   -1.0110 C   0  0  0  0  0  0  0  0  0  0  0  0
   -2.7050   -1.6680    0.0070 C   0  0  0  0  0  0  0  0  0  0  0  0
   -1.6400   -0.6380    0.1920 C   0  0  0  0  0  0  0  0  0  0  0  0
   -0.4280   -1.0400    0.4380 C   0  0  0  0  0  0  0  0  0  0  0  0
   -0.1970   -2.4350    0.7280 N   0  0  0  0  0  0  0  0  0  0  0  0
    0.7640   -0.2320    0.2410 C   0  0  0  0  0  0  0  0  0  0  0  0
    1.9730   -0.7090    0.5380 C   0  0  0  0  0  0  0  0  0  0  0  0
    3.1260    0.1480    0.3180 C   0  0  0  0  0  0  0  0  0  0  0  0
    3.0960    1.3930   -0.1630 N   0  0  0  0  0  0  0  0  0  0  0  0
    4.3100    1.8720   -0.2320 N   0  0  0  0  0  0  0  0  0  0  0  0
    5.1470    0.9270    0.2100 C   0  0  0  0  0  0  0  0  0  0  0  0
    6.4080    1.0420    0.2850 O   0  0  0  0  0  0  0  0  0  0  0  0
    4.4210   -0.1420    0.5520 N   0  0  0  0  0  0  0  0  0  0  0  0
  1  2  2  0
  2  3  1  0
  3  4  2  0
  3  9  1  0
  4  5  1  0
  5  6  2  0
  6  7  1  0
  7  8  2  0
  8  9  1  0
  9 10  2  3
 10 11  1  0
 10 12  1  0
 12 13  2  3
 13 14  1  0
 14 15  2  0
 14 19  1  0
 15 16  1  0
 16 17  1  0
 17 18  2  0
 17 19  1  0
M  END
