
     RDKit          3D

 19 21  0  0  0  0  0  0  0  0999 V2000
   -2.9260    1.8000    0.7930 N   0  0  0  0  0  0  0  0  0  0  0  0
   -2.6600    0.3970    0.8480 C   0  0  0  0  0  0  0  0  0  0  0  0
   -3.5850   -0.4000    1.5400 C   0  0  0  0  0  0  0  0  0  0  0  0
   -3.3720   -1.7480    1.6520 C   0  0  0  0  0  0  0  0  0  0  0  0
   -2.2520   -2.3030    1.0820 C   0  0  0  0  0  0  0  0  0  0  0  0
   -1.3690   -1.4910    0.4110 C   0  0  0  0  0  0  0  0  0  0  0  0
   -1.5270   -0.1130    0.2610 C   0  0  0  0  0  0  0  0  0  0  0  0
   -0.6540    0.6910   -0.5660 C   0  0  0  0  0  0  0  0  0  0  0  0
   -1.1330    1.8150   -1.2530 C   0  0  0  0  0  0  0  0  0  0  0  0
   -0.1120    2.3360   -1.9150 N   0  0  0  0  0  0  0  0  0  0  0  0
    1.0000    1.6170   -1.6960 C   0  0  0  0  0  0  0  0  0  0  0  0
    2.2930    1.8920   -2.2370 N   0  0  0  0  0  0  0  0  0  0  0  0
    0.6470    0.5970   -0.8500 N   0  0  0  0  0  0  0  0  0  0  0  0
    1.6800   -0.2030   -0.2780 C   0  0  0  0  0  0  0  0  0  0  0  0
    1.5870   -0.6140    0.9600 C   0  0  0  0  0  0  0  0  0  0  0  0
    2.6430   -1.4470    1.5680 C   0  0  0  0  0  0  0  0  0  0  0  0
    3.6620   -1.7680    0.6860 O   0  0  0  0  0  0  0  0  0  0  0  0
    3.7610   -1.3390   -0.6130 C   0  0  0  0  0  0  0  0  0  0  0  0
    2.8070   -0.5790   -1.0960 C   0  0  0  0  0  0  0  0  0  0  0  0
  1  2  1  0
  2  3  2  0
  2  7  1  0
  3  4  1  0
  4  5  2  0
  5  6  1  0
  6  7  2  0
  7  8  1  0
  8  9  2  0
  8 13  1  0
  9 10  1  0
 10 11  2  0
 11 12  1  0
 11 13  1  0
 13 14  1  0
 14 15  2  0
 14 19  1  0
 15 16  1  0
 16 17  1  0
 17 18  1  0
 18 19  2  0
M  CHG  1  10   1
M  END
