
     RDKit          3D

 19 20  0  0  0  0  0  0  0  0999 V2000
   -1.4220   -2.1280    1.6310 C   0  0  0  0  0  0  0  0  0  0  0  0
   -1.8080   -1.5580    0.4500 C   0  0  0  0  0  0  0  0  0  0  0  0
   -1.2720   -2.0380   -0.7220 N   0  0  0  0  0  0  0  0  0  0  0  0
   -0.2710   -1.7980   -1.3690 C   0  0  0  0  0  0  0  0  0  0  0  0
    0.7810   -0.8410   -1.1000 C   0  0  0  0  0  0  0  0  0  0  0  0
    1.8340   -0.7410   -1.9470 C   0  0  0  0  0  0  0  0  0  0  0  0
    1.8260   -1.6080   -3.0670 N   0  0  0  0  0  0  0  0  0  0  0  0
    2.8830    0.1370   -1.7830 O   0  0  0  0  0  0  0  0  0  0  0  0
    2.8900    0.9890   -0.6880 C   0  0  0  0  0  0  0  0  0  0  0  0
    3.9050    1.8870   -0.4660 C   0  0  0  0  0  0  0  0  0  0  0  0
    3.9370    2.7470    0.6160 C   0  0  0  0  0  0  0  0  0  0  0  0
    2.8840    2.6780    1.5010 C   0  0  0  0  0  0  0  0  0  0  0  0
    1.8440    1.8020    1.3310 C   0  0  0  0  0  0  0  0  0  0  0  0
    1.8560    0.9540    0.2240 C   0  0  0  0  0  0  0  0  0  0  0  0
    0.7950    0.0210    0.0000 N   0  0  0  0  0  0  0  0  0  0  0  0
   -2.7710   -0.4960    0.5220 C   0  0  0  0  0  0  0  0  0  0  0  0
   -3.2790   -0.0740    1.8860 C   0  0  0  0  0  0  0  0  0  0  0  0
   -3.2470    0.1390   -0.4920 C   0  0  0  0  0  0  0  0  0  0  0  0
   -2.8930   -0.1180   -1.8200 N   0  0  0  0  0  0  0  0  0  0  0  0
  1  2  2  0
  2  3  1  0
  2 16  1  0
  3  4  2  3
  4  5  1  0
  5  6  2  0
  5 15  1  0
  6  7  1  0
  6  8  1  0
  8  9  1  0
  9 10  2  0
  9 14  1  0
 10 11  1  0
 11 12  2  0
 12 13  1  0
 13 14  2  0
 14 15  1  0
 16 17  1  0
 16 18  2  3
 18 19  1  0
M  CHG  1  19   1
M  END
