
     RDKit          3D

 19 21  0  0  0  0  0  0  0  0999 V2000
    6.5400    0.2130    0.4220 N   0  0  0  0  0  0  0  0  0  0  0  0
    5.3440   -0.5430    0.4410 C   0  0  0  0  0  0  0  0  0  0  0  0
    5.4220   -1.8260    0.3270 N   0  0  0  0  0  0  0  0  0  0  0  0
    4.0640    0.0360    0.5800 N   0  0  0  0  0  0  0  0  0  0  0  0
    2.9860   -0.3400   -0.2550 C   0  0  0  0  0  0  0  0  0  0  0  0
    3.0650   -1.1090   -1.3820 C   0  0  0  0  0  0  0  0  0  0  0  0
    1.9370   -1.4430   -2.1420 C   0  0  0  0  0  0  0  0  0  0  0  0
    0.7020   -0.9800   -1.7400 C   0  0  0  0  0  0  0  0  0  0  0  0
    0.5750   -0.2000   -0.6100 C   0  0  0  0  0  0  0  0  0  0  0  0
   -0.7460    0.2820   -0.2010 C   0  0  0  0  0  0  0  0  0  0  0  0
   -1.0260    1.0650    0.8970 C   0  0  0  0  0  0  0  0  0  0  0  0
   -2.4090    1.2760    0.8890 C   0  0  0  0  0  0  0  0  0  0  0  0
   -2.8790    0.6050   -0.2200 C   0  0  0  0  0  0  0  0  0  0  0  0
   -4.2390    0.5380   -0.6360 N   0  0  0  0  0  0  0  0  0  0  0  0
   -5.3140    1.1810    0.0690 C   0  0  2  0  0  0  0  0  0  0  0  0
   -5.6260    0.8500    1.4780 C   0  0  0  0  0  0  0  0  0  0  0  0
   -6.4770    0.2550    0.4040 C   0  0  0  0  0  0  0  0  0  0  0  0
   -1.8650    0.0530   -0.8040 O   0  0  0  0  0  0  0  0  0  0  0  0
    1.7150    0.1000    0.1030 C   0  0  0  0  0  0  0  0  0  0  0  0
  1  2  1  0
  2  3  2  0
  2  4  1  0
  4  5  1  0
  5  6  2  0
  5 19  1  0
  6  7  1  0
  7  8  2  0
  8  9  1  0
  9 10  1  0
  9 19  2  0
 10 11  2  0
 10 18  1  0
 11 12  1  0
 12 13  2  0
 13 14  1  0
 13 18  1  0
 15 14  1  6
 15 16  1  0
 15 17  1  0
 16 17  1  0
M  CHG  1   3   1
M  END
