
     RDKit          3D

 19 21  0  0  0  0  0  0  0  0999 V2000
   -0.4760    2.9250   -0.2340 C   0  0  0  0  0  0  0  0  0  0  0  0
   -0.2850    1.4430   -0.0640 C   0  0  0  0  0  0  0  0  0  0  0  0
   -1.2780    0.6250    0.3490 C   0  0  0  0  0  0  0  0  0  0  0  0
   -2.6370    0.9750    0.7770 C   0  0  0  0  0  0  0  0  0  0  0  0
   -3.5910    0.4280   -0.0870 N   0  0  0  0  0  0  0  0  0  0  0  0
   -3.9190   -0.9020   -0.1570 C   0  0  0  0  0  0  0  0  0  0  0  0
   -5.3340   -1.1330    0.2810 N   0  0  0  0  0  0  0  0  0  0  0  0
   -0.7690   -0.6430    0.5410 N   0  0  0  0  0  0  0  0  0  0  0  0
    0.5370   -0.5630    0.2280 C   0  0  0  0  0  0  0  0  0  0  0  0
    1.5520   -1.5210    0.3270 C   0  0  0  0  0  0  0  0  0  0  0  0
    2.8330   -1.2080    0.0400 C   0  0  0  0  0  0  0  0  0  0  0  0
    3.9090   -2.0290    0.2100 C   0  0  0  0  0  0  0  0  0  0  0  0
    5.2340   -1.6820    0.0370 C   0  0  0  0  0  0  0  0  0  0  0  0
    5.4790   -0.3940   -0.3620 N   0  0  0  0  0  0  0  0  0  0  0  0
    4.4660    0.4870   -0.5650 C   0  0  0  0  0  0  0  0  0  0  0  0
    4.7380    1.6780   -0.9560 O   0  0  0  0  0  0  0  0  0  0  0  0
    3.1680    0.1110   -0.3650 C   0  0  0  0  0  0  0  0  0  0  0  0
    2.1840    1.0720   -0.4680 C   0  0  0  0  0  0  0  0  0  0  0  0
    0.8690    0.6970   -0.1550 C   0  0  0  0  0  0  0  0  0  0  0  0
  1  2  1  0
  2  3  2  0
  2 19  1  0
  3  4  1  0
  3  8  1  0
  4  5  1  0
  5  6  1  0
  6  7  1  0
  8  9  1  0
  9 10  2  0
  9 19  1  0
 10 11  1  0
 11 12  1  0
 11 17  2  0
 12 13  2  0
 13 14  1  0
 14 15  1  0
 15 16  2  0
 15 17  1  0
 17 18  1  0
 18 19  2  0
M  CHG  1   7   1
M  END
