
     RDKit          3D

 19 21  0  0  0  0  0  0  0  0999 V2000
    2.1520    0.7200   -2.7380 C   0  0  0  0  0  0  0  0  0  0  0  0
    1.5730    0.3250   -1.4280 C   0  0  0  0  0  0  0  0  0  0  0  0
    0.2140    0.3600   -1.2150 C   0  0  0  0  0  0  0  0  0  0  0  0
   -0.3710    0.0030   -0.0170 C   0  0  0  0  0  0  0  0  0  0  0  0
   -1.8170    0.0480    0.1860 C   0  0  0  0  0  0  0  0  0  0  0  0
   -2.6370   -1.0300   -0.0810 C   0  0  0  0  0  0  0  0  0  0  0  0
   -2.0660   -2.2150   -0.5650 N   0  0  0  0  0  0  0  0  0  0  0  0
   -4.0140   -0.9230    0.1350 C   0  0  0  0  0  0  0  0  0  0  0  0
   -4.5840    0.1970    0.5960 N   0  0  0  0  0  0  0  0  0  0  0  0
   -3.8090    1.2620    0.8650 C   0  0  0  0  0  0  0  0  0  0  0  0
   -2.4380    1.1900    0.6620 C   0  0  0  0  0  0  0  0  0  0  0  0
   -1.6050    2.3090    0.9410 N   0  0  0  0  0  0  0  0  0  0  0  0
    0.4390   -0.3950    0.9770 N   0  0  0  0  0  0  0  0  0  0  0  0
    1.7890   -0.4600    0.8560 C   0  0  0  0  0  0  0  0  0  0  0  0
    2.3510   -0.0980   -0.3500 C   0  0  0  0  0  0  0  0  0  0  0  0
    3.7980   -0.2540   -0.2260 C   0  0  0  0  0  0  0  0  0  0  0  0
    3.9900   -0.7350    1.1610 C   0  0  0  0  0  0  0  0  0  0  0  0
    2.8400   -0.8570    1.7920 C   0  0  0  0  0  0  0  0  0  0  0  0
    2.7060   -1.2860    3.1000 O   0  0  0  0  0  0  0  0  0  0  0  0
  1  2  1  0
  2  3  2  0
  2 15  1  0
  3  4  1  0
  4  5  1  0
  4 13  2  0
  5  6  2  0
  5 11  1  0
  6  7  1  0
  6  8  1  0
  8  9  2  0
  9 10  1  0
 10 11  2  0
 11 12  1  0
 13 14  1  0
 14 15  2  0
 14 18  1  0
 15 16  1  0
 16 17  1  0
 17 18  2  0
 18 19  1  0
M  CHG  1   9   1
M  END
