
     RDKit          3D

 13 13  0  0  0  0  0  0  0  0999 V2000
    3.5880   -0.8380    1.5470 C   0  0  0  0  0  0  0  0  0  0  0  0
    2.3900   -0.7680    0.8000 O   0  0  0  0  0  0  0  0  0  0  0  0
    2.5440    0.2550   -0.0940 C   0  0  0  0  0  0  0  0  0  0  0  0
    1.3770    0.4970   -0.9880 C   0  0  2  0  0  0  0  0  0  0  0  0
    0.1630    0.8260   -0.3660 N   0  0  0  0  0  0  0  0  0  0  0  0
   -0.8590   -0.1040   -0.5870 C   0  0  1  0  0  0  0  0  0  0  0  0
   -0.7020   -1.2540    0.4080 C   0  0  0  0  0  0  0  0  0  0  0  0
   -2.2080    0.5610   -0.4390 C   0  0  1  0  0  0  0  0  0  0  0  0
   -3.2670   -0.2880   -0.6400 O   0  0  0  0  0  0  0  0  0  0  0  0
   -2.3790    1.2280    0.9020 C   0  0  0  0  0  0  0  0  0  0  0  0
   -2.4200    0.3400    1.9570 O   0  0  0  0  0  0  0  0  0  0  0  0
   -0.7960   -0.6870   -1.9550 C   0  0  0  0  0  0  0  0  0  0  0  0
    1.0280   -0.9050   -2.0910 S   0  0  0  0  0  0  0  0  0  0  0  0
  1  2  1  0
  2  3  1  0
  4  3  1  1
  4  5  1  0
  4 13  1  0
  5  6  1  0
  6  7  1  1
  6  8  1  0
  6 12  1  0
  8  9  1  1
  8 10  1  0
 10 11  1  0
 12 13  1  0
M  CHG  1   5   1
M  END
