
     RDKit          3D

 19 19  0  0  0  0  0  0  0  0999 V2000
   -5.3730   -0.4030    2.0340 C   0  0  0  0  0  0  0  0  0  0  0  0
   -5.2320    0.4920    0.8400 C   0  0  0  0  0  0  0  0  0  0  0  0
   -5.7830   -0.1910   -0.3690 C   0  0  0  0  0  0  0  0  0  0  0  0
   -5.0100   -1.4630   -0.6210 C   0  0  0  0  0  0  0  0  0  0  0  0
   -3.5760   -1.1660   -0.8350 C   0  0  0  0  0  0  0  0  0  0  0  0
   -2.4090   -0.9200   -1.0050 C   0  0  0  0  0  0  0  0  0  0  0  0
   -1.0100   -0.6130   -1.1870 C   0  0  0  0  0  0  0  0  0  0  0  0
   -0.3080   -0.4400   -2.3710 C   0  0  0  0  0  0  0  0  0  0  0  0
    0.9860   -0.1650   -2.0080 C   0  0  0  0  0  0  0  0  0  0  0  0
    1.0500   -0.1760   -0.6400 C   0  0  0  0  0  0  0  0  0  0  0  0
    2.2110    0.0610    0.2270 C   0  0  0  0  0  0  0  0  0  0  0  0
    2.1040    0.0030    1.4780 O   0  0  0  0  0  0  0  0  0  0  0  0
    3.4790    0.3620   -0.3200 N   0  0  0  0  0  0  0  0  0  0  0  0
    4.6260    0.6010    0.4400 N   0  0  0  0  0  0  0  0  0  0  0  0
    5.9150    0.6070   -0.1240 C   0  0  0  0  0  0  0  0  0  0  0  0
    6.0710    0.3290   -1.7480 S   0  0  0  0  0  0  0  0  0  0  0  0
    7.0450    0.8500    0.6860 N   0  0  0  0  0  0  0  0  0  0  0  0
    6.8720    1.0890    2.0930 C   0  0  0  0  0  0  0  0  0  0  0  0
   -0.1670   -0.4480   -0.1750 O   0  0  0  0  0  0  0  0  0  0  0  0
  1  2  1  0
  2  3  1  0
  3  4  1  0
  4  5  1  0
  5  6  3  0
  6  7  1  0
  7  8  2  0
  7 19  1  0
  8  9  1  0
  9 10  2  0
 10 11  1  0
 10 19  1  0
 11 12  2  0
 11 13  1  0
 13 14  1  0
 14 15  1  0
 15 16  2  0
 15 17  1  0
 17 18  1  0
M  END
