
     RDKit          3D

  6  5  0  0  0  0  0  0  0  0999 V2000
   -1.2670    0.8650   -0.2550 N   0  0  0  0  0  0  0  0  0  0  0  0
   -0.9550   -0.4920    0.0090 C   0  0  0  0  0  0  0  0  0  0  0  0
   -2.0180   -1.3450    0.2510 O   0  0  0  0  0  0  0  0  0  0  0  0
    0.3030   -0.9320    0.0270 C   0  0  0  0  0  0  0  0  0  0  0  0
    1.4510   -0.0360   -0.2290 C   0  0  0  0  0  0  0  0  0  0  0  0
    1.0800    1.2630   -0.4780 O   0  0  0  0  0  0  0  0  0  0  0  0
  1  2  1  0
  2  3  1  0
  2  4  2  3
  4  5  1  0
  5  6  1  0
M  END
