
     RDKit          3D

 13 14  0  0  0  0  0  0  0  0999 V2000
   -4.1720   -0.0520    0.1320 N   0  0  0  0  0  0  0  0  0  0  0  0
   -2.8230   -0.4910    0.4980 C   0  0  0  0  0  0  0  0  0  0  0  0
   -1.8720    0.4490   -0.1660 C   0  0  2  0  0  0  0  0  0  0  0  0
   -2.0860    0.3660   -1.5470 O   0  0  0  0  0  0  0  0  0  0  0  0
   -0.4340    0.2310    0.1990 C   0  0  1  0  0  0  0  0  0  0  0  0
   -0.0380   -1.1750   -0.1560 C   0  0  0  0  0  0  0  0  0  0  0  0
    1.3630   -1.4430    0.0540 N   0  0  0  0  0  0  0  0  0  0  0  0
    2.0270   -0.2250    0.3320 C   0  0  1  0  0  0  0  0  0  0  0  0
    3.4920   -0.1980    0.0470 C   0  0  0  0  0  0  0  0  0  0  0  0
    3.8270    1.1090   -0.3140 O   0  0  0  0  0  0  0  0  0  0  0  0
    2.6600    1.8100   -0.4980 C   0  0  0  0  0  0  0  0  0  0  0  0
    1.5810    0.7960   -0.7290 C   0  0  2  0  0  0  0  0  0  0  0  0
    0.3240    1.1980   -0.4230 O   0  0  0  0  0  0  0  0  0  0  0  0
  1  2  1  0
  2  3  1  0
  3  4  1  6
  3  5  1  0
  5  6  1  6
  5 13  1  0
  6  7  1  0
  7  8  1  0
  8  9  1  6
  8 12  1  0
  9 10  1  0
 10 11  1  0
 12 11  1  1
 12 13  1  0
M  CHG  2   1   1   7   1
M  END
