
     RDKit          3D

  6  5  0  0  0  0  0  0  0  0999 V2000
   -2.0830    0.6180   -0.1170 C   0  0  0  0  0  0  0  0  0  0  0  0
   -0.6920    0.5710   -0.3330 O   0  0  0  0  0  0  0  0  0  0  0  0
   -0.2800   -0.6020    0.3240 C   0  0  0  0  0  0  0  0  0  0  0  0
    1.1860   -0.6970    0.1250 C   0  0  0  0  0  0  0  0  0  0  0  0
    1.8890    0.3430    0.3730 N   0  0  0  0  0  0  0  0  0  0  0  0
    3.2340    0.3370    0.2160 O   0  0  0  0  0  0  0  0  0  0  0  0
  1  2  1  0
  2  3  1  0
  3  4  1  0
  4  5  2  3
  5  6  1  0
M  END
