
     RDKit          3D

  6  5  0  0  0  0  0  0  0  0999 V2000
   -2.0810   -0.3680    0.0970 C   0  0  0  0  0  0  0  0  0  0  0  0
   -0.8840   -0.1260    0.7860 O   0  0  0  0  0  0  0  0  0  0  0  0
    0.2930    0.1260    0.1040 C   0  0  0  0  0  0  0  0  0  0  0  0
    0.2350    0.7370   -1.0310 N   0  0  0  0  0  0  0  0  0  0  0  0
    1.6160   -0.2860    0.6430 C   0  0  0  0  0  0  0  0  0  0  0  0
    2.6240    0.0900   -0.2420 O   0  0  0  0  0  0  0  0  0  0  0  0
  1  2  1  0
  2  3  1  0
  3  4  2  0
  3  5  1  0
  5  6  1  0
M  END
