
     RDKit          3D

 26 27  0  0  0  0  0  0  0  0999 V2000
    7.4660   -0.8170    1.1250 N   0  0  0  0  0  0  0  0  0  0  0  0
    6.4480   -0.1890    1.9130 C   0  0  0  0  0  0  0  0  0  0  0  0
    4.8010   -0.8180    1.4910 S   0  0  0  0  0  0  0  0  0  0  0  0
    4.3700   -0.3380   -0.2110 C   0  0  1  0  0  0  0  0  0  0  0  0
    5.2890   -1.0420   -1.2050 C   0  0  0  0  0  0  0  0  0  0  0  0
    5.1900   -2.4180   -1.0130 O   0  0  0  0  0  0  0  0  0  0  0  0
    3.0410   -0.8070   -0.4840 N   0  0  0  0  0  0  0  0  0  0  0  0
    2.0510    0.1580   -0.9220 C   0  0  0  0  0  0  0  0  0  0  0  0
    2.4090    1.3510   -1.0400 O   0  0  0  0  0  0  0  0  0  0  0  0
    0.7640   -0.3340   -1.1790 N   0  0  0  0  0  0  0  0  0  0  0  0
   -0.3520    0.4630   -1.5730 C   0  0  0  0  0  0  0  0  0  0  0  0
   -0.8730    1.4080   -0.5600 C   0  0  2  0  0  0  0  0  0  0  0  0
    0.0220    2.4360   -0.0790 N   0  0  0  0  0  0  0  0  0  0  0  0
   -1.4010    0.6690    0.6090 C   0  0  0  0  0  0  0  0  0  0  0  0
   -2.5890    0.2130    0.7580 C   0  0  0  0  0  0  0  0  0  0  0  0
   -2.9350   -0.4810    1.9560 O   0  0  0  0  0  0  0  0  0  0  0  0
   -4.2940   -0.3380    2.4200 C   0  0  0  0  0  0  0  0  0  0  0  0
   -5.1620   -0.9170    1.3480 C   0  0  2  0  0  0  0  0  0  0  0  0
   -4.7810   -2.2590    1.1700 O   0  0  0  0  0  0  0  0  0  0  0  0
   -4.9070   -0.2020    0.0630 C   0  0  0  0  0  0  0  0  0  0  0  0
   -3.6950    0.3080   -0.1730 C   0  0  0  0  0  0  0  0  0  0  0  0
   -3.5370    0.9590   -1.3990 O   0  0  0  0  0  0  0  0  0  0  0  0
   -4.3250    0.6820   -2.5390 C   0  0  0  0  0  0  0  0  0  0  0  0
   -5.7620    0.5730   -2.0980 C   0  0  0  0  0  0  0  0  0  0  0  0
   -6.7060    1.0510   -2.7930 O   0  0  0  0  0  0  0  0  0  0  0  0
   -5.9690   -0.0910   -0.8750 N   0  0  0  0  0  0  0  0  0  0  0  0
  1  2  1  0
  2  3  1  0
  3  4  1  0
  4  5  1  6
  4  7  1  0
  5  6  1  0
  7  8  1  0
  8  9  2  0
  8 10  1  0
 10 11  1  0
 11 12  1  0
 12 13  1  1
 12 14  1  0
 14 15  2  3
 15 16  1  0
 15 21  1  0
 16 17  1  0
 17 18  1  0
 18 19  1  6
 18 20  1  0
 20 21  2  0
 20 26  1  0
 21 22  1  0
 22 23  1  0
 23 24  1  0
 24 25  2  0
 24 26  1  0
M  CHG  1  13   1
M  END
