
     RDKit          3D

 26 28  0  0  0  0  0  0  0  0999 V2000
   -7.8990    0.8160   -1.3910 N   0  0  0  0  0  0  0  0  0  0  0  0
   -6.5850    0.4340   -1.0070 C   0  0  0  0  0  0  0  0  0  0  0  0
   -6.2310   -0.7990   -0.9670 N   0  0  0  0  0  0  0  0  0  0  0  0
   -4.9320   -1.2530   -0.5920 C   0  0  0  0  0  0  0  0  0  0  0  0
   -4.6310   -2.5410   -0.5730 C   0  0  0  0  0  0  0  0  0  0  0  0
   -3.3730   -2.9330   -0.2060 O   0  0  0  0  0  0  0  0  0  0  0  0
   -3.9330   -0.2570   -0.2270 C   0  0  0  0  0  0  0  0  0  0  0  0
   -2.2780   -0.7750    0.2550 S   0  0  0  0  0  0  0  0  0  0  0  0
   -1.3370    0.7030    0.6300 C   0  0  0  0  0  0  0  0  0  0  0  0
    0.0650    0.3780    1.0440 C   0  0  0  0  0  0  0  0  0  0  0  0
    0.5510    0.6960    2.1820 N   0  0  0  0  0  0  0  0  0  0  0  0
    1.8470    0.2680    2.2730 O   0  0  0  0  0  0  0  0  0  0  0  0
    2.0650   -0.6570    1.1960 C   0  0  2  0  0  0  0  0  0  0  0  0
    3.3890   -0.3580    0.6790 N   0  0  0  0  0  0  0  0  0  0  0  0
    4.3910   -1.3590    0.6720 C   0  0  0  0  0  0  0  0  0  0  0  0
    4.0750   -2.5040    1.1320 O   0  0  0  0  0  0  0  0  0  0  0  0
    5.7570   -1.1760    0.1770 C   0  0  2  0  0  0  0  0  0  0  0  0
    6.3810   -0.0350    0.9660 C   0  0  0  0  0  0  0  0  0  0  0  0
    7.1000    0.7800    0.0390 N   0  0  0  0  0  0  0  0  0  0  0  0
    7.1830    0.0870   -1.2060 C   0  0  0  0  0  0  0  0  0  0  0  0
    5.8770   -0.7170   -1.2350 C   0  0  2  0  0  0  0  0  0  0  0  0
    4.8530    0.1190   -1.6010 O   0  0  0  0  0  0  0  0  0  0  0  0
    1.0380   -0.2800    0.3320 O   0  0  0  0  0  0  0  0  0  0  0  0
   -4.2910    1.0140   -0.2650 C   0  0  0  0  0  0  0  0  0  0  0  0
   -5.6410    1.4860   -0.6550 C   0  0  2  0  0  0  0  0  0  0  0  0
   -6.1670    2.2070    0.5160 N   0  0  0  0  0  0  0  0  0  0  0  0
  1  2  1  0
  2  3  2  0
  2 25  1  0
  3  4  1  0
  4  5  2  3
  4  7  1  0
  5  6  1  0
  7  8  1  0
  7 24  2  0
  8  9  1  0
  9 10  1  0
 10 11  2  0
 10 23  1  0
 11 12  1  0
 12 13  1  0
 13 14  1  6
 13 23  1  0
 14 15  1  0
 15 16  2  0
 17 15  1  1
 17 18  1  0
 17 21  1  0
 18 19  1  0
 19 20  1  0
 20 21  1  0
 21 22  1  1
 24 25  1  0
 25 26  1  1
M  CHG  1  26   1
M  END
