
     RDKit          3D

 26 27  0  0  0  0  0  0  0  0999 V2000
   -1.9580    5.4510   -1.1970 N   0  0  0  0  0  0  0  0  0  0  0  0
   -2.0690    4.0530   -1.0800 C   0  0  0  0  0  0  0  0  0  0  0  0
   -3.2250    3.5600   -1.3100 O   0  0  0  0  0  0  0  0  0  0  0  0
   -1.0300    3.1660   -0.7380 N   0  0  0  0  0  0  0  0  0  0  0  0
   -1.2070    1.7120   -0.6300 C   0  0  2  0  0  0  0  0  0  0  0  0
   -0.9860    1.3660    0.8070 C   0  0  0  0  0  0  0  0  0  0  0  0
   -0.7430   -0.1010    0.9150 C   0  0  1  0  0  0  0  0  0  0  0  0
   -1.9350   -0.7910    0.4280 N   0  0  0  0  0  0  0  0  0  0  0  0
   -2.7250   -1.6350    1.2740 C   0  0  0  0  0  0  0  0  0  0  0  0
   -2.4130   -1.8030    2.4610 O   0  0  0  0  0  0  0  0  0  0  0  0
   -3.8790   -2.2930    0.7690 N   0  0  0  0  0  0  0  0  0  0  0  0
   -4.6970   -3.1520    1.6020 C   0  0  2  0  0  0  0  0  0  0  0  0
   -5.4220   -4.2930    0.9230 C   0  0  0  0  0  0  0  0  0  0  0  0
   -6.4850   -2.8890    1.3580 S   0  0  0  0  0  0  0  0  0  0  0  0
    0.4860   -0.5600    0.1840 C   0  0  0  0  0  0  0  0  0  0  0  0
    0.7340    0.1460   -1.1110 C   0  0  2  0  0  0  0  0  0  0  0  0
    0.9780   -0.9570   -2.1560 C   0  0  0  0  0  0  0  0  0  0  0  0
    1.2410   -0.4570   -3.4060 O   0  0  0  0  0  0  0  0  0  0  0  0
    1.9590    0.9300   -1.0860 N   0  0  0  0  0  0  0  0  0  0  0  0
    2.7320    0.7430    0.0410 N   0  0  0  0  0  0  0  0  0  0  0  0
    3.8230   -0.1450    0.1640 C   0  0  0  0  0  0  0  0  0  0  0  0
    4.1350   -0.8400   -0.8350 O   0  0  0  0  0  0  0  0  0  0  0  0
    4.6110   -0.2860    1.4250 C   0  0  0  0  0  0  0  0  0  0  0  0
    5.7050   -1.2910    1.3020 C   0  0  0  0  0  0  0  0  0  0  0  0
    6.3950   -1.3730    2.4990 O   0  0  0  0  0  0  0  0  0  0  0  0
   -0.4020    0.9640   -1.6190 C   0  0  0  0  0  0  0  0  0  0  0  0
  1  2  1  0
  2  3  2  0
  2  4  1  0
  5  4  1  1
  5  6  1  0
  5 26  1  0
  6  7  1  0
  7  8  1  6
  7 15  1  0
  8  9  1  0
  9 10  2  0
  9 11  1  0
 12 11  1  6
 12 13  1  0
 12 14  1  0
 13 14  1  0
 15 16  1  0
 16 17  1  6
 16 19  1  0
 16 26  1  0
 17 18  1  0
 19 20  1  0
 20 21  1  0
 21 22  2  0
 21 23  1  0
 23 24  1  0
 24 25  1  0
M  CHG  1  19   1
M  END
