
     RDKit          3D

 14 15  0  0  0  0  0  0  0  0999 V2000
   -3.6380    1.5560   -0.4950 C   0  0  0  0  0  0  0  0  0  0  0  0
   -3.1200    0.2140   -0.7560 N   0  0  0  0  0  0  0  0  0  0  0  0
   -1.7710    0.1620   -0.2680 C   0  0  1  0  0  0  0  0  0  0  0  0
   -1.7730   -0.4320    1.1130 C   0  0  0  0  0  0  0  0  0  0  0  0
   -0.8610   -0.6830   -1.1400 C   0  0  0  0  0  0  0  0  0  0  0  0
    0.4970   -0.6520   -0.5250 C   0  0  0  0  0  0  0  0  0  0  0  0
    0.9070   -1.5740    0.4140 C   0  0  0  0  0  0  0  0  0  0  0  0
    2.1730   -1.5380    0.9830 C   0  0  0  0  0  0  0  0  0  0  0  0
    3.0310   -0.5400    0.5820 C   0  0  0  0  0  0  0  0  0  0  0  0
    2.6320    0.3830   -0.3510 C   0  0  0  0  0  0  0  0  0  0  0  0
    1.3720    0.3390   -0.9120 C   0  0  0  0  0  0  0  0  0  0  0  0
    3.6780    1.2590   -0.5660 O   0  0  0  0  0  0  0  0  0  0  0  0
    4.8390    0.7470    0.0600 C   0  0  0  0  0  0  0  0  0  0  0  0
    4.3220   -0.2250    0.9380 O   0  0  0  0  0  0  0  0  0  0  0  0
  1  2  1  0
  2  3  1  0
  3  4  1  1
  3  5  1  0
  5  6  1  0
  6  7  2  0
  6 11  1  0
  7  8  1  0
  8  9  2  0
  9 10  1  0
  9 14  1  0
 10 11  2  0
 10 12  1  0
 12 13  1  0
 13 14  1  0
M  CHG  1   2   1
M  END
