
     RDKit          3D

 26 27  0  0  0  0  0  0  0  0999 V2000
    6.7250   -0.4990    0.6610 C   0  0  0  0  0  0  0  0  0  0  0  0
    5.5130   -1.5270   -0.1250 S   0  0  0  0  0  0  0  0  0  0  0  0
    4.6210   -0.8310   -1.4960 C   0  0  2  0  0  0  0  0  0  0  0  0
    5.3730   -0.5140   -2.6080 O   0  0  0  0  0  0  0  0  0  0  0  0
    3.6570    0.2210   -1.0390 C   0  0  2  0  0  0  0  0  0  0  0  0
    4.3930    1.5060   -0.7600 C   0  0  0  0  0  0  0  0  0  0  0  0
    5.0530    1.9390   -1.9780 N   0  0  0  0  0  0  0  0  0  0  0  0
    3.0330   -0.3160    0.1590 N   0  0  0  0  0  0  0  0  0  0  0  0
    1.6540   -0.1990    0.4680 C   0  0  0  0  0  0  0  0  0  0  0  0
    0.9210    0.4050   -0.3400 O   0  0  0  0  0  0  0  0  0  0  0  0
    1.1020   -0.7380    1.6520 N   0  0  0  0  0  0  0  0  0  0  0  0
   -0.2330   -0.6200    1.9960 N   0  0  0  0  0  0  0  0  0  0  0  0
   -1.2290    0.1030    1.3020 C   0  0  0  0  0  0  0  0  0  0  0  0
   -2.4500   -0.3970    1.2690 C   0  0  0  0  0  0  0  0  0  0  0  0
   -2.8960   -1.5780    1.8470 O   0  0  0  0  0  0  0  0  0  0  0  0
   -4.2470   -1.7450    1.5880 C   0  0  0  0  0  0  0  0  0  0  0  0
   -5.0130   -2.6810    1.9400 O   0  0  0  0  0  0  0  0  0  0  0  0
   -4.6400   -0.5590    0.7850 C   0  0  0  0  0  0  0  0  0  0  0  0
   -6.0150   -0.3610    0.3220 C   0  0  0  0  0  0  0  0  0  0  0  0
   -6.7820    0.7690    0.2170 C   0  0  0  0  0  0  0  0  0  0  0  0
   -8.0180    0.4690   -0.2460 N   0  0  0  0  0  0  0  0  0  0  0  0
   -8.0370   -0.8720   -0.4350 C   0  0  0  0  0  0  0  0  0  0  0  0
   -9.0180   -1.5130   -0.8540 O   0  0  0  0  0  0  0  0  0  0  0  0
   -6.8140   -1.3630   -0.0870 N   0  0  0  0  0  0  0  0  0  0  0  0
   -3.5890    0.2180    0.6030 C   0  0  0  0  0  0  0  0  0  0  0  0
   -3.5100    1.4950   -0.1410 C   0  0  0  0  0  0  0  0  0  0  0  0
  1  2  1  0
  2  3  1  0
  3  4  1  6
  3  5  1  0
  5  6  1  1
  5  8  1  0
  6  7  1  0
  8  9  1  0
  9 10  2  0
  9 11  1  0
 11 12  1  0
 12 13  1  0
 13 14  2  3
 14 15  1  0
 14 25  1  0
 15 16  1  0
 16 17  2  0
 16 18  1  0
 18 19  1  0
 18 25  2  0
 19 20  2  0
 19 24  1  0
 20 21  1  0
 21 22  1  0
 22 23  2  0
 22 24  1  0
 25 26  1  0
M  CHG  1   7   1
M  END
