
     RDKit          3D

 14 14  0  0  0  0  0  0  0  0999 V2000
   -3.7020   -0.9730    1.4830 C   0  0  0  0  0  0  0  0  0  0  0  0
   -2.4630   -0.8980    0.5850 C   0  0  1  0  0  0  0  0  0  0  0  0
   -2.7090   -1.6010   -0.7320 C   0  0  0  0  0  0  0  0  0  0  0  0
   -2.2230    0.5610    0.2730 C   0  0  0  0  0  0  0  0  0  0  0  0
   -1.0550    0.6650   -0.5760 N   0  0  0  0  0  0  0  0  0  0  0  0
   -0.0650    1.5140    0.0720 C   0  0  2  0  0  0  0  0  0  0  0  0
   -0.1900    2.9040   -0.4860 C   0  0  0  0  0  0  0  0  0  0  0  0
    1.2950    0.9450   -0.1260 C   0  0  0  0  0  0  0  0  0  0  0  0
    2.3480    1.4790   -0.7170 C   0  0  0  0  0  0  0  0  0  0  0  0
    3.4310    0.6040   -0.6870 O   0  0  0  0  0  0  0  0  0  0  0  0
    2.9990   -0.5710   -0.0410 C   0  0  2  0  0  0  0  0  0  0  0  0
    3.8570   -0.8380    1.1810 C   0  0  0  0  0  0  0  0  0  0  0  0
    3.0930   -1.7270   -1.0090 C   0  0  0  0  0  0  0  0  0  0  0  0
    1.6580   -0.3100    0.3160 O   0  0  0  0  0  0  0  0  0  0  0  0
  2  1  1  1
  2  3  1  0
  2  4  1  0
  4  5  1  0
  5  6  1  0
  6  7  1  6
  6  8  1  0
  8  9  2  0
  8 14  1  0
  9 10  1  0
 10 11  1  0
 11 12  1  1
 11 13  1  0
 11 14  1  0
M  CHG  1   5   1
M  END
