
     RDKit          3D

 30 32  0  0  0  0  0  0  0  0999 V2000
   -1.4970   -2.7150    1.1900 C   0  0  0  0  0  0  0  0  0  0  0  0
   -1.5620   -1.8360   -0.0090 C   0  0  1  0  0  0  0  0  0  0  0  0
   -0.4040   -1.7450   -0.7620 O   0  0  0  0  0  0  0  0  0  0  0  0
    0.8380   -1.3210   -0.3790 C   0  0  0  0  0  0  0  0  0  0  0  0
    0.9840   -0.9600    0.8160 O   0  0  0  0  0  0  0  0  0  0  0  0
    1.9340   -1.3060   -1.3710 C   0  0  0  0  0  0  0  0  0  0  0  0
    3.1700   -0.8390   -0.8240 N   0  0  0  0  0  0  0  0  0  0  0  0
    4.2060   -1.5680   -0.2070 C   0  0  0  0  0  0  0  0  0  0  0  0
    4.2180   -2.8240   -0.0230 O   0  0  0  0  0  0  0  0  0  0  0  0
    5.1940   -0.6240    0.1500 N   0  0  0  0  0  0  0  0  0  0  0  0
    4.8280    0.6450   -0.2110 N   0  0  0  0  0  0  0  0  0  0  0  0
    3.5590    0.5480   -0.8280 C   0  0  0  0  0  0  0  0  0  0  0  0
    2.9930    1.6050   -1.2580 N   0  0  0  0  0  0  0  0  0  0  0  0
    3.3970    2.9290   -1.2460 C   0  0  0  0  0  0  0  0  0  0  0  0
    2.6160    3.8040   -1.7570 O   0  0  0  0  0  0  0  0  0  0  0  0
    4.5740    3.4110   -0.7300 O   0  0  0  0  0  0  0  0  0  0  0  0
    5.6750    2.2220   -0.0150 P   0  0  0  0  0  0  0  0  0  0  0  0
    5.8750    2.6350    1.6560 O   0  0  0  0  0  0  0  0  0  0  0  0
   -2.6820   -2.3140   -0.9030 C   0  0  0  0  0  0  0  0  0  0  0  0
   -2.5450   -3.0910   -1.8710 O   0  0  0  0  0  0  0  0  0  0  0  0
   -3.8840   -1.7260   -0.4430 N   0  0  0  0  0  0  0  0  0  0  0  0
   -3.5710   -0.6900    0.5140 C   0  0  0  0  0  0  0  0  0  0  0  0
   -2.0960   -0.4590    0.3470 C   0  0  1  0  0  0  0  0  0  0  0  0
   -1.4830    0.0250    1.5070 O   0  0  0  0  0  0  0  0  0  0  0  0
   -1.8960    0.3400   -0.7360 O   0  0  0  0  0  0  0  0  0  0  0  0
   -2.3690    1.9540   -0.6690 P   0  0  0  0  0  0  0  0  0  0  0  0
   -3.3220    2.3380   -2.0720 O   0  0  0  0  0  0  0  0  0  0  0  0
   -3.3660    2.6530    1.1040 P   0  0  0  0  0  0  0  0  0  0  0  0
   -3.2950    1.6160    2.4670 O   0  0  0  0  0  0  0  0  0  0  0  0
   -4.9620    3.2740    0.8130 O   0  0  0  0  0  0  0  0  0  0  0  0
  2  1  1  1
  2  3  1  0
  2 19  1  0
  2 23  1  0
  3  4  1  0
  4  5  2  0
  4  6  1  0
  6  7  1  0
  7  8  1  0
  7 12  1  0
  8  9  2  0
  8 10  1  0
 10 11  1  0
 11 12  1  0
 11 17  1  0
 12 13  2  0
 13 14  1  0
 14 15  2  0
 14 16  1  0
 16 17  1  0
 17 18  1  0
 19 20  2  0
 19 21  1  0
 21 22  1  0
 22 23  1  0
 23 24  1  1
 23 25  1  0
 25 26  1  0
 26 27  1  0
 26 28  1  0
 28 29  1  0
 28 30  1  0
M  END
