
     RDKit          3D

 30 31  0  0  0  0  0  0  0  0999 V2000
   -7.4700   -3.5790   -0.5000 O   0  0  0  0  0  0  0  0  0  0  0  0
   -7.2500   -2.0350   -0.4560 P   0  0  0  0  0  0  0  0  0  0  0  0
   -5.5970   -1.4860    0.0590 N   0  0  0  0  0  0  0  0  0  0  0  0
   -4.9750   -0.3680   -0.5460 C   0  0  0  0  0  0  0  0  0  0  0  0
   -5.6270    0.2160   -1.4530 O   0  0  0  0  0  0  0  0  0  0  0  0
   -3.6100    0.1230   -0.1510 C   0  0  1  0  0  0  0  0  0  0  0  0
   -3.2350    1.2260   -0.9350 O   0  0  0  0  0  0  0  0  0  0  0  0
   -2.3290    1.2970   -1.9070 N   0  0  0  0  0  0  0  0  0  0  0  0
   -1.0620    1.2990   -1.8990 C   0  0  0  0  0  0  0  0  0  0  0  0
   -0.4140    1.3840   -3.0690 N   0  0  0  0  0  0  0  0  0  0  0  0
    0.9240    1.3810   -3.1420 C   0  0  0  0  0  0  0  0  0  0  0  0
    1.5140    1.4640   -4.2680 O   0  0  0  0  0  0  0  0  0  0  0  0
    1.7010    1.2910   -2.0490 N   0  0  0  0  0  0  0  0  0  0  0  0
    1.0840    1.2030   -0.8610 C   0  0  0  0  0  0  0  0  0  0  0  0
   -0.3020    1.2060   -0.7560 C   0  0  0  0  0  0  0  0  0  0  0  0
   -0.5330    1.1050    0.6070 O   0  0  0  0  0  0  0  0  0  0  0  0
    0.5770    1.5250    1.2670 O   0  0  0  0  0  0  0  0  0  0  0  0
    1.6040    1.0800    0.4550 N   0  0  0  0  0  0  0  0  0  0  0  0
    2.8490    0.6010    0.9150 C   0  0  0  0  0  0  0  0  0  0  0  0
    3.0120    0.6760    2.1900 O   0  0  0  0  0  0  0  0  0  0  0  0
    3.9250    0.0450    0.0820 C   0  0  1  0  0  0  0  0  0  0  0  0
    5.0420   -0.4310    1.0310 C   0  0  0  0  0  0  0  0  0  0  0  0
    4.3340   -1.7270    2.1570 P   0  0  0  0  0  0  0  0  0  0  0  0
    4.2170   -1.1040    3.7640 O   0  0  0  0  0  0  0  0  0  0  0  0
    2.7290   -2.1510    1.6330 O   0  0  0  0  0  0  0  0  0  0  0  0
    3.3940   -1.4620   -0.8710 P   0  0  0  0  0  0  0  0  0  0  0  0
    1.9050   -1.8440   -1.0480 O   0  0  0  0  0  0  0  0  0  0  0  0
   -3.6090    0.3980    1.2890 C   0  0  0  0  0  0  0  0  0  0  0  0
   -3.9000   -0.5130    2.1050 O   0  0  0  0  0  0  0  0  0  0  0  0
   -3.3030    1.6290    1.8460 O   0  0  0  0  0  0  0  0  0  0  0  0
  1  2  2  0
  2  3  1  0
  3  4  1  0
  4  5  2  0
  4  6  1  0
  6  7  1  6
  6 28  1  0
  7  8  1  0
  8  9  2  3
  9 10  1  0
  9 15  1  0
 10 11  1  0
 11 12  2  0
 11 13  1  0
 13 14  1  0
 14 15  2  0
 14 18  1  0
 15 16  1  0
 16 17  1  0
 17 18  1  0
 18 19  1  0
 19 20  2  0
 19 21  1  0
 21 22  1  1
 21 26  1  0
 22 23  1  0
 23 24  1  0
 23 25  1  0
 26 27  2  0
 28 29  2  0
 28 30  1  0
M  END
