
     RDKit          3D

 30 31  0  0  0  0  0  0  0  0999 V2000
    3.3850    3.0340   -2.6150 O   0  0  0  0  0  0  0  0  0  0  0  0
    2.0400    2.3860   -2.9730 P   0  0  0  0  0  0  0  0  0  0  0  0
    1.4610    0.9440   -2.2140 O   0  0  0  0  0  0  0  0  0  0  0  0
    2.1420    0.6890   -1.0180 C   0  0  1  0  0  0  0  0  0  0  0  0
    3.5440    0.5300   -1.2910 N   0  0  0  0  0  0  0  0  0  0  0  0
    4.5200    0.2640   -0.2940 C   0  0  0  0  0  0  0  0  0  0  0  0
    4.1910    0.1490    0.9010 O   0  0  0  0  0  0  0  0  0  0  0  0
    5.9000    0.1150   -0.5920 N   0  0  0  0  0  0  0  0  0  0  0  0
    7.1700   -0.2190    0.6250 P   0  0  0  0  0  0  0  0  0  0  0  0
    8.4380   -1.2000   -0.0300 O   0  0  0  0  0  0  0  0  0  0  0  0
    7.7860    1.2700    1.2640 O   0  0  0  0  0  0  0  0  0  0  0  0
    2.0120    1.8970   -0.0790 C   0  0  0  0  0  0  0  0  0  0  0  0
    0.6600    2.1630   -0.0470 O   0  0  0  0  0  0  0  0  0  0  0  0
    0.0000    1.0990    0.4820 C   0  0  0  0  0  0  0  0  0  0  0  0
    0.6810   -0.2150    0.5330 C   0  0  1  0  0  0  0  0  0  0  0  0
   -0.3700   -1.2970    0.4080 C   0  0  0  0  0  0  0  0  0  0  0  0
   -1.5940   -0.9730    0.2210 N   0  0  0  0  0  0  0  0  0  0  0  0
   -2.7220   -1.8440    0.0780 C   0  0  1  0  0  0  0  0  0  0  0  0
   -3.2590   -1.6230   -1.1950 O   0  0  0  0  0  0  0  0  0  0  0  0
   -4.5500   -1.1580   -1.1900 C   0  0  0  0  0  0  0  0  0  0  0  0
   -4.7340    0.1690   -0.5000 C   0  0  0  0  0  0  0  0  0  0  0  0
   -6.0790    0.5100   -0.5760 O   0  0  0  0  0  0  0  0  0  0  0  0
   -6.4320    2.0090    0.1740 P   0  0  0  0  0  0  0  0  0  0  0  0
   -5.2930    2.4730    1.3710 O   0  0  0  0  0  0  0  0  0  0  0  0
   -8.0540    2.1680    0.6980 O   0  0  0  0  0  0  0  0  0  0  0  0
   -2.3790   -3.2780    0.1850 C   0  0  0  0  0  0  0  0  0  0  0  0
   -3.3020   -4.1670    0.0920 O   0  0  0  0  0  0  0  0  0  0  0  0
   -1.0350   -3.6550    0.3880 N   0  0  0  0  0  0  0  0  0  0  0  0
   -0.0550   -2.6790    0.4970 N   0  0  0  0  0  0  0  0  0  0  0  0
    1.6840   -0.4390   -0.3910 O   0  0  0  0  0  0  0  0  0  0  0  0
  1  2  2  0
  2  3  1  0
  3  4  1  0
  4  5  1  6
  4 12  1  0
  4 30  1  0
  5  6  1  0
  6  7  2  0
  6  8  1  0
  8  9  1  0
  9 10  1  0
  9 11  1  0
 12 13  1  0
 13 14  1  0
 14 15  1  0
 15 16  1  6
 15 30  1  0
 16 17  2  0
 16 29  1  0
 17 18  1  0
 18 19  1  6
 18 26  1  0
 19 20  1  0
 20 21  1  0
 21 22  1  0
 22 23  1  0
 23 24  1  0
 23 25  1  0
 26 27  2  0
 26 28  1  0
 28 29  1  0
M  END
