
     RDKit          3D

 30 31  0  0  0  0  0  0  0  0999 V2000
   -5.8050   -0.1770    3.2520 O   0  0  0  0  0  0  0  0  0  0  0  0
   -4.7250    0.3090    2.8430 C   0  0  0  0  0  0  0  0  0  0  0  0
   -3.6950    0.5880    3.7370 O   0  0  0  0  0  0  0  0  0  0  0  0
   -4.6000    0.5590    1.4430 N   0  0  0  0  0  0  0  0  0  0  0  0
   -5.6230    0.2870    0.5230 C   0  0  0  0  0  0  0  0  0  0  0  0
   -6.7050   -0.1970    0.9880 O   0  0  0  0  0  0  0  0  0  0  0  0
   -5.5670    0.5070   -0.9220 C   0  0  0  0  0  0  0  0  0  0  0  0
   -4.3380    0.9590   -1.4160 O   0  0  0  0  0  0  0  0  0  0  0  0
   -3.1510    0.2730   -1.3500 C   0  0  0  0  0  0  0  0  0  0  0  0
   -3.1370   -0.8640   -0.8110 O   0  0  0  0  0  0  0  0  0  0  0  0
   -1.9220    0.7730   -1.8590 N   0  0  0  0  0  0  0  0  0  0  0  0
   -0.6710    0.0160   -1.7740 C   0  0  2  0  0  0  0  0  0  0  0  0
   -0.9060   -1.5710   -2.7570 P   0  0  0  0  0  0  0  0  0  0  0  0
   -1.4130   -2.8570   -1.7120 O   0  0  0  0  0  0  0  0  0  0  0  0
    0.5780   -1.9620   -3.5690 O   0  0  0  0  0  0  0  0  0  0  0  0
   -0.2960   -0.2810   -0.3580 C   0  0  0  0  0  0  0  0  0  0  0  0
    1.0410    0.1130    0.0170 N   0  0  0  0  0  0  0  0  0  0  0  0
    1.8660   -0.7240    0.8990 C   0  0  0  0  0  0  0  0  0  0  0  0
    3.1960   -0.0870    1.0830 C   0  0  1  0  0  0  0  0  0  0  0  0
    4.1380   -0.4760    0.1390 O   0  0  0  0  0  0  0  0  0  0  0  0
    5.5140   -1.2410    0.8120 P   0  0  0  0  0  0  0  0  0  0  0  0
    6.6610   -1.5050   -0.4730 O   0  0  0  0  0  0  0  0  0  0  0  0
    6.4960    0.0400    2.3100 P   0  0  0  0  0  0  0  0  0  0  0  0
    6.8270    1.5830    1.5860 O   0  0  0  0  0  0  0  0  0  0  0  0
    5.4330    0.3010    3.6580 O   0  0  0  0  0  0  0  0  0  0  0  0
    3.1580    1.3480    1.0300 O   0  0  0  0  0  0  0  0  0  0  0  0
    2.5290    1.9680   -0.0370 N   0  0  0  0  0  0  0  0  0  0  0  0
    1.5050    1.3490   -0.5110 C   0  0  0  0  0  0  0  0  0  0  0  0
    0.7560    1.9180   -1.6570 C   0  0  0  0  0  0  0  0  0  0  0  0
    0.3700    0.7500   -2.4660 N   0  0  0  0  0  0  0  0  0  0  0  0
  1  2  2  0
  2  3  1  0
  2  4  1  0
  4  5  1  0
  5  6  2  0
  5  7  1  0
  7  8  1  0
  8  9  1  0
  9 10  2  0
  9 11  1  0
 12 11  1  1
 12 13  1  0
 12 16  1  0
 12 30  1  0
 13 14  1  0
 13 15  1  0
 16 17  1  0
 17 18  1  0
 17 28  1  0
 18 19  1  0
 19 20  1  6
 19 26  1  0
 20 21  1  0
 21 22  1  0
 21 23  1  0
 23 24  1  0
 23 25  1  0
 26 27  1  0
 27 28  2  0
 28 29  1  0
 29 30  1  0
M  END
