
     RDKit          3D

 31 32  0  0  0  0  0  0  0  0999 V2000
   -3.1810   -1.1760    0.6710 N   0  0  0  0  0  0  0  0  0  0  0  0
   -2.5830   -0.2340    0.0340 C   0  0  0  0  0  0  0  0  0  0  0  0
   -1.1580   -0.0440    0.1540 N   0  0  0  0  0  0  0  0  0  0  0  0
   -0.4500    0.3910   -1.0090 C   0  0  0  0  0  0  0  0  0  0  0  0
    1.0070    0.3900   -0.7630 C   0  0  0  0  0  0  0  0  0  0  0  0
    1.6450    1.4040   -0.2800 N   0  0  0  0  0  0  0  0  0  0  0  0
    3.0030    1.0980   -0.1620 N   0  0  0  0  0  0  0  0  0  0  0  0
    4.0290    1.9840    0.3370 C   0  0  1  0  0  0  0  0  0  0  0  0
    4.9810    1.4240    1.3330 C   0  0  0  0  0  0  0  0  0  0  0  0
    6.0060    2.1250    0.6240 O   0  0  0  0  0  0  0  0  0  0  0  0
    5.2310    2.0930   -0.5070 C   0  0  0  0  0  0  0  0  0  0  0  0
    5.4270    2.1340   -1.7440 O   0  0  0  0  0  0  0  0  0  0  0  0
    3.2300   -0.2280   -0.6120 C   0  0  0  0  0  0  0  0  0  0  0  0
    4.3590   -0.7800   -0.6100 O   0  0  0  0  0  0  0  0  0  0  0  0
    1.9050   -0.7430   -1.0440 C   0  0  1  0  0  0  0  0  0  0  0  0
    1.6300   -1.9170   -0.4020 O   0  0  0  0  0  0  0  0  0  0  0  0
    1.5140   -2.8650   -1.3090 O   0  0  0  0  0  0  0  0  0  0  0  0
    1.5960   -4.4440   -0.6050 P   0  0  0  0  0  0  0  0  0  0  0  0
    3.0290   -4.9680   -0.2380 O   0  0  0  0  0  0  0  0  0  0  0  0
   -0.4890   -0.2460    1.4090 C   0  0  0  0  0  0  0  0  0  0  0  0
   -0.7180   -1.9380    2.1160 P   0  0  0  0  0  0  0  0  0  0  0  0
   -2.1310   -1.9390    3.1200 O   0  0  0  0  0  0  0  0  0  0  0  0
    0.6410   -2.2320    3.1850 O   0  0  0  0  0  0  0  0  0  0  0  0
   -3.3880    0.6130   -0.8000 N   0  0  0  0  0  0  0  0  0  0  0  0
   -4.1410    0.0900   -1.8760 C   0  0  0  0  0  0  0  0  0  0  0  0
   -4.8270    0.8760   -2.5750 O   0  0  0  0  0  0  0  0  0  0  0  0
   -4.1680   -1.2470   -2.2100 O   0  0  0  0  0  0  0  0  0  0  0  0
   -4.8660   -1.7740   -3.2160 O   0  0  0  0  0  0  0  0  0  0  0  0
   -3.4170    2.3630   -0.4360 P   0  0  0  0  0  0  0  0  0  0  0  0
   -3.4970    2.5450    1.3000 O   0  0  0  0  0  0  0  0  0  0  0  0
   -4.8190    3.1490   -1.1030 O   0  0  0  0  0  0  0  0  0  0  0  0
  1  2  2  0
  2  3  1  0
  2 24  1  0
  3  4  1  0
  3 20  1  0
  4  5  1  0
  5  6  2  0
  5 15  1  0
  6  7  1  0
  8  7  1  6
  7 13  1  0
  8  9  1  0
  8 11  1  0
  9 10  1  0
 10 11  1  0
 11 12  2  0
 13 14  2  0
 13 15  1  0
 15 16  1  1
 16 17  1  0
 17 18  1  0
 18 19  2  0
 20 21  1  0
 21 22  1  0
 21 23  1  0
 24 25  1  0
 24 29  1  0
 25 26  2  0
 25 27  1  0
 27 28  1  0
 29 30  1  0
 29 31  1  0
M  END
