
     RDKit          3D

 30 31  0  0  0  0  0  0  0  0999 V2000
    2.6160    2.9220    4.2090 O   0  0  0  0  0  0  0  0  0  0  0  0
    3.0140    1.4600    3.8340 P   0  0  0  0  0  0  0  0  0  0  0  0
    2.6670    0.8340    2.1690 N   0  0  0  0  0  0  0  0  0  0  0  0
    1.5860    1.2830    1.4660 C   0  0  0  0  0  0  0  0  0  0  0  0
    0.9560    2.1340    1.8600 O   0  0  0  0  0  0  0  0  0  0  0  0
    1.1540    0.6580    0.1650 C   0  0  1  0  0  0  0  0  0  0  0  0
    2.0300    1.2950   -0.9160 C   0  0  0  0  0  0  0  0  0  0  0  0
    2.5750    0.2450   -1.6450 O   0  0  0  0  0  0  0  0  0  0  0  0
    4.3210    0.4970   -1.6900 P   0  0  0  0  0  0  0  0  0  0  0  0
    4.9050    0.5290   -0.0190 O   0  0  0  0  0  0  0  0  0  0  0  0
    5.0090   -0.9650   -2.3730 O   0  0  0  0  0  0  0  0  0  0  0  0
    1.3470   -0.7600   -0.0570 N   0  0  0  0  0  0  0  0  0  0  0  0
    0.4160   -1.1880   -0.9560 C   0  0  0  0  0  0  0  0  0  0  0  0
    0.3390   -2.1080   -1.6930 O   0  0  0  0  0  0  0  0  0  0  0  0
   -0.6880   -0.2360   -0.7250 C   0  0  1  0  0  0  0  0  0  0  0  0
   -1.5160    0.1760   -2.0810 C   0  0  0  0  0  0  0  0  0  0  0  0
   -2.6700    0.7060   -1.2940 O   0  0  0  0  0  0  0  0  0  0  0  0
   -2.6850    2.0720   -1.0850 C   0  0  0  0  0  0  0  0  0  0  0  0
   -2.0100    2.9020   -1.6240 O   0  0  0  0  0  0  0  0  0  0  0  0
   -3.6190    2.4550   -0.0550 O   0  0  0  0  0  0  0  0  0  0  0  0
   -3.4340    4.0780    0.6710 P   0  0  0  0  0  0  0  0  0  0  0  0
   -4.0970    5.2690    0.0600 O   0  0  0  0  0  0  0  0  0  0  0  0
   -1.6560   -1.0280    0.1460 C   0  0  0  0  0  0  0  0  0  0  0  0
   -2.1680   -0.7570    1.2380 N   0  0  0  0  0  0  0  0  0  0  0  0
   -2.8760   -1.7260    1.9970 C   0  0  0  0  0  0  0  0  0  0  0  0
   -3.4170   -1.4450    3.1120 O   0  0  0  0  0  0  0  0  0  0  0  0
   -2.9700   -3.0550    1.5250 N   0  0  0  0  0  0  0  0  0  0  0  0
   -2.8320   -3.3520    0.1540 C   0  0  0  0  0  0  0  0  0  0  0  0
   -2.0830   -2.2850   -0.5260 N   0  0  0  0  0  0  0  0  0  0  0  0
   -0.2460    0.8140    0.0360 O   0  0  0  0  0  0  0  0  0  0  0  0
  1  2  2  0
  2  3  1  0
  3  4  1  0
  4  5  2  0
  4  6  1  0
  6  7  1  6
  6 12  1  0
  6 30  1  0
  7  8  1  0
  8  9  1  0
  9 10  1  0
  9 11  1  0
 12 13  1  0
 13 14  2  0
 13 15  1  0
 15 16  1  6
 15 23  1  0
 15 30  1  0
 16 17  1  0
 17 18  1  0
 18 19  2  0
 18 20  1  0
 20 21  1  0
 21 22  2  0
 23 24  2  0
 23 29  1  0
 24 25  1  0
 25 26  2  0
 25 27  1  0
 27 28  1  0
 28 29  1  0
M  END
