
     RDKit          3D

 30 31  0  0  0  0  0  0  0  0999 V2000
    3.4550    2.1090   -1.2150 N   0  0  0  0  0  0  0  0  0  0  0  0
    3.1300    1.5680   -0.0970 C   0  0  0  0  0  0  0  0  0  0  0  0
    3.7120    2.0090    1.1210 N   0  0  0  0  0  0  0  0  0  0  0  0
    4.4570    3.6270    1.2410 P   0  0  0  0  0  0  0  0  0  0  0  0
    5.8430    3.7550    0.2260 O   0  0  0  0  0  0  0  0  0  0  0  0
    3.2970    4.8620    0.8550 O   0  0  0  0  0  0  0  0  0  0  0  0
    2.1660    0.5000   -0.0670 N   0  0  0  0  0  0  0  0  0  0  0  0
    0.8010    0.8660   -0.3090 C   0  0  0  0  0  0  0  0  0  0  0  0
   -0.1220   -0.2840   -0.2610 C   0  0  0  0  0  0  0  0  0  0  0  0
    0.3530   -1.4240   -0.0230 O   0  0  0  0  0  0  0  0  0  0  0  0
   -1.5080   -0.1630   -0.4680 N   0  0  0  0  0  0  0  0  0  0  0  0
   -2.2800    1.0550   -0.7580 C   0  0  0  0  0  0  0  0  0  0  0  0
   -3.6420    0.8190   -0.1830 C   0  0  1  0  0  0  0  0  0  0  0  0
   -3.9630    1.7140    0.8420 O   0  0  0  0  0  0  0  0  0  0  0  0
   -4.7350    0.8930   -1.2200 C   0  0  0  0  0  0  0  0  0  0  0  0
   -5.9850    0.5150   -0.5460 N   0  0  0  0  0  0  0  0  0  0  0  0
   -3.5750   -0.5540    0.4310 C   0  0  2  0  0  0  0  0  0  0  0  0
   -3.0370   -0.4490    1.7120 O   0  0  0  0  0  0  0  0  0  0  0  0
   -3.2220   -1.7110    2.3220 C   0  0  0  0  0  0  0  0  0  0  0  0
   -2.3880   -2.6040    1.6020 O   0  0  0  0  0  0  0  0  0  0  0  0
   -2.0850   -2.4260    0.2660 C   0  0  0  0  0  0  0  0  0  0  0  0
   -1.4500   -3.3130   -0.3340 O   0  0  0  0  0  0  0  0  0  0  0  0
   -2.4990   -1.2130   -0.4450 C   0  0  2  0  0  0  0  0  0  0  0  0
    2.7550   -1.1460    0.2630 P   0  0  0  0  0  0  0  0  0  0  0  0
    4.3170   -1.0990    0.9740 O   0  0  0  0  0  0  0  0  0  0  0  0
    5.2700   -0.9030    0.0820 O   0  0  0  0  0  0  0  0  0  0  0  0
    2.8190   -2.1300   -1.1610 O   0  0  0  0  0  0  0  0  0  0  0  0
    3.2440   -3.7440   -0.6630 P   0  0  0  0  0  0  0  0  0  0  0  0
    4.8680   -3.8200   -0.0850 O   0  0  0  0  0  0  0  0  0  0  0  0
    3.0630   -4.8020   -2.0270 O   0  0  0  0  0  0  0  0  0  0  0  0
  1  2  2  0
  2  3  1  0
  2  7  1  0
  3  4  1  0
  4  5  1  0
  4  6  1  0
  7  8  1  0
  7 24  1  0
  8  9  1  0
  9 10  2  0
  9 11  1  0
 11 12  1  0
 23 11  1  1
 12 13  1  0
 13 14  1  1
 13 15  1  0
 13 17  1  0
 15 16  1  0
 17 18  1  1
 17 23  1  0
 18 19  1  0
 19 20  1  0
 20 21  1  0
 21 22  2  0
 21 23  1  0
 24 25  1  0
 24 27  1  0
 25 26  1  0
 27 28  1  0
 28 29  1  0
 28 30  1  0
M  END
