
     RDKit          3D

 30 31  0  0  0  0  0  0  0  0999 V2000
    5.6020    0.7190    0.9750 N   0  0  0  0  0  0  0  0  0  0  0  0
    5.8430    0.4990   -0.2620 C   0  0  0  0  0  0  0  0  0  0  0  0
    4.8010    0.7620   -1.2020 N   0  0  0  0  0  0  0  0  0  0  0  0
    3.4760    0.7670   -0.8450 O   0  0  0  0  0  0  0  0  0  0  0  0
    2.7950   -0.3250   -0.3620 C   0  0  0  0  0  0  0  0  0  0  0  0
    3.4120   -1.4090   -0.2340 O   0  0  0  0  0  0  0  0  0  0  0  0
    1.3720   -0.2730    0.0080 C   0  0  1  0  0  0  0  0  0  0  0  0
    1.0930    0.7300    1.1050 C   0  0  0  0  0  0  0  0  0  0  0  0
    1.1810    2.0350    0.6990 O   0  0  0  0  0  0  0  0  0  0  0  0
    0.4680    2.3330   -0.4430 C   0  0  0  0  0  0  0  0  0  0  0  0
    0.6920    1.4730   -1.4900 O   0  0  0  0  0  0  0  0  0  0  0  0
    0.5550    0.1440   -1.1940 C   0  0  2  0  0  0  0  0  0  0  0  0
   -0.8510   -0.2740   -0.9550 C   0  0  0  0  0  0  0  0  0  0  0  0
   -1.5000   -1.3580   -1.4180 N   0  0  0  0  0  0  0  0  0  0  0  0
   -2.7030   -1.3440   -0.9740 O   0  0  0  0  0  0  0  0  0  0  0  0
   -2.9240   -0.2920   -0.2180 C   0  0  0  0  0  0  0  0  0  0  0  0
   -4.2090    0.0470    0.4650 C   0  0  1  0  0  0  0  0  0  0  0  0
   -5.2090    0.3630   -0.6180 C   0  0  0  0  0  0  0  0  0  0  0  0
   -4.6820    1.4580   -1.3380 O   0  0  0  0  0  0  0  0  0  0  0  0
   -5.4960    1.8100   -2.3180 O   0  0  0  0  0  0  0  0  0  0  0  0
   -4.7140   -1.2510    1.6170 P   0  0  0  0  0  0  0  0  0  0  0  0
   -3.7130   -2.6440    1.5370 O   0  0  0  0  0  0  0  0  0  0  0  0
   -6.8150   -1.7220    1.6790 P   0  0  0  0  0  0  0  0  0  0  0  0
   -7.1450   -3.3020    1.0360 O   0  0  0  0  0  0  0  0  0  0  0  0
   -7.8440   -0.5940    0.9180 O   0  0  0  0  0  0  0  0  0  0  0  0
   -1.7580    0.3800   -0.2070 N   0  0  0  0  0  0  0  0  0  0  0  0
    7.1170    0.0070   -0.6650 N   0  0  0  0  0  0  0  0  0  0  0  0
    8.1710   -0.8300    0.5260 P   0  0  0  0  0  0  0  0  0  0  0  0
    8.7280    0.3310    1.7040 O   0  0  0  0  0  0  0  0  0  0  0  0
    7.2400   -2.0910    1.2790 O   0  0  0  0  0  0  0  0  0  0  0  0
  1  2  2  0
  2  3  1  0
  2 27  1  0
  3  4  1  0
  4  5  1  0
  5  6  2  0
  7  5  1  6
  7  8  1  0
  7 12  1  0
  8  9  1  0
  9 10  1  0
 10 11  1  0
 11 12  1  0
 12 13  1  1
 13 14  2  0
 13 26  1  0
 14 15  1  0
 15 16  1  0
 16 17  1  0
 16 26  2  0
 17 18  1  6
 17 21  1  0
 18 19  1  0
 19 20  1  0
 21 22  1  0
 21 23  1  0
 23 24  1  0
 23 25  1  0
 27 28  1  0
 28 29  1  0
 28 30  1  0
M  END
