
     RDKit          3D

 31 33  0  0  0  0  0  0  0  0999 V2000
    1.2160   -0.2980    0.2680 O   0  0  0  0  0  0  0  0  0  0  0  0
    1.5650    0.0620    1.4190 C   0  0  0  0  0  0  0  0  0  0  0  0
    0.5520    0.1940    2.4930 C   0  0  0  0  0  0  0  0  0  0  0  0
   -0.7720   -0.1210    2.0640 N   0  0  0  0  0  0  0  0  0  0  0  0
   -1.1310   -1.4900    1.7090 C   0  0  0  0  0  0  0  0  0  0  0  0
   -2.3070   -1.4320    0.7860 C   0  0  1  0  0  0  0  0  0  0  0  0
   -2.9860   -3.0750    0.3460 P   0  0  0  0  0  0  0  0  0  0  0  0
   -3.0090   -3.3570   -1.3600 O   0  0  0  0  0  0  0  0  0  0  0  0
   -2.2400   -4.3710    1.2100 O   0  0  0  0  0  0  0  0  0  0  0  0
   -3.3560   -0.6580    1.4330 N   0  0  0  0  0  0  0  0  0  0  0  0
   -3.0140    0.7390    1.2340 C   0  0  1  0  0  0  0  0  0  0  0  0
   -2.8240    1.0570   -0.5600 P   0  0  0  0  0  0  0  0  0  0  0  0
   -4.1550    0.3180   -1.4110 O   0  0  0  0  0  0  0  0  0  0  0  0
   -2.8560    3.2040   -1.0360 P   0  0  0  0  0  0  0  0  0  0  0  0
   -3.0730    3.4430   -2.7400 O   0  0  0  0  0  0  0  0  0  0  0  0
   -4.0590    4.0440   -0.1190 O   0  0  0  0  0  0  0  0  0  0  0  0
   -3.8600    1.6230    1.8700 O   0  0  0  0  0  0  0  0  0  0  0  0
   -3.0250    2.6840    2.0320 O   0  0  0  0  0  0  0  0  0  0  0  0
   -1.8100    2.1380    2.4490 N   0  0  0  0  0  0  0  0  0  0  0  0
   -1.7290    0.9340    1.9940 C   0  0  0  0  0  0  0  0  0  0  0  0
    2.9400    0.3310    1.6440 N   0  0  0  0  0  0  0  0  0  0  0  0
    3.9320    0.2070    0.6150 C   0  0  0  0  0  0  0  0  0  0  0  0
    3.7770   -0.1590   -0.6660 N   0  0  0  0  0  0  0  0  0  0  0  0
    4.9720   -0.1470   -1.3050 C   0  0  0  0  0  0  0  0  0  0  0  0
    5.2850   -0.4700   -2.6850 C   0  0  0  0  0  0  0  0  0  0  0  0
    6.4700   -0.3900   -3.0730 O   0  0  0  0  0  0  0  0  0  0  0  0
    4.3050   -0.8580   -3.5630 O   0  0  0  0  0  0  0  0  0  0  0  0
    4.5350   -1.1700   -4.8530 O   0  0  0  0  0  0  0  0  0  0  0  0
    5.0530   -0.1580   -5.4790 O   0  0  0  0  0  0  0  0  0  0  0  0
    5.8660    0.2540   -0.3170 C   0  0  0  0  0  0  0  0  0  0  0  0
    5.2030    0.4530    0.8040 O   0  0  0  0  0  0  0  0  0  0  0  0
  1  2  2  0
  2  3  1  0
  2 21  1  0
  3  4  1  0
  4  5  1  0
  4 20  1  0
  5  6  1  0
  6  7  1  1
  6 10  1  0
  7  8  1  0
  7  9  1  0
 10 11  1  0
 11 12  1  6
 11 17  1  0
 11 20  1  0
 12 13  1  0
 12 14  1  0
 14 15  1  0
 14 16  1  0
 17 18  1  0
 18 19  1  0
 19 20  2  0
 21 22  1  0
 22 23  2  0
 22 31  1  0
 23 24  1  0
 24 25  1  0
 24 30  2  0
 25 26  2  0
 25 27  1  0
 27 28  1  0
 28 29  1  0
 30 31  1  0
M  END
