
     RDKit          3D

 44 48  0  0  0  0  0  0  0  0999 V2000
   -0.5940   -3.0680    2.5420 C   0  0  0  0  0  0  0  0  0  0  0  0
    0.0500   -2.7300    1.3700 N   0  0  0  0  0  0  0  0  0  0  0  0
   -0.1560   -2.3250    0.2400 C   0  0  0  0  0  0  0  0  0  0  0  0
    1.0220   -2.1360   -0.6790 C   0  0  0  0  0  0  0  0  0  0  0  0
    2.2940   -2.3540   -0.3630 C   0  0  0  0  0  0  0  0  0  0  0  0
    2.8170   -2.8140    0.9350 C   0  0  0  0  0  0  0  0  0  0  0  0
    3.5200   -1.7670    1.7360 C   0  0  0  0  0  0  0  0  0  0  0  0
    4.6990   -1.2010    1.1150 N   0  0  0  0  0  0  0  0  0  0  0  0
    5.4010    0.0100    2.1640 S   0  0  2  0  0  0  0  0  0  0  0  0
    6.4020   -0.6090    3.0800 O   0  0  0  0  0  0  0  0  0  0  0  0
    4.3610    0.7060    2.9760 O   0  0  0  0  0  0  0  0  0  0  0  0
    6.2270    1.1510    1.1370 N   0  0  0  0  0  0  0  0  0  0  0  0
    5.6370    1.4630   -0.1020 C   0  0  0  0  0  0  0  0  0  0  0  0
    4.6520    2.4310   -0.3070 C   0  0  0  0  0  0  0  0  0  0  0  0
    4.3320    2.3660   -1.6320 C   0  0  0  0  0  0  0  0  0  0  0  0
    5.0830    1.4040   -2.2190 N   0  0  0  0  0  0  0  0  0  0  0  0
    5.8900    0.8290   -1.3340 C   0  0  0  0  0  0  0  0  0  0  0  0
    6.8190   -0.1320   -1.4900 C   0  0  0  0  0  0  0  0  0  0  0  0
    7.6090   -0.5600   -0.4160 N   0  0  0  0  0  0  0  0  0  0  0  0
    8.9410   -0.0120   -0.2610 C   0  0  0  0  0  0  0  0  0  0  0  0
    3.4230    3.2470   -1.8670 N   0  0  0  0  0  0  0  0  0  0  0  0
    3.0740    3.9680   -0.6930 C   0  0  0  0  0  0  0  0  0  0  0  0
    3.8290    3.4730    0.2860 C   0  0  0  0  0  0  0  0  0  0  0  0
    3.1350   -2.1760   -1.5390 C   0  0  0  0  0  0  0  0  0  0  0  0
    4.3900   -2.2870   -1.6800 O   0  0  0  0  0  0  0  0  0  0  0  0
    2.3130   -1.8280   -2.6360 N   0  0  0  0  0  0  0  0  0  0  0  0
    0.9900   -1.6630   -2.0690 C   0  0  0  0  0  0  0  0  0  0  0  0
   -1.4490   -1.9910   -0.2790 N   0  0  0  0  0  0  0  0  0  0  0  0
   -1.7490   -0.8580   -1.0920 C   0  0  0  0  0  0  0  0  0  0  0  0
   -3.1640   -0.3680   -1.0570 C   0  0  0  0  0  0  0  0  0  0  0  0
   -4.0100   -0.8710   -0.0290 N   0  0  0  0  0  0  0  0  0  0  0  0
   -5.2680   -0.2230    0.2810 C   0  0  0  0  0  0  0  0  0  0  0  0
   -5.9780   -0.6800    1.1970 O   0  0  0  0  0  0  0  0  0  0  0  0
   -5.7010    0.9060   -0.4290 N   0  0  0  0  0  0  0  0  0  0  0  0
   -6.8940    1.6440   -0.2410 C   0  0  0  0  0  0  0  0  0  0  0  0
   -7.2740    2.5450   -1.2430 C   0  0  0  0  0  0  0  0  0  0  0  0
   -8.4110    3.3140   -1.1480 C   0  0  0  0  0  0  0  0  0  0  0  0
   -9.2450    3.2390   -0.0510 C   0  0  0  0  0  0  0  0  0  0  0  0
  -10.4800    4.0620    0.0560 C   0  0  0  0  0  0  0  0  0  0  0  0
   -8.8890    2.3580    0.9480 C   0  0  0  0  0  0  0  0  0  0  0  0
   -9.9090    2.2320    2.3720 Cl  0  0  0  0  0  0  0  0  0  0  0  0
   -7.7280    1.5780    0.8410 C   0  0  0  0  0  0  0  0  0  0  0  0
   -3.6780   -2.0410    0.7270 C   0  0  0  0  0  0  0  0  0  0  0  0
   -2.5930   -2.8540    0.0410 C   0  0  0  0  0  0  0  0  0  0  0  0
  1  2  1  0
  2  3  2  3
  3  4  1  0
  3 28  1  0
  4  5  2  0
  4 27  1  0
  5  6  1  0
  5 24  1  0
  6  7  1  0
  7  8  1  0
  9  8  1  6
  9 10  2  0
  9 11  2  0
  9 12  1  0
 12 13  1  0
 13 14  2  0
 13 17  1  0
 14 15  1  0
 14 23  1  0
 15 16  1  0
 15 21  2  0
 16 17  1  0
 17 18  2  3
 18 19  1  0
 19 20  1  0
 21 22  1  0
 22 23  2  0
 24 25  2  0
 24 26  1  0
 26 27  1  0
 28 29  1  0
 28 44  1  0
 29 30  1  0
 30 31  1  0
 31 32  1  0
 31 43  1  0
 32 33  2  0
 32 34  1  0
 34 35  1  0
 35 36  2  0
 35 42  1  0
 36 37  1  0
 37 38  2  0
 38 39  1  0
 38 40  1  0
 40 41  1  0
 40 42  2  0
 43 44  1  0
M  END
