
     RDKit          3D

 43 47  0  0  0  0  0  0  0  0999 V2000
   -6.9560    0.3900   -3.5500 C   0  0  0  0  0  0  0  0  0  0  0  0
   -6.6380   -0.3130   -2.3100 N   0  0  0  0  0  0  0  0  0  0  0  0
   -5.5210    0.0190   -1.5230 C   0  0  0  0  0  0  0  0  0  0  0  0
   -4.8010    0.9770   -1.9670 O   0  0  0  0  0  0  0  0  0  0  0  0
   -5.1360   -0.6300   -0.2810 C   0  0  1  0  0  0  0  0  0  0  0  0
   -3.8660   -0.0450    0.2300 N   0  0  0  0  0  0  0  0  0  0  0  0
   -2.7060   -0.8300    0.3820 C   0  0  0  0  0  0  0  0  0  0  0  0
   -2.8720   -2.0770    0.0330 O   0  0  0  0  0  0  0  0  0  0  0  0
   -1.4390   -0.4300    0.8490 N   0  0  0  0  0  0  0  0  0  0  0  0
   -0.3780   -1.5110    0.8490 C   0  0  0  0  0  0  0  0  0  0  0  0
    0.8160   -0.8670    0.1480 C   0  0  0  0  0  0  0  0  0  0  0  0
    0.4040    0.2700   -0.6000 N   0  0  0  0  0  0  0  0  0  0  0  0
    1.2030    0.6550   -1.6990 C   0  0  0  0  0  0  0  0  0  0  0  0
    2.6480    0.9840   -1.2790 C   0  0  0  0  0  0  0  0  0  0  0  0
    2.8900    2.2930   -0.8040 C   0  0  0  0  0  0  0  0  0  0  0  0
    4.7030    2.0820   -0.4910 S   0  0  0  0  0  0  0  0  0  0  0  0
    4.8490    0.4170   -1.0010 C   0  0  0  0  0  0  0  0  0  0  0  0
    6.0470   -0.4020   -1.0190 C   0  0  0  0  0  0  0  0  0  0  0  0
    6.0540   -1.6980   -1.4360 C   0  0  0  0  0  0  0  0  0  0  0  0
    7.3090   -2.1660   -1.3330 N   0  0  0  0  0  0  0  0  0  0  0  0
    8.0720   -1.1950   -0.8650 N   0  0  0  0  0  0  0  0  0  0  0  0
    9.4860   -1.2970   -0.6140 C   0  0  0  0  0  0  0  0  0  0  0  0
   10.3140   -0.3910   -1.2570 C   0  0  0  0  0  0  0  0  0  0  0  0
   11.6720   -0.4760   -1.0270 C   0  0  0  0  0  0  0  0  0  0  0  0
   12.1450   -1.4560   -0.1690 C   0  0  0  0  0  0  0  0  0  0  0  0
   11.2910   -2.3140    0.4320 N   0  0  0  0  0  0  0  0  0  0  0  0
    9.9560   -2.2570    0.2280 C   0  0  0  0  0  0  0  0  0  0  0  0
    8.8950   -3.3870    1.0250 Cl  0  0  0  0  0  0  0  0  0  0  0  0
    7.3220   -0.1000   -0.6630 C   0  0  0  0  0  0  0  0  0  0  0  0
    7.7600    1.2270   -0.1450 C   0  0  0  0  0  0  0  0  0  0  0  0
    3.5740    0.1440   -1.3570 N   0  0  0  0  0  0  0  0  0  0  0  0
   -0.0570    1.3800    0.1880 C   0  0  0  0  0  0  0  0  0  0  0  0
   -0.9390    0.7980    1.3210 C   0  0  1  0  0  0  0  0  0  0  0  0
   -1.8270    1.8550    1.8180 C   0  0  0  0  0  0  0  0  0  0  0  0
   -2.6560    1.4100    2.9850 C   0  0  0  0  0  0  0  0  0  0  0  0
   -2.5430    0.0940    3.4920 N   0  0  0  0  0  0  0  0  0  0  0  0
   -3.4620    2.1950    3.5300 O   0  0  0  0  0  0  0  0  0  0  0  0
   -6.0940   -0.5860    0.8540 C   0  0  1  0  0  0  0  0  0  0  0  0
   -6.4620    0.8070    1.3010 C   0  0  0  0  0  0  0  0  0  0  0  0
   -7.6760    0.8480    2.1790 C   0  0  0  0  0  0  0  0  0  0  0  0
   -8.7560    0.1360    1.7240 O   0  0  0  0  0  0  0  0  0  0  0  0
   -8.5100   -0.5600    0.5400 C   0  0  0  0  0  0  0  0  0  0  0  0
   -7.2920   -1.4460    0.7360 C   0  0  0  0  0  0  0  0  0  0  0  0
  1  2  1  0
  2  3  1  0
  3  4  2  0
  3  5  1  0
  5  6  1  1
  5 38  1  0
  6  7  1  0
  7  8  2  0
  7  9  1  0
  9 10  1  0
  9 33  1  0
 10 11  1  0
 11 12  1  0
 12 13  1  0
 12 32  1  0
 13 14  1  0
 14 15  2  0
 14 31  1  0
 15 16  1  0
 16 17  1  0
 17 18  1  0
 17 31  2  0
 18 19  1  0
 18 29  2  0
 19 20  2  0
 20 21  1  0
 21 22  1  0
 21 29  1  0
 22 23  2  0
 22 27  1  0
 23 24  1  0
 24 25  2  0
 25 26  1  0
 26 27  2  0
 27 28  1  0
 29 30  1  0
 32 33  1  0
 33 34  1  6
 34 35  1  0
 35 36  1  0
 35 37  2  0
 38 39  1  6
 38 43  1  0
 39 40  1  0
 40 41  1  0
 41 42  1  0
 42 43  1  0
M  END
