
     RDKit          3D

 44 48  0  0  0  0  0  0  0  0999 V2000
   -8.0390    3.2000    0.5560 C   0  0  0  0  0  0  0  0  0  0  0  0
   -8.0820    1.7180    0.9040 C   0  0  0  0  0  0  0  0  0  0  0  0
   -7.6250    0.8930   -0.1700 N   0  0  0  0  0  0  0  0  0  0  0  0
   -6.3200    0.5220   -0.3280 C   0  0  0  0  0  0  0  0  0  0  0  0
   -5.3530    0.8390    0.4020 N   0  0  0  0  0  0  0  0  0  0  0  0
   -4.0070    0.5860    0.4250 C   0  0  0  0  0  0  0  0  0  0  0  0
   -3.2440    1.6240    0.5420 O   0  0  0  0  0  0  0  0  0  0  0  0
   -3.3190   -0.7420    0.3360 C   0  0  2  0  0  0  0  0  0  0  0  0
   -4.0210   -1.8150    1.1190 C   0  0  0  0  0  0  0  0  0  0  0  0
   -3.8250   -1.4690    2.5810 C   0  0  0  0  0  0  0  0  0  0  0  0
   -2.3600   -1.6420    2.8910 C   0  0  0  0  0  0  0  0  0  0  0  0
   -1.4600   -0.9180    1.9160 C   0  0  0  0  0  0  0  0  0  0  0  0
   -1.9580   -0.6280    0.6670 N   0  0  0  0  0  0  0  0  0  0  0  0
   -0.8790   -0.7700   -0.6170 S   0  0  2  0  0  0  0  0  0  0  0  0
   -1.6460   -0.3680   -1.8830 O   0  0  0  0  0  0  0  0  0  0  0  0
   -0.4720   -2.2010   -0.8800 O   0  0  0  0  0  0  0  0  0  0  0  0
    0.5230    0.2920   -0.5620 C   0  0  0  0  0  0  0  0  0  0  0  0
    1.4340    0.1170    0.5890 C   0  0  0  0  0  0  0  0  0  0  0  0
    2.1170   -1.1960    0.7190 C   0  0  0  0  0  0  0  0  0  0  0  0
    3.0000   -1.5320   -0.3900 N   0  0  0  0  0  0  0  0  0  0  0  0
    4.2540   -1.2130   -0.2380 C   0  0  0  0  0  0  0  0  0  0  0  0
    4.7120   -0.5720    0.9520 N   0  0  0  0  0  0  0  0  0  0  0  0
    5.9440   -0.2810    1.1110 C   0  0  0  0  0  0  0  0  0  0  0  0
    6.3740    0.3530    2.2970 N   0  0  0  0  0  0  0  0  0  0  0  0
    6.9790   -0.5800    0.0920 C   0  0  0  0  0  0  0  0  0  0  0  0
    8.1900   -0.2690    0.3080 N   0  0  0  0  0  0  0  0  0  0  0  0
    9.2480   -0.4790   -0.5230 N   0  0  0  0  0  0  0  0  0  0  0  0
   10.2270    0.5370   -0.6970 C   0  0  0  0  0  0  0  0  0  0  0  0
   11.1750    0.8040    0.2900 C   0  0  0  0  0  0  0  0  0  0  0  0
   12.1480    1.7780    0.1250 C   0  0  0  0  0  0  0  0  0  0  0  0
   12.1700    2.4900   -1.0390 C   0  0  0  0  0  0  0  0  0  0  0  0
   13.3870    3.7210   -1.2800 Cl  0  0  0  0  0  0  0  0  0  0  0  0
   11.2300    2.2380   -2.0370 C   0  0  0  0  0  0  0  0  0  0  0  0
   10.2780    1.2730   -1.8550 C   0  0  0  0  0  0  0  0  0  0  0  0
    6.5390   -1.2260   -1.1160 C   0  0  0  0  0  0  0  0  0  0  0  0
    7.3180   -1.5270   -2.0460 O   0  0  0  0  0  0  0  0  0  0  0  0
    5.1530   -1.5420   -1.2710 N   0  0  0  0  0  0  0  0  0  0  0  0
   -6.2870   -0.2410   -1.4290 N   0  0  0  0  0  0  0  0  0  0  0  0
   -7.5030   -0.3750   -1.9780 C   0  0  0  0  0  0  0  0  0  0  0  0
   -8.0120   -1.0410   -3.0900 C   0  0  0  0  0  0  0  0  0  0  0  0
   -9.3450   -1.0030   -3.4170 C   0  0  0  0  0  0  0  0  0  0  0  0
  -10.1770   -0.2760   -2.6010 C   0  0  0  0  0  0  0  0  0  0  0  0
   -9.6890    0.3830   -1.5060 C   0  0  0  0  0  0  0  0  0  0  0  0
   -8.3420    0.3580   -1.1560 C   0  0  0  0  0  0  0  0  0  0  0  0
  1  2  1  0
  2  3  1  0
  3  4  1  0
  3 44  1  0
  4  5  2  3
  4 38  1  0
  5  6  1  0
  6  7  2  0
  8  6  1  1
  8  9  1  0
  8 13  1  0
  9 10  1  0
 10 11  1  0
 11 12  1  0
 12 13  1  0
 13 14  1  0
 14 15  2  0
 14 16  2  0
 14 17  1  1
 17 18  1  0
 18 19  1  0
 19 20  1  0
 20 21  2  3
 21 22  1  0
 21 37  1  0
 22 23  2  0
 23 24  1  0
 23 25  1  0
 25 26  2  3
 25 35  1  0
 26 27  1  0
 27 28  1  0
 28 29  2  0
 28 34  1  0
 29 30  1  0
 30 31  2  0
 31 32  1  0
 31 33  1  0
 33 34  2  0
 35 36  2  0
 35 37  1  0
 38 39  1  0
 39 40  2  0
 39 44  1  0
 40 41  1  0
 41 42  2  0
 42 43  1  0
 43 44  2  0
M  END
