
     RDKit          3D

 44 46  0  0  0  0  0  0  0  0999 V2000
    1.9030   -2.3390    5.8630 C   0  0  0  0  0  0  0  0  0  0  0  0
    0.7860   -2.3540    4.8480 C   0  0  0  0  0  0  0  0  0  0  0  0
    1.2010   -1.9830    3.5670 O   0  0  0  0  0  0  0  0  0  0  0  0
    2.2030   -2.6020    2.8510 C   0  0  0  0  0  0  0  0  0  0  0  0
    2.7930   -3.5730    3.4140 O   0  0  0  0  0  0  0  0  0  0  0  0
    2.6000   -2.1650    1.4490 C   0  0  1  0  0  0  0  0  0  0  0  0
    3.8560   -2.8560    1.0420 C   0  0  0  0  0  0  0  0  0  0  0  0
    4.4020   -2.5360   -0.2940 C   0  0  0  0  0  0  0  0  0  0  0  0
    4.7790   -1.1080   -0.4740 C   0  0  0  0  0  0  0  0  0  0  0  0
    4.5500   -0.2840    0.4340 O   0  0  0  0  0  0  0  0  0  0  0  0
    5.4090   -0.6350   -1.6640 N   0  0  0  0  0  0  0  0  0  0  0  0
    5.7860    0.7100   -1.8890 C   0  0  0  0  0  0  0  0  0  0  0  0
    5.1080    1.7470   -1.3130 C   0  0  0  0  0  0  0  0  0  0  0  0
    5.4850    3.0800   -1.4880 C   0  0  0  0  0  0  0  0  0  0  0  0
    6.5730    3.3720   -2.2630 C   0  0  0  0  0  0  0  0  0  0  0  0
    7.2800    2.3320   -2.8630 C   0  0  0  0  0  0  0  0  0  0  0  0
    6.8990    1.0370   -2.6830 C   0  0  0  0  0  0  0  0  0  0  0  0
    8.3710    2.7520   -3.6300 O   0  0  0  0  0  0  0  0  0  0  0  0
    9.1920    3.8320   -3.2000 C   0  0  0  0  0  0  0  0  0  0  0  0
    8.3970    4.9650   -2.6310 C   0  0  0  0  0  0  0  0  0  0  0  0
    7.0150    4.6520   -2.4860 O   0  0  0  0  0  0  0  0  0  0  0  0
    1.4600   -2.4390    0.5370 C   0  0  0  0  0  0  0  0  0  0  0  0
    1.6160   -3.5030   -0.1770 O   0  0  0  0  0  0  0  0  0  0  0  0
    0.2810   -1.6770    0.4030 N   0  0  0  0  0  0  0  0  0  0  0  0
    0.1290   -0.4360    1.0800 C   0  0  0  0  0  0  0  0  0  0  0  0
   -0.6560    0.5470    0.2310 C   0  0  0  0  0  0  0  0  0  0  0  0
   -2.0660   -0.1140   -0.0300 C   0  0  1  0  0  0  0  0  0  0  0  0
   -2.9370    0.7750   -0.7820 C   0  0  0  0  0  0  0  0  0  0  0  0
   -4.4110    0.4520   -0.8910 C   0  0  2  0  0  0  0  0  0  0  0  0
   -4.9600    0.5900    0.5890 C   0  0  0  0  0  0  0  0  0  0  0  0
   -4.6930    2.0370    1.0200 C   0  0  1  0  0  0  0  0  0  0  0  0
   -5.3580    3.0230    0.1230 C   0  0  0  0  0  0  0  0  0  0  0  0
   -5.3480    2.2410    2.4100 C   0  0  0  0  0  0  0  0  0  0  0  0
   -5.0800    3.5560    2.7590 O   0  0  0  0  0  0  0  0  0  0  0  0
   -4.8450   -1.1850   -1.3370 S   0  0  0  0  0  0  0  0  0  0  0  0
   -4.4790   -2.1880   -0.1780 O   0  0  0  0  0  0  0  0  0  0  0  0
   -6.5920   -1.4670   -1.5430 C   0  0  1  0  0  0  0  0  0  0  0  0
   -7.4790   -1.2340   -0.3790 C   0  0  0  0  0  0  0  0  0  0  0  0
   -7.1300   -0.8250   -2.8000 C   0  0  0  0  0  0  0  0  0  0  0  0
   -6.7320   -2.9750   -1.8010 C   0  0  0  0  0  0  0  0  0  0  0  0
   -6.8310   -4.0920   -1.9730 N   0  0  0  0  0  0  0  0  0  0  0  0
   -1.5290   -1.1590   -1.0910 C   0  0  2  0  0  0  0  0  0  0  0  0
   -2.3770   -1.5920   -2.0130 O   0  0  0  0  0  0  0  0  0  0  0  0
   -0.7940   -2.2310   -0.3900 C   0  0  0  0  0  0  0  0  0  0  0  0
  1  2  1  0
  2  3  1  0
  3  4  1  0
  4  5  2  0
  4  6  1  0
  6  7  1  6
  6 22  1  0
  7  8  1  0
  8  9  1  0
  9 10  2  0
  9 11  1  0
 11 12  1  0
 12 13  2  0
 12 17  1  0
 13 14  1  0
 14 15  2  0
 15 16  1  0
 15 21  1  0
 16 17  2  0
 16 18  1  0
 18 19  1  0
 19 20  1  0
 20 21  1  0
 22 23  2  0
 22 24  1  0
 24 25  1  0
 24 44  1  0
 25 26  1  0
 26 27  1  0
 27 28  1  6
 27 42  1  0
 29 28  1  1
 29 30  1  0
 35 29  1  1
 30 31  1  0
 31 32  1  6
 31 33  1  0
 33 34  1  0
 35 36  2  0
 35 37  1  0
 37 38  1  1
 37 39  1  0
 37 40  1  0
 40 41  3  0
 42 43  1  1
 42 44  1  0
M  END
