
     RDKit          3D

 44 49  0  0  0  0  0  0  0  0999 V2000
   -4.7260   -3.9550    0.8480 C   0  0  0  0  0  0  0  0  0  0  0  0
   -3.2240   -3.9220    0.9470 C   0  0  0  0  0  0  0  0  0  0  0  0
   -2.5000   -5.1080    1.0280 C   0  0  0  0  0  0  0  0  0  0  0  0
   -1.1250   -5.0320    1.1170 C   0  0  0  0  0  0  0  0  0  0  0  0
   -0.4920   -3.8150    1.1250 C   0  0  0  0  0  0  0  0  0  0  0  0
   -1.2160   -2.6320    1.0450 C   0  0  0  0  0  0  0  0  0  0  0  0
   -0.5430   -1.3530    1.0540 C   0  0  0  0  0  0  0  0  0  0  0  0
    0.7520   -1.3810    1.0940 O   0  0  0  0  0  0  0  0  0  0  0  0
   -1.0910   -0.0520    1.0160 N   0  0  0  0  0  0  0  0  0  0  0  0
   -2.4190    0.0000    1.4690 C   0  0  0  0  0  0  0  0  0  0  0  0
   -2.6000   -0.7600    2.6370 C   0  0  0  0  0  0  0  0  0  0  0  0
   -3.8340   -0.8220    3.2340 C   0  0  0  0  0  0  0  0  0  0  0  0
   -4.9500   -0.1450    2.7200 C   0  0  0  0  0  0  0  0  0  0  0  0
   -4.7780    0.6150    1.5570 C   0  0  0  0  0  0  0  0  0  0  0  0
   -5.8180    1.3150    0.9780 O   0  0  0  0  0  0  0  0  0  0  0  0
   -3.5440    0.6680    0.9730 C   0  0  0  0  0  0  0  0  0  0  0  0
   -3.4620    1.4790   -0.2040 N   0  0  0  0  0  0  0  0  0  0  0  0
   -2.3060    1.9800   -0.8610 C   0  0  0  0  0  0  0  0  0  0  0  0
   -1.0400    1.7890   -0.5540 C   0  0  0  0  0  0  0  0  0  0  0  0
   -0.3280    1.0410    0.5040 C   0  0  2  0  0  0  0  0  0  0  0  0
    0.9740    0.6840   -0.0400 C   0  0  0  0  0  0  0  0  0  0  0  0
    1.1840    0.0520   -1.2420 C   0  0  0  0  0  0  0  0  0  0  0  0
    2.4620   -0.2670   -1.6050 C   0  0  0  0  0  0  0  0  0  0  0  0
    3.5960    0.0100   -0.8210 C   0  0  0  0  0  0  0  0  0  0  0  0
    4.7890   -0.3080   -1.2000 O   0  0  0  0  0  0  0  0  0  0  0  0
    5.9850   -0.6170   -1.5620 C   0  0  0  0  0  0  0  0  0  0  0  0
    6.6280   -1.5630   -0.5730 C   0  0  0  0  0  0  0  0  0  0  0  0
    7.9480   -1.8790   -0.7180 C   0  0  0  0  0  0  0  0  0  0  0  0
    8.5150   -2.7530    0.2010 C   0  0  0  0  0  0  0  0  0  0  0  0
    7.8010   -3.3060    1.2420 C   0  0  0  0  0  0  0  0  0  0  0  0
    6.4720   -2.9550    1.3450 C   0  0  0  0  0  0  0  0  0  0  0  0
    5.8810   -2.0810    0.4350 C   0  0  0  0  0  0  0  0  0  0  0  0
    3.3440    0.6590    0.4080 C   0  0  0  0  0  0  0  0  0  0  0  0
    2.0660    0.9680    0.7500 C   0  0  0  0  0  0  0  0  0  0  0  0
    1.9410    1.5990    1.9710 F   0  0  0  0  0  0  0  0  0  0  0  0
    0.0620    2.7150   -1.6060 S   0  0  2  0  0  0  0  0  0  0  0  0
   -0.0160    2.1930   -3.0010 O   0  0  0  0  0  0  0  0  0  0  0  0
    1.4400    2.7580   -1.1690 O   0  0  0  0  0  0  0  0  0  0  0  0
   -0.7080    4.3460   -1.6500 C   0  0  0  0  0  0  0  0  0  0  0  0
   -2.1850    4.2250   -1.8860 C   0  0  1  0  0  0  0  0  0  0  0  0
   -2.9500    4.9470   -0.7670 C   0  0  0  0  0  0  0  0  0  0  0  0
   -2.5140    4.9850   -3.1580 C   0  0  0  0  0  0  0  0  0  0  0  0
   -2.6610    2.8250   -2.0490 C   0  0  0  0  0  0  0  0  0  0  0  0
   -2.5410   -2.7810    0.9610 N   0  0  0  0  0  0  0  0  0  0  0  0
  1  2  1  0
  2  3  2  0
  2 44  1  0
  3  4  1  0
  4  5  2  0
  5  6  1  0
  6  7  1  0
  6 44  2  0
  7  8  2  0
  7  9  1  0
  9 10  1  0
  9 20  1  0
 10 11  2  0
 10 16  1  0
 11 12  1  0
 12 13  2  0
 13 14  1  0
 14 15  1  0
 14 16  2  0
 16 17  1  0
 17 18  1  0
 18 19  2  0
 18 43  1  0
 19 20  1  0
 19 36  1  0
 20 21  1  6
 21 22  2  0
 21 34  1  0
 22 23  1  0
 23 24  2  0
 24 25  1  0
 24 33  1  0
 25 26  1  0
 26 27  1  0
 27 28  2  0
 27 32  1  0
 28 29  1  0
 29 30  2  0
 30 31  1  0
 31 32  2  0
 33 34  2  0
 34 35  1  0
 36 37  2  0
 36 38  2  0
 36 39  1  6
 39 40  1  0
 40 41  1  1
 40 42  1  0
 40 43  1  0
M  END
