
     RDKit          3D

 44 47  0  0  0  0  0  0  0  0999 V2000
   -8.6740   -1.8880    0.5360 C   0  0  0  0  0  0  0  0  0  0  0  0
   -7.8130   -0.8490    0.5490 O   0  0  0  0  0  0  0  0  0  0  0  0
   -7.7970    0.4780    0.7110 C   0  0  0  0  0  0  0  0  0  0  0  0
   -8.8620    1.2900    0.9830 C   0  0  0  0  0  0  0  0  0  0  0  0
   -8.7650    2.6610    1.1360 C   0  0  0  0  0  0  0  0  0  0  0  0
  -10.2060    3.6000    1.4950 Cl  0  0  0  0  0  0  0  0  0  0  0  0
   -7.5160    3.2070    1.0040 C   0  0  0  0  0  0  0  0  0  0  0  0
   -6.4000    2.4120    0.7280 C   0  0  0  0  0  0  0  0  0  0  0  0
   -6.4910    1.0590    0.5750 C   0  0  0  0  0  0  0  0  0  0  0  0
   -5.4080    0.1860    0.1700 C   0  0  0  0  0  0  0  0  0  0  0  0
   -5.2930   -1.0750    0.6500 N   0  0  0  0  0  0  0  0  0  0  0  0
   -4.2650   -1.6840    0.0390 N   0  0  0  0  0  0  0  0  0  0  0  0
   -3.7240   -0.8320   -0.8220 C   0  0  0  0  0  0  0  0  0  0  0  0
   -2.6410   -1.0850   -1.5210 N   0  0  0  0  0  0  0  0  0  0  0  0
   -2.0700   -2.4630   -1.2050 C   0  0  0  0  0  0  0  0  0  0  0  0
   -1.5460   -2.7230   -0.3120 C   0  0  0  0  0  0  0  0  0  0  0  0
   -0.7640   -3.3890    0.8550 C   0  0  0  0  0  0  0  0  0  0  0  0
   -0.6640   -2.6700    2.0650 N   0  0  0  0  0  0  0  0  0  0  0  0
    0.4130   -1.6570    1.9020 C   0  0  0  0  0  0  0  0  0  0  0  0
    1.4020   -1.0470    2.9000 S   0  0  0  0  0  0  0  0  0  0  0  0
    0.3930   -1.3100    0.4550 N   0  0  0  0  0  0  0  0  0  0  0  0
    1.6330   -1.2490   -0.2380 C   0  0  2  0  0  0  0  0  0  0  0  0
    2.6390   -2.2920    0.1870 C   0  0  0  0  0  0  0  0  0  0  0  0
    3.5710   -2.5950   -0.9560 C   0  0  0  0  0  0  0  0  0  0  0  0
    5.0140   -2.5850   -0.5070 C   0  0  0  0  0  0  0  0  0  0  0  0
    5.3510   -1.1870   -0.1340 N   0  0  0  0  0  0  0  0  0  0  0  0
    6.1960   -1.1230    0.9700 C   0  0  0  0  0  0  0  0  0  0  0  0
    6.2120   -2.1500    1.8060 O   0  0  0  0  0  0  0  0  0  0  0  0
    7.1090   -0.0570    1.3810 C   0  0  0  0  0  0  0  0  0  0  0  0
    7.4640    0.8340    0.3190 N   0  0  0  0  0  0  0  0  0  0  0  0
    8.1570    2.0630    0.4480 C   0  0  0  0  0  0  0  0  0  0  0  0
    8.4900    2.4530    1.5910 O   0  0  0  0  0  0  0  0  0  0  0  0
    8.4730    2.8410   -0.6530 O   0  0  0  0  0  0  0  0  0  0  0  0
    9.1410    4.0650   -0.6080 C   0  0  0  0  0  0  0  0  0  0  0  0
    8.3250    5.0110    0.1360 N   0  0  0  0  0  0  0  0  0  0  0  0
    4.7560    0.0120   -0.6470 C   0  0  0  0  0  0  0  0  0  0  0  0
    3.5260    0.3620    0.2450 C   0  0  0  0  0  0  0  0  0  0  0  0
    2.2280    0.1040   -0.4220 C   0  0  0  0  0  0  0  0  0  0  0  0
   -0.9120   -1.0640    0.0080 C   0  0  0  0  0  0  0  0  0  0  0  0
   -4.4060    0.3030   -0.7510 N   0  0  0  0  0  0  0  0  0  0  0  0
   -4.2530    1.5090   -1.5420 C   0  0  0  0  0  0  0  0  0  0  0  0
   -5.3120    1.5560   -2.6150 C   0  0  0  0  0  0  0  0  0  0  0  0
   -5.3380    2.8580   -3.2250 C   0  0  0  0  0  0  0  0  0  0  0  0
   -5.3400    3.9380   -3.7250 N   0  0  0  0  0  0  0  0  0  0  0  0
  1  2  1  0
  2  3  1  0
  3  4  2  0
  3  9  1  0
  4  5  1  0
  5  6  1  0
  5  7  2  0
  7  8  1  0
  8  9  2  0
  9 10  1  0
 10 11  2  0
 10 40  1  0
 11 12  1  0
 12 13  1  0
 13 14  2  3
 13 40  1  0
 14 15  1  0
 15 16  2  3
 16 17  1  0
 16 39  1  0
 17 18  1  0
 18 19  1  0
 19 20  2  0
 19 21  1  0
 22 21  1  1
 21 39  1  0
 22 23  1  0
 22 38  1  0
 23 24  1  0
 24 25  1  0
 25 26  1  0
 26 27  1  0
 26 36  1  0
 27 28  2  0
 27 29  1  0
 29 30  1  0
 30 31  1  0
 31 32  2  0
 31 33  1  0
 33 34  1  0
 34 35  1  0
 36 37  1  0
 37 38  1  0
 40 41  1  0
 41 42  1  0
 42 43  1  0
 43 44  3  0
M  END
