
     RDKit          3D

 11 12  0  0  0  0  0  0  0  0999 V2000
    0.2770    2.8100   -0.3180 O   0  0  0  0  0  0  0  0  0  0  0  0
   -0.1980    1.5370   -0.0600 C   0  0  0  0  0  0  0  0  0  0  0  0
   -1.5650    1.3720    0.0920 C   0  0  0  0  0  0  0  0  0  0  0  0
   -2.3140    0.2210    0.2400 C   0  0  0  0  0  0  0  0  0  0  0  0
   -1.9000   -1.0600   -0.0990 C   0  0  0  0  0  0  0  0  0  0  0  0
   -0.6270   -1.5900   -0.1970 C   0  0  0  0  0  0  0  0  0  0  0  0
    0.5480   -0.8950   -0.0510 C   0  0  0  0  0  0  0  0  0  0  0  0
    1.8090   -1.4420    0.0680 C   0  0  0  0  0  0  0  0  0  0  0  0
    2.7160   -0.4130    0.1960 C   0  0  0  0  0  0  0  0  0  0  0  0
    2.0990    0.7750    0.1640 N   0  0  0  0  0  0  0  0  0  0  0  0
    0.7730    0.5640    0.0160 C   0  0  0  0  0  0  0  0  0  0  0  0
  1  2  1  0
  2  3  2  0
  2 11  1  0
  3  4  1  0
  4  5  2  0
  5  6  1  0
  6  7  2  0
  7  8  1  0
  7 11  1  0
  8  9  2  0
  9 10  1  0
 10 11  2  0
M  END
