
     RDKit          3D

 11 12  0  0  0  0  0  0  0  0999 V2000
    3.3950   -0.0790    1.0330 O   0  0  0  0  0  0  0  0  0  0  0  0
    2.7850   -0.4820   -0.1770 C   0  0  0  0  0  0  0  0  0  0  0  0
    1.3590   -0.1280   -0.1900 C   0  0  0  0  0  0  0  0  0  0  0  0
    0.9690    1.1010   -0.6860 C   0  0  0  0  0  0  0  0  0  0  0  0
   -0.3660    1.4570   -0.7080 C   0  0  0  0  0  0  0  0  0  0  0  0
   -1.3130    0.5960   -0.2400 N   0  0  0  0  0  0  0  0  0  0  0  0
   -2.6520    0.6750   -0.1410 C   0  0  0  0  0  0  0  0  0  0  0  0
   -3.1780   -0.4720    0.4100 C   0  0  0  0  0  0  0  0  0  0  0  0
   -2.1030   -1.2980    0.6630 C   0  0  0  0  0  0  0  0  0  0  0  0
   -0.9750   -0.6050    0.2490 C   0  0  0  0  0  0  0  0  0  0  0  0
    0.3560   -0.9570    0.2710 C   0  0  0  0  0  0  0  0  0  0  0  0
  1  2  1  0
  2  3  1  0
  3  4  1  0
  3 11  2  0
  4  5  2  0
  5  6  1  0
  6  7  1  0
  6 10  1  0
  7  8  2  0
  8  9  1  0
  9 10  2  0
 10 11  1  0
M  END
