
     RDKit          3D

 11 12  0  0  0  0  0  0  0  0999 V2000
   -2.8820    1.0040   -0.4370 C   0  0  0  0  0  0  0  0  0  0  0  0
   -1.6010    0.7210   -0.2680 C   0  0  0  0  0  0  0  0  0  0  0  0
   -0.5710    1.5200   -0.2870 O   0  0  0  0  0  0  0  0  0  0  0  0
    0.5530    0.8800   -0.0790 C   0  0  0  0  0  0  0  0  0  0  0  0
    1.8970    1.2630   -0.0040 C   0  0  0  0  0  0  0  0  0  0  0  0
    2.8900    0.3440    0.2340 C   0  0  0  0  0  0  0  0  0  0  0  0
    2.5930   -0.9880    0.4060 C   0  0  0  0  0  0  0  0  0  0  0  0
    1.2890   -1.3440    0.3310 N   0  0  0  0  0  0  0  0  0  0  0  0
    0.2950   -0.4660    0.1000 C   0  0  0  0  0  0  0  0  0  0  0  0
   -1.0840   -0.5540   -0.0230 C   0  0  0  0  0  0  0  0  0  0  0  0
   -1.8010   -1.6560    0.0730 C   0  0  0  0  0  0  0  0  0  0  0  0
  1  2  2  0
  2  3  1  0
  2 10  1  0
  3  4  1  0
  4  5  2  0
  4  9  1  0
  5  6  1  0
  6  7  2  0
  7  8  1  0
  8  9  2  0
  9 10  1  0
 10 11  2  0
M  END
