
     RDKit          3D

 11 12  0  0  0  0  0  0  0  0999 V2000
   -3.2230   -0.5630    0.5460 C   0  0  0  0  0  0  0  0  0  0  0  0
   -2.5200   -0.4410   -0.7830 C   0  0  0  0  0  0  0  0  0  0  0  0
   -1.1020    0.0260   -0.6190 C   0  0  0  0  0  0  0  0  0  0  0  0
    0.0070   -0.7740   -0.4480 C   0  0  0  0  0  0  0  0  0  0  0  0
    1.0900    0.0530   -0.3400 C   0  0  0  0  0  0  0  0  0  0  0  0
    2.4510    0.0980   -0.1680 C   0  0  0  0  0  0  0  0  0  0  0  0
    3.3090   -1.1050   -0.0140 C   0  0  0  0  0  0  0  0  0  0  0  0
    2.8290    1.3430   -0.1660 O   0  0  0  0  0  0  0  0  0  0  0  0
    1.8000    2.1540   -0.3280 C   0  0  0  0  0  0  0  0  0  0  0  0
    0.6610    1.3580   -0.4440 C   0  0  0  0  0  0  0  0  0  0  0  0
   -0.6670    1.2960   -0.6110 N   0  0  0  0  0  0  0  0  0  0  0  0
  1  2  1  0
  2  3  1  0
  3  4  2  0
  3 11  1  0
  4  5  1  0
  5  6  2  0
  5 10  1  0
  6  7  1  0
  6  8  1  0
  8  9  1  0
  9 10  2  0
 10 11  1  0
M  END
