
     RDKit          3D

 11 12  0  0  0  0  0  0  0  0999 V2000
    1.5290   -2.4050    0.0100 O   0  0  0  0  0  0  0  0  0  0  0  0
    1.3780   -1.1760   -0.1030 C   0  0  0  0  0  0  0  0  0  0  0  0
    2.4310   -0.3330   -0.2120 N   0  0  0  0  0  0  0  0  0  0  0  0
    2.2850    0.9990   -0.3340 C   0  0  0  0  0  0  0  0  0  0  0  0
    1.0060    1.5030   -0.3460 C   0  0  0  0  0  0  0  0  0  0  0  0
   -0.1020    0.6750   -0.2370 C   0  0  0  0  0  0  0  0  0  0  0  0
   -1.3860    1.2130   -0.2520 C   0  0  0  0  0  0  0  0  0  0  0  0
   -2.4650    0.3830   -0.1430 C   0  0  0  0  0  0  0  0  0  0  0  0
   -2.2600   -0.9730   -0.0200 C   0  0  0  0  0  0  0  0  0  0  0  0
   -1.0050   -1.5460   -0.0010 C   0  0  0  0  0  0  0  0  0  0  0  0
    0.0800   -0.6940   -0.1120 C   0  0  0  0  0  0  0  0  0  0  0  0
  1  2  2  0
  2  3  1  0
  2 11  1  0
  3  4  1  0
  4  5  2  0
  5  6  1  0
  6  7  2  0
  6 11  1  0
  7  8  1  0
  8  9  2  0
  9 10  1  0
 10 11  2  0
M  END
