
     RDKit          3D

 18 19  0  0  0  0  0  0  0  0999 V2000
    5.2870   -0.2910   -0.5350 C   0  0  0  0  0  0  0  0  0  0  0  0
    4.1770   -1.0650    0.0500 C   0  0  0  0  0  0  0  0  0  0  0  0
    4.4180   -2.1830    0.6280 O   0  0  0  0  0  0  0  0  0  0  0  0
    2.7910   -0.6310    0.0140 C   0  0  0  0  0  0  0  0  0  0  0  0
    1.8120   -1.4340    0.6040 C   0  0  0  0  0  0  0  0  0  0  0  0
    0.5030   -1.0260    0.5860 C   0  0  0  0  0  0  0  0  0  0  0  0
    0.1440    0.1590   -0.0040 C   0  0  0  0  0  0  0  0  0  0  0  0
   -1.2080    0.5790    0.0050 N   0  0  0  0  0  0  0  0  0  0  0  0
   -2.2190    0.3920   -0.9880 C   0  0  0  0  0  0  0  0  0  0  0  0
   -3.5210    0.6650   -0.2620 C   0  0  1  0  0  0  0  0  0  0  0  0
   -3.9630   -0.5920    0.3820 C   0  0  0  0  0  0  0  0  0  0  0  0
   -4.1110   -0.7200    1.6260 O   0  0  0  0  0  0  0  0  0  0  0  0
   -4.2380   -1.7090   -0.3920 O   0  0  0  0  0  0  0  0  0  0  0  0
   -3.1750    1.6860    0.7950 C   0  0  0  0  0  0  0  0  0  0  0  0
   -1.7800    1.3130    1.1130 C   0  0  0  0  0  0  0  0  0  0  0  0
   -1.1870    1.5950    2.1860 O   0  0  0  0  0  0  0  0  0  0  0  0
    1.0980    0.9400   -0.5790 C   0  0  0  0  0  0  0  0  0  0  0  0
    2.4460    0.5580   -0.5810 C   0  0  0  0  0  0  0  0  0  0  0  0
  1  2  1  0
  2  3  2  0
  2  4  1  0
  4  5  2  0
  4 18  1  0
  5  6  1  0
  6  7  2  0
  7  8  1  0
  7 17  1  0
  8  9  1  0
  8 15  1  0
  9 10  1  0
 10 11  1  1
 10 14  1  0
 11 12  2  0
 11 13  1  0
 14 15  1  0
 15 16  2  0
 17 18  2  0
M  END
