
     RDKit          3D

 11 12  0  0  0  0  0  0  0  0999 V2000
   -2.6430   -0.2710    0.0180 C   0  0  0  0  0  0  0  0  0  0  0  0
   -2.1850    0.9640    0.1080 C   0  0  0  0  0  0  0  0  0  0  0  0
   -0.8760    1.4290    0.3330 N   0  0  0  0  0  0  0  0  0  0  0  0
    0.3260    0.6780    0.0840 C   0  0  0  0  0  0  0  0  0  0  0  0
    1.4720    1.4440    0.1470 C   0  0  0  0  0  0  0  0  0  0  0  0
    2.7400    0.9030   -0.0650 C   0  0  0  0  0  0  0  0  0  0  0  0
    2.8420   -0.4420   -0.3450 C   0  0  0  0  0  0  0  0  0  0  0  0
    1.6910   -1.2170   -0.4090 C   0  0  0  0  0  0  0  0  0  0  0  0
    0.4410   -0.6700   -0.1980 C   0  0  0  0  0  0  0  0  0  0  0  0
   -0.6110   -1.5560   -0.2930 O   0  0  0  0  0  0  0  0  0  0  0  0
   -1.9430   -1.5420    0.1240 C   0  0  0  0  0  0  0  0  0  0  0  0
  1  2  2  0
  1 11  1  0
  2  3  1  0
  3  4  1  0
  4  5  2  0
  4  9  1  0
  5  6  1  0
  6  7  2  0
  7  8  1  0
  8  9  2  0
  9 10  1  0
 10 11  1  0
M  END
