
     RDKit          3D

 11 11  0  0  0  0  0  0  0  0999 V2000
    3.4360   -1.1710    0.3200 C   0  0  0  0  0  0  0  0  0  0  0  0
    2.0530   -1.1530   -0.0990 N   0  0  0  0  0  0  0  0  0  0  0  0
    1.2540   -0.0000    0.0720 C   0  0  0  0  0  0  0  0  0  0  0  0
   -0.0520   -0.0340   -0.1030 C   0  0  0  0  0  0  0  0  0  0  0  0
   -0.8660   -1.1610   -0.4740 N   0  0  0  0  0  0  0  0  0  0  0  0
   -2.0850   -0.7450   -0.5320 C   0  0  0  0  0  0  0  0  0  0  0  0
   -3.2700   -1.5700   -0.8790 C   0  0  0  0  0  0  0  0  0  0  0  0
   -2.1710    0.6370   -0.2160 N   0  0  0  0  0  0  0  0  0  0  0  0
   -0.9920    1.0660    0.0360 C   0  0  0  0  0  0  0  0  0  0  0  0
   -0.6020    2.4440    0.4120 C   0  0  0  0  0  0  0  0  0  0  0  0
    0.0110    2.4770    1.6580 O   0  0  0  0  0  0  0  0  0  0  0  0
  1  2  1  0
  2  3  1  0
  3  4  2  3
  4  5  1  0
  4  9  1  0
  5  6  2  0
  6  7  1  0
  6  8  1  0
  8  9  2  0
  9 10  1  0
 10 11  1  0
M  END
