
     RDKit          3D

 11 11  0  0  0  0  0  0  0  0999 V2000
   -2.7190   -0.6250    0.6310 C   0  0  0  0  0  0  0  0  0  0  0  0
   -1.6850    0.4710    0.6110 C   0  0  0  0  0  0  0  0  0  0  0  0
   -0.6790    0.2330   -0.3950 N   0  0  0  0  0  0  0  0  0  0  0  0
   -0.9550    0.2860   -1.8150 C   0  0  0  0  0  0  0  0  0  0  0  0
    0.6910   -0.0760   -0.0420 C   0  0  0  0  0  0  0  0  0  0  0  0
    1.0600   -1.2640    0.3590 C   0  0  0  0  0  0  0  0  0  0  0  0
    2.4520   -1.6120    0.7280 C   0  0  0  0  0  0  0  0  0  0  0  0
    3.3010   -0.5090    0.5890 O   0  0  0  0  0  0  0  0  0  0  0  0
    2.8970    0.7210    0.1690 N   0  0  0  0  0  0  0  0  0  0  0  0
    1.6880    0.9820   -0.1400 C   0  0  0  0  0  0  0  0  0  0  0  0
    1.3100    2.2830   -0.5740 N   0  0  0  0  0  0  0  0  0  0  0  0
  1  2  1  0
  2  3  1  0
  3  4  1  0
  3  5  1  0
  5  6  2  0
  5 10  1  0
  6  7  1  0
  7  8  1  0
  8  9  1  0
  9 10  2  0
 10 11  1  0
M  END
