
     RDKit          3D

 11 11  0  0  0  0  0  0  0  0999 V2000
    3.8370    0.1630   -0.3020 C   0  0  0  0  0  0  0  0  0  0  0  0
    3.0850    0.8090    0.6380 O   0  0  0  0  0  0  0  0  0  0  0  0
    1.7420    0.8030    0.4190 C   0  0  0  0  0  0  0  0  0  0  0  0
    1.0930   -0.5710    0.3920 C   0  0  0  0  0  0  0  0  0  0  0  0
   -0.2820   -0.3760    0.1410 N   0  0  0  0  0  0  0  0  0  0  0  0
   -0.6880    0.0870   -1.1230 C   0  0  0  0  0  0  0  0  0  0  0  0
   -2.1190   -0.3760   -1.4590 C   0  0  0  0  0  0  0  0  0  0  0  0
   -2.9120    0.1620   -0.3430 N   0  0  0  0  0  0  0  0  0  0  0  0
   -2.5050    0.0270    0.8700 C   0  0  0  0  0  0  0  0  0  0  0  0
   -3.2420    0.5320    1.9840 N   0  0  0  0  0  0  0  0  0  0  0  0
   -1.2300   -0.6840    1.1200 C   0  0  0  0  0  0  0  0  0  0  0  0
  1  2  1  0
  2  3  1  0
  3  4  1  0
  4  5  1  0
  5  6  1  0
  5 11  1  0
  6  7  1  0
  7  8  1  0
  8  9  2  0
  9 10  1  0
  9 11  1  0
M  END
