
     RDKit          3D

 23 25  0  0  0  0  0  0  0  0999 V2000
   -4.4120   -1.4670   -1.8770 F   0  0  0  0  0  0  0  0  0  0  0  0
   -3.3840   -1.4110   -0.9450 C   0  0  2  0  0  0  0  0  0  0  0  0
   -2.3280   -2.1170   -1.4180 F   0  0  0  0  0  0  0  0  0  0  0  0
   -3.9030   -1.8850    0.2530 F   0  0  0  0  0  0  0  0  0  0  0  0
   -3.0200    0.0340   -0.7320 C   0  0  0  0  0  0  0  0  0  0  0  0
   -3.7260    0.9910   -1.3960 N   0  0  0  0  0  0  0  0  0  0  0  0
   -3.4690    2.2870   -1.2530 C   0  0  0  0  0  0  0  0  0  0  0  0
   -2.4620    2.7120   -0.4140 C   0  0  0  0  0  0  0  0  0  0  0  0
   -1.7270    1.7630    0.2730 C   0  0  0  0  0  0  0  0  0  0  0  0
   -2.0120    0.4270    0.1080 C   0  0  0  0  0  0  0  0  0  0  0  0
   -1.2150   -0.5410    0.8440 C   0  0  0  0  0  0  0  0  0  0  0  0
   -1.8030   -1.4170    1.6550 N   0  0  0  0  0  0  0  0  0  0  0  0
   -1.1170   -2.3070    2.3390 N   0  0  0  0  0  0  0  0  0  0  0  0
    0.2100   -2.4030    2.2780 C   0  0  0  0  0  0  0  0  0  0  0  0
    0.8640   -1.5180    1.4520 C   0  0  0  0  0  0  0  0  0  0  0  0
    0.1700   -0.5750    0.7230 C   0  0  0  0  0  0  0  0  0  0  0  0
    0.8410    0.3260   -0.1300 N   0  0  0  0  0  0  0  0  0  0  0  0
    2.2610    0.2730   -0.2050 C   0  0  0  0  0  0  0  0  0  0  0  0
    3.0550    1.0140    0.5400 C   0  0  0  0  0  0  0  0  0  0  0  0
    4.4510    0.7300    0.2300 C   0  0  0  0  0  0  0  0  0  0  0  0
    4.5150   -0.1820   -0.7020 C   0  0  0  0  0  0  0  0  0  0  0  0
    3.1320   -0.5520   -1.0620 C   0  0  2  0  0  0  0  0  0  0  0  0
    2.7650   -0.1800   -2.7700 Cl  0  0  0  0  0  0  0  0  0  0  0  0
  2  1  1  6
  2  3  1  0
  2  4  1  0
  2  5  1  0
  5  6  2  0
  5 10  1  0
  6  7  1  0
  7  8  2  0
  8  9  1  0
  9 10  2  0
 10 11  1  0
 11 12  2  0
 11 16  1  0
 12 13  1  0
 13 14  2  0
 14 15  1  0
 15 16  2  0
 16 17  1  0
 17 18  1  0
 18 19  2  0
 18 22  1  0
 19 20  1  0
 20 21  2  0
 21 22  1  0
 22 23  1  6
M  END
