
     RDKit          3D

 14 15  0  0  0  0  0  0  0  0999 V2000
   -3.0870    0.7390   -0.0270 C   0  0  0  0  0  0  0  0  0  0  0  0
   -1.6590    1.2190   -0.0220 C   0  0  0  0  0  0  0  0  0  0  0  0
   -0.6980    0.2700   -0.6970 C   0  0  1  0  0  0  0  0  0  0  0  0
    0.6520    0.9090   -0.5980 C   0  0  0  0  0  0  0  0  0  0  0  0
    0.9430    2.0270   -1.0910 O   0  0  0  0  0  0  0  0  0  0  0  0
    1.4740    0.0130    0.1360 N   0  0  0  0  0  0  0  0  0  0  0  0
    2.8570    0.2240    0.4720 C   0  0  0  0  0  0  0  0  0  0  0  0
    3.3950    1.2410    1.1530 N   0  0  0  0  0  0  0  0  0  0  0  0
    4.6900    1.0420    1.2350 N   0  0  0  0  0  0  0  0  0  0  0  0
    4.9580   -0.0900    0.6100 N   0  0  0  0  0  0  0  0  0  0  0  0
    3.8530   -0.6140    0.1320 N   0  0  0  0  0  0  0  0  0  0  0  0
    0.7020   -1.0980    0.4680 N   0  0  0  0  0  0  0  0  0  0  0  0
   -0.5010   -0.9970    0.0280 C   0  0  0  0  0  0  0  0  0  0  0  0
   -1.5910   -2.0240    0.2090 C   0  0  0  0  0  0  0  0  0  0  0  0
  1  2  1  0
  3  2  1  1
  3  4  1  0
  3 13  1  0
  4  5  2  0
  4  6  1  0
  6  7  1  0
  6 12  1  0
  7  8  2  0
  7 11  1  0
  8  9  1  0
  9 10  2  0
 10 11  1  0
 12 13  2  0
 13 14  1  0
M  END
