
     RDKit          3D

 24 26  0  0  0  0  0  0  0  0999 V2000
   -0.3500   -1.1040   -1.5460 C   0  0  0  0  0  0  0  0  0  0  0  0
   -0.1550   -0.7660   -0.0780 C   0  0  2  0  0  0  0  0  0  0  0  0
   -1.1130    0.2170    0.3520 N   0  0  0  0  0  0  0  0  0  0  0  0
   -2.5100    0.1910    0.2990 C   0  0  0  0  0  0  0  0  0  0  0  0
   -3.2900    1.3520    0.5100 C   0  0  0  0  0  0  0  0  0  0  0  0
   -4.6010    1.0210    0.3540 C   0  0  0  0  0  0  0  0  0  0  0  0
   -5.7970    1.9050    0.4510 C   0  0  1  0  0  0  0  0  0  0  0  0
   -6.1320    2.2710    1.7080 F   0  0  0  0  0  0  0  0  0  0  0  0
   -5.5290    3.0680   -0.3020 F   0  0  0  0  0  0  0  0  0  0  0  0
   -6.8830    1.3160   -0.1660 F   0  0  0  0  0  0  0  0  0  0  0  0
   -4.6400   -0.2580    0.0710 N   0  0  0  0  0  0  0  0  0  0  0  0
   -3.3860   -0.7580    0.0410 N   0  0  0  0  0  0  0  0  0  0  0  0
   -3.1620   -2.1620   -0.2100 C   0  0  0  0  0  0  0  0  0  0  0  0
    1.2370   -0.1780    0.0580 C   0  0  0  0  0  0  0  0  0  0  0  0
    1.5240    1.1410    0.0810 N   0  0  0  0  0  0  0  0  0  0  0  0
    2.8570    1.3090    0.1930 C   0  0  0  0  0  0  0  0  0  0  0  0
    3.7020    2.4210    0.2570 C   0  0  0  0  0  0  0  0  0  0  0  0
    5.0490    2.2110    0.3540 C   0  0  0  0  0  0  0  0  0  0  0  0
    6.1850    3.5550    0.5290 Cl  0  0  0  0  0  0  0  0  0  0  0  0
    5.5810    0.9300    0.3870 C   0  0  0  0  0  0  0  0  0  0  0  0
    4.7430   -0.1940    0.3300 C   0  0  0  0  0  0  0  0  0  0  0  0
    3.3770    0.0370    0.2330 C   0  0  0  0  0  0  0  0  0  0  0  0
    2.3600   -0.8400    0.1440 N   0  0  0  0  0  0  0  0  0  0  0  0
    2.5300   -2.3200    0.1230 C   0  0  0  0  0  0  0  0  0  0  0  0
  2  1  1  6
  2  3  1  0
  2 14  1  0
  3  4  1  0
  4  5  2  0
  4 12  1  0
  5  6  1  0
  6  7  1  0
  6 11  2  0
  7  8  1  1
  7  9  1  0
  7 10  1  0
 11 12  1  0
 12 13  1  0
 14 15  2  0
 14 23  1  0
 15 16  1  0
 16 17  2  0
 16 22  1  0
 17 18  1  0
 18 19  1  0
 18 20  2  0
 20 21  1  0
 21 22  2  0
 22 23  1  0
 23 24  1  0
M  END
