
     RDKit          3D

 27 28  0  0  0  0  0  0  0  0999 V2000
   -4.8370    4.0400    1.8890 C   0  0  0  0  0  0  0  0  0  0  0  0
   -4.0500    3.3860    0.7970 C   0  0  0  0  0  0  0  0  0  0  0  0
   -3.7250    1.9410    1.0970 C   0  0  0  0  0  0  0  0  0  0  0  0
   -2.9460    1.3940   -0.0480 C   0  0  0  0  0  0  0  0  0  0  0  0
   -2.6610    2.1150   -1.0560 O   0  0  0  0  0  0  0  0  0  0  0  0
   -2.4810    0.0510   -0.0800 N   0  0  0  0  0  0  0  0  0  0  0  0
   -1.7230   -0.4550   -1.2100 C   0  0  1  0  0  0  0  0  0  0  0  0
   -0.4290   -1.0200   -0.8160 C   0  0  0  0  0  0  0  0  0  0  0  0
    0.6030   -0.2630   -0.7310 N   0  0  0  0  0  0  0  0  0  0  0  0
    1.8420   -0.7290   -0.3680 O   0  0  0  0  0  0  0  0  0  0  0  0
    2.8850    0.2100   -0.3210 C   0  0  0  0  0  0  0  0  0  0  0  0
    2.6340    1.3960   -0.6070 O   0  0  0  0  0  0  0  0  0  0  0  0
    4.1970   -0.1550    0.0380 N   0  0  0  0  0  0  0  0  0  0  0  0
    5.3200    0.6650    0.1260 C   0  0  0  0  0  0  0  0  0  0  0  0
    5.3460    2.0000   -0.1130 C   0  0  0  0  0  0  0  0  0  0  0  0
    6.5030    2.7700   -0.0100 C   0  0  0  0  0  0  0  0  0  0  0  0
    7.6700    2.1550    0.3490 C   0  0  0  0  0  0  0  0  0  0  0  0
    7.7080    0.7930    0.6060 C   0  0  0  0  0  0  0  0  0  0  0  0
    6.5360    0.0710    0.4910 C   0  0  0  0  0  0  0  0  0  0  0  0
   -0.3230   -2.3530   -0.5400 O   0  0  0  0  0  0  0  0  0  0  0  0
   -1.4150   -3.2410   -0.4350 C   0  0  2  0  0  0  0  0  0  0  0  0
   -0.9750   -4.5640   -1.0290 C   0  0  0  0  0  0  0  0  0  0  0  0
   -2.0080   -5.5050   -0.9620 O   0  0  0  0  0  0  0  0  0  0  0  0
   -2.6450   -2.7830   -1.1270 C   0  0  1  0  0  0  0  0  0  0  0  0
   -3.6410   -2.5590   -0.1500 O   0  0  0  0  0  0  0  0  0  0  0  0
   -2.5010   -1.5350   -1.9290 C   0  0  2  0  0  0  0  0  0  0  0  0
   -1.8990   -1.7290   -3.1690 O   0  0  0  0  0  0  0  0  0  0  0  0
  1  2  1  0
  2  3  1  0
  3  4  1  0
  4  5  2  0
  4  6  1  0
  7  6  1  1
  7  8  1  0
  7 26  1  0
  8  9  2  3
  8 20  1  0
  9 10  1  0
 10 11  1  0
 11 12  2  0
 11 13  1  0
 13 14  1  0
 14 15  2  0
 14 19  1  0
 15 16  1  0
 16 17  2  0
 17 18  1  0
 18 19  2  0
 20 21  1  0
 21 22  1  6
 21 24  1  0
 22 23  1  0
 24 25  1  1
 24 26  1  0
 26 27  1  6
M  END
