
     RDKit          3D

 24 26  0  0  0  0  0  0  0  0999 V2000
    5.5480    1.5750   -1.1230 C   0  0  0  0  0  0  0  0  0  0  0  0
    4.9980    0.7660   -0.0430 N   0  0  0  0  0  0  0  0  0  0  0  0
    3.6950    0.2390   -0.1110 C   0  0  0  0  0  0  0  0  0  0  0  0
    2.9190    0.4900   -1.2510 C   0  0  0  0  0  0  0  0  0  0  0  0
    1.6430   -0.0330   -1.3180 C   0  0  0  0  0  0  0  0  0  0  0  0
    0.6860    0.0360   -2.2620 N   0  0  0  0  0  0  0  0  0  0  0  0
   -0.3600   -0.6600   -1.8020 C   0  0  0  0  0  0  0  0  0  0  0  0
   -1.4610   -0.8220   -2.4210 O   0  0  0  0  0  0  0  0  0  0  0  0
   -0.1130   -1.1720   -0.6020 N   0  0  0  0  0  0  0  0  0  0  0  0
   -0.9430   -1.9750    0.2720 C   0  0  0  0  0  0  0  0  0  0  0  0
   -1.7390   -1.1720    1.2560 C   0  0  0  0  0  0  0  0  0  0  0  0
   -2.6870   -0.2220    0.5530 C   0  0  2  0  0  0  0  0  0  0  0  0
   -3.4590    0.5670    1.6050 C   0  0  0  0  0  0  0  0  0  0  0  0
   -4.2630    1.6250    0.8870 C   0  0  0  0  0  0  0  0  0  0  0  0
   -5.1430    0.9750   -0.1660 C   0  0  0  0  0  0  0  0  0  0  0  0
   -4.3330   -0.0250   -0.9840 C   0  0  0  0  0  0  0  0  0  0  0  0
   -3.6180   -0.9080   -0.2060 O   0  0  0  0  0  0  0  0  0  0  0  0
    1.1500   -0.7870   -0.2790 C   0  0  0  0  0  0  0  0  0  0  0  0
    1.9040   -1.0430    0.8520 C   0  0  0  0  0  0  0  0  0  0  0  0
    3.1930   -0.5110    0.9130 C   0  0  0  0  0  0  0  0  0  0  0  0
    3.9530   -0.8010    2.1320 C   0  0  1  0  0  0  0  0  0  0  0  0
    3.2370   -1.5910    3.0230 F   0  0  0  0  0  0  0  0  0  0  0  0
    5.4250   -1.7080    1.7450 Cl  0  0  0  0  0  0  0  0  0  0  0  0
    4.4530    0.7010    2.9760 Cl  0  0  0  0  0  0  0  0  0  0  0  0
  1  2  1  0
  2  3  1  0
  3  4  2  0
  3 20  1  0
  4  5  1  0
  5  6  1  0
  5 18  2  0
  6  7  1  0
  7  8  2  0
  7  9  1  0
  9 10  1  0
  9 18  1  0
 10 11  1  0
 12 11  1  1
 12 13  1  0
 12 17  1  0
 13 14  1  0
 14 15  1  0
 15 16  1  0
 16 17  1  0
 18 19  1  0
 19 20  2  0
 20 21  1  0
 21 22  1  1
 21 23  1  0
 21 24  1  0
M  END
