
     RDKit          3D

 24 26  0  0  0  0  0  0  0  0999 V2000
    4.6290    1.2360    1.2650 C   0  0  0  0  0  0  0  0  0  0  0  0
    5.1660    0.2480    0.4600 O   0  0  0  0  0  0  0  0  0  0  0  0
    4.5050   -0.9520    0.4830 C   0  0  0  0  0  0  0  0  0  0  0  0
    3.1070   -0.9120    0.0240 C   0  0  0  0  0  0  0  0  0  0  0  0
    2.7310    0.0580   -0.8820 C   0  0  0  0  0  0  0  0  0  0  0  0
    1.4450    0.1440   -1.3440 C   0  0  0  0  0  0  0  0  0  0  0  0
    1.0250    1.3820   -2.4860 Cl  0  0  0  0  0  0  0  0  0  0  0  0
    0.4870   -0.7660   -0.8930 C   0  0  0  0  0  0  0  0  0  0  0  0
   -0.8020   -0.7290   -1.4760 C   0  0  0  0  0  0  0  0  0  0  0  0
   -2.0210   -0.3900   -1.2930 C   0  0  0  0  0  0  0  0  0  0  0  0
   -2.9830   -0.6460   -2.3800 N   0  0  0  0  0  0  0  0  0  0  0  0
   -4.3490   -0.3140   -2.2610 C   0  0  0  0  0  0  0  0  0  0  0  0
   -4.8290    0.2260   -1.2070 N   0  0  0  0  0  0  0  0  0  0  0  0
   -4.0190    0.5300   -0.0870 C   0  0  0  0  0  0  0  0  0  0  0  0
   -4.6310    1.1320    0.9890 C   0  0  0  0  0  0  0  0  0  0  0  0
   -3.8220    1.4440    2.0580 C   0  0  0  0  0  0  0  0  0  0  0  0
   -4.5150    2.2150    3.4840 Cl  0  0  0  0  0  0  0  0  0  0  0  0
   -2.4800    1.1680    2.0430 C   0  0  0  0  0  0  0  0  0  0  0  0
   -1.8790    0.5570    0.9420 C   0  0  0  0  0  0  0  0  0  0  0  0
   -0.5750    0.3720    0.9680 F   0  0  0  0  0  0  0  0  0  0  0  0
   -2.6460    0.2250   -0.1420 C   0  0  0  0  0  0  0  0  0  0  0  0
    0.9170   -1.7390    0.0320 C   0  0  0  0  0  0  0  0  0  0  0  0
    0.0220   -2.5580    0.4280 O   0  0  0  0  0  0  0  0  0  0  0  0
    2.1800   -1.7860    0.4560 N   0  0  0  0  0  0  0  0  0  0  0  0
  1  2  1  0
  2  3  1  0
  3  4  1  0
  4  5  2  0
  4 24  1  0
  5  6  1  0
  6  7  1  0
  6  8  2  0
  8  9  1  0
  8 22  1  0
  9 10  2  3
 10 11  1  0
 10 21  1  0
 11 12  1  0
 12 13  2  0
 13 14  1  0
 14 15  2  0
 14 21  1  0
 15 16  1  0
 16 17  1  0
 16 18  2  0
 18 19  1  0
 19 20  1  0
 19 21  2  0
 22 23  2  0
 22 24  1  0
M  END
