
     RDKit          3D

 24 26  0  0  0  0  0  0  0  0999 V2000
    6.6210    1.2460    0.4190 C   0  0  0  0  0  0  0  0  0  0  0  0
    5.2920    0.5700    0.8850 C   0  0  0  0  0  0  0  0  0  0  0  0
    4.9790   -0.3950   -0.0910 C   0  0  0  0  0  0  0  0  0  0  0  0
    5.8430   -1.3400   -0.3320 O   0  0  0  0  0  0  0  0  0  0  0  0
    3.7810   -0.5590   -0.9990 C   0  0  0  0  0  0  0  0  0  0  0  0
    2.6490    0.0290    0.1270 C   0  0  0  0  0  0  0  0  0  0  0  0
    1.4710   -0.0050   -0.4300 C   0  0  0  0  0  0  0  0  0  0  0  0
    0.0810    0.3170    0.0820 C   0  0  0  0  0  0  0  0  0  0  0  0
   -0.7850   -0.8500   -0.2310 C   0  0  0  0  0  0  0  0  0  0  0  0
   -0.1500   -1.8840   -0.6640 O   0  0  0  0  0  0  0  0  0  0  0  0
   -2.1520   -0.9830   -0.1390 N   0  0  0  0  0  0  0  0  0  0  0  0
   -2.9860   -2.1330   -0.6090 C   0  0  0  0  0  0  0  0  0  0  0  0
   -3.9880   -1.2900   -1.4220 C   0  0  1  0  0  0  0  0  0  0  0  0
   -5.3840   -2.2230   -1.9270 Cl  0  0  0  0  0  0  0  0  0  0  0  0
   -4.2750   -0.2270   -0.4570 C   0  0  0  0  0  0  0  0  0  0  0  0
   -5.4030    0.5680   -0.2130 C   0  0  0  0  0  0  0  0  0  0  0  0
   -6.8080    0.3580   -1.2660 Cl  0  0  0  0  0  0  0  0  0  0  0  0
   -5.3650    1.4710    0.8070 C   0  0  0  0  0  0  0  0  0  0  0  0
   -4.2390    1.6260    1.6060 C   0  0  0  0  0  0  0  0  0  0  0  0
   -4.2410    2.5170    2.6010 F   0  0  0  0  0  0  0  0  0  0  0  0
   -3.1320    0.8500    1.3640 C   0  0  0  0  0  0  0  0  0  0  0  0
   -3.1450   -0.0740    0.3430 C   0  0  0  0  0  0  0  0  0  0  0  0
    1.6450   -0.5050   -1.6930 N   0  0  0  0  0  0  0  0  0  0  0  0
    2.8760   -0.6830   -1.6850 N   0  0  0  0  0  0  0  0  0  0  0  0
  1  2  1  0
  2  3  1  0
  3  4  2  0
  3  5  1  0
  5  6  1  0
  5 24  2  0
  6  7  2  0
  7  8  1  0
  7 23  1  0
  8  9  1  0
  9 10  2  0
  9 11  1  0
 11 12  1  0
 11 22  1  0
 12 13  1  0
 13 14  1  1
 13 15  1  0
 15 16  2  0
 15 22  1  0
 16 17  1  0
 16 18  1  0
 18 19  2  0
 19 20  1  0
 19 21  1  0
 21 22  2  0
 23 24  1  0
M  END
