
     RDKit          3D

 24 25  0  0  0  0  0  0  0  0999 V2000
   -5.0970    0.0560   -0.1340 C   0  0  0  0  0  0  0  0  0  0  0  0
   -3.7360    0.7600    0.0420 C   0  0  2  0  0  0  0  0  0  0  0  0
   -3.3190    1.1680   -1.3340 C   0  0  0  0  0  0  0  0  0  0  0  0
   -2.1780    2.0810   -1.5090 C   0  0  0  0  0  0  0  0  0  0  0  0
   -0.8830    1.6530   -0.9550 C   0  0  0  0  0  0  0  0  0  0  0  0
   -0.5190    0.6050   -0.2260 C   0  0  0  0  0  0  0  0  0  0  0  0
    0.7950    0.3770    0.2190 C   0  0  0  0  0  0  0  0  0  0  0  0
    1.0810   -0.6220    1.0280 O   0  0  0  0  0  0  0  0  0  0  0  0
    1.9730    1.0420   -0.0300 N   0  0  0  0  0  0  0  0  0  0  0  0
    3.2240    0.4450    0.4460 C   0  0  0  0  0  0  0  0  0  0  0  0
    3.7940    1.3950    1.0250 N   0  0  0  0  0  0  0  0  0  0  0  0
    5.0040    1.3090    1.6430 N   0  0  0  0  0  0  0  0  0  0  0  0
    5.6830    0.0540    1.6070 C   0  0  0  0  0  0  0  0  0  0  0  0
    6.3520   -0.4290    2.5360 O   0  0  0  0  0  0  0  0  0  0  0  0
    5.4780   -0.6230    0.2690 C   0  0  0  0  0  0  0  0  0  0  0  0
    3.9580   -0.7730    0.0590 C   0  0  0  0  0  0  0  0  0  0  0  0
   -1.4270   -0.4960    0.1610 C   0  0  0  0  0  0  0  0  0  0  0  0
   -1.1300   -1.7330   -0.0550 C   0  0  0  0  0  0  0  0  0  0  0  0
    0.0470   -2.3100   -0.6910 C   0  0  0  0  0  0  0  0  0  0  0  0
    0.9430   -3.4960    0.2640 Cl  0  0  0  0  0  0  0  0  0  0  0  0
   -2.8190   -0.2490    0.6650 C   0  0  0  0  0  0  0  0  0  0  0  0
   -3.1790   -0.9510    1.6830 C   0  0  0  0  0  0  0  0  0  0  0  0
   -2.3800   -1.8830    2.2870 F   0  0  0  0  0  0  0  0  0  0  0  0
   -4.7530   -0.7250    2.4090 Cl  0  0  0  0  0  0  0  0  0  0  0  0
  2  1  1  6
  2  3  1  0
  2 21  1  0
  3  4  1  0
  4  5  1  0
  5  6  2  0
  6  7  1  0
  6 17  1  0
  7  8  2  0
  7  9  1  0
  9 10  1  0
 10 11  2  0
 10 16  1  0
 11 12  1  0
 12 13  1  0
 13 14  2  0
 13 15  1  0
 15 16  1  0
 17 18  2  3
 17 21  1  0
 18 19  1  0
 19 20  1  0
 21 22  2  3
 22 23  1  0
 22 24  1  0
M  END
