
     RDKit          3D

 24 26  0  0  0  0  0  0  0  0999 V2000
   -0.2250    1.7960   -2.9500 O   0  0  0  0  0  0  0  0  0  0  0  0
    0.0630    1.2070   -1.8570 C   0  0  0  0  0  0  0  0  0  0  0  0
   -1.0440    1.2980   -0.8930 C   0  0  0  0  0  0  0  0  0  0  0  0
   -1.0260    0.5190    0.3180 C   0  0  1  0  0  0  0  0  0  0  0  0
   -2.0280   -0.6140    0.3060 C   0  0  0  0  0  0  0  0  0  0  0  0
   -3.4220   -0.2260    0.1780 C   0  0  0  0  0  0  0  0  0  0  0  0
   -3.9420    1.0440    0.1550 C   0  0  0  0  0  0  0  0  0  0  0  0
   -5.3000    1.2940    0.0130 C   0  0  0  0  0  0  0  0  0  0  0  0
   -6.1570    0.2350   -0.1090 C   0  0  0  0  0  0  0  0  0  0  0  0
   -5.6280   -1.0380   -0.0840 C   0  0  0  0  0  0  0  0  0  0  0  0
   -6.7560   -2.3770   -0.2420 Cl  0  0  0  0  0  0  0  0  0  0  0  0
   -4.3110   -1.2530    0.0550 N   0  0  0  0  0  0  0  0  0  0  0  0
    0.1760   -0.0280    0.8590 N   0  0  0  0  0  0  0  0  0  0  0  0
    1.5230   -0.1700    0.5020 C   0  0  0  0  0  0  0  0  0  0  0  0
    2.3680   -0.6460    1.4640 C   0  0  0  0  0  0  0  0  0  0  0  0
    3.7210   -0.8050    1.1500 C   0  0  0  0  0  0  0  0  0  0  0  0
    4.2650   -0.5130   -0.0660 C   0  0  0  0  0  0  0  0  0  0  0  0
    5.5930   -0.6550   -0.4150 O   0  0  0  0  0  0  0  0  0  0  0  0
    6.5910   -1.1230    0.4310 C   0  0  1  0  0  0  0  0  0  0  0  0
    7.0450   -2.3280   -0.1380 F   0  0  0  0  0  0  0  0  0  0  0  0
    7.9510    0.0320    0.5110 Cl  0  0  0  0  0  0  0  0  0  0  0  0
    3.3760   -0.0230   -1.0430 C   0  0  0  0  0  0  0  0  0  0  0  0
    2.0460    0.1360   -0.7460 C   0  0  0  0  0  0  0  0  0  0  0  0
    1.3520    0.6440   -1.8950 N   0  0  0  0  0  0  0  0  0  0  0  0
  1  2  2  0
  2  3  1  0
  2 24  1  0
  3  4  1  0
  4  5  1  6
  4 13  1  0
  5  6  1  0
  6  7  2  0
  6 12  1  0
  7  8  1  0
  8  9  2  0
  9 10  1  0
 10 11  1  0
 10 12  2  0
 13 14  1  0
 14 15  2  0
 14 23  1  0
 15 16  1  0
 16 17  2  0
 17 18  1  0
 17 22  1  0
 18 19  1  0
 19 20  1  6
 19 21  1  0
 22 23  2  0
 23 24  1  0
M  END
