
     RDKit          3D

 18 18  0  0  0  0  0  0  0  0999 V2000
   -0.1120   -2.7080   -0.6590 C   0  0  0  0  0  0  0  0  0  0  0  0
    0.0260   -1.3220    0.0140 C   0  0  2  0  0  0  0  0  0  0  0  0
    1.4120   -0.9170   -0.1570 C   0  0  2  0  0  0  0  0  0  0  0  0
    2.2080   -1.9360    0.4700 O   0  0  0  0  0  0  0  0  0  0  0  0
    1.9060    0.3650    0.4320 C   0  0  0  0  0  0  0  0  0  0  0  0
    3.3500    0.5990    0.1410 C   0  0  0  0  0  0  0  0  0  0  0  0
    4.2380    0.0150    0.8150 O   0  0  0  0  0  0  0  0  0  0  0  0
    3.8110    1.4470   -0.8560 O   0  0  0  0  0  0  0  0  0  0  0  0
    5.1820    1.6140   -1.0670 N   0  0  0  0  0  0  0  0  0  0  0  0
   -0.2650   -1.6310    1.4900 C   0  0  0  0  0  0  0  0  0  0  0  0
   -0.2380   -0.4920    2.2620 O   0  0  0  0  0  0  0  0  0  0  0  0
   -1.0100    0.5400    1.8190 C   0  0  0  0  0  0  0  0  0  0  0  0
   -1.8750    0.1910    0.6280 C   0  0  1  0  0  0  0  0  0  0  0  0
   -2.6300    1.4200    0.2190 C   0  0  0  0  0  0  0  0  0  0  0  0
   -3.5590    1.2730   -0.9280 C   0  0  0  0  0  0  0  0  0  0  0  0
   -4.2040    2.4870   -1.2030 O   0  0  0  0  0  0  0  0  0  0  0  0
   -1.1050   -0.4900   -0.4770 C   0  0  1  0  0  0  0  0  0  0  0  0
   -0.7930    0.3320   -1.6110 N   0  0  0  0  0  0  0  0  0  0  0  0
  2  1  1  6
  2  3  1  0
  2 10  1  0
  2 17  1  0
  3  4  1  1
  3  5  1  0
  5  6  1  0
  6  7  2  0
  6  8  1  0
  8  9  1  0
 10 11  1  0
 11 12  1  0
 12 13  1  0
 13 14  1  6
 13 17  1  0
 14 15  1  0
 15 16  1  0
 17 18  1  6
M  END
