
     RDKit          3D

 18 18  0  0  0  0  0  0  0  0999 V2000
    5.2070    0.7700   -0.3180 C   0  0  0  0  0  0  0  0  0  0  0  0
    4.0830    0.3380   -1.1960 C   0  0  1  0  0  0  0  0  0  0  0  0
    4.0310   -1.0410   -1.2870 O   0  0  0  0  0  0  0  0  0  0  0  0
    3.8610   -1.6840   -0.0860 C   0  0  0  0  0  0  0  0  0  0  0  0
    2.8130   -0.9580    0.7700 C   0  0  0  0  0  0  0  0  0  0  0  0
    1.9270   -0.2180   -0.2260 C   0  0  1  0  0  0  0  0  0  0  0  0
    0.6840    0.1880    0.3530 N   0  0  0  0  0  0  0  0  0  0  0  0
   -0.5230   -0.3280   -0.1980 C   0  0  0  0  0  0  0  0  0  0  0  0
   -0.4930   -1.1220   -1.1730 O   0  0  0  0  0  0  0  0  0  0  0  0
   -1.7830    0.0470    0.3440 N   0  0  0  0  0  0  0  0  0  0  0  0
   -2.9840   -0.5050   -0.2530 C   0  0  0  0  0  0  0  0  0  0  0  0
   -4.1660    0.0540    0.5100 C   0  0  2  0  0  0  0  0  0  0  0  0
   -4.1280    1.5550    0.3680 C   0  0  0  0  0  0  0  0  0  0  0  0
   -4.0120   -0.3510    1.8380 O   0  0  0  0  0  0  0  0  0  0  0  0
   -5.4790   -0.4730   -0.0240 C   0  0  0  0  0  0  0  0  0  0  0  0
   -5.4940   -1.8620    0.0370 O   0  0  0  0  0  0  0  0  0  0  0  0
    2.7460    0.9350   -0.7560 C   0  0  1  0  0  0  0  0  0  0  0  0
    2.9850    1.9140    0.1900 O   0  0  0  0  0  0  0  0  0  0  0  0
  2  1  1  1
  2  3  1  0
  2 17  1  0
  3  4  1  0
  4  5  1  0
  5  6  1  0
  6  7  1  1
  6 17  1  0
  7  8  1  0
  8  9  2  0
  8 10  1  0
 10 11  1  0
 11 12  1  0
 12 13  1  1
 12 14  1  0
 12 15  1  0
 15 16  1  0
 17 18  1  1
M  END
