
     RDKit          3D

 18 18  0  0  0  0  0  0  0  0999 V2000
    1.6580    1.4670    1.1550 O   0  0  0  0  0  0  0  0  0  0  0  0
    1.3890    0.6450    0.2150 C   0  0  0  0  0  0  0  0  0  0  0  0
    0.0440    0.3360   -0.0880 N   0  0  0  0  0  0  0  0  0  0  0  0
   -1.0630    0.9200    0.6320 C   0  0  0  0  0  0  0  0  0  0  0  0
   -2.3950    0.4250    0.1130 C   0  0  1  0  0  0  0  0  0  0  0  0
   -2.5220   -1.0760    0.2440 C   0  0  0  0  0  0  0  0  0  0  0  0
   -3.7730   -1.4380   -0.5490 C   0  0  0  0  0  0  0  0  0  0  0  0
   -4.9380   -0.8930    0.1970 C   0  0  0  0  0  0  0  0  0  0  0  0
   -4.8790    0.5420    0.5450 C   0  0  0  0  0  0  0  0  0  0  0  0
   -3.5510    1.1660    0.6770 C   0  0  2  0  0  0  0  0  0  0  0  0
   -3.5790    2.4870    0.1710 O   0  0  0  0  0  0  0  0  0  0  0  0
    2.5010    0.0870   -0.4750 N   0  0  0  0  0  0  0  0  0  0  0  0
    3.8830    0.4290   -0.1360 C   0  0  2  0  0  0  0  0  0  0  0  0
    4.5110    0.9250   -1.2660 O   0  0  0  0  0  0  0  0  0  0  0  0
    4.5550   -0.8560    0.3210 C   0  0  2  0  0  0  0  0  0  0  0  0
    3.8660   -1.3330    1.4260 O   0  0  0  0  0  0  0  0  0  0  0  0
    5.9810   -0.5150    0.6970 C   0  0  0  0  0  0  0  0  0  0  0  0
    6.6400   -0.0410   -0.4300 O   0  0  0  0  0  0  0  0  0  0  0  0
  1  2  2  0
  2  3  1  0
  2 12  1  0
  3  4  1  0
  5  4  1  1
  5  6  1  0
  5 10  1  0
  6  7  1  0
  7  8  1  0
  8  9  1  0
  9 10  1  0
 10 11  1  6
 12 13  1  0
 13 14  1  6
 13 15  1  0
 15 16  1  1
 15 17  1  0
 17 18  1  0
M  END
