
     RDKit          3D

 18 18  0  0  0  0  0  0  0  0999 V2000
   -2.6660    1.8560    0.5340 C   0  0  0  0  0  0  0  0  0  0  0  0
   -2.8500    0.4950   -0.0100 C   0  0  1  0  0  0  0  0  0  0  0  0
   -3.9290   -0.1580    0.9050 C   0  0  0  0  0  0  0  0  0  0  0  0
   -3.4650    0.5590   -1.2770 O   0  0  0  0  0  0  0  0  0  0  0  0
   -1.7290   -0.4540   -0.0340 C   0  0  0  0  0  0  0  0  0  0  0  0
   -0.6350   -0.2110   -0.9400 N   0  0  0  0  0  0  0  0  0  0  0  0
    0.1460   -1.4490   -1.0190 C   0  0  0  0  0  0  0  0  0  0  0  0
    1.0790   -1.6230    0.1220 C   0  0  1  0  0  0  0  0  0  0  0  0
    1.8600   -2.8720   -0.0400 C   0  0  0  0  0  0  0  0  0  0  0  0
    1.2430   -4.1120   -0.3060 N   0  0  0  0  0  0  0  0  0  0  0  0
    3.1100   -2.8380    0.0600 O   0  0  0  0  0  0  0  0  0  0  0  0
    1.9710   -0.5790    0.3150 O   0  0  0  0  0  0  0  0  0  0  0  0
    1.6620    0.4250   -0.5960 C   0  0  2  0  0  0  0  0  0  0  0  0
    2.6660    1.5240   -0.4440 C   0  0  1  0  0  0  0  0  0  0  0  0
    2.3940    2.5630   -1.3240 O   0  0  0  0  0  0  0  0  0  0  0  0
    2.8960    2.0570    0.9110 C   0  0  0  0  0  0  0  0  0  0  0  0
    3.1730    1.1210    1.8910 O   0  0  0  0  0  0  0  0  0  0  0  0
    0.2390    0.8290   -0.4260 C   0  0  0  0  0  0  0  0  0  0  0  0
  2  1  1  1
  2  3  1  0
  2  4  1  0
  2  5  1  0
  5  6  1  0
  6  7  1  0
  6 18  1  0
  7  8  1  0
  8  9  1  6
  8 12  1  0
  9 10  1  0
  9 11  2  0
 12 13  1  0
 13 14  1  0
 13 18  1  1
 14 15  1  6
 14 16  1  0
 16 17  1  0
M  END
