
     RDKit          3D

 18 18  0  0  0  0  0  0  0  0999 V2000
    5.0760   -1.3440   -0.7560 C   0  0  0  0  0  0  0  0  0  0  0  0
    4.7890   -1.6520    0.6980 C   0  0  0  0  0  0  0  0  0  0  0  0
    4.1020   -0.5460    1.2480 O   0  0  0  0  0  0  0  0  0  0  0  0
    2.8990   -0.0850    0.7940 C   0  0  0  0  0  0  0  0  0  0  0  0
    2.3430   -0.6640   -0.1750 O   0  0  0  0  0  0  0  0  0  0  0  0
    2.2760    1.0990    1.4670 C   0  0  0  0  0  0  0  0  0  0  0  0
    1.0080    1.4400    0.8490 N   0  0  0  0  0  0  0  0  0  0  0  0
   -0.0390    0.4880    0.8330 C   0  0  0  0  0  0  0  0  0  0  0  0
    0.1790   -0.6290    1.3620 O   0  0  0  0  0  0  0  0  0  0  0  0
   -1.3360    0.8230    0.2070 C   0  0  2  0  0  0  0  0  0  0  0  0
   -1.2630    2.1190   -0.2840 O   0  0  0  0  0  0  0  0  0  0  0  0
   -2.4270    0.6850    1.2550 C   0  0  0  0  0  0  0  0  0  0  0  0
   -3.7950    0.9150    0.6950 C   0  0  0  0  0  0  0  0  0  0  0  0
   -3.7950    0.8880   -0.8210 C   0  0  0  0  0  0  0  0  0  0  0  0
   -3.0220   -0.3460   -1.2350 C   0  0  1  0  0  0  0  0  0  0  0  0
   -3.1910   -0.6060   -2.6090 O   0  0  0  0  0  0  0  0  0  0  0  0
   -1.5730   -0.1880   -0.8970 C   0  0  2  0  0  0  0  0  0  0  0  0
   -0.9730   -1.4370   -0.4640 N   0  0  0  0  0  0  0  0  0  0  0  0
  1  2  1  0
  2  3  1  0
  3  4  1  0
  4  5  2  0
  4  6  1  0
  6  7  1  0
  7  8  1  0
  8  9  2  0
  8 10  1  0
 10 11  1  6
 10 12  1  0
 10 17  1  0
 12 13  1  0
 13 14  1  0
 14 15  1  0
 15 16  1  6
 15 17  1  0
 17 18  1  1
M  END
