
     RDKit          3D

 18 18  0  0  0  0  0  0  0  0999 V2000
    0.1770   -0.3610   -2.6630 N   0  0  0  0  0  0  0  0  0  0  0  0
   -0.4120   -0.6960   -1.3940 C   0  0  2  0  0  0  0  0  0  0  0  0
   -1.6360    0.1290   -1.1710 C   0  0  0  0  0  0  0  0  0  0  0  0
   -2.2450   -0.0160    0.1830 C   0  0  2  0  0  0  0  0  0  0  0  0
   -3.2990    0.8460    0.3300 O   0  0  0  0  0  0  0  0  0  0  0  0
   -4.5190    0.2000    0.5050 C   0  0  0  0  0  0  0  0  0  0  0  0
   -5.6540    1.1840    0.6620 C   0  0  0  0  0  0  0  0  0  0  0  0
   -6.8520    0.5110    0.8340 O   0  0  0  0  0  0  0  0  0  0  0  0
   -1.2340    0.0810    1.3030 C   0  0  0  0  0  0  0  0  0  0  0  0
   -0.1490   -0.9530    1.0040 C   0  0  0  0  0  0  0  0  0  0  0  0
    0.5420   -0.4730   -0.2470 C   0  0  1  0  0  0  0  0  0  0  0  0
    1.8020   -1.0270   -0.4420 O   0  0  0  0  0  0  0  0  0  0  0  0
    2.9410   -0.2320   -0.4730 C   0  0  0  0  0  0  0  0  0  0  0  0
    2.7650    0.9970   -0.3180 O   0  0  0  0  0  0  0  0  0  0  0  0
    4.2310   -0.7900   -0.6710 N   0  0  0  0  0  0  0  0  0  0  0  0
    5.3890    0.0510   -0.6970 C   0  0  0  0  0  0  0  0  0  0  0  0
    5.5590    0.7850    0.6100 C   0  0  0  0  0  0  0  0  0  0  0  0
    5.7040   -0.1270    1.6770 O   0  0  0  0  0  0  0  0  0  0  0  0
  2  1  1  6
  2  3  1  0
  2 11  1  0
  3  4  1  0
  4  5  1  1
  4  9  1  0
  5  6  1  0
  6  7  1  0
  7  8  1  0
  9 10  1  0
 10 11  1  0
 11 12  1  6
 12 13  1  0
 13 14  2  0
 13 15  1  0
 15 16  1  0
 16 17  1  0
 17 18  1  0
M  END
