
     RDKit          3D

 18 18  0  0  0  0  0  0  0  0999 V2000
    1.4850    1.8740   -0.4710 C   0  0  0  0  0  0  0  0  0  0  0  0
    0.8890    0.7300    0.3000 C   0  0  1  0  0  0  0  0  0  0  0  0
   -0.5530    0.8140    0.5890 C   0  0  1  0  0  0  0  0  0  0  0  0
   -1.1690    2.1030    0.0000 C   0  0  0  0  0  0  0  0  0  0  0  0
   -2.6580    2.1350    0.3410 C   0  0  0  0  0  0  0  0  0  0  0  0
   -2.8580    2.1220    1.7000 O   0  0  0  0  0  0  0  0  0  0  0  0
   -1.4300   -0.3230    0.1840 C   0  0  2  0  0  0  0  0  0  0  0  0
   -2.4380   -0.5840    1.2260 N   0  0  0  0  0  0  0  0  0  0  0  0
   -0.6810   -1.5890   -0.0030 C   0  0  1  0  0  0  0  0  0  0  0  0
   -1.4970   -2.7480   -0.3530 C   0  0  0  0  0  0  0  0  0  0  0  0
   -2.7320   -2.6160   -0.4850 O   0  0  0  0  0  0  0  0  0  0  0  0
   -0.9530   -4.0020   -0.5460 O   0  0  0  0  0  0  0  0  0  0  0  0
    0.3900   -1.3080   -1.0670 C   0  0  0  0  0  0  0  0  0  0  0  0
    1.3550   -0.4930   -0.3190 N   0  0  0  0  0  0  0  0  0  0  0  0
    2.6920   -0.9360   -0.2230 C   0  0  0  0  0  0  0  0  0  0  0  0
    2.9810   -2.0370   -0.8100 O   0  0  0  0  0  0  0  0  0  0  0  0
    3.7540   -0.1980    0.5140 C   0  0  0  0  0  0  0  0  0  0  0  0
    4.9520   -0.9340    0.4400 O   0  0  0  0  0  0  0  0  0  0  0  0
  2  1  1  6
  2  3  1  0
  2 14  1  0
  3  4  1  6
  3  7  1  0
  4  5  1  0
  5  6  1  0
  7  8  1  1
  7  9  1  0
  9 10  1  6
  9 13  1  0
 10 11  2  0
 10 12  1  0
 13 14  1  0
 14 15  1  0
 15 16  2  0
 15 17  1  0
 17 18  1  0
M  END
