
     RDKit          3D

 39 39  0  0  0  0  0  0  0  0999 V2000
    3.3110    0.1180    2.6940 C   0  0  0  0  0  0  0  0  0  0  0  0
    2.8630   -0.9610    1.7400 C   0  0  0  0  0  0  0  0  0  0  0  0
    2.0650   -0.4050    0.5640 C   0  0  1  0  0  0  0  0  0  0  0  0
    0.8320    0.3110    1.0800 C   0  0  0  0  0  0  0  0  0  0  0  0
   -0.2550   -0.7020    2.0370 S   0  0  0  0  0  0  0  0  0  0  0  0
   -1.1610   -1.9280    1.1250 C   0  0  0  0  0  0  0  0  0  0  0  0
   -2.1910   -1.2360    0.2770 C   0  0  2  0  0  0  0  0  0  0  0  0
   -3.0130   -0.4790    1.2380 N   0  0  0  0  0  0  0  0  0  0  0  0
   -3.4650    0.8170    0.8980 C   0  0  0  0  0  0  0  0  0  0  0  0
   -3.1900    1.3260   -0.2370 O   0  0  0  0  0  0  0  0  0  0  0  0
   -4.2670    1.5690    1.8980 C   0  0  0  0  0  0  0  0  0  0  0  0
   -4.9710    2.7170    1.2240 C   0  0  0  0  0  0  0  0  0  0  0  0
   -5.9550    2.2550    0.1550 C   0  0  2  0  0  0  0  0  0  0  0  0
   -6.5400    3.4740   -0.3900 N   0  0  0  0  0  0  0  0  0  0  0  0
   -6.9970    1.4050    0.7510 C   0  0  0  0  0  0  0  0  0  0  0  0
   -6.7190    0.2470    1.1720 O   0  0  0  0  0  0  0  0  0  0  0  0
   -8.3180    1.8730    0.8610 O   0  0  0  0  0  0  0  0  0  0  0  0
   -3.0560   -2.2780   -0.3610 C   0  0  0  0  0  0  0  0  0  0  0  0
   -3.9530   -2.7690    0.3470 O   0  0  0  0  0  0  0  0  0  0  0  0
   -2.8670   -2.6730   -1.6870 N   0  0  0  0  0  0  0  0  0  0  0  0
   -3.7480   -3.6870   -2.2650 C   0  0  0  0  0  0  0  0  0  0  0  0
   -5.1290   -3.1800   -2.1830 C   0  0  0  0  0  0  0  0  0  0  0  0
   -5.4280   -2.0590   -1.6790 O   0  0  0  0  0  0  0  0  0  0  0  0
   -6.1810   -3.9280   -2.6670 O   0  0  0  0  0  0  0  0  0  0  0  0
    2.9060    0.6340   -0.0890 C   0  0  0  0  0  0  0  0  0  0  0  0
    2.4800    1.7930   -0.2870 O   0  0  0  0  0  0  0  0  0  0  0  0
    4.2640    0.3140   -0.5150 C   0  0  0  0  0  0  0  0  0  0  0  0
    5.3560    0.8730    0.1700 C   0  0  0  0  0  0  0  0  0  0  0  0
    6.6470    0.5740   -0.2060 C   0  0  0  0  0  0  0  0  0  0  0  0
    6.8570   -0.2710   -1.2510 C   0  0  0  0  0  0  0  0  0  0  0  0
    8.1180   -0.6380   -1.7080 O   0  0  0  0  0  0  0  0  0  0  0  0
    9.3130   -0.1450   -1.1210 C   0  0  0  0  0  0  0  0  0  0  0  0
    9.4450    1.3200   -1.2290 C   0  0  0  0  0  0  0  0  0  0  0  0
   10.4450    1.8440   -0.6790 O   0  0  0  0  0  0  0  0  0  0  0  0
    8.5550    2.1570   -1.8880 O   0  0  0  0  0  0  0  0  0  0  0  0
    5.7790   -0.8100   -1.9130 C   0  0  0  0  0  0  0  0  0  0  0  0
    6.0250   -1.8950   -3.2630 Cl  0  0  0  0  0  0  0  0  0  0  0  0
    4.4730   -0.5300   -1.5600 C   0  0  0  0  0  0  0  0  0  0  0  0
    3.1020   -1.2350   -2.4230 Cl  0  0  0  0  0  0  0  0  0  0  0  0
  1  2  1  0
  3  2  1  1
  3  4  1  0
  3 25  1  0
  4  5  1  0
  5  6  1  0
  7  6  1  1
  7  8  1  0
  7 18  1  0
  8  9  1  0
  9 10  2  0
  9 11  1  0
 11 12  1  0
 12 13  1  0
 13 14  1  1
 13 15  1  0
 15 16  2  0
 15 17  1  0
 18 19  2  0
 18 20  1  0
 20 21  1  0
 21 22  1  0
 22 23  2  0
 22 24  1  0
 25 26  2  0
 25 27  1  0
 27 28  2  0
 27 38  1  0
 28 29  1  0
 29 30  2  0
 30 31  1  0
 30 36  1  0
 31 32  1  0
 32 33  1  0
 33 34  2  0
 33 35  1  0
 36 37  1  0
 36 38  2  0
 38 39  1  0
M  CHG  1  14   1
M  END
