
     RDKit          3D

 41 44  0  0  0  0  0  0  0  0999 V2000
    8.4340   -0.8940    1.6570 C   0  0  0  0  0  0  0  0  0  0  0  0
    9.4880   -0.3710    0.7690 C   0  0  1  0  0  0  0  0  0  0  0  0
    8.9920    0.3690   -0.4700 C   0  0  0  0  0  0  0  0  0  0  0  0
    8.1920   -0.5810   -1.3010 C   0  0  0  0  0  0  0  0  0  0  0  0
    7.6150   -0.0040   -2.5070 C   0  0  0  0  0  0  0  0  0  0  0  0
    8.2270    0.1340   -3.6060 O   0  0  0  0  0  0  0  0  0  0  0  0
    6.2180    0.4330   -2.4350 C   0  0  0  0  0  0  0  0  0  0  0  0
    5.6480    0.5430   -1.1680 C   0  0  0  0  0  0  0  0  0  0  0  0
    4.3030    0.8260   -1.0850 C   0  0  0  0  0  0  0  0  0  0  0  0
    3.5780    0.9850   -2.2600 C   0  0  0  0  0  0  0  0  0  0  0  0
    2.1580    1.3160   -2.0630 C   0  0  0  0  0  0  0  0  0  0  0  0
    1.6980    0.6850   -0.9020 O   0  0  0  0  0  0  0  0  0  0  0  0
    1.5650   -0.6760   -0.6990 C   0  0  0  0  0  0  0  0  0  0  0  0
    1.8530   -1.4950   -1.5400 O   0  0  0  0  0  0  0  0  0  0  0  0
    0.9930   -1.0780    0.6730 C   0  0  0  0  0  0  0  0  0  0  0  0
   -0.4100   -0.7640    0.5900 N   0  0  0  0  0  0  0  0  0  0  0  0
   -1.2760   -1.3100   -0.4110 C   0  0  0  0  0  0  0  0  0  0  0  0
   -0.7530   -2.1920   -1.1980 O   0  0  0  0  0  0  0  0  0  0  0  0
   -2.6210   -0.8490   -0.5100 C   0  0  1  0  0  0  0  0  0  0  0  0
   -3.4520   -1.2750   -1.7130 C   0  0  0  0  0  0  0  0  0  0  0  0
   -4.6060   -0.2980   -1.3810 C   0  0  0  0  0  0  0  0  0  0  0  0
   -5.1540    0.4030   -2.1630 O   0  0  0  0  0  0  0  0  0  0  0  0
   -4.8310   -0.4660    0.0320 N   0  0  0  0  0  0  0  0  0  0  0  0
   -5.9270   -0.1060    0.8370 C   0  0  1  0  0  0  0  0  0  0  0  0
   -5.9270    1.4440    1.0640 C   0  0  0  0  0  0  0  0  0  0  0  0
   -6.9250    1.6260    2.2050 C   0  0  0  0  0  0  0  0  0  0  0  0
   -7.6190    0.4800    2.5110 O   0  0  0  0  0  0  0  0  0  0  0  0
   -8.2680   -0.0920    1.4250 C   0  0  1  0  0  0  0  0  0  0  0  0
   -8.8910   -1.3940    1.8780 C   0  0  0  0  0  0  0  0  0  0  0  0
   -9.6000   -2.0550    0.8960 O   0  0  0  0  0  0  0  0  0  0  0  0
  -10.3920   -1.2720    0.1000 C   0  0  0  0  0  0  0  0  0  0  0  0
  -10.5460    0.0710    0.6920 C   0  0  0  0  0  0  0  0  0  0  0  0
  -11.6460    0.4990    0.9460 O   0  0  0  0  0  0  0  0  0  0  0  0
   -9.3480    0.8910    0.9640 C   0  0  0  0  0  0  0  0  0  0  0  0
   -7.2910   -0.3860    0.2870 C   0  0  0  0  0  0  0  0  0  0  0  0
   -3.5850   -1.1220    0.5810 C   0  0  0  0  0  0  0  0  0  0  0  0
    4.1260    0.8810   -3.5150 C   0  0  0  0  0  0  0  0  0  0  0  0
    5.4990    0.5950   -3.5880 C   0  0  0  0  0  0  0  0  0  0  0  0
   10.5300    0.3960    1.4660 C   0  0  0  0  0  0  0  0  0  0  0  0
   11.3460   -0.7050    2.6500 S   0  0  0  0  0  0  0  0  0  0  0  0
   12.5130    0.0360    3.2500 O   0  0  0  0  0  0  0  0  0  0  0  0
  2  1  1  1
  2  3  1  0
  2 39  1  0
  3  4  1  0
  4  5  1  0
  5  6  2  0
  5  7  1  0
  7  8  2  0
  7 38  1  0
  8  9  1  0
  9 10  2  0
 10 11  1  0
 10 37  1  0
 11 12  1  0
 12 13  1  0
 13 14  2  0
 13 15  1  0
 15 16  1  0
 16 17  1  0
 17 18  2  0
 19 17  1  1
 19 20  1  0
 19 36  1  0
 20 21  1  0
 21 22  2  0
 21 23  1  0
 24 23  1  6
 23 36  1  0
 24 25  1  0
 24 35  1  0
 25 26  1  0
 26 27  1  0
 27 28  1  0
 28 29  1  1
 28 34  1  0
 28 35  1  0
 29 30  1  0
 30 31  1  0
 31 32  1  0
 32 33  2  0
 32 34  1  0
 37 38  2  0
 39 40  1  0
 40 41  2  0
M  END
