
     RDKit          3D

 39 42  0  0  0  0  0  0  0  0999 V2000
   -8.1580    4.2050    0.3890 C   0  0  0  0  0  0  0  0  0  0  0  0
   -8.5760    2.8230    0.4950 N   0  0  0  0  0  0  0  0  0  0  0  0
   -7.8190    1.7740   -0.0580 C   0  0  0  0  0  0  0  0  0  0  0  0
   -6.7400    2.0120   -0.8660 C   0  0  0  0  0  0  0  0  0  0  0  0
   -6.0360    0.9110   -1.3690 C   0  0  0  0  0  0  0  0  0  0  0  0
   -6.3900   -0.3700   -1.0740 C   0  0  0  0  0  0  0  0  0  0  0  0
   -5.6450   -1.5630   -1.5490 C   0  0  0  0  0  0  0  0  0  0  0  0
   -4.3580   -1.2980   -1.8050 O   0  0  0  0  0  0  0  0  0  0  0  0
   -3.4970   -0.8400   -0.8810 C   0  0  0  0  0  0  0  0  0  0  0  0
   -3.3460   -1.7880    0.2690 C   0  0  0  0  0  0  0  0  0  0  0  0
   -4.0080   -2.8820    0.4280 O   0  0  0  0  0  0  0  0  0  0  0  0
   -3.6760   -3.4960    1.5220 C   0  0  0  0  0  0  0  0  0  0  0  0
   -4.1870   -4.7730    2.0860 C   0  0  0  0  0  0  0  0  0  0  0  0
   -2.6760   -2.7150    2.1540 C   0  0  0  0  0  0  0  0  0  0  0  0
   -2.4680   -1.6320    1.3400 C   0  0  0  0  0  0  0  0  0  0  0  0
   -1.4040   -0.5930    1.3410 C   0  0  0  0  0  0  0  0  0  0  0  0
   -1.1100    0.1420    2.2760 O   0  0  0  0  0  0  0  0  0  0  0  0
   -0.6770   -0.4700    0.1460 N   0  0  0  0  0  0  0  0  0  0  0  0
    0.3380    0.2110   -0.4780 C   0  0  0  0  0  0  0  0  0  0  0  0
    1.6490   -0.3450   -0.0600 C   0  0  0  0  0  0  0  0  0  0  0  0
    2.2750   -0.0190    1.1500 C   0  0  0  0  0  0  0  0  0  0  0  0
    3.6160   -0.4130    1.2470 C   0  0  0  0  0  0  0  0  0  0  0  0
    4.2990   -1.0760    0.2540 C   0  0  0  0  0  0  0  0  0  0  0  0
    5.7500   -1.4040    0.4230 C   0  0  0  0  0  0  0  0  0  0  0  0
    6.6560   -0.5130    0.2410 C   0  0  0  0  0  0  0  0  0  0  0  0
    6.4930    1.1640   -0.2200 S   0  0  0  0  0  0  0  0  0  0  0  0
    8.2250    1.6010   -0.1300 C   0  0  0  0  0  0  0  0  0  0  0  0
    8.7140    2.9960   -0.3290 C   0  0  0  0  0  0  0  0  0  0  0  0
   10.3940    3.3060    0.0290 S   0  0  0  0  0  0  0  0  0  0  0  0
   11.5650    2.4070   -0.9120 C   0  0  0  0  0  0  0  0  0  0  0  0
   10.6900    4.7890    0.0330 O   0  0  0  0  0  0  0  0  0  0  0  0
    8.8240    0.5110    0.1990 C   0  0  0  0  0  0  0  0  0  0  0  0
    8.1390   -0.6930    0.4260 C   0  0  0  0  0  0  0  0  0  0  0  0
    8.5170   -1.8480    0.7400 O   0  0  0  0  0  0  0  0  0  0  0  0
    3.6450   -1.3710   -0.8880 N   0  0  0  0  0  0  0  0  0  0  0  0
    2.3840   -1.0230   -1.0400 C   0  0  0  0  0  0  0  0  0  0  0  0
    1.6480   -1.4420   -2.2790 C   0  0  0  0  0  0  0  0  0  0  0  0
   -7.4950   -0.5890   -0.2510 C   0  0  0  0  0  0  0  0  0  0  0  0
   -8.1980    0.4650    0.2510 C   0  0  0  0  0  0  0  0  0  0  0  0
  1  2  1  0
  2  3  1  0
  3  4  2  0
  3 39  1  0
  4  5  1  0
  5  6  2  0
  6  7  1  0
  6 38  1  0
  7  8  1  0
  8  9  1  0
  9 10  1  0
 10 11  1  0
 10 15  2  0
 11 12  1  0
 12 13  1  0
 12 14  2  0
 14 15  1  0
 15 16  1  0
 16 17  2  0
 16 18  1  0
 18 19  1  0
 19 20  1  0
 20 21  2  0
 20 36  1  0
 21 22  1  0
 22 23  2  0
 23 24  1  0
 23 35  1  0
 24 25  2  3
 25 26  1  0
 25 33  1  0
 26 27  1  0
 27 28  1  0
 27 32  2  0
 28 29  1  0
 29 30  1  6
 29 31  2  0
 32 33  1  0
 33 34  2  0
 35 36  2  0
 36 37  1  0
 38 39  2  0
M  END
