
     RDKit          3D

 39 42  0  0  0  0  0  0  0  0999 V2000
    9.3430    1.2870    1.7190 C   0  0  0  0  0  0  0  0  0  0  0  0
    8.1510    1.0870    2.0970 N   0  0  0  0  0  0  0  0  0  0  0  0
    7.4210   -0.1030    1.8860 C   0  0  0  0  0  0  0  0  0  0  0  0
    7.8380   -1.2480    2.3490 C   0  0  0  0  0  0  0  0  0  0  0  0
    6.2210   -0.0470    1.1330 N   0  0  0  0  0  0  0  0  0  0  0  0
    5.7200    1.1630    0.6070 C   0  0  0  0  0  0  0  0  0  0  0  0
    6.3560    2.2190    0.8230 O   0  0  0  0  0  0  0  0  0  0  0  0
    4.4700    1.2410   -0.1940 C   0  0  2  0  0  0  0  0  0  0  0  0
    4.1590    2.6710   -0.5880 C   0  0  0  0  0  0  0  0  0  0  0  0
    3.0780    0.4640    0.6400 S   0  0  0  0  0  0  0  0  0  0  0  0
    2.6350   -0.7310   -0.6290 C   0  0  1  0  0  0  0  0  0  0  0  0
    1.3480   -0.4240   -1.3290 C   0  0  0  0  0  0  0  0  0  0  0  0
    0.1360   -0.3660   -0.4150 C   0  0  0  0  0  0  0  0  0  0  0  0
   -0.1000   -1.6300    0.3120 C   0  0  0  0  0  0  0  0  0  0  0  0
   -1.5250   -1.5430    1.3600 S   0  0  2  0  0  0  0  0  0  0  0  0
   -1.2350   -0.4750    2.4360 O   0  0  0  0  0  0  0  0  0  0  0  0
   -1.5430   -2.8350    2.2340 O   0  0  0  0  0  0  0  0  0  0  0  0
   -3.0150   -1.3860    0.7080 N   0  0  0  0  0  0  0  0  0  0  0  0
   -3.4710   -0.3370   -0.0810 C   0  0  1  0  0  0  0  0  0  0  0  0
   -3.5180   -0.9860   -1.5180 C   0  0  0  0  0  0  0  0  0  0  0  0
   -4.8530    0.1490    0.1590 C   0  0  0  0  0  0  0  0  0  0  0  0
   -5.0760    1.1750    1.0400 C   0  0  0  0  0  0  0  0  0  0  0  0
   -4.0180    1.8090    1.8040 C   0  0  0  0  0  0  0  0  0  0  0  0
   -3.8200    1.0410    3.0920 C   0  0  0  0  0  0  0  0  0  0  0  0
   -6.3310    1.6260    1.2250 O   0  0  0  0  0  0  0  0  0  0  0  0
   -7.3640    1.1580    0.6290 C   0  0  0  0  0  0  0  0  0  0  0  0
   -8.6260    1.7050    0.8970 C   0  0  0  0  0  0  0  0  0  0  0  0
   -9.7190    1.1870    0.2450 C   0  0  0  0  0  0  0  0  0  0  0  0
   -9.5750    0.1580   -0.6480 C   0  0  0  0  0  0  0  0  0  0  0  0
   -8.3140   -0.3650   -0.8950 C   0  0  0  0  0  0  0  0  0  0  0  0
   -7.2010    0.1340   -0.2560 C   0  0  0  0  0  0  0  0  0  0  0  0
   -5.9250   -0.3990   -0.5120 C   0  0  0  0  0  0  0  0  0  0  0  0
   -5.8670   -1.3360   -1.3290 O   0  0  0  0  0  0  0  0  0  0  0  0
    3.7150   -0.5300   -1.6470 C   0  0  0  0  0  0  0  0  0  0  0  0
    3.8110   -1.3190   -2.8150 C   0  0  0  0  0  0  0  0  0  0  0  0
    4.7820   -1.1280   -3.7600 C   0  0  0  0  0  0  0  0  0  0  0  0
    5.6880   -0.1220   -3.5430 C   0  0  0  0  0  0  0  0  0  0  0  0
    5.5930    0.6400   -2.4120 C   0  0  0  0  0  0  0  0  0  0  0  0
    4.5830    0.4370   -1.4320 C   0  0  0  0  0  0  0  0  0  0  0  0
  1  2  2  0
  2  3  1  0
  3  4  2  0
  3  5  1  0
  5  6  1  0
  6  7  2  0
  6  8  1  0
  8  9  1  6
  8 10  1  0
  8 39  1  0
 10 11  1  0
 11 12  1  6
 11 34  1  0
 12 13  1  0
 13 14  1  0
 15 14  1  6
 15 16  2  0
 15 17  2  0
 15 18  1  0
 18 19  1  0
 19 20  1  6
 19 21  1  0
 21 22  2  0
 21 32  1  0
 22 23  1  0
 22 25  1  0
 23 24  1  0
 25 26  1  0
 26 27  2  0
 26 31  1  0
 27 28  1  0
 28 29  2  0
 29 30  1  0
 30 31  2  0
 31 32  1  0
 32 33  2  0
 34 35  2  0
 34 39  1  0
 35 36  1  0
 36 37  2  0
 37 38  1  0
 38 39  2  0
M  END
