
     RDKit          3D

 39 41  0  0  0  0  0  0  0  0999 V2000
    8.6400    4.8600    0.5940 C   0  0  0  0  0  0  0  0  0  0  0  0
    9.1400    3.6510   -0.1930 C   0  0  0  0  0  0  0  0  0  0  0  0
    8.0800    2.5890   -0.1800 C   0  0  0  0  0  0  0  0  0  0  0  0
    7.1020    2.5350   -1.1370 C   0  0  0  0  0  0  0  0  0  0  0  0
    6.1460    1.5620   -1.1100 C   0  0  0  0  0  0  0  0  0  0  0  0
    6.1550    0.6220   -0.1190 C   0  0  0  0  0  0  0  0  0  0  0  0
    5.1460   -0.3770   -0.1170 N   0  0  0  0  0  0  0  0  0  0  0  0
    5.1910   -1.3930    0.8920 C   0  0  0  0  0  0  0  0  0  0  0  0
    4.0420   -2.4100    0.7430 C   0  0  0  0  0  0  0  0  0  0  0  0
    4.1400   -3.0710   -0.5830 C   0  0  0  0  0  0  0  0  0  0  0  0
    2.9360   -4.2910   -0.9060 S   0  0  1  0  0  0  0  0  0  0  0  0
    3.2980   -4.9370   -2.2530 O   0  0  0  0  0  0  0  0  0  0  0  0
    3.1760   -5.3880    0.1710 O   0  0  0  0  0  0  0  0  0  0  0  0
    1.3480   -3.8420   -0.9710 N   0  0  0  0  0  0  0  0  0  0  0  0
    0.7070   -3.2940    0.1380 C   0  0  0  0  0  0  0  0  0  0  0  0
   -0.7750   -2.9760   -0.1480 C   0  0  2  0  0  0  0  0  0  0  0  0
   -0.7800   -2.0530   -1.1860 O   0  0  0  0  0  0  0  0  0  0  0  0
   -1.2930   -2.2750    1.0880 C   0  0  0  0  0  0  0  0  0  0  0  0
   -2.6440   -1.7690    0.8970 N   0  0  0  0  0  0  0  0  0  0  0  0
   -3.2860   -0.5390    0.5010 C   0  0  0  0  0  0  0  0  0  0  0  0
   -3.7660    0.4040    1.3930 C   0  0  0  0  0  0  0  0  0  0  0  0
   -4.5620    1.5200    1.0260 C   0  0  0  0  0  0  0  0  0  0  0  0
   -4.9420    1.7800   -0.2790 C   0  0  0  0  0  0  0  0  0  0  0  0
   -4.4580    0.8480   -1.1770 C   0  0  0  0  0  0  0  0  0  0  0  0
   -3.6590   -0.2690   -0.7980 C   0  0  0  0  0  0  0  0  0  0  0  0
   -5.9150    2.8870   -0.6430 C   0  0  1  0  0  0  0  0  0  0  0  0
   -5.6720    4.2210    0.0270 C   0  0  0  0  0  0  0  0  0  0  0  0
   -5.9400    3.3770   -2.0540 C   0  0  0  0  0  0  0  0  0  0  0  0
   -7.2730    2.3410   -0.2510 C   0  0  0  0  0  0  0  0  0  0  0  0
   -7.7110    1.1290   -0.3010 C   0  0  0  0  0  0  0  0  0  0  0  0
   -7.2980   -0.1740   -0.6690 C   0  0  0  0  0  0  0  0  0  0  0  0
   -6.7810   -1.2810   -0.1140 C   0  0  0  0  0  0  0  0  0  0  0  0
   -6.3680   -1.7230    1.1600 C   0  0  0  0  0  0  0  0  0  0  0  0
   -5.3660   -2.3510    1.7470 C   0  0  0  0  0  0  0  0  0  0  0  0
   -3.8810   -3.0470    1.2580 S   0  0  1  0  0  0  0  0  0  0  0  0
   -3.9820   -3.9350    0.0600 O   0  0  0  0  0  0  0  0  0  0  0  0
   -3.3500   -3.8890    2.3630 O   0  0  0  0  0  0  0  0  0  0  0  0
    7.1300    0.6610    0.8500 C   0  0  0  0  0  0  0  0  0  0  0  0
    8.1070    1.6510    0.8290 C   0  0  0  0  0  0  0  0  0  0  0  0
  1  2  1  0
  2  3  1  0
  3  4  2  0
  3 39  1  0
  4  5  1  0
  5  6  2  0
  6  7  1  0
  6 38  1  0
  7  8  1  0
  8  9  1  0
  9 10  1  0
 11 10  1  1
 11 12  2  0
 11 13  2  0
 11 14  1  0
 14 15  1  0
 15 16  1  0
 16 17  1  6
 16 18  1  0
 18 19  1  0
 19 20  1  0
 35 19  1  6
 20 21  2  0
 20 25  1  0
 21 22  1  0
 22 23  2  0
 23 24  1  0
 23 26  1  0
 24 25  2  0
 26 27  1  1
 26 28  1  0
 26 29  1  0
 29 30  2  0
 30 31  1  0
 31 32  2  0
 32 33  1  0
 33 34  2  0
 34 35  1  0
 35 36  2  0
 35 37  2  0
 38 39  2  0
M  END
