
     RDKit          3D

 39 42  0  0  0  0  0  0  0  0999 V2000
    9.8540    3.0830    2.6430 C   0  0  0  0  0  0  0  0  0  0  0  0
    8.4440    2.7340    2.3300 C   0  0  0  0  0  0  0  0  0  0  0  0
    7.4220    3.6650    2.4540 C   0  0  0  0  0  0  0  0  0  0  0  0
    6.1130    3.3490    2.1650 C   0  0  0  0  0  0  0  0  0  0  0  0
    5.7780    2.0810    1.7380 C   0  0  0  0  0  0  0  0  0  0  0  0
    6.7830    1.1520    1.6120 C   0  0  0  0  0  0  0  0  0  0  0  0
    6.4540   -0.2130    1.1560 C   0  0  0  0  0  0  0  0  0  0  0  0
    5.0550   -0.3960    0.8740 N   0  0  0  0  0  0  0  0  0  0  0  0
    4.0660   -0.5390    1.8750 C   0  0  0  0  0  0  0  0  0  0  0  0
    4.3930   -0.5080    3.0790 O   0  0  0  0  0  0  0  0  0  0  0  0
    2.6250   -0.7290    1.5630 C   0  0  0  0  0  0  0  0  0  0  0  0
    1.6760   -0.8640    2.4390 C   0  0  0  0  0  0  0  0  0  0  0  0
    0.0580   -1.0730    1.7340 S   0  0  0  0  0  0  0  0  0  0  0  0
    0.3120   -0.5370    0.0350 C   0  0  2  0  0  0  0  0  0  0  0  0
   -0.5240   -1.2130   -0.9840 C   0  0  2  0  0  0  0  0  0  0  0  0
   -1.9150   -0.9420   -0.6400 N   0  0  0  0  0  0  0  0  0  0  0  0
   -2.7820   -0.1310   -1.3860 C   0  0  0  0  0  0  0  0  0  0  0  0
   -2.3450    0.4130   -2.4340 O   0  0  0  0  0  0  0  0  0  0  0  0
   -4.1910    0.1380   -1.0320 C   0  0  2  0  0  0  0  0  0  0  0  0
   -4.5280    1.5870   -0.8760 C   0  0  0  0  0  0  0  0  0  0  0  0
   -5.3560    1.5680    0.3590 C   0  0  0  0  0  0  0  0  0  0  0  0
   -6.0860    2.7460    0.8770 C   0  0  1  0  0  0  0  0  0  0  0  0
   -7.0920    3.2130   -0.1590 C   0  0  0  0  0  0  0  0  0  0  0  0
   -6.8110    2.4400    2.1610 C   0  0  0  0  0  0  0  0  0  0  0  0
   -5.0310    3.8400    1.0840 C   0  0  0  0  0  0  0  0  0  0  0  0
   -5.3540    0.4050    0.9010 N   0  0  0  0  0  0  0  0  0  0  0  0
   -4.5800   -0.4890    0.1750 O   0  0  0  0  0  0  0  0  0  0  0  0
   -0.2830   -2.6420   -1.1960 C   0  0  0  0  0  0  0  0  0  0  0  0
    0.5250   -3.4050   -0.4030 C   0  0  0  0  0  0  0  0  0  0  0  0
    0.7510   -4.7680   -0.6020 C   0  0  0  0  0  0  0  0  0  0  0  0
    0.1340   -5.4060   -1.6550 C   0  0  0  0  0  0  0  0  0  0  0  0
   -0.6840   -4.6580   -2.4680 C   0  0  0  0  0  0  0  0  0  0  0  0
   -0.9100   -3.3190   -2.2760 C   0  0  0  0  0  0  0  0  0  0  0  0
   -1.7090   -2.5310   -3.0540 O   0  0  0  0  0  0  0  0  0  0  0  0
   -2.4730   -2.8550   -4.1430 C   0  0  0  0  0  0  0  0  0  0  0  0
   -3.5970   -3.7830   -3.8260 C   0  0  0  0  0  0  0  0  0  0  0  0
   -4.3470   -4.0820   -4.9940 O   0  0  0  0  0  0  0  0  0  0  0  0
    2.0860   -0.7990   -0.1320 S   0  0  0  0  0  0  0  0  0  0  0  0
    8.0770    1.4680    1.8980 C   0  0  0  0  0  0  0  0  0  0  0  0
  1  2  1  0
  2  3  2  0
  2 39  1  0
  3  4  1  0
  4  5  2  0
  5  6  1  0
  6  7  1  0
  6 39  2  0
  7  8  1  0
  8  9  1  0
  9 10  2  0
  9 11  1  0
 11 12  2  0
 11 38  1  0
 12 13  1  0
 14 13  1  1
 14 15  1  0
 14 38  1  0
 15 16  1  1
 15 28  1  0
 16 17  1  0
 17 18  2  0
 19 17  1  1
 19 20  1  0
 19 27  1  0
 20 21  1  0
 21 22  1  0
 21 26  2  0
 22 23  1  6
 22 24  1  0
 22 25  1  0
 26 27  1  0
 28 29  2  0
 28 33  1  0
 29 30  1  0
 30 31  2  0
 31 32  1  0
 32 33  2  0
 33 34  1  0
 34 35  1  0
 35 36  1  0
 36 37  1  0
M  END
