
     RDKit          3D

 41 44  0  0  0  0  0  0  0  0999 V2000
   -7.3050    2.8360   -0.0600 C   0  0  0  0  0  0  0  0  0  0  0  0
   -7.4150    2.0220    1.1920 C   0  0  0  0  0  0  0  0  0  0  0  0
   -6.1540    1.3200    1.5230 C   0  0  0  0  0  0  0  0  0  0  0  0
   -5.7640    0.3990    0.4810 N   0  0  0  0  0  0  0  0  0  0  0  0
   -4.7900    0.7970   -0.4910 C   0  0  0  0  0  0  0  0  0  0  0  0
   -3.4440    0.8620    0.1410 C   0  0  0  0  0  0  0  0  0  0  0  0
   -2.9460    2.0920    0.5650 C   0  0  0  0  0  0  0  0  0  0  0  0
   -1.7100    2.2070    1.1550 C   0  0  0  0  0  0  0  0  0  0  0  0
   -0.9370    1.0630    1.3330 C   0  0  0  0  0  0  0  0  0  0  0  0
   -1.4140   -0.1540    0.9210 C   0  0  0  0  0  0  0  0  0  0  0  0
   -2.6700   -0.2330    0.3270 C   0  0  0  0  0  0  0  0  0  0  0  0
   -0.3760   -1.1920    1.2370 C   0  0  0  0  0  0  0  0  0  0  0  0
    0.8660   -0.2940    1.2960 C   0  0  1  0  0  0  0  0  0  0  0  0
    1.9060   -0.9080    2.2110 C   0  0  0  0  0  0  0  0  0  0  0  0
    1.4110   -0.0190   -0.0430 C   0  0  0  0  0  0  0  0  0  0  0  0
    1.9210   -0.9620   -0.6870 O   0  0  0  0  0  0  0  0  0  0  0  0
    1.3770    1.2350   -0.6070 O   0  0  0  0  0  0  0  0  0  0  0  0
    1.9200    1.4280   -1.9000 C   0  0  0  0  0  0  0  0  0  0  0  0
    3.3570    1.0630   -1.8810 C   0  0  0  0  0  0  0  0  0  0  0  0
    4.0150    1.1690   -2.9520 O   0  0  0  0  0  0  0  0  0  0  0  0
    4.0380    0.6120   -0.7810 O   0  0  0  0  0  0  0  0  0  0  0  0
    5.3860    0.2600   -0.7260 C   0  0  2  0  0  0  0  0  0  0  0  0
    5.6500   -1.0910   -0.1360 C   0  0  1  0  0  0  0  0  0  0  0  0
    6.1610   -1.9770   -1.2800 C   0  0  0  0  0  0  0  0  0  0  0  0
    6.4600   -3.3770   -0.7780 C   0  0  0  0  0  0  0  0  0  0  0  0
    7.4170   -3.3900    0.2060 O   0  0  0  0  0  0  0  0  0  0  0  0
    6.6640   -0.9930    0.7780 O   0  0  0  0  0  0  0  0  0  0  0  0
    7.1370    0.2860    0.8190 C   0  0  1  0  0  0  0  0  0  0  0  0
    8.4060    0.4690    0.0290 C   0  0  0  0  0  0  0  0  0  0  0  0
    6.0830    1.1880    0.2450 C   0  0  1  0  0  0  0  0  0  0  0  0
    6.8050    2.6160   -0.6050 S   0  0  0  0  0  0  0  0  0  0  0  0
    7.6100    3.6610    0.6090 C   0  0  0  0  0  0  0  0  0  0  0  0
    0.3240    0.8700    1.8870 O   0  0  0  0  0  0  0  0  0  0  0  0
   -6.2960   -0.8950    0.5290 C   0  0  0  0  0  0  0  0  0  0  0  0
   -7.0290   -1.2380    1.5060 O   0  0  0  0  0  0  0  0  0  0  0  0
   -6.0370   -1.8820   -0.5340 C   0  0  2  0  0  0  0  0  0  0  0  0
   -6.6270   -1.4620   -1.8460 C   0  0  0  0  0  0  0  0  0  0  0  0
   -7.7140   -2.3620   -2.1440 N   0  0  0  0  0  0  0  0  0  0  0  0
   -8.0120   -3.1130   -0.9910 C   0  0  0  0  0  0  0  0  0  0  0  0
   -9.0980   -3.6300   -0.6780 O   0  0  0  0  0  0  0  0  0  0  0  0
   -6.7620   -3.1870   -0.1740 C   0  0  0  0  0  0  0  0  0  0  0  0
  1  2  1  0
  2  3  1  0
  3  4  1  0
  4  5  1  0
  4 34  1  0
  5  6  1  0
  6  7  2  0
  6 11  1  0
  7  8  1  0
  8  9  2  0
  9 10  1  0
  9 33  1  0
 10 11  2  0
 10 12  1  0
 12 13  1  0
 13 14  1  1
 13 15  1  0
 13 33  1  0
 15 16  2  0
 15 17  1  0
 17 18  1  0
 18 19  1  0
 19 20  2  0
 19 21  1  0
 22 21  1  1
 22 23  1  0
 22 30  1  0
 23 24  1  6
 23 27  1  0
 24 25  1  0
 25 26  1  0
 27 28  1  0
 28 29  1  6
 28 30  1  0
 30 31  1  6
 31 32  1  0
 34 35  2  0
 36 34  1  1
 36 37  1  0
 36 41  1  0
 37 38  1  0
 38 39  1  0
 39 40  2  0
 39 41  1  0
M  END
