
     RDKit          3D

 41 43  0  0  0  0  0  0  0  0999 V2000
   -5.4600    1.0950   -4.6510 C   0  0  0  0  0  0  0  0  0  0  0  0
   -6.0060    0.6310   -3.3610 C   0  0  0  0  0  0  0  0  0  0  0  0
   -7.3490    0.5470   -3.1200 C   0  0  0  0  0  0  0  0  0  0  0  0
   -7.8820    0.0980   -1.9340 C   0  0  0  0  0  0  0  0  0  0  0  0
   -6.9920   -0.2780   -0.9670 C   0  0  0  0  0  0  0  0  0  0  0  0
   -5.5970   -0.2200   -1.1440 C   0  0  0  0  0  0  0  0  0  0  0  0
   -4.7200   -0.7280   -0.0600 C   0  0  0  0  0  0  0  0  0  0  0  0
   -5.1130    0.2300   -2.3210 C   0  0  0  0  0  0  0  0  0  0  0  0
   -3.8010    0.3640   -2.6920 O   0  0  0  0  0  0  0  0  0  0  0  0
   -3.0270    1.4980   -2.6780 C   0  0  0  0  0  0  0  0  0  0  0  0
   -2.6630    2.1010   -1.4210 C   0  0  0  0  0  0  0  0  0  0  0  0
   -2.6520    3.4100   -1.4050 O   0  0  0  0  0  0  0  0  0  0  0  0
   -2.3070    1.4450   -0.2130 N   0  0  0  0  0  0  0  0  0  0  0  0
   -1.9650    2.1460    0.9910 C   0  0  1  0  0  0  0  0  0  0  0  0
   -2.8040    1.8370    2.1810 C   0  0  0  0  0  0  0  0  0  0  0  0
   -0.5370    1.8130    1.3490 C   0  0  0  0  0  0  0  0  0  0  0  0
    0.1910    1.1150    0.6080 O   0  0  0  0  0  0  0  0  0  0  0  0
    0.0470    2.2660    2.5310 O   0  0  0  0  0  0  0  0  0  0  0  0
    1.3860    1.9420    2.8400 C   0  0  0  0  0  0  0  0  0  0  0  0
    1.5710    0.5580    2.8620 O   0  0  0  0  0  0  0  0  0  0  0  0
    2.8690    0.1880    3.1780 C   0  0  1  0  0  0  0  0  0  0  0  0
    3.0050   -0.8000    4.2750 C   0  0  0  0  0  0  0  0  0  0  0  0
    3.6220   -0.2840    1.9510 C   0  0  0  0  0  0  0  0  0  0  0  0
    3.0120   -0.2320    0.8680 O   0  0  0  0  0  0  0  0  0  0  0  0
    4.9060   -0.7360    2.0470 O   0  0  0  0  0  0  0  0  0  0  0  0
    5.7050   -1.1690    0.9280 C   0  0  2  0  0  0  0  0  0  0  0  0
    4.9640   -2.2780    0.2360 C   0  0  0  0  0  0  0  0  0  0  0  0
    6.9610   -1.7340    1.5350 C   0  0  0  0  0  0  0  0  0  0  0  0
    5.9070   -0.0100    0.0500 C   0  0  1  0  0  0  0  0  0  0  0  0
    6.5250    1.0630    0.8310 O   0  0  0  0  0  0  0  0  0  0  0  0
    6.5950   -0.1020   -1.2390 C   0  0  0  0  0  0  0  0  0  0  0  0
    8.0250   -0.5740   -1.2140 C   0  0  0  0  0  0  0  0  0  0  0  0
    8.9940    0.3790   -0.9180 C   0  0  0  0  0  0  0  0  0  0  0  0
   10.5650   -0.5390   -0.8640 S   0  0  0  0  0  0  0  0  0  0  0  0
    9.7690   -2.1120   -1.2440 N   0  0  0  0  0  0  0  0  0  0  0  0
    8.4310   -1.8260   -1.3770 C   0  0  0  0  0  0  0  0  0  0  0  0
    7.5890   -3.0470   -1.7780 C   0  0  0  0  0  0  0  0  0  0  0  0
   -7.7910   -0.7010    0.2090 C   0  0  0  0  0  0  0  0  0  0  0  0
   -9.1250   -1.0490   -0.4410 C   0  0  1  0  0  0  0  0  0  0  0  0
  -10.2680   -0.9340    0.5460 C   0  0  0  0  0  0  0  0  0  0  0  0
   -9.1960   -0.0730   -1.4660 O   0  0  0  0  0  0  0  0  0  0  0  0
  1  2  1  0
  2  3  2  0
  2  8  1  0
  3  4  1  0
  4  5  2  0
  4 41  1  0
  5  6  1  0
  5 38  1  0
  6  7  1  0
  6  8  2  0
  8  9  1  0
  9 10  1  0
 10 11  1  0
 11 12  2  0
 11 13  1  0
 13 14  1  0
 14 15  1  1
 14 16  1  0
 16 17  2  0
 16 18  1  0
 18 19  1  0
 19 20  1  0
 20 21  1  0
 21 22  1  1
 21 23  1  0
 23 24  2  0
 23 25  1  0
 25 26  1  0
 26 27  1  6
 26 28  1  0
 26 29  1  0
 29 30  1  1
 29 31  1  0
 31 32  1  0
 32 33  2  0
 32 36  1  0
 33 34  1  0
 34 35  1  0
 35 36  2  0
 36 37  1  0
 38 39  1  0
 39 40  1  1
 39 41  1  0
M  END
