
     RDKit          3D

 39 42  0  0  0  0  0  0  0  0999 V2000
    9.8210    3.6640   -1.0610 C   0  0  0  0  0  0  0  0  0  0  0  0
    9.8530    2.2700   -1.2320 O   0  0  0  0  0  0  0  0  0  0  0  0
    8.8120    1.4710   -0.7230 C   0  0  0  0  0  0  0  0  0  0  0  0
    8.6960    0.1170   -0.7430 C   0  0  0  0  0  0  0  0  0  0  0  0
    7.6780   -0.6520   -0.2480 C   0  0  0  0  0  0  0  0  0  0  0  0
    6.6260    0.0680    0.3740 C   0  0  0  0  0  0  0  0  0  0  0  0
    5.2240   -0.7980    0.9740 S   0  0  1  0  0  0  0  0  0  0  0  0
    4.9810   -2.0630    0.1540 O   0  0  0  0  0  0  0  0  0  0  0  0
    5.5230   -1.2020    2.4030 O   0  0  0  0  0  0  0  0  0  0  0  0
    3.7750    0.2290    0.9260 C   0  0  0  0  0  0  0  0  0  0  0  0
    3.4430    0.6920   -0.4400 C   0  0  0  0  0  0  0  0  0  0  0  0
    2.2210    1.5250   -0.5260 C   0  0  0  0  0  0  0  0  0  0  0  0
    0.9990    0.8480   -0.1860 O   0  0  0  0  0  0  0  0  0  0  0  0
    0.8980   -0.2130   -1.1200 C   0  0  1  0  0  0  0  0  0  0  0  0
    0.5620   -1.4010   -0.2810 C   0  0  0  0  0  0  0  0  0  0  0  0
    0.4740   -2.7320   -0.9300 C   0  0  0  0  0  0  0  0  0  0  0  0
    1.7300   -2.9200   -1.5450 O   0  0  0  0  0  0  0  0  0  0  0  0
   -0.3390    0.1000   -2.0350 C   0  0  1  0  0  0  0  0  0  0  0  0
   -0.1900   -0.5300   -3.3850 C   0  0  0  0  0  0  0  0  0  0  0  0
   -1.5290   -0.1560   -1.2900 N   0  0  0  0  0  0  0  0  0  0  0  0
   -2.2880    0.3020   -0.3850 C   0  0  0  0  0  0  0  0  0  0  0  0
   -2.5750    1.3510    0.2530 N   0  0  0  0  0  0  0  0  0  0  0  0
   -3.1840    2.0840    1.0770 C   0  0  0  0  0  0  0  0  0  0  0  0
   -4.2840    0.9900    1.6830 C   0  0  0  0  0  0  0  0  0  0  0  0
   -4.0120   -0.0920    1.0140 C   0  0  0  0  0  0  0  0  0  0  0  0
   -3.4130   -0.8230    0.1990 C   0  0  0  0  0  0  0  0  0  0  0  0
   -3.2230   -2.0840   -0.4180 C   0  0  0  0  0  0  0  0  0  0  0  0
   -3.0990   -2.9720   -0.8370 N   0  0  0  0  0  0  0  0  0  0  0  0
   -5.5510   -0.6600    0.8310 C   0  0  0  0  0  0  0  0  0  0  0  0
   -6.0220   -2.4300    0.5940 S   0  0  0  0  0  0  0  0  0  0  0  0
   -7.8740   -2.1970    0.9900 C   0  0  0  0  0  0  0  0  0  0  0  0
   -8.9430   -3.0770    0.8540 C   0  0  0  0  0  0  0  0  0  0  0  0
   -7.7710   -0.7260    1.1980 C   0  0  0  0  0  0  0  0  0  0  0  0
   -9.2380   -0.1540    1.2380 C   0  0  0  0  0  0  0  0  0  0  0  0
   -6.7210   -0.2720    1.1170 C   0  0  0  0  0  0  0  0  0  0  0  0
   -6.5940    1.3470    1.6310 C   0  0  0  0  0  0  0  0  0  0  0  0
   -5.3060    1.3340    2.5230 C   0  0  0  0  0  0  0  0  0  0  0  0
    6.7110    1.4710    0.4240 C   0  0  0  0  0  0  0  0  0  0  0  0
    7.7660    2.1550   -0.1130 C   0  0  0  0  0  0  0  0  0  0  0  0
  1  2  1  0
  2  3  1  0
  3  4  2  0
  3 39  1  0
  4  5  1  0
  5  6  2  0
  6  7  1  0
  6 38  1  0
  7  8  2  0
  7  9  2  0
  7 10  1  1
 10 11  1  0
 11 12  1  0
 12 13  1  0
 13 14  1  0
 14 15  1  1
 14 18  1  0
 15 16  1  0
 16 17  1  0
 18 19  1  6
 18 20  1  0
 20 21  1  0
 21 22  2  0
 21 26  1  0
 22 23  1  0
 23 24  2  0
 24 25  1  0
 24 37  1  0
 25 26  2  0
 25 29  1  0
 26 27  1  0
 27 28  3  0
 29 30  1  0
 29 35  2  0
 30 31  1  0
 31 32  1  0
 31 33  2  0
 33 34  1  0
 33 35  1  0
 35 36  1  0
 36 37  1  0
 38 39  2  0
M  END
