
     RDKit          3D

 33 33  0  0  0  0  0  0  0  0999 V2000
    5.1820    3.4160   -0.0410 C   0  0  0  0  0  0  0  0  0  0  0  0
    5.0250    2.7450    1.1560 O   0  0  0  0  0  0  0  0  0  0  0  0
    4.8790    1.4040    0.9490 C   0  0  0  0  0  0  0  0  0  0  0  0
    3.6780    1.0000    0.1320 C   0  0  2  0  0  0  0  0  0  0  0  0
    2.5620    1.4830    0.8450 O   0  0  0  0  0  0  0  0  0  0  0  0
    1.6610    2.1640    0.0720 C   0  0  0  0  0  0  0  0  0  0  0  0
    0.3180    2.2010    0.7740 C   0  0  0  0  0  0  0  0  0  0  0  0
   -0.6970    1.6100    0.0630 O   0  0  0  0  0  0  0  0  0  0  0  0
   -1.4290    0.6680    0.7600 C   0  0  1  0  0  0  0  0  0  0  0  0
   -2.9410    0.8790    0.6310 C   0  0  1  0  0  0  0  0  0  0  0  0
   -3.5820   -0.1130    1.3620 O   0  0  0  0  0  0  0  0  0  0  0  0
   -3.3320    2.2200    1.2030 C   0  0  0  0  0  0  0  0  0  0  0  0
   -2.7250    3.3000    0.5770 O   0  0  0  0  0  0  0  0  0  0  0  0
   -3.3750    0.8040   -0.7940 C   0  0  0  0  0  0  0  0  0  0  0  0
   -4.7270    0.9260   -0.9390 O   0  0  0  0  0  0  0  0  0  0  0  0
   -5.5310   -0.0800   -0.4970 C   0  0  2  0  0  0  0  0  0  0  0  0
   -6.1750   -0.6250   -1.6660 O   0  0  0  0  0  0  0  0  0  0  0  0
   -6.6670    0.3410    0.3650 C   0  0  0  0  0  0  0  0  0  0  0  0
   -6.5340    0.8130    1.5290 O   0  0  0  0  0  0  0  0  0  0  0  0
   -8.0090    0.2440   -0.0610 O   0  0  0  0  0  0  0  0  0  0  0  0
   -1.1540   -0.7540    0.2470 C   0  0  0  0  0  0  0  0  0  0  0  0
   -0.0930   -1.2470    0.9250 O   0  0  0  0  0  0  0  0  0  0  0  0
    0.3960   -2.4670    0.5300 C   0  0  1  0  0  0  0  0  0  0  0  0
   -0.0100   -3.4080    1.5050 O   0  0  0  0  0  0  0  0  0  0  0  0
   -0.2100   -2.9260   -0.7630 C   0  0  0  0  0  0  0  0  0  0  0  0
    0.2280   -4.1510   -1.1970 O   0  0  0  0  0  0  0  0  0  0  0  0
    1.9070   -2.3670    0.5070 C   0  0  1  0  0  0  0  0  0  0  0  0
    2.5300   -3.2310   -0.5450 C   0  0  0  0  0  0  0  0  0  0  0  0
    3.9200   -3.1200   -0.5370 O   0  0  0  0  0  0  0  0  0  0  0  0
    2.2810   -0.9450    0.5190 C   0  0  1  0  0  0  0  0  0  0  0  0
    2.0440   -0.4340    1.8180 O   0  0  0  0  0  0  0  0  0  0  0  0
    3.6480   -0.5440    0.1350 C   0  0  2  0  0  0  0  0  0  0  0  0
    4.6520   -1.0590    0.9220 O   0  0  0  0  0  0  0  0  0  0  0  0
  1  2  1  0
  2  3  1  0
  4  3  1  1
  4  5  1  0
  4 32  1  0
  5  6  1  0
  6  7  1  0
  7  8  1  0
  8  9  1  0
  9 10  1  0
  9 21  1  6
 10 11  1  1
 10 12  1  0
 10 14  1  0
 12 13  1  0
 14 15  1  0
 15 16  1  0
 16 17  1  6
 16 18  1  0
 18 19  2  0
 18 20  1  0
 21 22  1  0
 22 23  1  0
 23 24  1  1
 23 25  1  0
 23 27  1  0
 25 26  1  0
 27 28  1  6
 27 30  1  0
 28 29  1  0
 30 31  1  1
 30 32  1  0
 32 33  1  1
M  END
