
     RDKit          3D

 35 37  0  0  0  0  0  0  0  0999 V2000
   -6.6030   -1.4760    1.4250 C   0  0  0  0  0  0  0  0  0  0  0  0
   -5.2230   -1.1150    0.9970 C   0  0  0  0  0  0  0  0  0  0  0  0
   -4.1240   -1.4090    1.7520 C   0  0  0  0  0  0  0  0  0  0  0  0
   -2.8290   -1.0610    1.3300 C   0  0  0  0  0  0  0  0  0  0  0  0
   -2.5920   -0.4100    0.1410 C   0  0  0  0  0  0  0  0  0  0  0  0
   -1.3080    0.0000   -0.2770 N   0  0  0  0  0  0  0  0  0  0  0  0
   -0.0680   -0.3610    0.2520 C   0  0  0  0  0  0  0  0  0  0  0  0
   -0.0700   -1.1890    1.2330 O   0  0  0  0  0  0  0  0  0  0  0  0
    1.2660    0.1020   -0.1950 C   0  0  2  0  0  0  0  0  0  0  0  0
    1.3160    1.1570   -1.2340 C   0  0  0  0  0  0  0  0  0  0  0  0
    0.7190    2.4820   -0.8360 C   0  0  0  0  0  0  0  0  0  0  0  0
    0.8100    3.6790   -2.1990 S   0  0  0  0  0  0  0  0  0  0  0  0
    0.0950    5.2410   -1.6380 C   0  0  0  0  0  0  0  0  0  0  0  0
   -1.3570    5.0500   -1.4070 C   0  0  0  0  0  0  0  0  0  0  0  0
   -2.0240    3.8180   -1.6180 N   0  0  0  0  0  0  0  0  0  0  0  0
   -2.0380    6.0140   -1.0070 O   0  0  0  0  0  0  0  0  0  0  0  0
    2.2570   -0.9360   -0.3170 N   0  0  0  0  0  0  0  0  0  0  0  0
    3.3520   -1.1040    0.5540 C   0  0  0  0  0  0  0  0  0  0  0  0
    3.4710   -0.2820    1.5100 O   0  0  0  0  0  0  0  0  0  0  0  0
    4.3780   -2.1730    0.4330 C   0  0  2  0  0  0  0  0  0  0  0  0
    3.7270   -3.5360    0.3830 C   0  0  0  0  0  0  0  0  0  0  0  0
    5.3540   -2.0790    1.4430 O   0  0  0  0  0  0  0  0  0  0  0  0
    6.6920   -1.8360    1.2420 C   0  0  0  0  0  0  0  0  0  0  0  0
    7.0830   -1.6830    0.0570 O   0  0  0  0  0  0  0  0  0  0  0  0
    7.6640   -1.7480    2.3250 C   0  0  0  0  0  0  0  0  0  0  0  0
    7.4300   -1.8860    3.6770 C   0  0  0  0  0  0  0  0  0  0  0  0
    8.6400   -1.7270    4.3340 C   0  0  0  0  0  0  0  0  0  0  0  0
    9.5550   -1.5040    3.4230 O   0  0  0  0  0  0  0  0  0  0  0  0
    9.0160   -1.5080    2.2090 C   0  0  0  0  0  0  0  0  0  0  0  0
   -3.7300   -0.1170   -0.6240 C   0  0  0  0  0  0  0  0  0  0  0  0
   -5.0110   -0.4620   -0.2000 C   0  0  0  0  0  0  0  0  0  0  0  0
   -6.2330   -0.1440   -0.9840 C   0  0  0  0  0  0  0  0  0  0  0  0
   -5.9420    0.4560   -2.3220 C   0  0  0  0  0  0  0  0  0  0  0  0
   -4.6260   -0.0590   -2.8590 C   0  0  0  0  0  0  0  0  0  0  0  0
   -3.5430    0.5440   -1.9280 C   0  0  0  0  0  0  0  0  0  0  0  0
  1  2  1  0
  2  3  2  0
  2 31  1  0
  3  4  1  0
  4  5  2  0
  5  6  1  0
  5 30  1  0
  6  7  1  0
  7  8  2  0
  7  9  1  0
  9 10  1  6
  9 17  1  0
 10 11  1  0
 11 12  1  0
 12 13  1  0
 13 14  1  0
 14 15  1  0
 14 16  2  0
 17 18  1  0
 18 19  2  0
 18 20  1  0
 20 21  1  1
 20 22  1  0
 22 23  1  0
 23 24  2  0
 23 25  1  0
 25 26  1  0
 25 29  2  0
 26 27  2  0
 27 28  1  0
 28 29  1  0
 30 31  2  0
 30 35  1  0
 31 32  1  0
 32 33  1  0
 33 34  1  0
 34 35  1  0
M  END
