
     RDKit          3D

 34 35  0  0  0  0  0  0  0  0999 V2000
   -5.0790    0.9360    0.0170 O   0  0  0  0  0  0  0  0  0  0  0  0
   -4.3200    1.8180   -0.4530 C   0  0  0  0  0  0  0  0  0  0  0  0
   -4.1850    3.0910    0.0830 O   0  0  0  0  0  0  0  0  0  0  0  0
   -3.5270    1.4520   -1.6600 C   0  0  0  0  0  0  0  0  0  0  0  0
   -2.2480    0.6940   -1.3140 C   0  0  2  0  0  0  0  0  0  0  0  0
   -2.5530   -0.4840   -0.6230 O   0  0  0  0  0  0  0  0  0  0  0  0
   -1.2050    1.5310   -0.7370 C   0  0  1  0  0  0  0  0  0  0  0  0
   -0.6400    1.2530    0.5970 C   0  0  1  0  0  0  0  0  0  0  0  0
   -1.5050    1.3790    1.8000 C   0  0  0  0  0  0  0  0  0  0  0  0
   -2.4390    0.3810    1.9460 O   0  0  0  0  0  0  0  0  0  0  0  0
   -3.1370    0.5010    3.1150 C   0  0  0  0  0  0  0  0  0  0  0  0
   -3.9080    1.7780    3.3070 C   0  0  0  0  0  0  0  0  0  0  0  0
   -4.5540    1.7120    4.5580 O   0  0  0  0  0  0  0  0  0  0  0  0
    0.0330    0.0400    0.7140 O   0  0  0  0  0  0  0  0  0  0  0  0
    1.3800    0.2560    0.9490 C   0  0  1  0  0  0  0  0  0  0  0  0
    1.6760   -0.0810    2.2900 O   0  0  0  0  0  0  0  0  0  0  0  0
    2.3230   -0.4200    0.0040 C   0  0  1  0  0  0  0  0  0  0  0  0
    3.5980    0.0110    0.3520 O   0  0  0  0  0  0  0  0  0  0  0  0
    4.4000   -1.0810    0.5920 C   0  0  2  0  0  0  0  0  0  0  0  0
    5.3330   -1.3180   -0.3690 O   0  0  0  0  0  0  0  0  0  0  0  0
    6.6460   -1.2850   -0.0360 C   0  0  0  0  0  0  0  0  0  0  0  0
    7.1280   -2.3110    0.9440 C   0  0  0  0  0  0  0  0  0  0  0  0
    6.5370   -2.2940    2.1810 O   0  0  0  0  0  0  0  0  0  0  0  0
    3.5410   -2.1560    0.8170 O   0  0  0  0  0  0  0  0  0  0  0  0
    2.3980   -1.8870    0.0700 C   0  0  1  0  0  0  0  0  0  0  0  0
    1.2020   -2.6180    0.6040 C   0  0  0  0  0  0  0  0  0  0  0  0
    0.0630   -2.3920   -0.1490 O   0  0  0  0  0  0  0  0  0  0  0  0
   -0.1230    1.5430   -1.6160 O   0  0  0  0  0  0  0  0  0  0  0  0
   -0.5580    1.2010   -2.8670 C   0  0  1  0  0  0  0  0  0  0  0  0
    0.4430    0.5940   -3.6410 O   0  0  0  0  0  0  0  0  0  0  0  0
   -1.6990    0.2370   -2.6420 C   0  0  1  0  0  0  0  0  0  0  0  0
   -1.2250   -1.0770   -2.5820 O   0  0  0  0  0  0  0  0  0  0  0  0
   -2.6660    0.4010   -3.7930 C   0  0  0  0  0  0  0  0  0  0  0  0
   -2.0070    0.0860   -5.0120 O   0  0  0  0  0  0  0  0  0  0  0  0
  1  2  2  0
  2  3  1  0
  2  4  1  0
  4  5  1  0
  5  6  1  1
  5  7  1  0
  5 31  1  0
  7  8  1  0
  7 28  1  6
  8  9  1  1
  8 14  1  0
  9 10  1  0
 10 11  1  0
 11 12  1  0
 12 13  1  0
 14 15  1  0
 15 16  1  1
 15 17  1  0
 17 18  1  1
 17 25  1  0
 18 19  1  0
 19 20  1  6
 19 24  1  0
 20 21  1  0
 21 22  1  0
 22 23  1  0
 24 25  1  0
 25 26  1  1
 26 27  1  0
 28 29  1  0
 29 30  1  6
 29 31  1  0
 31 32  1  1
 31 33  1  0
 33 34  1  0
M  END
