
     RDKit          3D

 33 34  0  0  0  0  0  0  0  0999 V2000
   -1.2590    2.0350   -0.6660 O   0  0  0  0  0  0  0  0  0  0  0  0
   -0.2570    1.5650   -0.0270 C   0  0  0  0  0  0  0  0  0  0  0  0
    0.5600    2.5040    0.5520 O   0  0  0  0  0  0  0  0  0  0  0  0
    0.3740    3.8900    0.4900 C   0  0  0  0  0  0  0  0  0  0  0  0
    1.5160    4.5520    1.2710 C   0  0  0  0  0  0  0  0  0  0  0  0
    2.7420    4.2090    0.7050 O   0  0  0  0  0  0  0  0  0  0  0  0
   -0.1020    0.1090    0.0150 C   0  0  1  0  0  0  0  0  0  0  0  0
   -1.2040   -0.5370   -0.6250 O   0  0  0  0  0  0  0  0  0  0  0  0
   -2.0040   -1.4090    0.0850 C   0  0  0  0  0  0  0  0  0  0  0  0
   -1.7000   -1.5880    1.3030 O   0  0  0  0  0  0  0  0  0  0  0  0
   -3.1600   -2.1350   -0.4530 C   0  0  1  0  0  0  0  0  0  0  0  0
   -3.6960   -2.9630    0.5620 O   0  0  0  0  0  0  0  0  0  0  0  0
   -4.2830   -1.2940   -0.9520 C   0  0  1  0  0  0  0  0  0  0  0  0
   -5.2670   -2.1830   -1.4270 O   0  0  0  0  0  0  0  0  0  0  0  0
   -4.9040   -0.3730    0.0340 C   0  0  0  0  0  0  0  0  0  0  0  0
   -5.5070   -1.0190    1.2390 C   0  0  0  0  0  0  0  0  0  0  0  0
   -6.5190   -1.9190    0.9260 O   0  0  0  0  0  0  0  0  0  0  0  0
   -3.8060   -0.4530   -2.1230 C   0  0  1  0  0  0  0  0  0  0  0  0
   -3.2530   -1.2290   -3.1170 O   0  0  0  0  0  0  0  0  0  0  0  0
   -4.9150    0.2410   -2.6260 O   0  0  0  0  0  0  0  0  0  0  0  0
    1.1960   -0.3650   -0.6540 C   0  0  2  0  0  0  0  0  0  0  0  0
    1.2220   -1.7570   -0.5170 O   0  0  0  0  0  0  0  0  0  0  0  0
    2.3430    0.3100   -0.0360 C   0  0  1  0  0  0  0  0  0  0  0  0
    2.5280    0.0860    1.4480 C   0  0  0  0  0  0  0  0  0  0  0  0
    4.0450    0.1690    1.5470 C   0  0  2  0  0  0  0  0  0  0  0  0
    4.5150    0.8300    2.6250 O   0  0  0  0  0  0  0  0  0  0  0  0
    4.4860    0.6820    0.3030 O   0  0  0  0  0  0  0  0  0  0  0  0
    3.6960   -0.1600   -0.5280 C   0  0  2  0  0  0  0  0  0  0  0  0
    3.9360    0.1110   -1.9710 C   0  0  0  0  0  0  0  0  0  0  0  0
    5.2840   -0.1200   -2.2390 O   0  0  0  0  0  0  0  0  0  0  0  0
    4.1170   -1.5020   -0.0530 C   0  0  0  0  0  0  0  0  0  0  0  0
    4.5600   -1.2620    1.3990 C   0  0  1  0  0  0  0  0  0  0  0  0
    5.9350   -1.2020    1.5160 O   0  0  0  0  0  0  0  0  0  0  0  0
  1  2  2  0
  2  3  1  0
  2  7  1  0
  3  4  1  0
  4  5  1  0
  5  6  1  0
  7  8  1  6
  7 21  1  0
  8  9  1  0
  9 10  2  0
  9 11  1  0
 11 12  1  1
 11 13  1  0
 13 14  1  6
 13 15  1  0
 13 18  1  0
 15 16  1  0
 16 17  1  0
 18 19  1  6
 18 20  1  0
 21 22  1  1
 21 23  1  0
 23 24  1  1
 23 28  1  0
 24 25  1  0
 25 26  1  1
 25 27  1  0
 25 32  1  0
 27 28  1  0
 28 29  1  6
 28 31  1  0
 29 30  1  0
 31 32  1  0
 32 33  1  6
M  END
