
     RDKit          3D

 35 37  0  0  0  0  0  0  0  0999 V2000
    4.6630    3.8840   -0.0190 N   0  0  0  0  0  0  0  0  0  0  0  0
    5.0140    2.8760    0.9430 C   0  0  1  0  0  0  0  0  0  0  0  0
    3.9220    1.8880    1.2170 C   0  0  0  0  0  0  0  0  0  0  0  0
    3.5020    1.1340   -0.0210 C   0  0  0  0  0  0  0  0  0  0  0  0
    2.4220    0.1640    0.2860 C   0  0  0  0  0  0  0  0  0  0  0  0
    2.0230    0.0890    1.4750 O   0  0  0  0  0  0  0  0  0  0  0  0
    1.8700   -0.6440   -0.7330 N   0  0  0  0  0  0  0  0  0  0  0  0
    0.8150   -1.5980   -0.4550 C   0  0  1  0  0  0  0  0  0  0  0  0
   -0.3730   -1.3340   -1.3450 C   0  0  0  0  0  0  0  0  0  0  0  0
   -1.0980    0.2690   -1.1720 S   0  0  0  0  0  0  0  0  0  0  0  0
   -1.8710    0.5870    0.4260 C   0  0  2  0  0  0  0  0  0  0  0  0
   -3.0600   -0.2760    0.6550 C   0  0  0  0  0  0  0  0  0  0  0  0
   -2.8460   -1.5500    1.1590 C   0  0  0  0  0  0  0  0  0  0  0  0
   -3.9180   -2.3900    1.2880 C   0  0  0  0  0  0  0  0  0  0  0  0
   -5.1920   -2.0140    0.9360 C   0  0  0  0  0  0  0  0  0  0  0  0
   -5.4240   -0.7260    0.4250 C   0  0  0  0  0  0  0  0  0  0  0  0
   -4.3330    0.1150    0.3010 C   0  0  0  0  0  0  0  0  0  0  0  0
   -4.6090    1.5040   -0.1300 C   0  0  0  0  0  0  0  0  0  0  0  0
   -5.8480    1.8840   -0.6040 C   0  0  0  0  0  0  0  0  0  0  0  0
   -5.9890    3.1790   -1.0990 C   0  0  0  0  0  0  0  0  0  0  0  0
   -4.9400    4.0690   -1.1260 C   0  0  0  0  0  0  0  0  0  0  0  0
   -3.7340    3.6720   -0.6530 C   0  0  0  0  0  0  0  0  0  0  0  0
   -3.5480    2.3700   -0.1410 C   0  0  0  0  0  0  0  0  0  0  0  0
   -2.2700    2.0080    0.4650 C   0  0  1  0  0  0  0  0  0  0  0  0
   -2.1380    2.5630    1.7580 O   0  0  0  0  0  0  0  0  0  0  0  0
    1.3310   -2.9480   -0.8150 C   0  0  0  0  0  0  0  0  0  0  0  0
    2.5070   -3.1150   -1.2750 O   0  0  0  0  0  0  0  0  0  0  0  0
    0.5530   -4.1250   -0.6710 N   0  0  0  0  0  0  0  0  0  0  0  0
    1.0720   -5.4470   -1.0300 C   0  0  0  0  0  0  0  0  0  0  0  0
    2.2680   -5.6780   -0.1780 C   0  0  0  0  0  0  0  0  0  0  0  0
    2.7100   -4.8810    0.6660 O   0  0  0  0  0  0  0  0  0  0  0  0
    2.9470   -6.8920   -0.3420 O   0  0  0  0  0  0  0  0  0  0  0  0
    6.2280    2.1220    0.5060 C   0  0  0  0  0  0  0  0  0  0  0  0
    6.8040    2.3940   -0.5720 O   0  0  0  0  0  0  0  0  0  0  0  0
    6.7320    1.1080    1.2930 O   0  0  0  0  0  0  0  0  0  0  0  0
  2  1  1  6
  2  3  1  0
  2 33  1  0
  3  4  1  0
  4  5  1  0
  5  6  2  0
  5  7  1  0
  7  8  1  0
  8  9  1  6
  8 26  1  0
  9 10  1  0
 11 10  1  6
 11 12  1  0
 11 24  1  0
 12 13  2  0
 12 17  1  0
 13 14  1  0
 14 15  2  0
 15 16  1  0
 16 17  2  0
 17 18  1  0
 18 19  2  0
 18 23  1  0
 19 20  1  0
 20 21  2  0
 21 22  1  0
 22 23  2  0
 23 24  1  0
 24 25  1  1
 26 27  2  0
 26 28  1  0
 28 29  1  0
 29 30  1  0
 30 31  2  0
 30 32  1  0
 33 34  2  0
 33 35  1  0
M  CHG  1   1   1
M  END
