
     RDKit          3D

 34 35  0  0  0  0  0  0  0  0999 V2000
   -2.6240    0.4500   -1.8840 C   0  0  0  0  0  0  0  0  0  0  0  0
   -1.8170    0.0380   -0.7040 C   0  0  2  0  0  0  0  0  0  0  0  0
   -2.4980   -0.9740   -0.0230 O   0  0  0  0  0  0  0  0  0  0  0  0
   -1.3370    1.0580    0.2200 C   0  0  2  0  0  0  0  0  0  0  0  0
   -0.4070    0.2750    1.0410 O   0  0  0  0  0  0  0  0  0  0  0  0
   -2.0610    1.8080    1.2100 C   0  0  0  0  0  0  0  0  0  0  0  0
   -3.3290    1.7520    1.4620 C   0  0  0  0  0  0  0  0  0  0  0  0
   -4.4000    0.9570    0.8630 C   0  0  1  0  0  0  0  0  0  0  0  0
   -4.7540   -0.0230    1.8390 O   0  0  0  0  0  0  0  0  0  0  0  0
   -5.6110    1.7750    0.8740 O   0  0  0  0  0  0  0  0  0  0  0  0
   -6.1920    1.6510   -0.2920 O   0  0  0  0  0  0  0  0  0  0  0  0
   -3.8440    2.5840    2.5050 O   0  0  0  0  0  0  0  0  0  0  0  0
   -3.0820    3.1210    3.5370 C   0  0  0  0  0  0  0  0  0  0  0  0
   -1.8380    3.5680    3.0190 O   0  0  0  0  0  0  0  0  0  0  0  0
   -1.2470    2.7740    2.0290 C   0  0  0  0  0  0  0  0  0  0  0  0
    0.0380    2.9650    1.9070 C   0  0  0  0  0  0  0  0  0  0  0  0
    0.8900    2.3530    1.0420 O   0  0  0  0  0  0  0  0  0  0  0  0
   -0.5800   -0.7780   -1.2160 C   0  0  2  0  0  0  0  0  0  0  0  0
   -1.1390   -1.7100   -2.0810 O   0  0  0  0  0  0  0  0  0  0  0  0
   -0.1420   -1.4750   -0.1280 O   0  0  0  0  0  0  0  0  0  0  0  0
    0.9780   -2.2150   -0.1980 C   0  0  1  0  0  0  0  0  0  0  0  0
    0.5830   -3.6260   -0.6600 C   0  0  0  0  0  0  0  0  0  0  0  0
    1.7070   -4.4560   -0.7390 O   0  0  0  0  0  0  0  0  0  0  0  0
    2.1440   -1.6790   -0.9800 C   0  0  2  0  0  0  0  0  0  0  0  0
    2.9080   -2.8030   -1.3860 O   0  0  0  0  0  0  0  0  0  0  0  0
    3.0160   -0.9010   -0.0280 C   0  0  1  0  0  0  0  0  0  0  0  0
    3.3240   -1.7290    1.0600 O   0  0  0  0  0  0  0  0  0  0  0  0
    4.3270   -0.4780   -0.6220 C   0  0  0  0  0  0  0  0  0  0  0  0
    5.0960    0.2810    0.4390 C   0  0  2  0  0  0  0  0  0  0  0  0
    5.3290   -0.5270    1.5650 O   0  0  0  0  0  0  0  0  0  0  0  0
    4.4760    1.4270    0.8760 O   0  0  0  0  0  0  0  0  0  0  0  0
    1.6690   -0.9050   -2.1450 C   0  0  0  0  0  0  0  0  0  0  0  0
    0.4660   -0.0010   -1.8620 C   0  0  1  0  0  0  0  0  0  0  0  0
    0.1430    0.5300   -3.1030 O   0  0  0  0  0  0  0  0  0  0  0  0
  2  1  1  6
  2  3  1  0
  2  4  1  0
  2 18  1  0
  4  5  1  1
  4  6  1  0
  6  7  2  0
  6 15  1  0
  7  8  1  0
  7 12  1  0
  8  9  1  1
  8 10  1  0
 10 11  1  0
 12 13  1  0
 13 14  1  0
 14 15  1  0
 15 16  2  3
 16 17  1  0
 18 19  1  6
 18 20  1  0
 18 33  1  0
 20 21  1  0
 21 22  1  6
 21 24  1  0
 22 23  1  0
 24 25  1  6
 24 26  1  0
 24 32  1  0
 26 27  1  1
 26 28  1  0
 28 29  1  0
 29 30  1  1
 29 31  1  0
 32 33  1  0
 33 34  1  6
M  END
