
     RDKit          3D

 36 38  0  0  0  0  0  0  0  0999 V2000
   -6.5400    3.1530   -1.5130 C   0  0  0  0  0  0  0  0  0  0  0  0
   -5.4130    3.6580   -0.6820 C   0  0  0  0  0  0  0  0  0  0  0  0
   -4.2880    2.6600   -0.6700 C   0  0  2  0  0  0  0  0  0  0  0  0
   -3.8040    2.4360   -2.0790 C   0  0  0  0  0  0  0  0  0  0  0  0
   -4.7780    1.9450   -2.9230 F   0  0  0  0  0  0  0  0  0  0  0  0
   -4.6150    1.4020    0.0770 C   0  0  0  0  0  0  0  0  0  0  0  0
   -3.4060    0.5060   -0.0050 C   0  0  0  0  0  0  0  0  0  0  0  0
   -2.8100    0.1330    1.1010 C   0  0  0  0  0  0  0  0  0  0  0  0
   -1.6390   -0.7310    1.1300 C   0  0  0  0  0  0  0  0  0  0  0  0
   -1.0870   -1.0530    2.3230 C   0  0  0  0  0  0  0  0  0  0  0  0
   -1.8440   -0.3960    3.5070 C   0  0  0  0  0  0  0  0  0  0  0  0
   -0.0200   -1.8360    2.5520 O   0  0  0  0  0  0  0  0  0  0  0  0
    0.6660   -2.9640    2.2510 C   0  0  0  0  0  0  0  0  0  0  0  0
    0.3060   -4.2330    2.7030 C   0  0  0  0  0  0  0  0  0  0  0  0
    0.9490   -5.4100    2.4390 C   0  0  0  0  0  0  0  0  0  0  0  0
    2.0660   -5.3690    1.6510 C   0  0  0  0  0  0  0  0  0  0  0  0
    2.4660   -4.1510    1.1790 C   0  0  0  0  0  0  0  0  0  0  0  0
    1.8210   -2.9340    1.4390 C   0  0  0  0  0  0  0  0  0  0  0  0
    2.3940   -1.8670    0.8730 O   0  0  0  0  0  0  0  0  0  0  0  0
    2.4190   -0.5260    0.7950 C   0  0  0  0  0  0  0  0  0  0  0  0
    2.9160   -0.1830   -0.6080 C   0  0  1  0  0  0  0  0  0  0  0  0
    1.8350   -0.2100   -1.6590 C   0  0  2  0  0  0  0  0  0  0  0  0
    1.4460   -1.5980   -2.1020 C   0  0  0  0  0  0  0  0  0  0  0  0
    0.0770   -1.6230   -2.6470 C   0  0  0  0  0  0  0  0  0  0  0  0
   -0.0650   -0.8800   -3.7060 O   0  0  0  0  0  0  0  0  0  0  0  0
   -1.0520   -2.2970   -2.2260 N   0  0  0  0  0  0  0  0  0  0  0  0
   -1.7470   -2.2440   -0.9270 C   0  0  0  0  0  0  0  0  0  0  0  0
   -1.0910   -1.1420   -0.1540 C   0  0  0  0  0  0  0  0  0  0  0  0
    2.5370    0.4950   -2.7570 N   0  0  0  0  0  0  0  0  0  0  0  0
    3.1800    1.5690   -2.0510 C   0  0  0  0  0  0  0  0  0  0  0  0
    3.5610    3.0480   -2.6640 S   0  0  0  0  0  0  0  0  0  0  0  0
    3.4430    1.1500   -0.7190 N   0  0  0  0  0  0  0  0  0  0  0  0
    4.1260    1.9480    0.2920 C   0  0  0  0  0  0  0  0  0  0  0  0
    5.4740    1.3530    0.6090 C   0  0  0  0  0  0  0  0  0  0  0  0
    6.1390    2.0790    1.5560 O   0  0  0  0  0  0  0  0  0  0  0  0
    6.4160    3.3880    1.2410 C   0  0  0  0  0  0  0  0  0  0  0  0
  1  2  1  0
  3  2  1  6
  3  4  1  0
  3  6  1  0
  4  5  1  0
  6  7  1  0
  7  8  2  3
  8  9  1  0
  9 10  2  0
  9 28  1  0
 10 11  1  0
 10 12  1  0
 12 13  1  0
 13 14  2  0
 13 18  1  0
 14 15  1  0
 15 16  2  0
 16 17  1  0
 17 18  2  0
 18 19  1  0
 19 20  1  0
 21 20  1  1
 21 22  1  0
 21 32  1  0
 22 23  1  6
 22 29  1  0
 23 24  1  0
 24 25  2  0
 24 26  1  0
 26 27  1  0
 27 28  1  0
 29 30  1  0
 30 31  2  0
 30 32  1  0
 32 33  1  0
 33 34  1  0
 34 35  1  0
 35 36  1  0
M  END
