
     RDKit          3D

 36 38  0  0  0  0  0  0  0  0999 V2000
  -11.2550    0.7520   -0.8350 C   0  0  0  0  0  0  0  0  0  0  0  0
   -9.7800    0.4180   -1.0460 C   0  0  0  0  0  0  0  0  0  0  0  0
   -9.0910   -0.1400   -0.0370 C   0  0  0  0  0  0  0  0  0  0  0  0
   -7.6900   -0.3560   -0.1840 C   0  0  0  0  0  0  0  0  0  0  0  0
   -7.0430   -0.0170   -1.3000 C   0  0  0  0  0  0  0  0  0  0  0  0
   -5.5910    0.0670   -1.5660 C   0  0  0  0  0  0  0  0  0  0  0  0
   -5.2300    0.0270   -2.7150 O   0  0  0  0  0  0  0  0  0  0  0  0
   -4.6620    0.2050   -0.5170 N   0  0  0  0  0  0  0  0  0  0  0  0
   -4.9920    0.1970    0.8640 C   0  0  0  0  0  0  0  0  0  0  0  0
   -3.2530    0.4920   -0.8770 C   0  0  1  0  0  0  0  0  0  0  0  0
   -3.1740    2.0090   -0.5670 C   0  0  0  0  0  0  0  0  0  0  0  0
   -1.8370    2.6440   -0.7250 C   0  0  0  0  0  0  0  0  0  0  0  0
   -0.9390    2.1760    0.2390 O   0  0  0  0  0  0  0  0  0  0  0  0
   -2.2700   -0.2260   -0.1900 C   0  0  0  0  0  0  0  0  0  0  0  0
   -2.4010   -0.9670    0.8620 O   0  0  0  0  0  0  0  0  0  0  0  0
   -0.8620   -0.1870   -0.6560 N   0  0  0  0  0  0  0  0  0  0  0  0
   -0.1120   -0.9320    0.3520 C   0  0  0  0  0  0  0  0  0  0  0  0
    0.4870   -1.4090    0.9880 N   0  0  0  0  0  0  0  0  0  0  0  0
    1.7620   -1.8010    1.4170 C   0  0  2  0  0  0  0  0  0  0  0  0
    2.2490   -0.9670    2.5870 C   0  0  0  0  0  0  0  0  0  0  0  0
    2.5860   -1.8850    0.2320 C   0  0  2  0  0  0  0  0  0  0  0  0
    3.9120   -1.2690    0.0390 C   0  0  0  0  0  0  0  0  0  0  0  0
    4.9650   -1.7090    0.9920 C   0  0  0  0  0  0  0  0  0  0  0  0
    6.2920   -1.1400    0.5850 C   0  0  0  0  0  0  0  0  0  0  0  0
    6.8450   -0.0390    1.2370 C   0  0  0  0  0  0  0  0  0  0  0  0
    8.0780    0.4720    0.8910 C   0  0  0  0  0  0  0  0  0  0  0  0
    8.6420    1.6560    1.6130 C   0  0  0  0  0  0  0  0  0  0  0  0
    8.8040   -0.0820   -0.1210 C   0  0  0  0  0  0  0  0  0  0  0  0
   10.1870    0.3960   -0.4930 C   0  0  0  0  0  0  0  0  0  0  0  0
    8.2670   -1.1390   -0.7640 C   0  0  0  0  0  0  0  0  0  0  0  0
    8.9960   -1.6750   -1.8050 F   0  0  0  0  0  0  0  0  0  0  0  0
    7.0070   -1.7200   -0.4530 C   0  0  0  0  0  0  0  0  0  0  0  0
    6.5830   -2.7740   -1.1570 O   0  0  0  0  0  0  0  0  0  0  0  0
    1.4690   -1.3200   -1.0770 S   0  0  0  0  0  0  0  0  0  0  0  0
   -7.8310    0.5610   -2.3520 C   0  0  0  0  0  0  0  0  0  0  0  0
   -9.1870    0.7790   -2.2280 C   0  0  0  0  0  0  0  0  0  0  0  0
  1  2  1  0
  2  3  2  0
  2 36  1  0
  3  4  1  0
  4  5  2  0
  5  6  1  0
  5 35  1  0
  6  7  2  0
  6  8  1  0
  8  9  1  0
  8 10  1  0
 10 11  1  1
 10 14  1  0
 11 12  1  0
 12 13  1  0
 14 15  2  0
 14 16  1  0
 16 17  1  0
 17 18  2  0
 17 34  1  0
 18 19  1  0
 19 20  1  1
 19 21  1  0
 21 22  1  1
 21 34  1  0
 22 23  1  0
 23 24  1  0
 24 25  2  0
 24 32  1  0
 25 26  1  0
 26 27  1  0
 26 28  2  0
 28 29  1  0
 28 30  1  0
 30 31  1  0
 30 32  2  0
 32 33  1  0
 35 36  2  0
M  END
