
     RDKit          3D

 36 40  0  0  0  0  0  0  0  0999 V2000
   -4.0740    4.7390    0.4800 C   0  0  0  0  0  0  0  0  0  0  0  0
   -4.6500    3.5500    1.0260 N   0  0  0  0  0  0  0  0  0  0  0  0
   -4.7220    2.4380    0.1350 C   0  0  1  0  0  0  0  0  0  0  0  0
   -4.7590    2.8500   -1.3210 C   0  0  0  0  0  0  0  0  0  0  0  0
   -3.5400    1.5660    0.3370 C   0  0  0  0  0  0  0  0  0  0  0  0
   -2.6840    1.9100    1.1990 O   0  0  0  0  0  0  0  0  0  0  0  0
   -3.3880    0.3740   -0.4280 N   0  0  0  0  0  0  0  0  0  0  0  0
   -2.2040   -0.4390   -0.1810 C   0  0  2  0  0  0  0  0  0  0  0  0
   -1.4260   -0.6500   -1.4190 C   0  0  0  0  0  0  0  0  0  0  0  0
   -1.9140   -0.3580   -2.5650 O   0  0  0  0  0  0  0  0  0  0  0  0
   -0.1230   -1.1820   -1.3340 N   0  0  0  0  0  0  0  0  0  0  0  0
    0.7800   -1.5390   -2.4320 C   0  0  0  0  0  0  0  0  0  0  0  0
    1.4170   -2.8290   -1.8970 C   0  0  0  0  0  0  0  0  0  0  0  0
    1.1310   -2.8500   -0.4040 C   0  0  0  0  0  0  0  0  0  0  0  0
    0.6290   -1.4460   -0.1470 C   0  0  1  0  0  0  0  0  0  0  0  0
    1.9100   -0.5790   -0.2130 C   0  0  0  0  0  0  0  0  0  0  0  0
    3.0390   -0.5410   -0.0740 N   0  0  0  0  0  0  0  0  0  0  0  0
    3.9200    0.4300   -0.2180 C   0  0  0  0  0  0  0  0  0  0  0  0
    5.3890    0.2250   -0.0780 C   0  0  0  0  0  0  0  0  0  0  0  0
    5.9210   -0.9310   -0.6120 C   0  0  0  0  0  0  0  0  0  0  0  0
    7.2710   -1.1470   -0.4910 C   0  0  0  0  0  0  0  0  0  0  0  0
    8.0680   -0.2280    0.1500 C   0  0  0  0  0  0  0  0  0  0  0  0
    7.5470    0.9340    0.6930 C   0  0  0  0  0  0  0  0  0  0  0  0
    8.3760    1.8160    1.3600 C   0  0  0  0  0  0  0  0  0  0  0  0
    7.8690    2.9550    1.9380 C   0  0  0  0  0  0  0  0  0  0  0  0
    6.5180    3.1610    1.8190 C   0  0  0  0  0  0  0  0  0  0  0  0
    5.6840    2.2740    1.1480 C   0  0  0  0  0  0  0  0  0  0  0  0
    6.1670    1.1350    0.5600 C   0  0  0  0  0  0  0  0  0  0  0  0
    3.3290    1.6390   -0.6210 C   0  0  0  0  0  0  0  0  0  0  0  0
    1.5860    1.2060   -0.7340 S   0  0  0  0  0  0  0  0  0  0  0  0
   -2.6400   -1.8200    0.2880 C   0  0  1  0  0  0  0  0  0  0  0  0
   -3.4380   -1.7060    1.5690 C   0  0  0  0  0  0  0  0  0  0  0  0
   -3.9590   -3.1130    1.8720 C   0  0  0  0  0  0  0  0  0  0  0  0
   -5.0920   -3.3750    0.9210 C   0  0  0  0  0  0  0  0  0  0  0  0
   -4.9020   -2.6690   -0.3870 C   0  0  0  0  0  0  0  0  0  0  0  0
   -3.4450   -2.5290   -0.7820 C   0  0  0  0  0  0  0  0  0  0  0  0
  1  2  1  0
  2  3  1  0
  3  4  1  6
  3  5  1  0
  5  6  2  0
  5  7  1  0
  8  7  1  6
  8  9  1  0
  8 31  1  0
  9 10  2  0
  9 11  1  0
 11 12  1  0
 11 15  1  0
 12 13  1  0
 13 14  1  0
 14 15  1  0
 15 16  1  6
 16 17  2  0
 16 30  1  0
 17 18  1  0
 18 19  1  0
 18 29  2  0
 19 20  2  0
 19 28  1  0
 20 21  1  0
 21 22  2  0
 22 23  1  0
 23 24  2  0
 23 28  1  0
 24 25  1  0
 25 26  2  0
 26 27  1  0
 27 28  2  0
 29 30  1  0
 31 32  1  1
 31 36  1  0
 32 33  1  0
 33 34  1  0
 34 35  1  0
 35 36  1  0
M  CHG  1   2   1
M  END
