
     RDKit          3D

 36 38  0  0  0  0  0  0  0  0999 V2000
   -8.2920    1.3980   -0.1780 C   0  0  0  0  0  0  0  0  0  0  0  0
   -7.2620    0.9310   -1.1510 C   0  0  0  0  0  0  0  0  0  0  0  0
   -5.8720    0.8490   -0.6910 C   0  0  1  0  0  0  0  0  0  0  0  0
   -5.4580    2.3090   -0.2740 C   0  0  0  0  0  0  0  0  0  0  0  0
   -5.6550    0.0230    0.5990 C   0  0  2  0  0  0  0  0  0  0  0  0
   -6.2820    0.5740    1.6150 O   0  0  0  0  0  0  0  0  0  0  0  0
   -4.2050   -0.2940    0.6330 C   0  0  0  0  0  0  0  0  0  0  0  0
   -3.6680   -0.5630   -0.6150 C   0  0  0  0  0  0  0  0  0  0  0  0
   -2.3760   -0.8740   -0.7200 C   0  0  0  0  0  0  0  0  0  0  0  0
   -1.8340   -1.4490   -1.9830 C   0  0  0  0  0  0  0  0  0  0  0  0
   -1.5160   -0.9420    0.3960 C   0  0  0  0  0  0  0  0  0  0  0  0
   -0.1780   -0.7570    0.0880 N   0  0  0  0  0  0  0  0  0  0  0  0
    1.0930   -1.1390    0.4850 C   0  0  0  0  0  0  0  0  0  0  0  0
    1.0900   -1.9470    1.4150 O   0  0  0  0  0  0  0  0  0  0  0  0
    2.2050   -0.4980   -0.2830 C   0  0  2  0  0  0  0  0  0  0  0  0
    1.9090   -0.7180   -1.7330 C   0  0  0  0  0  0  0  0  0  0  0  0
    2.5620    0.4510   -2.9120 S   0  0  0  0  0  0  0  0  0  0  0  0
    4.3240    0.4540   -3.0640 C   0  0  0  0  0  0  0  0  0  0  0  0
    4.9630    0.2850   -1.6630 C   0  0  0  0  0  0  0  0  0  0  0  0
    4.6240   -0.9140   -0.9290 C   0  0  0  0  0  0  0  0  0  0  0  0
    3.5390   -0.8930    0.0220 N   0  0  0  0  0  0  0  0  0  0  0  0
    3.8490   -1.4290    1.3240 C   0  0  0  0  0  0  0  0  0  0  0  0
    2.8970   -1.7770    2.1440 O   0  0  0  0  0  0  0  0  0  0  0  0
    5.1420   -1.6670    1.8890 C   0  0  0  0  0  0  0  0  0  0  0  0
    6.3160   -1.1750    1.7680 C   0  0  0  0  0  0  0  0  0  0  0  0
    6.8620   -0.0830    1.0240 C   0  0  0  0  0  0  0  0  0  0  0  0
    6.1890    1.1670    1.1630 C   0  0  0  0  0  0  0  0  0  0  0  0
    6.6460    2.2930    0.5770 C   0  0  0  0  0  0  0  0  0  0  0  0
    7.7840    2.2710   -0.1860 N   0  0  0  0  0  0  0  0  0  0  0  0
    8.4130    1.1090   -0.3160 C   0  0  0  0  0  0  0  0  0  0  0  0
    7.9970   -0.0830    0.2670 C   0  0  0  0  0  0  0  0  0  0  0  0
    8.6930   -1.2020    0.0560 F   0  0  0  0  0  0  0  0  0  0  0  0
   -2.0540   -0.6910    1.6390 C   0  0  0  0  0  0  0  0  0  0  0  0
   -3.4400   -0.3520    1.7450 C   0  0  0  0  0  0  0  0  0  0  0  0
   -4.0640    0.0840    3.0130 C   0  0  0  0  0  0  0  0  0  0  0  0
   -4.0650   -0.9810    3.9600 O   0  0  0  0  0  0  0  0  0  0  0  0
  1  2  1  0
  2  3  1  0
  3  4  1  1
  3  5  1  0
  5  6  1  1
  5  7  1  0
  7  8  2  0
  7 34  1  0
  8  9  1  0
  9 10  1  0
  9 11  2  0
 11 12  1  0
 11 33  1  0
 12 13  1  0
 13 14  2  0
 15 13  1  1
 15 16  1  0
 15 21  1  0
 16 17  1  0
 17 18  1  0
 18 19  1  0
 19 20  1  0
 20 21  1  0
 21 22  1  0
 22 23  2  0
 22 24  1  0
 24 25  2  3
 25 26  1  0
 26 27  2  0
 26 31  1  0
 27 28  1  0
 28 29  2  0
 29 30  1  0
 30 31  2  0
 31 32  1  0
 33 34  2  0
 34 35  1  0
 35 36  1  0
M  END
