
     RDKit          3D

 35 37  0  0  0  0  0  0  0  0999 V2000
    9.2860    2.5590   -0.2390 C   0  0  0  0  0  0  0  0  0  0  0  0
    9.0750    1.0850    0.0200 C   0  0  1  0  0  0  0  0  0  0  0  0
    9.6160    0.6730    1.3750 C   0  0  0  0  0  0  0  0  0  0  0  0
    7.6070    0.7430   -0.0570 C   0  0  0  0  0  0  0  0  0  0  0  0
    6.9290   -0.0910   -0.9000 C   0  0  0  0  0  0  0  0  0  0  0  0
    5.6010   -0.1880   -0.7170 C   0  0  0  0  0  0  0  0  0  0  0  0
    4.9790    0.4910    0.2340 C   0  0  0  0  0  0  0  0  0  0  0  0
    3.5930    0.5720    0.6690 C   0  0  0  0  0  0  0  0  0  0  0  0
    3.2880    1.3510    1.5950 O   0  0  0  0  0  0  0  0  0  0  0  0
    2.5620   -0.2510    0.0330 C   0  0  1  0  0  0  0  0  0  0  0  0
    2.7760   -1.7120    0.2620 C   0  0  0  0  0  0  0  0  0  0  0  0
    2.1670   -2.2950    1.4820 C   0  0  0  0  0  0  0  0  0  0  0  0
    1.0240   -1.5560    2.0850 C   0  0  0  0  0  0  0  0  0  0  0  0
    0.3920   -0.7550    1.0460 N   0  0  0  0  0  0  0  0  0  0  0  0
   -0.9840   -0.9060    0.7700 C   0  0  0  0  0  0  0  0  0  0  0  0
   -1.6310   -1.7370    1.4930 O   0  0  0  0  0  0  0  0  0  0  0  0
   -1.6710   -0.1560   -0.2930 C   0  0  1  0  0  0  0  0  0  0  0  0
   -1.2820   -0.6160   -1.6810 C   0  0  0  0  0  0  0  0  0  0  0  0
   -2.4510   -1.3420   -2.3410 C   0  0  1  0  0  0  0  0  0  0  0  0
   -2.0360   -2.0420   -3.5630 C   0  0  0  0  0  0  0  0  0  0  0  0
   -2.9790   -2.7730   -4.3170 N   0  0  0  0  0  0  0  0  0  0  0  0
   -0.8460   -2.0030   -3.9570 O   0  0  0  0  0  0  0  0  0  0  0  0
   -3.0380   -2.3430   -1.3700 C   0  0  0  0  0  0  0  0  0  0  0  0
   -3.7560   -1.5720   -0.2860 C   0  0  0  0  0  0  0  0  0  0  0  0
   -3.1230   -0.2690   -0.1590 N   0  0  0  0  0  0  0  0  0  0  0  0
   -3.8750    0.9060    0.0920 C   0  0  0  0  0  0  0  0  0  0  0  0
   -3.2120    1.9970    0.2010 O   0  0  0  0  0  0  0  0  0  0  0  0
   -5.3270    0.9690    0.2340 C   0  0  1  0  0  0  0  0  0  0  0  0
   -5.9850    0.6830   -1.0920 C   0  0  0  0  0  0  0  0  0  0  0  0
   -5.8830   -0.0130    1.2490 C   0  0  0  0  0  0  0  0  0  0  0  0
   -5.7480    2.3980    0.6260 C   0  0  2  0  0  0  0  0  0  0  0  0
   -5.0980    2.7700    1.9430 C   0  0  0  0  0  0  0  0  0  0  0  0
   -7.2470    2.4140    0.7880 C   0  0  0  0  0  0  0  0  0  0  0  0
    1.1620    0.2060    0.3180 C   0  0  0  0  0  0  0  0  0  0  0  0
    6.3260    1.3940    1.0080 S   0  0  0  0  0  0  0  0  0  0  0  0
  2  1  1  1
  2  3  1  0
  2  4  1  0
  4  5  2  0
  4 35  1  0
  5  6  1  0
  6  7  2  0
  7  8  1  0
  7 35  1  0
  8  9  2  0
 10  8  1  1
 10 11  1  0
 10 34  1  0
 11 12  1  0
 12 13  1  0
 13 14  1  0
 14 15  1  0
 14 34  1  0
 15 16  2  0
 17 15  1  1
 17 18  1  0
 17 25  1  0
 18 19  1  0
 19 20  1  6
 19 23  1  0
 20 21  1  0
 20 22  2  0
 23 24  1  0
 24 25  1  0
 25 26  1  0
 26 27  2  0
 26 28  1  0
 28 29  1  6
 28 30  1  0
 28 31  1  0
 31 32  1  1
 31 33  1  0
M  END
