
     RDKit          3D

 36 39  0  0  0  0  0  0  0  0999 V2000
   -7.4440    1.3030   -2.8640 C   0  0  0  0  0  0  0  0  0  0  0  0
   -6.6130    2.2310   -2.0200 C   0  0  0  0  0  0  0  0  0  0  0  0
   -5.3540    1.6460   -1.5530 C   0  0  0  0  0  0  0  0  0  0  0  0
   -3.7230    2.0480   -2.2670 S   0  0  0  0  0  0  0  0  0  0  0  0
   -2.7930    0.9650   -1.1790 C   0  0  0  0  0  0  0  0  0  0  0  0
   -1.3520    0.8870   -1.3080 C   0  0  0  0  0  0  0  0  0  0  0  0
   -0.7840    1.5560   -2.2660 O   0  0  0  0  0  0  0  0  0  0  0  0
   -0.4250    0.1830   -0.5350 N   0  0  0  0  0  0  0  0  0  0  0  0
    1.0200    0.1870   -0.7810 C   0  0  2  0  0  0  0  0  0  0  0  0
    1.5170   -1.1390   -1.2430 C   0  0  0  0  0  0  0  0  0  0  0  0
    1.7590   -2.1560   -0.2050 C   0  0  0  0  0  0  0  0  0  0  0  0
    1.5870   -3.3640   -0.6580 O   0  0  0  0  0  0  0  0  0  0  0  0
    2.1300   -2.0030    1.1310 N   0  0  0  0  0  0  0  0  0  0  0  0
    3.2800   -1.4330    1.7420 C   0  0  0  0  0  0  0  0  0  0  0  0
    3.3960   -0.9500    2.9840 C   0  0  0  0  0  0  0  0  0  0  0  0
    4.7380   -0.4500    3.2430 C   0  0  0  0  0  0  0  0  0  0  0  0
    5.4310   -0.7060    1.9830 C   0  0  0  0  0  0  0  0  0  0  0  0
    6.7690   -0.4010    1.8290 F   0  0  0  0  0  0  0  0  0  0  0  0
    4.5930   -1.2630    1.1280 C   0  0  0  0  0  0  0  0  0  0  0  0
    4.9710   -1.6530   -0.2410 C   0  0  0  0  0  0  0  0  0  0  0  0
    5.2990   -0.6960   -1.2610 C   0  0  0  0  0  0  0  0  0  0  0  0
    5.1950    0.7610   -1.1620 C   0  0  2  0  0  0  0  0  0  0  0  0
    6.0660    1.4260   -0.3340 O   0  0  0  0  0  0  0  0  0  0  0  0
    6.9910    2.2320   -0.9430 C   0  0  0  0  0  0  0  0  0  0  0  0
    3.8070    1.3670   -1.1520 C   0  0  0  0  0  0  0  0  0  0  0  0
    3.1180    1.3140    0.0870 N   0  0  0  0  0  0  0  0  0  0  0  0
    1.7800    0.8580    0.2700 C   0  0  0  0  0  0  0  0  0  0  0  0
    1.2950    1.0840    1.4360 O   0  0  0  0  0  0  0  0  0  0  0  0
   -3.7610    0.3980   -0.3860 C   0  0  0  0  0  0  0  0  0  0  0  0
   -5.0410    0.7560   -0.5900 C   0  0  0  0  0  0  0  0  0  0  0  0
   -6.1260    0.1550    0.3170 C   0  0  0  0  0  0  0  0  0  0  0  0
   -5.8720   -1.3410    0.2120 C   0  0  0  0  0  0  0  0  0  0  0  0
   -4.5770   -1.6480    0.8800 C   0  0  0  0  0  0  0  0  0  0  0  0
   -3.4890   -0.6530    0.6930 C   0  0  2  0  0  0  0  0  0  0  0  0
   -3.0770    0.0200    1.9770 C   0  0  0  0  0  0  0  0  0  0  0  0
   -2.8010   -1.0010    3.0580 C   0  0  0  0  0  0  0  0  0  0  0  0
  1  2  1  0
  2  3  1  0
  3  4  1  0
  3 30  2  0
  4  5  1  0
  5  6  1  0
  5 29  2  0
  6  7  2  0
  6  8  1  0
  9  8  1  1
  9 10  1  0
  9 27  1  0
 10 11  1  0
 11 12  2  0
 11 13  1  0
 13 14  1  0
 14 15  2  0
 14 19  1  0
 15 16  1  0
 16 17  1  0
 17 18  1  0
 17 19  2  0
 19 20  1  0
 20 21  1  0
 21 22  1  0
 22 23  1  1
 22 25  1  0
 23 24  1  0
 25 26  1  0
 26 27  1  0
 27 28  2  0
 29 30  1  0
 29 34  1  0
 30 31  1  0
 31 32  1  0
 32 33  1  0
 33 34  1  0
 34 35  1  1
 35 36  1  0
M  END
