
     RDKit          3D

 36 39  0  0  0  0  0  0  0  0999 V2000
   -3.9680    5.3760    1.4930 C   0  0  0  0  0  0  0  0  0  0  0  0
   -5.0310    4.3650    1.0820 C   0  0  0  0  0  0  0  0  0  0  0  0
   -4.4150    3.4890    0.0470 C   0  0  0  0  0  0  0  0  0  0  0  0
   -4.4570    3.7500   -1.3050 C   0  0  0  0  0  0  0  0  0  0  0  0
   -3.7670    2.6880   -1.8840 C   0  0  0  0  0  0  0  0  0  0  0  0
   -3.3480    1.8520   -0.8750 C   0  0  0  0  0  0  0  0  0  0  0  0
   -2.5770    0.6040   -1.0970 C   0  0  0  0  0  0  0  0  0  0  0  0
   -2.2660   -0.0640    0.1440 N   0  0  2  0  0  0  0  0  0  0  0  0
   -0.8760    0.0980    0.4200 C   0  0  0  0  0  0  0  0  0  0  0  0
   -0.4630   -0.4800    1.7540 C   0  0  0  0  0  0  0  0  0  0  0  0
    0.9050   -0.3210    2.0270 O   0  0  0  0  0  0  0  0  0  0  0  0
    1.9200   -0.8460    1.2460 C   0  0  0  0  0  0  0  0  0  0  0  0
    1.5730   -1.5050    0.2340 O   0  0  0  0  0  0  0  0  0  0  0  0
    3.3630   -0.6410    1.5890 C   0  0  0  0  0  0  0  0  0  0  0  0
    4.2650   -1.3040    0.6000 C   0  0  0  0  0  0  0  0  0  0  0  0
    5.6740   -1.0910    0.8680 N   0  0  0  0  0  0  0  0  0  0  0  0
    6.2780   -1.8870    1.8350 C   0  0  0  0  0  0  0  0  0  0  0  0
    7.5720   -1.5170    1.9310 C   0  0  0  0  0  0  0  0  0  0  0  0
    7.7420   -0.5310    1.0510 N   0  0  0  0  0  0  0  0  0  0  0  0
    6.5700   -0.2540    0.3810 C   0  0  0  0  0  0  0  0  0  0  0  0
    6.4880    0.6870   -0.7220 C   0  0  0  0  0  0  0  0  0  0  0  0
    7.6450    0.9660   -1.4970 C   0  0  0  0  0  0  0  0  0  0  0  0
    7.2940    1.8870   -2.3830 N   0  0  0  0  0  0  0  0  0  0  0  0
    6.0400    2.2160   -2.2450 N   0  0  0  0  0  0  0  0  0  0  0  0
    5.5230    1.4870   -1.2210 C   0  0  0  0  0  0  0  0  0  0  0  0
    4.1250    1.6730   -0.7530 C   0  0  0  0  0  0  0  0  0  0  0  0
   -2.7260   -1.4150    0.0860 C   0  0  1  0  0  0  0  0  0  0  0  0
   -4.2330   -1.3670   -0.1580 C   0  0  0  0  0  0  0  0  0  0  0  0
   -4.9640   -2.3690    0.7160 C   0  0  0  0  0  0  0  0  0  0  0  0
   -4.3090   -3.6990    0.5350 C   0  0  0  0  0  0  0  0  0  0  0  0
   -3.8090   -3.9400   -0.8580 C   0  0  0  0  0  0  0  0  0  0  0  0
   -2.3660   -3.6220   -1.0500 C   0  0  1  0  0  0  0  0  0  0  0  0
   -1.4270   -4.5830    0.1140 Cl  0  0  0  0  0  0  0  0  0  0  0  0
   -1.9080   -4.2150   -2.6860 Cl  0  0  0  0  0  0  0  0  0  0  0  0
   -2.0200   -2.1780   -0.9900 C   0  0  0  0  0  0  0  0  0  0  0  0
   -3.7560    2.3680    0.2550 O   0  0  0  0  0  0  0  0  0  0  0  0
  1  2  1  0
  2  3  1  0
  3  4  2  0
  3 36  1  0
  4  5  1  0
  5  6  2  0
  6  7  1  0
  6 36  1  0
  8  7  1  6
  8  9  1  0
  8 27  1  0
  9 10  1  0
 10 11  1  0
 11 12  1  0
 12 13  2  0
 12 14  1  0
 14 15  1  0
 15 16  1  0
 16 17  1  0
 16 20  1  0
 17 18  2  0
 18 19  1  0
 19 20  2  0
 20 21  1  0
 21 22  1  0
 21 25  2  0
 22 23  2  0
 23 24  1  0
 24 25  1  0
 25 26  1  0
 27 28  1  6
 27 35  1  0
 28 29  1  0
 29 30  1  0
 30 31  1  0
 31 32  1  0
 32 33  1  1
 32 34  1  0
 32 35  1  0
M  CHG  2   8   1  19   1
M  END
