
     RDKit          3D

 36 38  0  0  0  0  0  0  0  0999 V2000
    8.9760   -1.3100   -0.9440 C   0  0  0  0  0  0  0  0  0  0  0  0
    9.0650   -0.4380   -2.1990 C   0  0  0  0  0  0  0  0  0  0  0  0
    7.8600   -0.5490   -2.9470 N   0  0  0  0  0  0  0  0  0  0  0  0
    6.5710   -0.1470   -2.5030 C   0  0  0  0  0  0  0  0  0  0  0  0
    5.9320    1.4000   -1.8670 S   0  0  0  0  0  0  0  0  0  0  0  0
    4.2950    0.8160   -1.3870 C   0  0  0  0  0  0  0  0  0  0  0  0
    3.2720    1.5050   -0.7930 C   0  0  0  0  0  0  0  0  0  0  0  0
    3.6520    2.8670   -0.6510 O   0  0  0  0  0  0  0  0  0  0  0  0
    2.1410    1.4370   -0.3140 O   0  0  0  0  0  0  0  0  0  0  0  0
    0.9840    1.5730    0.2280 C   0  0  0  0  0  0  0  0  0  0  0  0
    0.0690    0.2870    0.0060 C   0  0  0  0  0  0  0  0  0  0  0  0
   -1.1010    0.5350    0.7840 C   0  0  0  0  0  0  0  0  0  0  0  0
   -0.7400    0.4920    2.1510 O   0  0  0  0  0  0  0  0  0  0  0  0
   -2.4320    0.7940    0.7740 N   0  0  0  0  0  0  0  0  0  0  0  0
   -3.0920    1.0420    2.1010 C   0  0  0  0  0  0  0  0  0  0  0  0
   -4.5470    0.6890    2.0780 C   0  0  1  0  0  0  0  0  0  0  0  0
   -5.1120    1.1730    3.2770 O   0  0  0  0  0  0  0  0  0  0  0  0
   -4.7440    0.8260    4.5520 C   0  0  0  0  0  0  0  0  0  0  0  0
   -5.6580    0.5400    5.4780 C   0  0  0  0  0  0  0  0  0  0  0  0
   -5.0020    0.1990    6.7450 C   0  0  0  0  0  0  0  0  0  0  0  0
   -3.5640    0.3240    6.5030 C   0  0  0  0  0  0  0  0  0  0  0  0
   -3.4370    0.6850    5.2310 C   0  0  0  0  0  0  0  0  0  0  0  0
   -5.3150    1.3210    0.9670 C   0  0  0  0  0  0  0  0  0  0  0  0
   -4.4010    1.8960   -0.1160 C   0  0  1  0  0  0  0  0  0  0  0  0
   -3.8860    3.0890    0.3230 F   0  0  0  0  0  0  0  0  0  0  0  0
   -3.2750    0.8890   -0.3430 C   0  0  0  0  0  0  0  0  0  0  0  0
   -3.1740    0.2870   -1.4120 C   0  0  0  0  0  0  0  0  0  0  0  0
   -2.4240   -0.6630   -2.2180 C   0  0  0  0  0  0  0  0  0  0  0  0
   -3.0360   -0.8910   -3.4430 C   0  0  0  0  0  0  0  0  0  0  0  0
   -3.9640   -0.7170   -4.3110 C   0  0  0  0  0  0  0  0  0  0  0  0
   -1.9550   -2.0090   -3.9720 N   0  0  0  0  0  0  0  0  0  0  0  0
    4.3800   -0.6760   -1.8000 C   0  0  0  0  0  0  0  0  0  0  0  0
    3.1560   -1.4700   -1.4920 C   0  0  0  0  0  0  0  0  0  0  0  0
    5.5030   -0.9590   -2.2930 C   0  0  0  0  0  0  0  0  0  0  0  0
    5.7630   -2.4390   -2.5990 C   0  0  0  0  0  0  0  0  0  0  0  0
    5.9930   -3.7030   -2.8380 N   0  0  0  0  0  0  0  0  0  0  0  0
  1  2  1  0
  2  3  1  0
  3  4  1  0
  4  5  1  0
  4 34  2  0
  5  6  1  0
  6  7  1  0
  6 32  2  0
  7  8  2  0
  7  9  1  0
  9 10  1  0
 10 11  1  0
 11 12  1  0
 12 13  2  0
 12 14  1  0
 14 15  1  0
 14 26  1  0
 15 16  1  0
 16 17  1  1
 16 23  1  0
 17 18  1  0
 18 19  2  0
 18 22  1  0
 19 20  1  0
 20 21  1  0
 21 22  2  0
 23 24  1  0
 24 25  1  1
 24 26  1  0
 26 27  2  3
 27 28  1  0
 28 29  2  3
 29 30  1  0
 29 31  1  0
 32 33  1  0
 32 34  1  0
 34 35  1  0
 35 36  3  0
M  END
