
     RDKit          3D

 36 39  0  0  0  0  0  0  0  0999 V2000
   -7.5430    3.9910    0.5100 C   0  0  0  0  0  0  0  0  0  0  0  0
   -6.8220    2.6800    0.6790 C   0  0  0  0  0  0  0  0  0  0  0  0
   -5.7800    2.4460   -0.2690 N   0  0  0  0  0  0  0  0  0  0  0  0
   -4.5560    2.0050    0.4120 C   0  0  0  0  0  0  0  0  0  0  0  0
   -4.3710    0.5700    0.3400 C   0  0  0  0  0  0  0  0  0  0  0  0
   -5.1650   -0.0770    1.9280 Cl  0  0  0  0  0  0  0  0  0  0  0  0
   -3.5080   -0.2780   -0.0750 C   0  0  0  0  0  0  0  0  0  0  0  0
   -2.2150    0.2470   -0.6310 C   0  0  0  0  0  0  0  0  0  0  0  0
   -2.0920    1.4680   -0.7330 O   0  0  0  0  0  0  0  0  0  0  0  0
   -1.1470   -0.5860   -1.0360 N   0  0  0  0  0  0  0  0  0  0  0  0
    0.0780    0.0170   -1.5460 C   0  0  0  0  0  0  0  0  0  0  0  0
    1.0240    0.1490   -0.3400 C   0  0  0  0  0  0  0  0  0  0  0  0
    2.2810    0.7750   -0.7300 C   0  0  0  0  0  0  0  0  0  0  0  0
    2.1580    1.8690   -1.4180 O   0  0  0  0  0  0  0  0  0  0  0  0
    3.5800    0.3320   -0.4490 N   0  0  0  0  0  0  0  0  0  0  0  0
    4.6930    0.9970   -0.8530 N   0  0  0  0  0  0  0  0  0  0  0  0
    5.7890    0.3540   -0.4870 C   0  0  0  0  0  0  0  0  0  0  0  0
    7.1800    0.8160   -0.7730 C   0  0  0  0  0  0  0  0  0  0  0  0
    7.6150    1.6910    0.2920 N   0  0  1  0  0  0  0  0  0  0  0  0
    8.7640    2.4330   -0.2500 C   0  0  0  0  0  0  0  0  0  0  0  0
    6.5400    2.6020    0.6050 C   0  0  0  0  0  0  0  0  0  0  0  0
    5.4030   -0.7730    0.1810 C   0  0  0  0  0  0  0  0  0  0  0  0
    4.0010   -0.7630    0.1920 C   0  0  0  0  0  0  0  0  0  0  0  0
    3.2010   -1.8150    0.8460 C   0  0  2  0  0  0  0  0  0  0  0  0
    3.9110   -3.1780    1.0550 C   0  0  0  0  0  0  0  0  0  0  0  0
    2.8250   -3.0150    0.0450 C   0  0  0  0  0  0  0  0  0  0  0  0
   -1.3170   -1.9820   -0.9090 C   0  0  0  0  0  0  0  0  0  0  0  0
   -0.3700   -2.7320   -1.2520 O   0  0  0  0  0  0  0  0  0  0  0  0
   -2.5500   -2.5500   -0.3930 C   0  0  0  0  0  0  0  0  0  0  0  0
   -2.6910   -3.9100   -0.3950 C   0  0  0  0  0  0  0  0  0  0  0  0
   -3.8610   -4.5220   -0.0420 C   0  0  0  0  0  0  0  0  0  0  0  0
   -4.0670   -6.2640   -0.0200 Cl  0  0  0  0  0  0  0  0  0  0  0  0
   -4.9440   -3.7450    0.3210 C   0  0  0  0  0  0  0  0  0  0  0  0
   -4.8100   -2.3420    0.3300 C   0  0  0  0  0  0  0  0  0  0  0  0
   -6.1170   -1.5860    0.2530 C   0  0  0  0  0  0  0  0  0  0  0  0
   -3.6300   -1.7160    0.0060 C   0  0  0  0  0  0  0  0  0  0  0  0
  1  2  1  0
  2  3  1  0
  3  4  1  0
  4  5  1  0
  5  6  1  0
  5  7  2  3
  7  8  1  0
  7 36  1  0
  8  9  2  0
  8 10  1  0
 10 11  1  0
 10 27  1  0
 11 12  1  0
 12 13  1  0
 13 14  2  0
 13 15  1  0
 15 16  1  0
 15 23  1  0
 16 17  2  0
 17 18  1  0
 17 22  1  0
 18 19  1  0
 19 20  1  6
 19 21  1  0
 22 23  2  0
 24 23  1  6
 24 25  1  0
 24 26  1  0
 25 26  1  0
 27 28  2  0
 27 29  1  0
 29 30  2  0
 29 36  1  0
 30 31  1  0
 31 32  1  0
 31 33  2  0
 33 34  1  0
 34 35  1  0
 34 36  2  0
M  CHG  2   3   1  19   1
M  END
