
     RDKit          3D

 36 39  0  0  0  0  0  0  0  0999 V2000
    8.4770    0.0220   -0.1190 C   0  0  0  0  0  0  0  0  0  0  0  0
    7.5210   -1.0910   -0.3960 C   0  0  0  0  0  0  0  0  0  0  0  0
    6.6970   -1.4050    0.8120 C   0  0  0  0  0  0  0  0  0  0  0  0
    5.9190   -0.2890    1.2540 N   0  0  1  0  0  0  0  0  0  0  0  0
    5.4260    0.4360    0.1220 C   0  0  0  0  0  0  0  0  0  0  0  0
    4.2270    1.2660    0.5810 C   0  0  0  0  0  0  0  0  0  0  0  0
    3.1700    0.3330    0.8680 N   0  0  0  0  0  0  0  0  0  0  0  0
    1.7920    0.6190    0.6590 C   0  0  0  0  0  0  0  0  0  0  0  0
    1.5350    1.7630    0.1970 O   0  0  0  0  0  0  0  0  0  0  0  0
    0.8470   -0.3230    0.9580 O   0  0  0  0  0  0  0  0  0  0  0  0
   -0.5250   -0.0560    0.7510 C   0  0  0  0  0  0  0  0  0  0  0  0
   -0.8270    0.1990   -0.6950 C   0  0  0  0  0  0  0  0  0  0  0  0
   -2.2610    0.4890   -0.9210 N   0  0  0  0  0  0  0  0  0  0  0  0
   -2.6240    1.8360   -0.8450 C   0  0  0  0  0  0  0  0  0  0  0  0
   -1.5930    2.6260   -0.7300 O   0  0  0  0  0  0  0  0  0  0  0  0
   -3.8900    2.5200   -0.8650 C   0  0  0  0  0  0  0  0  0  0  0  0
   -5.1360    2.0880   -0.9120 C   0  0  0  0  0  0  0  0  0  0  0  0
   -6.0710    3.2010   -0.9170 N   0  0  0  0  0  0  0  0  0  0  0  0
   -5.3150    4.3150   -1.4480 C   0  0  0  0  0  0  0  0  0  0  0  0
   -3.9760    4.0120   -0.8320 C   0  0  0  0  0  0  0  0  0  0  0  0
   -3.1460    4.8990   -0.3900 C   0  0  0  0  0  0  0  0  0  0  0  0
   -3.5620    6.6140   -0.5050 Cl  0  0  0  0  0  0  0  0  0  0  0  0
   -3.1470   -0.5450   -1.3360 C   0  0  1  0  0  0  0  0  0  0  0  0
   -2.6170   -1.4190   -2.4170 C   0  0  0  0  0  0  0  0  0  0  0  0
   -2.1670   -2.7800   -1.9540 C   0  0  0  0  0  0  0  0  0  0  0  0
   -3.4310   -3.5090   -1.4670 C   0  0  0  0  0  0  0  0  0  0  0  0
   -3.7760   -2.7950   -0.1910 C   0  0  0  0  0  0  0  0  0  0  0  0
   -4.1950   -3.4100    0.8360 N   0  0  0  0  0  0  0  0  0  0  0  0
   -4.5580   -2.8620    2.1080 C   0  0  0  0  0  0  0  0  0  0  0  0
   -4.3760   -1.4120    2.1230 C   0  0  0  0  0  0  0  0  0  0  0  0
   -4.6430   -0.7590    3.2440 C   0  0  0  0  0  0  0  0  0  0  0  0
   -5.1930   -1.6210    4.6430 Cl  0  0  0  0  0  0  0  0  0  0  0  0
   -3.9130   -0.7060    0.9380 C   0  0  0  0  0  0  0  0  0  0  0  0
   -3.6180   -1.3530   -0.1580 C   0  0  0  0  0  0  0  0  0  0  0  0
    3.5500   -0.9580    1.3960 C   0  0  0  0  0  0  0  0  0  0  0  0
    4.8640   -0.7510    2.1370 C   0  0  0  0  0  0  0  0  0  0  0  0
  1  2  1  0
  2  3  1  0
  4  3  1  6
  4  5  1  0
  4 36  1  0
  5  6  1  0
  6  7  1  0
  7  8  1  0
  7 35  1  0
  8  9  2  0
  8 10  1  0
 10 11  1  0
 11 12  1  0
 12 13  1  0
 13 14  1  0
 23 13  1  1
 14 15  2  0
 14 16  1  0
 16 17  2  0
 16 20  1  0
 17 18  1  0
 18 19  1  0
 19 20  1  0
 20 21  2  3
 21 22  1  0
 23 24  1  0
 23 34  1  0
 24 25  1  0
 25 26  1  0
 26 27  1  0
 27 28  2  0
 27 34  1  0
 28 29  1  0
 29 30  1  0
 30 31  2  3
 30 33  1  0
 31 32  1  0
 33 34  2  0
 35 36  1  0
M  CHG  1   4   1
M  END
