
     RDKit          3D

 36 39  0  0  0  0  0  0  0  0999 V2000
    4.4910   -4.3430   -0.7720 C   0  0  0  0  0  0  0  0  0  0  0  0
    3.4070   -3.5460   -0.3990 O   0  0  0  0  0  0  0  0  0  0  0  0
    3.8230   -2.5540    0.5020 C   0  0  0  0  0  0  0  0  0  0  0  0
    2.7020   -1.6540    0.9490 C   0  0  0  0  0  0  0  0  0  0  0  0
    2.0490   -0.9250   -0.1810 C   0  0  2  0  0  0  0  0  0  0  0  0
    1.5330   -2.0280   -1.0530 C   0  0  0  0  0  0  0  0  0  0  0  0
    1.1240   -2.9080   -1.7280 N   0  0  0  0  0  0  0  0  0  0  0  0
    2.9490   -0.1640   -1.0800 C   0  0  0  0  0  0  0  0  0  0  0  0
    3.9480    0.7560   -0.5400 C   0  0  0  0  0  0  0  0  0  0  0  0
    3.4550    1.9800    0.0600 N   0  0  1  0  0  0  0  0  0  0  0  0
    4.0990    3.1630   -0.3910 C   0  0  0  0  0  0  0  0  0  0  0  0
    5.2770    3.5050    0.4790 C   0  0  0  0  0  0  0  0  0  0  0  0
    4.9560    3.7620    1.9110 C   0  0  0  0  0  0  0  0  0  0  0  0
    3.8080    5.1090    2.1030 Cl  0  0  0  0  0  0  0  0  0  0  0  0
    2.0050    2.0660   -0.0030 C   0  0  0  0  0  0  0  0  0  0  0  0
    1.4770    1.0720    0.9560 C   0  0  0  0  0  0  0  0  0  0  0  0
    0.9110   -0.1250    0.2760 N   0  0  0  0  0  0  0  0  0  0  0  0
    0.1800   -0.7320    1.3390 C   0  0  0  0  0  0  0  0  0  0  0  0
   -0.8680   -1.7280    1.0060 C   0  0  0  0  0  0  0  0  0  0  0  0
   -1.9700   -1.2490    0.3140 O   0  0  0  0  0  0  0  0  0  0  0  0
   -2.0550   -0.6350   -0.8720 C   0  0  0  0  0  0  0  0  0  0  0  0
   -1.0270   -0.4230   -1.5340 O   0  0  0  0  0  0  0  0  0  0  0  0
   -3.3150   -0.1730   -1.4780 C   0  0  0  0  0  0  0  0  0  0  0  0
   -3.3280    0.3480   -2.7350 C   0  0  0  0  0  0  0  0  0  0  0  0
   -4.5040    0.7710   -3.2760 C   0  0  0  0  0  0  0  0  0  0  0  0
   -5.6350    0.6720   -2.5710 N   0  0  0  0  0  0  0  0  0  0  0  0
   -5.6570    0.1580   -1.3140 C   0  0  0  0  0  0  0  0  0  0  0  0
   -4.4800   -0.2800   -0.7390 C   0  0  0  0  0  0  0  0  0  0  0  0
   -4.7780   -0.7350    0.4870 N   0  0  0  0  0  0  0  0  0  0  0  0
   -6.0990   -0.6190    0.7510 C   0  0  0  0  0  0  0  0  0  0  0  0
   -6.8910   -0.9350    1.8460 C   0  0  0  0  0  0  0  0  0  0  0  0
   -8.2460   -0.6990    1.8350 C   0  0  0  0  0  0  0  0  0  0  0  0
   -9.2800   -1.0900    3.1960 Cl  0  0  0  0  0  0  0  0  0  0  0  0
   -8.8050   -0.1380    0.7090 C   0  0  0  0  0  0  0  0  0  0  0  0
   -8.0050    0.1800   -0.3930 C   0  0  0  0  0  0  0  0  0  0  0  0
   -6.6510   -0.0600   -0.3750 C   0  0  0  0  0  0  0  0  0  0  0  0
  1  2  1  0
  2  3  1  0
  3  4  1  0
  5  4  1  1
  5  6  1  0
  5  8  1  0
  5 17  1  0
  6  7  3  0
  8  9  1  0
  9 10  1  0
 10 11  1  6
 10 15  1  0
 11 12  1  0
 12 13  1  0
 13 14  1  0
 15 16  1  0
 16 17  1  0
 17 18  1  0
 18 19  1  0
 19 20  1  0
 20 21  1  0
 21 22  2  0
 21 23  1  0
 23 24  2  0
 23 28  1  0
 24 25  1  0
 25 26  2  0
 26 27  1  0
 27 28  2  0
 27 36  1  0
 28 29  1  0
 29 30  1  0
 30 31  2  0
 30 36  1  0
 31 32  1  0
 32 33  1  0
 32 34  2  0
 34 35  1  0
 35 36  2  0
M  CHG  2  10   1  26   1
M  END
