
     RDKit          3D

 36 39  0  0  0  0  0  0  0  0999 V2000
   -1.8700    5.0770    0.0760 C   0  0  0  0  0  0  0  0  0  0  0  0
   -2.3750    4.4570    1.2650 N   0  0  0  0  0  0  0  0  0  0  0  0
   -3.2210    5.0700    2.1380 C   0  0  0  0  0  0  0  0  0  0  0  0
   -3.4850    4.1690    3.1480 C   0  0  0  0  0  0  0  0  0  0  0  0
   -2.7870    3.0480    2.8420 N   0  0  0  0  0  0  0  0  0  0  0  0
   -2.1140    3.2230    1.7010 C   0  0  0  0  0  0  0  0  0  0  0  0
   -1.2160    2.2390    1.0010 C   0  0  0  0  0  0  0  0  0  0  0  0
   -1.9740    1.4020    0.0340 C   0  0  0  0  0  0  0  0  0  0  0  0
   -1.1270    0.4380   -0.6360 N   0  0  1  0  0  0  0  0  0  0  0  0
   -1.8480   -0.6240   -1.2190 C   0  0  0  0  0  0  0  0  0  0  0  0
   -2.3650   -1.7140   -0.4440 C   0  0  0  0  0  0  0  0  0  0  0  0
   -3.0110   -2.6000   -1.2430 O   0  0  0  0  0  0  0  0  0  0  0  0
   -2.3800   -2.0970    0.8830 N   0  0  0  0  0  0  0  0  0  0  0  0
   -3.0810   -3.3950    1.2500 C   0  0  0  0  0  0  0  0  0  0  0  0
   -4.2370   -2.9840    2.1300 C   0  0  0  0  0  0  0  0  0  0  0  0
   -3.6730   -2.3440    3.3770 C   0  0  0  0  0  0  0  0  0  0  0  0
   -3.0130   -1.0400    2.9280 C   0  0  0  0  0  0  0  0  0  0  0  0
   -1.8370   -1.4670    2.0390 C   0  0  0  0  0  0  0  0  0  0  0  0
   -0.3530    1.1430   -1.6850 C   0  0  0  0  0  0  0  0  0  0  0  0
    0.8790    0.4520   -2.0680 C   0  0  0  0  0  0  0  0  0  0  0  0
    1.2930   -0.7410   -1.5240 C   0  0  0  0  0  0  0  0  0  0  0  0
    2.4760   -1.3790   -1.9120 C   0  0  0  0  0  0  0  0  0  0  0  0
    2.8560   -2.5790   -1.3390 O   0  0  0  0  0  0  0  0  0  0  0  0
    4.0080   -3.2890   -1.6440 C   0  0  0  0  0  0  0  0  0  0  0  0
    5.2770   -2.5670   -1.3740 C   0  0  0  0  0  0  0  0  0  0  0  0
    5.3430   -1.4070   -0.6340 C   0  0  0  0  0  0  0  0  0  0  0  0
    6.5740   -0.7990   -0.4320 C   0  0  0  0  0  0  0  0  0  0  0  0
    7.7090   -1.3640   -0.9730 C   0  0  0  0  0  0  0  0  0  0  0  0
    9.2740   -0.5940   -0.7190 Cl  0  0  0  0  0  0  0  0  0  0  0  0
    7.6140   -2.5260   -1.7090 C   0  0  0  0  0  0  0  0  0  0  0  0
    6.4070   -3.0920   -1.8870 N   0  0  0  0  0  0  0  0  0  0  0  0
    3.2200   -0.7490   -2.8810 C   0  0  0  0  0  0  0  0  0  0  0  0
    2.8060    0.4620   -3.4370 C   0  0  0  0  0  0  0  0  0  0  0  0
    3.7890    1.2330   -4.6740 Cl  0  0  0  0  0  0  0  0  0  0  0  0
    1.6470    1.0820   -3.0520 C   0  0  0  0  0  0  0  0  0  0  0  0
    1.2540    2.2910   -3.6230 O   0  0  0  0  0  0  0  0  0  0  0  0
  1  2  1  0
  2  3  1  0
  2  6  1  0
  3  4  2  0
  4  5  1  0
  5  6  2  0
  6  7  1  0
  7  8  1  0
  9  8  1  6
  9 10  1  0
  9 19  1  0
 10 11  1  0
 11 12  2  0
 11 13  1  0
 13 14  1  0
 13 18  1  0
 14 15  1  0
 15 16  1  0
 16 17  1  0
 17 18  1  0
 19 20  1  0
 20 21  2  0
 20 35  1  0
 21 22  1  0
 22 23  1  0
 22 32  2  0
 23 24  1  0
 24 25  1  0
 25 26  2  0
 25 31  1  0
 26 27  1  0
 27 28  2  0
 28 29  1  0
 28 30  1  0
 30 31  2  0
 32 33  1  0
 33 34  1  0
 33 35  2  0
 35 36  1  0
M  CHG  2   5   1   9   1
M  END
