
     RDKit          3D

 15 16  0  0  0  0  0  0  0  0999 V2000
   -1.0960    2.5770    0.7950 O   0  0  0  0  0  0  0  0  0  0  0  0
   -0.5410    1.9200   -0.1210 C   0  0  0  0  0  0  0  0  0  0  0  0
    0.5810    2.4860   -0.7030 O   0  0  0  0  0  0  0  0  0  0  0  0
   -1.0900    0.6260   -0.5180 C   0  0  2  0  0  0  0  0  0  0  0  0
   -2.3230    0.2760    0.3010 C   0  0  0  0  0  0  0  0  0  0  0  0
   -2.8290   -1.0960   -0.0600 C   0  0  0  0  0  0  0  0  0  0  0  0
   -1.8030   -2.1270    0.3340 C   0  0  0  0  0  0  0  0  0  0  0  0
   -0.4450   -1.5400    0.5700 C   0  0  0  0  0  0  0  0  0  0  0  0
   -0.0810   -0.4930   -0.4900 C   0  0  2  0  0  0  0  0  0  0  0  0
    1.2790   -0.0450   -0.1820 C   0  0  0  0  0  0  0  0  0  0  0  0
    1.7470    0.6590    0.8680 N   0  0  0  0  0  0  0  0  0  0  0  0
    3.0490    0.8280    0.7180 N   0  0  0  0  0  0  0  0  0  0  0  0
    3.4350    0.2470   -0.4110 C   0  0  0  0  0  0  0  0  0  0  0  0
    5.0900    0.1570   -1.1260 S   0  0  0  0  0  0  0  0  0  0  0  0
    2.3470   -0.2870   -0.9590 N   0  0  0  0  0  0  0  0  0  0  0  0
  1  2  2  0
  2  3  1  0
  4  2  1  1
  4  5  1  0
  4  9  1  0
  5  6  1  0
  6  7  1  0
  7  8  1  0
  8  9  1  0
  9 10  1  1
 10 11  2  0
 10 15  1  0
 11 12  1  0
 12 13  1  0
 13 14  1  0
 13 15  2  0
M  END
