
     RDKit          3D

 15 16  0  0  0  0  0  0  0  0999 V2000
    4.3040    0.7210    1.9750 O   0  0  0  0  0  0  0  0  0  0  0  0
    4.0320    0.9610    0.6240 C   0  0  0  0  0  0  0  0  0  0  0  0
    2.8550    0.1610    0.1610 C   0  0  0  0  0  0  0  0  0  0  0  0
    1.6040    0.6490    0.2390 N   0  0  0  0  0  0  0  0  0  0  0  0
    0.5230   -0.0410   -0.1670 C   0  0  0  0  0  0  0  0  0  0  0  0
   -0.8500    0.4900   -0.0830 C   0  0  2  0  0  0  0  0  0  0  0  0
   -1.6850   -0.4300    0.7570 C   0  0  0  0  0  0  0  0  0  0  0  0
   -3.1590   -0.2850    0.5160 C   0  0  0  0  0  0  0  0  0  0  0  0
   -3.3790    0.9660   -0.0670 O   0  0  0  0  0  0  0  0  0  0  0  0
   -2.9310    0.8570   -1.3980 C   0  0  0  0  0  0  0  0  0  0  0  0
   -1.4530    0.6680   -1.4780 C   0  0  0  0  0  0  0  0  0  0  0  0
    0.7170   -1.2730   -0.6710 N   0  0  0  0  0  0  0  0  0  0  0  0
    1.9460   -1.8130   -0.7740 C   0  0  0  0  0  0  0  0  0  0  0  0
    2.1070   -3.3140   -1.3970 S   0  0  0  0  0  0  0  0  0  0  0  0
    3.0000   -1.0810   -0.3530 N   0  0  0  0  0  0  0  0  0  0  0  0
  1  2  1  0
  2  3  1  0
  3  4  1  0
  3 15  2  0
  4  5  2  0
  6  5  1  6
  5 12  1  0
  6  7  1  0
  6 11  1  0
  7  8  1  0
  8  9  1  0
  9 10  1  0
 10 11  1  0
 12 13  1  0
 13 14  2  0
 13 15  1  0
M  END
