
     RDKit          3D

 15 16  0  0  0  0  0  0  0  0999 V2000
   -5.2660    1.6580   -0.9950 O   0  0  0  0  0  0  0  0  0  0  0  0
   -4.2260    1.1220   -0.4920 C   0  0  0  0  0  0  0  0  0  0  0  0
   -3.2460    1.8430    0.0570 N   0  0  0  0  0  0  0  0  0  0  0  0
   -2.1900    1.2540    0.5640 N   0  0  0  0  0  0  0  0  0  0  0  0
   -2.0000   -0.0760    0.5810 C   0  0  0  0  0  0  0  0  0  0  0  0
   -0.5400   -0.8260    1.2860 S   0  0  0  0  0  0  0  0  0  0  0  0
    0.7630   -0.9960    0.0010 C   0  0  2  0  0  0  0  0  0  0  0  0
    1.9660   -1.6150    0.5870 C   0  0  0  0  0  0  0  0  0  0  0  0
    3.0950   -0.7280    0.9240 C   0  0  0  0  0  0  0  0  0  0  0  0
    2.8680    0.7290    0.6600 C   0  0  0  0  0  0  0  0  0  0  0  0
    2.3450    0.7930   -0.7810 C   0  0  0  0  0  0  0  0  0  0  0  0
    0.9350    0.2860   -0.7110 C   0  0  0  0  0  0  0  0  0  0  0  0
   -2.9870   -0.8190    0.0270 N   0  0  0  0  0  0  0  0  0  0  0  0
   -4.0850   -0.2520   -0.5040 C   0  0  0  0  0  0  0  0  0  0  0  0
   -5.0060   -0.9700   -1.0220 O   0  0  0  0  0  0  0  0  0  0  0  0
  1  2  2  0
  2  3  1  0
  2 14  1  0
  3  4  1  0
  4  5  2  0
  5  6  1  0
  5 13  1  0
  7  6  1  1
  7  8  1  0
  7 12  1  0
  8  9  1  0
  9 10  1  0
 10 11  1  0
 11 12  1  0
 13 14  1  0
 14 15  2  0
M  END
