
     RDKit          3D

 15 16  0  0  0  0  0  0  0  0999 V2000
    3.3760   -0.2440   -1.6170 N   0  0  0  0  0  0  0  0  0  0  0  0
    2.8750   -0.6520   -0.2890 C   0  0  2  0  0  0  0  0  0  0  0  0
    1.4240   -0.6700   -0.3920 C   0  0  0  0  0  0  0  0  0  0  0  0
    0.5100    0.0370    0.1920 C   0  0  0  0  0  0  0  0  0  0  0  0
   -0.8830   -0.2170   -0.1210 N   0  0  0  0  0  0  0  0  0  0  0  0
   -1.4490    0.4850   -1.2340 C   0  0  0  0  0  0  0  0  0  0  0  0
   -2.9350    0.3570   -1.3180 C   0  0  0  0  0  0  0  0  0  0  0  0
   -3.5570    0.1600   -0.0270 N   0  0  0  0  0  0  0  0  0  0  0  0
   -3.0040   -0.7580    0.9010 C   0  0  0  0  0  0  0  0  0  0  0  0
   -3.7150   -1.2010    1.8310 O   0  0  0  0  0  0  0  0  0  0  0  0
   -1.5760   -1.1610    0.7250 C   0  0  0  0  0  0  0  0  0  0  0  0
    0.8370    1.0750    1.1500 C   0  0  0  0  0  0  0  0  0  0  0  0
    2.0510    1.3860    1.5040 C   0  0  0  0  0  0  0  0  0  0  0  0
    3.4430    0.5730    0.8530 S   0  0  0  0  0  0  0  0  0  0  0  0
    4.3960    0.0400    1.9010 O   0  0  0  0  0  0  0  0  0  0  0  0
  2  1  1  6
  2  3  1  0
  2 14  1  0
  3  4  2  0
  4  5  1  0
  4 12  1  0
  5  6  1  0
  5 11  1  0
  6  7  1  0
  7  8  1  0
  8  9  1  0
  9 10  2  0
  9 11  1  0
 12 13  2  0
 14 13  1  1
 14 15  2  0
M  END
