
     RDKit          3D

 14 15  0  0  0  0  0  0  0  0999 V2000
   -0.1960    1.0700    1.1740 O   0  0  0  0  0  0  0  0  0  0  0  0
    0.0940    0.1820    0.3500 C   0  0  0  0  0  0  0  0  0  0  0  0
    1.3970   -0.3370    0.3390 N   0  0  0  0  0  0  0  0  0  0  0  0
    2.4540    0.0810    1.2230 C   0  0  2  0  0  0  0  0  0  0  0  0
    3.7280    0.3960    0.4750 C   0  0  0  0  0  0  0  0  0  0  0  0
    4.8960    0.1620    1.3150 C   0  0  0  0  0  0  0  0  0  0  0  0
    4.7860   -0.7330    2.2730 C   0  0  0  0  0  0  0  0  0  0  0  0
    3.1100   -1.3680    2.1700 S   0  0  0  0  0  0  0  0  0  0  0  0
   -0.9420   -0.2400   -0.5300 N   0  0  0  0  0  0  0  0  0  0  0  0
   -2.2530    0.2680   -0.5340 C   0  0  2  0  0  0  0  0  0  0  0  0
   -3.3310   -0.7630   -0.2620 C   0  0  0  0  0  0  0  0  0  0  0  0
   -4.5370   -0.0610   -0.8400 C   0  0  0  0  0  0  0  0  0  0  0  0
   -4.1050    1.0660   -1.4840 O   0  0  0  0  0  0  0  0  0  0  0  0
   -2.7460    0.8480   -1.8210 C   0  0  0  0  0  0  0  0  0  0  0  0
  1  2  2  0
  2  3  1  0
  2  9  1  0
  4  3  1  6
  4  5  1  0
  4  8  1  0
  5  6  1  0
  6  7  2  0
  7  8  1  0
 10  9  1  6
 10 11  1  0
 10 14  1  0
 11 12  1  0
 12 13  1  0
 13 14  1  0
M  END
