
     RDKit          3D

 14 15  0  0  0  0  0  0  0  0999 V2000
   -4.2970    0.0190    0.4740 C   0  0  0  0  0  0  0  0  0  0  0  0
   -2.9160   -0.1310   -0.0330 C   0  0  0  0  0  0  0  0  0  0  0  0
   -2.4660   -0.6750   -1.1270 C   0  0  0  0  0  0  0  0  0  0  0  0
   -1.0690   -0.6630   -1.3350 C   0  0  0  0  0  0  0  0  0  0  0  0
   -0.3280   -0.1000   -0.4010 C   0  0  0  0  0  0  0  0  0  0  0  0
    1.1080    0.0690   -0.3190 C   0  0  0  0  0  0  0  0  0  0  0  0
    1.8750   -0.3760   -1.2800 N   0  0  0  0  0  0  0  0  0  0  0  0
    3.2650   -0.2230   -1.2230 N   0  0  0  0  0  0  0  0  0  0  0  0
    3.8620    0.4250   -0.1050 C   0  0  0  0  0  0  0  0  0  0  0  0
    4.9980    0.9650   -0.1610 O   0  0  0  0  0  0  0  0  0  0  0  0
    3.0800    0.4410    1.1560 C   0  0  0  0  0  0  0  0  0  0  0  0
    1.6980    0.7140    0.7960 N   0  0  0  0  0  0  0  0  0  0  0  0
   -1.4780    0.4540    0.8270 S   0  0  0  0  0  0  0  0  0  0  0  0
   -1.2800   -0.3330    2.1330 O   0  0  0  0  0  0  0  0  0  0  0  0
  1  2  1  0
  2  3  2  0
 13  2  1  6
  3  4  1  0
  4  5  2  0
  5  6  1  0
  5 13  1  0
  6  7  2  0
  6 12  1  0
  7  8  1  0
  8  9  1  0
  9 10  2  0
  9 11  1  0
 11 12  1  0
 13 14  2  0
M  END
