
     RDKit          3D

 15 16  0  0  0  0  0  0  0  0999 V2000
    4.5010    1.3530   -1.4230 O   0  0  0  0  0  0  0  0  0  0  0  0
    3.5470    0.8090   -0.8230 C   0  0  0  0  0  0  0  0  0  0  0  0
    3.3030   -0.5070   -0.8150 N   0  0  0  0  0  0  0  0  0  0  0  0
    2.2890   -1.0160   -0.1690 N   0  0  0  0  0  0  0  0  0  0  0  0
    1.4180   -0.2430    0.5350 C   0  0  0  0  0  0  0  0  0  0  0  0
    0.3500   -0.9670    1.2710 C   0  0  0  0  0  0  0  0  0  0  0  0
   -0.7950   -1.4370    0.5060 C   0  0  0  0  0  0  0  0  0  0  0  0
   -1.7450   -0.5420   -0.1860 C   0  0  0  0  0  0  0  0  0  0  0  0
   -1.7770    0.7390   -0.2120 C   0  0  0  0  0  0  0  0  0  0  0  0
   -2.8410    1.4300   -0.9900 C   0  0  0  0  0  0  0  0  0  0  0  0
   -4.0880    0.1060   -1.0020 S   0  0  0  0  0  0  0  0  0  0  0  0
   -2.8510   -1.2270   -0.9840 C   0  0  0  0  0  0  0  0  0  0  0  0
    1.6370    1.0540    0.5430 N   0  0  0  0  0  0  0  0  0  0  0  0
    2.6810    1.6160   -0.1180 C   0  0  0  0  0  0  0  0  0  0  0  0
    2.8350    2.8690   -0.0720 O   0  0  0  0  0  0  0  0  0  0  0  0
  1  2  2  0
  2  3  1  0
  2 14  1  0
  3  4  1  0
  4  5  2  0
  5  6  1  0
  5 13  1  0
  6  7  1  0
  7  8  1  0
  8  9  2  0
  8 12  1  0
  9 10  1  0
 10 11  1  0
 11 12  1  0
 13 14  1  0
 14 15  2  0
M  END
