
     RDKit          3D

 22 24  0  0  0  0  0  0  0  0999 V2000
    5.2060    0.3570   -1.8040 C   0  0  0  0  0  0  0  0  0  0  0  0
    5.4800   -0.1130   -0.6230 C   0  0  0  0  0  0  0  0  0  0  0  0
    4.5770   -0.7470    0.3100 C   0  0  0  0  0  0  0  0  0  0  0  0
    4.9460   -1.7880    1.1650 C   0  0  0  0  0  0  0  0  0  0  0  0
    3.8710   -2.1120    1.8950 N   0  0  0  0  0  0  0  0  0  0  0  0
    2.8370   -1.3280    1.5450 N   0  0  0  0  0  0  0  0  0  0  0  0
    3.2630   -0.4760    0.5640 C   0  0  0  0  0  0  0  0  0  0  0  0
    2.4760    0.5350   -0.0280 N   0  0  0  0  0  0  0  0  0  0  0  0
    1.0840    0.7190    0.2970 C   0  0  0  0  0  0  0  0  0  0  0  0
    0.4680   -0.0100    1.1030 O   0  0  0  0  0  0  0  0  0  0  0  0
    0.3110    1.8330   -0.3500 C   0  0  0  0  0  0  0  0  0  0  0  0
   -1.0200    1.7770    0.0500 O   0  0  0  0  0  0  0  0  0  0  0  0
   -1.8920    0.7460   -0.1900 C   0  0  0  0  0  0  0  0  0  0  0  0
   -1.5900   -0.4030   -0.8840 C   0  0  0  0  0  0  0  0  0  0  0  0
   -2.5050   -1.4280   -1.1070 C   0  0  0  0  0  0  0  0  0  0  0  0
   -3.7890   -1.2930   -0.6100 C   0  0  0  0  0  0  0  0  0  0  0  0
   -4.9270   -2.0710   -0.6330 C   0  0  0  0  0  0  0  0  0  0  0  0
   -5.8780   -1.4430    0.0080 O   0  0  0  0  0  0  0  0  0  0  0  0
   -5.4550   -0.2900    0.4610 C   0  0  0  0  0  0  0  0  0  0  0  0
   -4.1200   -0.1590    0.0850 C   0  0  0  0  0  0  0  0  0  0  0  0
   -3.2030    0.8390    0.2940 C   0  0  0  0  0  0  0  0  0  0  0  0
   -3.6190    2.0450    1.0540 C   0  0  0  0  0  0  0  0  0  0  0  0
  1  2  2  0
  2  3  1  0
  3  4  1  0
  3  7  2  0
  4  5  2  0
  5  6  1  0
  6  7  1  0
  7  8  1  0
  8  9  1  0
  9 10  2  0
  9 11  1  0
 11 12  1  0
 12 13  1  0
 13 14  1  0
 13 21  2  0
 14 15  2  0
 15 16  1  0
 16 17  2  0
 16 20  1  0
 17 18  1  0
 18 19  1  0
 19 20  2  0
 20 21  1  0
 21 22  1  0
M  END
