
     RDKit          3D

 22 24  0  0  0  0  0  0  0  0999 V2000
    6.4410    1.1820    2.3030 C   0  0  0  0  0  0  0  0  0  0  0  0
    5.0380    1.1660    2.2310 O   0  0  0  0  0  0  0  0  0  0  0  0
    4.3500    0.5290    1.2210 C   0  0  0  0  0  0  0  0  0  0  0  0
    5.0140   -0.0720    0.3150 O   0  0  0  0  0  0  0  0  0  0  0  0
    2.8670    0.5160    1.1420 C   0  0  0  0  0  0  0  0  0  0  0  0
    2.4330   -0.1020   -0.0450 O   0  0  0  0  0  0  0  0  0  0  0  0
    1.0690   -0.1970   -0.2640 C   0  0  0  0  0  0  0  0  0  0  0  0
    0.1780    0.3020    0.6800 C   0  0  0  0  0  0  0  0  0  0  0  0
   -1.1850    0.2160    0.4760 C   0  0  0  0  0  0  0  0  0  0  0  0
   -1.7020   -0.3690   -0.6700 C   0  0  0  0  0  0  0  0  0  0  0  0
   -3.0650   -0.4850   -0.8850 C   0  0  0  0  0  0  0  0  0  0  0  0
   -3.5480   -1.0850   -2.0280 C   0  0  0  0  0  0  0  0  0  0  0  0
   -2.7110   -1.5940   -3.0030 C   0  0  0  0  0  0  0  0  0  0  0  0
   -3.1970   -2.2180   -4.1930 C   0  0  0  0  0  0  0  0  0  0  0  0
   -3.6170   -2.7240   -5.1870 N   0  0  0  0  0  0  0  0  0  0  0  0
   -1.3420   -1.4650   -2.7590 C   0  0  0  0  0  0  0  0  0  0  0  0
   -0.8350   -0.8660   -1.6160 C   0  0  0  0  0  0  0  0  0  0  0  0
    0.5270   -0.7710   -1.3970 C   0  0  0  0  0  0  0  0  0  0  0  0
   -4.0700   -0.0000    0.1220 C   0  0  0  0  0  0  0  0  0  0  0  0
   -3.4410    0.8420    1.1390 C   0  0  0  0  0  0  0  0  0  0  0  0
   -4.1480    1.6880    1.8140 N   0  0  0  0  0  0  0  0  0  0  0  0
   -2.0420    0.8470    1.4390 N   0  0  0  0  0  0  0  0  0  0  0  0
  1  2  1  0
  2  3  1  0
  3  4  2  0
  3  5  1  0
  5  6  1  0
  6  7  1  0
  7  8  2  0
  7 18  1  0
  8  9  1  0
  9 10  2  0
  9 22  1  0
 10 11  1  0
 10 17  1  0
 11 12  2  0
 11 19  1  0
 12 13  1  0
 13 14  1  0
 13 16  2  0
 14 15  3  0
 16 17  1  0
 17 18  2  0
 19 20  1  0
 20 21  2  0
 20 22  1  0
M  END
