
     RDKit          3D

 22 24  0  0  0  0  0  0  0  0999 V2000
   -6.1680    1.5120    1.9500 C   0  0  0  0  0  0  0  0  0  0  0  0
   -5.4680    0.4950    1.1540 C   0  0  0  0  0  0  0  0  0  0  0  0
   -4.0910    0.4870    0.9010 C   0  0  0  0  0  0  0  0  0  0  0  0
   -3.8750   -0.6250    0.1300 C   0  0  0  0  0  0  0  0  0  0  0  0
   -2.5670   -1.0720   -0.4000 C   0  0  0  0  0  0  0  0  0  0  0  0
   -2.5380   -2.1140   -1.0910 O   0  0  0  0  0  0  0  0  0  0  0  0
   -1.3960   -0.3480   -0.1340 N   0  0  0  0  0  0  0  0  0  0  0  0
   -0.1000   -0.6900   -0.5930 C   0  0  0  0  0  0  0  0  0  0  0  0
    0.2450   -1.7630   -1.3620 C   0  0  0  0  0  0  0  0  0  0  0  0
    1.5520   -2.0410   -1.7800 C   0  0  0  0  0  0  0  0  0  0  0  0
    2.5600   -1.1870   -1.3990 C   0  0  0  0  0  0  0  0  0  0  0  0
    3.8780   -1.4070   -1.7810 C   0  0  0  0  0  0  0  0  0  0  0  0
    4.8330   -0.5150   -1.3650 C   0  0  0  0  0  0  0  0  0  0  0  0
    4.5200    0.6030   -0.5730 C   0  0  0  0  0  0  0  0  0  0  0  0
    5.5930    1.4570   -0.2090 N   0  0  0  0  0  0  0  0  0  0  0  0
    5.5290    2.5720    0.6460 C   0  0  0  0  0  0  0  0  0  0  0  0
    4.4630    2.9020    1.1740 O   0  0  0  0  0  0  0  0  0  0  0  0
    3.2160    0.7800   -0.2210 C   0  0  0  0  0  0  0  0  0  0  0  0
    2.2030   -0.1110   -0.6260 C   0  0  0  0  0  0  0  0  0  0  0  0
    0.9430    0.1290   -0.2410 N   0  0  0  0  0  0  0  0  0  0  0  0
   -5.0770   -1.2410   -0.0590 C   0  0  0  0  0  0  0  0  0  0  0  0
   -6.0310   -0.5510    0.5670 O   0  0  0  0  0  0  0  0  0  0  0  0
  1  2  1  0
  2  3  2  0
  2 22  1  0
  3  4  1  0
  4  5  1  0
  4 21  2  0
  5  6  2  0
  5  7  1  0
  7  8  1  0
  8  9  2  0
  8 20  1  0
  9 10  1  0
 10 11  2  0
 11 12  1  0
 11 19  1  0
 12 13  2  0
 13 14  1  0
 14 15  1  0
 14 18  2  0
 15 16  1  0
 16 17  2  0
 18 19  1  0
 19 20  2  0
 21 22  1  0
M  END
