
     RDKit          3D

 22 24  0  0  0  0  0  0  0  0999 V2000
   -2.0780    0.7010    0.1280 O   0  0  0  0  0  0  0  0  0  0  0  0
   -2.6120   -0.4010   -0.0540 C   0  0  0  0  0  0  0  0  0  0  0  0
   -4.0290   -0.3890   -0.2870 N   0  0  0  0  0  0  0  0  0  0  0  0
   -4.7970    0.8130   -0.3110 C   0  0  0  0  0  0  0  0  0  0  0  0
   -5.5190    1.2860   -1.3200 C   0  0  0  0  0  0  0  0  0  0  0  0
   -6.1460    2.5440   -0.9230 C   0  0  0  0  0  0  0  0  0  0  0  0
   -5.7080    2.7740    0.4670 C   0  0  0  0  0  0  0  0  0  0  0  0
   -4.9430    1.7690    0.7790 C   0  0  0  0  0  0  0  0  0  0  0  0
   -1.8600   -1.5890   -0.0320 N   0  0  0  0  0  0  0  0  0  0  0  0
   -0.4670   -1.7140    0.1880 C   0  0  0  0  0  0  0  0  0  0  0  0
    0.3620   -0.6650    0.4360 C   0  0  0  0  0  0  0  0  0  0  0  0
    1.7350   -0.8220    0.6480 C   0  0  0  0  0  0  0  0  0  0  0  0
    2.3160   -2.0660    0.6120 C   0  0  0  0  0  0  0  0  0  0  0  0
    3.6830   -2.2810    0.8150 O   0  0  0  0  0  0  0  0  0  0  0  0
    4.6360   -1.3070    1.0630 C   0  0  0  0  0  0  0  0  0  0  0  0
    4.7800   -0.3110   -0.0520 C   0  0  0  0  0  0  0  0  0  0  0  0
    4.1760   -0.3830   -1.1810 N   0  0  0  0  0  0  0  0  0  0  0  0
    4.4900    0.6550   -2.0060 O   0  0  0  0  0  0  0  0  0  0  0  0
    4.9990    1.7120   -1.1800 C   0  0  0  0  0  0  0  0  0  0  0  0
    5.6330    0.9050   -0.0670 C   0  0  0  0  0  0  0  0  0  0  0  0
    1.4730   -3.1420    0.3590 C   0  0  0  0  0  0  0  0  0  0  0  0
    0.1320   -2.9720    0.1540 C   0  0  0  0  0  0  0  0  0  0  0  0
  1  2  2  0
  2  3  1  0
  2  9  1  0
  3  4  1  0
  4  5  2  0
  4  8  1  0
  5  6  1  0
  6  7  1  0
  7  8  2  0
  9 10  1  0
 10 11  2  0
 10 22  1  0
 11 12  1  0
 12 13  2  0
 13 14  1  0
 13 21  1  0
 14 15  1  0
 15 16  1  0
 16 17  2  0
 16 20  1  0
 17 18  1  0
 18 19  1  0
 19 20  1  0
 21 22  2  0
M  END
