
     RDKit          3D

 12 12  0  0  0  0  0  0  0  0999 V2000
    2.8180    1.5830    0.6500 C   0  0  0  0  0  0  0  0  0  0  0  0
    1.9930    0.3450    0.3170 C   0  0  0  0  0  0  0  0  0  0  0  0
    2.5670   -0.7490    0.1850 O   0  0  0  0  0  0  0  0  0  0  0  0
    0.6120    0.4680    0.1690 N   0  0  0  0  0  0  0  0  0  0  0  0
   -0.2810   -0.6460   -0.1490 C   0  0  0  0  0  0  0  0  0  0  0  0
    0.0790   -1.9090   -0.3390 C   0  0  0  0  0  0  0  0  0  0  0  0
   -0.8470   -2.8610   -0.6310 C   0  0  0  0  0  0  0  0  0  0  0  0
   -2.4290   -1.9830   -0.6640 S   0  0  0  0  0  0  0  0  0  0  0  0
   -1.6490   -0.3620   -0.2650 C   0  0  0  0  0  0  0  0  0  0  0  0
   -2.4180    0.8370   -0.1370 C   0  0  0  0  0  0  0  0  0  0  0  0
   -1.9060    1.9330    0.1300 O   0  0  0  0  0  0  0  0  0  0  0  0
   -3.8040    0.8610   -0.3050 O   0  0  0  0  0  0  0  0  0  0  0  0
  1  2  1  0
  2  3  2  0
  2  4  1  0
  4  5  1  0
  5  6  1  0
  5  9  2  0
  6  7  2  0
  7  8  1  0
  8  9  1  0
  9 10  1  0
 10 11  2  0
 10 12  1  0
M  END
