
     RDKit          3D

 22 24  0  0  0  0  0  0  0  0999 V2000
    5.5240    0.8410    0.8840 C   0  0  0  0  0  0  0  0  0  0  0  0
    5.3140   -0.0270   -0.0690 C   0  0  0  0  0  0  0  0  0  0  0  0
    6.4940   -0.3960   -0.9320 C   0  0  0  0  0  0  0  0  0  0  0  0
    4.0070   -0.6280   -0.3120 C   0  0  0  0  0  0  0  0  0  0  0  0
    2.8770   -0.3930    0.3750 N   0  0  0  0  0  0  0  0  0  0  0  0
    1.8640   -1.1270   -0.1310 C   0  0  0  0  0  0  0  0  0  0  0  0
    0.4660   -1.2110    0.2750 C   0  0  0  0  0  0  0  0  0  0  0  0
   -0.3030   -1.9690   -0.3440 O   0  0  0  0  0  0  0  0  0  0  0  0
   -0.0580   -0.4540    1.3600 N   0  0  0  0  0  0  0  0  0  0  0  0
   -1.4080   -0.4870    1.7990 C   0  0  0  0  0  0  0  0  0  0  0  0
   -2.4290   -0.0150    0.8710 C   0  0  0  0  0  0  0  0  0  0  0  0
   -2.1350    0.4910   -0.3720 C   0  0  0  0  0  0  0  0  0  0  0  0
   -3.1300    0.9440   -1.2190 C   0  0  0  0  0  0  0  0  0  0  0  0
   -4.4580    0.9060   -0.8490 C   0  0  0  0  0  0  0  0  0  0  0  0
   -4.7350    0.3950    0.4020 C   0  0  0  0  0  0  0  0  0  0  0  0
   -3.7540   -0.0590    1.2560 C   0  0  0  0  0  0  0  0  0  0  0  0
   -4.1520   -0.6010    2.6060 C   0  0  0  0  0  0  0  0  0  0  0  0
   -5.2410    1.4190   -1.8820 O   0  0  0  0  0  0  0  0  0  0  0  0
   -4.3550    1.9980   -2.8300 C   0  0  0  0  0  0  0  0  0  0  0  0
   -3.0710    1.4870   -2.5000 O   0  0  0  0  0  0  0  0  0  0  0  0
    2.4270   -1.8310   -1.1690 C   0  0  0  0  0  0  0  0  0  0  0  0
    3.7530   -1.5210   -1.2800 N   0  0  0  0  0  0  0  0  0  0  0  0
  1  2  2  0
  2  3  1  0
  2  4  1  0
  4  5  2  0
  4 22  1  0
  5  6  1  0
  6  7  1  0
  6 21  2  0
  7  8  2  0
  7  9  1  0
  9 10  1  0
 10 11  1  0
 11 12  2  0
 11 16  1  0
 12 13  1  0
 13 14  2  0
 13 20  1  0
 14 15  1  0
 14 18  1  0
 15 16  2  0
 16 17  1  0
 18 19  1  0
 19 20  1  0
 21 22  1  0
M  END
