
     RDKit          3D

 22 24  0  0  0  0  0  0  0  0999 V2000
   -1.7380    2.4310    1.2810 C   0  0  0  0  0  0  0  0  0  0  0  0
   -2.2550    1.8090    0.0310 C   0  0  0  0  0  0  0  0  0  0  0  0
   -2.0480    0.3660   -0.0580 C   0  0  0  0  0  0  0  0  0  0  0  0
   -0.7620   -0.1100   -0.3570 C   0  0  0  0  0  0  0  0  0  0  0  0
    0.2790    0.8040   -0.5530 N   0  0  0  0  0  0  0  0  0  0  0  0
    1.6020    0.5210   -0.8720 C   0  0  0  0  0  0  0  0  0  0  0  0
    2.0050   -0.6360   -1.0240 O   0  0  0  0  0  0  0  0  0  0  0  0
    2.5750    1.5810   -1.0430 N   0  0  0  0  0  0  0  0  0  0  0  0
    3.9410    1.3240   -1.3630 C   0  0  0  0  0  0  0  0  0  0  0  0
    4.6570    0.5290   -0.3160 C   0  0  0  0  0  0  0  0  0  0  0  0
    4.1800    0.0920    0.8340 C   0  0  0  0  0  0  0  0  0  0  0  0
    5.2270   -0.6510    1.5590 C   0  0  0  0  0  0  0  0  0  0  0  0
    6.3710   -0.5660    0.6380 C   0  0  0  0  0  0  0  0  0  0  0  0
    6.0020    0.1010   -0.3930 N   0  0  0  0  0  0  0  0  0  0  0  0
   -0.5690   -1.4670   -0.4420 C   0  0  0  0  0  0  0  0  0  0  0  0
   -1.6000   -2.3810   -0.2430 C   0  0  0  0  0  0  0  0  0  0  0  0
   -2.8430   -1.9000    0.0460 C   0  0  0  0  0  0  0  0  0  0  0  0
   -3.0470   -0.5400    0.1340 C   0  0  0  0  0  0  0  0  0  0  0  0
   -4.3610   -0.1510    0.4360 O   0  0  0  0  0  0  0  0  0  0  0  0
   -5.4430   -0.8600   -0.1520 C   0  0  0  0  0  0  0  0  0  0  0  0
   -5.2380   -2.3500   -0.0780 C   0  0  0  0  0  0  0  0  0  0  0  0
   -3.9410   -2.7290    0.2630 O   0  0  0  0  0  0  0  0  0  0  0  0
  1  2  1  0
  2  3  1  0
  3  4  2  0
  3 18  1  0
  4  5  1  0
  4 15  1  0
  5  6  1  0
  6  7  2  0
  6  8  1  0
  8  9  1  0
  9 10  1  0
 10 11  2  0
 10 14  1  0
 11 12  1  0
 12 13  1  0
 13 14  2  0
 15 16  2  0
 16 17  1  0
 17 18  2  0
 17 22  1  0
 18 19  1  0
 19 20  1  0
 20 21  1  0
 21 22  1  0
M  END
