
     RDKit          3D

 16 17  0  0  0  0  0  0  0  0999 V2000
    4.5500   -0.4410   -1.1970 O   0  0  0  0  0  0  0  0  0  0  0  0
    3.5040    0.0150   -0.7160 C   0  0  0  0  0  0  0  0  0  0  0  0
    3.3590    1.3860   -0.5930 O   0  0  0  0  0  0  0  0  0  0  0  0
    2.4130   -0.8900   -0.2750 C   0  0  1  0  0  0  0  0  0  0  0  0
    2.1370   -0.7480    1.1880 C   0  0  0  0  0  0  0  0  0  0  0  0
    0.6750   -1.0250    1.2590 C   0  0  0  0  0  0  0  0  0  0  0  0
    0.0010   -1.5760    2.1600 O   0  0  0  0  0  0  0  0  0  0  0  0
    0.1140   -0.5280    0.0480 N   0  0  0  0  0  0  0  0  0  0  0  0
   -1.2560   -0.1630   -0.1110 C   0  0  0  0  0  0  0  0  0  0  0  0
   -2.2510   -1.1380   -0.0750 C   0  0  0  0  0  0  0  0  0  0  0  0
   -3.5820   -0.7990   -0.2250 C   0  0  0  0  0  0  0  0  0  0  0  0
   -3.9260    0.5030   -0.4100 C   0  0  0  0  0  0  0  0  0  0  0  0
   -2.9570    1.4980   -0.4500 C   0  0  0  0  0  0  0  0  0  0  0  0
   -1.6460    1.1410   -0.3000 C   0  0  0  0  0  0  0  0  0  0  0  0
   -0.6770    2.1190   -0.3400 O   0  0  0  0  0  0  0  0  0  0  0  0
    1.1390   -0.4480   -0.9710 C   0  0  0  0  0  0  0  0  0  0  0  0
  1  2  2  0
  2  3  1  0
  4  2  1  6
  4  5  1  0
  4 16  1  0
  5  6  1  0
  6  7  2  0
  6  8  1  0
  8  9  1  0
  8 16  1  0
  9 10  2  0
  9 14  1  0
 10 11  1  0
 11 12  2  0
 12 13  1  0
 13 14  2  0
 14 15  1  0
M  END
