
     RDKit          3D

 24 25  0  0  0  0  0  0  0  0999 V2000
   -3.7240   -2.9240    0.2560 C   0  0  0  0  0  0  0  0  0  0  0  0
   -2.3020   -2.8540   -0.2580 C   0  0  1  0  0  0  0  0  0  0  0  0
   -2.2300   -3.1780   -1.7350 C   0  0  0  0  0  0  0  0  0  0  0  0
   -1.8070   -1.4790   -0.0480 C   0  0  0  0  0  0  0  0  0  0  0  0
   -0.6980   -1.2730    0.7790 C   0  0  0  0  0  0  0  0  0  0  0  0
   -0.2200   -0.0040    0.9890 C   0  0  0  0  0  0  0  0  0  0  0  0
    0.8520    0.2150    1.7860 O   0  0  0  0  0  0  0  0  0  0  0  0
    2.1760    0.2330    1.3610 C   0  0  0  0  0  0  0  0  0  0  0  0
    3.2190    0.4620    2.2290 C   0  0  0  0  0  0  0  0  0  0  0  0
    4.5260    0.4790    1.8070 C   0  0  0  0  0  0  0  0  0  0  0  0
    4.8860    0.2650    0.4620 C   0  0  0  0  0  0  0  0  0  0  0  0
    6.2580    0.3180    0.1190 N   0  0  0  0  0  0  0  0  0  0  0  0
    6.7390   -0.1220   -1.1140 C   0  0  0  0  0  0  0  0  0  0  0  0
    6.0420   -0.5940   -2.0080 O   0  0  0  0  0  0  0  0  0  0  0  0
    3.8400    0.0390   -0.3880 C   0  0  0  0  0  0  0  0  0  0  0  0
    2.5030    0.0210    0.0430 C   0  0  0  0  0  0  0  0  0  0  0  0
   -0.8560    1.0470    0.3710 C   0  0  0  0  0  0  0  0  0  0  0  0
   -1.9410    0.8990   -0.4440 C   0  0  0  0  0  0  0  0  0  0  0  0
   -2.6130    2.0470   -1.0970 C   0  0  2  0  0  0  0  0  0  0  0  0
   -1.6750    2.9510   -1.6030 O   0  0  0  0  0  0  0  0  0  0  0  0
   -3.4660    2.7490   -0.0670 C   0  0  0  0  0  0  0  0  0  0  0  0
   -2.5150    3.3640    1.3090 S   0  0  0  0  0  0  0  0  0  0  0  0
   -3.4170    3.4350    2.5350 O   0  0  0  0  0  0  0  0  0  0  0  0
   -2.4190   -0.3770   -0.6540 C   0  0  0  0  0  0  0  0  0  0  0  0
  2  1  1  6
  2  3  1  0
  2  4  1  0
  4  5  2  0
  4 24  1  0
  5  6  1  0
  6  7  1  0
  6 17  2  0
  7  8  1  0
  8  9  2  0
  8 16  1  0
  9 10  1  0
 10 11  2  0
 11 12  1  0
 11 15  1  0
 12 13  1  0
 13 14  2  0
 15 16  2  0
 17 18  1  0
 18 19  1  0
 18 24  2  0
 19 20  1  1
 19 21  1  0
 21 22  1  0
 22 23  2  0
M  END
