
     RDKit          3D

 28 28  0  0  0  0  0  0  0  0999 V2000
   -2.5800    0.9770    2.7440 C   0  0  0  0  0  0  0  0  0  0  0  0
   -3.2270    1.6860    1.7540 O   0  0  0  0  0  0  0  0  0  0  0  0
   -2.7200    1.4220    0.5130 C   0  0  2  0  0  0  0  0  0  0  0  0
   -1.3450    1.7290    0.4300 O   0  0  0  0  0  0  0  0  0  0  0  0
   -3.4640    2.3730   -0.4610 C   0  0  0  0  0  0  0  0  0  0  0  0
   -3.0010    1.6910   -1.7610 C   0  0  2  0  0  0  0  0  0  0  0  0
   -3.5740    2.2580   -2.8710 O   0  0  0  0  0  0  0  0  0  0  0  0
   -3.4340    0.2790   -1.4930 C   0  0  2  0  0  0  0  0  0  0  0  0
   -2.7850   -0.6420   -2.3100 O   0  0  0  0  0  0  0  0  0  0  0  0
   -4.8230    0.1900   -1.6280 O   0  0  0  0  0  0  0  0  0  0  0  0
   -3.0230    0.0620   -0.0420 C   0  0  2  0  0  0  0  0  0  0  0  0
   -4.1770   -0.6230    0.6650 C   0  0  0  0  0  0  0  0  0  0  0  0
   -1.8090   -0.8090   -0.0520 C   0  0  0  0  0  0  0  0  0  0  0  0
   -1.8440   -1.8860    0.5970 O   0  0  0  0  0  0  0  0  0  0  0  0
   -0.6650   -0.4790   -0.7410 O   0  0  0  0  0  0  0  0  0  0  0  0
    0.4930   -1.3140   -0.7500 C   0  0  1  0  0  0  0  0  0  0  0  0
    0.7580   -1.7130   -2.1890 C   0  0  0  0  0  0  0  0  0  0  0  0
    1.6580   -0.5010   -0.3110 C   0  0  0  0  0  0  0  0  0  0  0  0
    1.5510    0.7150   -0.0030 O   0  0  0  0  0  0  0  0  0  0  0  0
    2.8790   -1.1100   -0.2460 O   0  0  0  0  0  0  0  0  0  0  0  0
    4.0680   -0.4110    0.1660 C   0  0  2  0  0  0  0  0  0  0  0  0
    5.0160   -0.4780   -0.9550 C   0  0  0  0  0  0  0  0  0  0  0  0
    6.1380    0.0700   -0.8880 O   0  0  0  0  0  0  0  0  0  0  0  0
    4.6820   -1.1530   -2.1110 O   0  0  0  0  0  0  0  0  0  0  0  0
    4.5760   -1.0780    1.4320 C   0  0  2  0  0  0  0  0  0  0  0  0
    3.5640   -1.0000    2.4230 O   0  0  0  0  0  0  0  0  0  0  0  0
    5.7510   -0.3140    1.9880 C   0  0  0  0  0  0  0  0  0  0  0  0
    6.1460   -0.9160    3.2040 O   0  0  0  0  0  0  0  0  0  0  0  0
  1  2  1  0
  2  3  1  0
  3  4  1  1
  3  5  1  0
  3 11  1  0
  5  6  1  0
  6  7  1  6
  6  8  1  0
  8  9  1  6
  8 10  1  0
  8 11  1  0
 11 12  1  1
 11 13  1  0
 13 14  2  0
 13 15  1  0
 15 16  1  0
 16 17  1  6
 16 18  1  0
 18 19  2  0
 18 20  1  0
 21 20  1  6
 21 22  1  0
 21 25  1  0
 22 23  2  0
 22 24  1  0
 25 26  1  1
 25 27  1  0
 27 28  1  0
M  END
