
     RDKit          3D

 28 28  0  0  0  0  0  0  0  0999 V2000
    2.5980   -1.7030    0.3900 C   0  0  0  0  0  0  0  0  0  0  0  0
    1.5920   -1.2750   -0.6350 C   0  0  1  0  0  0  0  0  0  0  0  0
    2.2630   -1.0350   -1.8400 O   0  0  0  0  0  0  0  0  0  0  0  0
    0.6230   -2.3900   -0.8530 C   0  0  0  0  0  0  0  0  0  0  0  0
    0.2640   -3.0440    0.3250 O   0  0  0  0  0  0  0  0  0  0  0  0
   -0.7090   -3.9950    0.1300 C   0  0  0  0  0  0  0  0  0  0  0  0
   -2.0520   -3.6380    0.7350 C   0  0  0  0  0  0  0  0  0  0  0  0
   -2.8860   -3.0880   -0.2640 O   0  0  0  0  0  0  0  0  0  0  0  0
   -2.9840   -1.7450   -0.5690 C   0  0  0  0  0  0  0  0  0  0  0  0
   -3.4380   -1.3470   -1.6680 O   0  0  0  0  0  0  0  0  0  0  0  0
   -2.5330   -0.7630    0.4510 C   0  0  0  0  0  0  0  0  0  0  0  0
   -2.4610    0.6420   -0.0690 C   0  0  1  0  0  0  0  0  0  0  0  0
   -3.6400    0.8540   -0.8250 O   0  0  0  0  0  0  0  0  0  0  0  0
   -2.5680    1.5740    1.1080 C   0  0  2  0  0  0  0  0  0  0  0  0
   -1.5070    1.5170    1.9790 O   0  0  0  0  0  0  0  0  0  0  0  0
   -3.7130    1.1930    1.8180 O   0  0  0  0  0  0  0  0  0  0  0  0
   -2.7890    3.0080    0.6760 C   0  0  0  0  0  0  0  0  0  0  0  0
   -3.8490    3.1080   -0.2010 O   0  0  0  0  0  0  0  0  0  0  0  0
   -1.3030    0.9140   -0.9460 C   0  0  0  0  0  0  0  0  0  0  0  0
   -1.4780    1.9400   -1.7000 O   0  0  0  0  0  0  0  0  0  0  0  0
   -0.1410    0.2360   -1.0350 O   0  0  0  0  0  0  0  0  0  0  0  0
    0.8860   -0.0080   -0.1370 C   0  0  2  0  0  0  0  0  0  0  0  0
    1.8620    1.1450   -0.0180 C   0  0  2  0  0  0  0  0  0  0  0  0
    1.0600    2.2390    0.4180 O   0  0  0  0  0  0  0  0  0  0  0  0
    2.5090    1.4880   -1.1590 O   0  0  0  0  0  0  0  0  0  0  0  0
    3.8660    1.5120   -1.1680 C   0  0  0  0  0  0  0  0  0  0  0  0
    4.5450    2.4690   -0.2560 C   0  0  0  0  0  0  0  0  0  0  0  0
    4.3130    2.3340    1.0810 O   0  0  0  0  0  0  0  0  0  0  0  0
  2  1  1  1
  2  3  1  0
  2  4  1  0
  2 22  1  0
  4  5  1  0
  5  6  1  0
  6  7  1  0
  7  8  1  0
  8  9  1  0
  9 10  2  0
  9 11  1  0
 11 12  1  0
 12 13  1  6
 12 14  1  0
 12 19  1  0
 14 15  1  1
 14 16  1  0
 14 17  1  0
 17 18  1  0
 19 20  2  0
 19 21  1  0
 22 21  1  6
 22 23  1  0
 23 24  1  6
 23 25  1  0
 25 26  1  0
 26 27  1  0
 27 28  1  0
M  END
