
     RDKit          3D

 37 40  0  0  0  0  0  0  0  0999 V2000
    2.6580   -1.4560    3.5660 C   0  0  0  0  0  0  0  0  0  0  0  0
    3.7420   -0.7040    3.7070 C   0  0  0  0  0  0  0  0  0  0  0  0
    4.5850   -0.8600    4.7300 F   0  0  0  0  0  0  0  0  0  0  0  0
    4.0110    0.3440    2.6910 C   0  0  0  0  0  0  0  0  0  0  0  0
    5.1270    1.0820    2.8770 C   0  0  0  0  0  0  0  0  0  0  0  0
    3.1800    0.5690    1.6600 N   0  0  0  0  0  0  0  0  0  0  0  0
    2.7750    0.1610    0.5520 C   0  0  0  0  0  0  0  0  0  0  0  0
    1.7950    0.9380   -0.0580 N   0  0  0  0  0  0  0  0  0  0  0  0
    1.2390    0.6440   -1.2230 C   0  0  0  0  0  0  0  0  0  0  0  0
    0.2360    1.4620   -1.9190 C   0  0  0  0  0  0  0  0  0  0  0  0
   -0.9520    1.8530   -1.2120 N   0  0  0  0  0  0  0  0  0  0  0  0
   -0.8220    2.6830   -0.0380 C   0  0  0  0  0  0  0  0  0  0  0  0
   -2.0870    3.5040    0.1320 C   0  0  0  0  0  0  0  0  0  0  0  0
   -3.2650    2.6950    0.5370 C   0  0  1  0  0  0  0  0  0  0  0  0
   -3.9670    3.3930    1.5920 N   0  0  1  0  0  0  0  0  0  0  0  0
   -5.3930    3.3140    1.4580 C   0  0  0  0  0  0  0  0  0  0  0  0
   -3.5610    2.8380    2.8800 C   0  0  0  0  0  0  0  0  0  0  0  0
   -4.1920    2.3550   -0.5820 C   0  0  0  0  0  0  0  0  0  0  0  0
   -3.4910    2.2250   -1.9000 C   0  0  0  0  0  0  0  0  0  0  0  0
   -2.1890    1.4060   -1.7640 C   0  0  0  0  0  0  0  0  0  0  0  0
   -2.2670    0.2630   -2.1860 N   0  0  0  0  0  0  0  0  0  0  0  0
   -1.6210   -0.8640   -2.3680 N   0  0  0  0  0  0  0  0  0  0  0  0
   -1.7210   -2.0060   -1.4830 C   0  0  0  0  0  0  0  0  0  0  0  0
   -2.4290   -1.9540   -0.3020 C   0  0  0  0  0  0  0  0  0  0  0  0
   -2.5670   -3.0490    0.5190 C   0  0  0  0  0  0  0  0  0  0  0  0
   -1.9740   -4.2440    0.1450 C   0  0  0  0  0  0  0  0  0  0  0  0
   -2.0720   -5.3690    0.9030 F   0  0  0  0  0  0  0  0  0  0  0  0
   -1.2600   -4.3330   -1.0260 C   0  0  0  0  0  0  0  0  0  0  0  0
   -1.1530   -3.1930   -1.8190 C   0  0  0  0  0  0  0  0  0  0  0  0
    1.7240   -0.5360   -1.8060 C   0  0  0  0  0  0  0  0  0  0  0  0
    2.6960   -1.3210   -1.2210 C   0  0  0  0  0  0  0  0  0  0  0  0
    3.2320   -0.9600   -0.0140 N   0  0  0  0  0  0  0  0  0  0  0  0
    4.2830   -1.7870    0.5770 C   0  0  0  0  0  0  0  0  0  0  0  0
    5.1230   -2.3530   -0.5610 C   0  0  0  0  0  0  0  0  0  0  0  0
    4.2190   -3.2810   -1.3220 C   0  0  0  0  0  0  0  0  0  0  0  0
    3.1270   -2.5090   -1.8630 N   0  0  0  0  0  0  0  0  0  0  0  0
    2.5010   -3.0160   -3.0690 C   0  0  0  0  0  0  0  0  0  0  0  0
  1  2  2  0
  2  3  1  0
  2  4  1  0
  4  5  2  0
  4  6  1  0
  6  7  2  3
  7  8  1  0
  7 32  1  0
  8  9  2  0
  9 10  1  0
  9 30  1  0
 10 11  1  0
 11 12  1  0
 11 20  1  0
 12 13  1  0
 14 13  1  6
 14 15  1  0
 14 18  1  0
 15 16  1  6
 15 17  1  0
 18 19  1  0
 19 20  1  0
 20 21  2  3
 21 22  1  0
 22 23  1  0
 23 24  2  0
 23 29  1  0
 24 25  1  0
 25 26  2  0
 26 27  1  0
 26 28  1  0
 28 29  2  0
 30 31  2  0
 31 32  1  0
 31 36  1  0
 32 33  1  0
 33 34  1  0
 34 35  1  0
 35 36  1  0
 36 37  1  0
M  CHG  2   8   1  15   1
M  END
