
     RDKit          3D

 37 41  0  0  0  0  0  0  0  0999 V2000
    5.4600   -1.5340    1.3580 C   0  0  0  0  0  0  0  0  0  0  0  0
    6.3920   -1.1440    0.2660 C   0  0  2  0  0  0  0  0  0  0  0  0
    5.7820   -0.6920   -1.0090 C   0  0  0  0  0  0  0  0  0  0  0  0
    4.9310    0.4470   -0.9610 N   0  0  0  0  0  0  0  0  0  0  0  0
    3.5990    0.5190   -0.5060 C   0  0  0  0  0  0  0  0  0  0  0  0
    2.8160   -0.5800   -0.2650 C   0  0  0  0  0  0  0  0  0  0  0  0
    1.5360   -0.4690    0.1050 N   0  0  0  0  0  0  0  0  0  0  0  0
    0.5860   -1.3840    0.3920 N   0  0  0  0  0  0  0  0  0  0  0  0
   -0.5630   -0.7720    0.7180 C   0  0  0  0  0  0  0  0  0  0  0  0
   -1.8660   -1.4040    1.1050 C   0  0  0  0  0  0  0  0  0  0  0  0
   -2.8420   -0.3700    1.3360 N   0  0  0  0  0  0  0  0  0  0  0  0
   -3.0690    0.4440    0.1610 C   0  0  0  0  0  0  0  0  0  0  0  0
   -4.5450    0.7820    0.0410 C   0  0  0  0  0  0  0  0  0  0  0  0
   -5.2710   -0.4870   -0.2680 C   0  0  2  0  0  0  0  0  0  0  0  0
   -6.7160   -0.3710   -0.1180 N   0  0  2  0  0  0  0  0  0  0  0  0
   -7.2860   -1.5100   -0.8280 C   0  0  0  0  0  0  0  0  0  0  0  0
   -8.7120   -1.2120   -1.2210 C   0  0  0  0  0  0  0  0  0  0  0  0
   -9.3020   -0.2750   -0.1920 C   0  0  0  0  0  0  0  0  0  0  0  0
   -8.6270    1.0540   -0.3260 C   0  0  0  0  0  0  0  0  0  0  0  0
   -7.2080    0.8220   -0.7930 C   0  0  0  0  0  0  0  0  0  0  0  0
   -4.8060   -1.5750    0.6740 C   0  0  0  0  0  0  0  0  0  0  0  0
   -4.0570   -0.9710    1.8290 C   0  0  0  0  0  0  0  0  0  0  0  0
   -0.3140    0.5370    0.6300 N   0  0  0  0  0  0  0  0  0  0  0  0
    0.9750    0.7410    0.2540 C   0  0  0  0  0  0  0  0  0  0  0  0
    1.7080    1.8410    0.0280 N   0  0  0  0  0  0  0  0  0  0  0  0
    3.0090    1.7490   -0.3480 C   0  0  0  0  0  0  0  0  0  0  0  0
    3.6710    3.0360   -0.5540 C   0  0  0  0  0  0  0  0  0  0  0  0
    4.8680    3.3100    0.0180 C   0  0  0  0  0  0  0  0  0  0  0  0
    5.4710    4.5240   -0.2040 C   0  0  0  0  0  0  0  0  0  0  0  0
    6.6710    4.8130    0.3620 F   0  0  0  0  0  0  0  0  0  0  0  0
    4.8470    5.4640   -1.0170 C   0  0  0  0  0  0  0  0  0  0  0  0
    3.6290    5.2060   -1.6090 C   0  0  0  0  0  0  0  0  0  0  0  0
    3.0900    6.1750   -2.3850 F   0  0  0  0  0  0  0  0  0  0  0  0
    3.0460    3.9880   -1.3730 C   0  0  0  0  0  0  0  0  0  0  0  0
    7.2090   -2.3250   -0.0770 N   0  0  2  0  0  0  0  0  0  0  0  0
    7.5490   -3.0770    1.1030 C   0  0  0  0  0  0  0  0  0  0  0  0
    8.4070   -1.9450   -0.7630 C   0  0  0  0  0  0  0  0  0  0  0  0
  2  1  1  1
  2  3  1  0
  2 35  1  0
  3  4  1  0
  4  5  1  0
  5  6  2  0
  5 26  1  0
  6  7  1  0
  7  8  1  0
  7 24  1  0
  8  9  2  0
  9 10  1  0
  9 23  1  0
 10 11  1  0
 11 12  1  0
 11 22  1  0
 12 13  1  0
 14 13  1  1
 14 15  1  0
 14 21  1  0
 15 16  1  6
 15 20  1  0
 16 17  1  0
 17 18  1  0
 18 19  1  0
 19 20  1  0
 21 22  1  0
 23 24  2  0
 24 25  1  0
 25 26  2  0
 26 27  1  0
 27 28  2  0
 27 34  1  0
 28 29  1  0
 29 30  1  0
 29 31  2  0
 31 32  1  0
 32 33  1  0
 32 34  2  0
 35 36  1  1
 35 37  1  0
M  CHG  2  15   1  35   1
M  END
