
     RDKit          3D

 36 40  0  0  0  0  0  0  0  0999 V2000
   -8.9700    2.2070   -0.2660 C   0  0  0  0  0  0  0  0  0  0  0  0
   -8.2500    0.9990    0.1930 C   0  0  0  0  0  0  0  0  0  0  0  0
   -6.9920    0.8220   -0.1770 C   0  0  0  0  0  0  0  0  0  0  0  0
   -6.2780   -0.3660    0.2730 C   0  0  0  0  0  0  0  0  0  0  0  0
   -4.8820   -0.5530   -0.1430 C   0  0  0  0  0  0  0  0  0  0  0  0
   -3.9990    0.5270    0.2950 N   0  0  0  0  0  0  0  0  0  0  0  0
   -2.6340    0.3920   -0.0650 C   0  0  0  0  0  0  0  0  0  0  0  0
   -1.7490    1.3760    0.3130 C   0  0  0  0  0  0  0  0  0  0  0  0
   -0.4170    1.3200    0.0100 C   0  0  0  0  0  0  0  0  0  0  0  0
    0.4470    2.3010    0.3440 F   0  0  0  0  0  0  0  0  0  0  0  0
    0.0610    0.2160   -0.7140 C   0  0  0  0  0  0  0  0  0  0  0  0
    1.5170    0.1360   -0.9560 C   0  0  0  0  0  0  0  0  0  0  0  0
    2.0500   -0.3870   -2.1180 C   0  0  0  0  0  0  0  0  0  0  0  0
    3.4270   -0.3650   -2.3630 C   0  0  0  0  0  0  0  0  0  0  0  0
    4.3010    0.1780   -1.4600 C   0  0  0  0  0  0  0  0  0  0  0  0
    3.7540    0.6930   -0.3120 C   0  0  0  0  0  0  0  0  0  0  0  0
    4.6040    1.3050    0.7480 C   0  0  0  0  0  0  0  0  0  0  0  0
    5.9850    0.9260    0.6840 N   0  0  1  0  0  0  0  0  0  0  0  0
    6.8060    1.8660   -0.0410 C   0  0  0  0  0  0  0  0  0  0  0  0
    7.9490    2.3910    0.8030 C   0  0  0  0  0  0  0  0  0  0  0  0
    8.7940    1.2410    1.3040 C   0  0  0  0  0  0  0  0  0  0  0  0
    7.8960    0.3540    2.1250 C   0  0  0  0  0  0  0  0  0  0  0  0
    6.4540    0.8080    2.0760 C   0  0  0  0  0  0  0  0  0  0  0  0
    2.4100    0.6580   -0.0970 N   0  0  0  0  0  0  0  0  0  0  0  0
   -0.8210   -0.7530   -1.0830 C   0  0  0  0  0  0  0  0  0  0  0  0
   -0.4230   -1.9290   -1.7530 N   0  0  0  0  0  0  0  0  0  0  0  0
   -0.9180   -2.2690   -2.9810 C   0  0  0  0  0  0  0  0  0  0  0  0
   -0.3620   -3.4640   -3.3100 C   0  0  0  0  0  0  0  0  0  0  0  0
    0.4550   -3.8600   -2.3230 N   0  0  0  0  0  0  0  0  0  0  0  0
    0.4170   -2.9040   -1.3520 C   0  0  0  0  0  0  0  0  0  0  0  0
    1.1580   -2.9260   -0.0740 C   0  0  0  0  0  0  0  0  0  0  0  0
   -2.1330   -0.6320   -0.7480 N   0  0  0  0  0  0  0  0  0  0  0  0
   -6.8560   -1.2740    1.0430 C   0  0  0  0  0  0  0  0  0  0  0  0
   -8.2180   -1.1220    1.4680 N   0  0  0  0  0  0  0  0  0  0  0  0
   -8.8830   -2.0850    2.3020 C   0  0  0  0  0  0  0  0  0  0  0  0
   -8.8930    0.0200    1.0310 N   0  0  0  0  0  0  0  0  0  0  0  0
  1  2  1  0
  2  3  2  0
  2 36  1  0
  3  4  1  0
  4  5  1  0
  4 33  2  0
  5  6  1  0
  6  7  1  0
  7  8  2  0
  7 32  1  0
  8  9  1  0
  9 10  1  0
  9 11  2  0
 11 12  1  0
 11 25  1  0
 12 13  2  0
 12 24  1  0
 13 14  1  0
 14 15  2  0
 15 16  1  0
 16 17  1  0
 16 24  2  0
 18 17  1  1
 18 19  1  0
 18 23  1  0
 19 20  1  0
 20 21  1  0
 21 22  1  0
 22 23  1  0
 25 26  1  0
 25 32  2  0
 26 27  1  0
 26 30  1  0
 27 28  2  0
 28 29  1  0
 29 30  2  0
 30 31  1  0
 33 34  1  0
 34 35  1  0
 34 36  1  0
M  CHG  2  18   1  24   1
M  END
