
     RDKit          3D

 36 40  0  0  0  0  0  0  0  0999 V2000
    8.3530    2.2680   -0.4340 C   0  0  0  0  0  0  0  0  0  0  0  0
    6.9070    2.4650   -0.3940 N   0  0  2  0  0  0  0  0  0  0  0  0
    6.6540    3.5490    0.5370 C   0  0  0  0  0  0  0  0  0  0  0  0
    6.2290    1.2920    0.1040 C   0  0  0  0  0  0  0  0  0  0  0  0
    4.7880    1.2140   -0.3220 C   0  0  0  0  0  0  0  0  0  0  0  0
    4.2200   -0.0510    0.2690 C   0  0  0  0  0  0  0  0  0  0  0  0
    2.8240   -0.2600   -0.0620 N   0  0  0  0  0  0  0  0  0  0  0  0
    2.5810   -0.5350   -1.4220 C   0  0  0  0  0  0  0  0  0  0  0  0
    1.4040   -1.3880   -1.7440 C   0  0  0  0  0  0  0  0  0  0  0  0
    1.1820   -2.5000   -0.7450 C   0  0  2  0  0  0  0  0  0  0  0  0
    2.3940   -3.3750   -0.7380 C   0  0  0  0  0  0  0  0  0  0  0  0
   -0.0180   -3.3070   -1.1190 C   0  0  0  0  0  0  0  0  0  0  0  0
    0.9980   -1.8030    0.6010 C   0  0  2  0  0  0  0  0  0  0  0  0
   -0.1090   -0.8950    0.5780 N   0  0  0  0  0  0  0  0  0  0  0  0
   -0.8340   -1.0080    1.8490 C   0  0  0  0  0  0  0  0  0  0  0  0
   -2.0090   -0.1000    1.8740 C   0  0  0  0  0  0  0  0  0  0  0  0
   -2.0490    1.2140    2.3460 C   0  0  0  0  0  0  0  0  0  0  0  0
   -3.2900    1.7070    2.2020 N   0  0  0  0  0  0  0  0  0  0  0  0
   -4.0420    0.7160    1.6410 C   0  0  0  0  0  0  0  0  0  0  0  0
   -5.3010    0.4970    1.2310 N   0  0  0  0  0  0  0  0  0  0  0  0
   -6.4110    1.4520    1.2930 C   0  0  0  0  0  0  0  0  0  0  0  0
   -6.5130    2.2760    0.0920 C   0  0  0  0  0  0  0  0  0  0  0  0
   -7.2920    1.8540   -0.9600 C   0  0  0  0  0  0  0  0  0  0  0  0
   -7.4170    2.5810   -2.0930 N   0  0  0  0  0  0  0  0  0  0  0  0
   -6.7700    3.7440   -2.2060 C   0  0  0  0  0  0  0  0  0  0  0  0
   -5.9860    4.1790   -1.1590 C   0  0  0  0  0  0  0  0  0  0  0  0
   -5.3470    5.3670   -1.3150 F   0  0  0  0  0  0  0  0  0  0  0  0
   -5.8660    3.4440   -0.0250 N   0  0  0  0  0  0  0  0  0  0  0  0
   -5.3150   -0.7620    0.7650 C   0  0  0  0  0  0  0  0  0  0  0  0
   -6.2960   -1.5480    0.2200 C   0  0  0  0  0  0  0  0  0  0  0  0
   -6.0040   -2.8530   -0.1830 C   0  0  0  0  0  0  0  0  0  0  0  0
   -4.7320   -3.3760   -0.0420 C   0  0  0  0  0  0  0  0  0  0  0  0
   -3.7470   -2.5840    0.5070 C   0  0  0  0  0  0  0  0  0  0  0  0
   -4.0520   -1.2970    0.8990 C   0  0  0  0  0  0  0  0  0  0  0  0
   -3.2580   -0.3550    1.4530 N   0  0  0  0  0  0  0  0  0  0  0  0
    2.2620   -1.0990    0.9160 C   0  0  0  0  0  0  0  0  0  0  0  0
  2  1  1  1
  2  3  1  0
  2  4  1  0
  4  5  1  0
  5  6  1  0
  6  7  1  0
  7  8  1  0
  7 36  1  0
  8  9  1  0
  9 10  1  0
 10 11  1  1
 10 12  1  0
 10 13  1  0
 13 14  1  6
 13 36  1  0
 14 15  1  0
 15 16  1  0
 16 17  2  0
 16 35  1  0
 17 18  1  0
 18 19  2  0
 19 20  1  0
 19 35  1  0
 20 21  1  0
 20 29  1  0
 21 22  1  0
 22 23  2  0
 22 28  1  0
 23 24  1  0
 24 25  2  0
 25 26  1  0
 26 27  1  0
 26 28  2  0
 29 30  2  0
 29 34  1  0
 30 31  1  0
 31 32  2  0
 32 33  1  0
 33 34  2  0
 34 35  1  0
M  CHG  2   2   1  14   1
M  END
