
     RDKit          3D

 37 41  0  0  0  0  0  0  0  0999 V2000
    2.9660    2.8290   -0.6730 C   0  0  0  0  0  0  0  0  0  0  0  0
    3.2630    1.3600   -0.8070 C   0  0  1  0  0  0  0  0  0  0  0  0
    4.1530    0.9040    0.3090 C   0  0  0  0  0  0  0  0  0  0  0  0
    4.4780   -0.4770    0.2750 N   0  0  2  0  0  0  0  0  0  0  0  0
    5.2970   -0.8120    1.4150 C   0  0  0  0  0  0  0  0  0  0  0  0
    6.7090   -0.4140    1.3060 C   0  0  0  0  0  0  0  0  0  0  0  0
    7.2400   -0.1090   -0.0400 C   0  0  2  0  0  0  0  0  0  0  0  0
    7.8120    1.2920   -0.1440 C   0  0  0  0  0  0  0  0  0  0  0  0
    6.3430   -0.3080   -1.2130 C   0  0  0  0  0  0  0  0  0  0  0  0
    5.0720   -0.9990   -0.9190 C   0  0  0  0  0  0  0  0  0  0  0  0
    2.0940    0.6320   -0.9570 N   0  0  0  0  0  0  0  0  0  0  0  0
    0.9480    0.7690   -0.1390 C   0  0  0  0  0  0  0  0  0  0  0  0
    0.6800   -0.6640    0.2970 C   0  0  0  0  0  0  0  0  0  0  0  0
    1.3940   -1.3030    1.1950 N   0  0  0  0  0  0  0  0  0  0  0  0
    1.1050   -2.5720    1.6030 C   0  0  0  0  0  0  0  0  0  0  0  0
    0.0050   -3.1820    1.0220 C   0  0  0  0  0  0  0  0  0  0  0  0
   -0.7390   -2.5070    0.0800 N   0  0  0  0  0  0  0  0  0  0  0  0
   -0.3950   -1.2690   -0.2640 C   0  0  0  0  0  0  0  0  0  0  0  0
   -1.1940   -0.4680   -1.2010 N   0  0  0  0  0  0  0  0  0  0  0  0
   -2.2160    0.2090   -0.5610 C   0  0  0  0  0  0  0  0  0  0  0  0
   -3.4990   -0.1860   -1.3170 C   0  0  0  0  0  0  0  0  0  0  0  0
   -4.4980   -0.4410   -0.3470 N   0  0  0  0  0  0  0  0  0  0  0  0
   -4.6690   -1.8920    0.0620 C   0  0  0  0  0  0  0  0  0  0  0  0
   -4.4990   -1.6650    1.5540 C   0  0  0  0  0  0  0  0  0  0  0  0
   -5.4300   -0.5270    1.7960 C   0  0  0  0  0  0  0  0  0  0  0  0
   -5.2710    0.3270    0.4930 C   0  0  2  0  0  0  0  0  0  0  0  0
   -6.6270    0.7520    0.1810 C   0  0  0  0  0  0  0  0  0  0  0  0
   -6.9130    2.1220    0.1450 C   0  0  0  0  0  0  0  0  0  0  0  0
   -8.1890    2.6080   -0.0430 C   0  0  0  0  0  0  0  0  0  0  0  0
   -8.4540    3.9270   -0.0690 F   0  0  0  0  0  0  0  0  0  0  0  0
   -9.2310    1.6950   -0.2030 C   0  0  0  0  0  0  0  0  0  0  0  0
   -8.9700    0.3520   -0.1710 C   0  0  0  0  0  0  0  0  0  0  0  0
   -9.9500   -0.5840   -0.3220 F   0  0  0  0  0  0  0  0  0  0  0  0
   -7.6670   -0.1190    0.0200 C   0  0  0  0  0  0  0  0  0  0  0  0
   -3.3930   -0.4910   -2.5190 N   0  0  0  0  0  0  0  0  0  0  0  0
   -2.1990   -0.6360   -3.2670 C   0  0  0  0  0  0  0  0  0  0  0  0
   -1.0470   -0.5710   -2.5820 N   0  0  0  0  0  0  0  0  0  0  0  0
  2  1  1  1
  2  3  1  0
  2 11  1  0
  4  3  1  6
  4  5  1  0
  4 10  1  0
  5  6  1  0
  6  7  1  0
  7  8  1  1
  7  9  1  0
  9 10  1  0
 11 12  1  0
 12 13  1  0
 13 14  2  0
 13 18  1  0
 14 15  1  0
 15 16  2  0
 16 17  1  0
 17 18  2  0
 18 19  1  0
 19 20  1  0
 19 37  1  0
 20 21  1  0
 21 22  1  0
 21 35  2  0
 22 23  1  0
 22 26  1  0
 23 24  1  0
 24 25  1  0
 25 26  1  0
 26 27  1  6
 27 28  2  0
 27 34  1  0
 28 29  1  0
 29 30  1  0
 29 31  2  0
 31 32  1  0
 32 33  1  0
 32 34  2  0
 35 36  1  0
 36 37  2  0
M  CHG  2   4   1  11   1
M  END
