
     RDKit          3D

 37 41  0  0  0  0  0  0  0  0999 V2000
   -1.1670   -5.4760    0.4190 F   0  0  0  0  0  0  0  0  0  0  0  0
   -1.3110   -4.2280   -0.0890 C   0  0  0  0  0  0  0  0  0  0  0  0
   -1.0910   -3.0940    0.6500 C   0  0  0  0  0  0  0  0  0  0  0  0
   -1.2590   -1.8450    0.0570 C   0  0  0  0  0  0  0  0  0  0  0  0
   -1.6400   -1.6720   -1.2550 C   0  0  0  0  0  0  0  0  0  0  0  0
   -1.8240   -0.3960   -1.8930 C   0  0  0  0  0  0  0  0  0  0  0  0
   -1.7040    0.7690   -1.4450 N   0  0  0  0  0  0  0  0  0  0  0  0
   -1.3680    1.3000   -0.2320 N   0  0  0  0  0  0  0  0  0  0  0  0
   -2.2820    1.5690    0.7490 C   0  0  0  0  0  0  0  0  0  0  0  0
   -3.7100    1.3180    0.6590 C   0  0  0  0  0  0  0  0  0  0  0  0
   -4.4980    1.6170    1.6660 C   0  0  0  0  0  0  0  0  0  0  0  0
   -5.9320    1.4210    1.7080 C   0  0  0  0  0  0  0  0  0  0  0  0
   -6.6000    0.8820    0.6480 C   0  0  0  0  0  0  0  0  0  0  0  0
   -7.9820    0.7050    0.7200 C   0  0  0  0  0  0  0  0  0  0  0  0
   -8.6390    1.0830    1.8700 C   0  0  0  0  0  0  0  0  0  0  0  0
   -7.9500    1.6100    2.8940 N   0  0  0  0  0  0  0  0  0  0  0  0
   -6.6280    1.7950    2.8620 C   0  0  0  0  0  0  0  0  0  0  0  0
   -1.5840    2.0930    1.7680 N   0  0  0  0  0  0  0  0  0  0  0  0
   -0.3040    2.1520    1.4470 N   0  0  0  0  0  0  0  0  0  0  0  0
   -0.1310    1.6570    0.1850 C   0  0  0  0  0  0  0  0  0  0  0  0
    1.1230    1.5360   -0.5600 C   0  0  2  0  0  0  0  0  0  0  0  0
    1.1220    2.2260   -1.8870 C   0  0  0  0  0  0  0  0  0  0  0  0
    2.4670    2.2840   -2.4130 N   0  0  0  0  0  0  0  0  0  0  0  0
    3.4800    2.4550   -1.4150 C   0  0  0  0  0  0  0  0  0  0  0  0
    3.7830    1.1860   -0.6380 C   0  0  0  0  0  0  0  0  0  0  0  0
    2.9960    0.0810   -1.1220 N   0  0  1  0  0  0  0  0  0  0  0  0
    3.5440   -1.2120   -0.8190 C   0  0  0  0  0  0  0  0  0  0  0  0
    4.6210   -1.2090    0.1870 C   0  0  0  0  0  0  0  0  0  0  0  0
    5.9410   -1.1780   -0.1700 C   0  0  0  0  0  0  0  0  0  0  0  0
    6.9280   -1.1760    0.7770 C   0  0  0  0  0  0  0  0  0  0  0  0
    6.5970   -1.2060    2.0780 N   0  0  0  0  0  0  0  0  0  0  0  0
    5.3050   -1.2370    2.4480 C   0  0  0  0  0  0  0  0  0  0  0  0
    4.2800   -1.2400    1.5160 C   0  0  0  0  0  0  0  0  0  0  0  0
    1.6060    0.1290   -0.7540 C   0  0  0  0  0  0  0  0  0  0  0  0
   -1.8500   -2.8550   -1.9610 C   0  0  0  0  0  0  0  0  0  0  0  0
   -1.6960   -4.1070   -1.4160 C   0  0  0  0  0  0  0  0  0  0  0  0
   -1.9120   -5.2260   -2.1450 F   0  0  0  0  0  0  0  0  0  0  0  0
  1  2  1  0
  2  3  2  0
  2 36  1  0
  3  4  1  0
  4  5  2  0
  5  6  1  0
  5 35  1  0
  6  7  2  3
  7  8  1  0
  8  9  1  0
  8 20  1  0
  9 10  1  0
  9 18  2  0
 10 11  2  3
 11 12  1  0
 12 13  2  0
 12 17  1  0
 13 14  1  0
 14 15  2  0
 15 16  1  0
 16 17  2  0
 18 19  1  0
 19 20  2  0
 21 20  1  6
 21 22  1  0
 21 34  1  0
 22 23  1  0
 23 24  1  0
 24 25  1  0
 25 26  1  0
 26 27  1  1
 26 34  1  0
 27 28  1  0
 28 29  2  0
 28 33  1  0
 29 30  1  0
 30 31  2  0
 31 32  1  0
 32 33  2  0
 35 36  2  0
 36 37  1  0
M  CHG  2  26   1  31   1
M  END
