
     RDKit          3D

 37 41  0  0  0  0  0  0  0  0999 V2000
    5.3950   -4.2760    2.2950 C   0  0  0  0  0  0  0  0  0  0  0  0
    4.1130   -3.5920    2.0020 C   0  0  0  0  0  0  0  0  0  0  0  0
    2.9390   -4.2520    2.2750 C   0  0  0  0  0  0  0  0  0  0  0  0
    1.7400   -3.6400    2.0130 C   0  0  0  0  0  0  0  0  0  0  0  0
    1.6400   -2.3520    1.4720 C   0  0  0  0  0  0  0  0  0  0  0  0
    0.3480   -1.8150    1.2210 N   0  0  0  0  0  0  0  0  0  0  0  0
    0.0160   -0.4770    0.9840 C   0  0  0  0  0  0  0  0  0  0  0  0
    0.9110    0.3960    0.9880 O   0  0  0  0  0  0  0  0  0  0  0  0
   -1.3620   -0.0080    0.7200 C   0  0  0  0  0  0  0  0  0  0  0  0
   -2.3740   -0.8590    0.3490 C   0  0  0  0  0  0  0  0  0  0  0  0
   -3.6710   -0.3970    0.1080 C   0  0  0  0  0  0  0  0  0  0  0  0
   -3.9830    0.9360    0.2350 C   0  0  0  0  0  0  0  0  0  0  0  0
   -5.3430    1.4640   -0.0160 C   0  0  0  0  0  0  0  0  0  0  0  0
   -5.9950    0.8180   -1.1380 N   0  0  2  0  0  0  0  0  0  0  0  0
   -6.4710    1.7420   -2.1180 C   0  0  0  0  0  0  0  0  0  0  0  0
   -7.7130    1.1640   -2.7600 C   0  0  0  0  0  0  0  0  0  0  0  0
   -8.8440    1.1870   -1.8540 N   0  0  1  0  0  0  0  0  0  0  0  0
   -9.9370    0.3840   -2.3020 C   0  0  0  0  0  0  0  0  0  0  0  0
   -8.3940    0.7560   -0.5630 C   0  0  0  0  0  0  0  0  0  0  0  0
   -7.0990   -0.0060   -0.6970 C   0  0  0  0  0  0  0  0  0  0  0  0
   -2.9630    1.7970    0.6100 C   0  0  0  0  0  0  0  0  0  0  0  0
   -1.6790    1.3370    0.8470 C   0  0  0  0  0  0  0  0  0  0  0  0
    2.8300   -1.7120    1.2070 C   0  0  0  0  0  0  0  0  0  0  0  0
    4.0710   -2.3010    1.4590 C   0  0  0  0  0  0  0  0  0  0  0  0
    5.2920   -1.6730    1.1980 N   0  0  0  0  0  0  0  0  0  0  0  0
    5.4640   -0.3900    0.6310 C   0  0  0  0  0  0  0  0  0  0  0  0
    4.5170    0.4430    0.2460 N   0  0  0  0  0  0  0  0  0  0  0  0
    4.7070    1.6390   -0.2910 C   0  0  0  0  0  0  0  0  0  0  0  0
    6.0310    2.0520   -0.4640 C   0  0  0  0  0  0  0  0  0  0  0  0
    7.0360    1.2140   -0.0770 C   0  0  0  0  0  0  0  0  0  0  0  0
    8.4210    1.6220   -0.2490 C   0  0  0  0  0  0  0  0  0  0  0  0
    9.4160    0.7500    0.1630 C   0  0  0  0  0  0  0  0  0  0  0  0
   10.7580    1.0260    0.0440 C   0  0  0  0  0  0  0  0  0  0  0  0
   11.0510    2.2670   -0.5320 C   0  0  0  0  0  0  0  0  0  0  0  0
   10.0820    3.0940   -0.9240 N   0  0  0  0  0  0  0  0  0  0  0  0
    8.7500    2.8240   -0.8070 C   0  0  0  0  0  0  0  0  0  0  0  0
    6.7610    0.0020    0.4670 N   0  0  0  0  0  0  0  0  0  0  0  0
  1  2  1  0
  2  3  2  0
  2 24  1  0
  3  4  1  0
  4  5  2  0
  5  6  1  0
  5 23  1  0
  6  7  1  0
  7  8  2  0
  7  9  1  0
  9 10  2  0
  9 22  1  0
 10 11  1  0
 11 12  2  0
 12 13  1  0
 12 21  1  0
 14 13  1  1
 14 15  1  0
 14 20  1  0
 15 16  1  0
 16 17  1  0
 17 18  1  6
 17 19  1  0
 19 20  1  0
 21 22  2  0
 23 24  2  0
 24 25  1  0
 25 26  1  0
 26 27  2  0
 26 37  1  0
 27 28  1  0
 28 29  2  0
 29 30  1  0
 30 31  1  0
 30 37  2  0
 31 32  2  0
 31 36  1  0
 32 33  1  0
 33 34  2  0
 34 35  1  0
 35 36  2  0
M  CHG  2  14   1  17   1
M  END
