
     RDKit          3D

 36 41  0  0  0  0  0  0  0  0999 V2000
    8.6280    0.0360   -2.1950 C   0  0  0  0  0  0  0  0  0  0  0  0
    8.9640   -0.7940   -0.9560 C   0  0  0  0  0  0  0  0  0  0  0  0
    7.7200   -1.5430   -0.4920 C   0  0  0  0  0  0  0  0  0  0  0  0
    6.7050   -0.5240   -0.1790 N   0  0  0  0  0  0  0  0  0  0  0  0
    5.8050   -0.0220   -1.0400 C   0  0  0  0  0  0  0  0  0  0  0  0
    5.0320    0.8970   -0.3940 N   0  0  0  0  0  0  0  0  0  0  0  0
    5.4320    0.9870    0.8810 C   0  0  0  0  0  0  0  0  0  0  0  0
    4.8950    1.8240    1.9980 C   0  0  0  0  0  0  0  0  0  0  0  0
    3.5810    2.4340    1.5960 C   0  0  0  0  0  0  0  0  0  0  0  0
    2.5840    1.3020    1.3930 C   0  0  0  0  0  0  0  0  0  0  0  0
    1.3320    1.8910    0.9800 N   0  0  0  0  0  0  0  0  0  0  0  0
    0.2350    1.0350    0.7260 C   0  0  0  0  0  0  0  0  0  0  0  0
    0.3500   -0.3130    0.8660 N   0  0  0  0  0  0  0  0  0  0  0  0
   -0.6660   -1.1460    0.6340 C   0  0  0  0  0  0  0  0  0  0  0  0
   -0.5880   -2.5170    0.7660 C   0  0  0  0  0  0  0  0  0  0  0  0
   -1.6760   -3.3230    0.5110 C   0  0  0  0  0  0  0  0  0  0  0  0
   -2.8630   -2.7540    0.1180 C   0  0  0  0  0  0  0  0  0  0  0  0
   -2.9560   -1.3730   -0.0180 C   0  0  0  0  0  0  0  0  0  0  0  0
   -4.1680   -0.8030   -0.4200 N   0  0  0  0  0  0  0  0  0  0  0  0
   -4.3680    0.4980   -0.5830 C   0  0  0  0  0  0  0  0  0  0  0  0
   -5.6960    0.8980   -1.0040 C   0  0  0  0  0  0  0  0  0  0  0  0
   -6.2910    2.0060   -1.2790 C   0  0  0  0  0  0  0  0  0  0  0  0
   -5.8080    3.2340   -1.2540 F   0  0  0  0  0  0  0  0  0  0  0  0
   -7.7460    1.7570   -1.6630 C   0  0  0  0  0  0  0  0  0  0  0  0
   -7.9550    0.5530   -0.8510 N   0  0  2  0  0  0  0  0  0  0  0  0
   -7.8420    0.9310    0.5250 C   0  0  0  0  0  0  0  0  0  0  0  0
   -6.7640   -0.1800   -1.2250 C   0  0  0  0  0  0  0  0  0  0  0  0
   -3.3060    1.3530   -0.3370 N   0  0  0  0  0  0  0  0  0  0  0  0
   -3.3330    2.7890   -0.4470 C   0  0  0  0  0  0  0  0  0  0  0  0
   -2.0370    0.7800    0.0810 C   0  0  0  0  0  0  0  0  0  0  0  0
   -0.9560    1.5410    0.3370 N   0  0  0  0  0  0  0  0  0  0  0  0
   -1.8660   -0.5760    0.2380 C   0  0  0  0  0  0  0  0  0  0  0  0
   -3.8280   -3.8220   -0.0800 C   0  0  0  0  0  0  0  0  0  0  0  0
   -3.2860   -4.9910    0.1710 C   0  0  0  0  0  0  0  0  0  0  0  0
   -1.8730   -4.7930    0.5690 C   0  0  0  0  0  0  0  0  0  0  0  0
    6.4960    0.0770    0.9990 C   0  0  0  0  0  0  0  0  0  0  0  0
  1  2  1  0
  2  3  1  0
  3  4  1  0
  4  5  1  0
  4 36  1  0
  5  6  2  0
  6  7  1  0
  7  8  1  0
  7 36  2  0
  8  9  1  0
  9 10  1  0
 10 11  1  0
 11 12  1  0
 12 13  2  0
 12 31  1  0
 13 14  1  0
 14 15  2  0
 14 32  1  0
 15 16  1  0
 16 17  2  0
 16 35  1  0
 17 18  1  0
 17 33  1  0
 18 19  1  0
 18 32  2  0
 19 20  2  0
 20 21  1  0
 20 28  1  0
 21 22  2  0
 21 27  1  0
 22 23  1  0
 22 24  1  0
 24 25  1  0
 25 26  1  1
 25 27  1  0
 28 29  1  0
 28 30  1  0
 30 31  2  0
 30 32  1  0
 33 34  2  0
 34 35  1  0
M  CHG  2   6   1  25   1
M  END
