
     RDKit          3D

 37 41  0  0  0  0  0  0  0  0999 V2000
    0.7010   -0.0810   -1.8420 C   0  0  0  0  0  0  0  0  0  0  0  0
    1.6470    0.2330   -0.6980 C   0  0  0  0  0  0  0  0  0  0  0  0
    2.8410    0.0600   -1.0270 N   0  0  0  0  0  0  0  0  0  0  0  0
    4.1020    0.1200   -0.6210 C   0  0  0  0  0  0  0  0  0  0  0  0
    4.7300   -1.0900   -0.3260 C   0  0  0  0  0  0  0  0  0  0  0  0
    3.8120   -2.1980   -0.5470 C   0  0  0  0  0  0  0  0  0  0  0  0
    4.2480   -3.4170   -0.3150 C   0  0  0  0  0  0  0  0  0  0  0  0
    5.5140   -3.6680    0.1180 F   0  0  0  0  0  0  0  0  0  0  0  0
    6.0200   -1.3630    0.1410 C   0  0  0  0  0  0  0  0  0  0  0  0
    7.2350   -1.3720    0.6780 N   0  0  0  0  0  0  0  0  0  0  0  0
    7.6110    0.0040    1.0480 C   0  0  0  0  0  0  0  0  0  0  0  0
    7.1890    1.0970    0.2260 C   0  0  0  0  0  0  0  0  0  0  0  0
    8.2160    1.6920   -0.3510 N   0  0  0  0  0  0  0  0  0  0  0  0
    5.9790    1.8210   -0.1990 C   0  0  0  0  0  0  0  0  0  0  0  0
    6.1510    3.1820   -0.2710 F   0  0  0  0  0  0  0  0  0  0  0  0
    4.7420    1.4810   -0.5420 C   0  0  0  0  0  0  0  0  0  0  0  0
    1.1500    0.6000    0.5960 C   0  0  0  0  0  0  0  0  0  0  0  0
    2.0590    0.5700    1.6660 C   0  0  0  0  0  0  0  0  0  0  0  0
    1.7050    0.8180    2.9510 N   0  0  0  0  0  0  0  0  0  0  0  0
    0.4440    1.1100    3.2790 C   0  0  0  0  0  0  0  0  0  0  0  0
   -0.4640    1.1500    2.2760 C   0  0  0  0  0  0  0  0  0  0  0  0
   -0.1350    0.8970    0.9090 C   0  0  0  0  0  0  0  0  0  0  0  0
   -1.2010    1.0560   -0.0020 N   0  0  0  0  0  0  0  0  0  0  0  0
   -1.2030    2.1050   -0.9700 C   0  0  0  0  0  0  0  0  0  0  0  0
   -2.3320    3.0490   -0.4780 C   0  0  0  0  0  0  0  0  0  0  0  0
   -3.5310    2.2390   -0.6290 N   0  0  0  0  0  0  0  0  0  0  0  0
   -4.7200    2.6300   -1.0250 N   0  0  0  0  0  0  0  0  0  0  0  0
   -5.5800    1.5680   -1.0470 C   0  0  0  0  0  0  0  0  0  0  0  0
   -6.9950    1.6060   -1.4380 C   0  0  0  0  0  0  0  0  0  0  0  0
   -4.8690    0.4650   -0.6400 C   0  0  0  0  0  0  0  0  0  0  0  0
   -5.2390   -0.8610   -0.4830 N   0  0  2  0  0  0  0  0  0  0  0  0
   -6.5800   -1.2220   -0.7700 C   0  0  0  0  0  0  0  0  0  0  0  0
   -6.4700   -2.7530   -0.5500 C   0  0  0  0  0  0  0  0  0  0  0  0
   -5.9000   -2.6780    0.8770 C   0  0  0  0  0  0  0  0  0  0  0  0
   -4.9770   -1.4550    0.8020 C   0  0  0  0  0  0  0  0  0  0  0  0
   -3.5850    0.9400   -0.3880 C   0  0  0  0  0  0  0  0  0  0  0  0
   -2.3570    0.2040    0.0930 C   0  0  0  0  0  0  0  0  0  0  0  0
  1  2  1  0
  2  3  2  3
  2 17  1  0
  3  4  1  0
  4  5  2  0
  4 16  1  0
  5  6  1  0
  5  9  1  0
  6  7  2  3
  7  8  1  0
  9 10  1  0
 10 11  1  0
 11 12  1  0
 12 13  2  0
 12 14  1  0
 14 15  1  0
 14 16  2  0
 17 18  2  0
 17 22  1  0
 18 19  1  0
 19 20  2  0
 20 21  1  0
 21 22  2  0
 22 23  1  0
 23 24  1  0
 23 37  1  0
 24 25  1  0
 25 26  1  0
 26 27  1  0
 26 36  1  0
 27 28  2  0
 28 29  1  0
 28 30  1  0
 31 30  1  1
 30 36  2  0
 31 32  1  0
 31 35  1  0
 32 33  1  0
 33 34  1  0
 34 35  1  0
 36 37  1  0
M  CHG  2  10   1  31   1
M  END
