
     RDKit          3D

 37 41  0  0  0  0  0  0  0  0999 V2000
   -2.6330   -3.9090   -1.6150 C   0  0  0  0  0  0  0  0  0  0  0  0
   -3.6360   -2.9580   -0.9760 C   0  0  0  0  0  0  0  0  0  0  0  0
   -4.8200   -3.2950   -1.2510 N   0  0  0  0  0  0  0  0  0  0  0  0
   -6.1290   -2.8300   -0.9790 C   0  0  2  0  0  0  0  0  0  0  0  0
   -6.9970   -3.2600   -2.0530 F   0  0  0  0  0  0  0  0  0  0  0  0
   -6.3070   -1.4620   -1.0040 F   0  0  0  0  0  0  0  0  0  0  0  0
   -3.2240   -2.0110    0.0010 C   0  0  0  0  0  0  0  0  0  0  0  0
   -2.0140   -1.5100    0.0930 C   0  0  0  0  0  0  0  0  0  0  0  0
   -1.0020   -1.8600   -0.7790 N   0  0  0  0  0  0  0  0  0  0  0  0
    0.0960   -2.7190   -0.5720 C   0  0  0  0  0  0  0  0  0  0  0  0
    1.3520   -2.1400   -1.2820 C   0  0  0  0  0  0  0  0  0  0  0  0
    1.3880   -0.6550   -1.1640 C   0  0  1  0  0  0  0  0  0  0  0  0
    2.4740   -0.1220   -2.0330 C   0  0  0  0  0  0  0  0  0  0  0  0
    2.9530   -0.6590   -3.1710 N   0  0  0  0  0  0  0  0  0  0  0  0
    3.8470    0.1480   -3.7360 N   0  0  0  0  0  0  0  0  0  0  0  0
    3.9880    1.2550   -2.9810 C   0  0  0  0  0  0  0  0  0  0  0  0
    4.8980    2.3960   -3.2760 C   0  0  0  0  0  0  0  0  0  0  0  0
    3.1370    1.0840   -1.9240 C   0  0  0  0  0  0  0  0  0  0  0  0
    3.0180    2.0290   -0.7510 C   0  0  0  0  0  0  0  0  0  0  0  0
    3.9880    1.4670    0.2750 C   0  0  0  0  0  0  0  0  0  0  0  0
    4.0370    2.2060    1.4980 N   0  0  0  0  0  0  0  0  0  0  0  0
    4.7670    3.2790    1.8630 C   0  0  0  0  0  0  0  0  0  0  0  0
    4.4900    3.5980    3.1610 C   0  0  0  0  0  0  0  0  0  0  0  0
    3.5780    2.7030    3.5870 N   0  0  0  0  0  0  0  0  0  0  0  0
    3.3100    1.8750    2.5930 C   0  0  0  0  0  0  0  0  0  0  0  0
    0.1120   -0.0350   -1.7480 C   0  0  0  0  0  0  0  0  0  0  0  0
   -0.9270   -1.0990   -2.0700 C   0  0  0  0  0  0  0  0  0  0  0  0
   -1.5950   -0.4820    1.0630 N   0  0  0  0  0  0  0  0  0  0  0  0
   -2.2490    0.4640    1.6240 C   0  0  0  0  0  0  0  0  0  0  0  0
   -1.6070    1.3670    2.5560 C   0  0  0  0  0  0  0  0  0  0  0  0
   -0.3060    1.2950    2.9150 C   0  0  0  0  0  0  0  0  0  0  0  0
    0.0010    2.3600    3.8670 C   0  0  0  0  0  0  0  0  0  0  0  0
   -1.2810    3.0840    4.0460 C   0  0  0  0  0  0  0  0  0  0  0  0
   -2.1700    2.4910    3.2850 C   0  0  0  0  0  0  0  0  0  0  0  0
   -3.6600    0.6790    1.4070 N   0  0  0  0  0  0  0  0  0  0  0  0
   -4.5380   -0.2540    1.1770 C   0  0  0  0  0  0  0  0  0  0  0  0
   -4.2580   -1.6780    1.0960 C   0  0  0  0  0  0  0  0  0  0  0  0
  1  2  1  0
  2  3  2  3
  2  7  1  0
  3  4  1  0
  4  5  1  6
  4  6  1  0
  7  8  2  0
  7 37  1  0
  8  9  1  0
  8 28  1  0
  9 10  1  0
  9 27  1  0
 10 11  1  0
 11 12  1  0
 12 13  1  6
 12 26  1  0
 13 14  1  0
 13 18  2  0
 14 15  1  0
 15 16  2  0
 16 17  1  0
 16 18  1  0
 18 19  1  0
 19 20  1  0
 20 21  1  0
 21 22  1  0
 21 25  1  0
 22 23  2  0
 23 24  1  0
 24 25  2  0
 26 27  1  0
 28 29  2  0
 29 30  1  0
 29 35  1  0
 30 31  2  0
 30 34  1  0
 31 32  1  0
 32 33  1  0
 33 34  2  0
 35 36  2  0
 36 37  1  0
M  CHG  2   3   1  35   1
M  END
