
     RDKit          3D

 37 39  0  0  0  0  0  0  0  0999 V2000
   -9.2490   -3.3690   -1.3820 C   0  0  0  0  0  0  0  0  0  0  0  0
   -9.0350   -2.1400   -1.7680 C   0  0  0  0  0  0  0  0  0  0  0  0
   -7.8380   -1.3840   -1.4380 C   0  0  0  0  0  0  0  0  0  0  0  0
   -7.0930   -0.9600   -2.4900 N   0  0  0  0  0  0  0  0  0  0  0  0
   -6.0010   -0.2390   -2.2470 C   0  0  0  0  0  0  0  0  0  0  0  0
   -5.3030    0.1590   -3.2360 O   0  0  0  0  0  0  0  0  0  0  0  0
   -5.5840    0.1010   -0.9910 C   0  0  0  0  0  0  0  0  0  0  0  0
   -4.1110    1.0680   -0.7240 S   0  0  0  0  0  0  0  0  0  0  0  0
   -2.7220   -0.0600   -0.5600 C   0  0  0  0  0  0  0  0  0  0  0  0
   -1.4550    0.7360   -0.3300 C   0  0  0  0  0  0  0  0  0  0  0  0
   -0.3800    0.1170   -0.1910 O   0  0  0  0  0  0  0  0  0  0  0  0
   -1.4840    2.1440   -0.2730 N   0  0  0  0  0  0  0  0  0  0  0  0
   -0.3850    3.0090   -0.0650 C   0  0  0  0  0  0  0  0  0  0  0  0
    0.9070    2.6190    0.1200 C   0  0  0  0  0  0  0  0  0  0  0  0
    1.9360    3.5160    0.3180 C   0  0  0  0  0  0  0  0  0  0  0  0
    3.2930    3.2030    0.5020 N   0  0  0  0  0  0  0  0  0  0  0  0
    3.9170    1.9380    0.3230 C   0  0  0  0  0  0  0  0  0  0  0  0
    3.2230    0.9670   -0.0400 O   0  0  0  0  0  0  0  0  0  0  0  0
    5.3140    1.7570    0.5500 N   0  0  0  0  0  0  0  0  0  0  0  0
    6.0180    0.5480    0.3970 C   0  0  0  0  0  0  0  0  0  0  0  0
    7.3520    0.5260    0.8280 C   0  0  0  0  0  0  0  0  0  0  0  0
    8.1450   -0.5880    0.7250 C   0  0  0  0  0  0  0  0  0  0  0  0
    9.5630   -0.6060    1.1850 C   0  0  0  0  0  0  0  0  0  0  0  0
    7.6170   -1.7380    0.1760 C   0  0  0  0  0  0  0  0  0  0  0  0
    8.4580   -2.8930    0.0760 N   0  0  0  0  0  0  0  0  0  0  0  0
    6.3150   -1.7820   -0.2650 C   0  0  0  0  0  0  0  0  0  0  0  0
    5.7770   -2.9330   -0.8180 O   0  0  0  0  0  0  0  0  0  0  0  0
    4.4490   -3.0110   -1.2800 C   0  0  0  0  0  0  0  0  0  0  0  0
    5.5570   -0.6160   -0.1340 C   0  0  0  0  0  0  0  0  0  0  0  0
    1.6220    4.8830    0.3270 C   0  0  0  0  0  0  0  0  0  0  0  0
    0.3490    5.3070    0.1460 C   0  0  0  0  0  0  0  0  0  0  0  0
   -0.6310    4.3860   -0.0460 C   0  0  0  0  0  0  0  0  0  0  0  0
   -1.8910    4.8280   -0.2240 F   0  0  0  0  0  0  0  0  0  0  0  0
   -6.3480   -0.3350    0.0700 C   0  0  0  0  0  0  0  0  0  0  0  0
   -7.4890   -1.0860   -0.1380 C   0  0  0  0  0  0  0  0  0  0  0  0
   -8.3230   -1.5310    0.9930 C   0  0  0  0  0  0  0  0  0  0  0  0
   -7.7290   -1.0600    2.2470 N   0  0  0  0  0  0  0  0  0  0  0  0
  1  2  2  0
  2  3  1  0
  3  4  1  0
  3 35  2  0
  4  5  1  0
  5  6  2  0
  5  7  1  0
  7  8  1  0
  7 34  2  0
  8  9  1  0
  9 10  1  0
 10 11  2  0
 10 12  1  0
 12 13  1  0
 13 14  2  0
 13 32  1  0
 14 15  1  0
 15 16  1  0
 15 30  2  0
 16 17  1  0
 17 18  2  0
 17 19  1  0
 19 20  1  0
 20 21  2  0
 20 29  1  0
 21 22  1  0
 22 23  1  0
 22 24  2  0
 24 25  1  0
 24 26  1  0
 26 27  1  0
 26 29  2  0
 27 28  1  0
 30 31  1  0
 31 32  2  0
 32 33  1  0
 34 35  1  0
 35 36  1  0
 36 37  1  0
M  CHG  2  25   1  37   1
M  END
