
     RDKit          3D

 37 39  0  0  0  0  0  0  0  0999 V2000
   -4.3460    5.3570   -3.5000 C   0  0  0  0  0  0  0  0  0  0  0  0
   -3.9710    4.5880   -2.4970 C   0  0  0  0  0  0  0  0  0  0  0  0
   -2.6020    4.3260   -2.0340 C   0  0  0  0  0  0  0  0  0  0  0  0
   -2.6560    3.6530   -0.9070 C   0  0  0  0  0  0  0  0  0  0  0  0
   -1.4650    3.2040   -0.1340 C   0  0  0  0  0  0  0  0  0  0  0  0
   -1.5280    1.7530   -0.0510 N   0  0  0  0  0  0  0  0  0  0  0  0
   -0.3610    1.2510    0.6650 C   0  0  0  0  0  0  0  0  0  0  0  0
   -0.4980   -0.1990    0.9380 C   0  0  0  0  0  0  0  0  0  0  0  0
   -1.5860   -0.9290    0.5540 C   0  0  0  0  0  0  0  0  0  0  0  0
   -1.6340   -2.2970    0.8530 C   0  0  0  0  0  0  0  0  0  0  0  0
   -2.7120   -3.1340    0.2600 C   0  0  0  0  0  0  0  0  0  0  0  0
   -3.2940   -4.2540    0.8850 C   0  0  0  0  0  0  0  0  0  0  0  0
   -3.3350   -4.7470    2.0470 C   0  0  0  0  0  0  0  0  0  0  0  0
   -2.8460   -4.4510    3.3700 C   0  0  0  0  0  0  0  0  0  0  0  0
   -2.2690   -3.2520    3.5490 F   0  0  0  0  0  0  0  0  0  0  0  0
   -2.9620   -2.7610   -1.0120 C   0  0  0  0  0  0  0  0  0  0  0  0
   -3.9080   -3.3030   -1.9020 C   0  0  0  0  0  0  0  0  0  0  0  0
   -4.8200   -4.3300   -1.6990 N   0  0  0  0  0  0  0  0  0  0  0  0
   -3.9310   -2.7610   -3.0920 O   0  0  0  0  0  0  0  0  0  0  0  0
   -0.6310   -2.8760    1.5030 N   0  0  0  0  0  0  0  0  0  0  0  0
    0.4440   -2.1820    1.8900 C   0  0  0  0  0  0  0  0  0  0  0  0
    1.3830   -2.7860    2.5140 O   0  0  0  0  0  0  0  0  0  0  0  0
    0.5240   -0.8350    1.6120 C   0  0  0  0  0  0  0  0  0  0  0  0
    1.6860   -0.1550    2.0470 N   0  0  0  0  0  0  0  0  0  0  0  0
    2.8380   -0.0510    1.2160 C   0  0  0  0  0  0  0  0  0  0  0  0
    2.7500   -0.5930    0.0960 O   0  0  0  0  0  0  0  0  0  0  0  0
    4.0110    0.6060    1.5910 N   0  0  0  0  0  0  0  0  0  0  0  0
    5.1920    0.7500    0.8290 C   0  0  0  0  0  0  0  0  0  0  0  0
    6.2210    1.5600    1.3250 C   0  0  0  0  0  0  0  0  0  0  0  0
    7.4110    1.7640    0.6710 C   0  0  0  0  0  0  0  0  0  0  0  0
    7.6550    1.1630   -0.5420 C   0  0  0  0  0  0  0  0  0  0  0  0
    9.1970    1.4060   -1.4260 S   0  0  0  0  0  0  0  0  0  0  0  0
    6.6680    0.3620   -1.0590 C   0  0  0  0  0  0  0  0  0  0  0  0
    6.8710   -0.2810   -2.3090 N   0  0  0  0  0  0  0  0  0  0  0  0
    5.4540    0.1590   -0.3820 C   0  0  0  0  0  0  0  0  0  0  0  0
   -3.9740    3.4190   -0.5360 O   0  0  0  0  0  0  0  0  0  0  0  0
   -4.8470    3.7990   -1.5900 C   0  0  0  0  0  0  0  0  0  0  0  0
  1  2  2  0
  2  3  1  0
  2 37  1  0
  3  4  2  0
  4  5  1  0
  4 36  1  0
  5  6  1  0
  6  7  1  0
  7  8  1  0
  8  9  1  0
  8 23  2  0
  9 10  2  0
 10 11  1  0
 10 20  1  0
 11 12  1  0
 11 16  2  3
 12 13  2  3
 13 14  1  0
 14 15  1  0
 16 17  1  0
 17 18  1  0
 17 19  2  0
 20 21  1  0
 21 22  2  0
 21 23  1  0
 23 24  1  0
 24 25  1  0
 25 26  2  0
 25 27  1  0
 27 28  1  0
 28 29  2  0
 28 35  1  0
 29 30  1  0
 30 31  2  0
 31 32  1  0
 31 33  1  0
 33 34  1  0
 33 35  2  0
 36 37  1  0
M  CHG  1   6   1
M  END
