
     RDKit          3D

 37 40  0  0  0  0  0  0  0  0999 V2000
   -6.3870    0.2320    2.1860 C   0  0  0  0  0  0  0  0  0  0  0  0
   -6.0330   -0.0490    0.7710 C   0  0  0  0  0  0  0  0  0  0  0  0
   -6.5210   -1.0810    0.2430 O   0  0  0  0  0  0  0  0  0  0  0  0
   -5.1570    0.8010   -0.0260 C   0  0  0  0  0  0  0  0  0  0  0  0
   -3.7670    0.6900   -0.1380 C   0  0  0  0  0  0  0  0  0  0  0  0
   -3.0000   -0.3600    0.5790 C   0  0  0  0  0  0  0  0  0  0  0  0
   -1.5930   -0.2470    0.2860 N   0  0  0  0  0  0  0  0  0  0  0  0
   -0.8210   -1.3880    0.6160 C   0  0  1  0  0  0  0  0  0  0  0  0
   -1.0340   -2.6300   -0.1510 C   0  0  0  0  0  0  0  0  0  0  0  0
   -0.7760   -2.5920   -1.6180 C   0  0  0  0  0  0  0  0  0  0  0  0
   -1.5570   -1.7000   -2.4000 N   0  0  0  0  0  0  0  0  0  0  0  0
    0.6320   -0.9840    0.4400 C   0  0  0  0  0  0  0  0  0  0  0  0
    0.9240    0.1150   -0.0570 O   0  0  0  0  0  0  0  0  0  0  0  0
    1.6270   -1.8830    0.8540 N   0  0  0  0  0  0  0  0  0  0  0  0
    3.0150   -1.7130    0.7810 C   0  0  0  0  0  0  0  0  0  0  0  0
    3.6110   -0.6040    0.2740 C   0  0  0  0  0  0  0  0  0  0  0  0
    5.0030   -0.4730    0.2180 C   0  0  0  0  0  0  0  0  0  0  0  0
    5.8120    0.5280   -0.2380 C   0  0  0  0  0  0  0  0  0  0  0  0
    5.6220    1.7750   -0.8100 C   0  0  0  0  0  0  0  0  0  0  0  0
    6.6620    2.5990   -1.1850 C   0  0  0  0  0  0  0  0  0  0  0  0
    6.4390    3.9400   -1.8010 C   0  0  0  0  0  0  0  0  0  0  0  0
    7.9530    2.1480   -0.9750 C   0  0  0  0  0  0  0  0  0  0  0  0
    8.1740    0.9030   -0.4040 C   0  0  0  0  0  0  0  0  0  0  0  0
    7.1320    0.0980   -0.0380 C   0  0  0  0  0  0  0  0  0  0  0  0
    7.0970   -1.1360    0.5280 N   0  0  0  0  0  0  0  0  0  0  0  0
    5.8250   -1.5390    0.7090 C   0  0  0  0  0  0  0  0  0  0  0  0
    5.1970   -2.6240    1.2050 N   0  0  0  0  0  0  0  0  0  0  0  0
    3.8610   -2.7190    1.2440 C   0  0  0  0  0  0  0  0  0  0  0  0
    3.2440   -3.9450    1.8040 C   0  0  0  0  0  0  0  0  0  0  0  0
   -3.3950    1.6620   -0.9580 N   0  0  0  0  0  0  0  0  0  0  0  0
   -4.4650    2.3870   -1.3750 C   0  0  0  0  0  0  0  0  0  0  0  0
   -4.4570    3.4550   -2.2170 F   0  0  0  0  0  0  0  0  0  0  0  0
   -5.5990    1.8580   -0.7950 C   0  0  0  0  0  0  0  0  0  0  0  0
   -7.2630    2.3920   -0.9760 S   0  0  2  0  0  0  0  0  0  0  0  0
   -7.6920    3.6080    0.2470 C   0  0  0  0  0  0  0  0  0  0  0  0
   -8.1980    1.2140   -0.8750 O   0  0  0  0  0  0  0  0  0  0  0  0
   -7.4020    3.0410   -2.3330 O   0  0  0  0  0  0  0  0  0  0  0  0
  1  2  1  0
  2  3  2  0
  2  4  1  0
  4  5  2  0
  4 33  1  0
  5  6  1  0
  5 30  1  0
  6  7  1  0
  7  8  1  0
  8  9  1  6
  8 12  1  0
  9 10  1  0
 10 11  1  0
 12 13  2  0
 12 14  1  0
 14 15  1  0
 15 16  1  0
 15 28  2  0
 16 17  2  0
 17 18  1  0
 17 26  1  0
 18 19  2  0
 18 24  1  0
 19 20  1  0
 20 21  1  0
 20 22  2  0
 22 23  1  0
 23 24  2  0
 24 25  1  0
 25 26  2  0
 26 27  1  0
 27 28  1  0
 28 29  1  0
 30 31  1  0
 31 32  1  0
 31 33  2  0
 33 34  1  0
 34 35  1  1
 34 36  2  0
 34 37  2  0
M  CHG  2   7   1  11   1
M  END
