
     RDKit          3D

 37 40  0  0  0  0  0  0  0  0999 V2000
    5.3170    3.3980    2.9030 C   0  0  0  0  0  0  0  0  0  0  0  0
    4.6320    2.3470    3.5470 O   0  0  0  0  0  0  0  0  0  0  0  0
    4.0230    1.3080    2.8800 C   0  0  0  0  0  0  0  0  0  0  0  0
    3.3830    0.3360    3.6160 C   0  0  0  0  0  0  0  0  0  0  0  0
    2.7640   -0.7190    2.9330 C   0  0  0  0  0  0  0  0  0  0  0  0
    2.7890   -0.7900    1.5550 C   0  0  0  0  0  0  0  0  0  0  0  0
    3.4340    0.1920    0.8230 C   0  0  0  0  0  0  0  0  0  0  0  0
    3.4840    0.1580   -0.5950 N   0  0  0  0  0  0  0  0  0  0  0  0
    2.8570   -0.9040   -1.3360 C   0  0  0  0  0  0  0  0  0  0  0  0
    3.5340   -2.0600   -1.6570 C   0  0  0  0  0  0  0  0  0  0  0  0
    4.9220   -2.2640   -1.2620 C   0  0  0  0  0  0  0  0  0  0  0  0
    5.6500   -3.4300   -1.5710 N   0  0  0  0  0  0  0  0  0  0  0  0
    5.4890   -1.3500   -0.6160 O   0  0  0  0  0  0  0  0  0  0  0  0
    2.8570   -3.0460   -2.3740 C   0  0  0  0  0  0  0  0  0  0  0  0
    1.5790   -2.9140   -2.7630 N   0  0  0  0  0  0  0  0  0  0  0  0
    0.9010   -1.7980   -2.4620 C   0  0  0  0  0  0  0  0  0  0  0  0
   -0.4080   -1.6670   -2.8630 C   0  0  0  0  0  0  0  0  0  0  0  0
   -1.0500   -2.7500   -3.6140 C   0  0  0  0  0  0  0  0  0  0  0  0
   -1.0930   -0.5220   -2.5500 C   0  0  0  0  0  0  0  0  0  0  0  0
   -0.4790    0.4930   -1.8420 C   0  0  0  0  0  0  0  0  0  0  0  0
   -1.3640    1.9600   -1.4440 S   0  0  2  0  0  0  0  0  0  0  0  0
   -2.3580    2.1910   -2.5490 O   0  0  0  0  0  0  0  0  0  0  0  0
   -0.3560    3.0800   -1.3860 O   0  0  0  0  0  0  0  0  0  0  0  0
   -2.1320    1.7950    0.0980 C   0  0  0  0  0  0  0  0  0  0  0  0
   -1.5140    2.1680    1.2550 C   0  0  0  0  0  0  0  0  0  0  0  0
   -2.1550    2.0250    2.4760 C   0  0  0  0  0  0  0  0  0  0  0  0
   -3.4080    1.5070    2.4940 C   0  0  0  0  0  0  0  0  0  0  0  0
   -4.1080    1.1000    1.3360 C   0  0  0  0  0  0  0  0  0  0  0  0
   -5.4400    0.5500    1.4740 C   0  0  0  0  0  0  0  0  0  0  0  0
   -5.8580    0.4410    2.7140 O   0  0  0  0  0  0  0  0  0  0  0  0
   -6.3530    0.1180    0.5260 N   0  0  0  0  0  0  0  0  0  0  0  0
   -7.6520   -0.4140    1.0210 C   0  0  0  0  0  0  0  0  0  0  0  0
   -6.1870    0.1380   -0.8840 C   0  0  0  0  0  0  0  0  0  0  0  0
   -3.4140    1.2700    0.1650 C   0  0  0  0  0  0  0  0  0  0  0  0
    0.8300    0.3460   -1.4490 C   0  0  0  0  0  0  0  0  0  0  0  0
    1.5490   -0.7930   -1.7460 C   0  0  0  0  0  0  0  0  0  0  0  0
    4.0400    1.2250    1.5060 C   0  0  0  0  0  0  0  0  0  0  0  0
  1  2  1  0
  2  3  1  0
  3  4  2  0
  3 37  1  0
  4  5  1  0
  5  6  2  0
  6  7  1  0
  7  8  1  0
  7 37  2  0
  8  9  1  0
  9 10  2  0
  9 36  1  0
 10 11  1  0
 10 14  1  0
 11 12  1  0
 11 13  2  0
 14 15  2  0
 15 16  1  0
 16 17  2  0
 16 36  1  0
 17 18  1  0
 17 19  1  0
 19 20  2  0
 21 20  1  6
 20 35  1  0
 21 22  2  0
 21 23  2  0
 21 24  1  0
 24 25  2  0
 24 34  1  0
 25 26  1  0
 26 27  2  0
 27 28  1  0
 28 29  1  0
 28 34  2  0
 29 30  2  0
 29 31  1  0
 31 32  1  0
 31 33  1  0
 35 36  2  0
M  END
