
     RDKit          3D

 36 39  0  0  0  0  0  0  0  0999 V2000
    1.0780   -3.2540    2.6300 C   0  0  0  0  0  0  0  0  0  0  0  0
    1.4730   -2.0300    2.1020 O   0  0  0  0  0  0  0  0  0  0  0  0
    0.6240   -1.0380    1.6710 C   0  0  0  0  0  0  0  0  0  0  0  0
   -0.7480   -1.2960    1.7800 C   0  0  0  0  0  0  0  0  0  0  0  0
   -1.6550   -0.3550    1.3710 C   0  0  0  0  0  0  0  0  0  0  0  0
   -1.2900    0.8640    0.8450 C   0  0  0  0  0  0  0  0  0  0  0  0
   -2.1940    1.8110    0.4330 O   0  0  0  0  0  0  0  0  0  0  0  0
   -2.5980    2.1970   -0.8010 C   0  0  0  0  0  0  0  0  0  0  0  0
   -2.3580    3.5520   -1.1040 C   0  0  0  0  0  0  0  0  0  0  0  0
   -2.7380    4.0280   -2.3280 C   0  0  0  0  0  0  0  0  0  0  0  0
   -3.3540    3.1740   -3.2530 C   0  0  0  0  0  0  0  0  0  0  0  0
   -3.5770    1.8550   -2.9330 C   0  0  0  0  0  0  0  0  0  0  0  0
   -3.1920    1.3760   -1.6980 C   0  0  0  0  0  0  0  0  0  0  0  0
   -3.4160   -0.0710   -1.3770 C   0  0  0  0  0  0  0  0  0  0  0  0
   -2.4540   -0.9570   -1.7430 C   0  0  0  0  0  0  0  0  0  0  0  0
   -1.1600   -0.8630   -2.4160 C   0  0  0  0  0  0  0  0  0  0  0  0
   -3.1830   -2.5720   -1.1460 S   0  0  0  0  0  0  0  0  0  0  0  0
   -4.6650   -1.8310   -0.4950 C   0  0  0  0  0  0  0  0  0  0  0  0
   -5.7620   -2.4060    0.1450 C   0  0  0  0  0  0  0  0  0  0  0  0
   -5.8240   -3.6380    0.3500 O   0  0  0  0  0  0  0  0  0  0  0  0
   -6.7880   -1.6120    0.5570 N   0  0  0  0  0  0  0  0  0  0  0  0
   -6.6370   -0.3050    0.2970 C   0  0  0  0  0  0  0  0  0  0  0  0
   -7.7380    0.6080    0.7300 C   0  0  0  0  0  0  0  0  0  0  0  0
   -5.5940    0.2500   -0.3130 N   0  0  0  0  0  0  0  0  0  0  0  0
   -4.5200   -0.5320   -0.7500 C   0  0  0  0  0  0  0  0  0  0  0  0
    0.0770    1.0860    0.7520 C   0  0  0  0  0  0  0  0  0  0  0  0
    1.0390    0.1510    1.1590 C   0  0  0  0  0  0  0  0  0  0  0  0
    2.4460    0.4960    1.0160 C   0  0  0  0  0  0  0  0  0  0  0  0
    2.7270    1.6450    0.5220 O   0  0  0  0  0  0  0  0  0  0  0  0
    3.5380   -0.3100    1.3670 N   0  0  0  0  0  0  0  0  0  0  0  0
    4.9220    0.0950    1.1960 C   0  0  0  0  0  0  0  0  0  0  0  0
    5.2940    0.3740   -0.2420 C   0  0  0  0  0  0  0  0  0  0  0  0
    6.6920    0.7670   -0.3000 N   0  0  0  0  0  0  0  0  0  0  0  0
    7.7520   -0.1200   -0.0160 C   0  0  0  0  0  0  0  0  0  0  0  0
    7.5700   -1.3910    0.0040 N   0  0  0  0  0  0  0  0  0  0  0  0
    9.0480    0.4440    0.2510 N   0  0  0  0  0  0  0  0  0  0  0  0
  1  2  1  0
  2  3  1  0
  3  4  2  0
  3 27  1  0
  4  5  1  0
  5  6  2  0
  6  7  1  0
  6 26  1  0
  7  8  1  0
  8  9  2  0
  8 13  1  0
  9 10  1  0
 10 11  2  0
 11 12  1  0
 12 13  2  0
 13 14  1  0
 14 15  2  0
 14 25  1  0
 15 16  1  0
 15 17  1  0
 17 18  1  0
 18 19  1  0
 18 25  2  0
 19 20  2  0
 19 21  1  0
 21 22  1  0
 22 23  1  0
 22 24  2  0
 24 25  1  0
 26 27  2  0
 27 28  1  0
 28 29  2  0
 28 30  1  0
 30 31  1  0
 31 32  1  0
 32 33  1  0
 33 34  1  0
 34 35  2  0
 34 36  1  0
M  CHG  2  35   1  36   1
M  END
