
     RDKit          3D

 37 40  0  0  0  0  0  0  0  0999 V2000
    7.1960    2.9250    0.8690 C   0  0  0  0  0  0  0  0  0  0  0  0
    7.4220    1.9920   -0.2950 C   0  0  0  0  0  0  0  0  0  0  0  0
    6.4260    1.0160   -0.3340 N   0  0  0  0  0  0  0  0  0  0  0  0
    5.0290    1.1120   -0.3650 C   0  0  0  0  0  0  0  0  0  0  0  0
    4.3070    0.1580    0.3280 C   0  0  0  0  0  0  0  0  0  0  0  0
    2.9390   -0.0030    0.1730 C   0  0  0  0  0  0  0  0  0  0  0  0
    2.2580    0.7960   -0.7300 C   0  0  0  0  0  0  0  0  0  0  0  0
    0.7930    0.5080   -0.8980 O   0  0  0  0  0  0  0  0  0  0  0  0
    0.6980   -0.9590   -0.8190 C   0  0  0  0  0  0  0  0  0  0  0  0
    1.7680   -1.7580   -1.0710 C   0  0  0  0  0  0  0  0  0  0  0  0
    1.6380   -3.1070   -0.9310 C   0  0  0  0  0  0  0  0  0  0  0  0
    0.4760   -3.7200   -0.5730 C   0  0  0  0  0  0  0  0  0  0  0  0
   -0.6420   -2.8340   -0.3080 C   0  0  0  0  0  0  0  0  0  0  0  0
   -1.8550   -3.4970   -0.0280 N   0  0  0  0  0  0  0  0  0  0  0  0
   -2.0110   -5.0580    0.6170 S   0  0  2  0  0  0  0  0  0  0  0  0
   -1.3210   -6.3460   -0.4140 C   0  0  0  0  0  0  0  0  0  0  0  0
   -3.5150   -5.3280    0.8000 O   0  0  0  0  0  0  0  0  0  0  0  0
   -1.3640   -5.1270    1.9600 O   0  0  0  0  0  0  0  0  0  0  0  0
   -0.5230   -1.4970   -0.4270 C   0  0  0  0  0  0  0  0  0  0  0  0
   -1.6380   -0.5170   -0.2970 C   0  0  0  0  0  0  0  0  0  0  0  0
   -1.8470   -0.4120    1.1280 N   0  0  0  0  0  0  0  0  0  0  0  0
   -2.2600    0.9380    1.5860 C   0  0  1  0  0  0  0  0  0  0  0  0
   -2.6280    0.7030    3.0250 C   0  0  0  0  0  0  0  0  0  0  0  0
   -0.9660    1.7000    1.3660 C   0  0  0  0  0  0  0  0  0  0  0  0
    0.0480    1.5000    2.0280 O   0  0  0  0  0  0  0  0  0  0  0  0
   -1.2730    2.6490    0.3120 N   0  0  0  0  0  0  0  0  0  0  0  0
   -2.6810    2.5640    0.0050 C   0  0  0  0  0  0  0  0  0  0  0  0
   -3.3150    3.3120   -0.8440 N   0  0  0  0  0  0  0  0  0  0  0  0
   -4.7710    3.1660   -1.0280 C   0  0  0  0  0  0  0  0  0  0  0  0
   -5.4070    3.8640   -1.8050 N   0  0  0  0  0  0  0  0  0  0  0  0
   -5.3900    2.1400   -0.1490 C   0  0  0  0  0  0  0  0  0  0  0  0
   -6.7700    2.3920    0.0870 C   0  0  0  0  0  0  0  0  0  0  0  0
   -7.3730    3.4200   -0.4480 F   0  0  0  0  0  0  0  0  0  0  0  0
   -4.6460    1.3520    0.7470 C   0  0  0  0  0  0  0  0  0  0  0  0
   -3.2860    1.5890    0.8040 C   0  0  0  0  0  0  0  0  0  0  0  0
    2.8960    1.7730   -1.4360 C   0  0  0  0  0  0  0  0  0  0  0  0
    4.2710    1.8810   -1.1910 C   0  0  0  0  0  0  0  0  0  0  0  0
  1  2  1  0
  2  3  1  0
  3  4  1  0
  4  5  2  0
  4 37  1  0
  5  6  1  0
  6  7  2  0
  7  8  1  0
  7 36  1  0
  8  9  1  0
  9 10  2  0
  9 19  1  0
 10 11  1  0
 11 12  2  0
 12 13  1  0
 13 14  1  0
 13 19  2  0
 14 15  1  0
 15 16  1  6
 15 17  2  0
 15 18  2  0
 19 20  1  0
 20 21  1  0
 21 22  1  0
 22 23  1  1
 22 24  1  0
 22 35  1  0
 24 25  2  0
 24 26  1  0
 26 27  1  0
 27 28  2  0
 27 35  1  0
 28 29  1  0
 29 30  2  0
 29 31  1  0
 31 32  2  3
 31 34  1  0
 32 33  1  0
 34 35  2  0
 36 37  2  0
M  CHG  2  21   1  30   1
M  END
