
     RDKit          3D

 37 40  0  0  0  0  0  0  0  0999 V2000
   -6.5850   -0.7700   -2.4040 N   0  0  0  0  0  0  0  0  0  0  0  0
   -6.9300   -0.7710   -1.0250 C   0  0  0  0  0  0  0  0  0  0  0  0
   -6.5830    0.4400   -0.2320 C   0  0  0  0  0  0  0  0  0  0  0  0
   -7.4190    1.5350   -0.2340 C   0  0  0  0  0  0  0  0  0  0  0  0
   -7.2440    2.5480    0.6920 C   0  0  0  0  0  0  0  0  0  0  0  0
   -6.2570    2.5040    1.6010 C   0  0  0  0  0  0  0  0  0  0  0  0
   -6.1280    3.5540    2.5340 O   0  0  0  0  0  0  0  0  0  0  0  0
   -5.4070    1.4380    1.6140 C   0  0  0  0  0  0  0  0  0  0  0  0
   -5.5480    0.3660    0.6900 C   0  0  0  0  0  0  0  0  0  0  0  0
   -4.7100   -0.5990    0.7390 O   0  0  0  0  0  0  0  0  0  0  0  0
   -4.2390   -1.8150    0.8270 C   0  0  0  0  0  0  0  0  0  0  0  0
   -4.9080   -2.9770    0.9500 C   0  0  0  0  0  0  0  0  0  0  0  0
   -4.2960   -4.2280    1.0220 C   0  0  0  0  0  0  0  0  0  0  0  0
   -2.9360   -4.2700    0.9610 C   0  0  0  0  0  0  0  0  0  0  0  0
   -2.1450   -3.1030    0.8330 C   0  0  0  0  0  0  0  0  0  0  0  0
   -2.8080   -1.8950    0.7720 C   0  0  0  0  0  0  0  0  0  0  0  0
   -2.0610   -0.6980    0.7770 N   0  0  0  0  0  0  0  0  0  0  0  0
   -0.6580   -0.5250    0.4730 C   0  0  0  0  0  0  0  0  0  0  0  0
   -0.0370   -1.5010    0.0980 O   0  0  0  0  0  0  0  0  0  0  0  0
   -0.0220    0.8130    0.6350 C   0  0  0  0  0  0  0  0  0  0  0  0
    0.9850    1.2360   -0.2890 N   0  0  0  0  0  0  0  0  0  0  0  0
    2.2740    1.1500   -0.3570 N   0  0  0  0  0  0  0  0  0  0  0  0
    2.8350    1.7810   -1.3660 C   0  0  0  0  0  0  0  0  0  0  0  0
    4.4780    2.1840   -1.8710 S   0  0  0  0  0  0  0  0  0  0  0  0
    5.7990    1.1240   -1.4320 C   0  0  0  0  0  0  0  0  0  0  0  0
    5.9510    0.6580   -0.0290 C   0  0  2  0  0  0  0  0  0  0  0  0
    6.0590    1.6410    0.9880 N   0  0  0  0  0  0  0  0  0  0  0  0
    7.2980   -0.0510   -0.0080 C   0  0  0  0  0  0  0  0  0  0  0  0
    7.3890   -1.4160    0.0250 C   0  0  0  0  0  0  0  0  0  0  0  0
    8.6420   -2.0460    0.0410 C   0  0  0  0  0  0  0  0  0  0  0  0
    9.7880   -1.3060    0.0270 C   0  0  0  0  0  0  0  0  0  0  0  0
   11.0080   -1.9430    0.0580 F   0  0  0  0  0  0  0  0  0  0  0  0
    9.7080    0.0670   -0.0040 C   0  0  0  0  0  0  0  0  0  0  0  0
    8.4470    0.6630   -0.0210 C   0  0  0  0  0  0  0  0  0  0  0  0
    1.7450    2.3340   -2.0370 N   0  0  0  0  0  0  0  0  0  0  0  0
    0.6400    2.0070   -1.4000 C   0  0  0  0  0  0  0  0  0  0  0  0
   -0.5240    2.3040   -1.6850 O   0  0  0  0  0  0  0  0  0  0  0  0
  1  2  1  0
  2  3  1  0
  3  4  2  0
  3  9  1  0
  4  5  1  0
  5  6  2  0
  6  7  1  0
  6  8  1  0
  8  9  2  0
  9 10  1  0
 10 11  1  0
 11 12  2  0
 11 16  1  0
 12 13  1  0
 13 14  2  0
 14 15  1  0
 15 16  2  0
 16 17  1  0
 17 18  1  0
 18 19  2  0
 18 20  1  0
 20 21  1  0
 21 22  1  0
 21 36  1  0
 22 23  2  0
 23 24  1  0
 23 35  1  0
 24 25  1  0
 25 26  1  0
 26 27  1  1
 26 28  1  0
 28 29  2  0
 28 34  1  0
 29 30  1  0
 30 31  2  0
 31 32  1  0
 31 33  1  0
 33 34  2  0
 35 36  1  0
 36 37  2  0
M  CHG  2   1   1  27   1
M  END
