
     RDKit          3D

 36 39  0  0  0  0  0  0  0  0999 V2000
   -6.0340    0.7300   -3.5150 C   0  0  0  0  0  0  0  0  0  0  0  0
   -6.4200    0.9130   -2.0840 C   0  0  0  0  0  0  0  0  0  0  0  0
   -7.7150    1.2790   -1.7430 C   0  0  0  0  0  0  0  0  0  0  0  0
   -8.0890    1.4530   -0.4260 C   0  0  0  0  0  0  0  0  0  0  0  0
   -7.1900    1.2700    0.6010 C   0  0  0  0  0  0  0  0  0  0  0  0
   -7.6550    1.4880    2.2740 Cl  0  0  0  0  0  0  0  0  0  0  0  0
   -5.8850    0.8990    0.2330 C   0  0  0  0  0  0  0  0  0  0  0  0
   -4.9420    0.7040    1.2480 N   0  0  0  0  0  0  0  0  0  0  0  0
   -3.5780    0.3320    1.1230 C   0  0  0  0  0  0  0  0  0  0  0  0
   -2.9290    0.0820   -0.0400 C   0  0  0  0  0  0  0  0  0  0  0  0
   -1.5840   -0.2790   -0.0720 C   0  0  0  0  0  0  0  0  0  0  0  0
   -0.7950   -0.5890   -1.6020 Cl  0  0  0  0  0  0  0  0  0  0  0  0
   -0.8570   -0.3970    1.0860 C   0  0  0  0  0  0  0  0  0  0  0  0
    0.4990   -0.7590    1.0660 O   0  0  0  0  0  0  0  0  0  0  0  0
    0.9650   -2.0340    1.1660 C   0  0  0  0  0  0  0  0  0  0  0  0
   -0.0050   -2.8990    1.2880 O   0  0  0  0  0  0  0  0  0  0  0  0
    2.3040   -2.5450    1.1610 C   0  0  0  0  0  0  0  0  0  0  0  0
    2.4590   -3.9370    1.3090 C   0  0  0  0  0  0  0  0  0  0  0  0
    3.7040   -4.5120    1.3310 C   0  0  0  0  0  0  0  0  0  0  0  0
    4.8280   -3.7430    1.2070 C   0  0  0  0  0  0  0  0  0  0  0  0
    4.6910   -2.3710    1.0600 C   0  0  0  0  0  0  0  0  0  0  0  0
    3.4250   -1.7630    1.0350 C   0  0  0  0  0  0  0  0  0  0  0  0
    3.2930   -0.3770    0.8670 N   0  0  0  0  0  0  0  0  0  0  0  0
    4.3230    0.5910    0.7720 C   0  0  0  0  0  0  0  0  0  0  0  0
    5.5100    0.2490    0.8380 O   0  0  0  0  0  0  0  0  0  0  0  0
    4.0270    2.0390    0.5910 C   0  0  0  0  0  0  0  0  0  0  0  0
    5.5790    2.9500    0.4840 S   0  0  0  0  0  0  0  0  0  0  0  0
    6.4980    2.5530   -0.9910 C   0  0  0  0  0  0  0  0  0  0  0  0
    6.3460    3.1940   -2.1790 N   0  0  0  0  0  0  0  0  0  0  0  0
    7.1880    2.6320   -3.0510 C   0  0  0  0  0  0  0  0  0  0  0  0
    7.8500    1.6590   -2.4120 N   0  0  0  0  0  0  0  0  0  0  0  0
    7.4370    1.6050   -1.1600 N   0  0  0  0  0  0  0  0  0  0  0  0
   -1.5150   -0.1440    2.2650 C   0  0  0  0  0  0  0  0  0  0  0  0
   -2.8370    0.2100    2.2940 C   0  0  0  0  0  0  0  0  0  0  0  0
   -3.5940    0.5110    3.8520 Cl  0  0  0  0  0  0  0  0  0  0  0  0
   -5.5740    0.7430   -1.0620 N   0  0  0  0  0  0  0  0  0  0  0  0
  1  2  1  0
  2  3  2  0
  2 36  1  0
  3  4  1  0
  4  5  2  0
  5  6  1  0
  5  7  1  0
  7  8  1  0
  7 36  2  0
  8  9  1  0
  9 10  2  0
  9 34  1  0
 10 11  1  0
 11 12  1  0
 11 13  2  0
 13 14  1  0
 13 33  1  0
 14 15  1  0
 15 16  2  0
 15 17  1  0
 17 18  2  0
 17 22  1  0
 18 19  1  0
 19 20  2  0
 20 21  1  0
 21 22  2  0
 22 23  1  0
 23 24  1  0
 24 25  2  0
 24 26  1  0
 26 27  1  0
 27 28  1  0
 28 29  2  0
 28 32  1  0
 29 30  1  0
 30 31  2  0
 31 32  1  0
 33 34  2  0
 34 35  1  0
M  END
