
     RDKit          3D

 36 39  0  0  0  0  0  0  0  0999 V2000
   -4.1990   -0.3910    3.6140 C   0  0  0  0  0  0  0  0  0  0  0  0
   -4.9100   -1.4460    3.5020 C   0  0  0  0  0  0  0  0  0  0  0  0
   -5.4930   -2.2560    4.9360 Cl  0  0  0  0  0  0  0  0  0  0  0  0
   -5.1860   -2.0290    2.1570 C   0  0  0  0  0  0  0  0  0  0  0  0
   -5.9110   -3.0350    1.9590 C   0  0  0  0  0  0  0  0  0  0  0  0
   -6.6130   -3.8150    2.9970 C   0  0  0  0  0  0  0  0  0  0  0  0
   -6.1350   -3.6030    0.2840 Cl  0  0  0  0  0  0  0  0  0  0  0  0
   -4.4860   -1.3070    1.0600 C   0  0  0  0  0  0  0  0  0  0  0  0
   -4.9170   -0.6340    0.0130 N   0  0  0  0  0  0  0  0  0  0  0  0
   -3.8910   -0.1160   -0.7410 C   0  0  0  0  0  0  0  0  0  0  0  0
   -4.0180    0.6600   -1.9690 C   0  0  0  0  0  0  0  0  0  0  0  0
   -3.6120    1.9880   -1.9730 C   0  0  0  0  0  0  0  0  0  0  0  0
   -3.7260    2.8110   -3.1000 C   0  0  0  0  0  0  0  0  0  0  0  0
   -3.3110    4.1260   -3.0700 O   0  0  0  0  0  0  0  0  0  0  0  0
   -4.2730    2.2590   -4.2480 C   0  0  0  0  0  0  0  0  0  0  0  0
   -4.6780    0.9660   -4.2670 C   0  0  0  0  0  0  0  0  0  0  0  0
   -4.5550    0.1540   -3.1290 C   0  0  0  0  0  0  0  0  0  0  0  0
   -5.0880   -1.5030   -3.1690 Cl  0  0  0  0  0  0  0  0  0  0  0  0
   -2.7450   -0.5070   -0.0990 C   0  0  0  0  0  0  0  0  0  0  0  0
   -1.3240   -0.2520   -0.3910 C   0  0  0  0  0  0  0  0  0  0  0  0
   -0.7370    1.0000    0.1630 C   0  0  0  0  0  0  0  0  0  0  0  0
    0.7120    1.0520   -0.1530 N   0  0  0  0  0  0  0  0  0  0  0  0
    1.5870    0.4640    0.6860 C   0  0  0  0  0  0  0  0  0  0  0  0
    2.8510    0.6960    0.1380 C   0  0  0  0  0  0  0  0  0  0  0  0
    4.0400    0.2170    0.7620 N   0  0  0  0  0  0  0  0  0  0  0  0
    5.3320   -0.4710   -0.1400 S   0  0  1  0  0  0  0  0  0  0  0  0
    5.7100   -1.8250    0.3380 O   0  0  0  0  0  0  0  0  0  0  0  0
    4.9640   -0.4220   -1.5980 O   0  0  0  0  0  0  0  0  0  0  0  0
    6.7350    0.5840    0.0310 N   0  0  0  0  0  0  0  0  0  0  0  0
    7.0820    0.6220    1.4430 C   0  0  0  0  0  0  0  0  0  0  0  0
    8.5410    0.9000    1.4590 C   0  0  0  0  0  0  0  0  0  0  0  0
    9.0700    0.2210    0.2240 C   0  0  0  0  0  0  0  0  0  0  0  0
    7.8740   -0.0940   -0.5970 C   0  0  0  0  0  0  0  0  0  0  0  0
    2.6530    1.4120   -1.0050 C   0  0  0  0  0  0  0  0  0  0  0  0
    1.3220    1.6210   -1.1650 N   0  0  0  0  0  0  0  0  0  0  0  0
   -3.1340   -1.2310    0.9940 N   0  0  0  0  0  0  0  0  0  0  0  0
  1  2  2  0
  2  3  1  0
  2  4  1  0
  4  5  2  3
  4  8  1  0
  5  6  1  0
  5  7  1  0
  8  9  2  0
  8 36  1  0
  9 10  1  0
 10 11  1  0
 10 19  2  0
 11 12  2  0
 11 17  1  0
 12 13  1  0
 13 14  1  0
 13 15  2  0
 15 16  1  0
 16 17  2  0
 17 18  1  0
 19 20  1  0
 19 36  1  0
 20 21  1  0
 21 22  1  0
 22 23  1  0
 22 35  1  0
 23 24  2  0
 24 25  1  0
 24 34  1  0
 26 25  1  1
 26 27  2  0
 26 28  2  0
 26 29  1  0
 29 30  1  0
 29 33  1  0
 30 31  1  0
 31 32  1  0
 32 33  1  0
 34 35  2  0
M  END
