
     RDKit          3D

 21 22  0  0  0  0  0  0  0  0999 V2000
    1.0300    4.9220    0.3640 C   0  0  0  0  0  0  0  0  0  0  0  0
    0.7290    3.6770    0.7140 C   0  0  0  0  0  0  0  0  0  0  0  0
    1.4100    2.5500    0.2230 N   0  0  0  0  0  0  0  0  0  0  0  0
    0.7530    1.2710    0.2720 C   0  0  0  0  0  0  0  0  0  0  0  0
   -0.1870    1.0480   -0.6180 C   0  0  0  0  0  0  0  0  0  0  0  0
   -0.4750    2.0830   -1.5620 N   0  0  0  0  0  0  0  0  0  0  0  0
   -0.9590   -0.1850   -0.6060 C   0  0  2  0  0  0  0  0  0  0  0  0
   -1.1790   -0.5950   -2.0590 C   0  0  0  0  0  0  0  0  0  0  0  0
   -2.4320    0.0400   -2.6040 C   0  0  0  0  0  0  0  0  0  0  0  0
   -3.6440   -0.6680   -2.0250 C   0  0  0  0  0  0  0  0  0  0  0  0
   -3.2570   -1.0380   -0.6000 C   0  0  0  0  0  0  0  0  0  0  0  0
   -2.3920    0.0850   -0.0830 C   0  0  0  0  0  0  0  0  0  0  0  0
   -0.4170   -1.2740    0.2030 C   0  0  0  0  0  0  0  0  0  0  0  0
    0.6460   -0.9120    1.1730 C   0  0  0  0  0  0  0  0  0  0  0  0
    1.1120   -1.8430    2.0780 N   0  0  0  0  0  0  0  0  0  0  0  0
    2.1090   -2.2110    2.6800 C   0  0  0  0  0  0  0  0  0  0  0  0
    2.1050   -3.3380    3.6160 N   0  0  0  0  0  0  0  0  0  0  0  0
    3.3760   -1.5440    2.4630 N   0  0  0  0  0  0  0  0  0  0  0  0
    3.6000   -1.0390    1.1410 C   0  0  0  0  0  0  0  0  0  0  0  0
    3.1770   -1.7610    0.1580 N   0  0  0  0  0  0  0  0  0  0  0  0
    1.1680    0.2750    1.1790 N   0  0  0  0  0  0  0  0  0  0  0  0
  1  2  2  0
  2  3  1  0
  3  4  1  0
  4  5  2  0
  4 21  1  0
  5  6  1  0
  5  7  1  0
  7  8  1  6
  7 12  1  0
  7 13  1  0
  8  9  1  0
  9 10  1  0
 10 11  1  0
 11 12  1  0
 13 14  1  0
 14 15  1  0
 14 21  2  0
 15 16  2  3
 16 17  1  0
 16 18  1  0
 18 19  1  0
 19 20  2  0
M  CHG  1  20   1
M  END
