
     RDKit          3D

 21 22  0  0  0  0  0  0  0  0999 V2000
    6.1480    1.5140   -0.7610 C   0  0  0  0  0  0  0  0  0  0  0  0
    5.3960    1.1480    0.4970 C   0  0  0  0  0  0  0  0  0  0  0  0
    4.6610   -0.0900    0.3670 N   0  0  0  0  0  0  0  0  0  0  0  0
    5.4090   -1.3300    0.2460 C   0  0  0  0  0  0  0  0  0  0  0  0
    3.2520   -0.1250    0.3570 C   0  0  0  0  0  0  0  0  0  0  0  0
    2.5850   -1.3190    0.2250 C   0  0  0  0  0  0  0  0  0  0  0  0
    1.2070   -1.2880    0.2270 C   0  0  0  0  0  0  0  0  0  0  0  0
    0.5040   -2.4740    0.0970 C   0  0  0  0  0  0  0  0  0  0  0  0
   -0.8770   -2.4240    0.1040 C   0  0  0  0  0  0  0  0  0  0  0  0
   -1.5830   -1.2460    0.2330 C   0  0  0  0  0  0  0  0  0  0  0  0
   -3.0250   -1.2430    0.2410 N   0  0  0  0  0  0  0  0  0  0  0  0
   -3.8000   -0.0540    0.3680 C   0  0  2  0  0  0  0  0  0  0  0  0
   -5.2650   -0.4420    0.3980 C   0  0  0  0  0  0  0  0  0  0  0  0
   -6.0410    0.7600    0.5280 N   0  0  0  0  0  0  0  0  0  0  0  0
   -3.5180    0.9790   -0.6940 C   0  0  0  0  0  0  0  0  0  0  0  0
   -3.7800    0.4950   -2.0260 N   0  0  0  0  0  0  0  0  0  0  0  0
   -0.8670   -0.1170    0.3550 N   0  0  0  0  0  0  0  0  0  0  0  0
    0.4820   -0.1170    0.3550 C   0  0  0  0  0  0  0  0  0  0  0  0
    1.1990    1.0610    0.4850 C   0  0  0  0  0  0  0  0  0  0  0  0
    0.4980    2.2920    0.6190 N   0  0  0  0  0  0  0  0  0  0  0  0
    2.5470    1.0340    0.4840 N   0  0  0  0  0  0  0  0  0  0  0  0
  1  2  1  0
  2  3  1  0
  3  4  1  0
  3  5  1  0
  5  6  2  0
  5 21  1  0
  6  7  1  0
  7  8  2  0
  7 18  1  0
  8  9  1  0
  9 10  2  0
 10 11  1  0
 10 17  1  0
 11 12  1  0
 12 13  1  6
 12 15  1  0
 13 14  1  0
 15 16  1  0
 17 18  2  0
 18 19  1  0
 19 20  1  0
 19 21  2  0
M  CHG  2  14   1  16   1
M  END
