
     RDKit          3D

 21 22  0  0  0  0  0  0  0  0999 V2000
   -0.0020   -1.9390    0.0570 C   0  0  0  0  0  0  0  0  0  0  0  0
   -0.6530   -0.6210    0.0430 C   0  0  0  0  0  0  0  0  0  0  0  0
    0.1180    0.4950    0.0150 C   0  0  0  0  0  0  0  0  0  0  0  0
    1.5680    0.5790   -0.0840 C   0  0  0  0  0  0  0  0  0  0  0  0
    2.0880    1.9360    0.1680 N   0  0  0  0  0  0  0  0  0  0  0  0
    2.4790   -0.2850   -0.3140 C   0  0  0  0  0  0  0  0  0  0  0  0
    3.9200    0.1020   -0.3560 C   0  0  0  0  0  0  0  0  0  0  0  0
    4.3270    1.2220   -1.0220 C   0  0  0  0  0  0  0  0  0  0  0  0
    5.6840    1.5350   -1.0030 C   0  0  0  0  0  0  0  0  0  0  0  0
    6.5140    0.7270   -0.3390 N   0  0  0  0  0  0  0  0  0  0  0  0
    6.0970   -0.3600    0.3030 N   0  0  0  0  0  0  0  0  0  0  0  0
    4.8210   -0.7220    0.3300 C   0  0  0  0  0  0  0  0  0  0  0  0
    4.3120   -1.8750    0.9990 N   0  0  0  0  0  0  0  0  0  0  0  0
   -0.5690    1.6900    0.0210 N   0  0  0  0  0  0  0  0  0  0  0  0
   -1.8840    1.8050    0.0490 C   0  0  0  0  0  0  0  0  0  0  0  0
   -2.6560    0.6380    0.0740 C   0  0  0  0  0  0  0  0  0  0  0  0
   -4.1160    0.8580    0.0420 C   0  0  0  0  0  0  0  0  0  0  0  0
   -4.4420    2.2880    0.0910 N   0  0  0  0  0  0  0  0  0  0  0  0
   -2.0780   -0.5950    0.0750 C   0  0  0  0  0  0  0  0  0  0  0  0
   -2.7600   -1.8780    0.1540 C   0  0  0  0  0  0  0  0  0  0  0  0
   -4.1630   -1.9750    0.1720 N   0  0  0  0  0  0  0  0  0  0  0  0
  1  2  1  0
  2  3  2  0
  2 19  1  0
  3  4  1  0
  3 14  1  0
  4  5  1  0
  4  6  2  3
  6  7  1  0
  7  8  2  0
  7 12  1  0
  8  9  1  0
  9 10  2  0
 10 11  1  0
 11 12  2  0
 12 13  1  0
 14 15  2  0
 15 16  1  0
 16 17  1  0
 16 19  2  0
 17 18  1  0
 19 20  1  0
 20 21  1  0
M  CHG  2  18   1  21   1
M  END
