
     RDKit          3D

 21 22  0  0  0  0  0  0  0  0999 V2000
    6.6290   -0.1420    1.2230 C   0  0  0  0  0  0  0  0  0  0  0  0
    5.7880    1.0530    1.2920 N   0  0  0  0  0  0  0  0  0  0  0  0
    4.6990    1.0170    2.1180 N   0  0  0  0  0  0  0  0  0  0  0  0
    3.4930    0.8180    1.8110 C   0  0  0  0  0  0  0  0  0  0  0  0
    2.9870    0.5770    0.4760 C   0  0  0  0  0  0  0  0  0  0  0  0
    3.7180    0.5230   -0.6790 C   0  0  0  0  0  0  0  0  0  0  0  0
    2.8470    0.2780   -1.6790 N   0  0  0  0  0  0  0  0  0  0  0  0
    1.6030    0.1770   -1.1920 C   0  0  0  0  0  0  0  0  0  0  0  0
    0.3540   -0.0610   -1.7620 C   0  0  0  0  0  0  0  0  0  0  0  0
   -0.8080   -0.1190   -1.0290 C   0  0  0  0  0  0  0  0  0  0  0  0
   -2.0140   -0.3680   -1.7240 N   0  0  0  0  0  0  0  0  0  0  0  0
   -3.2270   -0.4240   -0.9280 C   0  0  0  0  0  0  0  0  0  0  0  0
   -3.8350    0.7070   -0.6850 C   0  0  0  0  0  0  0  0  0  0  0  0
   -5.0470    0.9300    0.0720 C   0  0  0  0  0  0  0  0  0  0  0  0
   -5.5240    2.1390    0.2190 N   0  0  0  0  0  0  0  0  0  0  0  0
   -3.6060   -1.7400   -0.5060 C   0  0  0  0  0  0  0  0  0  0  0  0
   -4.7620   -1.9400    0.2710 N   0  0  0  0  0  0  0  0  0  0  0  0
   -2.8890   -2.7570   -0.8340 N   0  0  0  0  0  0  0  0  0  0  0  0
   -0.7620    0.0660    0.3400 C   0  0  0  0  0  0  0  0  0  0  0  0
    0.4770    0.3050    0.9210 C   0  0  0  0  0  0  0  0  0  0  0  0
    1.6320    0.3590    0.1720 C   0  0  0  0  0  0  0  0  0  0  0  0
  1  2  1  0
  2  3  1  0
  3  4  2  3
  4  5  1  0
  5  6  2  0
  5 21  1  0
  6  7  1  0
  7  8  1  0
  8  9  2  0
  8 21  1  0
  9 10  1  0
 10 11  1  0
 10 19  2  0
 11 12  1  0
 12 13  2  3
 12 16  1  0
 13 14  1  0
 14 15  2  0
 16 17  1  0
 16 18  2  0
 19 20  1  0
 20 21  2  0
M  CHG  2  15   1  18   1
M  END
