
     RDKit          3D

 21 22  0  0  0  0  0  0  0  0999 V2000
   -5.1820   -0.2190   -1.2520 C   0  0  0  0  0  0  0  0  0  0  0  0
   -5.4810   -1.3930   -0.3950 C   0  0  0  0  0  0  0  0  0  0  0  0
   -4.4940   -2.1240    0.1280 C   0  0  0  0  0  0  0  0  0  0  0  0
   -3.1530   -1.7610   -0.1470 N   0  0  0  0  0  0  0  0  0  0  0  0
   -2.6100   -0.6810    0.2780 C   0  0  0  0  0  0  0  0  0  0  0  0
   -1.2300   -0.3730   -0.0420 C   0  0  0  0  0  0  0  0  0  0  0  0
   -0.6690    0.8050    0.4330 C   0  0  0  0  0  0  0  0  0  0  0  0
   -1.4520    1.7580    1.2640 C   0  0  0  0  0  0  0  0  0  0  0  0
   -0.6350    2.8780    1.6140 N   0  0  0  0  0  0  0  0  0  0  0  0
    0.6460    1.0840    0.1190 C   0  0  0  0  0  0  0  0  0  0  0  0
    1.4350    0.2370   -0.6530 C   0  0  0  0  0  0  0  0  0  0  0  0
    2.7870    0.5950   -0.9350 N   0  0  0  0  0  0  0  0  0  0  0  0
    3.2480    1.4640   -1.8510 C   0  0  0  0  0  0  0  0  0  0  0  0
    4.5760    1.4920   -1.7710 N   0  0  0  0  0  0  0  0  0  0  0  0
    5.0100    0.6540   -0.8140 C   0  0  0  0  0  0  0  0  0  0  0  0
    3.8650    0.0870   -0.2870 C   0  0  0  0  0  0  0  0  0  0  0  0
    3.7960   -0.9030    0.7970 C   0  0  0  0  0  0  0  0  0  0  0  0
    5.1370   -1.2140    1.2500 N   0  0  0  0  0  0  0  0  0  0  0  0
    0.8580   -0.8850   -1.0900 N   0  0  0  0  0  0  0  0  0  0  0  0
   -0.4330   -1.2000   -0.8060 C   0  0  0  0  0  0  0  0  0  0  0  0
   -1.0290   -2.4010   -1.2820 N   0  0  0  0  0  0  0  0  0  0  0  0
  1  2  1  0
  2  3  2  3
  3  4  1  0
  4  5  2  3
  5  6  1  0
  6  7  2  0
  6 20  1  0
  7  8  1  0
  7 10  1  0
  8  9  1  0
 10 11  2  0
 11 12  1  0
 11 19  1  0
 12 13  1  0
 12 16  1  0
 13 14  2  0
 14 15  1  0
 15 16  2  0
 16 17  1  0
 17 18  1  0
 19 20  2  0
 20 21  1  0
M  CHG  2   9   1  18   1
M  END
