
     RDKit          3D

 20 23  0  0  0  0  0  0  0  0999 V2000
    5.7350    0.7910   -0.4000 O   0  0  0  0  0  0  0  0  0  0  0  0
    4.5510    0.4080   -0.3260 C   0  0  0  0  0  0  0  0  0  0  0  0
    3.5170    1.3130   -0.2130 C   0  0  0  0  0  0  0  0  0  0  0  0
    2.2070    0.8860   -0.1320 C   0  0  0  0  0  0  0  0  0  0  0  0
    1.1990    1.8170   -0.0200 C   0  0  0  0  0  0  0  0  0  0  0  0
    1.4600    3.0640    0.0090 O   0  0  0  0  0  0  0  0  0  0  0  0
   -0.0930    1.3350    0.0580 C   0  0  0  0  0  0  0  0  0  0  0  0
   -1.1580    2.2040    0.1720 C   0  0  0  0  0  0  0  0  0  0  0  0
   -2.4280    1.6720    0.2470 C   0  0  0  0  0  0  0  0  0  0  0  0
   -2.6750    0.3080    0.2130 C   0  0  0  0  0  0  0  0  0  0  0  0
   -3.9630   -0.2030    0.2900 C   0  0  0  0  0  0  0  0  0  0  0  0
   -4.2220   -1.5580    0.2570 C   0  0  0  0  0  0  0  0  0  0  0  0
   -3.1450   -2.4130    0.1430 C   0  0  0  0  0  0  0  0  0  0  0  0
   -1.8550   -1.9210    0.0650 C   0  0  0  0  0  0  0  0  0  0  0  0
   -1.6040   -0.5570    0.0990 C   0  0  0  0  0  0  0  0  0  0  0  0
   -0.3250   -0.0370    0.0230 C   0  0  0  0  0  0  0  0  0  0  0  0
    0.6680   -0.9000   -0.0850 O   0  0  0  0  0  0  0  0  0  0  0  0
    1.9050   -0.4670   -0.1610 C   0  0  0  0  0  0  0  0  0  0  0  0
    2.9860   -1.3290   -0.2760 C   0  0  0  0  0  0  0  0  0  0  0  0
    4.2450   -0.9000   -0.3540 N   0  0  0  0  0  0  0  0  0  0  0  0
  1  2  2  0
  2  3  1  0
  2 20  1  0
  3  4  2  0
  4  5  1  0
  4 18  1  0
  5  6  2  0
  5  7  1  0
  7  8  2  0
  7 16  1  0
  8  9  1  0
  9 10  2  0
 10 11  1  0
 10 15  1  0
 11 12  2  0
 12 13  1  0
 13 14  2  0
 14 15  1  0
 15 16  2  0
 16 17  1  0
 17 18  1  0
 18 19  2  0
 19 20  1  0
M  END
