
     RDKit          3D

 19 19  0  0  0  0  0  0  0  0999 V2000
   -5.2950    1.2880    2.3240 N   0  0  0  0  0  0  0  0  0  0  0  0
   -4.1360    1.5780    1.6320 O   0  0  0  0  0  0  0  0  0  0  0  0
   -3.2160    0.5980    1.2850 C   0  0  0  0  0  0  0  0  0  0  0  0
   -3.4650   -0.5640    1.6170 O   0  0  0  0  0  0  0  0  0  0  0  0
   -2.0360    1.0020    0.5620 C   0  0  0  0  0  0  0  0  0  0  0  0
   -1.1590   -0.0850   -0.0480 C   0  0  2  0  0  0  0  0  0  0  0  0
   -0.0870    0.6490   -0.5950 O   0  0  0  0  0  0  0  0  0  0  0  0
    1.1120    0.4460    0.0330 C   0  0  2  0  0  0  0  0  0  0  0  0
    1.6320    1.6850    0.7380 C   0  0  0  0  0  0  0  0  0  0  0  0
    2.7640    1.3540    1.4600 O   0  0  0  0  0  0  0  0  0  0  0  0
    3.1000    0.0230    1.4770 C   0  0  0  0  0  0  0  0  0  0  0  0
    3.3200   -0.5930    0.1220 C   0  0  2  0  0  0  0  0  0  0  0  0
    4.7050   -0.3270   -0.4170 C   0  0  0  0  0  0  0  0  0  0  0  0
    4.9720    1.0280   -0.5610 O   0  0  0  0  0  0  0  0  0  0  0  0
    2.2600   -0.0290   -0.8040 C   0  0  0  0  0  0  0  0  0  0  0  0
   -1.8660   -0.6200   -1.2560 C   0  0  2  0  0  0  0  0  0  0  0  0
   -2.9760   -1.4910   -1.0290 N   0  0  0  0  0  0  0  0  0  0  0  0
   -0.9450   -1.3470   -2.2360 C   0  0  0  0  0  0  0  0  0  0  0  0
   -1.6810   -1.6140   -3.4090 O   0  0  0  0  0  0  0  0  0  0  0  0
  1  2  1  0
  2  3  1  0
  3  4  2  0
  3  5  1  0
  6  5  1  6
  6  7  1  0
  6 16  1  0
  8  7  1  6
  8  9  1  0
  8 15  1  0
  9 10  1  0
 10 11  1  0
 11 12  1  0
 12 13  1  6
 12 15  1  0
 13 14  1  0
 16 17  1  1
 16 18  1  0
 18 19  1  0
M  CHG  1  17   1
M  END
