
     RDKit          3D

 20 20  0  0  0  0  0  0  0  0999 V2000
    3.2590   -0.2530    1.9050 N   0  0  0  0  0  0  0  0  0  0  0  0
    2.5460    0.7220    1.1620 C   0  0  0  0  0  0  0  0  0  0  0  0
    1.9920    1.7000    1.7360 O   0  0  0  0  0  0  0  0  0  0  0  0
    2.4600    0.5860   -0.2900 C   0  0  2  0  0  0  0  0  0  0  0  0
    1.6510   -0.5780   -0.7340 C   0  0  0  0  0  0  0  0  0  0  0  0
    0.3350   -0.5570   -0.3660 O   0  0  0  0  0  0  0  0  0  0  0  0
   -0.3270   -0.6370    0.7880 C   0  0  0  0  0  0  0  0  0  0  0  0
    0.3080   -0.7790    1.8530 O   0  0  0  0  0  0  0  0  0  0  0  0
   -1.8060   -0.5730    0.9570 C   0  0  2  0  0  0  0  0  0  0  0  0
   -2.2340   -1.8270    1.6800 C   0  0  0  0  0  0  0  0  0  0  0  0
   -3.4130   -2.2750    1.0890 O   0  0  0  0  0  0  0  0  0  0  0  0
   -4.3280   -1.2410    0.9650 C   0  0  0  0  0  0  0  0  0  0  0  0
   -3.8070   -0.1490    0.0700 C   0  0  2  0  0  0  0  0  0  0  0  0
   -4.6540    0.0780   -1.1490 C   0  0  0  0  0  0  0  0  0  0  0  0
   -4.1010    1.2160   -1.8590 N   0  0  0  0  0  0  0  0  0  0  0  0
   -2.4740   -0.4160   -0.2440 O   0  0  0  0  0  0  0  0  0  0  0  0
    3.9000    0.5020   -0.8010 C   0  0  2  0  0  0  0  0  0  0  0  0
    4.5510   -0.5960   -0.2460 O   0  0  0  0  0  0  0  0  0  0  0  0
    4.6740    1.7370   -0.3960 C   0  0  0  0  0  0  0  0  0  0  0  0
    5.9600    1.6320   -0.8810 O   0  0  0  0  0  0  0  0  0  0  0  0
  1  2  1  0
  2  3  2  0
  2  4  1  0
  4  5  1  1
  4 17  1  0
  5  6  1  0
  6  7  1  0
  7  8  2  0
  9  7  1  6
  9 10  1  0
  9 16  1  0
 10 11  1  0
 11 12  1  0
 12 13  1  0
 13 14  1  6
 13 16  1  0
 14 15  1  0
 17 18  1  1
 17 19  1  0
 19 20  1  0
M  CHG  1  15   1
M  END
