
     RDKit          3D

 19 19  0  0  0  0  0  0  0  0999 V2000
    5.0020    1.3600    0.4240 C   0  0  0  0  0  0  0  0  0  0  0  0
    4.3220    0.4110   -0.3690 O   0  0  0  0  0  0  0  0  0  0  0  0
    2.9370    0.3930   -0.4040 C   0  0  0  0  0  0  0  0  0  0  0  0
    2.3340    1.2430    0.2890 O   0  0  0  0  0  0  0  0  0  0  0  0
    2.1650   -0.5710   -1.2120 C   0  0  0  0  0  0  0  0  0  0  0  0
    0.6540   -0.4290   -1.0410 C   0  0  2  0  0  0  0  0  0  0  0  0
    0.3570    0.9260   -1.4460 N   0  0  0  0  0  0  0  0  0  0  0  0
    0.1940   -0.8210    0.3060 C   0  0  2  0  0  0  0  0  0  0  0  0
    0.5970   -2.3130    0.5640 C   0  0  0  0  0  0  0  0  0  0  0  0
   -1.1840   -0.7620    0.7100 C   0  0  2  0  0  0  0  0  0  0  0  0
   -1.2170   -1.2200    2.0780 O   0  0  0  0  0  0  0  0  0  0  0  0
   -2.1350   -1.7760    0.0480 C   0  0  0  0  0  0  0  0  0  0  0  0
   -3.4160   -1.3300    0.3470 O   0  0  0  0  0  0  0  0  0  0  0  0
   -3.2930   -0.3170    1.3290 C   0  0  0  0  0  0  0  0  0  0  0  0
   -2.0470    0.4070    0.7160 C   0  0  1  0  0  0  0  0  0  0  0  0
   -1.7390    1.3890    1.6430 O   0  0  0  0  0  0  0  0  0  0  0  0
   -2.6130    0.9100   -0.5280 C   0  0  0  0  0  0  0  0  0  0  0  0
   -2.7970    2.2910   -0.7100 N   0  0  0  0  0  0  0  0  0  0  0  0
   -2.9360    0.1300   -1.4330 O   0  0  0  0  0  0  0  0  0  0  0  0
  1  2  1  0
  2  3  1  0
  3  4  2  0
  3  5  1  0
  5  6  1  0
  6  7  1  1
  6  8  1  0
  8  9  1  6
  8 10  1  0
 10 11  1  1
 10 12  1  0
 10 15  1  0
 12 13  1  0
 13 14  1  0
 14 15  1  0
 15 16  1  1
 15 17  1  0
 17 18  1  0
 17 19  2  0
M  CHG  1   7   1
M  END
