
     RDKit          3D

 19 19  0  0  0  0  0  0  0  0999 V2000
   -5.1980   -0.8030   -0.5860 C   0  0  0  0  0  0  0  0  0  0  0  0
   -4.2660    0.0910    0.2060 C   0  0  2  0  0  0  0  0  0  0  0  0
   -4.3880    1.4700   -0.2610 N   0  0  0  0  0  0  0  0  0  0  0  0
   -2.8560   -0.4270   -0.0010 C   0  0  1  0  0  0  0  0  0  0  0  0
   -2.4830   -0.4100   -1.3150 O   0  0  0  0  0  0  0  0  0  0  0  0
   -1.9010    0.3510    0.8780 C   0  0  1  0  0  0  0  0  0  0  0  0
   -2.3550    0.2990    2.2210 O   0  0  0  0  0  0  0  0  0  0  0  0
   -0.5330   -0.2820    0.8040 C   0  0  0  0  0  0  0  0  0  0  0  0
   -0.1070   -0.8360    1.8400 O   0  0  0  0  0  0  0  0  0  0  0  0
    0.1700   -0.2100   -0.4120 N   0  0  0  0  0  0  0  0  0  0  0  0
    1.4680   -0.7670   -0.5860 C   0  0  0  0  0  0  0  0  0  0  0  0
    2.6040   -0.2610    0.1870 C   0  0  1  0  0  0  0  0  0  0  0  0
    2.7850   -0.5520    1.6090 C   0  0  0  0  0  0  0  0  0  0  0  0
    2.6940   -1.8920    1.9750 O   0  0  0  0  0  0  0  0  0  0  0  0
    3.8710   -0.8600   -0.5220 C   0  0  0  0  0  0  0  0  0  0  0  0
    4.0140   -0.2420   -1.7420 O   0  0  0  0  0  0  0  0  0  0  0  0
    4.6160    1.0030   -1.5010 C   0  0  0  0  0  0  0  0  0  0  0  0
    4.0490    1.5150   -0.1840 C   0  0  0  0  0  0  0  0  0  0  0  0
    2.7350    1.1120   -0.0480 O   0  0  0  0  0  0  0  0  0  0  0  0
  2  1  1  6
  2  3  1  0
  2  4  1  0
  4  5  1  6
  4  6  1  0
  6  7  1  1
  6  8  1  0
  8  9  2  0
  8 10  1  0
 10 11  1  0
 12 11  1  6
 12 13  1  0
 12 15  1  0
 12 19  1  0
 13 14  1  0
 15 16  1  0
 16 17  1  0
 17 18  1  0
 18 19  1  0
M  CHG  1   3   1
M  END
