
     RDKit          3D

 20 20  0  0  0  0  0  0  0  0999 V2000
   -1.4950    0.4470    2.6610 C   0  0  0  0  0  0  0  0  0  0  0  0
   -2.4980    0.5350    1.5550 C   0  0  1  0  0  0  0  0  0  0  0  0
   -3.5820   -0.2870    1.8900 O   0  0  0  0  0  0  0  0  0  0  0  0
   -2.9990    1.7950    1.3410 O   0  0  0  0  0  0  0  0  0  0  0  0
   -3.5310    1.8160    0.0720 C   0  0  0  0  0  0  0  0  0  0  0  0
   -2.8910    0.7430   -0.7390 C   0  0  2  0  0  0  0  0  0  0  0  0
   -3.9040   -0.2850   -1.2370 C   0  0  0  0  0  0  0  0  0  0  0  0
   -3.2360   -1.2530   -1.9850 O   0  0  0  0  0  0  0  0  0  0  0  0
   -1.9750    0.0670    0.2270 C   0  0  1  0  0  0  0  0  0  0  0  0
   -0.5860    0.3470    0.0040 N   0  0  0  0  0  0  0  0  0  0  0  0
    0.4340   -0.6260   -0.1550 C   0  0  0  0  0  0  0  0  0  0  0  0
    0.0820   -1.8460   -0.0930 O   0  0  0  0  0  0  0  0  0  0  0  0
    1.8180   -0.2100   -0.3790 C   0  0  2  0  0  0  0  0  0  0  0  0
    1.8680    1.1820   -0.4120 O   0  0  0  0  0  0  0  0  0  0  0  0
    2.3930   -0.7180   -1.6830 C   0  0  0  0  0  0  0  0  0  0  0  0
    1.6410   -0.2390   -2.8240 N   0  0  0  0  0  0  0  0  0  0  0  0
    2.7500   -0.6490    0.7440 C   0  0  0  0  0  0  0  0  0  0  0  0
    4.0380   -0.2190    0.4980 O   0  0  0  0  0  0  0  0  0  0  0  0
    4.9140   -0.5980    1.4990 C   0  0  0  0  0  0  0  0  0  0  0  0
    6.2160   -0.1550    1.2360 O   0  0  0  0  0  0  0  0  0  0  0  0
  2  1  1  1
  2  3  1  0
  2  4  1  0
  2  9  1  0
  4  5  1  0
  5  6  1  0
  6  7  1  1
  6  9  1  0
  7  8  1  0
  9 10  1  6
 10 11  1  0
 11 12  2  0
 11 13  1  0
 13 14  1  6
 13 15  1  0
 13 17  1  0
 15 16  1  0
 17 18  1  0
 18 19  1  0
 19 20  1  0
M  CHG  1  16   1
M  END
