
     RDKit          3D

 10 10  0  0  0  0  0  0  0  0999 V2000
   -2.6560   -0.7590   -1.1190 N   0  0  0  0  0  0  0  0  0  0  0  0
   -2.0580    0.1110   -0.1720 C   0  0  0  0  0  0  0  0  0  0  0  0
   -2.8070    0.8860    0.4930 N   0  0  0  0  0  0  0  0  0  0  0  0
   -0.6280    0.0900    0.0070 C   0  0  0  0  0  0  0  0  0  0  0  0
    0.0760    0.8800    0.8890 C   0  0  0  0  0  0  0  0  0  0  0  0
    1.4540    0.8140    1.0160 C   0  0  0  0  0  0  0  0  0  0  0  0
    2.1820   -0.0560    0.2550 C   0  0  0  0  0  0  0  0  0  0  0  0
    3.5930   -0.1780    0.3310 N   0  0  0  0  0  0  0  0  0  0  0  0
    1.4740   -0.8510   -0.6340 C   0  0  0  0  0  0  0  0  0  0  0  0
    0.1140   -0.8050   -0.7770 C   0  0  0  0  0  0  0  0  0  0  0  0
  1  2  1  0
  2  3  2  0
  2  4  1  0
  4  5  2  0
  4 10  1  0
  5  6  1  0
  6  7  2  0
  7  8  1  0
  7  9  1  0
  9 10  2  0
M  CHG  1   3   1
M  END
