
     RDKit          3D

 25 26  0  0  0  0  0  0  0  0999 V2000
    1.3600    3.1890   -0.8270 C   0  0  0  0  0  0  0  0  0  0  0  0
    0.9180    2.2310   -0.0330 C   0  0  0  0  0  0  0  0  0  0  0  0
   -0.4960    2.1400    0.2950 C   0  0  0  0  0  0  0  0  0  0  0  0
   -1.2970    1.1170    0.3200 C   0  0  0  0  0  0  0  0  0  0  0  0
   -2.7360    1.2790    0.6970 C   0  0  0  0  0  0  0  0  0  0  0  0
   -3.1440    2.2450    1.4910 C   0  0  0  0  0  0  0  0  0  0  0  0
   -4.7840    2.5220    1.9930 Cl  0  0  0  0  0  0  0  0  0  0  0  0
   -3.7180    0.3430    0.1690 C   0  0  0  0  0  0  0  0  0  0  0  0
   -4.8940    0.7040   -0.2740 C   0  0  0  0  0  0  0  0  0  0  0  0
   -3.3660   -1.0920    0.0930 C   0  0  0  0  0  0  0  0  0  0  0  0
   -1.9690   -1.2680    0.5080 C   0  0  2  0  0  0  0  0  0  0  0  0
   -1.9280   -1.2380    1.9170 O   0  0  0  0  0  0  0  0  0  0  0  0
   -0.9490   -0.3010   -0.0130 C   0  0  1  0  0  0  0  0  0  0  0  0
   -0.8430   -0.4490   -1.3860 O   0  0  0  0  0  0  0  0  0  0  0  0
   -0.3520   -1.4760   -2.1030 C   0  0  0  0  0  0  0  0  0  0  0  0
   -0.7400   -1.7170   -3.2590 O   0  0  0  0  0  0  0  0  0  0  0  0
    0.6760   -2.3630   -1.5320 C   0  0  0  0  0  0  0  0  0  0  0  0
    1.9160   -1.9470   -2.1160 O   0  0  0  0  0  0  0  0  0  0  0  0
    3.0860   -1.7190   -1.4810 C   0  0  0  0  0  0  0  0  0  0  0  0
    4.1290   -2.3200   -1.8290 O   0  0  0  0  0  0  0  0  0  0  0  0
    3.1640   -0.7520   -0.3590 C   0  0  2  0  0  0  0  0  0  0  0  0
    2.6160   -1.2840    0.8050 O   0  0  0  0  0  0  0  0  0  0  0  0
    3.5480   -1.3410    1.8340 C   0  0  0  0  0  0  0  0  0  0  0  0
    2.5690    0.5870   -0.7350 C   0  0  0  0  0  0  0  0  0  0  0  0
    1.9910    1.3280    0.4480 C   0  0  0  0  0  0  0  0  0  0  0  0
  1  2  2  0
  2  3  1  0
  2 25  1  0
  3  4  2  0
  4  5  1  0
  4 13  1  0
  5  6  2  3
  5  8  1  0
  6  7  1  0
  8  9  2  0
  8 10  1  0
 10 11  1  0
 11 12  1  1
 11 13  1  0
 13 14  1  6
 14 15  1  0
 15 16  2  0
 15 17  1  0
 17 18  1  0
 18 19  1  0
 19 20  2  0
 19 21  1  0
 21 22  1  1
 21 24  1  0
 22 23  1  0
 24 25  1  0
M  END
