
     RDKit          3D

 25 26  0  0  0  0  0  0  0  0999 V2000
   -2.3590   -1.8510   -1.2620 C   0  0  0  0  0  0  0  0  0  0  0  0
   -2.3680   -0.3350   -1.2210 C   0  0  2  0  0  0  0  0  0  0  0  0
   -3.1490    0.0310   -2.5080 C   0  0  0  0  0  0  0  0  0  0  0  0
   -2.3480   -0.4580   -3.5590 O   0  0  0  0  0  0  0  0  0  0  0  0
   -1.0540    0.3350   -1.3510 C   0  0  0  0  0  0  0  0  0  0  0  0
   -0.3320    0.7070   -0.0860 C   0  0  1  0  0  0  0  0  0  0  0  0
   -1.3000    1.0760    0.9940 C   0  0  0  0  0  0  0  0  0  0  0  0
   -2.5720    0.3270    1.0310 C   0  0  0  0  0  0  0  0  0  0  0  0
   -3.1150    0.0410   -0.1660 O   0  0  0  0  0  0  0  0  0  0  0  0
    0.0770   -0.7460    0.5390 C   0  0  0  0  0  0  0  0  0  0  0  0
    1.1070   -1.4000   -0.1600 C   0  0  0  0  0  0  0  0  0  0  0  0
    1.4920   -1.0580   -1.3420 O   0  0  0  0  0  0  0  0  0  0  0  0
    1.7710   -2.4870    0.4480 O   0  0  0  0  0  0  0  0  0  0  0  0
    1.7470   -2.7660    1.8280 C   0  0  0  0  0  0  0  0  0  0  0  0
    3.1150   -2.5290    2.3480 C   0  0  0  0  0  0  0  0  0  0  0  0
    3.5480   -3.3090    3.2330 O   0  0  0  0  0  0  0  0  0  0  0  0
    3.8650   -1.4980    1.8720 O   0  0  0  0  0  0  0  0  0  0  0  0
    3.4390   -0.1200    1.8170 C   0  0  0  0  0  0  0  0  0  0  0  0
    3.8680    0.4350    0.5240 C   0  0  0  0  0  0  0  0  0  0  0  0
    3.3670    1.2320   -0.3240 C   0  0  0  0  0  0  0  0  0  0  0  0
    2.0350    1.9910   -0.3580 C   0  0  0  0  0  0  0  0  0  0  0  0
    0.8630    1.3960   -0.2290 C   0  0  0  0  0  0  0  0  0  0  0  0
   -0.0190    2.8300   -0.5660 C   0  0  0  0  0  0  0  0  0  0  0  0
   -1.1380    3.2310   -0.6850 C   0  0  0  0  0  0  0  0  0  0  0  0
   -2.8380    3.0440   -0.6950 Cl  0  0  0  0  0  0  0  0  0  0  0  0
  2  1  1  1
  2  3  1  0
  2  5  1  0
  2  9  1  0
  3  4  1  0
  6  5  1  6
  6  7  1  0
  6 10  1  0
  6 22  1  0
  7  8  1  0
  8  9  1  0
 10 11  1  0
 11 12  2  0
 11 13  1  0
 13 14  1  0
 14 15  1  0
 15 16  2  0
 15 17  1  0
 17 18  1  0
 18 19  1  0
 19 20  2  0
 20 21  1  0
 21 22  2  0
 22 23  1  0
 23 24  2  3
 24 25  1  0
M  END
