
     RDKit          3D

 25 26  0  0  0  0  0  0  0  0999 V2000
    6.2620    1.6670    1.1330 C   0  0  0  0  0  0  0  0  0  0  0  0
    5.6200    0.9130    0.0190 C   0  0  0  0  0  0  0  0  0  0  0  0
    4.2510    0.6730    0.3190 O   0  0  0  0  0  0  0  0  0  0  0  0
    3.4230   -0.0300   -0.5890 C   0  0  0  0  0  0  0  0  0  0  0  0
    3.9910   -0.3980   -1.6270 O   0  0  0  0  0  0  0  0  0  0  0  0
    1.9990   -0.2850   -0.2870 C   0  0  0  0  0  0  0  0  0  0  0  0
    1.5820    0.2020    0.8850 C   0  0  0  0  0  0  0  0  0  0  0  0
    0.3310    0.1990    1.5670 C   0  0  0  0  0  0  0  0  0  0  0  0
    0.1760   -0.5710    2.6040 O   0  0  0  0  0  0  0  0  0  0  0  0
   -0.9240    0.9600    1.3070 C   0  0  1  0  0  0  0  0  0  0  0  0
   -0.8600    1.6960   -0.0120 C   0  0  0  0  0  0  0  0  0  0  0  0
   -2.1130    2.1020   -0.6300 C   0  0  0  0  0  0  0  0  0  0  0  0
   -2.7290    1.3630   -1.7200 C   0  0  0  0  0  0  0  0  0  0  0  0
   -4.2670    2.2020   -2.2000 Cl  0  0  0  0  0  0  0  0  0  0  0  0
   -2.4470    0.3010   -2.4070 C   0  0  0  0  0  0  0  0  0  0  0  0
   -1.4110   -0.5940   -2.3840 O   0  0  0  0  0  0  0  0  0  0  0  0
   -1.0410   -1.5650   -1.4840 C   0  0  1  0  0  0  0  0  0  0  0  0
   -1.9540   -2.7250   -1.2440 C   0  0  0  0  0  0  0  0  0  0  0  0
   -3.1730   -2.2620   -0.5260 C   0  0  0  0  0  0  0  0  0  0  0  0
   -3.3200   -1.6610    0.5960 C   0  0  0  0  0  0  0  0  0  0  0  0
   -2.3040   -1.1940    1.6120 C   0  0  0  0  0  0  0  0  0  0  0  0
   -2.1740    0.2690    1.6770 C   0  0  1  0  0  0  0  0  0  0  0  0
   -2.7070    0.7030    2.9260 O   0  0  0  0  0  0  0  0  0  0  0  0
    0.4350   -1.9440   -1.4930 C   0  0  0  0  0  0  0  0  0  0  0  0
    1.3080   -0.9680   -1.2160 O   0  0  0  0  0  0  0  0  0  0  0  0
  1  2  1  0
  2  3  1  0
  3  4  1  0
  4  5  2  0
  4  6  1  0
  6  7  2  0
  6 25  1  0
  7  8  1  0
  8  9  2  0
  8 10  1  0
 10 11  1  6
 10 22  1  0
 11 12  1  0
 12 13  1  0
 13 14  1  0
 13 15  2  0
 15 16  1  0
 16 17  1  0
 17 18  1  6
 17 24  1  0
 18 19  1  0
 19 20  2  0
 20 21  1  0
 21 22  1  0
 22 23  1  1
 24 25  1  0
M  END
