
     RDKit          3D

 25 26  0  0  0  0  0  0  0  0999 V2000
    5.5230    0.7870    0.2700 C   0  0  0  0  0  0  0  0  0  0  0  0
    4.4570   -0.1210    0.3150 O   0  0  0  0  0  0  0  0  0  0  0  0
    3.3590   -0.1000   -0.5260 C   0  0  0  0  0  0  0  0  0  0  0  0
    3.3140    0.7920   -1.3820 O   0  0  0  0  0  0  0  0  0  0  0  0
    2.2920   -1.1120   -0.3910 C   0  0  0  0  0  0  0  0  0  0  0  0
    1.0490   -0.6220    0.2320 C   0  0  1  0  0  0  0  0  0  0  0  0
    1.3390   -0.1240    1.5190 O   0  0  0  0  0  0  0  0  0  0  0  0
    0.3750    0.4560   -0.5750 C   0  0  0  0  0  0  0  0  0  0  0  0
   -0.6610    1.2550    0.1920 C   0  0  1  0  0  0  0  0  0  0  0  0
    0.1220    2.3740    0.8050 C   0  0  0  0  0  0  0  0  0  0  0  0
   -0.2720    3.7310    0.5350 C   0  0  0  0  0  0  0  0  0  0  0  0
   -1.3090    4.0220   -0.1980 C   0  0  0  0  0  0  0  0  0  0  0  0
   -2.0790    2.9370   -0.7570 C   0  0  0  0  0  0  0  0  0  0  0  0
   -1.8430    1.6400   -0.6140 C   0  0  0  0  0  0  0  0  0  0  0  0
   -2.8030    0.7390   -1.2390 C   0  0  0  0  0  0  0  0  0  0  0  0
   -3.1710    1.2260   -2.9430 Cl  0  0  0  0  0  0  0  0  0  0  0  0
   -3.4380   -0.3310   -0.8180 C   0  0  0  0  0  0  0  0  0  0  0  0
   -3.4950   -1.0970    0.3790 C   0  0  0  0  0  0  0  0  0  0  0  0
   -3.0360   -2.2500    0.7990 C   0  0  0  0  0  0  0  0  0  0  0  0
   -2.2290   -3.2890    0.1610 C   0  0  0  0  0  0  0  0  0  0  0  0
   -0.9920   -3.6910    0.8480 C   0  0  0  0  0  0  0  0  0  0  0  0
   -0.8840   -4.7730    1.5300 O   0  0  0  0  0  0  0  0  0  0  0  0
    0.2110   -2.9310    0.8310 O   0  0  0  0  0  0  0  0  0  0  0  0
    0.0150   -1.6890    0.2820 C   0  0  2  0  0  0  0  0  0  0  0  0
   -0.2750   -1.9420   -1.0340 O   0  0  0  0  0  0  0  0  0  0  0  0
  1  2  1  0
  2  3  1  0
  3  4  2  0
  3  5  1  0
  5  6  1  0
  6  7  1  1
  6  8  1  0
  6 24  1  0
  9  8  1  6
  9 10  1  0
  9 14  1  0
 10 11  1  0
 11 12  2  0
 12 13  1  0
 13 14  2  0
 14 15  1  0
 15 16  1  0
 15 17  2  0
 17 18  1  0
 18 19  2  0
 19 20  1  0
 20 21  1  0
 21 22  2  0
 21 23  1  0
 23 24  1  0
 24 25  1  6
M  END
