
     RDKit          3D

 25 26  0  0  0  0  0  0  0  0999 V2000
   -4.2640   -2.1140   -1.3260 C   0  0  0  0  0  0  0  0  0  0  0  0
   -2.7660   -2.2160   -1.4720 C   0  0  0  0  0  0  0  0  0  0  0  0
   -2.1050   -0.9170   -1.0090 C   0  0  0  0  0  0  0  0  0  0  0  0
   -1.2720   -1.0170   -0.0300 C   0  0  0  0  0  0  0  0  0  0  0  0
   -1.0170   -2.2860    0.5430 O   0  0  0  0  0  0  0  0  0  0  0  0
   -0.1330   -2.4150    1.5850 C   0  0  0  0  0  0  0  0  0  0  0  0
    0.0340   -3.5580    2.1650 O   0  0  0  0  0  0  0  0  0  0  0  0
    0.6490   -1.2870    2.0800 C   0  0  0  0  0  0  0  0  0  0  0  0
    0.8590   -0.2710    0.9020 C   0  0  2  0  0  0  0  0  0  0  0  0
    1.5000   -1.1740   -0.1760 C   0  0  0  0  0  0  0  0  0  0  0  0
    2.1540   -0.3440   -1.2520 C   0  0  0  0  0  0  0  0  0  0  0  0
    3.1680    0.6240   -0.7590 C   0  0  2  0  0  0  0  0  0  0  0  0
    3.3300    1.5730   -1.8160 O   0  0  0  0  0  0  0  0  0  0  0  0
    4.5460    0.0440   -0.5610 C   0  0  0  0  0  0  0  0  0  0  0  0
    4.5860   -0.9140    0.4230 O   0  0  0  0  0  0  0  0  0  0  0  0
    2.7020    1.4330    0.4150 C   0  0  0  0  0  0  0  0  0  0  0  0
    1.9320    0.5930    1.3620 C   0  0  1  0  0  0  0  0  0  0  0  0
    1.7580    1.2930    3.0010 Cl  0  0  0  0  0  0  0  0  0  0  0  0
   -0.5120    0.1290    0.5910 C   0  0  0  0  0  0  0  0  0  0  0  0
   -1.1980    1.1960    0.7820 C   0  0  0  0  0  0  0  0  0  0  0  0
   -0.6430    2.4420    1.3890 C   0  0  0  0  0  0  0  0  0  0  0  0
   -2.5680    1.2620    0.4140 O   0  0  0  0  0  0  0  0  0  0  0  0
   -2.9950    2.1790   -0.5770 C   0  0  0  0  0  0  0  0  0  0  0  0
   -4.4080    2.2800   -0.9850 C   0  0  0  0  0  0  0  0  0  0  0  0
   -2.0720    2.8760   -1.0570 O   0  0  0  0  0  0  0  0  0  0  0  0
  1  2  1  0
  2  3  1  0
  3  4  2  3
  4  5  1  0
  4 19  1  0
  5  6  1  0
  6  7  2  0
  6  8  1  0
  9  8  1  1
  9 10  1  0
  9 17  1  0
  9 19  1  0
 10 11  1  0
 11 12  1  0
 12 13  1  6
 12 14  1  0
 12 16  1  0
 14 15  1  0
 16 17  1  0
 17 18  1  1
 19 20  2  3
 20 21  1  0
 20 22  1  0
 22 23  1  0
 23 24  1  0
 23 25  2  0
M  END
