
     RDKit          3D

  9  9  0  0  0  0  0  0  0  0999 V2000
    3.2620   -0.0390    0.2710 C   0  0  0  0  0  0  0  0  0  0  0  0
    1.8990   -0.5290    0.2530 N   0  0  0  0  0  0  0  0  0  0  0  0
    0.7980    0.3670    0.3120 C   0  0  0  0  0  0  0  0  0  0  0  0
   -0.4240   -0.0810    0.0090 C   0  0  0  0  0  0  0  0  0  0  0  0
   -0.7880   -1.4350   -0.3940 C   0  0  0  0  0  0  0  0  0  0  0  0
   -2.0910   -1.5030   -0.6130 C   0  0  0  0  0  0  0  0  0  0  0  0
   -2.6310   -0.1740   -0.3560 C   0  0  0  0  0  0  0  0  0  0  0  0
   -1.6760    0.6660    0.0060 C   0  0  0  0  0  0  0  0  0  0  0  0
   -1.7800    2.0450    0.3430 N   0  0  0  0  0  0  0  0  0  0  0  0
  1  2  1  0
  2  3  1  0
  3  4  2  3
  4  5  1  0
  4  8  1  0
  5  6  2  0
  6  7  1  0
  7  8  2  0
  8  9  1  0
M  END
