
     RDKit          3D

  9  9  0  0  0  0  0  0  0  0999 V2000
   -3.2410   -0.1170    0.2650 N   0  0  0  0  0  0  0  0  0  0  0  0
   -1.9900   -0.0500    1.0390 C   0  0  0  0  0  0  0  0  0  0  0  0
   -1.0140    0.7530    0.2840 C   0  0  0  0  0  0  0  0  0  0  0  0
    0.1370    0.3080   -0.1260 C   0  0  0  0  0  0  0  0  0  0  0  0
    1.0330    1.2140   -0.8770 C   0  0  0  0  0  0  0  0  0  0  0  0
    2.1970    0.7610   -1.2900 C   0  0  0  0  0  0  0  0  0  0  0  0
    2.6370   -0.6000   -1.0350 C   0  0  0  0  0  0  0  0  0  0  0  0
    1.8850   -1.4560   -0.3710 C   0  0  0  0  0  0  0  0  0  0  0  0
    0.6220   -1.0090    0.0920 N   0  0  0  0  0  0  0  0  0  0  0  0
  1  2  1  0
  2  3  1  0
  3  4  2  3
  4  5  1  0
  4  9  1  0
  5  6  2  0
  6  7  1  0
  7  8  2  0
  8  9  1  0
M  END
