
     RDKit          3D

  9  9  0  0  0  0  0  0  0  0999 V2000
   -0.8900   -2.1020   -0.4930 C   0  0  0  0  0  0  0  0  0  0  0  0
   -0.7700   -0.5910   -0.4130 C   0  0  0  0  0  0  0  0  0  0  0  0
   -1.8720    0.0900   -0.4440 C   0  0  0  0  0  0  0  0  0  0  0  0
   -2.0460    1.4840   -0.3860 N   0  0  0  0  0  0  0  0  0  0  0  0
    0.5780   -0.0820   -0.3110 C   0  0  0  0  0  0  0  0  0  0  0  0
    1.7480   -0.8540   -0.2770 C   0  0  0  0  0  0  0  0  0  0  0  0
    2.8520   -0.0440   -0.1760 C   0  0  0  0  0  0  0  0  0  0  0  0
    2.3740    1.2340   -0.1460 C   0  0  0  0  0  0  0  0  0  0  0  0
    1.0250    1.1830   -0.2270 N   0  0  0  0  0  0  0  0  0  0  0  0
  1  2  1  0
  2  3  2  3
  2  5  1  0
  3  4  1  0
  5  6  2  0
  5  9  1  0
  6  7  1  0
  7  8  2  0
  8  9  1  0
M  CHG  1   4   1
M  END
