
     RDKit          3D

  9  9  0  0  0  0  0  0  0  0999 V2000
   -1.8110    2.1720   -0.0870 N   0  0  0  0  0  0  0  0  0  0  0  0
   -0.5770    1.4840    0.0380 C   0  0  0  0  0  0  0  0  0  0  0  0
   -0.6360    0.1480    0.1290 C   0  0  0  0  0  0  0  0  0  0  0  0
   -1.8020   -0.7040    0.1170 C   0  0  0  0  0  0  0  0  0  0  0  0
   -1.4010   -1.9550    0.2310 C   0  0  0  0  0  0  0  0  0  0  0  0
    0.0520   -1.9490    0.3210 C   0  0  0  0  0  0  0  0  0  0  0  0
    0.5190   -0.7330    0.2640 C   0  0  0  0  0  0  0  0  0  0  0  0
    1.9190   -0.2340    0.3150 C   0  0  0  0  0  0  0  0  0  0  0  0
    2.1920    0.4860   -0.9260 N   0  0  0  0  0  0  0  0  0  0  0  0
  1  2  1  0
  2  3  2  3
  3  4  1  0
  3  7  1  0
  4  5  2  0
  5  6  1  0
  6  7  2  0
  7  8  1  0
  8  9  1  0
M  END
