
     RDKit          3D

  9  9  0  0  0  0  0  0  0  0999 V2000
    2.2170    0.1110    1.3590 C   0  0  0  0  0  0  0  0  0  0  0  0
    1.7020   -0.0630    0.1780 C   0  0  0  0  0  0  0  0  0  0  0  0
    2.5160   -0.3060   -0.9450 N   0  0  0  0  0  0  0  0  0  0  0  0
    0.2510   -0.0140   -0.0350 C   0  0  0  0  0  0  0  0  0  0  0  0
   -0.2330   -0.2010   -1.2750 C   0  0  0  0  0  0  0  0  0  0  0  0
   -1.6700   -0.1470   -1.4580 C   0  0  0  0  0  0  0  0  0  0  0  0
   -2.4950    0.0740   -0.4650 C   0  0  0  0  0  0  0  0  0  0  0  0
   -2.0290    0.2840    0.9020 C   0  0  0  0  0  0  0  0  0  0  0  0
   -0.6080    0.2230    1.0380 N   0  0  0  0  0  0  0  0  0  0  0  0
  1  2  2  0
  2  3  1  0
  2  4  1  0
  4  5  2  0
  4  9  1  0
  5  6  1  0
  6  7  2  0
  7  8  1  0
  8  9  1  0
M  END
