
     RDKit          3D

  9  9  0  0  0  0  0  0  0  0999 V2000
   -3.1840    0.8550    0.0550 C   0  0  0  0  0  0  0  0  0  0  0  0
   -2.3210   -0.0360   -0.6890 N   0  0  0  0  0  0  0  0  0  0  0  0
   -0.9340   -0.1210   -0.3940 C   0  0  0  0  0  0  0  0  0  0  0  0
   -0.1030   -0.9660   -1.0990 C   0  0  0  0  0  0  0  0  0  0  0  0
    1.2470   -1.0370   -0.7990 C   0  0  0  0  0  0  0  0  0  0  0  0
    1.8060   -0.2760    0.2040 C   0  0  0  0  0  0  0  0  0  0  0  0
    3.2110   -0.3750    0.4890 N   0  0  0  0  0  0  0  0  0  0  0  0
    0.9840    0.5730    0.9150 C   0  0  0  0  0  0  0  0  0  0  0  0
   -0.3710    0.6390    0.6080 C   0  0  0  0  0  0  0  0  0  0  0  0
  1  2  1  0
  2  3  1  0
  3  4  2  0
  3  9  1  0
  4  5  1  0
  5  6  2  0
  6  7  1  0
  6  8  1  0
  8  9  2  0
M  CHG  1   7   1
M  END
