
     RDKit          3D

  9  9  0  0  0  0  0  0  0  0999 V2000
    2.6460   -0.5960    0.0010 C   0  0  0  0  0  0  0  0  0  0  0  0
    1.7310    0.1430   -0.8400 N   0  0  0  0  0  0  0  0  0  0  0  0
    0.5060    0.6720   -0.3430 C   0  0  0  0  0  0  0  0  0  0  0  0
    0.2500    1.9460   -0.0110 C   0  0  0  0  0  0  0  0  0  0  0  0
   -1.1310    2.0740    0.4570 C   0  0  0  0  0  0  0  0  0  0  0  0
   -1.7420    0.9040    0.4230 C   0  0  0  0  0  0  0  0  0  0  0  0
   -0.7450   -0.0280   -0.0800 C   0  0  0  0  0  0  0  0  0  0  0  0
   -0.9510   -1.3180   -0.2670 C   0  0  0  0  0  0  0  0  0  0  0  0
   -2.2080   -1.9170    0.0180 N   0  0  0  0  0  0  0  0  0  0  0  0
  1  2  1  0
  2  3  1  0
  3  4  2  0
  3  7  1  0
  4  5  1  0
  5  6  2  0
  6  7  1  0
  7  8  2  3
  8  9  1  0
M  END
