
     RDKit          3D

  9 10  0  0  0  0  0  0  0  0999 V2000
   -2.7640   -0.0060    0.4620 N   0  0  0  0  0  0  0  0  0  0  0  0
   -1.3860    0.4660    0.4180 C   0  0  2  0  0  0  0  0  0  0  0  0
   -1.0620    0.7450   -1.0310 C   0  0  0  0  0  0  0  0  0  0  0  0
   -0.2230   -0.4380   -1.4360 C   0  0  0  0  0  0  0  0  0  0  0  0
    0.4020   -0.8300   -0.2250 N   0  0  0  0  0  0  0  0  0  0  0  0
    1.7980   -0.6860   -0.1240 C   0  0  1  0  0  0  0  0  0  0  0  0
    2.4340    0.7070   -0.1300 C   0  0  0  0  0  0  0  0  0  0  0  0
    2.5310   -0.2260    1.0640 C   0  0  0  0  0  0  0  0  0  0  0  0
   -0.4110   -0.5770    0.8880 C   0  0  0  0  0  0  0  0  0  0  0  0
  2  1  1  6
  2  3  1  0
  2  9  1  0
  3  4  1  0
  4  5  1  0
  6  5  1  1
  5  9  1  0
  6  7  1  0
  6  8  1  0
  7  8  1  0
M  CHG  1   1   1
M  END
