
     RDKit          3D

 23 26  0  0  0  0  0  0  0  0999 V2000
   -0.9530    3.9830    1.5310 C   0  0  0  0  0  0  0  0  0  0  0  0
   -0.9120    2.5750    1.3800 O   0  0  0  0  0  0  0  0  0  0  0  0
   -1.3870    1.9080    0.2660 C   0  0  0  0  0  0  0  0  0  0  0  0
   -1.8770    2.6670   -0.6400 O   0  0  0  0  0  0  0  0  0  0  0  0
   -1.3710    0.4660    0.0580 C   0  0  1  0  0  0  0  0  0  0  0  0
   -2.0790    0.1290   -1.2740 C   0  0  2  0  0  0  0  0  0  0  0  0
   -3.3930    0.8180   -1.3790 C   0  0  0  0  0  0  0  0  0  0  0  0
   -2.3120   -1.3370   -1.1860 C   0  0  0  0  0  0  0  0  0  0  0  0
   -3.3430   -2.1580   -1.2310 C   0  0  0  0  0  0  0  0  0  0  0  0
   -2.8420   -3.5560   -1.0710 C   0  0  0  0  0  0  0  0  0  0  0  0
   -1.3680   -3.3980   -0.9280 C   0  0  0  0  0  0  0  0  0  0  0  0
   -1.0870   -2.1100   -0.9980 C   0  0  0  0  0  0  0  0  0  0  0  0
    0.1420   -1.2700   -0.9440 C   0  0  0  0  0  0  0  0  0  0  0  0
   -0.0680   -0.2360    0.1510 C   0  0  2  0  0  0  0  0  0  0  0  0
   -0.1270   -1.0840    1.4410 C   0  0  0  0  0  0  0  0  0  0  0  0
    1.1230   -1.8400    1.6990 C   0  0  0  0  0  0  0  0  0  0  0  0
    2.3810   -1.0270    1.6460 C   0  0  0  0  0  0  0  0  0  0  0  0
    2.4180   -0.0410    0.5360 C   0  0  2  0  0  0  0  0  0  0  0  0
    3.0660   -0.5670   -0.6970 C   0  0  0  0  0  0  0  0  0  0  0  0
    3.2320    1.2170    0.9140 C   0  0  0  0  0  0  0  0  0  0  0  0
    2.8610    2.0800   -0.3020 C   0  0  0  0  0  0  0  0  0  0  0  0
    1.4370    1.6520   -0.6920 C   0  0  0  0  0  0  0  0  0  0  0  0
    1.0960    0.6630    0.3320 C   0  0  1  0  0  0  0  0  0  0  0  0
  1  2  1  0
  2  3  1  0
  3  4  2  0
  5  3  1  6
  5  6  1  0
  5 14  1  0
  6  7  1  1
  6  8  1  0
  8  9  2  0
  8 12  1  0
  9 10  1  0
 10 11  1  0
 11 12  2  0
 12 13  1  0
 14 13  1  6
 14 15  1  0
 14 23  1  0
 15 16  1  0
 16 17  1  0
 17 18  1  0
 18 19  1  6
 18 20  1  0
 18 23  1  0
 20 21  1  0
 21 22  1  0
 23 22  1  6
M  END
