
     RDKit          3D

 38 40  0  0  0  0  0  0  0  0999 V2000
    0.0210    1.1650   -0.5700 C   0  0  0  0  0  0  0  0  0  0  0  0
   -0.4130   -0.2450   -1.1620 C   0  0  2  0  0  0  0  0  0  0  0  0
   -1.2530   -0.7000   -0.1250 O   0  0  0  0  0  0  0  0  0  0  0  0
   -2.5580   -0.2320   -0.1630 C   0  0  0  0  0  0  0  0  0  0  0  0
   -2.8030    0.5480   -1.1540 O   0  0  0  0  0  0  0  0  0  0  0  0
   -3.5870   -0.5090    0.7510 N   0  0  0  0  0  0  0  0  0  0  0  0
   -3.5600   -1.3180    1.8540 C   0  0  0  0  0  0  0  0  0  0  0  0
   -4.7570   -1.1380    2.5020 C   0  0  0  0  0  0  0  0  0  0  0  0
   -5.2030   -1.7780    3.7530 C   0  0  0  0  0  0  0  0  0  0  0  0
   -6.3120   -1.4870    4.2240 O   0  0  0  0  0  0  0  0  0  0  0  0
   -4.3900   -2.6820    4.3730 O   0  0  0  0  0  0  0  0  0  0  0  0
   -4.7670   -3.2800    5.5020 O   0  0  0  0  0  0  0  0  0  0  0  0
   -6.0880   -3.3690    5.5730 O   0  0  0  0  0  0  0  0  0  0  0  0
   -5.4730   -0.2600    1.8200 N   0  0  0  0  0  0  0  0  0  0  0  0
   -4.7820    0.1420    0.7430 C   0  0  0  0  0  0  0  0  0  0  0  0
   -5.1900    1.0100   -0.2660 N   0  0  0  0  0  0  0  0  0  0  0  0
   -6.3690    1.8980   -0.0380 C   0  0  0  0  0  0  0  0  0  0  0  0
   -6.9330    1.8590    0.9870 O   0  0  0  0  0  0  0  0  0  0  0  0
   -6.4930    2.6380   -1.2890 N   0  0  0  0  0  0  0  0  0  0  0  0
   -7.6640    3.7640   -0.6400 C   0  0  0  0  0  0  0  0  0  0  0  0
   -7.9680    3.6200    0.4530 O   0  0  0  0  0  0  0  0  0  0  0  0
   -8.0010    4.6320   -1.5930 O   0  0  0  0  0  0  0  0  0  0  0  0
    0.7730   -1.0290   -1.4430 C   0  0  0  0  0  0  0  0  0  0  0  0
    1.9770   -0.4470   -1.4300 C   0  0  0  0  0  0  0  0  0  0  0  0
    3.2070   -1.0910   -1.6870 N   0  0  0  0  0  0  0  0  0  0  0  0
    4.3890   -0.3520   -1.6730 C   0  0  0  0  0  0  0  0  0  0  0  0
    4.2160    0.9220   -1.4640 O   0  0  0  0  0  0  0  0  0  0  0  0
    5.7760   -0.7490   -1.8470 C   0  0  1  0  0  0  0  0  0  0  0  0
    6.6110    0.5410   -1.9820 C   0  0  0  0  0  0  0  0  0  0  0  0
    7.7600    0.3810   -1.2750 O   0  0  0  0  0  0  0  0  0  0  0  0
    7.6860    0.6770    0.0670 C   0  0  0  0  0  0  0  0  0  0  0  0
    6.4800    0.3390    0.8190 C   0  0  0  0  0  0  0  0  0  0  0  0
    5.7760   -0.8060    0.4650 O   0  0  0  0  0  0  0  0  0  0  0  0
    6.3480   -1.4370   -0.6270 C   0  0  0  0  0  0  0  0  0  0  0  0
    3.1960   -2.5060   -1.9970 C   0  0  0  0  0  0  0  0  0  0  0  0
    4.2560   -3.1170   -2.2280 O   0  0  0  0  0  0  0  0  0  0  0  0
    1.9340   -3.0750   -2.0030 O   0  0  0  0  0  0  0  0  0  0  0  0
    0.8090   -2.3990   -1.7500 O   0  0  0  0  0  0  0  0  0  0  0  0
  2  1  1  1
  2  3  1  0
  2 23  1  0
  3  4  1  0
  4  5  2  0
  4  6  1  0
  6  7  1  0
  6 15  1  0
  7  8  2  0
  8  9  1  0
  8 14  1  0
  9 10  2  0
  9 11  1  0
 11 12  1  0
 12 13  1  0
 14 15  2  0
 15 16  1  0
 16 17  1  0
 17 18  2  0
 17 19  1  0
 19 20  1  0
 20 21  2  0
 20 22  1  0
 23 24  2  0
 23 38  1  0
 24 25  1  0
 25 26  1  0
 25 35  1  0
 26 27  2  0
 28 26  1  1
 28 29  1  0
 28 34  1  0
 29 30  1  0
 30 31  1  0
 31 32  1  0
 32 33  1  0
 33 34  1  0
 35 36  2  0
 35 37  1  0
 37 38  1  0
M  END
