
     RDKit          3D

 38 41  0  0  0  0  0  0  0  0999 V2000
    6.5420   -1.3460   -0.8860 O   0  0  0  0  0  0  0  0  0  0  0  0
    6.6230   -1.4760    0.3730 C   0  0  0  0  0  0  0  0  0  0  0  0
    7.4310   -2.4330    0.9610 O   0  0  0  0  0  0  0  0  0  0  0  0
    5.8280   -0.5740    1.1510 N   0  0  0  0  0  0  0  0  0  0  0  0
    5.0450    0.3560    0.5780 O   0  0  0  0  0  0  0  0  0  0  0  0
    3.8190    0.1800    1.0180 O   0  0  0  0  0  0  0  0  0  0  0  0
    2.9960    0.1950   -0.0920 C   0  0  0  0  0  0  0  0  0  0  0  0
    1.5160    0.0060    0.3020 C   0  0  1  0  0  0  0  0  0  0  0  0
    1.1620    1.0840    1.2960 C   0  0  0  0  0  0  0  0  0  0  0  0
    1.0420    2.3560    0.8940 O   0  0  0  0  0  0  0  0  0  0  0  0
    0.8050    3.1950   -0.1100 C   0  0  0  0  0  0  0  0  0  0  0  0
    1.5880    3.4790   -1.2070 N   0  0  0  0  0  0  0  0  0  0  0  0
    1.0420    4.3270   -1.9460 O   0  0  0  0  0  0  0  0  0  0  0  0
   -0.0970    4.6910   -1.4690 C   0  0  0  0  0  0  0  0  0  0  0  0
   -0.3230    3.9960   -0.2710 C   0  0  0  0  0  0  0  0  0  0  0  0
   -1.4550    4.0740    0.6370 C   0  0  0  0  0  0  0  0  0  0  0  0
   -1.8290    5.2670    0.9420 O   0  0  0  0  0  0  0  0  0  0  0  0
   -2.1810    3.0690    1.2110 O   0  0  0  0  0  0  0  0  0  0  0  0
   -2.2250    1.7260    1.0320 C   0  0  0  0  0  0  0  0  0  0  0  0
   -3.5140    1.3080    0.3770 C   0  0  0  0  0  0  0  0  0  0  0  0
   -4.4800    2.1460    0.5390 O   0  0  0  0  0  0  0  0  0  0  0  0
   -3.6230    0.1060   -0.3390 N   0  0  0  0  0  0  0  0  0  0  0  0
   -4.9610   -0.5600   -0.2130 C   0  0  0  0  0  0  0  0  0  0  0  0
   -4.6870   -2.0320   -0.4440 C   0  0  0  0  0  0  0  0  0  0  0  0
   -5.7370   -2.7260   -0.6410 O   0  0  0  0  0  0  0  0  0  0  0  0
   -3.4550   -2.6300   -0.4550 O   0  0  0  0  0  0  0  0  0  0  0  0
   -2.2940   -1.8310   -0.3820 C   0  0  1  0  0  0  0  0  0  0  0  0
   -2.1980   -1.5820    1.0240 O   0  0  0  0  0  0  0  0  0  0  0  0
   -2.1390   -2.9350    1.4460 C   0  0  0  0  0  0  0  0  0  0  0  0
   -1.0900   -3.4270    0.4980 C   0  0  0  0  0  0  0  0  0  0  0  0
   -0.3570   -4.4640    0.5950 O   0  0  0  0  0  0  0  0  0  0  0  0
   -1.0740   -2.4480   -0.5970 N   0  0  0  0  0  0  0  0  0  0  0  0
   -0.0170   -2.3120   -1.5310 C   0  0  0  0  0  0  0  0  0  0  0  0
    0.5100   -0.9980   -1.8280 C   0  0  0  0  0  0  0  0  0  0  0  0
    0.7750   -0.7230   -3.0650 O   0  0  0  0  0  0  0  0  0  0  0  0
    0.7770    0.0430   -0.9150 N   0  0  0  0  0  0  0  0  0  0  0  0
   -2.6810   -0.5980   -1.1070 C   0  0  0  0  0  0  0  0  0  0  0  0
   -2.1350   -0.4200   -2.2060 O   0  0  0  0  0  0  0  0  0  0  0  0
  1  2  2  0
  2  3  1  0
  2  4  1  0
  4  5  1  0
  5  6  1  0
  6  7  1  0
  8  7  1  6
  8  9  1  0
  8 36  1  0
  9 10  1  0
 10 11  1  0
 11 12  2  0
 11 15  1  0
 12 13  1  0
 13 14  1  0
 14 15  2  0
 15 16  1  0
 16 17  2  0
 16 18  1  0
 18 19  1  0
 19 20  1  0
 20 21  2  0
 20 22  1  0
 22 23  1  0
 22 37  1  0
 23 24  1  0
 24 25  2  0
 24 26  1  0
 27 26  1  1
 27 28  1  0
 27 32  1  0
 27 37  1  0
 28 29  1  0
 29 30  1  0
 30 31  2  0
 30 32  1  0
 32 33  1  0
 33 34  1  0
 34 35  2  0
 34 36  1  0
 37 38  2  0
M  END
