
     RDKit          3D

 38 41  0  0  0  0  0  0  0  0999 V2000
   -8.0010    0.1000   -1.4990 O   0  0  0  0  0  0  0  0  0  0  0  0
   -6.8500   -0.3680   -1.2360 C   0  0  0  0  0  0  0  0  0  0  0  0
   -6.3870   -1.7040   -1.4830 C   0  0  0  0  0  0  0  0  0  0  0  0
   -6.9980   -2.6640   -1.9970 O   0  0  0  0  0  0  0  0  0  0  0  0
   -5.0210   -1.7490   -1.0100 N   0  0  0  0  0  0  0  0  0  0  0  0
   -4.2990   -2.9620   -0.9630 C   0  0  0  0  0  0  0  0  0  0  0  0
   -3.2260   -3.1650   -0.3750 O   0  0  0  0  0  0  0  0  0  0  0  0
   -4.8090   -4.0850   -1.6400 O   0  0  0  0  0  0  0  0  0  0  0  0
   -4.7020   -0.4310   -0.4960 C   0  0  0  0  0  0  0  0  0  0  0  0
   -3.4860   -0.1510    0.1680 N   0  0  0  0  0  0  0  0  0  0  0  0
   -2.1650   -0.6070   -0.3170 C   0  0  0  0  0  0  0  0  0  0  0  0
   -1.2570   -0.9120    0.8270 C   0  0  1  0  0  0  0  0  0  0  0  0
    0.0430   -1.4670    0.4020 C   0  0  0  0  0  0  0  0  0  0  0  0
    0.3490   -1.6600   -0.8040 O   0  0  0  0  0  0  0  0  0  0  0  0
    0.9710   -1.7910    1.3820 O   0  0  0  0  0  0  0  0  0  0  0  0
    2.2460   -2.3270    1.0680 C   0  0  0  0  0  0  0  0  0  0  0  0
    2.9710   -1.3440    0.2120 C   0  0  0  0  0  0  0  0  0  0  0  0
    3.7530   -0.3570    0.6580 N   0  0  0  0  0  0  0  0  0  0  0  0
    4.2190    0.3040   -0.4320 C   0  0  0  0  0  0  0  0  0  0  0  0
    5.1160    1.4620   -0.3840 C   0  0  0  0  0  0  0  0  0  0  0  0
    6.5160    1.1090   -0.4400 N   0  0  0  0  0  0  0  0  0  0  0  0
    7.3380    0.8360    0.7210 C   0  0  0  0  0  0  0  0  0  0  0  0
    8.6420    1.5740    0.5160 C   0  0  0  0  0  0  0  0  0  0  0  0
    9.2880    1.2850   -0.6550 O   0  0  0  0  0  0  0  0  0  0  0  0
    8.5530    0.8150   -1.6370 O   0  0  0  0  0  0  0  0  0  0  0  0
    7.1610    1.0150   -1.7030 C   0  0  0  0  0  0  0  0  0  0  0  0
    6.5210    1.1070   -2.7630 O   0  0  0  0  0  0  0  0  0  0  0  0
    3.6930   -0.3170   -1.5040 N   0  0  0  0  0  0  0  0  0  0  0  0
    2.9450   -1.3060   -1.0810 O   0  0  0  0  0  0  0  0  0  0  0  0
   -0.9740    0.3660    1.6200 C   0  0  0  0  0  0  0  0  0  0  0  0
   -2.0330    1.3220    1.3920 O   0  0  0  0  0  0  0  0  0  0  0  0
   -3.3170    0.7850    1.2570 C   0  0  0  0  0  0  0  0  0  0  0  0
   -4.2950    1.0320    1.9740 O   0  0  0  0  0  0  0  0  0  0  0  0
   -5.7570    0.3500   -0.6290 C   0  0  0  0  0  0  0  0  0  0  0  0
   -5.8270    1.7980   -0.2930 C   0  0  0  0  0  0  0  0  0  0  0  0
   -6.7890    1.9890    0.6630 O   0  0  0  0  0  0  0  0  0  0  0  0
   -6.8970    3.2610    1.0030 O   0  0  0  0  0  0  0  0  0  0  0  0
   -6.4310    3.3320    2.2510 O   0  0  0  0  0  0  0  0  0  0  0  0
  1  2  2  0
  2  3  1  0
  2 34  1  0
  3  4  2  0
  3  5  1  0
  5  6  1  0
  5  9  1  0
  6  7  2  0
  6  8  1  0
  9 10  1  0
  9 34  2  0
 10 11  1  0
 10 32  1  0
 11 12  1  0
 12 13  1  6
 12 30  1  0
 13 14  2  0
 13 15  1  0
 15 16  1  0
 16 17  1  0
 17 18  2  0
 17 29  1  0
 18 19  1  0
 19 20  1  0
 19 28  2  0
 20 21  1  0
 21 22  1  0
 21 26  1  0
 22 23  1  0
 23 24  1  0
 24 25  1  0
 25 26  1  0
 26 27  2  0
 28 29  1  0
 30 31  1  0
 31 32  1  0
 32 33  2  0
 34 35  1  0
 35 36  1  0
 36 37  1  0
 37 38  1  0
M  END
