
     RDKit          3D

 38 39  0  0  0  0  0  0  0  0999 V2000
    6.7250   -1.1650    1.5110 N   0  0  0  0  0  0  0  0  0  0  0  0
    6.1420   -0.1500    0.9720 C   0  0  0  0  0  0  0  0  0  0  0  0
    6.7860    1.1080    0.8890 N   0  0  0  0  0  0  0  0  0  0  0  0
    8.5660    1.1970    1.1880 P   0  0  0  0  0  0  0  0  0  0  0  0
    9.2960    1.8240   -0.2520 O   0  0  0  0  0  0  0  0  0  0  0  0
    8.7950    2.3260    2.4930 O   0  0  0  0  0  0  0  0  0  0  0  0
    4.8060   -0.2470    0.4290 N   0  0  0  0  0  0  0  0  0  0  0  0
    4.6960   -0.1720   -1.0000 C   0  0  0  0  0  0  0  0  0  0  0  0
    3.6200   -1.0190   -1.6000 C   0  0  0  0  0  0  0  0  0  0  0  0
    2.5910   -0.2180   -2.1980 O   0  0  0  0  0  0  0  0  0  0  0  0
    1.2490   -0.4730   -2.0770 C   0  0  0  0  0  0  0  0  0  0  0  0
    0.5090   -0.3490   -3.0810 O   0  0  0  0  0  0  0  0  0  0  0  0
    0.6770   -0.8830   -0.7990 C   0  0  2  0  0  0  0  0  0  0  0  0
   -0.8360   -1.0030   -0.8510 C   0  0  0  0  0  0  0  0  0  0  0  0
   -1.3520   -1.4310    0.5080 C   0  0  0  0  0  0  0  0  0  0  0  0
   -2.8320   -1.5620    0.5050 C   0  0  0  0  0  0  0  0  0  0  0  0
   -3.4470   -1.9080    1.5440 O   0  0  0  0  0  0  0  0  0  0  0  0
   -3.5410   -1.3000   -0.6590 O   0  0  0  0  0  0  0  0  0  0  0  0
   -4.9160   -1.4200   -0.6680 C   0  0  0  0  0  0  0  0  0  0  0  0
   -5.5610   -2.5540   -0.9680 N   0  0  0  0  0  0  0  0  0  0  0  0
   -6.9060   -2.6190   -0.9620 C   0  0  0  0  0  0  0  0  0  0  0  0
   -7.4790   -3.7250   -1.2550 O   0  0  0  0  0  0  0  0  0  0  0  0
   -7.6080   -1.5550   -0.6580 O   0  0  0  0  0  0  0  0  0  0  0  0
   -7.0770   -0.3890   -0.3470 C   0  0  0  0  0  0  0  0  0  0  0  0
   -7.9070    0.7630   -0.0170 C   0  0  0  0  0  0  0  0  0  0  0  0
   -7.3490    1.8480    0.2710 O   0  0  0  0  0  0  0  0  0  0  0  0
   -9.2890    0.7140   -0.0060 O   0  0  0  0  0  0  0  0  0  0  0  0
  -10.0480    1.8390    0.3160 C   0  0  0  0  0  0  0  0  0  0  0  0
   -9.4110    2.8910    0.5940 O   0  0  0  0  0  0  0  0  0  0  0  0
  -11.4490    1.7880    0.3260 O   0  0  0  0  0  0  0  0  0  0  0  0
   -5.6990   -0.3270   -0.3540 C   0  0  0  0  0  0  0  0  0  0  0  0
   -5.1210    0.8920   -0.0300 O   0  0  0  0  0  0  0  0  0  0  0  0
    0.9950   -0.1090    0.2850 O   0  0  0  0  0  0  0  0  0  0  0  0
    1.2200    1.2180    0.0470 C   0  0  0  0  0  0  0  0  0  0  0  0
    2.3130    1.6850    0.8710 N   0  0  0  0  0  0  0  0  0  0  0  0
    3.1070    0.9020    1.7310 C   0  0  0  0  0  0  0  0  0  0  0  0
    3.3070    1.3640    2.9120 O   0  0  0  0  0  0  0  0  0  0  0  0
    3.7100   -0.4060    1.3320 C   0  0  0  0  0  0  0  0  0  0  0  0
  1  2  2  0
  2  3  1  0
  2  7  1  0
  3  4  1  0
  4  5  1  0
  4  6  1  0
  7  8  1  0
  7 38  1  0
  8  9  1  0
  9 10  1  0
 10 11  1  0
 11 12  2  0
 11 13  1  0
 13 14  1  6
 13 33  1  0
 14 15  1  0
 15 16  1  0
 16 17  2  0
 16 18  1  0
 18 19  1  0
 19 20  2  0
 19 31  1  0
 20 21  1  0
 21 22  2  0
 21 23  1  0
 23 24  1  0
 24 25  1  0
 24 31  2  0
 25 26  2  0
 25 27  1  0
 27 28  1  0
 28 29  2  0
 28 30  1  0
 31 32  1  0
 33 34  1  0
 34 35  1  0
 35 36  1  0
 36 37  2  0
 36 38  1  0
M  END
