
     RDKit          3D

 38 40  0  0  0  0  0  0  0  0999 V2000
   -6.8160   -1.3380   -0.1410 O   0  0  0  0  0  0  0  0  0  0  0  0
   -5.7350   -0.8750    0.3320 C   0  0  0  0  0  0  0  0  0  0  0  0
   -4.5290   -0.8860   -0.3490 O   0  0  0  0  0  0  0  0  0  0  0  0
   -3.3850   -1.3480    0.3460 C   0  0  1  0  0  0  0  0  0  0  0  0
   -3.0470   -2.7030   -0.2770 C   0  0  0  0  0  0  0  0  0  0  0  0
   -2.7870   -2.5400   -1.6380 O   0  0  0  0  0  0  0  0  0  0  0  0
   -2.4010   -4.0130   -2.4190 P   0  0  0  0  0  0  0  0  0  0  0  0
   -3.1060   -4.1830   -3.9740 O   0  0  0  0  0  0  0  0  0  0  0  0
   -2.7030   -5.3960   -1.4210 O   0  0  0  0  0  0  0  0  0  0  0  0
   -2.2130   -0.4880    0.1820 C   0  0  0  0  0  0  0  0  0  0  0  0
   -2.2710    0.8360    0.5890 O   0  0  0  0  0  0  0  0  0  0  0  0
   -1.1000   -0.8880   -0.3280 N   0  0  0  0  0  0  0  0  0  0  0  0
    0.0320   -0.0450   -0.4820 C   0  0  0  0  0  0  0  0  0  0  0  0
   -0.0200    1.1640   -0.8940 N   0  0  0  0  0  0  0  0  0  0  0  0
    1.2860    1.7490   -0.9400 C   0  0  0  0  0  0  0  0  0  0  0  0
    1.5270    2.9640   -1.3240 N   0  0  0  0  0  0  0  0  0  0  0  0
    2.7170    3.5780   -1.3930 O   0  0  0  0  0  0  0  0  0  0  0  0
    2.1920    0.7610   -0.5020 N   0  0  0  0  0  0  0  0  0  0  0  0
    3.6250    0.8620   -0.3610 C   0  0  0  0  0  0  0  0  0  0  0  0
    4.3020   -0.0160   -1.3990 C   0  0  0  0  0  0  0  0  0  0  0  0
    5.7420    0.0390   -1.3110 N   0  0  0  0  0  0  0  0  0  0  0  0
    6.4670   -0.3530   -0.1420 C   0  0  0  0  0  0  0  0  0  0  0  0
    5.8270   -0.7580    0.8380 O   0  0  0  0  0  0  0  0  0  0  0  0
    7.9470   -0.2450   -0.1870 C   0  0  2  0  0  0  0  0  0  0  0  0
    8.4690   -0.6810    1.0390 O   0  0  0  0  0  0  0  0  0  0  0  0
    9.7510   -0.1310    1.0670 C   0  0  0  0  0  0  0  0  0  0  0  0
    9.6240    1.1620    0.4880 O   0  0  0  0  0  0  0  0  0  0  0  0
    8.3990    1.1770   -0.1760 C   0  0  0  0  0  0  0  0  0  0  0  0
    7.8670    2.2060   -0.6300 O   0  0  0  0  0  0  0  0  0  0  0  0
    1.4270   -0.4300   -0.1990 C   0  0  0  0  0  0  0  0  0  0  0  0
   -3.6950   -1.6180    1.6690 O   0  0  0  0  0  0  0  0  0  0  0  0
   -4.3720   -0.5930    2.3020 C   0  0  0  0  0  0  0  0  0  0  0  0
   -5.6950   -0.2690    1.6950 C   0  0  1  0  0  0  0  0  0  0  0  0
   -5.8330    1.2410    1.4970 C   0  0  0  0  0  0  0  0  0  0  0  0
   -7.0290    1.5540    0.8640 O   0  0  0  0  0  0  0  0  0  0  0  0
   -7.1020    3.2770    0.6820 P   0  0  0  0  0  0  0  0  0  0  0  0
   -8.7360    3.8180    0.4620 O   0  0  0  0  0  0  0  0  0  0  0  0
   -6.4100    4.0990    2.0260 O   0  0  0  0  0  0  0  0  0  0  0  0
  1  2  2  0
  2  3  1  0
  2 33  1  0
  3  4  1  0
  4  5  1  6
  4 10  1  0
  4 31  1  0
  5  6  1  0
  6  7  1  0
  7  8  1  0
  7  9  1  0
 10 11  1  0
 10 12  2  3
 12 13  1  0
 13 14  2  0
 13 30  1  0
 14 15  1  0
 15 16  2  3
 15 18  1  0
 16 17  1  0
 18 19  1  0
 18 30  1  0
 19 20  1  0
 20 21  1  0
 21 22  1  0
 22 23  2  0
 24 22  1  1
 24 25  1  0
 24 28  1  0
 25 26  1  0
 26 27  1  0
 27 28  1  0
 28 29  2  0
 31 32  1  0
 32 33  1  0
 33 34  1  6
 34 35  1  0
 35 36  1  0
 36 37  1  0
 36 38  1  0
M  END
