
     RDKit          3D

 39 41  0  0  0  0  0  0  0  0999 V2000
    3.2830    3.7340   -0.2450 C   0  0  0  0  0  0  0  0  0  0  0  0
    3.1960    2.4300    0.1490 C   0  0  0  0  0  0  0  0  0  0  0  0
    4.4300    1.7880    0.5490 N   0  0  0  0  0  0  0  0  0  0  0  0
    4.9910    0.5650    0.1920 C   0  0  0  0  0  0  0  0  0  0  0  0
    6.3130    0.5220    0.1800 O   0  0  0  0  0  0  0  0  0  0  0  0
    4.5140   -0.7200   -0.1820 N   0  0  0  0  0  0  0  0  0  0  0  0
    5.1370   -1.4200   -1.2830 C   0  0  0  0  0  0  0  0  0  0  0  0
    6.0400   -0.8830   -1.9500 O   0  0  0  0  0  0  0  0  0  0  0  0
    4.7550   -2.6870   -1.6170 O   0  0  0  0  0  0  0  0  0  0  0  0
    3.4810   -1.4920    0.4400 C   0  0  0  0  0  0  0  0  0  0  0  0
    2.2180   -1.6340   -0.3790 C   0  0  0  0  0  0  0  0  0  0  0  0
    2.5240   -1.5040   -1.6220 O   0  0  0  0  0  0  0  0  0  0  0  0
    1.0410   -1.8580    0.1900 O   0  0  0  0  0  0  0  0  0  0  0  0
   -0.2960   -1.7680    0.1650 C   0  0  1  0  0  0  0  0  0  0  0  0
   -0.9970   -2.9260   -0.5720 C   0  0  0  0  0  0  0  0  0  0  0  0
   -2.1650   -2.4060   -1.0730 O   0  0  0  0  0  0  0  0  0  0  0  0
   -1.9590   -1.4550   -2.4660 P   0  0  0  0  0  0  0  0  0  0  0  0
   -3.3130   -0.5570   -2.9440 O   0  0  0  0  0  0  0  0  0  0  0  0
   -4.0720    0.0040   -1.9510 C   0  0  0  0  0  0  0  0  0  0  0  0
   -4.6870   -0.9560   -0.9830 C   0  0  0  0  0  0  0  0  0  0  0  0
   -4.2080   -0.6870    0.4510 C   0  0  0  0  0  0  0  0  0  0  0  0
   -3.4510    0.4130    0.4910 O   0  0  0  0  0  0  0  0  0  0  0  0
   -2.4350    0.5250    1.4380 C   0  0  2  0  0  0  0  0  0  0  0  0
   -3.1030    1.2640    2.5940 C   0  0  0  0  0  0  0  0  0  0  0  0
   -3.1880    0.6830    3.7050 O   0  0  0  0  0  0  0  0  0  0  0  0
   -3.6070    2.5260    2.4620 O   0  0  0  0  0  0  0  0  0  0  0  0
   -1.5160    1.5230    0.8240 C   0  0  0  0  0  0  0  0  0  0  0  0
   -0.2920    1.7590    1.4870 N   0  0  0  0  0  0  0  0  0  0  0  0
    1.0560    1.3600    1.1770 C   0  0  0  0  0  0  0  0  0  0  0  0
    1.3590    0.4570    2.0770 O   0  0  0  0  0  0  0  0  0  0  0  0
    1.8600    1.8570    0.1190 N   0  0  0  0  0  0  0  0  0  0  0  0
    1.2880    1.8720   -1.2480 C   0  0  0  0  0  0  0  0  0  0  0  0
    1.4210    2.9960   -1.9020 O   0  0  0  0  0  0  0  0  0  0  0  0
    0.6590    0.8790   -1.8840 O   0  0  0  0  0  0  0  0  0  0  0  0
   -0.3650    0.5470   -2.5630 O   0  0  0  0  0  0  0  0  0  0  0  0
   -0.4360   -0.7560   -2.7050 O   0  0  0  0  0  0  0  0  0  0  0  0
   -2.0020   -0.7480    1.8200 N   0  0  0  0  0  0  0  0  0  0  0  0
   -0.9630   -1.6230    1.5320 C   0  0  0  0  0  0  0  0  0  0  0  0
   -0.4200   -2.4260    2.3640 O   0  0  0  0  0  0  0  0  0  0  0  0
  1  2  2  0
  2  3  1  0
  2 31  1  0
  3  4  1  0
  4  5  2  0
  4  6  1  0
  6  7  1  0
  6 10  1  0
  7  8  2  0
  7  9  1  0
 10 11  1  0
 11 12  2  0
 11 13  1  0
 13 14  1  0
 14 15  1  1
 14 38  1  0
 15 16  1  0
 16 17  1  0
 17 18  1  0
 17 36  1  0
 18 19  1  0
 19 20  1  0
 20 21  1  0
 21 22  1  0
 22 23  1  0
 23 24  1  1
 23 27  1  0
 23 37  1  0
 24 25  2  0
 24 26  1  0
 27 28  1  0
 28 29  1  0
 29 30  2  0
 29 31  1  0
 31 32  1  0
 32 33  2  0
 32 34  1  0
 34 35  1  0
 35 36  1  0
 37 38  1  0
 38 39  2  0
M  END
