
     RDKit          3D

 38 39  0  0  0  0  0  0  0  0999 V2000
   -5.6040    4.1300    0.0160 O   0  0  0  0  0  0  0  0  0  0  0  0
   -6.5720    3.5030    0.5030 C   0  0  0  0  0  0  0  0  0  0  0  0
   -6.7290    2.0710    0.3780 N   0  0  0  0  0  0  0  0  0  0  0  0
   -5.7010    1.3950   -0.3460 C   0  0  0  0  0  0  0  0  0  0  0  0
   -4.6220    0.9500    0.6040 C   0  0  0  0  0  0  0  0  0  0  0  0
   -4.6830    1.1720    1.8390 O   0  0  0  0  0  0  0  0  0  0  0  0
   -3.5030    0.2670    0.1490 O   0  0  0  0  0  0  0  0  0  0  0  0
   -2.5020   -0.1430    1.0470 C   0  0  2  0  0  0  0  0  0  0  0  0
   -1.2140    0.5430    0.6110 C   0  0  0  0  0  0  0  0  0  0  0  0
   -0.9350    0.1340   -0.6900 O   0  0  0  0  0  0  0  0  0  0  0  0
    0.1680    0.6860   -1.1410 O   0  0  0  0  0  0  0  0  0  0  0  0
    1.2330   -0.1050   -0.7580 C   0  0  0  0  0  0  0  0  0  0  0  0
    2.4900    0.4920   -1.2530 C   0  0  0  0  0  0  0  0  0  0  0  0
    2.4280    1.5580   -1.9040 O   0  0  0  0  0  0  0  0  0  0  0  0
    3.7260   -0.1790   -0.9640 N   0  0  0  0  0  0  0  0  0  0  0  0
    3.7620   -1.3950   -0.2180 C   0  0  0  0  0  0  0  0  0  0  0  0
    5.0490   -1.6480    0.4900 C   0  0  0  0  0  0  0  0  0  0  0  0
    6.2720   -1.4320   -0.3930 C   0  0  0  0  0  0  0  0  0  0  0  0
    6.1980   -0.0510   -0.8380 N   0  0  0  0  0  0  0  0  0  0  0  0
    7.2590    0.8630   -0.6980 C   0  0  0  0  0  0  0  0  0  0  0  0
    8.4020    0.4880   -0.1700 N   0  0  0  0  0  0  0  0  0  0  0  0
    9.3150    1.5680   -0.1300 C   0  0  0  0  0  0  0  0  0  0  0  0
   10.6320    1.5470    0.3630 O   0  0  0  0  0  0  0  0  0  0  0  0
    8.7540    2.6120   -0.6270 N   0  0  0  0  0  0  0  0  0  0  0  0
    7.4240    2.2510   -1.0200 C   0  0  0  0  0  0  0  0  0  0  0  0
    6.5580    2.9890   -1.5440 O   0  0  0  0  0  0  0  0  0  0  0  0
    4.9810    0.3620   -1.4270 C   0  0  0  0  0  0  0  0  0  0  0  0
    4.9390    1.1980   -2.3600 O   0  0  0  0  0  0  0  0  0  0  0  0
   -2.2380   -1.6340    0.9660 C   0  0  0  0  0  0  0  0  0  0  0  0
   -1.8270   -1.9210   -0.3390 O   0  0  0  0  0  0  0  0  0  0  0  0
   -1.4930   -3.1900   -0.7980 C   0  0  0  0  0  0  0  0  0  0  0  0
   -1.5690   -4.1360    0.0240 O   0  0  0  0  0  0  0  0  0  0  0  0
   -1.0930   -3.4080   -2.1080 O   0  0  0  0  0  0  0  0  0  0  0  0
   -7.8460    1.4550    0.9760 C   0  0  0  0  0  0  0  0  0  0  0  0
   -8.6820    2.2260    1.5730 O   0  0  0  0  0  0  0  0  0  0  0  0
   -8.1460    0.0150    0.9840 C   0  0  0  0  0  0  0  0  0  0  0  0
   -7.2300   -0.7930    0.3750 O   0  0  0  0  0  0  0  0  0  0  0  0
   -7.5190   -2.0530    0.3970 O   0  0  0  0  0  0  0  0  0  0  0  0
  1  2  2  0
  2  3  1  0
  3  4  1  0
  3 34  1  0
  4  5  1  0
  5  6  2  0
  5  7  1  0
  7  8  1  0
  8  9  1  6
  8 29  1  0
  9 10  1  0
 10 11  1  0
 11 12  1  0
 12 13  1  0
 13 14  2  0
 13 15  1  0
 15 16  1  0
 15 27  1  0
 16 17  1  0
 17 18  1  0
 18 19  1  0
 19 20  1  0
 19 27  1  0
 20 21  2  0
 20 25  1  0
 21 22  1  0
 22 23  1  0
 22 24  2  0
 24 25  1  0
 25 26  2  0
 27 28  2  0
 29 30  1  0
 30 31  1  0
 31 32  2  0
 31 33  1  0
 34 35  2  0
 34 36  1  0
 36 37  1  0
 37 38  1  0
M  END
