
     RDKit          3D

 38 40  0  0  0  0  0  0  0  0999 V2000
    6.8360   -2.6600   -2.3260 C   0  0  0  0  0  0  0  0  0  0  0  0
    6.5750   -2.6950   -0.9280 O   0  0  0  0  0  0  0  0  0  0  0  0
    5.4800   -2.0450   -0.3850 C   0  0  0  0  0  0  0  0  0  0  0  0
    4.7180   -1.4190   -1.1640 O   0  0  0  0  0  0  0  0  0  0  0  0
    5.2350   -2.1000    1.0790 C   0  0  0  0  0  0  0  0  0  0  0  0
    4.0750   -1.3750    1.4160 O   0  0  0  0  0  0  0  0  0  0  0  0
    4.0030   -0.0450    1.1370 C   0  0  0  0  0  0  0  0  0  0  0  0
    4.9710    0.5380    0.5790 O   0  0  0  0  0  0  0  0  0  0  0  0
    2.8530    0.7790    1.4470 N   0  0  0  0  0  0  0  0  0  0  0  0
    1.7600    0.0610    2.0890 C   0  0  0  0  0  0  0  0  0  0  0  0
    1.1830   -0.9190    1.1350 C   0  0  0  0  0  0  0  0  0  0  0  0
    1.7280   -1.6980    0.1850 N   0  0  0  0  0  0  0  0  0  0  0  0
    0.7760   -2.3810   -0.4190 O   0  0  0  0  0  0  0  0  0  0  0  0
   -0.3730   -2.0640    0.1170 C   0  0  0  0  0  0  0  0  0  0  0  0
   -0.1400   -1.1610    1.0810 N   0  0  0  0  0  0  0  0  0  0  0  0
   -1.7740   -2.5130   -0.1590 C   0  0  0  0  0  0  0  0  0  0  0  0
   -2.6390   -1.4820    0.2210 O   0  0  0  0  0  0  0  0  0  0  0  0
   -3.9550   -1.3070   -0.1220 C   0  0  0  0  0  0  0  0  0  0  0  0
   -4.8760   -1.3560    0.7860 O   0  0  0  0  0  0  0  0  0  0  0  0
   -4.4790   -1.0580   -1.4650 C   0  0  0  0  0  0  0  0  0  0  0  0
   -5.6060   -1.8970   -1.9990 C   0  0  0  0  0  0  0  0  0  0  0  0
   -6.7200   -1.8080   -1.1700 O   0  0  0  0  0  0  0  0  0  0  0  0
   -7.7180   -2.5310   -1.6130 O   0  0  0  0  0  0  0  0  0  0  0  0
   -4.0530   -0.1000   -2.2750 C   0  0  0  0  0  0  0  0  0  0  0  0
   -3.0380    0.8030   -1.9390 O   0  0  0  0  0  0  0  0  0  0  0  0
   -2.5490    0.9580   -0.7360 O   0  0  0  0  0  0  0  0  0  0  0  0
   -1.6950    1.8010   -0.0640 C   0  0  0  0  0  0  0  0  0  0  0  0
   -0.3140    1.8270   -0.0620 C   0  0  0  0  0  0  0  0  0  0  0  0
    0.3270    2.7570    0.6980 C   0  0  0  0  0  0  0  0  0  0  0  0
   -0.4830    3.6550    1.4470 C   0  0  0  0  0  0  0  0  0  0  0  0
   -1.8520    3.6410    1.4530 C   0  0  0  0  0  0  0  0  0  0  0  0
   -2.5750    4.5510    2.2100 O   0  0  0  0  0  0  0  0  0  0  0  0
   -2.8040    5.7520    1.6530 O   0  0  0  0  0  0  0  0  0  0  0  0
   -4.0460    5.8220    1.2080 O   0  0  0  0  0  0  0  0  0  0  0  0
   -2.4060    2.7080    0.6920 N   0  0  0  0  0  0  0  0  0  0  0  0
    1.7340    3.0070    0.9300 N   0  0  0  0  0  0  0  0  0  0  0  0
    2.8290    2.1670    1.1390 C   0  0  0  0  0  0  0  0  0  0  0  0
    4.0160    2.6570    1.0540 O   0  0  0  0  0  0  0  0  0  0  0  0
  1  2  1  0
  2  3  1  0
  3  4  2  0
  3  5  1  0
  5  6  1  0
  6  7  1  0
  7  8  2  0
  7  9  1  0
  9 10  1  0
  9 37  1  0
 10 11  1  0
 11 12  2  0
 11 15  1  0
 12 13  1  0
 13 14  1  0
 14 15  2  0
 14 16  1  0
 16 17  1  0
 17 18  1  0
 18 19  2  0
 18 20  1  0
 20 21  1  0
 20 24  2  0
 21 22  1  0
 22 23  1  0
 24 25  1  0
 25 26  1  0
 26 27  1  0
 27 28  2  0
 27 35  1  0
 28 29  1  0
 29 30  2  0
 29 36  1  0
 30 31  1  0
 31 32  1  0
 31 35  2  0
 32 33  1  0
 33 34  1  0
 36 37  1  0
 37 38  2  0
M  END
