
     RDKit          3D

 38 38  0  0  0  0  0  0  0  0999 V2000
   -0.2040   -3.7750    0.3670 C   0  0  0  0  0  0  0  0  0  0  0  0
   -0.6650   -2.4560    0.9630 C   0  0  0  0  0  0  0  0  0  0  0  0
   -1.5990   -2.5950    1.7860 N   0  0  0  0  0  0  0  0  0  0  0  0
   -2.3500   -1.8650    2.5640 O   0  0  0  0  0  0  0  0  0  0  0  0
   -2.9290   -2.3890    3.6610 O   0  0  0  0  0  0  0  0  0  0  0  0
   -0.0860   -1.2150    0.5930 N   0  0  0  0  0  0  0  0  0  0  0  0
   -0.5910   -0.0080    1.1720 C   0  0  0  0  0  0  0  0  0  0  0  0
   -1.7560    0.6940    0.6240 C   0  0  2  0  0  0  0  0  0  0  0  0
   -2.3610    1.5130    1.8010 C   0  0  0  0  0  0  0  0  0  0  0  0
   -3.5770    2.2660    1.2880 C   0  0  0  0  0  0  0  0  0  0  0  0
   -4.1250    3.0060    2.3470 O   0  0  0  0  0  0  0  0  0  0  0  0
   -5.2300    3.8070    2.2580 C   0  0  0  0  0  0  0  0  0  0  0  0
   -5.8070    3.8880    1.1280 O   0  0  0  0  0  0  0  0  0  0  0  0
   -5.7370    4.5230    3.3400 O   0  0  0  0  0  0  0  0  0  0  0  0
   -2.8380   -0.0420    0.1610 O   0  0  0  0  0  0  0  0  0  0  0  0
   -2.9320   -0.9100   -0.8720 C   0  0  0  0  0  0  0  0  0  0  0  0
   -1.9380   -1.1150   -1.5700 O   0  0  0  0  0  0  0  0  0  0  0  0
   -4.2010   -1.5520   -1.1020 N   0  0  0  0  0  0  0  0  0  0  0  0
   -4.2610   -2.4590   -2.2000 C   0  0  0  0  0  0  0  0  0  0  0  0
   -5.4920   -3.1160   -2.4650 N   0  0  0  0  0  0  0  0  0  0  0  0
   -3.2580   -2.6760   -2.9160 O   0  0  0  0  0  0  0  0  0  0  0  0
   -1.4070    1.7960   -0.3320 C   0  0  0  0  0  0  0  0  0  0  0  0
   -1.8810    1.7480   -1.4760 O   0  0  0  0  0  0  0  0  0  0  0  0
   -0.6040    2.8070    0.0400 O   0  0  0  0  0  0  0  0  0  0  0  0
    0.6510    2.8580    0.4000 O   0  0  0  0  0  0  0  0  0  0  0  0
    1.5480    2.7280   -0.6560 C   0  0  0  0  0  0  0  0  0  0  0  0
    2.5380    1.6760   -0.2530 C   0  0  0  0  0  0  0  0  0  0  0  0
    3.3470    1.9070    0.7140 O   0  0  0  0  0  0  0  0  0  0  0  0
    2.6450    0.4140   -0.8820 N   0  0  0  0  0  0  0  0  0  0  0  0
    3.9120   -0.1950   -1.1020 C   0  0  0  0  0  0  0  0  0  0  0  0
    3.9490   -1.3300   -1.6700 O   0  0  0  0  0  0  0  0  0  0  0  0
    5.1050    0.3620   -0.7390 O   0  0  0  0  0  0  0  0  0  0  0  0
    6.3680   -0.2320   -0.9510 C   0  0  1  0  0  0  0  0  0  0  0  0
    7.1890    0.6470   -1.8760 C   0  0  0  0  0  0  0  0  0  0  0  0
    7.1500   -0.3690    0.3380 C   0  0  0  0  0  0  0  0  0  0  0  0
    1.4130   -0.2540   -1.3030 C   0  0  0  0  0  0  0  0  0  0  0  0
    1.0030   -1.2840   -0.3250 C   0  0  0  0  0  0  0  0  0  0  0  0
    1.7540   -2.3290   -0.3590 O   0  0  0  0  0  0  0  0  0  0  0  0
  1  2  1  0
  2  3  2  3
  2  6  1  0
  3  4  1  0
  4  5  1  0
  6  7  1  0
  6 37  1  0
  7  8  1  0
  8  9  1  1
  8 15  1  0
  8 22  1  0
  9 10  1  0
 10 11  1  0
 11 12  1  0
 12 13  2  0
 12 14  1  0
 15 16  1  0
 16 17  2  0
 16 18  1  0
 18 19  1  0
 19 20  1  0
 19 21  2  0
 22 23  2  0
 22 24  1  0
 24 25  1  0
 25 26  1  0
 26 27  1  0
 27 28  2  0
 27 29  1  0
 29 30  1  0
 29 36  1  0
 30 31  2  0
 30 32  1  0
 32 33  1  0
 33 34  1  6
 33 35  1  0
 36 37  1  0
 37 38  2  0
M  END
