
     RDKit          3D

 38 39  0  0  0  0  0  0  0  0999 V2000
   -2.5710    0.4820   -1.8330 N   0  0  0  0  0  0  0  0  0  0  0  0
   -1.1940    0.3850   -1.3790 C   0  0  1  0  0  0  0  0  0  0  0  0
   -0.8480    1.2410   -0.2400 C   0  0  0  0  0  0  0  0  0  0  0  0
   -0.7150    0.6460    1.0040 O   0  0  0  0  0  0  0  0  0  0  0  0
   -1.2020    1.2010    2.2000 C   0  0  0  0  0  0  0  0  0  0  0  0
   -0.4930    1.1600    3.2550 O   0  0  0  0  0  0  0  0  0  0  0  0
   -2.4740    1.8260    2.2540 N   0  0  0  0  0  0  0  0  0  0  0  0
   -3.6540    1.3060    1.6620 C   0  0  0  0  0  0  0  0  0  0  0  0
   -4.3740    2.1340    1.0160 O   0  0  0  0  0  0  0  0  0  0  0  0
   -4.0740   -0.1500    1.7600 C   0  0  1  0  0  0  0  0  0  0  0  0
   -5.5480   -0.1320    1.5430 C   0  0  0  0  0  0  0  0  0  0  0  0
   -6.3330    0.2610    2.4510 O   0  0  0  0  0  0  0  0  0  0  0  0
   -6.0860   -0.5390    0.3330 O   0  0  0  0  0  0  0  0  0  0  0  0
   -7.4390   -0.5860   -0.0040 C   0  0  0  0  0  0  0  0  0  0  0  0
   -8.1570    0.7050    0.1850 C   0  0  0  0  0  0  0  0  0  0  0  0
   -9.5100    0.5010   -0.1950 O   0  0  0  0  0  0  0  0  0  0  0  0
   -3.5390   -0.8840    0.7200 O   0  0  0  0  0  0  0  0  0  0  0  0
   -3.0170   -2.1280    0.6070 C   0  0  0  0  0  0  0  0  0  0  0  0
   -3.7000   -3.2240    0.4450 O   0  0  0  0  0  0  0  0  0  0  0  0
   -1.5730   -2.3800    0.6590 C   0  0  0  0  0  0  0  0  0  0  0  0
   -1.2130   -3.4090    1.3420 O   0  0  0  0  0  0  0  0  0  0  0  0
   -0.5890   -1.5630    0.0140 N   0  0  0  0  0  0  0  0  0  0  0  0
   -0.6890   -1.0490   -1.3270 C   0  0  2  0  0  0  0  0  0  0  0  0
    0.6660   -0.9750   -1.9540 C   0  0  0  0  0  0  0  0  0  0  0  0
    1.1110   -1.2420   -3.1100 N   0  0  0  0  0  0  0  0  0  0  0  0
    2.4910   -0.9840   -3.1750 O   0  0  0  0  0  0  0  0  0  0  0  0
    2.9640   -0.6530   -1.9420 C   0  0  1  0  0  0  0  0  0  0  0  0
    3.8310    0.5900   -1.7880 C   0  0  0  0  0  0  0  0  0  0  0  0
    3.9360    0.5680   -0.3550 O   0  0  0  0  0  0  0  0  0  0  0  0
    5.3380    0.0910    0.2730 P   0  0  0  0  0  0  0  0  0  0  0  0
    5.2450   -1.1470    1.4540 O   0  0  0  0  0  0  0  0  0  0  0  0
    7.2630    0.9190   -0.0710 P   0  0  0  0  0  0  0  0  0  0  0  0
    7.7670    1.8730    1.3700 O   0  0  0  0  0  0  0  0  0  0  0  0
    8.5020   -0.5170   -0.1750 C   0  0  0  0  0  0  0  0  0  0  0  0
    9.8590   -0.0550    0.1500 C   0  0  0  0  0  0  0  0  0  0  0  0
   10.7800   -0.8890    0.1600 O   0  0  0  0  0  0  0  0  0  0  0  0
   10.1090    1.2780    0.4380 O   0  0  0  0  0  0  0  0  0  0  0  0
    1.7590   -0.5100   -1.1550 N   0  0  0  0  0  0  0  0  0  0  0  0
  2  1  1  1
  2  3  1  0
  2 23  1  0
  3  4  1  0
  4  5  1  0
  5  6  2  0
  5  7  1  0
  7  8  1  0
  8  9  2  0
  8 10  1  0
 10 11  1  6
 10 17  1  0
 11 12  2  0
 11 13  1  0
 13 14  1  0
 14 15  1  0
 15 16  1  0
 17 18  1  0
 18 19  2  0
 18 20  1  0
 20 21  2  0
 20 22  1  0
 22 23  1  0
 23 24  1  1
 24 25  2  0
 24 38  1  0
 25 26  1  0
 26 27  1  0
 27 28  1  6
 27 38  1  0
 28 29  1  0
 29 30  1  0
 30 31  1  0
 30 32  1  0
 32 33  1  0
 32 34  1  0
 34 35  1  0
 35 36  2  0
 35 37  1  0
M  END
