
     RDKit          3D

 12 13  0  0  0  0  0  0  0  0999 V2000
   -3.8260   -0.1810   -0.3140 O   0  0  0  0  0  0  0  0  0  0  0  0
   -2.8960    0.5050    0.1470 N   0  0  0  0  0  0  0  0  0  0  0  0
   -3.2080    1.6510    0.8180 O   0  0  0  0  0  0  0  0  0  0  0  0
   -1.5530    0.0950   -0.0260 C   0  0  0  0  0  0  0  0  0  0  0  0
   -1.2460   -1.0620   -0.7040 C   0  0  0  0  0  0  0  0  0  0  0  0
    0.0580   -1.4730   -0.8800 C   0  0  0  0  0  0  0  0  0  0  0  0
    1.1160   -0.7430   -0.3850 C   0  0  0  0  0  0  0  0  0  0  0  0
    2.4590   -0.8920   -0.4020 N   0  0  0  0  0  0  0  0  0  0  0  0
    3.0200    0.1460    0.2500 C   0  0  0  0  0  0  0  0  0  0  0  0
    2.0130    0.9320    0.6670 N   0  0  0  0  0  0  0  0  0  0  0  0
    0.8220    0.4290    0.3020 C   0  0  0  0  0  0  0  0  0  0  0  0
   -0.4910    0.8240    0.4680 C   0  0  0  0  0  0  0  0  0  0  0  0
  1  2  2  0
  2  3  1  0
  2  4  1  0
  4  5  2  0
  4 12  1  0
  5  6  1  0
  6  7  2  0
  7  8  1  0
  7 11  1  0
  8  9  2  0
  9 10  1  0
 10 11  1  0
 11 12  2  0
M  CHG  2   2   1   3  -1
M  END
