
     RDKit          3D

 12 13  0  0  0  0  0  0  0  0999 V2000
   -2.7820    1.9060   -0.6350 O   0  0  0  0  0  0  0  0  0  0  0  0
   -1.6820    1.7220   -0.0800 N   0  0  0  0  0  0  0  0  0  0  0  0
   -1.0600    2.7850    0.5000 O   0  0  0  0  0  0  0  0  0  0  0  0
   -1.1010    0.4250   -0.0600 C   0  0  0  0  0  0  0  0  0  0  0  0
   -1.8970   -0.7060   -0.1150 C   0  0  0  0  0  0  0  0  0  0  0  0
   -1.3140   -1.9560   -0.0940 C   0  0  0  0  0  0  0  0  0  0  0  0
    0.0100   -2.0630   -0.0200 N   0  0  0  0  0  0  0  0  0  0  0  0
    0.8300   -0.9890    0.0360 C   0  0  0  0  0  0  0  0  0  0  0  0
    2.1840   -0.8530    0.1120 N   0  0  0  0  0  0  0  0  0  0  0  0
    2.5180    0.4490    0.1430 C   0  0  0  0  0  0  0  0  0  0  0  0
    1.3350    1.1490    0.0830 C   0  0  0  0  0  0  0  0  0  0  0  0
    0.2670    0.2690    0.0150 C   0  0  0  0  0  0  0  0  0  0  0  0
  1  2  2  0
  2  3  1  0
  2  4  1  0
  4  5  2  0
  4 12  1  0
  5  6  1  0
  6  7  2  0
  7  8  1  0
  8  9  1  0
  8 12  2  0
  9 10  1  0
 10 11  2  0
 11 12  1  0
M  CHG  2   2   1   3  -1
M  END
