
     RDKit          3D

 11 12  0  0  0  0  0  0  0  0999 V2000
    2.5300   -0.5570    0.3230 C   0  0  0  0  0  0  0  0  0  0  0  0
    1.2720    0.2260    0.1870 C   0  0  0  0  0  0  0  0  0  0  0  0
    1.1500    1.5700    0.2490 N   0  0  0  0  0  0  0  0  0  0  0  0
   -0.1520    1.8580    0.0780 C   0  0  0  0  0  0  0  0  0  0  0  0
   -0.8960    0.7010   -0.0990 C   0  0  0  0  0  0  0  0  0  0  0  0
   -2.2270    0.4170   -0.3090 C   0  0  0  0  0  0  0  0  0  0  0  0
   -2.6610   -0.8480   -0.4470 N   0  0  0  0  0  0  0  0  0  0  0  0
   -4.0090   -1.1340   -0.6600 O   0  0  0  0  0  0  0  0  0  0  0  0
   -1.7790   -1.8320   -0.3780 N   0  0  0  0  0  0  0  0  0  0  0  0
   -0.4690   -1.6090   -0.1750 C   0  0  0  0  0  0  0  0  0  0  0  0
    0.0270   -0.3300   -0.0270 C   0  0  0  0  0  0  0  0  0  0  0  0
  1  2  1  0
  2  3  1  0
  2 11  2  0
  3  4  1  0
  4  5  2  0
  5  6  1  0
  5 11  1  0
  6  7  2  0
  7  8  1  0
  7  9  1  0
  9 10  2  0
 10 11  1  0
M  CHG  2   7   1   8  -1
M  END
