
     RDKit          3D

 12 12  0  0  0  0  0  0  0  0999 V2000
   -2.8180   -0.6480   -0.0140 C   0  0  0  0  0  0  0  0  0  0  0  0
   -1.4620   -1.1500    0.1170 C   0  0  0  0  0  0  0  0  0  0  0  0
   -0.3010   -0.5650    0.0750 C   0  0  0  0  0  0  0  0  0  0  0  0
    0.9120   -1.3520    0.2430 N   0  0  0  0  0  0  0  0  0  0  0  0
    2.0920   -0.8590    0.2160 C   0  0  0  0  0  0  0  0  0  0  0  0
    3.2590   -1.6690    0.3850 N   0  0  0  0  0  0  0  0  0  0  0  0
    3.6680   -2.0670    1.4890 O   0  0  0  0  0  0  0  0  0  0  0  0
    3.9710   -2.0320   -0.7260 O   0  0  0  0  0  0  0  0  0  0  0  0
    2.2190    0.5390    0.0090 N   0  0  0  0  0  0  0  0  0  0  0  0
    1.1160    1.4000   -0.1650 C   0  0  0  0  0  0  0  0  0  0  0  0
   -0.1210    0.8420   -0.1300 C   0  0  0  0  0  0  0  0  0  0  0  0
   -1.2610    1.7620   -0.3130 C   0  0  0  0  0  0  0  0  0  0  0  0
  1  2  1  0
  2  3  2  3
  3  4  1  0
  3 11  1  0
  4  5  2  0
  5  6  1  0
  5  9  1  0
  6  7  2  0
  6  8  1  0
  9 10  1  0
 10 11  2  0
 11 12  1  0
M  CHG  2   6   1   8  -1
M  END
