
     RDKit          3D

 12 13  0  0  0  0  0  0  0  0999 V2000
    2.6480   -2.0040   -0.5590 O   0  0  0  0  0  0  0  0  0  0  0  0
    2.9600   -0.8030   -0.4940 N   0  0  0  0  0  0  0  0  0  0  0  0
    4.2760   -0.4100   -0.4350 O   0  0  0  0  0  0  0  0  0  0  0  0
    1.9510    0.1990   -0.4750 C   0  0  0  0  0  0  0  0  0  0  0  0
    1.9460    1.4450   -0.9490 N   0  0  0  0  0  0  0  0  0  0  0  0
    0.7810    2.0510   -0.7110 N   0  0  0  0  0  0  0  0  0  0  0  0
    0.0050    1.1960   -0.0700 C   0  0  0  0  0  0  0  0  0  0  0  0
    0.7200    0.0140    0.0920 C   0  0  0  0  0  0  0  0  0  0  0  0
    0.0030   -1.0830    0.7940 C   0  0  0  0  0  0  0  0  0  0  0  0
   -1.3180   -1.2790    0.0890 C   0  0  0  0  0  0  0  0  0  0  0  0
   -2.0710   -0.0120   -0.1610 C   0  0  0  0  0  0  0  0  0  0  0  0
   -1.3780    1.1530    0.5080 C   0  0  0  0  0  0  0  0  0  0  0  0
  1  2  2  0
  2  3  1  0
  2  4  1  0
  4  5  2  0
  4  8  1  0
  5  6  1  0
  6  7  1  0
  7  8  2  0
  7 12  1  0
  8  9  1  0
  9 10  1  0
 10 11  1  0
 11 12  1  0
M  CHG  2   2   1   3  -1
M  END
