
     RDKit          3D

 12 12  0  0  0  0  0  0  0  0999 V2000
   -1.8470    2.0590   -0.0940 C   0  0  0  0  0  0  0  0  0  0  0  0
   -1.6110    0.6150   -0.1570 C   0  0  0  0  0  0  0  0  0  0  0  0
   -0.4010    0.0740   -0.2270 C   0  0  0  0  0  0  0  0  0  0  0  0
    0.7790    0.8630   -0.2470 N   0  0  0  0  0  0  0  0  0  0  0  0
    2.0920    0.2730   -0.3230 C   0  0  0  0  0  0  0  0  0  0  0  0
    3.2580    1.0770   -0.3420 N   0  0  0  0  0  0  0  0  0  0  0  0
    4.1910    0.7680   -1.0830 O   0  0  0  0  0  0  0  0  0  0  0  0
    3.3370    2.1750    0.4520 O   0  0  0  0  0  0  0  0  0  0  0  0
    2.1370   -1.0130   -0.3720 N   0  0  0  0  0  0  0  0  0  0  0  0
    1.0090   -1.8710   -0.3560 C   0  0  0  0  0  0  0  0  0  0  0  0
   -0.2160   -1.3720   -0.2880 C   0  0  0  0  0  0  0  0  0  0  0  0
   -1.3660   -2.2920   -0.2730 C   0  0  0  0  0  0  0  0  0  0  0  0
  1  2  1  0
  2  3  2  3
  3  4  1  0
  3 11  1  0
  4  5  1  0
  5  6  1  0
  5  9  2  0
  6  7  2  0
  6  8  1  0
  9 10  1  0
 10 11  2  0
 11 12  1  0
M  CHG  2   6   1   8  -1
M  END
