
     RDKit          3D

 12 13  0  0  0  0  0  0  0  0999 V2000
   -3.5540    0.2620    0.9880 O   0  0  0  0  0  0  0  0  0  0  0  0
   -2.6330   -0.3220    0.3820 N   0  0  0  0  0  0  0  0  0  0  0  0
   -2.9010   -1.5900   -0.0780 O   0  0  0  0  0  0  0  0  0  0  0  0
   -1.3710    0.3110    0.1850 C   0  0  0  0  0  0  0  0  0  0  0  0
   -1.1580    1.6730    0.1100 C   0  0  0  0  0  0  0  0  0  0  0  0
    0.1650    1.8190   -0.0800 N   0  0  0  0  0  0  0  0  0  0  0  0
    0.7760    0.6160   -0.1260 C   0  0  0  0  0  0  0  0  0  0  0  0
    2.0840    0.2010   -0.2960 C   0  0  0  0  0  0  0  0  0  0  0  0
    2.4650   -1.1230   -0.3060 C   0  0  0  0  0  0  0  0  0  0  0  0
    1.5080   -2.0510   -0.1420 N   0  0  0  0  0  0  0  0  0  0  0  0
    0.2130   -1.6900    0.0280 C   0  0  0  0  0  0  0  0  0  0  0  0
   -0.1800   -0.3660    0.0400 C   0  0  0  0  0  0  0  0  0  0  0  0
  1  2  2  0
  2  3  1  0
  2  4  1  0
  4  5  2  0
  4 12  1  0
  5  6  1  0
  6  7  1  0
  7  8  2  0
  7 12  1  0
  8  9  1  0
  9 10  2  0
 10 11  1  0
 11 12  2  0
M  CHG  2   2   1   3  -1
M  END
