
     RDKit          3D

 26 29  0  0  0  0  0  0  0  0999 V2000
    7.2440    1.0140    0.9530 C   0  0  0  0  0  0  0  0  0  0  0  0
    6.0720    0.4470    0.1790 C   0  0  1  0  0  0  0  0  0  0  0  0
    6.3980   -0.8310   -0.5190 C   0  0  0  0  0  0  0  0  0  0  0  0
    5.2610   -1.8130   -0.5910 C   0  0  0  0  0  0  0  0  0  0  0  0
    3.9310   -1.1550   -0.6840 C   0  0  0  0  0  0  0  0  0  0  0  0
    2.9420   -1.5740   -1.5390 C   0  0  0  0  0  0  0  0  0  0  0  0
    1.6910   -0.9310   -1.6050 C   0  0  0  0  0  0  0  0  0  0  0  0
    0.7370   -1.4020   -2.4940 O   0  0  0  0  0  0  0  0  0  0  0  0
    1.4890    0.1350   -0.7820 C   0  0  0  0  0  0  0  0  0  0  0  0
   -0.0200    0.9970   -0.7230 S   0  0  1  0  0  0  0  0  0  0  0  0
    0.1540    2.2910    0.0710 O   0  0  0  0  0  0  0  0  0  0  0  0
   -0.3720    1.4910   -2.1280 O   0  0  0  0  0  0  0  0  0  0  0  0
   -1.3420    0.1040   -0.1570 N   0  0  0  0  0  0  0  0  0  0  0  0
   -2.3400   -0.0510   -1.1500 C   0  0  0  0  0  0  0  0  0  0  0  0
   -3.6470    0.4810   -0.5920 C   0  0  1  0  0  0  0  0  0  0  0  0
   -4.6610   -0.5860   -0.6660 C   0  0  0  0  0  0  0  0  0  0  0  0
   -5.6180   -0.6850    0.4590 C   0  0  2  0  0  0  0  0  0  0  0  0
   -6.9840   -1.1130   -0.0290 C   0  0  0  0  0  0  0  0  0  0  0  0
   -5.6640    0.5920    1.2490 C   0  0  0  0  0  0  0  0  0  0  0  0
   -4.2550    0.7350    1.8400 C   0  0  0  0  0  0  0  0  0  0  0  0
   -3.3350    1.0570    0.7220 C   0  0  2  0  0  0  0  0  0  0  0  0
   -3.2390    2.4680    0.6610 O   0  0  0  0  0  0  0  0  0  0  0  0
   -1.9270    0.5770    1.0540 C   0  0  0  0  0  0  0  0  0  0  0  0
    2.5100    0.5510    0.0850 C   0  0  0  0  0  0  0  0  0  0  0  0
    3.7220   -0.0700    0.1500 C   0  0  0  0  0  0  0  0  0  0  0  0
    4.8370    0.3260    1.0470 C   0  0  0  0  0  0  0  0  0  0  0  0
  2  1  1  1
  2  3  1  0
  2 26  1  0
  3  4  1  0
  4  5  1  0
  5  6  2  0
  5 25  1  0
  6  7  1  0
  7  8  1  0
  7  9  2  0
  9 10  1  0
  9 24  1  0
 10 11  2  0
 10 12  2  0
 10 13  1  1
 13 14  1  0
 13 23  1  0
 15 14  1  1
 15 16  1  0
 15 21  1  0
 16 17  1  0
 17 18  1  6
 17 19  1  0
 19 20  1  0
 20 21  1  0
 21 22  1  6
 21 23  1  0
 24 25  2  0
 25 26  1  0
M  END
