
     RDKit          3D

 25 27  0  0  0  0  0  0  0  0999 V2000
    5.6290   -1.2800    2.9800 C   0  0  0  0  0  0  0  0  0  0  0  0
    4.4960   -0.3060    2.6900 C   0  0  0  0  0  0  0  0  0  0  0  0
    4.1520   -0.4430    1.3320 O   0  0  0  0  0  0  0  0  0  0  0  0
    3.1490    0.3000    0.7230 C   0  0  0  0  0  0  0  0  0  0  0  0
    2.5260    1.1260    1.4100 O   0  0  0  0  0  0  0  0  0  0  0  0
    2.9090    0.0370   -0.7190 C   0  0  1  0  0  0  0  0  0  0  0  0
    2.5150   -1.4110   -0.8550 C   0  0  0  0  0  0  0  0  0  0  0  0
    1.1800   -1.7620   -0.3010 C   0  0  0  0  0  0  0  0  0  0  0  0
    0.1770   -0.7950   -0.8080 C   0  0  0  0  0  0  0  0  0  0  0  0
   -1.1110   -0.9320   -0.5370 C   0  0  0  0  0  0  0  0  0  0  0  0
   -2.1650    0.0020   -1.0150 C   0  0  0  0  0  0  0  0  0  0  0  0
   -3.0630    0.4940    0.1130 C   0  0  1  0  0  0  0  0  0  0  0  0
   -4.2570    1.2150   -0.4240 C   0  0  0  0  0  0  0  0  0  0  0  0
   -5.5170    0.4400   -0.4990 C   0  0  0  0  0  0  0  0  0  0  0  0
   -5.6890   -0.6220    0.5450 C   0  0  0  0  0  0  0  0  0  0  0  0
   -4.7060   -0.4880    1.6830 C   0  0  0  0  0  0  0  0  0  0  0  0
   -3.3300   -0.5870    1.0740 C   0  0  1  0  0  0  0  0  0  0  0  0
   -3.0820   -2.0000    0.5280 C   0  0  0  0  0  0  0  0  0  0  0  0
   -1.6200   -2.0350    0.2700 C   0  0  0  0  0  0  0  0  0  0  0  0
   -0.8880   -2.9300    0.7070 O   0  0  0  0  0  0  0  0  0  0  0  0
    0.6380    0.2840   -1.5930 N   0  0  0  0  0  0  0  0  0  0  0  0
    1.8920    0.9660   -1.3290 C   0  0  2  0  0  0  0  0  0  0  0  0
    2.4100    1.4900   -2.6490 C   0  0  0  0  0  0  0  0  0  0  0  0
    3.9560    2.4000   -2.4570 S   0  0  0  0  0  0  0  0  0  0  0  0
    3.7540    3.9220   -1.5220 C   0  0  0  0  0  0  0  0  0  0  0  0
  1  2  1  0
  2  3  1  0
  3  4  1  0
  4  5  2  0
  6  4  1  1
  6  7  1  0
  6 22  1  0
  7  8  1  0
  8  9  1  0
  9 10  2  3
  9 21  1  0
 10 11  1  0
 10 19  1  0
 12 11  1  6
 12 13  1  0
 12 17  1  0
 13 14  1  0
 14 15  1  0
 15 16  1  0
 17 16  1  6
 17 18  1  0
 18 19  1  0
 19 20  2  0
 21 22  1  0
 22 23  1  6
 23 24  1  0
 24 25  1  0
M  END
