
     RDKit          3D

 26 29  0  0  0  0  0  0  0  0999 V2000
   -0.5490    3.1570    0.3000 C   0  0  0  0  0  0  0  0  0  0  0  0
   -1.2830    2.3000   -0.7160 C   0  0  0  0  0  0  0  0  0  0  0  0
   -1.9590    3.0440   -1.6990 C   0  0  0  0  0  0  0  0  0  0  0  0
   -2.8360    2.4480   -2.5440 C   0  0  0  0  0  0  0  0  0  0  0  0
   -3.0380    1.0950   -2.3930 C   0  0  0  0  0  0  0  0  0  0  0  0
   -2.3870    0.3500   -1.4360 C   0  0  0  0  0  0  0  0  0  0  0  0
   -1.4650    0.9560   -0.5650 C   0  0  0  0  0  0  0  0  0  0  0  0
   -0.7220    0.1450    0.3570 C   0  0  2  0  0  0  0  0  0  0  0  0
    0.6810   -0.0700    0.5040 C   0  0  0  0  0  0  0  0  0  0  0  0
    1.9290    0.7270    0.3970 C   0  0  0  0  0  0  0  0  0  0  0  0
    1.9970    1.9110    0.1420 O   0  0  0  0  0  0  0  0  0  0  0  0
    3.2020    0.1290    0.5970 O   0  0  0  0  0  0  0  0  0  0  0  0
    4.3980    0.8870    0.4960 C   0  0  2  0  0  0  0  0  0  0  0  0
    5.1980    0.3020   -0.6560 C   0  0  0  0  0  0  0  0  0  0  0  0
    5.2130    0.7660    1.7280 C   0  0  0  0  0  0  0  0  0  0  0  0
    6.4540    1.4280    1.8780 N   0  0  0  0  0  0  0  0  0  0  0  0
    4.8010    0.0570    2.6790 O   0  0  0  0  0  0  0  0  0  0  0  0
    0.8680   -1.4040    0.7710 C   0  0  0  0  0  0  0  0  0  0  0  0
   -0.4170   -2.0530    0.7550 C   0  0  0  0  0  0  0  0  0  0  0  0
   -1.3420   -1.2270    0.5010 C   0  0  0  0  0  0  0  0  0  0  0  0
   -2.7580   -1.4460    0.1320 C   0  0  1  0  0  0  0  0  0  0  0  0
   -2.6950   -1.0340   -1.3370 O   0  0  0  0  0  0  0  0  0  0  0  0
   -3.1150   -2.8770    0.0490 C   0  0  2  0  0  0  0  0  0  0  0  0
   -4.5820   -3.1040   -0.2670 C   0  0  0  0  0  0  0  0  0  0  0  0
   -2.6940   -3.6730    1.2680 C   0  0  0  0  0  0  0  0  0  0  0  0
   -0.8660   -3.7990    1.0660 S   0  0  0  0  0  0  0  0  0  0  0  0
  1  2  1  0
  2  3  2  0
  2  7  1  0
  3  4  1  0
  4  5  2  0
  5  6  1  0
  6  7  2  0
  6 22  1  0
  7  8  1  0
  8  9  1  6
  8 20  1  0
  9 10  1  0
  9 18  2  0
 10 11  2  0
 10 12  1  0
 12 13  1  0
 13 14  1  6
 13 15  1  0
 15 16  1  0
 15 17  2  0
 18 19  1  0
 19 20  2  0
 19 26  1  0
 20 21  1  0
 21 22  1  6
 21 23  1  0
 23 24  1  1
 23 25  1  0
 25 26  1  0
M  END
