
     RDKit          3D

 26 29  0  0  0  0  0  0  0  0999 V2000
    2.1310   -2.3160    2.3500 C   0  0  0  0  0  0  0  0  0  0  0  0
    1.3540   -1.5450    1.4730 O   0  0  0  0  0  0  0  0  0  0  0  0
    1.9370   -0.8890    0.4130 C   0  0  0  0  0  0  0  0  0  0  0  0
    3.3420   -1.0110    0.2870 C   0  0  0  0  0  0  0  0  0  0  0  0
    3.9610   -0.4020   -0.7450 C   0  0  0  0  0  0  0  0  0  0  0  0
    5.4280   -0.6480   -1.0670 C   0  0  0  0  0  0  0  0  0  0  0  0
    6.4190    0.6100   -0.1950 S   0  0  0  0  0  0  0  0  0  0  0  0
    3.2800    0.3290   -1.6630 C   0  0  0  0  0  0  0  0  0  0  0  0
    3.9300    0.9520   -2.7090 O   0  0  0  0  0  0  0  0  0  0  0  0
    1.9290    0.4480   -1.5290 C   0  0  0  0  0  0  0  0  0  0  0  0
    1.2020   -0.1540   -0.4820 C   0  0  0  0  0  0  0  0  0  0  0  0
   -0.2380    0.0510   -0.4720 C   0  0  0  0  0  0  0  0  0  0  0  0
   -0.9230    0.3760    0.8290 C   0  0  1  0  0  0  0  0  0  0  0  0
   -0.3340    1.4850    1.6210 C   0  0  0  0  0  0  0  0  0  0  0  0
   -0.0710    2.6790    0.8060 C   0  0  0  0  0  0  0  0  0  0  0  0
   -1.2560    3.2280    0.0810 C   0  0  0  0  0  0  0  0  0  0  0  0
   -2.1850    2.1890   -0.4660 C   0  0  0  0  0  0  0  0  0  0  0  0
   -2.3190    1.0440    0.4310 C   0  0  1  0  0  0  0  0  0  0  0  0
   -3.2150   -0.0350    0.0810 C   0  0  1  0  0  0  0  0  0  0  0  0
   -3.4720   -0.4350   -1.2960 C   0  0  0  0  0  0  0  0  0  0  0  0
   -3.9410   -1.8660   -1.1250 C   0  0  1  0  0  0  0  0  0  0  0  0
   -3.4750   -2.6880   -2.1390 O   0  0  0  0  0  0  0  0  0  0  0  0
   -3.4150   -2.3120    0.2250 C   0  0  0  0  0  0  0  0  0  0  0  0
   -2.6140   -1.1940    0.7040 N   0  0  0  0  0  0  0  0  0  0  0  0
   -1.5170   -0.7470    1.5430 C   0  0  0  0  0  0  0  0  0  0  0  0
   -1.3090   -1.3460    2.6220 O   0  0  0  0  0  0  0  0  0  0  0  0
  1  2  1  0
  2  3  1  0
  3  4  2  0
  3 11  1  0
  4  5  1  0
  5  6  1  0
  5  8  2  0
  6  7  1  0
  8  9  1  0
  8 10  1  0
 10 11  2  0
 11 12  1  0
 13 12  1  6
 13 14  1  0
 13 18  1  0
 13 25  1  0
 14 15  1  0
 15 16  1  0
 16 17  1  0
 18 17  1  6
 18 19  1  0
 19 20  1  6
 19 24  1  0
 20 21  1  0
 21 22  1  6
 21 23  1  0
 23 24  1  0
 24 25  1  0
 25 26  2  0
M  END
