
     RDKit          3D

 26 27  0  0  0  0  0  0  0  0999 V2000
    7.6150   -0.5980    2.7040 C   0  0  0  0  0  0  0  0  0  0  0  0
    7.8910    0.8920    1.7240 S   0  0  0  0  0  0  0  0  0  0  0  0
    6.4810    1.1850    0.6930 C   0  0  0  0  0  0  0  0  0  0  0  0
    6.4900    2.1880   -0.0680 O   0  0  0  0  0  0  0  0  0  0  0  0
    5.3240    0.2890    0.7170 C   0  0  0  0  0  0  0  0  0  0  0  0
    4.2880    0.5330   -0.0620 C   0  0  0  0  0  0  0  0  0  0  0  0
    3.1350   -0.3860   -0.0200 C   0  0  2  0  0  0  0  0  0  0  0  0
    2.9030   -1.0170   -1.3780 C   0  0  0  0  0  0  0  0  0  0  0  0
    1.9450   -2.1750   -1.1640 C   0  0  2  0  0  0  0  0  0  0  0  0
    1.2880   -2.6250   -2.4310 C   0  0  0  0  0  0  0  0  0  0  0  0
    0.9830   -1.8290   -0.0740 C   0  0  0  0  0  0  0  0  0  0  0  0
    0.6260   -0.3320   -0.1010 C   0  0  2  0  0  0  0  0  0  0  0  0
    1.8960    0.3720    0.3950 C   0  0  0  0  0  0  0  0  0  0  0  0
   -0.4510   -0.1370    0.9050 C   0  0  0  0  0  0  0  0  0  0  0  0
   -1.3000    1.0710    0.7010 C   0  0  2  0  0  0  0  0  0  0  0  0
   -2.6570    0.6160    0.5890 O   0  0  0  0  0  0  0  0  0  0  0  0
   -3.6390    1.0730    1.4650 C   0  0  0  0  0  0  0  0  0  0  0  0
   -3.2790    1.8860    2.3400 O   0  0  0  0  0  0  0  0  0  0  0  0
   -5.0270    0.5790    1.3140 C   0  0  1  0  0  0  0  0  0  0  0  0
   -5.9030    1.1440    2.2880 N   0  0  0  0  0  0  0  0  0  0  0  0
   -5.5140    0.7740   -0.1050 C   0  0  2  0  0  0  0  0  0  0  0  0
   -6.9340    0.2580   -0.2190 C   0  0  0  0  0  0  0  0  0  0  0  0
   -4.6400    0.0380   -1.0900 C   0  0  0  0  0  0  0  0  0  0  0  0
   -0.9540    1.8440   -0.5360 C   0  0  0  0  0  0  0  0  0  0  0  0
   -0.5970    0.9180   -1.6350 C   0  0  0  0  0  0  0  0  0  0  0  0
    0.3230   -0.0270   -1.3820 O   0  0  0  0  0  0  0  0  0  0  0  0
  1  2  1  0
  2  3  1  0
  3  4  2  0
  3  5  1  0
  5  6  2  3
  7  6  1  6
  7  8  1  0
  7 13  1  0
  8  9  1  0
  9 10  1  6
  9 11  1  0
 12 11  1  6
 12 13  1  0
 12 14  1  0
 12 26  1  0
 14 15  1  0
 15 16  1  6
 15 24  1  0
 16 17  1  0
 17 18  2  0
 17 19  1  0
 19 20  1  1
 19 21  1  0
 21 22  1  1
 21 23  1  0
 24 25  1  0
 25 26  1  0
M  END
