
     RDKit          3D

 25 27  0  0  0  0  0  0  0  0999 V2000
    4.2290   -2.6290    1.0140 C   0  0  0  0  0  0  0  0  0  0  0  0
    2.8670   -2.9990    1.0880 O   0  0  0  0  0  0  0  0  0  0  0  0
    1.9300   -2.0490    0.6850 C   0  0  0  0  0  0  0  0  0  0  0  0
    0.5990   -2.3590    0.7370 C   0  0  0  0  0  0  0  0  0  0  0  0
   -0.3580   -1.4530    0.3500 C   0  0  0  0  0  0  0  0  0  0  0  0
   -0.0330   -0.1910   -0.1100 C   0  0  0  0  0  0  0  0  0  0  0  0
    1.3310    0.0860   -0.1480 C   0  0  0  0  0  0  0  0  0  0  0  0
    2.2940   -0.8130    0.2370 C   0  0  0  0  0  0  0  0  0  0  0  0
    1.4120    1.3980   -0.6310 C   0  0  0  0  0  0  0  0  0  0  0  0
    2.7080    2.0850   -0.8240 C   0  0  0  0  0  0  0  0  0  0  0  0
    3.3100    2.5410    0.4320 C   0  0  0  0  0  0  0  0  0  0  0  0
    2.7380    2.3420    1.5310 O   0  0  0  0  0  0  0  0  0  0  0  0
    4.5260    3.2060    0.4520 O   0  0  0  0  0  0  0  0  0  0  0  0
    0.1400    1.8480   -0.8590 C   0  0  0  0  0  0  0  0  0  0  0  0
   -0.2380    3.1810   -1.3730 C   0  0  0  0  0  0  0  0  0  0  0  0
   -0.7520    0.8590   -0.5350 N   0  0  0  0  0  0  0  0  0  0  0  0
   -2.1620    0.9700   -0.6320 C   0  0  0  0  0  0  0  0  0  0  0  0
   -2.6510    2.1030   -1.0170 O   0  0  0  0  0  0  0  0  0  0  0  0
   -3.1410   -0.0330   -0.3530 C   0  0  0  0  0  0  0  0  0  0  0  0
   -3.4680   -0.9640   -1.3510 C   0  0  0  0  0  0  0  0  0  0  0  0
   -4.4080   -1.9520   -1.1460 C   0  0  0  0  0  0  0  0  0  0  0  0
   -5.0530   -2.0420    0.0640 C   0  0  0  0  0  0  0  0  0  0  0  0
   -6.2370   -3.2790    0.3340 Cl  0  0  0  0  0  0  0  0  0  0  0  0
   -4.7620   -1.1500    1.0710 C   0  0  0  0  0  0  0  0  0  0  0  0
   -3.8220   -0.1750    0.8420 C   0  0  0  0  0  0  0  0  0  0  0  0
  1  2  1  0
  2  3  1  0
  3  4  2  0
  3  8  1  0
  4  5  1  0
  5  6  2  0
  6  7  1  0
  6 16  1  0
  7  8  2  0
  7  9  1  0
  9 10  1  0
  9 14  2  0
 10 11  1  0
 11 12  2  0
 11 13  1  0
 14 15  1  0
 14 16  1  0
 16 17  1  0
 17 18  2  0
 17 19  1  0
 19 20  2  0
 19 25  1  0
 20 21  1  0
 21 22  2  0
 22 23  1  0
 22 24  1  0
 24 25  2  0
M  END
