
     RDKit          3D

 26 28  0  0  0  0  0  0  0  0999 V2000
    6.0680   -2.0290   -0.8000 C   0  0  0  0  0  0  0  0  0  0  0  0
    6.1950   -0.5310   -0.7650 C   0  0  0  0  0  0  0  0  0  0  0  0
    4.9990    0.1320   -0.4720 O   0  0  0  0  0  0  0  0  0  0  0  0
    4.2710   -0.0390    0.6980 C   0  0  0  0  0  0  0  0  0  0  0  0
    4.7150   -0.8360    1.5420 O   0  0  0  0  0  0  0  0  0  0  0  0
    3.0350    0.6910    0.9240 C   0  0  0  0  0  0  0  0  0  0  0  0
    2.8010    1.9090    1.5070 C   0  0  0  0  0  0  0  0  0  0  0  0
    3.8770    2.7640    2.0560 C   0  0  0  0  0  0  0  0  0  0  0  0
    1.4850    2.1630    1.4870 N   0  0  0  0  0  0  0  0  0  0  0  0
    0.8420    1.1030    0.8850 C   0  0  0  0  0  0  0  0  0  0  0  0
    1.7820    0.1820    0.5300 C   0  0  0  0  0  0  0  0  0  0  0  0
    1.4030   -1.0440   -0.1300 C   0  0  0  0  0  0  0  0  0  0  0  0
    2.3150   -1.8100   -0.5500 O   0  0  0  0  0  0  0  0  0  0  0  0
   -0.0300   -1.3750   -0.2980 C   0  0  0  0  0  0  0  0  0  0  0  0
   -0.8630   -0.1150   -0.4690 C   0  0  1  0  0  0  0  0  0  0  0  0
   -0.3730    0.4900   -1.7710 C   0  0  0  0  0  0  0  0  0  0  0  0
   -2.3210   -0.4810   -0.5910 C   0  0  1  0  0  0  0  0  0  0  0  0
   -2.4380   -1.3470   -1.6940 O   0  0  0  0  0  0  0  0  0  0  0  0
   -2.9250   -1.1240    0.6010 C   0  0  0  0  0  0  0  0  0  0  0  0
   -3.8610   -0.1950    1.3920 C   0  0  2  0  0  0  0  0  0  0  0  0
   -4.2350   -0.8230    2.6880 C   0  0  0  0  0  0  0  0  0  0  0  0
   -5.3210    0.0000    0.2920 S   0  0  0  0  0  0  0  0  0  0  0  0
   -4.5420    0.5160   -1.2900 C   0  0  2  0  0  0  0  0  0  0  0  0
   -4.9070   -0.4190   -2.3810 C   0  0  0  0  0  0  0  0  0  0  0  0
   -3.1020    0.7540   -1.0440 C   0  0  0  0  0  0  0  0  0  0  0  0
   -0.5950    0.8800    0.6140 C   0  0  0  0  0  0  0  0  0  0  0  0
  1  2  1  0
  2  3  1  0
  3  4  1  0
  4  5  2  0
  4  6  1  0
  6  7  2  0
  6 11  1  0
  7  8  1  0
  7  9  1  0
  9 10  1  0
 10 11  2  0
 10 26  1  0
 11 12  1  0
 12 13  2  0
 12 14  1  0
 14 15  1  0
 15 16  1  6
 15 17  1  0
 15 26  1  0
 17 18  1  6
 17 19  1  0
 17 25  1  0
 19 20  1  0
 20 21  1  1
 20 22  1  0
 22 23  1  0
 23 24  1  6
 23 25  1  0
M  END
