
     RDKit          3D

 26 29  0  0  0  0  0  0  0  0999 V2000
   -6.6640    1.7240   -0.2570 O   0  0  0  0  0  0  0  0  0  0  0  0
   -5.4750    1.5440    0.0970 C   0  0  0  0  0  0  0  0  0  0  0  0
   -4.2910    1.9190   -0.7140 C   0  0  0  0  0  0  0  0  0  0  0  0
   -3.2940    0.8130   -0.3070 C   0  0  1  0  0  0  0  0  0  0  0  0
   -1.9670    1.2600   -0.7800 C   0  0  1  0  0  0  0  0  0  0  0  0
   -1.5400    2.4460   -0.2450 O   0  0  0  0  0  0  0  0  0  0  0  0
   -0.8630    0.1980   -0.7100 C   0  0  1  0  0  0  0  0  0  0  0  0
    0.3540    0.8960   -1.2480 C   0  0  2  0  0  0  0  0  0  0  0  0
    0.2000    1.3540   -2.5610 O   0  0  0  0  0  0  0  0  0  0  0  0
    1.5900    0.0850   -1.2330 C   0  0  0  0  0  0  0  0  0  0  0  0
    2.0310   -0.8260   -2.1630 C   0  0  0  0  0  0  0  0  0  0  0  0
    3.2280   -1.3070   -1.6910 C   0  0  0  0  0  0  0  0  0  0  0  0
    3.4750   -0.6780   -0.4950 C   0  0  0  0  0  0  0  0  0  0  0  0
    4.6410   -0.8610    0.3950 C   0  0  0  0  0  0  0  0  0  0  0  0
    4.8680   -0.2490    1.5430 C   0  0  0  0  0  0  0  0  0  0  0  0
    6.1280   -0.7050    2.1180 C   0  0  0  0  0  0  0  0  0  0  0  0
    6.9290   -0.1670    3.6270 S   0  0  0  0  0  0  0  0  0  0  0  0
    6.5570   -1.6190    1.2620 C   0  0  0  0  0  0  0  0  0  0  0  0
    5.7790   -1.7490    0.1970 C   0  0  0  0  0  0  0  0  0  0  0  0
    2.4900    0.1220   -0.2760 O   0  0  0  0  0  0  0  0  0  0  0  0
   -0.5680   -0.1990    0.7230 C   0  0  0  0  0  0  0  0  0  0  0  0
   -0.9310   -1.6360    0.8970 C   0  0  0  0  0  0  0  0  0  0  0  0
   -1.6060   -2.0790   -0.3700 C   0  0  0  0  0  0  0  0  0  0  0  0
   -1.2680   -1.0380   -1.4210 C   0  0  0  0  0  0  0  0  0  0  0  0
   -3.5070    0.7940    1.1710 C   0  0  0  0  0  0  0  0  0  0  0  0
   -4.9670    0.9720    1.2870 N   0  0  0  0  0  0  0  0  0  0  0  0
  1  2  2  0
  2  3  1  0
  2 26  1  0
  4  3  1  6
  4  5  1  0
  4 25  1  0
  5  6  1  1
  5  7  1  0
  7  8  1  0
  7 21  1  1
  7 24  1  0
  8  9  1  6
  8 10  1  0
 10 11  2  0
 10 20  1  0
 11 12  1  0
 12 13  2  0
 13 14  1  0
 13 20  1  0
 14 15  2  0
 14 19  1  0
 15 16  1  0
 16 17  1  0
 16 18  2  0
 18 19  2  0
 21 22  1  0
 22 23  1  0
 23 24  1  0
 25 26  1  0
M  END
