
     RDKit          3D

 11 11  0  0  0  0  0  0  0  0999 V2000
    3.9650   -0.4820   -0.1350 N   0  0  0  0  0  0  0  0  0  0  0  0
    2.8280   -1.3390   -0.1710 C   0  0  0  0  0  0  0  0  0  0  0  0
    3.0100   -2.5780   -0.4270 O   0  0  0  0  0  0  0  0  0  0  0  0
    1.5240   -0.8630    0.0640 N   0  0  0  0  0  0  0  0  0  0  0  0
    0.9260   -0.0190   -0.6880 N   0  0  0  0  0  0  0  0  0  0  0  0
   -0.4270    0.3620   -0.2890 C   0  0  2  0  0  0  0  0  0  0  0  0
   -0.3130    1.2840    0.7950 N   0  0  0  0  0  0  0  0  0  0  0  0
   -1.2510   -0.7640    0.0060 N   0  0  0  0  0  0  0  0  0  0  0  0
   -2.6230   -0.3710   -0.3310 C   0  0  0  0  0  0  0  0  0  0  0  0
   -2.4060    1.0670   -0.7780 C   0  0  0  0  0  0  0  0  0  0  0  0
   -1.1160    0.9810   -1.3320 O   0  0  0  0  0  0  0  0  0  0  0  0
  1  2  1  0
  2  3  2  0
  2  4  1  0
  4  5  2  3
  5  6  1  0
  6  7  1  1
  6  8  1  0
  6 11  1  0
  8  9  1  0
  9 10  1  0
 10 11  1  0
M  END
