
     RDKit          3D

 10 10  0  0  0  0  0  0  0  0999 V2000
    3.1960   -0.2090   -1.0710 N   0  0  0  0  0  0  0  0  0  0  0  0
    2.0680   -0.5370   -0.3630 O   0  0  0  0  0  0  0  0  0  0  0  0
    0.8700    0.1520   -0.4980 C   0  0  0  0  0  0  0  0  0  0  0  0
    0.6860    1.1830   -1.3070 N   0  0  0  0  0  0  0  0  0  0  0  0
   -0.4610    1.7930   -1.3920 N   0  0  0  0  0  0  0  0  0  0  0  0
   -1.5560    1.4410   -0.6770 C   0  0  0  0  0  0  0  0  0  0  0  0
   -1.4050    0.3760    0.1730 C   0  0  0  0  0  0  0  0  0  0  0  0
   -2.4890   -0.0660    0.9610 N   0  0  0  0  0  0  0  0  0  0  0  0
   -0.1990   -0.2750    0.2720 C   0  0  0  0  0  0  0  0  0  0  0  0
   -0.0270   -1.3970    1.1630 N   0  0  0  0  0  0  0  0  0  0  0  0
  1  2  1  0
  2  3  1  0
  3  4  2  0
  3  9  1  0
  4  5  1  0
  5  6  2  0
  6  7  1  0
  7  8  1  0
  7  9  2  0
  9 10  1  0
M  END
