
     RDKit          3D

 10 10  0  0  0  0  0  0  0  0999 V2000
   -2.5670   -1.1560    0.1730 N   0  0  0  0  0  0  0  0  0  0  0  0
   -1.5030   -0.3150   -0.2070 C   0  0  0  0  0  0  0  0  0  0  0  0
   -1.7250    0.6820   -1.1250 O   0  0  0  0  0  0  0  0  0  0  0  0
   -0.3100   -0.4770    0.3060 C   0  0  0  0  0  0  0  0  0  0  0  0
    0.1370   -1.4400    1.2650 N   0  0  0  0  0  0  0  0  0  0  0  0
    1.3700   -1.2540    1.4960 N   0  0  0  0  0  0  0  0  0  0  0  0
    1.8870   -0.1760    0.7420 C   0  0  0  0  0  0  0  0  0  0  0  0
    3.1840    0.3400    0.7120 O   0  0  0  0  0  0  0  0  0  0  0  0
    0.8930    0.3180    0.0090 C   0  0  0  0  0  0  0  0  0  0  0  0
    0.9390    1.4010   -0.8970 N   0  0  0  0  0  0  0  0  0  0  0  0
  1  2  1  0
  2  3  1  0
  2  4  2  3
  4  5  1  0
  4  9  1  0
  5  6  2  0
  6  7  1  0
  7  8  1  0
  7  9  2  0
  9 10  1  0
M  END
