
     RDKit          3D

 11 11  0  0  0  0  0  0  0  0999 V2000
    3.4510    0.4180    0.7240 N   0  0  0  0  0  0  0  0  0  0  0  0
    2.5040    0.9430   -0.1540 C   0  0  0  0  0  0  0  0  0  0  0  0
    2.8860    1.7240   -1.0660 O   0  0  0  0  0  0  0  0  0  0  0  0
    1.0720    0.6450   -0.0890 C   0  0  0  0  0  0  0  0  0  0  0  0
    0.3030    1.2000   -0.9650 N   0  0  0  0  0  0  0  0  0  0  0  0
   -1.1280    1.0760   -1.1220 C   0  0  0  0  0  0  0  0  0  0  0  0
   -1.9150    0.1640   -0.5750 C   0  0  0  0  0  0  0  0  0  0  0  0
   -1.4810   -0.9310    0.3230 C   0  0  2  0  0  0  0  0  0  0  0  0
   -2.6700   -1.5190    0.9250 N   0  0  0  0  0  0  0  0  0  0  0  0
   -0.6470   -0.5470    1.3390 O   0  0  0  0  0  0  0  0  0  0  0  0
    0.6120   -0.2340    0.9310 N   0  0  0  0  0  0  0  0  0  0  0  0
  1  2  1  0
  2  3  2  0
  2  4  1  0
  4  5  2  0
  4 11  1  0
  5  6  1  0
  6  7  2  0
  7  8  1  0
  8  9  1  1
  8 10  1  0
 10 11  1  0
M  END
