
     RDKit          3D

 11 11  0  0  0  0  0  0  0  0999 V2000
    2.6830   -0.5990    1.4270 O   0  0  0  0  0  0  0  0  0  0  0  0
    2.4850   -1.0880    0.1980 N   0  0  0  0  0  0  0  0  0  0  0  0
    1.6190   -0.3530   -0.5810 N   0  0  0  0  0  0  0  0  0  0  0  0
    0.2210   -0.4080   -0.2610 C   0  0  0  0  0  0  0  0  0  0  0  0
   -0.4210    0.7310   -0.0690 C   0  0  0  0  0  0  0  0  0  0  0  0
    0.3210    1.9390   -0.1940 N   0  0  0  0  0  0  0  0  0  0  0  0
   -0.1990    3.0320   -0.8280 O   0  0  0  0  0  0  0  0  0  0  0  0
   -1.8500    0.7190    0.2600 C   0  0  0  0  0  0  0  0  0  0  0  0
   -2.4660   -0.4480    0.3570 C   0  0  0  0  0  0  0  0  0  0  0  0
   -1.7940   -1.6840    0.1550 N   0  0  0  0  0  0  0  0  0  0  0  0
   -0.4350   -1.6900   -0.1590 N   0  0  0  0  0  0  0  0  0  0  0  0
  1  2  1  0
  2  3  1  0
  3  4  1  0
  4  5  2  0
  4 11  1  0
  5  6  1  0
  5  8  1  0
  6  7  1  0
  8  9  2  0
  9 10  1  0
 10 11  1  0
M  END
