
     RDKit          3D

 24 26  0  0  0  0  0  0  0  0999 V2000
    2.9090   -1.5840   -1.1860 N   0  0  0  0  0  0  0  0  0  0  0  0
    2.9490   -0.6300   -0.0950 C   0  0  1  0  0  0  0  0  0  0  0  0
    1.5720   -0.3940    0.4400 C   0  0  2  0  0  0  0  0  0  0  0  0
    0.7060    0.1130   -0.5280 O   0  0  0  0  0  0  0  0  0  0  0  0
   -0.4150    0.4300    0.2780 C   0  0  2  0  0  0  0  0  0  0  0  0
    0.2360    1.2130    1.2970 O   0  0  0  0  0  0  0  0  0  0  0  0
    1.5030    0.6670    1.4630 C   0  0  0  0  0  0  0  0  0  0  0  0
    2.3140    1.0730    2.3250 O   0  0  0  0  0  0  0  0  0  0  0  0
   -0.8130   -0.7350    0.8670 O   0  0  0  0  0  0  0  0  0  0  0  0
   -1.8990   -1.3420    0.2440 C   0  0  1  0  0  0  0  0  0  0  0  0
   -2.0990   -2.6890    0.7680 C   0  0  0  0  0  0  0  0  0  0  0  0
   -1.3480   -3.1440    1.6510 O   0  0  0  0  0  0  0  0  0  0  0  0
   -3.1370   -3.4640    0.2740 O   0  0  0  0  0  0  0  0  0  0  0  0
   -3.0770   -0.4270    0.5210 C   0  0  0  0  0  0  0  0  0  0  0  0
   -2.8380    0.8010   -0.3190 C   0  0  2  0  0  0  0  0  0  0  0  0
   -3.4550    0.5130   -1.6900 C   0  0  0  0  0  0  0  0  0  0  0  0
   -4.8170    0.2630   -1.5780 O   0  0  0  0  0  0  0  0  0  0  0  0
   -1.4270    1.2110   -0.4370 C   0  0  2  0  0  0  0  0  0  0  0  0
   -1.0790    1.2380   -1.8090 O   0  0  0  0  0  0  0  0  0  0  0  0
   -1.3220    2.6750    0.0140 C   0  0  0  0  0  0  0  0  0  0  0  0
   -2.1890    3.4830   -0.7070 O   0  0  0  0  0  0  0  0  0  0  0  0
    3.9720   -1.0000    0.9130 C   0  0  0  0  0  0  0  0  0  0  0  0
    4.9680   -0.0980    0.1760 C   0  0  0  0  0  0  0  0  0  0  0  0
    3.7450    0.6090   -0.4230 C   0  0  0  0  0  0  0  0  0  0  0  0
  2  1  1  6
  2  3  1  0
  2 22  1  0
  2 24  1  0
  3  4  1  6
  3  7  1  0
  5  4  1  6
  5  6  1  0
  5  9  1  0
  5 18  1  0
  6  7  1  0
  7  8  2  0
  9 10  1  0
 10 11  1  1
 10 14  1  0
 11 12  2  0
 11 13  1  0
 14 15  1  0
 15 16  1  6
 15 18  1  0
 16 17  1  0
 18 19  1  6
 18 20  1  0
 20 21  1  0
 22 23  1  0
 23 24  1  0
M  CHG  1   1   1
M  END
