
     RDKit          3D

 24 24  0  0  0  0  0  0  0  0999 V2000
    1.7040    0.9250   -1.9480 N   0  0  0  0  0  0  0  0  0  0  0  0
    1.1620   -0.3170   -1.5030 C   0  0  1  0  0  0  0  0  0  0  0  0
    2.1920   -1.0970   -0.7190 C   0  0  1  0  0  0  0  0  0  0  0  0
    1.6740   -2.3200   -0.2740 O   0  0  0  0  0  0  0  0  0  0  0  0
    3.2870   -1.4100   -1.5210 O   0  0  0  0  0  0  0  0  0  0  0  0
    4.4820   -0.9190   -0.9820 C   0  0  0  0  0  0  0  0  0  0  0  0
    4.6460   -1.4960    0.2600 O   0  0  0  0  0  0  0  0  0  0  0  0
    5.7990   -1.0860    0.8810 C   0  0  0  0  0  0  0  0  0  0  0  0
    5.9000    0.3820    1.1390 C   0  0  0  0  0  0  0  0  0  0  0  0
    4.8550    0.8230    1.9550 O   0  0  0  0  0  0  0  0  0  0  0  0
   -0.1410   -0.1840   -0.7500 C   0  0  1  0  0  0  0  0  0  0  0  0
    0.0910    0.6640    0.4470 C   0  0  0  0  0  0  0  0  0  0  0  0
   -1.2330    0.7870    1.1880 C   0  0  1  0  0  0  0  0  0  0  0  0
   -1.0720    1.4820    2.3860 O   0  0  0  0  0  0  0  0  0  0  0  0
   -2.1350    1.5360    0.2480 C   0  0  0  0  0  0  0  0  0  0  0  0
   -2.4690    0.7540   -0.9490 C   0  0  2  0  0  0  0  0  0  0  0  0
   -3.3920   -0.3860   -0.6980 C   0  0  0  0  0  0  0  0  0  0  0  0
   -4.6020   -0.1710   -0.1950 O   0  0  0  0  0  0  0  0  0  0  0  0
   -4.8710    0.2600    1.0390 C   0  0  1  0  0  0  0  0  0  0  0  0
   -5.5630    1.4950    0.9250 O   0  0  0  0  0  0  0  0  0  0  0  0
   -5.7940   -0.7100    1.8090 C   0  0  0  0  0  0  0  0  0  0  0  0
   -7.0010   -0.8600    1.1500 O   0  0  0  0  0  0  0  0  0  0  0  0
   -1.2350    0.2360   -1.6700 C   0  0  2  0  0  0  0  0  0  0  0  0
   -1.6120   -0.8390   -2.4560 O   0  0  0  0  0  0  0  0  0  0  0  0
  2  1  1  1
  2  3  1  0
  2 11  1  0
  3  4  1  6
  3  5  1  0
  5  6  1  0
  6  7  1  0
  7  8  1  0
  8  9  1  0
  9 10  1  0
 11 12  1  1
 11 23  1  0
 12 13  1  0
 13 14  1  1
 13 15  1  0
 15 16  1  0
 16 17  1  1
 16 23  1  0
 17 18  1  0
 18 19  1  0
 19 20  1  6
 19 21  1  0
 21 22  1  0
 23 24  1  1
M  CHG  1   1   1
M  END
