
     RDKit          3D

 20 21  0  0  0  0  0  0  0  0999 V2000
    6.2910    0.4010    0.6030 C   0  0  0  0  0  0  0  0  0  0  0  0
    5.4260   -0.6850    0.2360 O   0  0  0  0  0  0  0  0  0  0  0  0
    4.0560   -0.4120    0.0600 C   0  0  0  0  0  0  0  0  0  0  0  0
    3.3210   -1.5120   -0.3500 C   0  0  0  0  0  0  0  0  0  0  0  0
    1.9570   -1.3110   -0.5580 C   0  0  0  0  0  0  0  0  0  0  0  0
    1.4230   -0.0230   -0.3480 C   0  0  0  0  0  0  0  0  0  0  0  0
    0.1490    0.2400   -0.6070 O   0  0  0  0  0  0  0  0  0  0  0  0
   -0.9860   -0.3250   -1.0310 C   0  0  0  0  0  0  0  0  0  0  0  0
   -2.1000   -0.6750   -0.1860 C   0  0  0  0  0  0  0  0  0  0  0  0
   -2.2550   -1.8030    0.5240 C   0  0  0  0  0  0  0  0  0  0  0  0
   -3.4830   -2.0610    1.1210 C   0  0  0  0  0  0  0  0  0  0  0  0
   -3.6430   -3.2140    1.8530 O   0  0  0  0  0  0  0  0  0  0  0  0
   -4.5290   -1.2030    1.0000 C   0  0  0  0  0  0  0  0  0  0  0  0
   -4.3530   -0.0190    0.2660 C   0  0  0  0  0  0  0  0  0  0  0  0
   -3.1930    0.2760   -0.3230 C   0  0  0  0  0  0  0  0  0  0  0  0
   -2.8670    1.3920   -1.0750 O   0  0  0  0  0  0  0  0  0  0  0  0
   -3.8240    2.4300   -1.3090 C   0  0  0  0  0  0  0  0  0  0  0  0
    2.1740    1.0480    0.0740 C   0  0  0  0  0  0  0  0  0  0  0  0
    1.5790    2.3610    0.2580 N   0  0  0  0  0  0  0  0  0  0  0  0
    3.5170    0.8640    0.2780 C   0  0  0  0  0  0  0  0  0  0  0  0
  1  2  1  0
  2  3  1  0
  3  4  2  0
  3 20  1  0
  4  5  1  0
  5  6  2  0
  6  7  1  0
  6 18  1  0
  7  8  1  0
  8  9  1  0
  9 10  2  0
  9 15  1  0
 10 11  1  0
 11 12  1  0
 11 13  2  0
 13 14  1  0
 14 15  2  0
 15 16  1  0
 16 17  1  0
 18 19  1  0
 18 20  2  0
M  END
