
     RDKit          3D

 24 25  0  0  0  0  0  0  0  0999 V2000
   -2.6650   -1.8540   -1.3350 O   0  0  0  0  0  0  0  0  0  0  0  0
   -1.5560   -1.5570   -0.7700 C   0  0  0  0  0  0  0  0  0  0  0  0
   -0.3290   -1.8310   -1.3530 O   0  0  0  0  0  0  0  0  0  0  0  0
    0.7150   -2.5590   -0.7350 C   0  0  0  0  0  0  0  0  0  0  0  0
    2.0780   -1.9850   -1.1060 C   0  0  2  0  0  0  0  0  0  0  0  0
    2.8540   -3.0470   -1.5640 O   0  0  0  0  0  0  0  0  0  0  0  0
    2.6120   -1.4200    0.0260 O   0  0  0  0  0  0  0  0  0  0  0  0
    3.4920   -0.3910   -0.1910 C   0  0  2  0  0  0  0  0  0  0  0  0
    4.1780   -0.0970    1.1440 C   0  0  0  0  0  0  0  0  0  0  0  0
    3.2410    0.2710    2.1090 O   0  0  0  0  0  0  0  0  0  0  0  0
    2.8490    0.8940   -0.6370 C   0  0  0  0  0  0  0  0  0  0  0  0
    2.1920    1.5170    0.4010 O   0  0  0  0  0  0  0  0  0  0  0  0
    1.6310    2.7100   -0.0090 C   0  0  0  0  0  0  0  0  0  0  0  0
    0.2900    2.4970   -0.6700 C   0  0  2  0  0  0  0  0  0  0  0  0
   -0.0370    3.5960   -1.4800 O   0  0  0  0  0  0  0  0  0  0  0  0
   -0.8130    2.2070    0.3240 C   0  0  0  0  0  0  0  0  0  0  0  0
   -1.7870    1.3820   -0.3430 N   0  0  0  0  0  0  0  0  0  0  0  0
   -2.4090    0.4100    0.4990 C   0  0  1  0  0  0  0  0  0  0  0  0
   -3.8530    0.1700    0.1110 C   0  0  0  0  0  0  0  0  0  0  0  0
   -4.4470   -0.8990    0.9580 C   0  0  0  0  0  0  0  0  0  0  0  0
   -3.5340   -2.0240    1.2940 C   0  0  0  0  0  0  0  0  0  0  0  0
   -2.2310   -1.6760    1.5270 O   0  0  0  0  0  0  0  0  0  0  0  0
   -1.6550   -0.9010    0.5460 C   0  0  1  0  0  0  0  0  0  0  0  0
   -0.3510   -0.5730    0.9880 O   0  0  0  0  0  0  0  0  0  0  0  0
  1  2  2  0
  2  3  1  0
  2 23  1  0
  3  4  1  0
  4  5  1  0
  5  6  1  1
  5  7  1  0
  7  8  1  0
  8  9  1  1
  8 11  1  0
  9 10  1  0
 11 12  1  0
 12 13  1  0
 13 14  1  0
 14 15  1  1
 14 16  1  0
 16 17  1  0
 17 18  1  0
 18 19  1  6
 18 23  1  0
 19 20  1  0
 20 21  1  0
 21 22  1  0
 22 23  1  0
 23 24  1  1
M  CHG  1  17   1
M  END
