
     RDKit          3D

 25 25  0  0  0  0  0  0  0  0999 V2000
   -6.5320   -0.8890   -0.4510 O   0  0  0  0  0  0  0  0  0  0  0  0
   -5.8680   -0.1540    0.5260 C   0  0  0  0  0  0  0  0  0  0  0  0
   -4.3600   -0.2700    0.3540 C   0  0  0  0  0  0  0  0  0  0  0  0
   -3.9110   -1.0180   -0.6600 C   0  0  0  0  0  0  0  0  0  0  0  0
   -4.8900   -1.6260   -1.4780 O   0  0  0  0  0  0  0  0  0  0  0  0
   -2.5070   -1.2800   -1.0150 C   0  0  2  0  0  0  0  0  0  0  0  0
   -1.7130   -1.5010    0.1160 O   0  0  0  0  0  0  0  0  0  0  0  0
   -1.9090   -0.3630   -2.0200 C   0  0  0  0  0  0  0  0  0  0  0  0
   -0.8370    0.3830   -1.6140 O   0  0  0  0  0  0  0  0  0  0  0  0
    0.3480   -0.2910   -1.5310 C   0  0  0  0  0  0  0  0  0  0  0  0
    1.1920    0.3850   -0.4690 C   0  0  2  0  0  0  0  0  0  0  0  0
    2.4620   -0.4440   -0.2300 C   0  0  0  0  0  0  0  0  0  0  0  0
    3.2310    0.2570    0.7560 N   0  0  0  0  0  0  0  0  0  0  0  0
    4.6280   -0.0510    0.7300 C   0  0  1  0  0  0  0  0  0  0  0  0
    4.9170   -1.5090    0.9430 C   0  0  0  0  0  0  0  0  0  0  0  0
    4.3140   -2.2660   -0.0460 O   0  0  0  0  0  0  0  0  0  0  0  0
    5.3080    0.4870   -0.5100 C   0  0  0  0  0  0  0  0  0  0  0  0
    5.1340    1.8760   -0.4940 O   0  0  0  0  0  0  0  0  0  0  0  0
    0.5460    0.4520    0.7610 O   0  0  0  0  0  0  0  0  0  0  0  0
   -0.1880    1.5920    0.9650 C   0  0  2  0  0  0  0  0  0  0  0  0
    0.5510    2.6090    1.5760 O   0  0  0  0  0  0  0  0  0  0  0  0
   -1.3680    1.2090    1.8700 C   0  0  1  0  0  0  0  0  0  0  0  0
   -1.3330    1.9730    3.0440 O   0  0  0  0  0  0  0  0  0  0  0  0
   -2.6220    1.4110    1.0890 C   0  0  0  0  0  0  0  0  0  0  0  0
   -3.5330    0.3820    1.2290 O   0  0  0  0  0  0  0  0  0  0  0  0
  1  2  1  0
  2  3  1  0
  3  4  2  0
  3 25  1  0
  4  5  1  0
  4  6  1  0
  6  7  1  1
  6  8  1  0
  8  9  1  0
  9 10  1  0
 10 11  1  0
 11 12  1  1
 11 19  1  0
 12 13  1  0
 13 14  1  0
 14 15  1  6
 14 17  1  0
 15 16  1  0
 17 18  1  0
 19 20  1  0
 20 21  1  1
 20 22  1  0
 22 23  1  1
 22 24  1  0
 24 25  1  0
M  CHG  1  13   1
M  END
