
     RDKit          3D

 20 22  0  0  0  0  0  0  0  0999 V2000
   -3.5090   -1.5360   -2.0890 O   0  0  0  0  0  0  0  0  0  0  0  0
   -3.5470   -0.3070   -1.4280 C   0  0  0  0  0  0  0  0  0  0  0  0
   -2.6050   -0.3970   -0.2540 C   0  0  1  0  0  0  0  0  0  0  0  0
   -1.3070   -0.6650   -0.6870 O   0  0  0  0  0  0  0  0  0  0  0  0
   -0.4470   -0.3060    0.3230 C   0  0  1  0  0  0  0  0  0  0  0  0
    0.7520    0.3400   -0.1820 N   0  0  0  0  0  0  0  0  0  0  0  0
    0.8280    1.4400   -0.9210 C   0  0  0  0  0  0  0  0  0  0  0  0
    2.1290    1.7310   -1.1960 N   0  0  0  0  0  0  0  0  0  0  0  0
    2.8940    0.7970   -0.6210 C   0  0  0  0  0  0  0  0  0  0  0  0
    4.2500    0.6260   -0.5910 C   0  0  0  0  0  0  0  0  0  0  0  0
    4.7580   -0.4450    0.0910 C   0  0  0  0  0  0  0  0  0  0  0  0
    6.4790   -0.7030    0.1560 Cl  0  0  0  0  0  0  0  0  0  0  0  0
    3.9440   -1.3450    0.7430 C   0  0  0  0  0  0  0  0  0  0  0  0
    4.5440   -2.7190    1.6210 Cl  0  0  0  0  0  0  0  0  0  0  0  0
    2.5770   -1.1390    0.6900 C   0  0  0  0  0  0  0  0  0  0  0  0
    2.0160   -0.0760    0.0160 C   0  0  0  0  0  0  0  0  0  0  0  0
   -1.1880    0.6360    1.2470 C   0  0  2  0  0  0  0  0  0  0  0  0
   -1.6680   -0.0970    2.3420 O   0  0  0  0  0  0  0  0  0  0  0  0
   -2.3990    0.9690    0.3970 C   0  0  2  0  0  0  0  0  0  0  0  0
   -3.4900    1.3400    1.1610 O   0  0  0  0  0  0  0  0  0  0  0  0
  1  2  1  0
  3  2  1  6
  3  4  1  0
  3 19  1  0
  4  5  1  0
  5  6  1  6
  5 17  1  0
  6  7  1  0
  6 16  1  0
  7  8  2  0
  8  9  1  0
  9 10  2  0
  9 16  1  0
 10 11  1  0
 11 12  1  0
 11 13  2  0
 13 14  1  0
 13 15  1  0
 15 16  2  0
 17 18  1  1
 17 19  1  0
 19 20  1  1
M  END
