
     RDKit          3D

 24 25  0  0  0  0  0  0  0  0999 V2000
    1.3920    1.1290    1.0900 O   0  0  0  0  0  0  0  0  0  0  0  0
    0.8160    0.2420    1.7300 C   0  0  0  0  0  0  0  0  0  0  0  0
    1.5580   -0.9100    2.1540 N   0  0  0  0  0  0  0  0  0  0  0  0
    2.9740   -1.0450    1.8400 C   0  0  1  0  0  0  0  0  0  0  0  0
    3.6560   -1.0380    3.0560 O   0  0  0  0  0  0  0  0  0  0  0  0
    3.2610   -2.3150    1.0760 C   0  0  1  0  0  0  0  0  0  0  0  0
    2.5770   -2.3450   -0.2620 C   0  0  0  0  0  0  0  0  0  0  0  0
    3.2950   -3.0750   -1.2120 O   0  0  0  0  0  0  0  0  0  0  0  0
    4.5170   -2.5070   -1.5100 C   0  0  0  0  0  0  0  0  0  0  0  0
    4.9250   -1.6430   -0.3320 C   0  0  0  0  0  0  0  0  0  0  0  0
    4.6390   -2.3350    0.8340 O   0  0  0  0  0  0  0  0  0  0  0  0
   -0.5110    0.3460    2.0360 O   0  0  0  0  0  0  0  0  0  0  0  0
   -1.3940    1.3700    1.7080 C   0  0  0  0  0  0  0  0  0  0  0  0
   -1.6170    1.5210    0.2470 C   0  0  2  0  0  0  0  0  0  0  0  0
   -0.4670    1.8230   -0.4540 O   0  0  0  0  0  0  0  0  0  0  0  0
   -2.6610    2.6290    0.0160 C   0  0  0  0  0  0  0  0  0  0  0  0
   -2.5440    3.0320   -1.4380 C   0  0  1  0  0  0  0  0  0  0  0  0
   -1.2710    3.5230   -1.6550 O   0  0  0  0  0  0  0  0  0  0  0  0
   -2.7290    1.8100   -2.3020 C   0  0  0  0  0  0  0  0  0  0  0  0
   -3.1480    0.6050   -1.5220 C   0  0  1  0  0  0  0  0  0  0  0  0
   -3.1570   -0.4850   -2.3900 O   0  0  0  0  0  0  0  0  0  0  0  0
   -2.2410    0.2770   -0.3720 C   0  0  2  0  0  0  0  0  0  0  0  0
   -3.1100   -0.4080    0.6890 C   0  0  0  0  0  0  0  0  0  0  0  0
   -3.6850   -1.5460    0.1330 O   0  0  0  0  0  0  0  0  0  0  0  0
  1  2  2  0
  2  3  1  0
  2 12  1  0
  3  4  1  0
  4  5  1  1
  4  6  1  0
  6  7  1  6
  6 11  1  0
  7  8  1  0
  8  9  1  0
  9 10  1  0
 10 11  1  0
 12 13  1  0
 13 14  1  0
 14 15  1  6
 14 16  1  0
 14 22  1  0
 16 17  1  0
 17 18  1  1
 17 19  1  0
 19 20  1  0
 20 21  1  6
 20 22  1  0
 22 23  1  1
 23 24  1  0
M  END
