
     RDKit          3D

 33 35  0  0  0  0  0  0  0  0999 V2000
    6.7110   -1.6620    1.5700 C   0  0  0  0  0  0  0  0  0  0  0  0
    5.4980   -2.5110    1.9560 C   0  0  0  0  0  0  0  0  0  0  0  0
    4.5020   -2.5160    0.7930 C   0  0  0  0  0  0  0  0  0  0  0  0
    4.1020   -1.1690    0.5320 N   0  0  1  0  0  0  0  0  0  0  0  0
    4.6510   -0.6270   -0.7110 C   0  0  0  0  0  0  0  0  0  0  0  0
    4.4140    0.8530   -0.7610 C   0  0  0  0  0  0  0  0  0  0  0  0
    4.3930    1.3830    0.5690 N   0  0  0  0  0  0  0  0  0  0  0  0
    5.2000    2.5420    0.7800 C   0  0  0  0  0  0  0  0  0  0  0  0
    5.0240    2.9470    2.2510 C   0  0  0  0  0  0  0  0  0  0  0  0
    3.1200    1.4160    1.2100 C   0  0  0  0  0  0  0  0  0  0  0  0
    2.2710    0.3220    0.6750 C   0  0  0  0  0  0  0  0  0  0  0  0
    0.9810    0.6470    0.4340 C   0  0  0  0  0  0  0  0  0  0  0  0
    0.1360   -0.3490   -0.0690 C   0  0  0  0  0  0  0  0  0  0  0  0
   -1.1720   -0.2090   -0.3790 C   0  0  0  0  0  0  0  0  0  0  0  0
   -1.7410   -1.4360   -0.8750 C   0  0  0  0  0  0  0  0  0  0  0  0
   -0.9160   -2.4390   -0.9450 O   0  0  0  0  0  0  0  0  0  0  0  0
   -3.0420   -1.7400   -1.2990 N   0  0  0  0  0  0  0  0  0  0  0  0
   -3.2880   -3.0650   -1.7430 N   0  0  0  0  0  0  0  0  0  0  0  0
   -4.1480   -3.9210   -1.0320 C   0  0  0  0  0  0  0  0  0  0  0  0
   -4.7020   -3.5110    0.0020 O   0  0  0  0  0  0  0  0  0  0  0  0
   -4.4210   -5.3260   -1.4810 C   0  0  2  0  0  0  0  0  0  0  0  0
   -5.7490   -5.8980   -1.1470 C   0  0  0  0  0  0  0  0  0  0  0  0
   -4.4860   -6.3570   -0.3920 C   0  0  0  0  0  0  0  0  0  0  0  0
   -1.8120    1.0400   -0.1770 C   0  0  0  0  0  0  0  0  0  0  0  0
   -1.0790    1.9860    0.3520 O   0  0  0  0  0  0  0  0  0  0  0  0
   -3.1340    1.4330   -0.4630 N   0  0  0  0  0  0  0  0  0  0  0  0
   -3.5610    2.8070   -0.1470 C   0  0  1  0  0  0  0  0  0  0  0  0
   -3.4570    3.5590   -1.4440 C   0  0  0  0  0  0  0  0  0  0  0  0
   -4.7040    4.2540   -1.8840 C   0  0  0  0  0  0  0  0  0  0  0  0
   -5.2590    4.9000   -0.6910 N   0  0  0  0  0  0  0  0  0  0  0  0
   -5.8620    3.8180    0.0600 C   0  0  0  0  0  0  0  0  0  0  0  0
   -4.8800    2.7910    0.5130 C   0  0  0  0  0  0  0  0  0  0  0  0
    2.6310   -1.0580    0.3530 C   0  0  0  0  0  0  0  0  0  0  0  0
  1  2  1  0
  2  3  1  0
  4  3  1  6
  4  5  1  0
  4 33  1  0
  5  6  1  0
  6  7  1  0
  7  8  1  0
  7 10  1  0
  8  9  1  0
 10 11  1  0
 11 12  2  3
 11 33  1  0
 12 13  1  0
 13 14  2  3
 14 15  1  0
 14 24  1  0
 15 16  2  0
 15 17  1  0
 17 18  1  0
 18 19  1  0
 19 20  2  0
 21 19  1  1
 21 22  1  0
 21 23  1  0
 22 23  1  0
 24 25  2  0
 24 26  1  0
 27 26  1  6
 27 28  1  0
 27 32  1  0
 28 29  1  0
 29 30  1  0
 30 31  1  0
 31 32  1  0
M  CHG  2   4   1  30   1
M  END
