
     RDKit          3D

 33 35  0  0  0  0  0  0  0  0999 V2000
    8.3410    2.1250   -0.8210 C   0  0  0  0  0  0  0  0  0  0  0  0
    7.1630    2.2740    0.0740 C   0  0  0  0  0  0  0  0  0  0  0  0
    6.6050    1.3390    0.7570 C   0  0  0  0  0  0  0  0  0  0  0  0
    6.9720   -0.1230    0.8820 C   0  0  0  0  0  0  0  0  0  0  0  0
    5.7950   -0.7930    0.8840 N   0  0  0  0  0  0  0  0  0  0  0  0
    4.7950   -0.9190   -0.3840 C   0  0  0  0  0  0  0  0  0  0  0  0
    5.3430   -0.6710   -1.2300 O   0  0  0  0  0  0  0  0  0  0  0  0
    3.6630   -1.2950    0.4550 N   0  0  0  0  0  0  0  0  0  0  0  0
    2.5060   -0.8790   -0.7330 C   0  0  0  0  0  0  0  0  0  0  0  0
    2.8560   -1.1160   -1.8610 O   0  0  0  0  0  0  0  0  0  0  0  0
    1.2920   -0.3780   -0.1500 C   0  0  2  0  0  0  0  0  0  0  0  0
    0.1890   -1.3740   -0.2210 N   0  0  0  0  0  0  0  0  0  0  0  0
   -0.9770   -0.9710    0.5940 C   0  0  2  0  0  0  0  0  0  0  0  0
   -1.4070   -2.1290    1.3310 C   0  0  0  0  0  0  0  0  0  0  0  0
   -1.9690   -3.2340    0.5260 C   0  0  0  0  0  0  0  0  0  0  0  0
   -3.1920   -3.8320    0.9880 C   0  0  0  0  0  0  0  0  0  0  0  0
   -3.6230   -5.0340    0.5570 C   0  0  0  0  0  0  0  0  0  0  0  0
   -2.8980   -5.7820   -0.3490 N   0  0  0  0  0  0  0  0  0  0  0  0
   -1.7140   -5.2040   -0.7990 C   0  0  0  0  0  0  0  0  0  0  0  0
   -1.2810   -3.9940   -0.3800 C   0  0  0  0  0  0  0  0  0  0  0  0
   -2.0840   -0.6030   -0.2630 C   0  0  0  0  0  0  0  0  0  0  0  0
   -2.5370   -1.3830   -1.1950 O   0  0  0  0  0  0  0  0  0  0  0  0
   -2.8540    0.6160   -0.0680 N   0  0  0  0  0  0  0  0  0  0  0  0
   -4.0630    0.8460   -0.8060 C   0  0  0  0  0  0  0  0  0  0  0  0
   -4.3010    2.3430   -0.7860 C   0  0  1  0  0  0  0  0  0  0  0  0
   -5.5570    2.5770   -1.6090 C   0  0  0  0  0  0  0  0  0  0  0  0
   -6.6160    2.3070   -0.5600 C   0  0  0  0  0  0  0  0  0  0  0  0
   -5.9870    2.8500    0.6750 C   0  0  0  0  0  0  0  0  0  0  0  0
   -4.5820    2.8900    0.4790 N   0  0  0  0  0  0  0  0  0  0  0  0
    0.8360    0.7110   -1.2450 C   0  0  0  0  0  0  0  0  0  0  0  0
    1.5890    1.9020   -0.8170 C   0  0  0  0  0  0  0  0  0  0  0  0
    1.2920    1.9350    0.6660 C   0  0  0  0  0  0  0  0  0  0  0  0
    1.4630    0.4730    1.0220 C   0  0  0  0  0  0  0  0  0  0  0  0
  1  2  1  0
  2  3  2  3
  3  4  1  0
  4  5  1  0
  5  6  1  0
  6  7  2  0
  6  8  1  0
  8  9  1  0
  9 10  2  0
  9 11  1  0
 11 12  1  1
 11 30  1  0
 11 33  1  0
 12 13  1  0
 13 14  1  1
 13 21  1  0
 14 15  1  0
 15 16  2  0
 15 20  1  0
 16 17  1  0
 17 18  2  0
 18 19  1  0
 19 20  2  0
 21 22  2  0
 21 23  1  0
 23 24  1  0
 25 24  1  1
 25 26  1  0
 25 29  1  0
 26 27  1  0
 27 28  1  0
 28 29  1  0
 30 31  1  0
 31 32  1  0
 32 33  1  0
M  CHG  2  18   1  29   1
M  END
