
     RDKit          3D

 33 35  0  0  0  0  0  0  0  0999 V2000
   -6.7090    1.5910   -0.4460 C   0  0  0  0  0  0  0  0  0  0  0  0
   -6.1010    2.0190    0.8700 C   0  0  0  0  0  0  0  0  0  0  0  0
   -5.0510    3.0980    0.6650 C   0  0  0  0  0  0  0  0  0  0  0  0
   -4.4770    3.5050    1.9320 N   0  0  0  0  0  0  0  0  0  0  0  0
   -3.6580    2.5230    2.6350 C   0  0  0  0  0  0  0  0  0  0  0  0
   -2.6130    2.0420    2.0270 C   0  0  0  0  0  0  0  0  0  0  0  0
   -1.6580    1.0350    2.5760 C   0  0  0  0  0  0  0  0  0  0  0  0
   -0.7490    0.5140    1.6680 N   0  0  0  0  0  0  0  0  0  0  0  0
    0.1100   -0.5910    1.6680 C   0  0  0  0  0  0  0  0  0  0  0  0
    0.1120   -1.3410    2.6320 O   0  0  0  0  0  0  0  0  0  0  0  0
    1.0080   -0.8720    0.5190 C   0  0  0  0  0  0  0  0  0  0  0  0
    1.1580    0.0370   -0.3660 O   0  0  0  0  0  0  0  0  0  0  0  0
    1.6840   -2.0770    0.3640 N   0  0  0  0  0  0  0  0  0  0  0  0
    2.5750   -2.3970   -0.7180 C   0  0  0  0  0  0  0  0  0  0  0  0
    3.2030   -1.3810   -1.4260 C   0  0  0  0  0  0  0  0  0  0  0  0
    4.1130   -1.7100   -2.4320 C   0  0  0  0  0  0  0  0  0  0  0  0
    4.7800   -0.6110   -3.1570 C   0  0  0  0  0  0  0  0  0  0  0  0
    5.6820   -0.6120   -4.1390 N   0  0  0  0  0  0  0  0  0  0  0  0
    6.0090    0.6300   -4.4880 C   0  0  0  0  0  0  0  0  0  0  0  0
    6.9410    1.1350   -5.4700 C   0  0  0  0  0  0  0  0  0  0  0  0
    7.7440    0.2280   -6.2440 N   0  0  0  0  0  0  0  0  0  0  0  0
    7.0900    2.3510   -5.6910 O   0  0  0  0  0  0  0  0  0  0  0  0
    5.2750    1.4250   -3.6820 N   0  0  0  0  0  0  0  0  0  0  0  0
    4.5450    0.6630   -2.8910 O   0  0  0  0  0  0  0  0  0  0  0  0
    4.3830   -2.9770   -2.7150 N   0  0  0  0  0  0  0  0  0  0  0  0
    3.7710   -3.9830   -2.0260 C   0  0  0  0  0  0  0  0  0  0  0  0
    2.8800   -3.6750   -1.0420 C   0  0  0  0  0  0  0  0  0  0  0  0
    2.1980   -4.8030   -0.2770 C   0  0  0  0  0  0  0  0  0  0  0  0
   -1.9470    0.6380    3.7880 C   0  0  0  0  0  0  0  0  0  0  0  0
   -1.1300   -0.3130    4.4810 N   0  0  0  0  0  0  0  0  0  0  0  0
   -3.1560    1.0850    4.5240 C   0  0  0  0  0  0  0  0  0  0  0  0
   -3.3980    0.5390    5.6580 O   0  0  0  0  0  0  0  0  0  0  0  0
   -4.0340    2.1020    3.9870 C   0  0  0  0  0  0  0  0  0  0  0  0
  1  2  1  0
  2  3  1  0
  3  4  1  0
  4  5  1  0
  5  6  2  0
  5 33  1  0
  6  7  1  0
  7  8  1  0
  7 29  2  0
  8  9  1  0
  9 10  2  0
  9 11  1  0
 11 12  2  0
 11 13  1  0
 13 14  1  0
 14 15  2  0
 14 27  1  0
 15 16  1  0
 16 17  1  0
 16 25  2  0
 17 18  2  0
 17 24  1  0
 18 19  1  0
 19 20  1  0
 19 23  2  0
 20 21  1  0
 20 22  2  0
 23 24  1  0
 25 26  1  0
 26 27  2  0
 27 28  1  0
 29 30  1  0
 29 31  1  0
 31 32  2  0
 31 33  1  0
M  END
