
     RDKit          3D

 33 35  0  0  0  0  0  0  0  0999 V2000
   -4.3330   -3.6970   -0.7090 C   0  0  0  0  0  0  0  0  0  0  0  0
   -5.1880   -2.8500    0.1430 C   0  0  0  0  0  0  0  0  0  0  0  0
   -6.3090   -3.3880    0.6080 C   0  0  0  0  0  0  0  0  0  0  0  0
   -7.1710   -2.6680    1.4130 O   0  0  0  0  0  0  0  0  0  0  0  0
   -6.9470   -1.3630    1.7930 C   0  0  0  0  0  0  0  0  0  0  0  0
   -5.6950   -0.7970    1.2610 C   0  0  0  0  0  0  0  0  0  0  0  0
   -4.8850   -1.4750    0.5030 C   0  0  0  0  0  0  0  0  0  0  0  0
   -3.6260   -0.9260   -0.0570 C   0  0  0  0  0  0  0  0  0  0  0  0
   -3.3200    0.4220    0.2430 N   0  0  1  0  0  0  0  0  0  0  0  0
   -1.9200    0.7300    0.0350 C   0  0  0  0  0  0  0  0  0  0  0  0
   -0.9830   -0.4200    0.1520 C   0  0  0  0  0  0  0  0  0  0  0  0
    0.3510   -0.0160   -0.0720 N   0  0  0  0  0  0  0  0  0  0  0  0
    0.7710    0.3830   -1.3300 C   0  0  0  0  0  0  0  0  0  0  0  0
    2.1370    1.0020   -1.2900 C   0  0  0  0  0  0  0  0  0  0  0  0
    3.0940    0.2520   -0.4590 N   0  0  0  0  0  0  0  0  0  0  0  0
    4.4610    0.4090   -0.7250 C   0  0  0  0  0  0  0  0  0  0  0  0
    4.7250    1.1780   -1.7360 O   0  0  0  0  0  0  0  0  0  0  0  0
    5.6060   -0.1640   -0.0280 C   0  0  2  0  0  0  0  0  0  0  0  0
    5.6590   -1.6670    0.0360 C   0  0  0  0  0  0  0  0  0  0  0  0
    6.8840   -2.0170    0.7640 N   0  0  0  0  0  0  0  0  0  0  0  0
    5.7730    0.3820    1.3720 C   0  0  0  0  0  0  0  0  0  0  0  0
    6.7570    1.5240    1.2270 C   0  0  0  0  0  0  0  0  0  0  0  0
    7.2770    1.4520   -0.1770 C   0  0  0  0  0  0  0  0  0  0  0  0
    6.8290    0.2250   -0.7390 N   0  0  0  0  0  0  0  0  0  0  0  0
    2.5460   -0.6040    0.5530 C   0  0  2  0  0  0  0  0  0  0  0  0
    2.1260   -1.8930   -0.1360 C   0  0  0  0  0  0  0  0  0  0  0  0
    1.2390    0.0810    1.0200 C   0  0  0  0  0  0  0  0  0  0  0  0
   -4.0630    1.3790   -0.5610 C   0  0  2  0  0  0  0  0  0  0  0  0
   -3.5560    1.4580   -1.9850 C   0  0  0  0  0  0  0  0  0  0  0  0
   -3.8670    2.7370    0.0700 C   0  0  0  0  0  0  0  0  0  0  0  0
   -4.5710    3.8030   -0.6450 C   0  0  0  0  0  0  0  0  0  0  0  0
   -4.4860    5.1320   -0.1930 N   0  0  0  0  0  0  0  0  0  0  0  0
   -5.2490    3.5390   -1.6590 O   0  0  0  0  0  0  0  0  0  0  0  0
  1  2  1  0
  2  3  2  0
  2  7  1  0
  3  4  1  0
  4  5  1  0
  5  6  1  0
  6  7  2  0
  7  8  1  0
  9  8  1  6
  9 10  1  0
  9 28  1  0
 10 11  1  0
 11 12  1  0
 12 13  1  0
 12 27  1  0
 13 14  1  0
 14 15  1  0
 15 16  1  0
 15 25  1  0
 16 17  2  0
 16 18  1  0
 18 19  1  1
 18 21  1  0
 18 24  1  0
 19 20  1  0
 21 22  1  0
 22 23  1  0
 23 24  1  0
 25 26  1  6
 25 27  1  0
 28 29  1  6
 28 30  1  0
 30 31  1  0
 31 32  1  0
 31 33  2  0
M  CHG  2   9   1  20   1
M  END
