
     RDKit          3D

 42 45  0  0  0  0  0  0  0  0999 V2000
    4.8510   -0.6740   -3.3420 C   0  0  0  0  0  0  0  0  0  0  0  0
    4.5940   -1.2540   -2.0600 O   0  0  0  0  0  0  0  0  0  0  0  0
    4.4710   -0.3280   -0.9410 C   0  0  0  0  0  0  0  0  0  0  0  0
    5.5470    0.2380   -0.5370 C   0  0  0  0  0  0  0  0  0  0  0  0
    5.8390    1.1780    0.4970 C   0  0  0  0  0  0  0  0  0  0  0  0
    7.0620    1.6560    0.7560 C   0  0  0  0  0  0  0  0  0  0  0  0
    8.3100    1.3290    0.0600 C   0  0  0  0  0  0  0  0  0  0  0  0
    9.2810    0.7330    1.0240 C   0  0  0  0  0  0  0  0  0  0  0  0
    8.9540    0.5850    2.2080 O   0  0  0  0  0  0  0  0  0  0  0  0
   10.5850    0.3270    0.6110 N   0  0  0  0  0  0  0  0  0  0  0  0
   11.5380   -0.2470    1.5100 C   0  0  1  0  0  0  0  0  0  0  0  0
   11.9620   -1.6460    1.0430 C   0  0  0  0  0  0  0  0  0  0  0  0
   13.3360   -1.7130    1.7140 C   0  0  0  0  0  0  0  0  0  0  0  0
   13.8710   -0.4480    1.5710 O   0  0  0  0  0  0  0  0  0  0  0  0
   12.8600    0.4680    1.5100 C   0  0  0  0  0  0  0  0  0  0  0  0
    3.1110   -0.2150   -0.4770 C   0  0  0  0  0  0  0  0  0  0  0  0
    2.6080    0.5370    0.5370 C   0  0  0  0  0  0  0  0  0  0  0  0
    1.2180    0.2700    0.5560 C   0  0  0  0  0  0  0  0  0  0  0  0
    0.9620   -0.6160   -0.4340 C   0  0  0  0  0  0  0  0  0  0  0  0
   -0.3530   -1.1790   -0.7860 C   0  0  0  0  0  0  0  0  0  0  0  0
   -0.4560   -1.9970   -1.7250 O   0  0  0  0  0  0  0  0  0  0  0  0
   -1.4940   -0.8190   -0.0940 O   0  0  0  0  0  0  0  0  0  0  0  0
   -2.7460   -1.3210   -0.3910 C   0  0  0  0  0  0  0  0  0  0  0  0
   -3.2950   -2.4280    0.2160 C   0  0  0  0  0  0  0  0  0  0  0  0
   -4.5490   -2.8950   -0.1120 C   0  0  0  0  0  0  0  0  0  0  0  0
   -5.3260   -2.2540   -1.0880 C   0  0  0  0  0  0  0  0  0  0  0  0
   -6.9180   -2.9240   -1.4660 S   0  0  0  0  0  0  0  0  0  0  0  0
   -8.1470   -2.2500   -0.3360 C   0  0  0  0  0  0  0  0  0  0  0  0
   -8.3850   -0.8100   -0.5280 C   0  0  0  0  0  0  0  0  0  0  0  0
   -7.7710   -0.1740   -1.4150 O   0  0  0  0  0  0  0  0  0  0  0  0
   -9.3170   -0.0980    0.2850 N   0  0  0  0  0  0  0  0  0  0  0  0
   -9.4950    1.3140    0.0350 C   0  0  2  0  0  0  0  0  0  0  0  0
   -9.2330    2.0420    1.3000 C   0  0  0  0  0  0  0  0  0  0  0  0
   -8.0400    2.3290    1.5780 O   0  0  0  0  0  0  0  0  0  0  0  0
  -10.2470    2.3960    2.1480 O   0  0  0  0  0  0  0  0  0  0  0  0
  -11.5860    2.0090    2.0080 C   0  0  0  0  0  0  0  0  0  0  0  0
  -11.8390    1.1620    0.7810 C   0  0  0  0  0  0  0  0  0  0  0  0
  -10.9410    1.5590   -0.3440 C   0  0  2  0  0  0  0  0  0  0  0  0
  -11.3020    0.8900   -1.6300 C   0  0  0  0  0  0  0  0  0  0  0  0
   -4.7770   -1.1520   -1.6920 C   0  0  0  0  0  0  0  0  0  0  0  0
   -3.5100   -0.6950   -1.3490 C   0  0  0  0  0  0  0  0  0  0  0  0
    2.0790   -0.8810   -1.0180 O   0  0  0  0  0  0  0  0  0  0  0  0
  1  2  1  0
  2  3  1  0
  3  4  2  3
  3 16  1  0
  4  5  1  0
  5  6  2  3
  6  7  1  0
  7  8  1  0
  8  9  2  0
  8 10  1  0
 11 10  1  6
 11 12  1  0
 11 15  1  0
 12 13  1  0
 13 14  1  0
 14 15  1  0
 16 17  2  0
 16 42  1  0
 17 18  1  0
 18 19  2  0
 19 20  1  0
 19 42  1  0
 20 21  2  0
 20 22  1  0
 22 23  1  0
 23 24  2  0
 23 41  1  0
 24 25  1  0
 25 26  2  0
 26 27  1  0
 26 40  1  0
 27 28  1  0
 28 29  1  0
 29 30  2  0
 29 31  1  0
 32 31  1  1
 32 33  1  0
 32 38  1  0
 33 34  2  0
 33 35  1  0
 35 36  1  0
 36 37  1  0
 37 38  1  0
 38 39  1  6
 40 41  2  0
M  END
