
     RDKit          3D

 42 46  0  0  0  0  0  0  0  0999 V2000
    6.4990   -4.0970    3.8270 C   0  0  0  0  0  0  0  0  0  0  0  0
    6.8610   -3.6350    2.5550 O   0  0  0  0  0  0  0  0  0  0  0  0
    6.1580   -2.5370    2.0290 C   0  0  0  0  0  0  0  0  0  0  0  0
    5.1470   -1.9380    2.7460 C   0  0  0  0  0  0  0  0  0  0  0  0
    4.4630   -0.8650    2.2260 C   0  0  0  0  0  0  0  0  0  0  0  0
    4.8040   -0.4020    0.9840 C   0  0  0  0  0  0  0  0  0  0  0  0
    3.9820    0.9600    0.2530 S   0  0  2  0  0  0  0  0  0  0  0  0
    4.9880    1.7050   -0.5550 O   0  0  0  0  0  0  0  0  0  0  0  0
    3.5610    1.9040    1.3650 O   0  0  0  0  0  0  0  0  0  0  0  0
    2.6430    0.5460   -0.6540 N   0  0  0  0  0  0  0  0  0  0  0  0
    2.7510   -0.2750   -1.7790 C   0  0  0  0  0  0  0  0  0  0  0  0
    2.5800    0.3680   -3.1230 C   0  0  1  0  0  0  0  0  0  0  0  0
    3.5510    1.4500   -3.4720 C   0  0  0  0  0  0  0  0  0  0  0  0
    4.8260    0.7140   -3.7880 C   0  0  0  0  0  0  0  0  0  0  0  0
    4.3700   -0.6650   -4.1350 C   0  0  0  0  0  0  0  0  0  0  0  0
    5.0820   -1.6760   -4.3870 O   0  0  0  0  0  0  0  0  0  0  0  0
    2.9420   -0.6490   -4.1320 N   0  0  0  0  0  0  0  0  0  0  0  0
    1.4060    0.4430    0.0830 C   0  0  0  0  0  0  0  0  0  0  0  0
    0.7250    1.7960    0.0800 C   0  0  1  0  0  0  0  0  0  0  0  0
    0.4640    2.1760   -1.2340 O   0  0  0  0  0  0  0  0  0  0  0  0
   -0.5700    1.7890    0.8400 C   0  0  2  0  0  0  0  0  0  0  0  0
   -0.3570    1.5720    2.3240 C   0  0  0  0  0  0  0  0  0  0  0  0
   -1.6490    1.5660    3.0530 C   0  0  0  0  0  0  0  0  0  0  0  0
   -2.1310    2.7780    3.5330 C   0  0  0  0  0  0  0  0  0  0  0  0
   -3.3390    2.8200    4.2230 C   0  0  0  0  0  0  0  0  0  0  0  0
   -4.0700    1.6710    4.4380 C   0  0  0  0  0  0  0  0  0  0  0  0
   -3.5830    0.4750    3.9580 C   0  0  0  0  0  0  0  0  0  0  0  0
   -2.3870    0.4120    3.2710 C   0  0  0  0  0  0  0  0  0  0  0  0
   -1.5450    0.8780    0.3030 N   0  0  0  0  0  0  0  0  0  0  0  0
   -2.7840    1.3300   -0.2640 C   0  0  0  0  0  0  0  0  0  0  0  0
   -3.0090    2.5610   -0.2850 O   0  0  0  0  0  0  0  0  0  0  0  0
   -3.7270    0.4620   -0.7820 O   0  0  0  0  0  0  0  0  0  0  0  0
   -4.9240    0.9390   -1.3280 C   0  0  2  0  0  0  0  0  0  0  0  0
   -6.1390    0.4400   -0.5760 C   0  0  0  0  0  0  0  0  0  0  0  0
   -6.7550   -0.6500   -1.4070 C   0  0  2  0  0  0  0  0  0  0  0  0
   -6.4810   -2.0200   -0.8690 C   0  0  0  0  0  0  0  0  0  0  0  0
   -6.0520   -2.7890   -2.1050 C   0  0  0  0  0  0  0  0  0  0  0  0
   -5.3010   -1.8250   -2.7860 O   0  0  0  0  0  0  0  0  0  0  0  0
   -6.0570   -0.6570   -2.7410 C   0  0  2  0  0  0  0  0  0  0  0  0
   -5.1260    0.5260   -2.7580 C   0  0  0  0  0  0  0  0  0  0  0  0
    5.8130   -1.0110    0.2850 C   0  0  0  0  0  0  0  0  0  0  0  0
    6.5180   -2.0870    0.7750 C   0  0  0  0  0  0  0  0  0  0  0  0
  1  2  1  0
  2  3  1  0
  3  4  2  0
  3 42  1  0
  4  5  1  0
  5  6  2  0
  6  7  1  0
  6 41  1  0
  7  8  2  0
  7  9  2  0
  7 10  1  6
 10 11  1  0
 10 18  1  0
 12 11  1  1
 12 13  1  0
 12 17  1  0
 13 14  1  0
 14 15  1  0
 15 16  2  0
 15 17  1  0
 18 19  1  0
 19 20  1  6
 19 21  1  0
 21 22  1  1
 21 29  1  0
 22 23  1  0
 23 24  2  0
 23 28  1  0
 24 25  1  0
 25 26  2  0
 26 27  1  0
 27 28  2  0
 29 30  1  0
 30 31  2  0
 30 32  1  0
 33 32  1  1
 33 34  1  0
 33 40  1  0
 35 34  1  1
 35 36  1  0
 35 39  1  0
 36 37  1  0
 37 38  1  0
 38 39  1  0
 39 40  1  1
 41 42  2  0
M  END
