
     RDKit          3D

 42 45  0  0  0  0  0  0  0  0999 V2000
   -8.8030    0.8480   -1.3020 C   0  0  0  0  0  0  0  0  0  0  0  0
   -9.1180    0.0830   -2.5500 C   0  0  0  0  0  0  0  0  0  0  0  0
   -7.8980   -0.2130   -3.3320 C   0  0  0  0  0  0  0  0  0  0  0  0
   -6.8600   -1.0850   -2.7690 C   0  0  2  0  0  0  0  0  0  0  0  0
   -7.4840   -2.4530   -2.4540 C   0  0  0  0  0  0  0  0  0  0  0  0
   -6.1390   -0.6690   -1.5940 N   0  0  0  0  0  0  0  0  0  0  0  0
   -4.7530   -0.4760   -1.5630 C   0  0  0  0  0  0  0  0  0  0  0  0
   -4.1810   -0.7100   -2.7040 O   0  0  0  0  0  0  0  0  0  0  0  0
   -3.8620   -0.0790   -0.5110 C   0  0  0  0  0  0  0  0  0  0  0  0
   -2.5010   -0.4230   -0.5900 C   0  0  0  0  0  0  0  0  0  0  0  0
   -1.5820   -0.1300    0.3860 C   0  0  0  0  0  0  0  0  0  0  0  0
   -0.3070   -0.4490    0.3180 O   0  0  0  0  0  0  0  0  0  0  0  0
    0.7320   -0.9920   -0.2850 C   0  0  0  0  0  0  0  0  0  0  0  0
    1.9150   -0.8010    0.5280 O   0  0  0  0  0  0  0  0  0  0  0  0
    1.9280   -1.3770    1.8010 C   0  0  0  0  0  0  0  0  0  0  0  0
    0.8440   -2.1280    2.2110 C   0  0  0  0  0  0  0  0  0  0  0  0
    0.7930   -2.7190    3.4580 C   0  0  0  0  0  0  0  0  0  0  0  0
    1.8450   -2.5640    4.3240 C   0  0  0  0  0  0  0  0  0  0  0  0
    2.9170   -1.8180    3.9070 C   0  0  0  0  0  0  0  0  0  0  0  0
    2.9930   -1.2100    2.6530 C   0  0  0  0  0  0  0  0  0  0  0  0
    4.0990   -0.5040    2.3740 O   0  0  0  0  0  0  0  0  0  0  0  0
    4.5710    0.2020    1.3080 C   0  0  1  0  0  0  0  0  0  0  0  0
    4.5550    1.6890    1.6910 C   0  0  0  0  0  0  0  0  0  0  0  0
    5.9820   -0.2020    0.9750 C   0  0  0  0  0  0  0  0  0  0  0  0
    6.5380   -1.0400    1.7580 O   0  0  0  0  0  0  0  0  0  0  0  0
    6.6720    0.3100   -0.1420 N   0  0  0  0  0  0  0  0  0  0  0  0
    8.0440    0.0100   -0.5300 C   0  0  0  0  0  0  0  0  0  0  0  0
    8.3840    0.8730   -1.6920 C   0  0  2  0  0  0  0  0  0  0  0  0
    9.4350    1.9300   -1.4620 C   0  0  0  0  0  0  0  0  0  0  0  0
    8.3030    2.8620   -0.4350 S   0  0  0  0  0  0  0  0  0  0  0  0
    8.2090    2.3470    0.9860 O   0  0  0  0  0  0  0  0  0  0  0  0
    7.3290    1.9630   -1.6170 C   0  0  2  0  0  0  0  0  0  0  0  0
    6.1300    1.2220   -1.1190 C   0  0  1  0  0  0  0  0  0  0  0  0
    5.5960    0.4130   -2.2590 C   0  0  0  0  0  0  0  0  0  0  0  0
    5.0320    0.9660   -3.2440 O   0  0  0  0  0  0  0  0  0  0  0  0
    5.7140   -0.9560   -2.2490 O   0  0  0  0  0  0  0  0  0  0  0  0
   -2.0070    0.5610    1.5540 C   0  0  0  0  0  0  0  0  0  0  0  0
   -1.0630    0.8440    2.5300 O   0  0  0  0  0  0  0  0  0  0  0  0
   -1.4060    1.5150    3.7240 C   0  0  0  0  0  0  0  0  0  0  0  0
   -3.3170    0.8930    1.6300 C   0  0  0  0  0  0  0  0  0  0  0  0
   -4.2420    0.5850    0.6190 C   0  0  0  0  0  0  0  0  0  0  0  0
   -5.6200    1.0510    0.8230 C   0  0  0  0  0  0  0  0  0  0  0  0
  1  2  1  0
  2  3  1  0
  3  4  1  0
  4  5  1  1
  4  6  1  0
  6  7  1  0
  7  8  2  0
  7  9  1  0
  9 10  2  0
  9 41  1  0
 10 11  1  0
 11 12  1  0
 11 37  2  0
 12 13  1  0
 13 14  1  0
 14 15  1  0
 15 16  2  0
 15 20  1  0
 16 17  1  0
 17 18  2  0
 18 19  1  0
 19 20  2  0
 20 21  1  0
 21 22  1  0
 22 23  1  1
 22 24  1  0
 24 25  2  0
 24 26  1  0
 26 27  1  0
 26 33  1  0
 28 27  1  1
 28 29  1  0
 28 32  1  0
 30 29  1  6
 30 31  2  0
 30 32  1  0
 32 33  1  1
 33 34  1  6
 34 35  2  0
 34 36  1  0
 37 38  1  0
 37 40  1  0
 38 39  1  0
 40 41  2  0
 41 42  1  0
M  END
