
     RDKit          3D

 42 46  0  0  0  0  0  0  0  0999 V2000
   -5.7150   -1.8760   -0.4280 C   0  0  0  0  0  0  0  0  0  0  0  0
   -5.0650   -1.1930    0.6750 O   0  0  0  0  0  0  0  0  0  0  0  0
   -5.6380    0.0300    0.9820 C   0  0  0  0  0  0  0  0  0  0  0  0
   -6.8080   -0.0710    1.7580 C   0  0  0  0  0  0  0  0  0  0  0  0
   -7.2880   -1.3150    2.1510 O   0  0  0  0  0  0  0  0  0  0  0  0
   -7.4820    1.0520    2.1310 C   0  0  0  0  0  0  0  0  0  0  0  0
   -7.0010    2.2710    1.7380 C   0  0  0  0  0  0  0  0  0  0  0  0
   -5.8710    2.3560    0.9920 C   0  0  0  0  0  0  0  0  0  0  0  0
   -5.1220    1.2100    0.5750 C   0  0  0  0  0  0  0  0  0  0  0  0
   -3.9820    1.7640   -0.0780 C   0  0  1  0  0  0  0  0  0  0  0  0
   -3.0380    1.2280   -1.0070 C   0  0  0  0  0  0  0  0  0  0  0  0
   -2.1950    0.1150   -0.6840 N   0  0  0  0  0  0  0  0  0  0  0  0
   -2.3860   -1.2170   -1.1900 C   0  0  0  0  0  0  0  0  0  0  0  0
   -1.6350   -1.4850   -2.4910 C   0  0  1  0  0  0  0  0  0  0  0  0
   -1.8840   -2.8300   -2.8210 O   0  0  0  0  0  0  0  0  0  0  0  0
   -2.1400   -0.6790   -3.6440 C   0  0  0  0  0  0  0  0  0  0  0  0
   -3.4980   -0.9540   -3.8240 O   0  0  0  0  0  0  0  0  0  0  0  0
   -1.0340    0.3870    0.1460 C   0  0  0  0  0  0  0  0  0  0  0  0
   -0.8200    1.5620    0.5170 O   0  0  0  0  0  0  0  0  0  0  0  0
   -0.1080   -0.6730    0.5620 C   0  0  0  0  0  0  0  0  0  0  0  0
    0.9700   -0.1430    1.4020 N   0  0  0  0  0  0  0  0  0  0  0  0
    2.1660    0.3260    0.8260 C   0  0  0  0  0  0  0  0  0  0  0  0
    3.0770    0.7680    1.5530 O   0  0  0  0  0  0  0  0  0  0  0  0
    2.3960    0.3210   -0.6320 C   0  0  0  0  0  0  0  0  0  0  0  0
    3.7060    0.8680   -1.0740 C   0  0  0  0  0  0  0  0  0  0  0  0
    4.9240    0.1750   -0.5850 C   0  0  1  0  0  0  0  0  0  0  0  0
    4.9880   -1.2780   -1.0040 C   0  0  0  0  0  0  0  0  0  0  0  0
    6.3070   -1.7780   -0.9170 O   0  0  0  0  0  0  0  0  0  0  0  0
    7.4250   -1.0230   -1.2020 C   0  0  0  0  0  0  0  0  0  0  0  0
    8.6750   -1.5790   -1.3850 C   0  0  0  0  0  0  0  0  0  0  0  0
    9.7770   -0.8080   -1.6690 C   0  0  0  0  0  0  0  0  0  0  0  0
    9.6420    0.5600   -1.7750 C   0  0  0  0  0  0  0  0  0  0  0  0
    8.4020    1.1140   -1.5930 C   0  0  0  0  0  0  0  0  0  0  0  0
    7.2940    0.3410   -1.3090 C   0  0  0  0  0  0  0  0  0  0  0  0
    6.0410    0.8980   -1.1250 O   0  0  0  0  0  0  0  0  0  0  0  0
    0.7720   -0.1130    2.8350 C   0  0  1  0  0  0  0  0  0  0  0  0
    1.8090   -0.9250    3.5120 C   0  0  0  0  0  0  0  0  0  0  0  0
    1.7050   -0.6980    4.9990 C   0  0  0  0  0  0  0  0  0  0  0  0
    1.2040    1.0470    5.0870 S   0  0  0  0  0  0  0  0  0  0  0  0
    0.8240    1.3040    3.3070 C   0  0  0  0  0  0  0  0  0  0  0  0
   -4.6130    3.0520   -0.7180 C   0  0  0  0  0  0  0  0  0  0  0  0
   -5.2280    3.5140    0.4870 O   0  0  0  0  0  0  0  0  0  0  0  0
  1  2  1  0
  2  3  1  0
  3  4  2  0
  3  9  1  0
  4  5  1  0
  4  6  1  0
  6  7  2  0
  7  8  1  0
  8  9  2  0
  8 42  1  0
  9 10  1  0
 10 11  1  6
 10 41  1  0
 11 12  1  0
 12 13  1  0
 12 18  1  0
 13 14  1  0
 14 15  1  6
 14 16  1  0
 16 17  1  0
 18 19  2  0
 18 20  1  0
 20 21  1  0
 21 22  1  0
 36 21  1  6
 22 23  2  0
 22 24  1  0
 24 25  1  0
 26 25  1  6
 26 27  1  0
 26 35  1  0
 27 28  1  0
 28 29  1  0
 29 30  2  0
 29 34  1  0
 30 31  1  0
 31 32  2  0
 32 33  1  0
 33 34  2  0
 34 35  1  0
 36 37  1  0
 36 40  1  0
 37 38  1  0
 38 39  1  0
 39 40  1  0
 41 42  1  0
M  END
