
     RDKit          3D

 42 45  0  0  0  0  0  0  0  0999 V2000
   -7.6430    2.0260    0.4310 C   0  0  0  0  0  0  0  0  0  0  0  0
   -7.4370    1.4670   -0.9370 C   0  0  0  0  0  0  0  0  0  0  0  0
   -6.0530    1.6970   -1.4800 C   0  0  1  0  0  0  0  0  0  0  0  0
   -5.6730    3.1250   -1.5960 C   0  0  0  0  0  0  0  0  0  0  0  0
   -4.6090    3.3920   -0.5830 C   0  0  0  0  0  0  0  0  0  0  0  0
   -4.1550    2.0460   -0.1170 C   0  0  0  0  0  0  0  0  0  0  0  0
   -3.1070    1.6850    0.6890 C   0  0  0  0  0  0  0  0  0  0  0  0
   -2.8930    0.3590    0.9740 C   0  0  0  0  0  0  0  0  0  0  0  0
   -3.7190   -0.6660    0.4660 C   0  0  0  0  0  0  0  0  0  0  0  0
   -3.4350   -2.0560    0.7590 C   0  0  0  0  0  0  0  0  0  0  0  0
   -4.0930   -3.1310    0.5380 C   0  0  0  0  0  0  0  0  0  0  0  0
   -5.3740   -3.4700   -0.0770 C   0  0  1  0  0  0  0  0  0  0  0  0
   -6.4800   -2.8710    0.4810 F   0  0  0  0  0  0  0  0  0  0  0  0
   -5.2870   -3.4140   -1.4350 F   0  0  0  0  0  0  0  0  0  0  0  0
   -2.0830   -2.2640    1.4380 C   0  0  0  0  0  0  0  0  0  0  0  0
   -0.9940   -1.7940    0.5500 C   0  0  0  0  0  0  0  0  0  0  0  0
   -1.2950   -1.3310   -0.5490 O   0  0  0  0  0  0  0  0  0  0  0  0
    0.3470   -1.8890    0.9820 N   0  0  0  0  0  0  0  0  0  0  0  0
    1.4860   -1.4720    0.2380 C   0  0  0  0  0  0  0  0  0  0  0  0
    1.4640   -0.7600   -0.9200 C   0  0  0  0  0  0  0  0  0  0  0  0
    2.6070   -0.3380   -1.5740 C   0  0  0  0  0  0  0  0  0  0  0  0
    3.8620   -0.6280   -1.0700 C   0  0  0  0  0  0  0  0  0  0  0  0
    5.0110   -0.2080   -1.7230 O   0  0  0  0  0  0  0  0  0  0  0  0
    5.5950    1.0320   -1.6230 C   0  0  0  0  0  0  0  0  0  0  0  0
    5.7290    1.8110   -2.7780 C   0  0  0  0  0  0  0  0  0  0  0  0
    6.2950    3.0590   -2.7940 C   0  0  0  0  0  0  0  0  0  0  0  0
    6.4110    3.8360   -4.0320 C   0  0  0  0  0  0  0  0  0  0  0  0
    5.9780    3.3400   -5.0940 O   0  0  0  0  0  0  0  0  0  0  0  0
    6.7550    3.5590   -1.5910 C   0  0  0  0  0  0  0  0  0  0  0  0
    6.6360    2.8130   -0.4400 C   0  0  0  0  0  0  0  0  0  0  0  0
    6.0560    1.5400   -0.4360 C   0  0  0  0  0  0  0  0  0  0  0  0
    5.9650    0.8450    0.7440 O   0  0  0  0  0  0  0  0  0  0  0  0
    6.4530    1.4040    1.9420 C   0  0  0  0  0  0  0  0  0  0  0  0
    3.9120   -1.3440    0.0910 C   0  0  0  0  0  0  0  0  0  0  0  0
    2.7550   -1.7670    0.7470 C   0  0  0  0  0  0  0  0  0  0  0  0
    2.9720   -2.5710    1.9690 C   0  0  2  0  0  0  0  0  0  0  0  0
    4.4070   -2.4250    2.4750 C   0  0  0  0  0  0  0  0  0  0  0  0
    2.8320   -4.0370    1.6670 C   0  0  0  0  0  0  0  0  0  0  0  0
    1.6570   -4.5840    1.1120 N   0  0  0  0  0  0  0  0  0  0  0  0
    3.7700   -4.8650    1.8960 O   0  0  0  0  0  0  0  0  0  0  0  0
   -4.7480   -0.2560   -0.3300 C   0  0  0  0  0  0  0  0  0  0  0  0
   -5.0030    1.0980   -0.6490 C   0  0  0  0  0  0  0  0  0  0  0  0
  1  2  1  0
  3  2  1  1
  3  4  1  0
  3 42  1  0
  4  5  1  0
  5  6  1  0
  6  7  2  0
  6 42  1  0
  7  8  1  0
  8  9  2  0
  9 10  1  0
  9 41  1  0
 10 11  2  3
 10 15  1  0
 11 12  1  0
 12 13  1  1
 12 14  1  0
 15 16  1  0
 16 17  2  0
 16 18  1  0
 18 19  1  0
 19 20  2  0
 19 35  1  0
 20 21  1  0
 21 22  2  0
 22 23  1  0
 22 34  1  0
 23 24  1  0
 24 25  2  0
 24 31  1  0
 25 26  1  0
 26 27  1  0
 26 29  2  0
 27 28  2  0
 29 30  1  0
 30 31  2  0
 31 32  1  0
 32 33  1  0
 34 35  2  0
 35 36  1  0
 36 37  1  6
 36 38  1  0
 38 39  1  0
 38 40  2  0
 41 42  2  0
M  END
