
     RDKit          3D

 41 45  0  0  0  0  0  0  0  0999 V2000
    2.2490    7.9650    3.4720 C   0  0  0  0  0  0  0  0  0  0  0  0
    1.9820    6.5220    3.6300 C   0  0  0  0  0  0  0  0  0  0  0  0
    1.7400    5.7100    2.6030 C   0  0  0  0  0  0  0  0  0  0  0  0
    1.4900    4.3250    2.8240 C   0  0  0  0  0  0  0  0  0  0  0  0
    1.2410    3.4780    1.8370 C   0  0  0  0  0  0  0  0  0  0  0  0
    0.9890    2.1340    1.9250 O   0  0  0  0  0  0  0  0  0  0  0  0
    0.7740    1.6020    0.6110 C   0  0  0  0  0  0  0  0  0  0  0  0
    0.4710    0.1600    0.4370 C   0  0  0  0  0  0  0  0  0  0  0  0
   -0.7300   -0.1790    1.1690 O   0  0  0  0  0  0  0  0  0  0  0  0
   -1.9330    0.4650    0.8470 C   0  0  0  0  0  0  0  0  0  0  0  0
   -1.8980    1.3130   -0.0650 O   0  0  0  0  0  0  0  0  0  0  0  0
   -3.1430    0.1150    1.5790 C   0  0  0  0  0  0  0  0  0  0  0  0
   -3.2490   -0.8050    2.5870 C   0  0  0  0  0  0  0  0  0  0  0  0
   -4.5790   -0.7990    2.9730 C   0  0  0  0  0  0  0  0  0  0  0  0
   -5.2270    0.1200    2.1880 C   0  0  0  0  0  0  0  0  0  0  0  0
   -6.6600    0.4550    2.2530 C   0  0  0  0  0  0  0  0  0  0  0  0
   -7.4180   -0.2030    1.2880 O   0  0  0  0  0  0  0  0  0  0  0  0
   -7.3620   -1.5700    1.3660 C   0  0  2  0  0  0  0  0  0  0  0  0
   -7.0430   -2.2290    0.0140 C   0  0  0  0  0  0  0  0  0  0  0  0
   -7.3420   -3.6790    0.3670 C   0  0  0  0  0  0  0  0  0  0  0  0
   -8.3330   -3.5090    1.5090 C   0  0  0  0  0  0  0  0  0  0  0  0
   -8.6440   -2.1400    1.5610 O   0  0  0  0  0  0  0  0  0  0  0  0
   -4.3370    0.6280    1.3860 O   0  0  0  0  0  0  0  0  0  0  0  0
    0.8770    2.5290   -0.2870 C   0  0  0  0  0  0  0  0  0  0  0  0
    0.7680    2.5770   -1.7610 C   0  0  0  0  0  0  0  0  0  0  0  0
    0.5890    1.0170   -2.5510 S   0  0  0  0  0  0  0  0  0  0  0  0
    2.1480    0.0950   -2.4890 C   0  0  0  0  0  0  0  0  0  0  0  0
    2.1720   -1.1760   -2.9790 N   0  0  0  0  0  0  0  0  0  0  0  0
    3.2830   -1.9170   -2.9510 C   0  0  0  0  0  0  0  0  0  0  0  0
    4.4300   -1.3980   -2.4200 C   0  0  0  0  0  0  0  0  0  0  0  0
    4.3920   -0.0960   -1.9220 C   0  0  0  0  0  0  0  0  0  0  0  0
    5.4430    0.3650   -1.4420 O   0  0  0  0  0  0  0  0  0  0  0  0
    3.2580    0.6280   -1.9630 N   0  0  0  0  0  0  0  0  0  0  0  0
    5.7020   -2.1540   -2.3520 C   0  0  0  0  0  0  0  0  0  0  0  0
    5.7750   -3.3240   -3.2820 C   0  0  2  0  0  0  0  0  0  0  0  0
    6.9880   -3.2580   -4.0110 O   0  0  0  0  0  0  0  0  0  0  0  0
    7.7600   -4.3500   -3.6520 C   0  0  0  0  0  0  0  0  0  0  0  0
    4.6170   -3.4730   -4.2250 C   0  0  0  0  0  0  0  0  0  0  0  0
    3.3270   -3.2990   -3.4700 C   0  0  0  0  0  0  0  0  0  0  0  0
    1.1860    3.8060    0.4420 C   0  0  0  0  0  0  0  0  0  0  0  0
    1.3450    4.8940   -0.1630 O   0  0  0  0  0  0  0  0  0  0  0  0
  1  2  1  0
  2  3  2  3
  3  4  1  0
  4  5  2  3
  5  6  1  0
  5 40  1  0
  6  7  1  0
  7  8  1  0
  7 24  2  0
  8  9  1  0
  9 10  1  0
 10 11  2  0
 10 12  1  0
 12 13  2  0
 12 23  1  0
 13 14  1  0
 14 15  2  0
 15 16  1  0
 15 23  1  0
 16 17  1  0
 18 17  1  6
 18 19  1  0
 18 22  1  0
 19 20  1  0
 20 21  1  0
 21 22  1  0
 24 25  1  0
 24 40  1  0
 25 26  1  0
 26 27  1  0
 27 28  2  0
 27 33  1  0
 28 29  1  0
 29 30  2  0
 29 39  1  0
 30 31  1  0
 30 34  1  0
 31 32  2  0
 31 33  1  0
 34 35  1  0
 35 36  1  6
 35 38  1  0
 36 37  1  0
 38 39  1  0
 40 41  2  0
M  END
