
     RDKit          3D

 41 44  0  0  0  0  0  0  0  0999 V2000
   -0.6290    2.7940   -1.9690 C   0  0  0  0  0  0  0  0  0  0  0  0
    0.6330    2.4190   -1.8290 C   0  0  0  0  0  0  0  0  0  0  0  0
    1.1800    1.3510   -2.6560 C   0  0  0  0  0  0  0  0  0  0  0  0
    1.7050    0.2050   -1.9170 N   0  0  0  0  0  0  0  0  0  0  0  0
    0.8240   -0.8600   -1.6440 C   0  0  0  0  0  0  0  0  0  0  0  0
    1.2280   -1.9260   -1.0440 O   0  0  0  0  0  0  0  0  0  0  0  0
   -0.5830   -0.9190   -1.9820 C   0  0  0  0  0  0  0  0  0  0  0  0
   -0.9580   -1.1770   -3.2880 C   0  0  0  0  0  0  0  0  0  0  0  0
   -2.2880   -1.2180   -3.5890 C   0  0  0  0  0  0  0  0  0  0  0  0
   -3.2260   -1.0130   -2.6430 N   0  0  0  0  0  0  0  0  0  0  0  0
   -2.9210   -0.7610   -1.3650 C   0  0  0  0  0  0  0  0  0  0  0  0
   -3.8870   -0.5650   -0.4070 O   0  0  0  0  0  0  0  0  0  0  0  0
   -5.2850   -0.5970   -0.6350 C   0  0  1  0  0  0  0  0  0  0  0  0
   -5.7810   -2.0450   -0.5200 C   0  0  0  0  0  0  0  0  0  0  0  0
   -7.0790   -2.0350    0.2350 C   0  0  0  0  0  0  0  0  0  0  0  0
   -7.9250   -1.0910   -0.3140 O   0  0  0  0  0  0  0  0  0  0  0  0
   -7.5380    0.2110    0.0490 C   0  0  2  0  0  0  0  0  0  0  0  0
   -8.2590    0.5240    1.3480 C   0  0  0  0  0  0  0  0  0  0  0  0
   -7.9780    1.8020    1.8220 O   0  0  0  0  0  0  0  0  0  0  0  0
   -7.9960    1.1790   -0.9900 C   0  0  0  0  0  0  0  0  0  0  0  0
   -9.3930    1.1440   -1.1290 O   0  0  0  0  0  0  0  0  0  0  0  0
   -6.0510    0.2670    0.3040 C   0  0  0  0  0  0  0  0  0  0  0  0
   -1.5610   -0.7140   -1.0370 C   0  0  0  0  0  0  0  0  0  0  0  0
   -1.2600   -0.4490    0.2930 O   0  0  0  0  0  0  0  0  0  0  0  0
   -1.1030    0.8190    0.8320 C   0  0  0  0  0  0  0  0  0  0  0  0
    3.0600    0.2920   -1.5080 C   0  0  2  0  0  0  0  0  0  0  0  0
    3.9560   -0.8730   -1.5110 C   0  0  0  0  0  0  0  0  0  0  0  0
    4.7370   -0.1620   -0.3870 C   0  0  2  0  0  0  0  0  0  0  0  0
    5.2220   -1.0120    0.6080 O   0  0  0  0  0  0  0  0  0  0  0  0
    6.5250   -0.8630    1.0590 C   0  0  0  0  0  0  0  0  0  0  0  0
    7.2120    0.0630    0.5090 O   0  0  0  0  0  0  0  0  0  0  0  0
    7.1240   -1.7070    2.1180 C   0  0  0  0  0  0  0  0  0  0  0  0
    8.5810   -1.2360    2.3480 C   0  0  0  0  0  0  0  0  0  0  0  0
    8.9160   -0.1760    3.0560 C   0  0  0  0  0  0  0  0  0  0  0  0
   10.2620    0.1710    3.2370 C   0  0  0  0  0  0  0  0  0  0  0  0
   11.0940   -1.1550    2.2990 S   0  0  0  0  0  0  0  0  0  0  0  0
    9.5850   -2.0370    1.7610 C   0  0  0  0  0  0  0  0  0  0  0  0
    3.3700    0.4590   -0.0280 C   0  0  1  0  0  0  0  0  0  0  0  0
    3.5100    1.9030    0.4180 C   0  0  0  0  0  0  0  0  0  0  0  0
    2.6810   -0.3800    0.9680 C   0  0  0  0  0  0  0  0  0  0  0  0
    3.2040    0.0440    2.3570 C   0  0  0  0  0  0  0  0  0  0  0  0
  1  2  2  0
  2  3  1  0
  3  4  1  0
  4  5  1  0
 26  4  1  1
  5  6  2  0
  5  7  1  0
  7  8  2  0
  7 23  1  0
  8  9  1  0
  9 10  2  0
 10 11  1  0
 11 12  1  0
 11 23  2  0
 13 12  1  1
 13 14  1  0
 13 22  1  0
 14 15  1  0
 15 16  1  0
 16 17  1  0
 17 18  1  1
 17 20  1  0
 17 22  1  0
 18 19  1  0
 20 21  1  0
 23 24  1  0
 24 25  1  0
 26 27  1  0
 26 38  1  0
 27 28  1  0
 28 29  1  1
 28 38  1  0
 29 30  1  0
 30 31  2  0
 30 32  1  0
 32 33  1  0
 33 34  1  0
 33 37  2  0
 34 35  2  0
 35 36  1  0
 36 37  1  0
 38 39  1  1
 38 40  1  0
 40 41  1  0
M  END
