
     RDKit          3D

 43 45  0  0  0  0  0  0  0  0999 V2000
    7.7680    1.0200    0.1790 C   0  0  0  0  0  0  0  0  0  0  0  0
    6.7830    0.2170    1.0270 C   0  0  0  0  0  0  0  0  0  0  0  0
    5.9590   -0.6330    0.2050 N   0  0  0  0  0  0  0  0  0  0  0  0
    6.2340   -2.0130   -0.2030 C   0  0  0  0  0  0  0  0  0  0  0  0
    4.8450   -2.5970   -0.1860 C   0  0  0  0  0  0  0  0  0  0  0  0
    3.9550   -1.5100   -0.6060 N   0  0  0  0  0  0  0  0  0  0  0  0
    2.6840   -1.6960   -1.0890 O   0  0  0  0  0  0  0  0  0  0  0  0
    1.5940   -0.9600   -0.5400 C   0  0  0  0  0  0  0  0  0  0  0  0
    1.9520   -0.1860    0.3690 O   0  0  0  0  0  0  0  0  0  0  0  0
    0.3090   -1.1100   -0.9860 N   0  0  0  0  0  0  0  0  0  0  0  0
    0.0640   -2.1520   -2.0060 C   0  0  0  0  0  0  0  0  0  0  0  0
   -0.8760   -3.2030   -1.4340 C   0  0  0  0  0  0  0  0  0  0  0  0
   -1.7010   -2.7390   -0.3590 N   0  0  0  0  0  0  0  0  0  0  0  0
   -1.5770   -1.4480    0.2720 C   0  0  0  0  0  0  0  0  0  0  0  0
   -2.0240   -1.2200    1.3950 O   0  0  0  0  0  0  0  0  0  0  0  0
   -0.8700   -0.4410   -0.5450 C   0  0  1  0  0  0  0  0  0  0  0  0
   -0.5740    0.8490    0.0860 C   0  0  0  0  0  0  0  0  0  0  0  0
    0.5070    1.4410   -0.1680 O   0  0  0  0  0  0  0  0  0  0  0  0
   -1.4910    1.4650    0.9920 N   0  0  0  0  0  0  0  0  0  0  0  0
   -1.2960    2.6900    1.6570 C   0  0  0  0  0  0  0  0  0  0  0  0
   -2.4000    3.2040    2.3540 C   0  0  0  0  0  0  0  0  0  0  0  0
   -2.3610    4.3790    3.0580 C   0  0  0  0  0  0  0  0  0  0  0  0
   -1.1820    5.1080    3.0920 C   0  0  0  0  0  0  0  0  0  0  0  0
   -0.0920    4.6260    2.4190 C   0  0  0  0  0  0  0  0  0  0  0  0
   -0.1660    3.4260    1.7130 C   0  0  0  0  0  0  0  0  0  0  0  0
   -1.8060   -0.1440   -1.7500 C   0  0  2  0  0  0  0  0  0  0  0  0
   -1.2540    0.7680   -2.7150 C   0  0  0  0  0  0  0  0  0  0  0  0
   -2.0120    1.7090   -3.1460 O   0  0  0  0  0  0  0  0  0  0  0  0
    0.0050    0.7350   -3.2230 O   0  0  0  0  0  0  0  0  0  0  0  0
    0.5360    1.6410   -4.1750 C   0  0  0  0  0  0  0  0  0  0  0  0
   -3.1090    0.2500   -1.1650 C   0  0  0  0  0  0  0  0  0  0  0  0
   -3.6140    1.3860   -1.2650 O   0  0  0  0  0  0  0  0  0  0  0  0
   -3.8070   -0.7190   -0.4600 O   0  0  0  0  0  0  0  0  0  0  0  0
   -5.0290   -0.5240    0.1500 C   0  0  0  0  0  0  0  0  0  0  0  0
   -5.5390    0.6240    0.0530 O   0  0  0  0  0  0  0  0  0  0  0  0
   -5.6700   -1.6090    0.8620 C   0  0  0  0  0  0  0  0  0  0  0  0
   -5.1320   -2.7340    0.9280 O   0  0  0  0  0  0  0  0  0  0  0  0
   -6.9180   -1.4030    1.4910 N   0  0  0  0  0  0  0  0  0  0  0  0
   -7.5960   -2.4450    2.1940 C   0  0  0  0  0  0  0  0  0  0  0  0
   -7.0380   -3.5830    2.2500 O   0  0  0  0  0  0  0  0  0  0  0  0
   -8.8250   -2.1870    2.7870 O   0  0  0  0  0  0  0  0  0  0  0  0
    4.6930   -0.3250   -0.3960 C   0  0  0  0  0  0  0  0  0  0  0  0
    4.2970    0.8260   -0.6910 O   0  0  0  0  0  0  0  0  0  0  0  0
  1  2  1  0
  2  3  1  0
  3  4  1  0
  3 42  1  0
  4  5  1  0
  5  6  1  0
  6  7  1  0
  6 42  1  0
  7  8  1  0
  8  9  2  0
  8 10  1  0
 10 11  1  0
 10 16  1  0
 11 12  1  0
 12 13  1  0
 13 14  1  0
 14 15  2  0
 14 16  1  0
 16 17  1  1
 16 26  1  0
 17 18  2  0
 17 19  1  0
 19 20  1  0
 20 21  2  0
 20 25  1  0
 21 22  1  0
 22 23  2  0
 23 24  1  0
 24 25  2  0
 26 27  1  1
 26 31  1  0
 27 28  2  0
 27 29  1  0
 29 30  1  0
 31 32  2  0
 31 33  1  0
 33 34  1  0
 34 35  2  0
 34 36  1  0
 36 37  2  0
 36 38  1  0
 38 39  1  0
 39 40  2  0
 39 41  1  0
 42 43  2  0
M  END
