
     RDKit          3D

 43 45  0  0  0  0  0  0  0  0999 V2000
    1.5510   -2.3830    0.4430 C   0  0  0  0  0  0  0  0  0  0  0  0
    1.0120   -2.0860   -0.9150 C   0  0  1  0  0  0  0  0  0  0  0  0
    2.0250   -2.2760   -2.0320 C   0  0  0  0  0  0  0  0  0  0  0  0
    3.4440   -2.2380   -1.6350 C   0  0  0  0  0  0  0  0  0  0  0  0
    3.9680   -0.8870   -1.3600 N   0  0  0  0  0  0  0  0  0  0  0  0
    5.3580   -0.6780   -1.4990 C   0  0  0  0  0  0  0  0  0  0  0  0
    6.2730   -0.9300   -0.3970 C   0  0  0  0  0  0  0  0  0  0  0  0
    6.0960   -0.1400    0.8680 C   0  0  0  0  0  0  0  0  0  0  0  0
    6.2420    1.2230    0.7240 O   0  0  0  0  0  0  0  0  0  0  0  0
    6.0670    1.7880    1.8770 O   0  0  0  0  0  0  0  0  0  0  0  0
    3.2040    0.2580   -0.9440 C   0  0  0  0  0  0  0  0  0  0  0  0
    3.7590    1.3690   -0.9920 O   0  0  0  0  0  0  0  0  0  0  0  0
    1.8050    0.2850   -0.4560 N   0  0  0  0  0  0  0  0  0  0  0  0
    1.7290    1.2720    0.5880 C   0  0  0  0  0  0  0  0  0  0  0  0
    1.1780    2.6170    0.2120 C   0  0  2  0  0  0  0  0  0  0  0  0
    2.1660    3.6150    0.2780 N   0  0  0  0  0  0  0  0  0  0  0  0
    2.5860    4.3810   -0.8530 C   0  0  0  0  0  0  0  0  0  0  0  0
    2.0260    4.1190   -1.9270 O   0  0  0  0  0  0  0  0  0  0  0  0
    3.5690    5.3440   -0.6870 O   0  0  0  0  0  0  0  0  0  0  0  0
   -0.0830    2.8690    0.9800 C   0  0  0  0  0  0  0  0  0  0  0  0
   -1.1330    3.5940    0.1460 C   0  0  0  0  0  0  0  0  0  0  0  0
   -2.5340    3.1750    0.5560 C   0  0  0  0  0  0  0  0  0  0  0  0
   -2.5200    1.8380    0.9340 O   0  0  0  0  0  0  0  0  0  0  0  0
   -3.6250    1.6580    1.7870 C   0  0  0  0  0  0  0  0  0  0  0  0
   -4.8610    1.5140    0.9340 C   0  0  0  0  0  0  0  0  0  0  0  0
   -5.8690    0.6990    1.5480 N   0  0  0  0  0  0  0  0  0  0  0  0
   -6.1620   -0.6390    1.1160 C   0  0  0  0  0  0  0  0  0  0  0  0
   -7.3420   -1.1170    1.2340 O   0  0  0  0  0  0  0  0  0  0  0  0
   -5.1640   -1.5160    0.5320 C   0  0  0  0  0  0  0  0  0  0  0  0
   -3.9030   -1.4960    0.9480 O   0  0  0  0  0  0  0  0  0  0  0  0
   -3.2370   -2.3640    0.2680 N   0  0  0  0  0  0  0  0  0  0  0  0
   -4.0270   -2.9910   -0.6200 C   0  0  0  0  0  0  0  0  0  0  0  0
   -3.7440   -3.8930   -1.4560 O   0  0  0  0  0  0  0  0  0  0  0  0
   -5.3100   -2.4520   -0.4710 C   0  0  0  0  0  0  0  0  0  0  0  0
   -6.4760   -2.8190   -1.2110 N   0  0  0  0  0  0  0  0  0  0  0  0
   -7.3530   -3.8510   -0.7910 C   0  0  0  0  0  0  0  0  0  0  0  0
   -7.0740   -4.4520    0.2760 O   0  0  0  0  0  0  0  0  0  0  0  0
   -1.8260   -2.4990    0.5730 C   0  0  0  0  0  0  0  0  0  0  0  0
   -1.0970   -3.3220   -0.4250 C   0  0  0  0  0  0  0  0  0  0  0  0
   -1.4110   -4.5530   -0.4510 O   0  0  0  0  0  0  0  0  0  0  0  0
   -0.1690   -2.7400   -1.2280 O   0  0  0  0  0  0  0  0  0  0  0  0
    0.8140   -0.5670   -0.9650 C   0  0  0  0  0  0  0  0  0  0  0  0
   -0.2880   -0.3290   -1.5000 O   0  0  0  0  0  0  0  0  0  0  0  0
  2  1  1  1
  2  3  1  0
  2 41  1  0
  2 42  1  0
  3  4  1  0
  4  5  1  0
  5  6  1  0
  5 11  1  0
  6  7  1  0
  7  8  1  0
  8  9  1  0
  9 10  1  0
 11 12  2  0
 11 13  1  0
 13 14  1  0
 13 42  1  0
 14 15  1  0
 15 16  1  1
 15 20  1  0
 16 17  1  0
 17 18  2  0
 17 19  1  0
 20 21  1  0
 21 22  1  0
 22 23  1  0
 23 24  1  0
 24 25  1  0
 25 26  1  0
 26 27  1  0
 27 28  2  0
 27 29  1  0
 29 30  1  0
 29 34  2  0
 30 31  1  0
 31 32  1  0
 31 38  1  0
 32 33  2  0
 32 34  1  0
 34 35  1  0
 35 36  1  0
 36 37  2  0
 38 39  1  0
 39 40  2  0
 39 41  1  0
 42 43  2  0
M  END
