
     RDKit          3D

 43 46  0  0  0  0  0  0  0  0999 V2000
   -7.1200   -1.9880   -1.2860 C   0  0  0  0  0  0  0  0  0  0  0  0
   -6.5030   -2.1550   -0.0420 O   0  0  0  0  0  0  0  0  0  0  0  0
   -5.3450   -2.6170    0.2340 N   0  0  0  0  0  0  0  0  0  0  0  0
   -4.5460   -3.3950    0.6900 C   0  0  0  0  0  0  0  0  0  0  0  0
   -3.0680   -3.2280    0.6060 C   0  0  0  0  0  0  0  0  0  0  0  0
   -2.4880   -2.2280    0.0150 C   0  0  0  0  0  0  0  0  0  0  0  0
   -3.3010   -1.2010   -0.6080 C   0  0  0  0  0  0  0  0  0  0  0  0
   -3.0970    0.1180   -0.4790 C   0  0  0  0  0  0  0  0  0  0  0  0
   -2.0430    0.6360    0.2960 O   0  0  0  0  0  0  0  0  0  0  0  0
   -1.7630    1.9390   -0.2430 C   0  0  2  0  0  0  0  0  0  0  0  0
   -1.0980    2.8600    0.7030 C   0  0  0  0  0  0  0  0  0  0  0  0
   -0.1090    3.7930    0.0390 C   0  0  0  0  0  0  0  0  0  0  0  0
    1.3000    3.5080    0.5680 C   0  0  0  0  0  0  0  0  0  0  0  0
    2.2210    3.8310   -0.4990 N   0  0  0  0  0  0  0  0  0  0  0  0
    3.2310    2.9800   -1.0100 C   0  0  0  0  0  0  0  0  0  0  0  0
    4.3790    3.5420   -1.1590 O   0  0  0  0  0  0  0  0  0  0  0  0
    3.0800    1.6580   -1.3440 O   0  0  0  0  0  0  0  0  0  0  0  0
    2.7130    0.5730   -0.5670 C   0  0  1  0  0  0  0  0  0  0  0  0
    1.4270    0.1690   -0.9190 O   0  0  0  0  0  0  0  0  0  0  0  0
    0.8650   -0.7610   -0.0860 C   0  0  2  0  0  0  0  0  0  0  0  0
    1.8750   -1.8250    0.3320 C   0  0  0  0  0  0  0  0  0  0  0  0
    2.9600   -1.9300   -0.7040 C   0  0  0  0  0  0  0  0  0  0  0  0
    3.6360   -0.5950   -0.9500 C   0  0  2  0  0  0  0  0  0  0  0  0
    4.8800   -0.4910   -0.2530 N   0  0  0  0  0  0  0  0  0  0  0  0
    5.1150   -0.5000    1.1870 C   0  0  0  0  0  0  0  0  0  0  0  0
    6.3450    0.4020    1.2880 C   0  0  0  0  0  0  0  0  0  0  0  0
    7.1300   -0.1400    0.1680 N   0  0  0  0  0  0  0  0  0  0  0  0
    8.5260   -0.3810    0.1470 C   0  0  0  0  0  0  0  0  0  0  0  0
    9.0010   -1.5580   -0.0530 N   0  0  0  0  0  0  0  0  0  0  0  0
    6.1580   -0.3520   -0.8520 C   0  0  0  0  0  0  0  0  0  0  0  0
    6.4530   -0.4000   -2.0920 O   0  0  0  0  0  0  0  0  0  0  0  0
   -0.2450   -1.4830   -0.8200 C   0  0  0  0  0  0  0  0  0  0  0  0
   -1.1040   -2.1830    0.0060 O   0  0  0  0  0  0  0  0  0  0  0  0
   -3.1090    2.4550   -0.5290 N   0  0  0  0  0  0  0  0  0  0  0  0
   -3.5350    3.8000   -0.3450 C   0  0  0  0  0  0  0  0  0  0  0  0
   -4.0790    4.0610    0.9150 O   0  0  0  0  0  0  0  0  0  0  0  0
   -5.1290    3.3100    1.1360 O   0  0  0  0  0  0  0  0  0  0  0  0
   -3.7850    1.2940   -1.0090 C   0  0  0  0  0  0  0  0  0  0  0  0
   -4.7950    1.3410   -1.7580 O   0  0  0  0  0  0  0  0  0  0  0  0
   -4.9770   -4.5580    1.3580 O   0  0  0  0  0  0  0  0  0  0  0  0
   -6.2720   -4.9210    1.5530 C   0  0  0  0  0  0  0  0  0  0  0  0
   -7.1770   -4.2010    1.1230 O   0  0  0  0  0  0  0  0  0  0  0  0
   -6.6280   -6.1000    2.2320 O   0  0  0  0  0  0  0  0  0  0  0  0
  1  2  1  0
  2  3  1  0
  3  4  2  3
  4  5  1  0
  4 40  1  0
  5  6  2  3
  6  7  1  0
  6 33  1  0
  7  8  2  0
  8  9  1  0
  8 38  1  0
  9 10  1  0
 10 11  1  1
 10 34  1  0
 11 12  1  0
 12 13  1  0
 13 14  1  0
 14 15  1  0
 15 16  2  0
 15 17  1  0
 18 17  1  6
 18 19  1  0
 18 23  1  0
 19 20  1  0
 20 21  1  6
 20 32  1  0
 21 22  1  0
 22 23  1  0
 23 24  1  1
 24 25  1  0
 24 30  1  0
 25 26  1  0
 26 27  1  0
 27 28  1  0
 27 30  1  0
 28 29  2  0
 30 31  2  0
 32 33  1  0
 34 35  1  0
 34 38  1  0
 35 36  1  0
 36 37  1  0
 38 39  2  0
 40 41  1  0
 41 42  2  0
 41 43  1  0
M  END
