
     RDKit          3D

 43 46  0  0  0  0  0  0  0  0999 V2000
    3.1020    7.4820    0.1370 C   0  0  0  0  0  0  0  0  0  0  0  0
    2.4260    6.6220   -0.8820 C   0  0  0  0  0  0  0  0  0  0  0  0
    1.8780    5.4380   -0.2890 O   0  0  0  0  0  0  0  0  0  0  0  0
    1.2090    4.4910   -1.0140 C   0  0  0  0  0  0  0  0  0  0  0  0
    1.0830    4.6950   -2.2580 O   0  0  0  0  0  0  0  0  0  0  0  0
    0.6610    3.3410   -0.5160 O   0  0  0  0  0  0  0  0  0  0  0  0
   -0.0230    2.3930   -1.3150 C   0  0  0  0  0  0  0  0  0  0  0  0
   -0.5190    1.2260   -0.5020 C   0  0  1  0  0  0  0  0  0  0  0  0
    0.6050    0.5170    0.2200 C   0  0  0  0  0  0  0  0  0  0  0  0
    1.6110   -0.0120   -0.7430 C   0  0  0  0  0  0  0  0  0  0  0  0
    2.6550   -0.6750   -0.1170 O   0  0  0  0  0  0  0  0  0  0  0  0
    3.3840    0.0930    0.7600 C   0  0  0  0  0  0  0  0  0  0  0  0
    4.4990   -0.7710    1.3570 C   0  0  0  0  0  0  0  0  0  0  0  0
    5.2860   -1.1990    0.2540 O   0  0  0  0  0  0  0  0  0  0  0  0
    6.4090   -2.0230    0.4690 C   0  0  0  0  0  0  0  0  0  0  0  0
    6.6440   -2.3300    1.6470 O   0  0  0  0  0  0  0  0  0  0  0  0
    7.2150   -2.4700   -0.5820 N   0  0  0  0  0  0  0  0  0  0  0  0
    8.3730   -3.2950   -0.4520 C   0  0  0  0  0  0  0  0  0  0  0  0
    9.4450   -2.5930    0.3330 C   0  0  0  0  0  0  0  0  0  0  0  0
    9.1230   -2.2350    1.6170 O   0  0  0  0  0  0  0  0  0  0  0  0
   -1.5810    1.6490    0.4890 C   0  0  0  0  0  0  0  0  0  0  0  0
   -2.6490    0.5970    0.3430 N   0  0  0  0  0  0  0  0  0  0  0  0
   -3.4220    0.1690    1.3960 C   0  0  0  0  0  0  0  0  0  0  0  0
   -3.1410    0.8320    2.5210 O   0  0  0  0  0  0  0  0  0  0  0  0
   -4.4250   -0.7970    1.5540 N   0  0  0  0  0  0  0  0  0  0  0  0
   -5.0050   -0.8980    2.9100 C   0  0  0  0  0  0  0  0  0  0  0  0
   -6.4920   -1.0220    2.7550 C   0  0  0  0  0  0  0  0  0  0  0  0
   -6.8980   -2.0310    1.9020 O   0  0  0  0  0  0  0  0  0  0  0  0
   -5.8130   -2.7450    1.4360 C   0  0  0  0  0  0  0  0  0  0  0  0
   -4.9670   -1.7310    0.6000 C   0  0  1  0  0  0  0  0  0  0  0  0
   -5.9300   -1.0370   -0.2620 C   0  0  0  0  0  0  0  0  0  0  0  0
   -6.1770   -1.4430   -1.5410 O   0  0  0  0  0  0  0  0  0  0  0  0
   -5.8040   -2.4060   -2.4270 C   0  0  0  0  0  0  0  0  0  0  0  0
   -6.4070   -2.7900   -3.6060 C   0  0  0  0  0  0  0  0  0  0  0  0
   -5.6710   -3.7570   -4.0980 O   0  0  0  0  0  0  0  0  0  0  0  0
   -4.6470   -4.0170   -3.3230 N   0  0  0  0  0  0  0  0  0  0  0  0
   -4.6750   -3.2000   -2.2550 C   0  0  0  0  0  0  0  0  0  0  0  0
   -3.7270   -3.1790   -1.1850 N   0  0  0  0  0  0  0  0  0  0  0  0
   -3.8440   -2.4460    0.0080 C   0  0  0  0  0  0  0  0  0  0  0  0
   -2.7400   -2.4350    0.6560 O   0  0  0  0  0  0  0  0  0  0  0  0
   -2.5850    0.2950   -1.0320 C   0  0  0  0  0  0  0  0  0  0  0  0
   -3.4840    0.0340   -1.8480 O   0  0  0  0  0  0  0  0  0  0  0  0
   -1.1970    0.3310   -1.4370 N   0  0  0  0  0  0  0  0  0  0  0  0
  1  2  1  0
  2  3  1  0
  3  4  1  0
  4  5  2  0
  4  6  1  0
  6  7  1  0
  8  7  1  6
  8  9  1  0
  8 21  1  0
  8 43  1  0
  9 10  1  0
 10 11  1  0
 11 12  1  0
 12 13  1  0
 13 14  1  0
 14 15  1  0
 15 16  2  0
 15 17  1  0
 17 18  1  0
 18 19  1  0
 19 20  1  0
 21 22  1  0
 22 23  1  0
 22 41  1  0
 23 24  2  0
 23 25  1  0
 25 26  1  0
 25 30  1  0
 26 27  1  0
 27 28  1  0
 28 29  1  0
 30 29  1  1
 30 31  1  0
 30 39  1  0
 31 32  1  0
 32 33  1  0
 33 34  2  0
 33 37  1  0
 34 35  1  0
 35 36  1  0
 36 37  2  0
 37 38  1  0
 38 39  1  0
 39 40  2  0
 41 42  2  0
 41 43  1  0
M  END
