
     RDKit          3D

 43 47  0  0  0  0  0  0  0  0999 V2000
   -7.3120    1.2930    2.7280 O   0  0  0  0  0  0  0  0  0  0  0  0
   -6.3010    1.7090    2.2560 C   0  0  0  0  0  0  0  0  0  0  0  0
   -5.3390    0.9350    1.3640 C   0  0  0  0  0  0  0  0  0  0  0  0
   -5.9050    0.5060    0.0770 C   0  0  1  0  0  0  0  0  0  0  0  0
   -4.9370   -0.0530   -0.8290 O   0  0  0  0  0  0  0  0  0  0  0  0
   -3.5350    0.1960   -0.6600 C   0  0  0  0  0  0  0  0  0  0  0  0
   -2.8290    1.1020   -1.3690 C   0  0  0  0  0  0  0  0  0  0  0  0
   -1.5270    1.4160   -1.1450 C   0  0  0  0  0  0  0  0  0  0  0  0
   -0.8950    0.7620   -0.1640 C   0  0  0  0  0  0  0  0  0  0  0  0
    0.3870    0.9490    0.2420 N   0  0  0  0  0  0  0  0  0  0  0  0
    1.5990    1.0750   -0.6540 C   0  0  0  0  0  0  0  0  0  0  0  0
    1.5310    1.1150   -1.8510 O   0  0  0  0  0  0  0  0  0  0  0  0
    2.7480    1.1400    0.1950 N   0  0  0  0  0  0  0  0  0  0  0  0
    3.7480    0.0630   -0.7740 C   0  0  0  0  0  0  0  0  0  0  0  0
    3.3550   -0.0260   -1.8960 O   0  0  0  0  0  0  0  0  0  0  0  0
    4.8270   -0.5260   -0.0240 C   0  0  0  0  0  0  0  0  0  0  0  0
    4.6100   -1.6870    0.7620 C   0  0  0  0  0  0  0  0  0  0  0  0
    5.7930   -1.9600    1.3330 N   0  0  0  0  0  0  0  0  0  0  0  0
    6.6970   -1.0480    0.9720 N   0  0  0  0  0  0  0  0  0  0  0  0
    7.9830   -0.6480    1.1230 C   0  0  0  0  0  0  0  0  0  0  0  0
    8.1140    0.4730    0.3280 C   0  0  0  0  0  0  0  0  0  0  0  0
    9.3380    1.2180    0.1230 C   0  0  2  0  0  0  0  0  0  0  0  0
    9.8490    0.7250   -1.2540 C   0  0  0  0  0  0  0  0  0  0  0  0
   10.3050   -0.5160   -0.8890 O   0  0  0  0  0  0  0  0  0  0  0  0
   10.9450   -0.3200    0.3360 C   0  0  0  0  0  0  0  0  0  0  0  0
   10.3630    0.7840    0.9450 O   0  0  0  0  0  0  0  0  0  0  0  0
    6.9910    0.7680   -0.2310 O   0  0  0  0  0  0  0  0  0  0  0  0
    6.0760   -0.1570    0.1250 C   0  0  0  0  0  0  0  0  0  0  0  0
   -1.6060   -0.2310    0.5540 C   0  0  0  0  0  0  0  0  0  0  0  0
   -2.8810   -0.5260    0.3460 C   0  0  0  0  0  0  0  0  0  0  0  0
   -3.4180   -1.7610    0.9640 C   0  0  0  0  0  0  0  0  0  0  0  0
   -2.9610   -2.8730    0.2070 O   0  0  0  0  0  0  0  0  0  0  0  0
   -3.3780   -2.8400   -1.1150 C   0  0  0  0  0  0  0  0  0  0  0  0
   -4.8540   -3.0660   -1.3320 C   0  0  0  0  0  0  0  0  0  0  0  0
   -5.3150   -2.0810   -2.2410 O   0  0  0  0  0  0  0  0  0  0  0  0
   -6.5430   -1.4630   -2.2160 C   0  0  0  0  0  0  0  0  0  0  0  0
   -6.9850   -1.1280   -3.3730 O   0  0  0  0  0  0  0  0  0  0  0  0
   -7.3500   -1.1980   -1.0880 N   0  0  0  0  0  0  0  0  0  0  0  0
   -6.9730   -0.4760    0.0870 C   0  0  0  0  0  0  0  0  0  0  0  0
   -7.5890   -0.7490    1.1400 O   0  0  0  0  0  0  0  0  0  0  0  0
   -5.8620    3.0580    2.4120 N   0  0  0  0  0  0  0  0  0  0  0  0
   -6.6090    3.9160    3.1110 O   0  0  0  0  0  0  0  0  0  0  0  0
   -7.0670    4.7990    2.2080 O   0  0  0  0  0  0  0  0  0  0  0  0
  1  2  2  0
  2  3  1  0
  2 41  1  0
  4  3  1  1
  4  5  1  0
  4 39  1  0
  5  6  1  0
  6  7  2  0
  6 30  1  0
  7  8  1  0
  8  9  2  0
  9 10  1  0
  9 29  1  0
 10 11  1  0
 11 12  2  0
 11 13  1  0
 13 14  1  0
 14 15  2  0
 14 16  1  0
 16 17  1  0
 16 28  2  0
 17 18  2  0
 18 19  1  0
 19 20  1  0
 19 28  1  0
 20 21  2  0
 22 21  1  1
 21 27  1  0
 22 23  1  0
 22 26  1  0
 23 24  1  0
 24 25  1  0
 25 26  1  0
 27 28  1  0
 29 30  2  0
 30 31  1  0
 31 32  1  0
 32 33  1  0
 33 34  1  0
 34 35  1  0
 35 36  1  0
 36 37  2  0
 36 38  1  0
 38 39  1  0
 39 40  2  0
 41 42  1  0
 42 43  1  0
M  END
