
     RDKit          3D

 43 46  0  0  0  0  0  0  0  0999 V2000
   -8.6260    1.7170   -1.6740 C   0  0  0  0  0  0  0  0  0  0  0  0
   -9.7020    1.0760   -0.8340 C   0  0  0  0  0  0  0  0  0  0  0  0
   -9.4600   -0.3270   -0.6610 O   0  0  0  0  0  0  0  0  0  0  0  0
   -8.2750   -0.7150   -0.0410 C   0  0  0  0  0  0  0  0  0  0  0  0
   -7.4270    0.1390    0.3620 O   0  0  0  0  0  0  0  0  0  0  0  0
   -7.9500   -2.0460    0.1720 O   0  0  0  0  0  0  0  0  0  0  0  0
   -6.7470   -2.4380    0.8010 C   0  0  0  0  0  0  0  0  0  0  0  0
   -5.5710   -1.9430    0.0140 C   0  0  0  0  0  0  0  0  0  0  0  0
   -5.5430   -1.2580   -1.0740 O   0  0  0  0  0  0  0  0  0  0  0  0
   -4.2800   -1.0190   -1.4510 C   0  0  0  0  0  0  0  0  0  0  0  0
   -3.9760   -0.3550   -2.4990 N   0  0  0  0  0  0  0  0  0  0  0  0
   -3.4150   -1.5640   -0.5860 N   0  0  0  0  0  0  0  0  0  0  0  0
   -2.0590   -1.6160   -0.4990 C   0  0  0  0  0  0  0  0  0  0  0  0
   -1.2650   -1.2060   -1.4160 C   0  0  0  0  0  0  0  0  0  0  0  0
   -1.3590   -0.5990   -2.7130 C   0  0  0  0  0  0  0  0  0  0  0  0
   -1.4630   -1.2760   -3.9340 C   0  0  0  0  0  0  0  0  0  0  0  0
   -1.5180   -0.3720   -4.9040 N   0  0  0  0  0  0  0  0  0  0  0  0
   -1.4530    0.8330   -4.3240 C   0  0  0  0  0  0  0  0  0  0  0  0
   -1.3590    0.6910   -3.0350 O   0  0  0  0  0  0  0  0  0  0  0  0
   -1.4990   -2.2870    0.6010 C   0  0  0  0  0  0  0  0  0  0  0  0
   -0.2720   -2.1920    1.0270 C   0  0  0  0  0  0  0  0  0  0  0  0
    0.8760   -1.4470    0.6340 C   0  0  0  0  0  0  0  0  0  0  0  0
    2.0700   -1.5890    1.2110 C   0  0  0  0  0  0  0  0  0  0  0  0
    3.2740   -0.8740    0.8710 N   0  0  0  0  0  0  0  0  0  0  0  0
    4.2310   -1.2670    1.6220 C   0  0  0  0  0  0  0  0  0  0  0  0
    5.5480   -0.7620    1.5440 N   0  0  0  0  0  0  0  0  0  0  0  0
    5.7860    0.6570    1.1030 C   0  0  2  0  0  0  0  0  0  0  0  0
    7.2810    0.7930    1.1470 C   0  0  0  0  0  0  0  0  0  0  0  0
    7.9430    1.8310    0.7620 O   0  0  0  0  0  0  0  0  0  0  0  0
    7.9870    3.0920    1.0950 C   0  0  0  0  0  0  0  0  0  0  0  0
    9.1380    3.7340    0.2400 C   0  0  0  0  0  0  0  0  0  0  0  0
    9.2360    5.0710    0.5470 O   0  0  0  0  0  0  0  0  0  0  0  0
   10.2050    5.5700   -0.1860 O   0  0  0  0  0  0  0  0  0  0  0  0
    5.0870    1.5210    2.0780 C   0  0  0  0  0  0  0  0  0  0  0  0
    4.5380    0.9860    3.1130 O   0  0  0  0  0  0  0  0  0  0  0  0
    4.9710    2.8660    1.9620 O   0  0  0  0  0  0  0  0  0  0  0  0
    3.8130   -2.2360    2.5080 O   0  0  0  0  0  0  0  0  0  0  0  0
    2.4380   -2.4690    2.2770 C   0  0  0  0  0  0  0  0  0  0  0  0
    1.7700   -3.3110    2.9400 O   0  0  0  0  0  0  0  0  0  0  0  0
   -2.4320   -2.8670    1.5100 C   0  0  0  0  0  0  0  0  0  0  0  0
   -2.0980   -3.5150    2.5400 N   0  0  0  0  0  0  0  0  0  0  0  0
   -3.7210   -2.7620    1.3260 O   0  0  0  0  0  0  0  0  0  0  0  0
   -4.2290   -2.1430    0.3350 C   0  0  0  0  0  0  0  0  0  0  0  0
  1  2  1  0
  2  3  1  0
  3  4  1  0
  4  5  2  0
  4  6  1  0
  6  7  1  0
  7  8  1  0
  8  9  1  0
  8 43  2  0
  9 10  1  0
 10 11  2  0
 10 12  1  0
 12 13  1  0
 12 43  1  0
 13 14  2  3
 13 20  1  0
 14 15  1  0
 15 16  2  0
 15 19  1  0
 16 17  1  0
 17 18  2  0
 18 19  1  0
 20 21  2  3
 20 40  1  0
 21 22  1  0
 22 23  2  3
 23 24  1  0
 23 38  1  0
 24 25  2  0
 25 26  1  0
 25 37  1  0
 26 27  1  0
 27 28  1  1
 27 34  1  0
 28 29  1  0
 29 30  1  0
 30 31  1  0
 31 32  1  0
 32 33  1  0
 34 35  2  0
 34 36  1  0
 37 38  1  0
 38 39  2  0
 40 41  2  0
 40 42  1  0
 42 43  1  0
M  END
