
     RDKit          3D

 44 48  0  0  0  0  0  0  0  0999 V2000
    7.6070    4.4990    0.1470 N   0  0  0  0  0  0  0  0  0  0  0  0
    7.0310    3.4050   -0.5430 C   0  0  0  0  0  0  0  0  0  0  0  0
    6.2510    3.6370   -1.5170 O   0  0  0  0  0  0  0  0  0  0  0  0
    7.3390    2.0360   -0.1270 C   0  0  0  0  0  0  0  0  0  0  0  0
    8.1960    1.8700    0.9370 C   0  0  0  0  0  0  0  0  0  0  0  0
    8.5060    0.6040    1.3520 C   0  0  0  0  0  0  0  0  0  0  0  0
    7.9320   -0.4460    0.6670 C   0  0  0  0  0  0  0  0  0  0  0  0
    7.1050   -0.2950   -0.3590 N   0  0  0  0  0  0  0  0  0  0  0  0
    6.5010   -1.3990   -1.0810 C   0  0  2  0  0  0  0  0  0  0  0  0
    5.3180   -0.9720   -1.6230 O   0  0  0  0  0  0  0  0  0  0  0  0
    4.2670   -1.2560   -0.8010 C   0  0  2  0  0  0  0  0  0  0  0  0
    3.3900   -0.0910   -0.4740 C   0  0  0  0  0  0  0  0  0  0  0  0
    2.3460   -0.4620    0.3640 O   0  0  0  0  0  0  0  0  0  0  0  0
    1.4220    0.9430    0.6640 P   0  0  1  0  0  0  0  0  0  0  0  0
    2.1520    1.8790    1.5920 O   0  0  0  0  0  0  0  0  0  0  0  0
    1.0560    1.7010   -0.8190 O   0  0  0  0  0  0  0  0  0  0  0  0
   -0.0480    0.5470    1.4020 O   0  0  0  0  0  0  0  0  0  0  0  0
   -1.1990    0.2560    0.1820 P   0  0  1  0  0  0  0  0  0  0  0  0
   -1.8030    1.5830   -0.1810 O   0  0  0  0  0  0  0  0  0  0  0  0
   -0.3750   -0.4200   -1.1400 O   0  0  0  0  0  0  0  0  0  0  0  0
   -2.3490   -0.8660    0.6940 O   0  0  0  0  0  0  0  0  0  0  0  0
   -3.4100   -0.8510   -0.2140 C   0  0  0  0  0  0  0  0  0  0  0  0
   -4.4240   -1.8560    0.2580 C   0  0  1  0  0  0  0  0  0  0  0  0
   -4.9080   -1.5790    1.5060 O   0  0  0  0  0  0  0  0  0  0  0  0
   -6.2680   -1.3470    1.4500 C   0  0  1  0  0  0  0  0  0  0  0  0
   -6.4880    0.0510    1.2050 N   0  0  0  0  0  0  0  0  0  0  0  0
   -5.6890    1.0280    1.6650 C   0  0  0  0  0  0  0  0  0  0  0  0
   -6.1690    2.2130    1.2640 N   0  0  0  0  0  0  0  0  0  0  0  0
   -7.2900    2.0360    0.5340 C   0  0  0  0  0  0  0  0  0  0  0  0
   -8.1700    2.8730   -0.1080 C   0  0  0  0  0  0  0  0  0  0  0  0
   -7.9990    4.2720   -0.0930 N   0  0  0  0  0  0  0  0  0  0  0  0
   -9.2090    2.3370   -0.7570 N   0  0  0  0  0  0  0  0  0  0  0  0
   -9.4000    0.9870   -0.7890 C   0  0  0  0  0  0  0  0  0  0  0  0
   -8.5290    0.1990   -0.1570 N   0  0  0  0  0  0  0  0  0  0  0  0
   -7.4700    0.6470    0.5130 C   0  0  0  0  0  0  0  0  0  0  0  0
   -6.7150   -2.2410    0.3280 C   0  0  2  0  0  0  0  0  0  0  0  0
   -6.5860   -3.5570    0.7460 O   0  0  0  0  0  0  0  0  0  0  0  0
   -5.5920   -2.0040   -0.6870 C   0  0  2  0  0  0  0  0  0  0  0  0
   -5.4480   -3.0720   -1.5540 O   0  0  0  0  0  0  0  0  0  0  0  0
    4.8260   -1.9280    0.4400 C   0  0  1  0  0  0  0  0  0  0  0  0
    3.9870   -2.8830    0.9550 O   0  0  0  0  0  0  0  0  0  0  0  0
    6.0880   -2.5440   -0.1820 C   0  0  1  0  0  0  0  0  0  0  0  0
    5.6700   -3.5840   -1.0130 O   0  0  0  0  0  0  0  0  0  0  0  0
    6.7980    0.9450   -0.7690 C   0  0  0  0  0  0  0  0  0  0  0  0
  1  2  1  0
  2  3  2  0
  2  4  1  0
  4  5  2  0
  4 44  1  0
  5  6  1  0
  6  7  2  0
  7  8  1  0
  9  8  1  1
  8 44  2  0
  9 10  1  0
  9 42  1  0
 10 11  1  0
 11 12  1  1
 11 40  1  0
 12 13  1  0
 13 14  1  0
 14 15  2  0
 14 16  1  6
 14 17  1  0
 17 18  1  0
 18 19  2  0
 18 20  1  6
 18 21  1  0
 21 22  1  0
 23 22  1  6
 23 24  1  0
 23 38  1  0
 24 25  1  0
 25 26  1  6
 25 36  1  0
 26 27  1  0
 26 35  1  0
 27 28  2  0
 28 29  1  0
 29 30  2  0
 29 35  1  0
 30 31  1  0
 30 32  1  0
 32 33  2  0
 33 34  1  0
 34 35  2  0
 36 37  1  1
 36 38  1  0
 38 39  1  6
 40 41  1  6
 40 42  1  0
 42 43  1  6
M  CHG  2   8   1  16  -1
M  END
