
     RDKit          3D

 29 33  0  0  0  0  0  0  0  0999 V2000
   -0.4850   -1.3290    0.1380 C   0  0  0  0  0  0  0  0  0  0  0  0
    0.6670   -0.9460    0.7080 N   0  0  0  0  0  0  0  0  0  0  0  0
    1.1160    0.1550    0.1160 N   0  0  0  0  0  0  0  0  0  0  0  0
    2.3310    0.8970    0.4280 C   0  0  1  0  0  0  0  0  0  0  0  0
    3.1320    0.1640    1.4530 C   0  0  0  0  0  0  0  0  0  0  0  0
    3.6620   -1.1000    0.8130 C   0  0  0  0  0  0  0  0  0  0  0  0
    4.5900   -0.7790   -0.2800 N   0  0  2  0  0  0  0  0  0  0  0  0
    5.7970   -0.2390    0.1950 C   0  0  1  0  0  0  0  0  0  0  0  0
    7.0100   -1.1080   -0.1730 C   0  0  0  0  0  0  0  0  0  0  0  0
    8.1060   -0.8100    0.8150 C   0  0  0  0  0  0  0  0  0  0  0  0
    8.0430    0.5510    1.1310 O   0  0  0  0  0  0  0  0  0  0  0  0
    7.6460    1.3140    0.0400 C   0  0  0  0  0  0  0  0  0  0  0  0
    6.1310    1.1550   -0.1880 C   0  0  0  0  0  0  0  0  0  0  0  0
    3.8930   -0.0650   -1.2920 C   0  0  0  0  0  0  0  0  0  0  0  0
    3.1000    1.1060   -0.8390 C   0  0  0  0  0  0  0  0  0  0  0  0
    0.2410    0.4880   -0.8500 C   0  0  0  0  0  0  0  0  0  0  0  0
   -0.7920   -0.4380   -0.8630 C   0  0  0  0  0  0  0  0  0  0  0  0
   -1.9520   -0.4170   -1.7850 C   0  0  0  0  0  0  0  0  0  0  0  0
   -3.0270    0.3440   -1.2150 N   0  0  0  0  0  0  0  0  0  0  0  0
   -3.6710   -0.2870   -0.1010 C   0  0  2  0  0  0  0  0  0  0  0  0
   -4.2120   -1.6490   -0.4240 C   0  0  0  0  0  0  0  0  0  0  0  0
   -5.0940   -2.1750    0.6470 C   0  0  0  0  0  0  0  0  0  0  0  0
   -5.7240   -1.2440    1.4160 O   0  0  0  0  0  0  0  0  0  0  0  0
   -5.9970   -0.0490    0.8200 C   0  0  2  0  0  0  0  0  0  0  0  0
   -6.6740    0.8420    1.8710 C   0  0  0  0  0  0  0  0  0  0  0  0
   -7.3570    1.8560    0.9870 C   0  0  0  0  0  0  0  0  0  0  0  0
   -7.4670    1.2950   -0.3230 N   0  0  0  0  0  0  0  0  0  0  0  0
   -7.0810   -0.1080   -0.2290 C   0  0  0  0  0  0  0  0  0  0  0  0
   -4.7680    0.6610    0.3690 C   0  0  0  0  0  0  0  0  0  0  0  0
  1  2  2  0
  1 17  1  0
  2  3  1  0
  4  3  1  6
  3 16  1  0
  4  5  1  0
  4 15  1  0
  5  6  1  0
  7  6  1  1
  7  8  1  0
  7 14  1  0
  8  9  1  6
  8 13  1  0
  9 10  1  0
 10 11  1  0
 11 12  1  0
 12 13  1  0
 14 15  1  0
 16 17  2  0
 17 18  1  0
 18 19  1  0
 20 19  1  6
 20 21  1  0
 20 29  1  0
 21 22  1  0
 22 23  1  0
 23 24  1  0
 24 25  1  1
 24 28  1  0
 24 29  1  0
 25 26  1  0
 26 27  1  0
 27 28  1  0
M  CHG  3   7   1  19   1  27   1
M  END
