
     RDKit          3D

 29 31  0  0  0  0  0  0  0  0999 V2000
   -5.0690    1.1130   -2.3160 C   0  0  0  0  0  0  0  0  0  0  0  0
   -4.7200   -0.0120   -1.3280 C   0  0  0  0  0  0  0  0  0  0  0  0
   -4.7170    0.5270    0.0320 C   0  0  0  0  0  0  0  0  0  0  0  0
   -5.8790    0.8210    0.7430 C   0  0  0  0  0  0  0  0  0  0  0  0
   -7.2630    0.6250    0.2530 C   0  0  0  0  0  0  0  0  0  0  0  0
   -5.5300    1.2970    1.9110 O   0  0  0  0  0  0  0  0  0  0  0  0
   -4.2250    1.3320    2.0070 C   0  0  0  0  0  0  0  0  0  0  0  0
   -3.4640    1.8050    3.1700 C   0  0  0  0  0  0  0  0  0  0  0  0
   -3.6470    0.8470    0.8260 C   0  0  0  0  0  0  0  0  0  0  0  0
   -2.2340    0.7030    0.5350 C   0  0  0  0  0  0  0  0  0  0  0  0
   -1.6710    1.6800   -0.0510 O   0  0  0  0  0  0  0  0  0  0  0  0
   -1.4840   -0.5090    0.9040 C   0  0  1  0  0  0  0  0  0  0  0  0
   -1.9910   -1.7730    0.3150 C   0  0  0  0  0  0  0  0  0  0  0  0
   -1.4780   -2.1430   -1.0280 C   0  0  0  0  0  0  0  0  0  0  0  0
   -0.6140   -1.0690   -1.6190 C   0  0  0  0  0  0  0  0  0  0  0  0
    0.3840   -0.6990   -0.6570 N   0  0  0  0  0  0  0  0  0  0  0  0
    1.7560   -0.6940   -1.0300 C   0  0  0  0  0  0  0  0  0  0  0  0
    2.0660   -1.0210   -2.2180 O   0  0  0  0  0  0  0  0  0  0  0  0
    2.7380   -0.3190   -0.0500 C   0  0  0  0  0  0  0  0  0  0  0  0
    4.0570   -0.2490   -0.1890 C   0  0  0  0  0  0  0  0  0  0  0  0
    4.8240   -0.5330   -1.3580 C   0  0  0  0  0  0  0  0  0  0  0  0
    6.0810   -0.5070   -1.6220 C   0  0  0  0  0  0  0  0  0  0  0  0
    7.2450   -0.1590   -0.7780 C   0  0  0  0  0  0  0  0  0  0  0  0
    8.4800   -0.1830   -1.2160 C   0  0  0  0  0  0  0  0  0  0  0  0
    9.5040    0.1640   -0.3370 N   0  0  0  0  0  0  0  0  0  0  0  0
    8.7580    0.4910    1.1870 S   0  0  0  0  0  0  0  0  0  0  0  0
    8.9280    1.9680    1.5000 O   0  0  0  0  0  0  0  0  0  0  0  0
    7.0560    0.2340    0.6290 C   0  0  0  0  0  0  0  0  0  0  0  0
    0.0100   -0.3350    0.6770 C   0  0  0  0  0  0  0  0  0  0  0  0
  1  2  1  0
  2  3  1  0
  3  4  2  0
  3  9  1  0
  4  5  1  0
  4  6  1  0
  6  7  1  0
  7  8  1  0
  7  9  2  0
  9 10  1  0
 10 11  2  0
 12 10  1  6
 12 13  1  0
 12 29  1  0
 13 14  1  0
 14 15  1  0
 15 16  1  0
 16 17  1  0
 16 29  1  0
 17 18  2  0
 17 19  1  0
 19 20  2  3
 20 21  1  0
 21 22  2  3
 22 23  1  0
 23 24  2  0
 23 28  1  0
 24 25  1  0
 25 26  1  0
 26 27  2  0
 26 28  1  6
M  END
