
     RDKit          3D

 29 31  0  0  0  0  0  0  0  0999 V2000
    5.3350   -3.5690   -1.7960 C   0  0  0  0  0  0  0  0  0  0  0  0
    5.2230   -2.3340   -1.1140 O   0  0  0  0  0  0  0  0  0  0  0  0
    3.9530   -1.7590   -0.8580 C   0  0  0  0  0  0  0  0  0  0  0  0
    3.0140   -2.4350   -1.2800 O   0  0  0  0  0  0  0  0  0  0  0  0
    3.8350   -0.4820   -0.1550 C   0  0  1  0  0  0  0  0  0  0  0  0
    2.6060    0.1150    0.0800 N   0  0  0  0  0  0  0  0  0  0  0  0
    1.3810   -0.4000   -0.4050 C   0  0  2  0  0  0  0  0  0  0  0  0
    0.5010    0.8080   -0.7870 C   0  0  0  0  0  0  0  0  0  0  0  0
   -0.5050    1.1350    0.2700 C   0  0  0  0  0  0  0  0  0  0  0  0
   -1.3450   -0.0130    0.4180 N   0  0  0  0  0  0  0  0  0  0  0  0
   -2.7840    0.1660    0.3330 C   0  0  0  0  0  0  0  0  0  0  0  0
   -3.3790    0.3180   -0.9270 N   0  0  0  0  0  0  0  0  0  0  0  0
   -4.7200   -0.0900   -1.2150 C   0  0  0  0  0  0  0  0  0  0  0  0
   -4.9720    0.0300   -2.7330 C   0  0  2  0  0  0  0  0  0  0  0  0
   -6.4050   -0.4190   -2.9420 C   0  0  0  0  0  0  0  0  0  0  0  0
   -4.0840   -0.9460   -3.4770 C   0  0  0  0  0  0  0  0  0  0  0  0
   -3.4120    0.1540    1.4370 N   0  0  0  0  0  0  0  0  0  0  0  0
   -4.8160    0.3100    1.6280 C   0  0  0  0  0  0  0  0  0  0  0  0
   -5.1590    0.2550    3.1430 C   0  0  1  0  0  0  0  0  0  0  0  0
   -4.5710    1.2430    4.0540 C   0  0  0  0  0  0  0  0  0  0  0  0
   -6.0460    1.3730    3.6130 C   0  0  0  0  0  0  0  0  0  0  0  0
   -0.7530   -1.2800    0.6390 C   0  0  0  0  0  0  0  0  0  0  0  0
    0.7510   -1.2230    0.6960 C   0  0  0  0  0  0  0  0  0  0  0  0
    4.4800   -0.7160    1.2280 C   0  0  0  0  0  0  0  0  0  0  0  0
    4.6730    0.5330    2.0000 C   0  0  0  0  0  0  0  0  0  0  0  0
    5.0920    1.6610    1.1980 N   0  0  0  0  0  0  0  0  0  0  0  0
    5.6760    1.2420   -0.0610 C   0  0  2  0  0  0  0  0  0  0  0  0
    6.0910    2.5110   -0.7970 C   0  0  0  0  0  0  0  0  0  0  0  0
    4.7200    0.5020   -0.9350 C   0  0  0  0  0  0  0  0  0  0  0  0
  1  2  1  0
  2  3  1  0
  3  4  2  0
  3  5  1  0
  5  6  1  1
  5 24  1  0
  5 29  1  0
  7  6  1  1
  7  8  1  0
  7 23  1  0
  8  9  1  0
  9 10  1  0
 10 11  1  0
 10 22  1  0
 11 12  1  0
 11 17  2  3
 12 13  1  0
 13 14  1  0
 14 15  1  1
 14 16  1  0
 17 18  1  0
 19 18  1  6
 19 20  1  0
 19 21  1  0
 20 21  1  0
 22 23  1  0
 24 25  1  0
 25 26  1  0
 26 27  1  0
 27 28  1  6
 27 29  1  0
M  CHG  3   6   1  17   1  26   1
M  END
