
     RDKit          3D

 29 32  0  0  0  0  0  0  0  0999 V2000
   -8.2970    0.2730    0.1790 C   0  0  0  0  0  0  0  0  0  0  0  0
   -6.9460    0.7380    0.0660 N   0  0  1  0  0  0  0  0  0  0  0  0
   -6.0850   -0.0390    0.9520 C   0  0  0  0  0  0  0  0  0  0  0  0
   -4.7080    0.5480    0.9900 C   0  0  0  0  0  0  0  0  0  0  0  0
   -4.0850    0.6240   -0.3800 C   0  0  1  0  0  0  0  0  0  0  0  0
   -3.6150   -0.7010   -0.7260 N   0  0  0  0  0  0  0  0  0  0  0  0
   -2.2630   -0.6820   -1.2330 C   0  0  0  0  0  0  0  0  0  0  0  0
   -1.2200   -0.4920   -0.1760 C   0  0  1  0  0  0  0  0  0  0  0  0
   -1.2390   -1.5930    0.8530 C   0  0  0  0  0  0  0  0  0  0  0  0
   -0.1600   -1.3760    1.8860 C   0  0  0  0  0  0  0  0  0  0  0  0
    1.1130   -0.7970    1.3170 C   0  0  0  0  0  0  0  0  0  0  0  0
    1.1840   -1.0630   -0.1440 C   0  0  2  0  0  0  0  0  0  0  0  0
    2.4860   -0.9070   -0.7180 N   0  0  0  0  0  0  0  0  0  0  0  0
    3.0410    0.4000   -0.7110 C   0  0  2  0  0  0  0  0  0  0  0  0
    3.8640    0.5440   -2.0070 C   0  0  0  0  0  0  0  0  0  0  0  0
    4.9620   -0.4850   -2.0760 C   0  0  0  0  0  0  0  0  0  0  0  0
    5.7080   -0.7270   -0.8190 C   0  0  0  0  0  0  0  0  0  0  0  0
    5.2860    0.1220    0.2940 C   0  0  0  0  0  0  0  0  0  0  0  0
    4.0230    0.6560    0.3650 C   0  0  0  0  0  0  0  0  0  0  0  0
    3.9780    1.3740    1.5260 C   0  0  0  0  0  0  0  0  0  0  0  0
    5.1520    1.2740    2.1160 N   0  0  0  0  0  0  0  0  0  0  0  0
    5.9670    0.5290    1.4070 N   0  0  0  0  0  0  0  0  0  0  0  0
    7.3610    0.2110    1.7630 C   0  0  0  0  0  0  0  0  0  0  0  0
    8.1840    1.2950    1.1810 C   0  0  0  0  0  0  0  0  0  0  0  0
    8.6750    1.1250    0.0390 O   0  0  0  0  0  0  0  0  0  0  0  0
    8.4550    2.5040    1.8160 O   0  0  0  0  0  0  0  0  0  0  0  0
    0.1100   -0.3140   -0.8550 C   0  0  0  0  0  0  0  0  0  0  0  0
   -5.0900    1.1660   -1.3640 C   0  0  0  0  0  0  0  0  0  0  0  0
   -6.4360    0.5220   -1.2760 C   0  0  0  0  0  0  0  0  0  0  0  0
  2  1  1  6
  2  3  1  0
  2 29  1  0
  3  4  1  0
  4  5  1  0
  5  6  1  6
  5 28  1  0
  6  7  1  0
  8  7  1  6
  8  9  1  0
  8 27  1  0
  9 10  1  0
 10 11  1  0
 11 12  1  0
 12 13  1  6
 12 27  1  0
 14 13  1  1
 14 15  1  0
 14 19  1  0
 15 16  1  0
 16 17  1  0
 17 18  1  0
 18 19  2  0
 18 22  1  0
 19 20  1  0
 20 21  2  0
 21 22  1  0
 22 23  1  0
 23 24  1  0
 24 25  2  0
 24 26  1  0
 28 29  1  0
M  CHG  3   2   1   6   1  13   1
M  END
