
     RDKit          3D

 30 34  0  0  0  0  0  0  0  0999 V2000
    0.7130   -1.7110    2.0570 C   0  0  0  0  0  0  0  0  0  0  0  0
    0.5190   -1.9590    0.6010 C   0  0  2  0  0  0  0  0  0  0  0  0
    1.6390   -2.7430    0.0020 C   0  0  0  0  0  0  0  0  0  0  0  0
    2.9190   -1.9790    0.2830 C   0  0  0  0  0  0  0  0  0  0  0  0
    2.8600   -0.6580   -0.3910 C   0  0  2  0  0  0  0  0  0  0  0  0
    4.0370    0.1960   -0.1400 C   0  0  0  0  0  0  0  0  0  0  0  0
    5.0960   -0.1280    0.6780 C   0  0  0  0  0  0  0  0  0  0  0  0
    6.1660    0.7230    0.8680 C   0  0  0  0  0  0  0  0  0  0  0  0
    6.1300    1.9280    0.1960 C   0  0  0  0  0  0  0  0  0  0  0  0
    7.1860    2.8410    0.3450 O   0  0  0  0  0  0  0  0  0  0  0  0
    5.0830    2.2870   -0.6320 C   0  0  0  0  0  0  0  0  0  0  0  0
    4.0500    1.4100   -0.7860 C   0  0  0  0  0  0  0  0  0  0  0  0
    2.8680    1.7170   -1.6710 C   0  0  0  0  0  0  0  0  0  0  0  0
    1.5680    1.3020   -1.0800 C   0  0  0  0  0  0  0  0  0  0  0  0
    1.6440    0.1670   -0.0830 C   0  0  1  0  0  0  0  0  0  0  0  0
    0.4330   -0.6640   -0.2190 C   0  0  2  0  0  0  0  0  0  0  0  0
   -0.8430   -0.0900    0.3360 C   0  0  0  0  0  0  0  0  0  0  0  0
   -1.7520   -1.3050    0.2040 C   0  0  2  0  0  0  0  0  0  0  0  0
   -2.8970   -1.3140    1.1530 C   0  0  0  0  0  0  0  0  0  0  0  0
   -3.7450   -0.1180    0.9310 C   0  0  0  0  0  0  0  0  0  0  0  0
   -3.5320    1.0750    1.6090 C   0  0  0  0  0  0  0  0  0  0  0  0
   -4.2940    2.1860    1.4210 C   0  0  0  0  0  0  0  0  0  0  0  0
   -5.3310    2.1640    0.5280 C   0  0  0  0  0  0  0  0  0  0  0  0
   -5.5830    1.0070   -0.1680 C   0  0  0  0  0  0  0  0  0  0  0  0
   -6.6940    0.9930   -1.1200 C   0  0  0  0  0  0  0  0  0  0  0  0
   -7.4950    2.1430   -1.3250 N   0  0  0  0  0  0  0  0  0  0  0  0
   -6.9740   -0.0350   -1.7870 O   0  0  0  0  0  0  0  0  0  0  0  0
   -4.7950   -0.1180    0.0360 C   0  0  0  0  0  0  0  0  0  0  0  0
   -0.8550   -2.5170    0.3470 C   0  0  2  0  0  0  0  0  0  0  0  0
   -1.2870   -3.3690    1.3660 O   0  0  0  0  0  0  0  0  0  0  0  0
  2  1  1  1
  2  3  1  0
  2 16  1  0
  2 29  1  0
  3  4  1  0
  5  4  1  1
  5  6  1  0
  5 15  1  0
  6  7  2  0
  6 12  1  0
  7  8  1  0
  8  9  2  0
  9 10  1  0
  9 11  1  0
 11 12  2  0
 12 13  1  0
 13 14  1  0
 15 14  1  6
 15 16  1  0
 16 17  1  1
 17 18  1  0
 18 19  1  1
 18 29  1  0
 19 20  1  0
 20 21  2  0
 20 28  1  0
 21 22  1  0
 22 23  2  0
 23 24  1  0
 24 25  1  0
 24 28  2  0
 25 26  1  0
 25 27  2  0
 29 30  1  1
M  END
