
     RDKit          3D

 29 31  0  0  0  0  0  0  0  0999 V2000
   -3.4320    2.4590    2.4040 C   0  0  0  0  0  0  0  0  0  0  0  0
   -3.4440    1.3270    1.4310 C   0  0  0  0  0  0  0  0  0  0  0  0
   -3.7640    1.7130    0.0500 C   0  0  0  0  0  0  0  0  0  0  0  0
   -5.0450    2.0760   -0.4060 C   0  0  0  0  0  0  0  0  0  0  0  0
   -6.2790    2.1580    0.4410 C   0  0  0  0  0  0  0  0  0  0  0  0
   -4.9500    2.3200   -1.6720 O   0  0  0  0  0  0  0  0  0  0  0  0
   -3.7230    2.1520   -2.1010 C   0  0  0  0  0  0  0  0  0  0  0  0
   -3.2590    2.3420   -3.4830 C   0  0  0  0  0  0  0  0  0  0  0  0
   -2.9040    1.7560   -1.0280 C   0  0  0  0  0  0  0  0  0  0  0  0
   -1.4950    1.4700   -1.0780 C   0  0  0  0  0  0  0  0  0  0  0  0
   -1.1610    0.2440   -1.2830 O   0  0  0  0  0  0  0  0  0  0  0  0
   -0.4110    2.4470   -0.9230 C   0  0  1  0  0  0  0  0  0  0  0  0
   -0.3500    3.2020    0.3460 C   0  0  0  0  0  0  0  0  0  0  0  0
    0.4240    2.5360    1.4590 C   0  0  0  0  0  0  0  0  0  0  0  0
    1.7690    2.0250    0.9690 C   0  0  0  0  0  0  0  0  0  0  0  0
    1.5930    1.2000   -0.1840 N   0  0  0  0  0  0  0  0  0  0  0  0
    2.0210   -0.1790   -0.3020 C   0  0  0  0  0  0  0  0  0  0  0  0
    1.7560   -0.7250   -1.3970 O   0  0  0  0  0  0  0  0  0  0  0  0
    2.6910   -0.8660    0.7430 C   0  0  0  0  0  0  0  0  0  0  0  0
    3.0910   -2.1110    0.7380 C   0  0  0  0  0  0  0  0  0  0  0  0
    2.9440   -3.0490   -0.3080 C   0  0  0  0  0  0  0  0  0  0  0  0
    3.2860   -4.2710   -0.4520 C   0  0  0  0  0  0  0  0  0  0  0  0
    3.9990   -5.2020    0.4560 C   0  0  0  0  0  0  0  0  0  0  0  0
    4.2330   -6.4530    0.1590 C   0  0  0  0  0  0  0  0  0  0  0  0
    4.9080   -7.2520    1.0810 N   0  0  0  0  0  0  0  0  0  0  0  0
    5.6380   -6.1360    2.1900 S   0  0  0  0  0  0  0  0  0  0  0  0
    7.0820   -5.8410    1.9160 O   0  0  0  0  0  0  0  0  0  0  0  0
    4.5490   -4.7290    1.7420 C   0  0  0  0  0  0  0  0  0  0  0  0
    0.9240    1.8350   -1.3200 C   0  0  0  0  0  0  0  0  0  0  0  0
  1  2  1  0
  2  3  1  0
  3  4  2  0
  3  9  1  0
  4  5  1  0
  4  6  1  0
  6  7  1  0
  7  8  1  0
  7  9  2  0
  9 10  1  0
 10 11  2  0
 12 10  1  1
 12 13  1  0
 12 29  1  0
 13 14  1  0
 14 15  1  0
 15 16  1  0
 16 17  1  0
 16 29  1  0
 17 18  2  0
 17 19  1  0
 19 20  2  3
 20 21  1  0
 21 22  2  3
 22 23  1  0
 23 24  2  0
 23 28  1  0
 24 25  1  0
 25 26  1  0
 26 27  2  0
 26 28  1  6
M  END
