
     RDKit          3D

 29 31  0  0  0  0  0  0  0  0999 V2000
    7.8250    0.6440   -1.3950 C   0  0  0  0  0  0  0  0  0  0  0  0
    7.7200    0.3570    0.1010 C   0  0  0  0  0  0  0  0  0  0  0  0
    6.4030    0.5140    0.4980 O   0  0  0  0  0  0  0  0  0  0  0  0
    5.5820   -0.3690   -0.2020 C   0  0  0  0  0  0  0  0  0  0  0  0
    4.1200   -0.1920    0.2410 C   0  0  1  0  0  0  0  0  0  0  0  0
    3.8020    1.1190   -0.0490 O   0  0  0  0  0  0  0  0  0  0  0  0
    3.2990   -1.1840   -0.5010 C   0  0  0  0  0  0  0  0  0  0  0  0
    1.9020   -1.1760   -0.3050 N   0  0  0  0  0  0  0  0  0  0  0  0
    1.0690   -0.1010   -0.6240 C   0  0  0  0  0  0  0  0  0  0  0  0
    1.5360    0.9370   -1.1230 O   0  0  0  0  0  0  0  0  0  0  0  0
   -0.4030   -0.1190   -0.3960 C   0  0  0  0  0  0  0  0  0  0  0  0
   -0.9840   -1.1020    0.3630 C   0  0  0  0  0  0  0  0  0  0  0  0
   -2.3400   -1.0900    0.5370 C   0  0  0  0  0  0  0  0  0  0  0  0
   -3.0950   -0.0820   -0.0550 C   0  0  0  0  0  0  0  0  0  0  0  0
   -2.5920    0.9370   -0.8150 C   0  0  0  0  0  0  0  0  0  0  0  0
   -3.1300    2.0680   -1.1480 C   0  0  0  0  0  0  0  0  0  0  0  0
   -4.2670    2.8780   -1.0080 C   0  0  0  0  0  0  0  0  0  0  0  0
   -5.3950    2.8110   -0.0770 C   0  0  0  0  0  0  0  0  0  0  0  0
   -4.3220    4.0430   -1.7550 C   0  0  0  0  0  0  0  0  0  0  0  0
   -5.6780    5.1550   -1.6860 S   0  0  0  0  0  0  0  0  0  0  0  0
   -1.1700    0.8540   -0.9590 C   0  0  0  0  0  0  0  0  0  0  0  0
   -4.3980   -0.1710    0.0490 C   0  0  0  0  0  0  0  0  0  0  0  0
   -5.1350   -1.2260    0.7500 C   0  0  0  0  0  0  0  0  0  0  0  0
   -4.2990   -2.2400    1.4030 C   0  0  0  0  0  0  0  0  0  0  0  0
   -4.5620   -3.2920    2.1460 O   0  0  0  0  0  0  0  0  0  0  0  0
   -3.4730   -3.8960    2.4950 N   0  0  0  0  0  0  0  0  0  0  0  0
   -2.4010   -3.2470    1.9810 C   0  0  0  0  0  0  0  0  0  0  0  0
   -1.0090   -3.6840    2.2040 C   0  0  0  0  0  0  0  0  0  0  0  0
   -2.9310   -2.1890    1.2850 C   0  0  0  0  0  0  0  0  0  0  0  0
  1  2  1  0
  2  3  1  0
  3  4  1  0
  4  5  1  0
  5  6  1  6
  5  7  1  0
  7  8  1  0
  8  9  1  0
  9 10  2  0
  9 11  1  0
 11 12  1  0
 11 21  2  0
 12 13  2  0
 13 14  1  0
 13 29  1  0
 14 15  1  0
 14 22  2  0
 15 16  2  3
 15 21  1  0
 16 17  1  0
 17 18  1  0
 17 19  2  3
 19 20  1  0
 22 23  1  0
 23 24  1  0
 24 25  1  0
 24 29  2  0
 25 26  1  0
 26 27  2  0
 27 28  1  0
 27 29  1  0
M  END
