
     RDKit          3D

 29 32  0  0  0  0  0  0  0  0999 V2000
   -0.2320    0.5710    2.2330 C   0  0  0  0  0  0  0  0  0  0  0  0
   -0.0600    0.6820    0.8440 N   0  0  1  0  0  0  0  0  0  0  0  0
    1.3710    0.7980    0.4780 C   0  0  1  0  0  0  0  0  0  0  0  0
    2.0850   -0.4870    0.7760 C   0  0  0  0  0  0  0  0  0  0  0  0
    3.4740   -0.5290    0.6060 N   0  0  0  0  0  0  0  0  0  0  0  0
    4.1990    0.5450    0.0520 C   0  0  0  0  0  0  0  0  0  0  0  0
    5.5860    0.0730   -0.3400 C   0  0  0  0  0  0  0  0  0  0  0  0
    5.9040   -1.1570   -0.8470 C   0  0  0  0  0  0  0  0  0  0  0  0
    7.2480   -1.1640   -1.0120 N   0  0  0  0  0  0  0  0  0  0  0  0
    7.7650    0.0350   -0.6150 C   0  0  0  0  0  0  0  0  0  0  0  0
    9.2000    0.4540   -0.5260 C   0  0  1  0  0  0  0  0  0  0  0  0
    9.7950   -0.0270    0.8640 C   0  0  0  0  0  0  0  0  0  0  0  0
   10.2920   -0.5370   -0.4220 C   0  0  0  0  0  0  0  0  0  0  0  0
    6.7170    0.7770   -0.2130 N   0  0  0  0  0  0  0  0  0  0  0  0
    1.2610    1.0020   -1.0200 C   0  0  0  0  0  0  0  0  0  0  0  0
    0.1490   -0.0070   -1.3710 C   0  0  0  0  0  0  0  0  0  0  0  0
   -0.5820   -0.2190   -0.0740 C   0  0  2  0  0  0  0  0  0  0  0  0
   -1.9980   -0.2620   -0.3800 C   0  0  0  0  0  0  0  0  0  0  0  0
   -2.6310   -1.3260   -0.3940 O   0  0  0  0  0  0  0  0  0  0  0  0
   -2.7240    0.9830   -0.7060 N   0  0  0  0  0  0  0  0  0  0  0  0
   -4.0480    0.9080   -1.1670 C   0  0  0  0  0  0  0  0  0  0  0  0
   -5.1310    0.1520   -0.6170 C   0  0  2  0  0  0  0  0  0  0  0  0
   -6.3250    0.3840   -1.6430 C   0  0  0  0  0  0  0  0  0  0  0  0
   -7.1180   -0.8750   -1.5590 C   0  0  0  0  0  0  0  0  0  0  0  0
   -7.0340   -1.4110   -0.2700 O   0  0  0  0  0  0  0  0  0  0  0  0
   -7.0670   -0.4050    0.6960 C   0  0  1  0  0  0  0  0  0  0  0  0
   -8.2750    0.4530    0.5620 C   0  0  0  0  0  0  0  0  0  0  0  0
   -7.0960   -1.1410    2.0320 C   0  0  0  0  0  0  0  0  0  0  0  0
   -5.7740    0.4410    0.6880 C   0  0  0  0  0  0  0  0  0  0  0  0
  2  1  1  1
  2  3  1  0
  2 17  1  0
  3  4  1  6
  3 15  1  0
  4  5  1  0
  5  6  1  0
  6  7  1  0
  7  8  2  0
  7 14  1  0
  8  9  1  0
  9 10  2  0
 11 10  1  1
 10 14  1  0
 11 12  1  0
 11 13  1  0
 12 13  1  0
 15 16  1  0
 16 17  1  0
 17 18  1  6
 18 19  2  0
 18 20  1  0
 20 21  1  0
 22 21  1  6
 22 23  1  0
 22 29  1  0
 23 24  1  0
 24 25  1  0
 25 26  1  0
 26 27  1  6
 26 28  1  0
 26 29  1  0
M  CHG  3   2   1   5   1   9   1
M  END
