
     RDKit          3D

 29 33  0  0  0  0  0  0  0  0999 V2000
    0.4440   -0.7870   -1.3920 C   0  0  0  0  0  0  0  0  0  0  0  0
   -0.9030   -0.5690   -1.4050 N   0  0  0  0  0  0  0  0  0  0  0  0
   -1.2480    0.1060   -0.3270 N   0  0  0  0  0  0  0  0  0  0  0  0
   -2.5840    0.5530    0.0630 C   0  0  2  0  0  0  0  0  0  0  0  0
   -3.0430   -0.3030    1.1940 C   0  0  0  0  0  0  0  0  0  0  0  0
   -4.5170   -0.2660    1.4210 C   0  0  0  0  0  0  0  0  0  0  0  0
   -5.1910    0.7170    0.5570 N   0  0  2  0  0  0  0  0  0  0  0  0
   -6.5590    0.7440    0.9440 C   0  0  1  0  0  0  0  0  0  0  0  0
   -7.4950    1.3550   -0.0300 C   0  0  0  0  0  0  0  0  0  0  0  0
   -8.3430    0.2260   -0.6260 C   0  0  0  0  0  0  0  0  0  0  0  0
   -9.1670   -0.3040    0.3540 O   0  0  0  0  0  0  0  0  0  0  0  0
   -8.5300   -0.5520    1.5450 C   0  0  0  0  0  0  0  0  0  0  0  0
   -7.0430   -0.6670    1.3000 C   0  0  0  0  0  0  0  0  0  0  0  0
   -4.9370    0.3330   -0.7910 C   0  0  0  0  0  0  0  0  0  0  0  0
   -3.4840    0.5580   -1.1250 C   0  0  0  0  0  0  0  0  0  0  0  0
   -0.1380    0.3370    0.4020 C   0  0  0  0  0  0  0  0  0  0  0  0
    0.9490   -0.2230   -0.2580 C   0  0  0  0  0  0  0  0  0  0  0  0
    2.3480   -0.1670    0.2500 C   0  0  0  0  0  0  0  0  0  0  0  0
    2.9430    1.0360   -0.2850 N   0  0  0  0  0  0  0  0  0  0  0  0
    4.3230    0.9030   -0.6240 C   0  0  2  0  0  0  0  0  0  0  0  0
    4.5420    0.2220   -1.9610 C   0  0  0  0  0  0  0  0  0  0  0  0
    5.9910    0.5120   -2.3530 C   0  0  0  0  0  0  0  0  0  0  0  0
    6.7360    0.9150   -1.2730 O   0  0  0  0  0  0  0  0  0  0  0  0
    6.5790    0.1290   -0.1460 C   0  0  2  0  0  0  0  0  0  0  0  0
    7.5000    0.6860    0.9260 C   0  0  0  0  0  0  0  0  0  0  0  0
    8.7700   -0.1170    0.6620 C   0  0  0  0  0  0  0  0  0  0  0  0
    8.2180   -1.4520    0.4920 N   0  0  0  0  0  0  0  0  0  0  0  0
    7.0440   -1.2790   -0.3280 C   0  0  0  0  0  0  0  0  0  0  0  0
    5.1510    0.1990    0.4010 C   0  0  0  0  0  0  0  0  0  0  0  0
  1  2  2  0
  1 17  1  0
  2  3  1  0
  4  3  1  6
  3 16  1  0
  4  5  1  0
  4 15  1  0
  5  6  1  0
  7  6  1  1
  7  8  1  0
  7 14  1  0
  8  9  1  6
  8 13  1  0
  9 10  1  0
 10 11  1  0
 11 12  1  0
 12 13  1  0
 14 15  1  0
 16 17  2  0
 17 18  1  0
 18 19  1  0
 20 19  1  1
 20 21  1  0
 20 29  1  0
 21 22  1  0
 22 23  1  0
 23 24  1  0
 24 25  1  1
 24 28  1  0
 24 29  1  0
 25 26  1  0
 26 27  1  0
 27 28  1  0
M  CHG  3   7   1  19   1  27   1
M  END
