
     RDKit          3D

 29 31  0  0  0  0  0  0  0  0999 V2000
    4.7960    3.9100   -0.7810 C   0  0  0  0  0  0  0  0  0  0  0  0
    4.6320    2.5070   -0.6940 O   0  0  0  0  0  0  0  0  0  0  0  0
    3.4540    1.8800   -0.3540 C   0  0  0  0  0  0  0  0  0  0  0  0
    2.4480    2.5760   -0.0990 O   0  0  0  0  0  0  0  0  0  0  0  0
    3.3300    0.4010   -0.2760 C   0  0  1  0  0  0  0  0  0  0  0  0
    2.0470   -0.0600    0.0690 N   0  0  0  0  0  0  0  0  0  0  0  0
    1.1090   -0.3380   -0.9580 C   0  0  2  0  0  0  0  0  0  0  0  0
    0.0950    0.7620   -1.1680 C   0  0  0  0  0  0  0  0  0  0  0  0
   -1.2830    0.1690   -1.4970 C   0  0  0  0  0  0  0  0  0  0  0  0
   -1.7290   -0.4630   -0.2720 N   0  0  0  0  0  0  0  0  0  0  0  0
   -3.0280   -0.2680    0.2270 C   0  0  0  0  0  0  0  0  0  0  0  0
   -3.2020    0.7310    1.2160 N   0  0  0  0  0  0  0  0  0  0  0  0
   -4.4810    1.3610    1.4400 C   0  0  0  0  0  0  0  0  0  0  0  0
   -4.7650    2.2010    0.1890 C   0  0  1  0  0  0  0  0  0  0  0  0
   -6.0920    2.9170    0.3040 C   0  0  0  0  0  0  0  0  0  0  0  0
   -3.6150    3.1810    0.0800 C   0  0  0  0  0  0  0  0  0  0  0  0
   -4.0560   -0.9510   -0.1700 N   0  0  0  0  0  0  0  0  0  0  0  0
   -4.0130   -1.9880   -1.1620 C   0  0  0  0  0  0  0  0  0  0  0  0
   -4.0690   -3.3280   -0.4580 C   0  0  2  0  0  0  0  0  0  0  0  0
   -5.2410   -3.6780    0.3990 C   0  0  0  0  0  0  0  0  0  0  0  0
   -3.8890   -3.3800    1.0310 C   0  0  0  0  0  0  0  0  0  0  0  0
   -0.7730   -1.3030    0.4180 C   0  0  0  0  0  0  0  0  0  0  0  0
    0.3310   -1.5920   -0.5690 C   0  0  0  0  0  0  0  0  0  0  0  0
    3.9420   -0.1490   -1.5320 C   0  0  0  0  0  0  0  0  0  0  0  0
    4.3190   -1.5780   -1.2920 C   0  0  0  0  0  0  0  0  0  0  0  0
    5.5500   -1.5790   -0.5120 N   0  0  0  0  0  0  0  0  0  0  0  0
    5.6230   -0.4170    0.3560 C   0  0  2  0  0  0  0  0  0  0  0  0
    6.4320   -0.8480    1.5870 C   0  0  0  0  0  0  0  0  0  0  0  0
    4.2790   -0.0130    0.8630 C   0  0  0  0  0  0  0  0  0  0  0  0
  1  2  1  0
  2  3  1  0
  3  4  2  0
  3  5  1  0
  5  6  1  1
  5 24  1  0
  5 29  1  0
  7  6  1  1
  7  8  1  0
  7 23  1  0
  8  9  1  0
  9 10  1  0
 10 11  1  0
 10 22  1  0
 11 12  1  0
 11 17  2  3
 12 13  1  0
 13 14  1  0
 14 15  1  1
 14 16  1  0
 17 18  1  0
 19 18  1  1
 19 20  1  0
 19 21  1  0
 20 21  1  0
 22 23  1  0
 24 25  1  0
 25 26  1  0
 26 27  1  0
 27 28  1  1
 27 29  1  0
M  CHG  3   6   1  17   1  26   1
M  END
