
     RDKit          3D

 29 31  0  0  0  0  0  0  0  0999 V2000
    7.6170    1.0600   -0.9650 C   0  0  0  0  0  0  0  0  0  0  0  0
    8.0060   -0.1150   -0.3560 O   0  0  0  0  0  0  0  0  0  0  0  0
    6.7350   -1.2180   -0.3750 S   0  0  1  0  0  0  0  0  0  0  0  0
    6.2960   -1.4320   -1.7830 O   0  0  0  0  0  0  0  0  0  0  0  0
    7.1940   -2.5060    0.2510 O   0  0  0  0  0  0  0  0  0  0  0  0
    5.3680   -0.6080    0.5460 C   0  0  0  0  0  0  0  0  0  0  0  0
    4.4430    0.1530   -0.1370 C   0  0  0  0  0  0  0  0  0  0  0  0
    3.3650    0.6340    0.5720 C   0  0  0  0  0  0  0  0  0  0  0  0
    3.1570    0.4020    1.9150 C   0  0  0  0  0  0  0  0  0  0  0  0
    2.0410    0.8950    2.6250 N   0  0  0  0  0  0  0  0  0  0  0  0
    0.9730    1.5540    1.9230 C   0  0  2  0  0  0  0  0  0  0  0  0
   -0.0610    2.1080    2.9200 C   0  0  0  0  0  0  0  0  0  0  0  0
   -1.4610    1.7830    2.4550 C   0  0  0  0  0  0  0  0  0  0  0  0
   -1.6550    1.9730    1.0930 O   0  0  0  0  0  0  0  0  0  0  0  0
   -0.9040    1.0760    0.3310 C   0  0  2  0  0  0  0  0  0  0  0  0
   -0.2650    1.8790   -0.7800 C   0  0  0  0  0  0  0  0  0  0  0  0
   -1.3310    2.0150   -1.8650 C   0  0  0  0  0  0  0  0  0  0  0  0
   -1.3730    0.6580   -2.5600 C   0  0  0  0  0  0  0  0  0  0  0  0
   -1.4910   -0.4550   -1.5620 C   0  0  2  0  0  0  0  0  0  0  0  0
   -2.3470   -1.6060   -2.0100 C   0  0  0  0  0  0  0  0  0  0  0  0
   -3.6600   -1.4070   -2.3510 N   0  0  0  0  0  0  0  0  0  0  0  0
   -4.7470   -1.1050   -1.5800 C   0  0  0  0  0  0  0  0  0  0  0  0
   -5.3020   -2.1300   -0.6340 C   0  0  2  0  0  0  0  0  0  0  0  0
   -6.5020   -1.4480    0.0480 C   0  0  0  0  0  0  0  0  0  0  0  0
   -4.4030   -2.5950    0.4500 C   0  0  0  0  0  0  0  0  0  0  0  0
   -1.7560   -0.0650   -0.1770 C   0  0  0  0  0  0  0  0  0  0  0  0
    0.2120    0.4780    1.1690 C   0  0  0  0  0  0  0  0  0  0  0  0
    4.1330   -0.3780    2.5530 C   0  0  0  0  0  0  0  0  0  0  0  0
    5.2260   -0.8830    1.8970 C   0  0  0  0  0  0  0  0  0  0  0  0
  1  2  1  0
  3  2  1  6
  3  4  2  0
  3  5  2  0
  3  6  1  0
  6  7  2  0
  6 29  1  0
  7  8  1  0
  8  9  2  0
  9 10  1  0
  9 28  1  0
 11 10  1  1
 11 12  1  0
 11 27  1  0
 12 13  1  0
 13 14  1  0
 14 15  1  0
 15 16  1  6
 15 26  1  0
 15 27  1  0
 16 17  1  0
 17 18  1  0
 18 19  1  0
 19 20  1  6
 19 26  1  0
 20 21  1  0
 21 22  1  0
 22 23  1  0
 23 24  1  1
 23 25  1  0
 28 29  2  0
M  END
