
     RDKit          3D

 29 32  0  0  0  0  0  0  0  0999 V2000
    0.6080    1.8360    2.4820 C   0  0  0  0  0  0  0  0  0  0  0  0
    0.7900    2.6830    1.2820 C   0  0  0  0  0  0  0  0  0  0  0  0
    0.9870    3.8810    1.4810 O   0  0  0  0  0  0  0  0  0  0  0  0
    0.7410    2.1290   -0.0980 C   0  0  0  0  0  0  0  0  0  0  0  0
    0.4060    0.7380   -0.0240 N   0  0  0  0  0  0  0  0  0  0  0  0
    1.4830   -0.2030    0.1470 C   0  0  0  0  0  0  0  0  0  0  0  0
    1.2060   -1.4520    0.1910 O   0  0  0  0  0  0  0  0  0  0  0  0
    2.8370    0.1290    0.2740 N   0  0  0  0  0  0  0  0  0  0  0  0
    3.9600   -0.6930    0.4410 C   0  0  0  0  0  0  0  0  0  0  0  0
    3.9100   -1.9910    0.5060 C   0  0  0  0  0  0  0  0  0  0  0  0
    5.2300   -2.7030    0.6880 C   0  0  0  0  0  0  0  0  0  0  0  0
    6.1480   -2.0650   -0.3350 C   0  0  0  0  0  0  0  0  0  0  0  0
    6.3970   -0.7280    0.0870 N   0  0  1  0  0  0  0  0  0  0  0  0
    7.0800    0.0450   -0.9580 C   0  0  1  0  0  0  0  0  0  0  0  0
    7.7720    1.3110   -0.6050 C   0  0  0  0  0  0  0  0  0  0  0  0
    8.5530    0.0400   -0.9570 C   0  0  0  0  0  0  0  0  0  0  0  0
    5.2920    0.0240    0.5490 C   0  0  0  0  0  0  0  0  0  0  0  0
   -0.9190    0.2080   -0.1280 C   0  0  1  0  0  0  0  0  0  0  0  0
   -1.9180    0.7260    0.8490 C   0  0  0  0  0  0  0  0  0  0  0  0
   -3.3450    0.4760    0.4370 C   0  0  0  0  0  0  0  0  0  0  0  0
   -3.5160   -0.6090   -0.5760 C   0  0  1  0  0  0  0  0  0  0  0  0
   -4.8660   -0.4770   -1.1350 N   0  0  0  0  0  0  0  0  0  0  0  0
   -5.8800   -0.5930   -0.1340 C   0  0  1  0  0  0  0  0  0  0  0  0
   -6.5660    0.7490    0.1290 C   0  0  0  0  0  0  0  0  0  0  0  0
   -7.9650    0.3460    0.5120 C   0  0  0  0  0  0  0  0  0  0  0  0
   -8.1830   -0.9900    0.0250 N   0  0  0  0  0  0  0  0  0  0  0  0
   -7.0320   -1.3830   -0.7300 C   0  0  0  0  0  0  0  0  0  0  0  0
   -2.5640   -0.5660   -1.7150 C   0  0  0  0  0  0  0  0  0  0  0  0
   -1.5200    0.5080   -1.5170 C   0  0  0  0  0  0  0  0  0  0  0  0
  1  2  1  0
  2  3  2  0
  2  4  1  0
  4  5  1  0
  5  6  1  0
 18  5  1  6
  6  7  2  0
  6  8  1  0
  8  9  1  0
  9 10  2  0
  9 17  1  0
 10 11  1  0
 11 12  1  0
 13 12  1  6
 13 14  1  0
 13 17  1  0
 14 15  1  1
 14 16  1  0
 15 16  1  0
 18 19  1  0
 18 29  1  0
 19 20  1  0
 20 21  1  0
 21 22  1  6
 21 28  1  0
 23 22  1  6
 23 24  1  0
 23 27  1  0
 24 25  1  0
 25 26  1  0
 26 27  1  0
 28 29  1  0
M  CHG  3  13   1  22   1  26   1
M  END
