
     RDKit          3D

 18 20  0  0  0  0  0  0  0  0999 V2000
    5.9770   -0.8470   -1.7930 C   0  0  0  0  0  0  0  0  0  0  0  0
    4.7440   -0.5450   -1.0330 C   0  0  0  0  0  0  0  0  0  0  0  0
    3.4850   -0.9190   -1.3920 N   0  0  0  0  0  0  0  0  0  0  0  0
    2.6750   -0.4390   -0.4240 C   0  0  0  0  0  0  0  0  0  0  0  0
    1.3440   -0.5180   -0.2770 N   0  0  0  0  0  0  0  0  0  0  0  0
    0.6860    0.0250    0.7620 C   0  0  0  0  0  0  0  0  0  0  0  0
   -0.7910   -0.0950    0.8710 C   0  0  0  0  0  0  0  0  0  0  0  0
   -1.4630    1.0070    0.2200 N   0  0  0  0  0  0  0  0  0  0  0  0
   -2.8760    0.8650    0.3150 C   0  0  2  0  0  0  0  0  0  0  0  0
   -3.3640   -0.4800    0.7120 C   0  0  0  0  0  0  0  0  0  0  0  0
   -3.5400   -1.2670   -0.5630 C   0  0  0  0  0  0  0  0  0  0  0  0
   -3.1940   -0.3120   -1.6990 C   0  0  0  0  0  0  0  0  0  0  0  0
   -3.5120    1.0260   -1.0740 C   0  0  2  0  0  0  0  0  0  0  0  0
   -2.8440    2.3840   -1.9570 Cl  0  0  0  0  0  0  0  0  0  0  0  0
    1.4420    0.6890    1.7070 C   0  0  0  0  0  0  0  0  0  0  0  0
    2.8130    0.7910    1.5900 C   0  0  0  0  0  0  0  0  0  0  0  0
    3.4530    0.2180    0.5040 C   0  0  0  0  0  0  0  0  0  0  0  0
    4.6930    0.1220    0.0850 O   0  0  0  0  0  0  0  0  0  0  0  0
  1  2  1  0
  2  3  2  0
  2 18  1  0
  3  4  1  0
  4  5  2  0
  4 17  1  0
  5  6  1  0
  6  7  1  0
  6 15  2  0
  7  8  1  0
  9  8  1  6
  9 10  1  0
  9 13  1  0
 10 11  1  0
 11 12  1  0
 12 13  1  0
 13 14  1  6
 15 16  1  0
 16 17  2  0
 17 18  1  0
M  CHG  1   8   1
M  END
