
     RDKit          3D

 18 20  0  0  0  0  0  0  0  0999 V2000
   -3.8280    1.3260   -1.2810 C   0  0  0  0  0  0  0  0  0  0  0  0
   -2.6770    0.5710   -0.6520 C   0  0  2  0  0  0  0  0  0  0  0  0
   -1.6260    0.3810   -1.7530 C   0  0  0  0  0  0  0  0  0  0  0  0
   -0.3270    0.2420   -1.0270 C   0  0  0  0  0  0  0  0  0  0  0  0
    0.7630    0.6050   -1.7880 C   0  0  0  0  0  0  0  0  0  0  0  0
    2.0030    0.5310   -1.2610 N   0  0  0  0  0  0  0  0  0  0  0  0
    2.2510    0.1140   -0.0070 C   0  0  0  0  0  0  0  0  0  0  0  0
    3.6100    0.0480    0.5280 C   0  0  0  0  0  0  0  0  0  0  0  0
    3.9620   -0.3640    1.7960 C   0  0  0  0  0  0  0  0  0  0  0  0
    5.3450   -0.2790    1.9020 C   0  0  0  0  0  0  0  0  0  0  0  0
    5.7550    0.1910    0.6630 C   0  0  0  0  0  0  0  0  0  0  0  0
    7.4380    0.4770    0.2690 Cl  0  0  0  0  0  0  0  0  0  0  0  0
    4.6990    0.3690   -0.1150 O   0  0  0  0  0  0  0  0  0  0  0  0
    1.1880   -0.2400    0.7370 N   0  0  0  0  0  0  0  0  0  0  0  0
   -0.0690   -0.1850    0.2600 C   0  0  0  0  0  0  0  0  0  0  0  0
   -1.0850   -0.6170    1.2350 C   0  0  0  0  0  0  0  0  0  0  0  0
   -2.1860   -1.4310    0.6200 C   0  0  0  0  0  0  0  0  0  0  0  0
   -3.0830   -0.7390   -0.2300 N   0  0  0  0  0  0  0  0  0  0  0  0
  2  1  1  6
  2  3  1  0
  2 18  1  0
  3  4  1  0
  4  5  2  0
  4 15  1  0
  5  6  1  0
  6  7  2  0
  7  8  1  0
  7 14  1  0
  8  9  2  0
  8 13  1  0
  9 10  1  0
 10 11  2  0
 11 12  1  0
 11 13  1  0
 14 15  2  0
 15 16  1  0
 16 17  1  0
 17 18  1  0
M  CHG  1  18   1
M  END
