
     RDKit          3D

 18 20  0  0  0  0  0  0  0  0999 V2000
    7.4310   -0.6900    0.1390 Cl  0  0  0  0  0  0  0  0  0  0  0  0
    5.7330   -0.3140   -0.0770 C   0  0  0  0  0  0  0  0  0  0  0  0
    5.3880    0.7690   -0.8540 C   0  0  0  0  0  0  0  0  0  0  0  0
    4.0520    1.0750   -1.0320 C   0  0  0  0  0  0  0  0  0  0  0  0
    3.0430    0.3330   -0.4580 C   0  0  0  0  0  0  0  0  0  0  0  0
    1.6350    0.6530   -0.6440 C   0  0  0  0  0  0  0  0  0  0  0  0
    1.2060    1.6920   -1.3860 N   0  0  0  0  0  0  0  0  0  0  0  0
   -0.0700    1.7110   -1.3570 O   0  0  0  0  0  0  0  0  0  0  0  0
   -0.5250    0.7240   -0.6230 C   0  0  0  0  0  0  0  0  0  0  0  0
   -1.9410    0.4580   -0.3820 C   0  0  2  0  0  0  0  0  0  0  0  0
   -2.2900    0.5340    1.1110 C   0  0  0  0  0  0  0  0  0  0  0  0
   -3.8140    0.7140    1.1270 C   0  0  0  0  0  0  0  0  0  0  0  0
   -4.3920   -0.4760    0.4190 C   0  0  0  0  0  0  0  0  0  0  0  0
   -3.3890   -1.4350    0.0260 N   0  0  0  0  0  0  0  0  0  0  0  0
   -2.3870   -0.9040   -0.8470 C   0  0  0  0  0  0  0  0  0  0  0  0
    0.5470    0.0550   -0.1720 N   0  0  0  0  0  0  0  0  0  0  0  0
    3.4090   -0.7410    0.3110 C   0  0  0  0  0  0  0  0  0  0  0  0
    4.7400   -1.0880    0.5190 C   0  0  0  0  0  0  0  0  0  0  0  0
  1  2  1  0
  2  3  2  0
  2 18  1  0
  3  4  1  0
  4  5  2  0
  5  6  1  0
  5 17  1  0
  6  7  2  0
  6 16  1  0
  7  8  1  0
  8  9  1  0
 10  9  1  1
  9 16  2  0
 10 11  1  0
 10 15  1  0
 11 12  1  0
 12 13  1  0
 13 14  1  0
 14 15  1  0
 17 18  2  0
M  CHG  1  14   1
M  END
