
     RDKit          3D

 18 19  0  0  0  0  0  0  0  0999 V2000
    4.5040   -0.7830   -1.0830 C   0  0  0  0  0  0  0  0  0  0  0  0
    4.3460    0.6160   -0.4850 C   0  0  0  0  0  0  0  0  0  0  0  0
    3.7280    0.5160    0.9070 C   0  0  0  0  0  0  0  0  0  0  0  0
    2.3930   -0.1220    0.7670 C   0  0  0  0  0  0  0  0  0  0  0  0
    2.2010   -1.4160    1.0730 N   0  0  0  0  0  0  0  0  0  0  0  0
    0.9680   -1.9790    0.9340 C   0  0  0  0  0  0  0  0  0  0  0  0
   -0.0250   -1.2260    0.4950 N   0  0  0  0  0  0  0  0  0  0  0  0
    0.0890    0.0450    0.1770 N   0  0  0  0  0  0  0  0  0  0  0  0
   -0.9600    0.8670   -0.2870 C   0  0  0  0  0  0  0  0  0  0  0  0
   -2.2000    0.4890   -0.3930 C   0  0  0  0  0  0  0  0  0  0  0  0
   -2.6420   -0.8580   -0.0340 C   0  0  0  0  0  0  0  0  0  0  0  0
   -3.8390   -1.0220    0.5400 C   0  0  0  0  0  0  0  0  0  0  0  0
   -4.4710   -2.5440    1.0110 Cl  0  0  0  0  0  0  0  0  0  0  0  0
   -4.6460    0.2420    0.7360 C   0  0  0  0  0  0  0  0  0  0  0  0
   -4.6010    0.8880   -0.6530 C   0  0  0  0  0  0  0  0  0  0  0  0
   -3.2340    1.4420   -0.8730 C   0  0  0  0  0  0  0  0  0  0  0  0
    1.3300    0.6210    0.3130 C   0  0  0  0  0  0  0  0  0  0  0  0
    1.5080    1.8340    0.0260 O   0  0  0  0  0  0  0  0  0  0  0  0
  1  2  1  0
  2  3  1  0
  3  4  1  0
  4  5  2  0
  4 17  1  0
  5  6  1  0
  6  7  2  0
  7  8  1  0
  8  9  1  0
  8 17  1  0
  9 10  2  3
 10 11  1  0
 10 16  1  0
 11 12  2  0
 12 13  1  0
 12 14  1  0
 14 15  1  0
 15 16  1  0
 17 18  2  0
M  CHG  1   5   1
M  END
