
     RDKit          3D

 18 20  0  0  0  0  0  0  0  0999 V2000
    1.7000   -1.3570    1.6120 Cl  0  0  0  0  0  0  0  0  0  0  0  0
    3.0030   -0.8140    0.5550 C   0  0  0  0  0  0  0  0  0  0  0  0
    3.9330   -1.6240    0.0960 C   0  0  0  0  0  0  0  0  0  0  0  0
    4.8450   -0.8330   -0.7460 C   0  0  0  0  0  0  0  0  0  0  0  0
    4.2740    0.5310   -0.6790 C   0  0  0  0  0  0  0  0  0  0  0  0
    3.1980    0.5440    0.0800 C   0  0  0  0  0  0  0  0  0  0  0  0
    2.4110    1.6420    0.3660 O   0  0  0  0  0  0  0  0  0  0  0  0
    1.1020    1.6290    0.8200 C   0  0  0  0  0  0  0  0  0  0  0  0
    0.2220    0.9350   -0.1810 C   0  0  0  0  0  0  0  0  0  0  0  0
    0.5720    0.3730   -1.3880 C   0  0  0  0  0  0  0  0  0  0  0  0
   -0.5400   -0.1250   -1.9310 N   0  0  0  0  0  0  0  0  0  0  0  0
   -1.5760    0.0890   -1.1380 N   0  0  0  0  0  0  0  0  0  0  0  0
   -1.1460    0.7370   -0.0540 C   0  0  0  0  0  0  0  0  0  0  0  0
   -1.9170    1.2050    1.1270 C   0  0  0  0  0  0  0  0  0  0  0  0
   -3.0840    0.2980    1.4490 C   0  0  0  0  0  0  0  0  0  0  0  0
   -2.8100   -0.9890    0.8570 N   0  0  0  0  0  0  0  0  0  0  0  0
   -3.6080   -1.0640   -0.3660 C   0  0  0  0  0  0  0  0  0  0  0  0
   -2.9050   -0.3590   -1.5030 C   0  0  0  0  0  0  0  0  0  0  0  0
  1  2  1  0
  2  3  2  0
  2  6  1  0
  3  4  1  0
  4  5  1  0
  5  6  2  0
  6  7  1  0
  7  8  1  0
  8  9  1  0
  9 10  1  0
  9 13  2  0
 10 11  2  0
 11 12  1  0
 12 13  1  0
 12 18  1  0
 13 14  1  0
 14 15  1  0
 15 16  1  0
 16 17  1  0
 17 18  1  0
M  CHG  1  16   1
M  END
