
     RDKit          3D

 18 20  0  0  0  0  0  0  0  0999 V2000
    6.0310    0.9150   -1.6960 Cl  0  0  0  0  0  0  0  0  0  0  0  0
    4.5730    0.2520   -1.0120 C   0  0  0  0  0  0  0  0  0  0  0  0
    4.6180   -1.0220   -0.4600 C   0  0  0  0  0  0  0  0  0  0  0  0
    3.4710   -1.5530    0.0820 C   0  0  0  0  0  0  0  0  0  0  0  0
    2.2760   -0.8140    0.0760 C   0  0  0  0  0  0  0  0  0  0  0  0
    1.2040   -1.4490    0.6440 O   0  0  0  0  0  0  0  0  0  0  0  0
   -0.0800   -0.9270    0.7500 C   0  0  0  0  0  0  0  0  0  0  0  0
   -0.5280   -0.4610   -0.3840 N   0  0  0  0  0  0  0  0  0  0  0  0
   -1.8030    0.1150   -0.5160 C   0  0  0  0  0  0  0  0  0  0  0  0
   -2.3030    0.6160   -1.7060 C   0  0  0  0  0  0  0  0  0  0  0  0
   -3.5670    1.1680   -1.7570 C   0  0  0  0  0  0  0  0  0  0  0  0
   -4.3190    1.2090   -0.6020 C   0  0  0  0  0  0  0  0  0  0  0  0
   -3.8480    0.7250    0.5660 N   0  0  0  0  0  0  0  0  0  0  0  0
   -2.6150    0.1880    0.6110 C   0  0  0  0  0  0  0  0  0  0  0  0
   -2.1370   -0.3160    1.8460 N   0  0  0  0  0  0  0  0  0  0  0  0
   -0.8480   -0.9050    2.0120 C   0  0  0  0  0  0  0  0  0  0  0  0
    2.2390    0.4400   -0.4690 C   0  0  0  0  0  0  0  0  0  0  0  0
    3.3970    0.9740   -1.0160 C   0  0  0  0  0  0  0  0  0  0  0  0
  1  2  1  0
  2  3  2  0
  2 18  1  0
  3  4  1  0
  4  5  2  0
  5  6  1  0
  5 17  1  0
  6  7  1  0
  7  8  2  0
  7 16  1  0
  8  9  1  0
  9 10  2  0
  9 14  1  0
 10 11  1  0
 11 12  2  0
 12 13  1  0
 13 14  2  0
 14 15  1  0
 15 16  1  0
 17 18  2  0
M  CHG  1  13   1
M  END
