
     RDKit          3D

 29 32  0  0  0  0  0  0  0  0999 V2000
   -6.4640   -3.0740    0.9280 C   0  0  0  0  0  0  0  0  0  0  0  0
   -5.9380   -1.6580    0.8070 C   0  0  1  0  0  0  0  0  0  0  0  0
   -5.7110   -1.1760    2.2430 C   0  0  0  0  0  0  0  0  0  0  0  0
   -4.7070   -1.6300    0.0610 N   0  0  0  0  0  0  0  0  0  0  0  0
   -4.0010   -0.4380   -0.2350 C   0  0  0  0  0  0  0  0  0  0  0  0
   -4.5220    0.7830    0.1700 C   0  0  0  0  0  0  0  0  0  0  0  0
   -3.8510    1.9430   -0.1060 C   0  0  0  0  0  0  0  0  0  0  0  0
   -2.6660    1.9030   -0.7800 C   0  0  0  0  0  0  0  0  0  0  0  0
   -1.9560    3.0760   -1.0770 C   0  0  0  0  0  0  0  0  0  0  0  0
   -0.7670    2.9600   -1.7600 C   0  0  0  0  0  0  0  0  0  0  0  0
   -0.2290    1.7590   -2.1720 C   0  0  0  0  0  0  0  0  0  0  0  0
    1.0610    1.6780   -2.9100 C   0  0  0  0  0  0  0  0  0  0  0  0
    2.2310    1.5380   -1.9620 C   0  0  0  0  0  0  0  0  0  0  0  0
    2.0270    0.2570   -1.1550 C   0  0  0  0  0  0  0  0  0  0  0  0
    3.1370    0.1000   -0.2360 N   0  0  0  0  0  0  0  0  0  0  0  0
    3.1070    0.6140    1.0050 C   0  0  0  0  0  0  0  0  0  0  0  0
    2.0690    1.2460    1.3520 O   0  0  0  0  0  0  0  0  0  0  0  0
    4.1290    0.4630    1.8350 N   0  0  0  0  0  0  0  0  0  0  0  0
    5.2580   -0.2000    1.5200 C   0  0  0  0  0  0  0  0  0  0  0  0
    6.3140   -0.3490    2.3950 C   0  0  0  0  0  0  0  0  0  0  0  0
    7.4560   -1.0360    2.0360 C   0  0  0  0  0  0  0  0  0  0  0  0
    7.5050   -1.5720    0.7630 C   0  0  0  0  0  0  0  0  0  0  0  0
    6.4540   -1.4280   -0.1200 C   0  0  0  0  0  0  0  0  0  0  0  0
    5.3090   -0.7370    0.2470 C   0  0  0  0  0  0  0  0  0  0  0  0
    4.2440   -0.5720   -0.5990 C   0  0  0  0  0  0  0  0  0  0  0  0
    4.3200   -1.0740   -1.7570 O   0  0  0  0  0  0  0  0  0  0  0  0
   -0.9430    0.6620   -1.8660 N   0  0  0  0  0  0  0  0  0  0  0  0
   -2.1250    0.7040   -1.1940 C   0  0  0  0  0  0  0  0  0  0  0  0
   -2.8110   -0.4780   -0.9120 C   0  0  0  0  0  0  0  0  0  0  0  0
  2  1  1  1
  2  3  1  0
  2  4  1  0
  4  5  1  0
  5  6  2  0
  5 29  1  0
  6  7  1  0
  7  8  2  0
  8  9  1  0
  8 28  1  0
  9 10  2  0
 10 11  1  0
 11 12  1  0
 11 27  2  0
 12 13  1  0
 13 14  1  0
 14 15  1  0
 15 16  1  0
 15 25  1  0
 16 17  2  0
 16 18  1  0
 18 19  1  0
 19 20  2  0
 19 24  1  0
 20 21  1  0
 21 22  2  0
 22 23  1  0
 23 24  2  0
 24 25  1  0
 25 26  2  0
 27 28  1  0
 28 29  2  0
M  END
