
     RDKit          3D

 31 33  0  0  0  0  0  0  0  0999 V2000
    3.2690    0.7270   -4.8640 C   0  0  0  0  0  0  0  0  0  0  0  0
    2.4860   -0.3450   -4.4340 O   0  0  0  0  0  0  0  0  0  0  0  0
    1.1990   -0.2690   -3.9600 C   0  0  0  0  0  0  0  0  0  0  0  0
    0.1640   -0.3760   -4.8680 C   0  0  0  0  0  0  0  0  0  0  0  0
    0.4570   -0.5540   -6.2160 O   0  0  0  0  0  0  0  0  0  0  0  0
   -1.1350   -0.3080   -4.4550 C   0  0  0  0  0  0  0  0  0  0  0  0
   -2.5890   -0.4540   -5.7030 Br  0  0  0  0  0  0  0  0  0  0  0  0
   -1.3870   -0.1280   -3.0870 C   0  0  0  0  0  0  0  0  0  0  0  0
   -0.3650   -0.0230   -2.1950 C   0  0  0  0  0  0  0  0  0  0  0  0
   -0.5660    0.1620   -0.8120 N   0  0  0  0  0  0  0  0  0  0  0  0
   -1.8200    0.2450   -0.1930 C   0  0  0  0  0  0  0  0  0  0  0  0
   -2.8880    0.1300   -0.8800 O   0  0  0  0  0  0  0  0  0  0  0  0
   -2.0270    0.4570    1.2590 C   0  0  0  0  0  0  0  0  0  0  0  0
   -1.1440    1.1720    2.0000 C   0  0  0  0  0  0  0  0  0  0  0  0
    0.0200    1.9330    1.5040 C   0  0  0  0  0  0  0  0  0  0  0  0
   -1.3820    1.2560    3.3890 C   0  0  0  0  0  0  0  0  0  0  0  0
   -2.4640    0.6420    3.9710 C   0  0  0  0  0  0  0  0  0  0  0  0
   -3.3460   -0.0740    3.2010 C   0  0  0  0  0  0  0  0  0  0  0  0
   -3.1460   -0.1800    1.8410 C   0  0  0  0  0  0  0  0  0  0  0  0
   -4.2330   -0.9990    1.2900 C   0  0  0  0  0  0  0  0  0  0  0  0
   -5.3570   -0.7840    2.3000 C   0  0  0  0  0  0  0  0  0  0  0  0
   -4.5850   -0.8230    3.5990 C   0  0  0  0  0  0  0  0  0  0  0  0
    0.9710   -0.0920   -2.6170 C   0  0  0  0  0  0  0  0  0  0  0  0
    1.9640    0.0190   -1.6790 O   0  0  0  0  0  0  0  0  0  0  0  0
    2.4930   -1.0890   -1.0310 C   0  0  0  0  0  0  0  0  0  0  0  0
    1.9970   -2.2090   -1.3650 O   0  0  0  0  0  0  0  0  0  0  0  0
    3.5460   -0.9860   -0.0330 C   0  0  0  0  0  0  0  0  0  0  0  0
    4.0270    0.1960    0.2800 C   0  0  0  0  0  0  0  0  0  0  0  0
    5.1040    0.3940    1.2880 C   0  0  0  0  0  0  0  0  0  0  0  0
    4.4230    1.4620    2.6050 S   0  0  0  0  0  0  0  0  0  0  0  0
    3.1080    0.5260    3.4470 C   0  0  0  0  0  0  0  0  0  0  0  0
  1  2  1  0
  2  3  1  0
  3  4  2  0
  3 23  1  0
  4  5  1  0
  4  6  1  0
  6  7  1  0
  6  8  2  0
  8  9  1  0
  9 10  1  0
  9 23  2  0
 10 11  1  0
 11 12  2  0
 11 13  1  0
 13 14  2  0
 13 19  1  0
 14 15  1  0
 14 16  1  0
 16 17  2  0
 17 18  1  0
 18 19  2  0
 18 22  1  0
 19 20  1  0
 20 21  1  0
 21 22  1  0
 23 24  1  0
 24 25  1  0
 25 26  2  0
 25 27  1  0
 27 28  2  3
 28 29  1  0
 29 30  1  0
 30 31  1  0
M  END
