
     RDKit          3D

 31 33  0  0  0  0  0  0  0  0999 V2000
   -7.2660    2.4610   -2.3070 C   0  0  0  0  0  0  0  0  0  0  0  0
   -6.5040    1.2400   -2.7020 C   0  0  0  0  0  0  0  0  0  0  0  0
   -5.5080    0.8300   -1.9400 C   0  0  0  0  0  0  0  0  0  0  0  0
   -5.1480    1.5460   -0.7360 C   0  0  0  0  0  0  0  0  0  0  0  0
   -4.1570    1.1210    0.0050 C   0  0  0  0  0  0  0  0  0  0  0  0
   -3.2970   -0.0690   -0.2360 C   0  0  0  0  0  0  0  0  0  0  0  0
   -2.9510   -0.4540    1.1810 C   0  0  1  0  0  0  0  0  0  0  0  0
   -1.7260   -1.1850    1.2770 N   0  0  0  0  0  0  0  0  0  0  0  0
   -1.7470   -2.5310    1.7920 C   0  0  0  0  0  0  0  0  0  0  0  0
   -1.9530   -3.5760    0.7270 C   0  0  0  0  0  0  0  0  0  0  0  0
   -3.1570   -3.4070    0.0500 O   0  0  0  0  0  0  0  0  0  0  0  0
   -0.5030   -0.6200    0.8780 C   0  0  0  0  0  0  0  0  0  0  0  0
   -0.4910    0.5530    0.4300 O   0  0  0  0  0  0  0  0  0  0  0  0
    0.7990   -1.3250    0.9510 C   0  0  0  0  0  0  0  0  0  0  0  0
    1.9390   -0.4870    0.4770 C   0  0  0  0  0  0  0  0  0  0  0  0
    3.1930   -1.2550    0.5800 C   0  0  0  0  0  0  0  0  0  0  0  0
    3.1500   -2.4270    1.0190 O   0  0  0  0  0  0  0  0  0  0  0  0
    4.4060   -0.6690    0.1890 C   0  0  0  0  0  0  0  0  0  0  0  0
    4.7900    0.5330   -0.3100 C   0  0  0  0  0  0  0  0  0  0  0  0
    6.0690    0.8130   -0.5980 C   0  0  0  0  0  0  0  0  0  0  0  0
    6.5940    2.0260   -1.1210 C   0  0  0  0  0  0  0  0  0  0  0  0
    7.9210    2.1820   -1.3700 C   0  0  0  0  0  0  0  0  0  0  0  0
    8.5050    3.8930   -2.0860 Br  0  0  0  0  0  0  0  0  0  0  0  0
    8.8460    1.2000   -1.1410 C   0  0  0  0  0  0  0  0  0  0  0  0
    8.3720    0.0060   -0.6320 C   0  0  0  0  0  0  0  0  0  0  0  0
    9.2190   -1.0640   -0.3590 O   0  0  0  0  0  0  0  0  0  0  0  0
    7.0290   -0.1350   -0.3860 C   0  0  0  0  0  0  0  0  0  0  0  0
    6.0480   -1.5350    0.2720 S   0  0  0  0  0  0  0  0  0  0  0  0
   -2.9560    0.8050    1.9190 C   0  0  0  0  0  0  0  0  0  0  0  0
   -3.6470    1.6990    1.2410 C   0  0  0  0  0  0  0  0  0  0  0  0
   -3.8930    3.0370    1.6060 O   0  0  0  0  0  0  0  0  0  0  0  0
  1  2  1  0
  2  3  2  3
  3  4  1  0
  4  5  2  3
  5  6  1  0
  5 30  1  0
  6  7  1  0
  7  8  1  6
  7 29  1  0
  8  9  1  0
  8 12  1  0
  9 10  1  0
 10 11  1  0
 12 13  2  0
 12 14  1  0
 14 15  1  0
 15 16  1  0
 16 17  2  0
 16 18  1  0
 18 19  2  0
 18 28  1  0
 19 20  1  0
 20 21  2  0
 20 27  1  0
 21 22  1  0
 22 23  1  0
 22 24  2  0
 24 25  1  0
 25 26  1  0
 25 27  2  0
 27 28  1  0
 29 30  2  0
 30 31  1  0
M  END
