
     RDKit          3D

 31 33  0  0  0  0  0  0  0  0999 V2000
    3.6490    1.4720   -3.3460 C   0  0  0  0  0  0  0  0  0  0  0  0
    2.5580    1.8410   -2.3420 C   0  0  0  0  0  0  0  0  0  0  0  0
    3.1120    2.0780   -1.0120 C   0  0  0  0  0  0  0  0  0  0  0  0
    2.7640    1.4930    0.1110 C   0  0  0  0  0  0  0  0  0  0  0  0
    3.3270    1.7220    1.4770 C   0  0  0  0  0  0  0  0  0  0  0  0
    3.5210    0.5080    2.1830 N   0  0  0  0  0  0  0  0  0  0  0  0
    4.9260    0.1560    2.0370 C   0  0  0  0  0  0  0  0  0  0  0  0
    5.4460   -0.7750    3.0760 C   0  0  0  0  0  0  0  0  0  0  0  0
    2.5210   -0.6520    1.3440 S   0  0  2  0  0  0  0  0  0  0  0  0
    1.6370   -1.3200    2.3090 O   0  0  0  0  0  0  0  0  0  0  0  0
    3.4120   -1.5890    0.5730 O   0  0  0  0  0  0  0  0  0  0  0  0
    1.6810    0.4880    0.2950 C   0  0  0  0  0  0  0  0  0  0  0  0
    0.4780    0.5360   -0.1620 C   0  0  0  0  0  0  0  0  0  0  0  0
   -0.6390   -0.3830   -0.0370 C   0  0  0  0  0  0  0  0  0  0  0  0
   -1.7210    0.0590    0.7620 C   0  0  0  0  0  0  0  0  0  0  0  0
   -1.5670    1.2680    1.4010 O   0  0  0  0  0  0  0  0  0  0  0  0
   -2.8760   -0.6470    0.9160 C   0  0  0  0  0  0  0  0  0  0  0  0
   -4.0130   -0.1270    1.7600 C   0  0  0  0  0  0  0  0  0  0  0  0
   -4.7520    0.9320    1.0270 C   0  0  0  0  0  0  0  0  0  0  0  0
   -4.4850    1.3940   -0.1820 C   0  0  0  0  0  0  0  0  0  0  0  0
   -5.4620    2.4550   -0.5580 C   0  0  0  0  0  0  0  0  0  0  0  0
   -6.3370    2.5250    0.6330 C   0  0  0  0  0  0  0  0  0  0  0  0
   -5.9120    1.6370    1.5430 C   0  0  0  0  0  0  0  0  0  0  0  0
   -2.9540   -1.8480    0.2450 C   0  0  0  0  0  0  0  0  0  0  0  0
   -4.5290   -2.8920    0.4070 Br  0  0  0  0  0  0  0  0  0  0  0  0
   -1.9440   -2.3270   -0.5400 C   0  0  0  0  0  0  0  0  0  0  0  0
   -2.0030   -3.5290   -1.2210 O   0  0  0  0  0  0  0  0  0  0  0  0
   -2.5170   -3.6460   -2.5360 C   0  0  0  0  0  0  0  0  0  0  0  0
   -0.7540   -1.5830   -0.6900 C   0  0  0  0  0  0  0  0  0  0  0  0
    0.2290   -2.1260   -1.5030 O   0  0  0  0  0  0  0  0  0  0  0  0
    1.1970   -3.0540   -1.1290 C   0  0  0  0  0  0  0  0  0  0  0  0
  1  2  1  0
  2  3  1  0
  3  4  2  3
  4  5  1  0
  4 12  1  0
  5  6  1  0
  6  7  1  0
  9  6  1  1
  7  8  1  0
  9 10  2  0
  9 11  2  0
  9 12  1  0
 12 13  2  3
 13 14  1  0
 14 15  2  0
 14 29  1  0
 15 16  1  0
 15 17  1  0
 17 18  1  0
 17 24  2  0
 18 19  1  0
 19 20  2  0
 19 23  1  0
 20 21  1  0
 21 22  1  0
 22 23  2  0
 24 25  1  0
 24 26  1  0
 26 27  1  0
 26 29  2  0
 27 28  1  0
 29 30  1  0
 30 31  1  0
M  END
