
     RDKit          3D

 31 33  0  0  0  0  0  0  0  0999 V2000
   -8.3800   -0.9130    2.5840 C   0  0  0  0  0  0  0  0  0  0  0  0
   -7.7920   -0.5620    1.4660 C   0  0  0  0  0  0  0  0  0  0  0  0
   -6.3450   -0.7470    1.2880 C   0  0  0  0  0  0  0  0  0  0  0  0
   -5.7140   -0.3790    0.1600 C   0  0  0  0  0  0  0  0  0  0  0  0
   -4.2840   -0.6060    0.0920 C   0  0  0  0  0  0  0  0  0  0  0  0
   -3.6970   -1.1480    1.1090 O   0  0  0  0  0  0  0  0  0  0  0  0
   -3.4700   -0.2780   -1.0170 N   0  0  0  0  0  0  0  0  0  0  0  0
   -2.0290   -0.5850   -0.9080 C   0  0  1  0  0  0  0  0  0  0  0  0
   -1.5540   -1.3950   -2.0640 C   0  0  0  0  0  0  0  0  0  0  0  0
   -0.0870   -1.3860   -2.1720 C   0  0  0  0  0  0  0  0  0  0  0  0
    0.6810   -0.7740   -1.0250 C   0  0  1  0  0  0  0  0  0  0  0  0
    2.3740   -0.5590   -1.6220 S   0  0  0  0  0  0  0  0  0  0  0  0
    3.5210    0.0060   -0.4310 C   0  0  0  0  0  0  0  0  0  0  0  0
    3.2670    0.2310    0.8990 C   0  0  0  0  0  0  0  0  0  0  0  0
    4.2840    0.6990    1.7420 C   0  0  0  0  0  0  0  0  0  0  0  0
    5.5570    0.9500    1.2930 C   0  0  0  0  0  0  0  0  0  0  0  0
    6.5400    1.4180    2.1680 O   0  0  0  0  0  0  0  0  0  0  0  0
    7.8630    1.6740    1.7770 C   0  0  0  0  0  0  0  0  0  0  0  0
    8.5500    0.4530    1.2960 C   0  0  0  0  0  0  0  0  0  0  0  0
    9.7140    0.4900    0.8470 O   0  0  0  0  0  0  0  0  0  0  0  0
    7.8980   -0.7650    1.3430 O   0  0  0  0  0  0  0  0  0  0  0  0
    8.5510   -1.9450    0.8850 C   0  0  0  0  0  0  0  0  0  0  0  0
    5.8060    0.7220   -0.0410 C   0  0  0  0  0  0  0  0  0  0  0  0
    4.8170    0.2660   -0.8680 C   0  0  0  0  0  0  0  0  0  0  0  0
    5.2600   -0.0210   -2.7140 Br  0  0  0  0  0  0  0  0  0  0  0  0
    0.1600    0.5920   -0.6580 C   0  0  0  0  0  0  0  0  0  0  0  0
   -1.3120    0.7450   -0.9690 C   0  0  0  0  0  0  0  0  0  0  0  0
   -6.5380    0.2010   -0.8730 C   0  0  0  0  0  0  0  0  0  0  0  0
   -5.9270    0.6040   -2.0710 O   0  0  0  0  0  0  0  0  0  0  0  0
   -7.8390    0.3950   -0.7980 C   0  0  0  0  0  0  0  0  0  0  0  0
   -8.6030    0.0270    0.3800 C   0  0  0  0  0  0  0  0  0  0  0  0
  1  2  2  0
  2  3  1  0
  2 31  1  0
  3  4  2  0
  4  5  1  0
  4 28  1  0
  5  6  2  0
  5  7  1  0
  8  7  1  6
  8  9  1  0
  8 27  1  0
  9 10  1  0
 10 11  1  0
 11 12  1  6
 11 26  1  0
 12 13  1  0
 13 14  2  0
 13 24  1  0
 14 15  1  0
 15 16  2  0
 16 17  1  0
 16 23  1  0
 17 18  1  0
 18 19  1  0
 19 20  2  0
 19 21  1  0
 21 22  1  0
 23 24  2  0
 24 25  1  0
 26 27  1  0
 28 29  1  0
 28 30  2  0
 30 31  1  0
M  END
