
     RDKit          3D

 31 33  0  0  0  0  0  0  0  0999 V2000
   -3.2060    0.2190   -3.3420 C   0  0  0  0  0  0  0  0  0  0  0  0
   -3.1370    0.8590   -2.2080 C   0  0  0  0  0  0  0  0  0  0  0  0
   -4.3290    1.0000   -1.4630 O   0  0  0  0  0  0  0  0  0  0  0  0
   -4.4010    0.9570   -0.0550 C   0  0  0  0  0  0  0  0  0  0  0  0
   -5.7750    0.8920    0.5250 C   0  0  0  0  0  0  0  0  0  0  0  0
   -3.4430    0.9650    0.8440 C   0  0  0  0  0  0  0  0  0  0  0  0
   -3.9410    0.9040    2.2700 C   0  0  0  0  0  0  0  0  0  0  0  0
   -2.0120    1.0110    0.6840 C   0  0  0  0  0  0  0  0  0  0  0  0
   -1.2310    1.1850   -0.4550 C   0  0  0  0  0  0  0  0  0  0  0  0
    0.0190    1.1770   -0.2810 O   0  0  0  0  0  0  0  0  0  0  0  0
    1.2880    1.1920   -0.1250 C   0  0  0  0  0  0  0  0  0  0  0  0
    2.2020    2.0270   -0.7680 C   0  0  0  0  0  0  0  0  0  0  0  0
    3.5430    2.0130   -0.5630 C   0  0  0  0  0  0  0  0  0  0  0  0
    4.4480    2.9540   -1.3080 C   0  0  0  0  0  0  0  0  0  0  0  0
    4.0720    1.1290    0.3300 C   0  0  0  0  0  0  0  0  0  0  0  0
    5.4610    1.0830    0.5710 N   0  0  0  0  0  0  0  0  0  0  0  0
    3.2140    0.2800    0.9930 C   0  0  0  0  0  0  0  0  0  0  0  0
    1.8790    0.2650    0.8140 C   0  0  0  0  0  0  0  0  0  0  0  0
    1.0930   -0.5640    1.4730 O   0  0  0  0  0  0  0  0  0  0  0  0
    0.3920   -1.3780    2.1320 C   0  0  0  0  0  0  0  0  0  0  0  0
    0.6880   -2.8530    1.9130 C   0  0  2  0  0  0  0  0  0  0  0  0
    2.0700   -3.1720    2.2730 C   0  0  0  0  0  0  0  0  0  0  0  0
    2.4030   -4.5470    1.7550 C   0  0  0  0  0  0  0  0  0  0  0  0
    1.5950   -4.5500    0.1740 S   0  0  2  0  0  0  0  0  0  0  0  0
    0.8150   -5.8200   -0.0340 O   0  0  0  0  0  0  0  0  0  0  0  0
    2.5270   -4.2880   -0.9550 O   0  0  0  0  0  0  0  0  0  0  0  0
    0.4770   -3.1750    0.4600 C   0  0  0  0  0  0  0  0  0  0  0  0
   -1.8370    1.3730   -1.8040 C   0  0  0  0  0  0  0  0  0  0  0  0
   -1.1740    2.1190   -2.6440 C   0  0  0  0  0  0  0  0  0  0  0  0
   -1.6310    2.5060   -3.9760 C   0  0  0  0  0  0  0  0  0  0  0  0
   -1.5910    4.4950   -4.0570 Br  0  0  0  0  0  0  0  0  0  0  0  0
  1  2  2  0
  2  3  1  0
  2 28  1  0
  3  4  1  0
  4  5  1  0
  4  6  2  0
  6  7  1  0
  6  8  1  0
  8  9  2  0
  9 10  1  0
  9 28  1  0
 10 11  1  0
 11 12  2  0
 11 18  1  0
 12 13  1  0
 13 14  1  0
 13 15  2  0
 15 16  1  0
 15 17  1  0
 17 18  2  0
 18 19  1  0
 19 20  1  0
 21 20  1  6
 21 22  1  0
 21 27  1  0
 22 23  1  0
 24 23  1  1
 24 25  2  0
 24 26  2  0
 24 27  1  0
 28 29  2  3
 29 30  1  0
 30 31  1  0
M  END
