
     RDKit          3D

 38 42  0  0  0  0  0  0  0  0999 V2000
    0.5660   -0.4170   -2.1400 C   0  0  0  0  0  0  0  0  0  0  0  0
    0.7420   -1.1610   -0.8450 C   0  0  0  0  0  0  0  0  0  0  0  0
   -0.2860   -1.5020   -0.0960 C   0  0  0  0  0  0  0  0  0  0  0  0
   -1.6220   -1.0780   -0.6380 C   0  0  0  0  0  0  0  0  0  0  0  0
   -2.7130   -1.4230    0.2510 N   0  0  0  0  0  0  0  0  0  0  0  0
   -4.0540   -1.4690   -0.2760 C   0  0  0  0  0  0  0  0  0  0  0  0
   -4.7620   -0.1640   -0.1570 C   0  0  0  0  0  0  0  0  0  0  0  0
   -4.2120    0.9640    0.4050 C   0  0  0  0  0  0  0  0  0  0  0  0
   -4.9450    2.1530    0.4820 C   0  0  0  0  0  0  0  0  0  0  0  0
   -6.2310    2.2220   -0.0020 C   0  0  0  0  0  0  0  0  0  0  0  0
   -6.7990    1.0990   -0.5690 C   0  0  0  0  0  0  0  0  0  0  0  0
   -6.0440   -0.0770   -0.6330 C   0  0  0  0  0  0  0  0  0  0  0  0
   -6.7120   -1.2420   -1.2510 C   0  0  0  0  0  0  0  0  0  0  0  0
   -8.1550    1.1790   -1.0780 C   0  0  0  0  0  0  0  0  0  0  0  0
   -8.8280    2.3100   -0.9970 C   0  0  0  0  0  0  0  0  0  0  0  0
   -8.2560    3.4370   -0.4280 O   0  0  0  0  0  0  0  0  0  0  0  0
   -6.9650    3.5080    0.1050 C   0  0  0  0  0  0  0  0  0  0  0  0
   -2.5070   -1.7220    1.6110 C   0  0  0  0  0  0  0  0  0  0  0  0
   -3.4960   -1.8190    2.3730 O   0  0  0  0  0  0  0  0  0  0  0  0
   -1.1630   -1.9280    2.1840 C   0  0  0  0  0  0  0  0  0  0  0  0
   -0.1420   -2.2720    1.1140 C   0  0  2  0  0  0  0  0  0  0  0  0
    1.2220   -2.4140    1.6380 C   0  0  0  0  0  0  0  0  0  0  0  0
    2.2780   -2.0000    0.7140 C   0  0  0  0  0  0  0  0  0  0  0  0
    3.6280   -2.2410    1.0770 O   0  0  0  0  0  0  0  0  0  0  0  0
    2.1220   -1.4090   -0.4590 C   0  0  0  0  0  0  0  0  0  0  0  0
    3.2680   -1.0420   -1.2810 C   0  0  0  0  0  0  0  0  0  0  0  0
    3.1090   -0.4890   -2.3800 O   0  0  0  0  0  0  0  0  0  0  0  0
    4.5710   -1.2890   -0.8800 O   0  0  0  0  0  0  0  0  0  0  0  0
    5.7210   -0.9530   -1.6360 C   0  0  0  0  0  0  0  0  0  0  0  0
    5.8270    0.5060   -1.9050 C   0  0  0  0  0  0  0  0  0  0  0  0
    5.8960    1.2510   -0.7580 O   0  0  0  0  0  0  0  0  0  0  0  0
    6.8150    1.3350    0.2440 C   0  0  0  0  0  0  0  0  0  0  0  0
    7.9800    0.6130    0.2210 C   0  0  0  0  0  0  0  0  0  0  0  0
    8.8960    0.7140    1.2560 C   0  0  0  0  0  0  0  0  0  0  0  0
    8.6440    1.5430    2.3210 C   0  0  0  0  0  0  0  0  0  0  0  0
    7.4740    2.2720    2.3470 C   0  0  0  0  0  0  0  0  0  0  0  0
    6.5850    2.1740    1.3430 C   0  0  0  0  0  0  0  0  0  0  0  0
    5.4020    2.8990    1.3520 O   0  0  0  0  0  0  0  0  0  0  0  0
  1  2  1  0
  2  3  2  0
  2 25  1  0
  3  4  1  0
  3 21  1  0
  4  5  1  0
  5  6  1  0
  5 18  1  0
  6  7  1  0
  7  8  2  0
  7 12  1  0
  8  9  1  0
  9 10  2  0
 10 11  1  0
 10 17  1  0
 11 12  2  0
 11 14  1  0
 12 13  1  0
 14 15  2  0
 15 16  1  0
 16 17  1  0
 18 19  2  0
 18 20  1  0
 21 20  1  1
 21 22  1  0
 22 23  1  0
 23 24  1  0
 23 25  2  0
 25 26  1  0
 26 27  2  0
 26 28  1  0
 28 29  1  0
 29 30  1  0
 30 31  1  0
 31 32  1  0
 32 33  2  0
 32 37  1  0
 33 34  1  0
 34 35  2  0
 35 36  1  0
 36 37  2  0
 37 38  1  0
M  END
