
     RDKit          3D

 38 42  0  0  0  0  0  0  0  0999 V2000
   -7.5430    1.3470   -0.5230 C   0  0  0  0  0  0  0  0  0  0  0  0
   -7.0170    0.5920    0.6800 C   0  0  0  0  0  0  0  0  0  0  0  0
   -5.6500    0.0660    0.5050 C   0  0  0  0  0  0  0  0  0  0  0  0
   -4.5250    0.8470    0.7460 C   0  0  0  0  0  0  0  0  0  0  0  0
   -4.6630    2.2080    1.2430 C   0  0  1  0  0  0  0  0  0  0  0  0
   -3.3000    2.8630    1.3230 C   0  0  0  0  0  0  0  0  0  0  0  0
   -5.6020    3.0080    0.6630 O   0  0  0  0  0  0  0  0  0  0  0  0
   -3.2700    0.3400    0.5540 C   0  0  0  0  0  0  0  0  0  0  0  0
   -3.0180   -0.9670    0.1130 C   0  0  0  0  0  0  0  0  0  0  0  0
   -1.6500   -1.4450   -0.0140 C   0  0  0  0  0  0  0  0  0  0  0  0
   -1.2130   -2.5580    0.3430 O   0  0  0  0  0  0  0  0  0  0  0  0
   -0.6550   -0.5700   -0.6150 C   0  0  0  0  0  0  0  0  0  0  0  0
   -1.0830    0.4650   -1.4100 C   0  0  0  0  0  0  0  0  0  0  0  0
   -0.1740    1.3390   -2.0170 C   0  0  0  0  0  0  0  0  0  0  0  0
    1.1710    1.1290   -1.7900 C   0  0  0  0  0  0  0  0  0  0  0  0
    1.6390    0.0830   -0.9850 C   0  0  0  0  0  0  0  0  0  0  0  0
    3.0360   -0.0670   -0.8180 N   0  0  0  0  0  0  0  0  0  0  0  0
    3.6940   -0.9160    0.0820 C   0  0  0  0  0  0  0  0  0  0  0  0
    3.0250   -1.6500    0.8610 O   0  0  0  0  0  0  0  0  0  0  0  0
    5.1580   -0.9510    0.1180 C   0  0  0  0  0  0  0  0  0  0  0  0
    5.9290   -1.7030    0.9940 C   0  0  0  0  0  0  0  0  0  0  0  0
    7.1850   -1.4890    0.7380 O   0  0  0  0  0  0  0  0  0  0  0  0
    7.3400   -0.6340   -0.2620 C   0  0  0  0  0  0  0  0  0  0  0  0
    8.5530   -0.1340   -0.8510 C   0  0  0  0  0  0  0  0  0  0  0  0
    9.5980    0.2100   -0.1480 C   0  0  0  0  0  0  0  0  0  0  0  0
   10.8020    0.6990   -0.6500 O   0  0  0  0  0  0  0  0  0  0  0  0
   11.5820    1.1600    0.4310 C   0  0  0  0  0  0  0  0  0  0  0  0
   11.0250    0.6260    1.5940 O   0  0  0  0  0  0  0  0  0  0  0  0
    9.7380    0.1630    1.2860 C   0  0  0  0  0  0  0  0  0  0  0  0
    8.8970   -0.2150    2.1760 O   0  0  0  0  0  0  0  0  0  0  0  0
    6.0480   -0.2790   -0.6720 C   0  0  0  0  0  0  0  0  0  0  0  0
    0.7040   -0.7410   -0.4170 C   0  0  0  0  0  0  0  0  0  0  0  0
   -4.1400   -1.7310   -0.1240 C   0  0  0  0  0  0  0  0  0  0  0  0
   -3.9310   -3.0240   -0.5800 C   0  0  0  0  0  0  0  0  0  0  0  0
   -5.0290   -3.8140   -0.8440 C   0  0  0  0  0  0  0  0  0  0  0  0
   -6.2980   -3.3350   -0.6620 C   0  0  0  0  0  0  0  0  0  0  0  0
   -6.5060   -2.0490   -0.2090 C   0  0  0  0  0  0  0  0  0  0  0  0
   -5.4370   -1.2210    0.0700 C   0  0  0  0  0  0  0  0  0  0  0  0
  1  2  1  0
  2  3  1  0
  3  4  2  0
  3 38  1  0
  4  5  1  0
  4  8  1  0
  5  6  1  6
  5  7  1  0
  8  9  2  0
  9 10  1  0
  9 33  1  0
 10 11  2  0
 10 12  1  0
 12 13  2  0
 12 32  1  0
 13 14  1  0
 14 15  2  0
 15 16  1  0
 16 17  1  0
 16 32  2  0
 17 18  1  0
 18 19  2  0
 18 20  1  0
 20 21  2  0
 20 31  1  0
 21 22  1  0
 22 23  1  0
 23 24  1  0
 23 31  2  0
 24 25  2  3
 25 26  1  0
 25 29  1  0
 26 27  1  0
 27 28  1  0
 28 29  1  0
 29 30  2  0
 33 34  2  0
 33 38  1  0
 34 35  1  0
 35 36  2  0
 36 37  1  0
 37 38  2  0
M  END
