
     RDKit          3D

 38 41  0  0  0  0  0  0  0  0999 V2000
   -5.0720    5.4120   -1.3510 C   0  0  0  0  0  0  0  0  0  0  0  0
   -3.5980    5.2020   -1.2000 C   0  0  0  0  0  0  0  0  0  0  0  0
   -3.1790    3.8370   -0.8940 C   0  0  0  0  0  0  0  0  0  0  0  0
   -2.4260    2.9630   -1.4380 C   0  0  0  0  0  0  0  0  0  0  0  0
   -1.5760    2.1470   -2.1700 C   0  0  0  0  0  0  0  0  0  0  0  0
   -1.1950    0.9380   -1.8780 C   0  0  0  0  0  0  0  0  0  0  0  0
   -1.5210    0.1160   -0.7430 C   0  0  0  0  0  0  0  0  0  0  0  0
   -2.2890    0.4320    0.2970 N   0  0  0  0  0  0  0  0  0  0  0  0
   -2.6340   -0.3490    1.3230 C   0  0  0  0  0  0  0  0  0  0  0  0
   -3.3710    0.0560    2.2540 O   0  0  0  0  0  0  0  0  0  0  0  0
   -2.1730   -1.6460    1.3640 C   0  0  0  0  0  0  0  0  0  0  0  0
   -2.5690   -2.4700    2.3650 C   0  0  0  0  0  0  0  0  0  0  0  0
   -2.1910   -3.7790    2.4100 C   0  0  0  0  0  0  0  0  0  0  0  0
   -2.5950   -4.7070    3.4840 C   0  0  0  0  0  0  0  0  0  0  0  0
   -1.3820   -4.2270    1.3780 C   0  0  0  0  0  0  0  0  0  0  0  0
   -0.9910   -5.5500    1.4200 O   0  0  0  0  0  0  0  0  0  0  0  0
   -0.9630   -3.4130    0.3410 C   0  0  0  0  0  0  0  0  0  0  0  0
   -0.2240   -3.9800   -0.8140 C   0  0  0  0  0  0  0  0  0  0  0  0
   -1.3400   -2.0600    0.2890 C   0  0  0  0  0  0  0  0  0  0  0  0
   -1.0270   -1.2230   -0.7000 C   0  0  0  0  0  0  0  0  0  0  0  0
   -0.0190   -1.5220   -1.7130 C   0  0  0  0  0  0  0  0  0  0  0  0
    1.2650   -1.6130   -1.4070 C   0  0  0  0  0  0  0  0  0  0  0  0
    2.2500   -1.9210   -2.4660 C   0  0  0  0  0  0  0  0  0  0  0  0
    3.2060   -2.7880   -1.8310 O   0  0  0  0  0  0  0  0  0  0  0  0
    3.9480   -2.2080   -0.7760 C   0  0  0  0  0  0  0  0  0  0  0  0
    5.1270   -2.6190   -0.5560 O   0  0  0  0  0  0  0  0  0  0  0  0
    3.2660   -1.1540   -0.0050 C   0  0  1  0  0  0  0  0  0  0  0  0
    3.5620    0.1380   -0.4420 O   0  0  0  0  0  0  0  0  0  0  0  0
    3.7630    1.2420    0.2710 C   0  0  0  0  0  0  0  0  0  0  0  0
    4.9710    1.5650    0.8980 C   0  0  0  0  0  0  0  0  0  0  0  0
    6.0150    0.6420    0.7690 O   0  0  0  0  0  0  0  0  0  0  0  0
    5.2170    2.6750    1.6150 C   0  0  0  0  0  0  0  0  0  0  0  0
    4.2230    3.6340    1.7970 C   0  0  0  0  0  0  0  0  0  0  0  0
    3.0120    3.3590    1.1980 C   0  0  0  0  0  0  0  0  0  0  0  0
    2.7950    2.2270    0.4750 C   0  0  0  0  0  0  0  0  0  0  0  0
    1.4970    2.0690   -0.2050 C   0  0  0  0  0  0  0  0  0  0  0  0
    0.6250    2.9410   -0.0060 O   0  0  0  0  0  0  0  0  0  0  0  0
    1.7920   -1.4340   -0.0250 C   0  0  0  0  0  0  0  0  0  0  0  0
  1  2  1  0
  2  3  1  0
  3  4  2  3
  4  5  1  0
  5  6  2  3
  6  7  1  0
  7  8  1  0
  7 20  2  0
  8  9  1  0
  9 10  2  0
  9 11  1  0
 11 12  2  0
 11 19  1  0
 12 13  1  0
 13 14  1  0
 13 15  2  0
 15 16  1  0
 15 17  1  0
 17 18  1  0
 17 19  2  0
 19 20  1  0
 20 21  1  0
 21 22  2  3
 22 23  1  0
 22 38  1  0
 23 24  1  0
 24 25  1  0
 25 26  2  0
 25 27  1  0
 27 28  1  6
 27 38  1  0
 28 29  1  0
 29 30  2  0
 29 35  1  0
 30 31  1  0
 30 32  1  0
 32 33  2  0
 33 34  1  0
 34 35  2  0
 35 36  1  0
 36 37  2  0
M  END
