
     RDKit          3D

 38 41  0  0  0  0  0  0  0  0999 V2000
    6.4450    1.6970    0.2900 C   0  0  0  0  0  0  0  0  0  0  0  0
    5.1760    1.6050   -0.5440 C   0  0  2  0  0  0  0  0  0  0  0  0
    4.7660    2.9370   -1.0010 C   0  0  0  0  0  0  0  0  0  0  0  0
    4.2790    0.8530    0.1470 O   0  0  0  0  0  0  0  0  0  0  0  0
    3.9900   -0.3900   -0.3520 C   0  0  1  0  0  0  0  0  0  0  0  0
    4.0730   -1.5260    0.6040 C   0  0  0  0  0  0  0  0  0  0  0  0
    2.8220   -1.9050    1.0210 O   0  0  0  0  0  0  0  0  0  0  0  0
    2.4610   -3.1710    0.6390 C   0  0  0  0  0  0  0  0  0  0  0  0
    1.0730   -3.4610    1.1650 C   0  0  0  0  0  0  0  0  0  0  0  0
    0.2460   -2.2550    1.0790 N   0  0  0  0  0  0  0  0  0  0  0  0
   -0.6870   -2.3050    2.1710 C   0  0  0  0  0  0  0  0  0  0  0  0
   -1.7260   -3.4050    2.0480 C   0  0  0  0  0  0  0  0  0  0  0  0
   -1.1270   -4.6580    1.9920 O   0  0  0  0  0  0  0  0  0  0  0  0
   -0.4190   -2.1550   -0.1640 C   0  0  0  0  0  0  0  0  0  0  0  0
   -1.1280   -0.8810   -0.4400 C   0  0  0  0  0  0  0  0  0  0  0  0
   -2.3710   -0.9950   -1.1830 C   0  0  0  0  0  0  0  0  0  0  0  0
   -2.3270   -1.7400   -2.3600 C   0  0  0  0  0  0  0  0  0  0  0  0
   -3.4670   -1.9160   -3.1140 C   0  0  0  0  0  0  0  0  0  0  0  0
   -4.6570   -1.3550   -2.7060 C   0  0  0  0  0  0  0  0  0  0  0  0
   -5.8330   -1.5190   -3.4560 O   0  0  0  0  0  0  0  0  0  0  0  0
   -4.6750   -0.6230   -1.5380 C   0  0  0  0  0  0  0  0  0  0  0  0
   -3.5250   -0.4350   -0.7600 C   0  0  0  0  0  0  0  0  0  0  0  0
   -0.7050    0.3200   -0.0700 C   0  0  0  0  0  0  0  0  0  0  0  0
   -1.4380    1.5620   -0.3610 C   0  0  0  0  0  0  0  0  0  0  0  0
   -1.5150    2.0010   -1.6890 C   0  0  0  0  0  0  0  0  0  0  0  0
   -2.1730    3.1600   -1.9820 C   0  0  0  0  0  0  0  0  0  0  0  0
   -2.7610    3.8990   -0.9730 C   0  0  0  0  0  0  0  0  0  0  0  0
   -2.6830    3.4600    0.3250 C   0  0  0  0  0  0  0  0  0  0  0  0
   -3.3190    4.2170    1.3140 C   0  0  0  0  0  0  0  0  0  0  0  0
   -3.9830    5.3900    1.0350 O   0  0  0  0  0  0  0  0  0  0  0  0
   -3.2890    3.7840    2.6310 C   0  0  0  0  0  0  0  0  0  0  0  0
   -2.6450    2.6280    2.9600 C   0  0  0  0  0  0  0  0  0  0  0  0
   -2.0200    1.8930    1.9610 C   0  0  0  0  0  0  0  0  0  0  0  0
   -2.0130    2.2720    0.6390 C   0  0  0  0  0  0  0  0  0  0  0  0
    0.6250    0.5450    0.5550 C   0  0  0  0  0  0  0  0  0  0  0  0
    0.6970    1.5040    1.3780 O   0  0  0  0  0  0  0  0  0  0  0  0
    1.7330   -0.2090    0.2870 O   0  0  0  0  0  0  0  0  0  0  0  0
    2.5310   -0.3190   -0.8310 C   0  0  0  0  0  0  0  0  0  0  0  0
  2  1  1  1
  2  3  1  0
  2  4  1  0
  5  4  1  1
  5  6  1  0
  5 38  1  0
  6  7  1  0
  7  8  1  0
  8  9  1  0
  9 10  1  0
 10 11  1  0
 10 14  1  0
 11 12  1  0
 12 13  1  0
 14 15  1  0
 15 16  1  0
 15 23  2  0
 16 17  2  0
 16 22  1  0
 17 18  1  0
 18 19  2  0
 19 20  1  0
 19 21  1  0
 21 22  2  0
 23 24  1  0
 23 35  1  0
 24 25  2  0
 24 34  1  0
 25 26  1  0
 26 27  2  0
 27 28  1  0
 28 29  2  0
 28 34  1  0
 29 30  1  0
 29 31  1  0
 31 32  2  0
 32 33  1  0
 33 34  2  0
 35 36  2  0
 35 37  1  0
 37 38  1  0
M  END
