
     RDKit          3D

 38 42  0  0  0  0  0  0  0  0999 V2000
   -5.4820   -6.2270    0.7250 C   0  0  0  0  0  0  0  0  0  0  0  0
   -4.1220   -6.5840    0.5740 O   0  0  0  0  0  0  0  0  0  0  0  0
   -3.1830   -5.5740    0.5000 C   0  0  0  0  0  0  0  0  0  0  0  0
   -1.8580   -5.9120    0.3530 C   0  0  0  0  0  0  0  0  0  0  0  0
   -0.8470   -4.9310    0.2710 C   0  0  0  0  0  0  0  0  0  0  0  0
   -1.2000   -3.6200    0.3400 C   0  0  0  0  0  0  0  0  0  0  0  0
   -0.2960   -2.5610    0.2710 N   0  0  0  0  0  0  0  0  0  0  0  0
    1.0960   -2.6640    0.1230 C   0  0  0  0  0  0  0  0  0  0  0  0
    1.6640   -3.7790    0.0330 O   0  0  0  0  0  0  0  0  0  0  0  0
    1.9960   -1.4920    0.0590 C   0  0  0  0  0  0  0  0  0  0  0  0
    1.5880   -0.2510    0.4580 C   0  0  0  0  0  0  0  0  0  0  0  0
    2.4360    0.8630    0.3920 C   0  0  0  0  0  0  0  0  0  0  0  0
    3.7150    0.7300   -0.0810 C   0  0  0  0  0  0  0  0  0  0  0  0
    4.1370   -0.5150   -0.4850 C   0  0  0  0  0  0  0  0  0  0  0  0
    3.2880   -1.6040   -0.4140 C   0  0  0  0  0  0  0  0  0  0  0  0
    5.4410   -0.6250   -0.9620 O   0  0  0  0  0  0  0  0  0  0  0  0
    6.4040    0.2560   -0.4120 C   0  0  2  0  0  0  0  0  0  0  0  0
    6.6790   -0.1230    1.0350 C   0  0  0  0  0  0  0  0  0  0  0  0
    5.9680    1.6870   -0.5560 C   0  0  0  0  0  0  0  0  0  0  0  0
    4.5650    1.9470   -0.1260 C   0  0  1  0  0  0  0  0  0  0  0  0
    3.8590    2.9600   -1.0000 C   0  0  0  0  0  0  0  0  0  0  0  0
    4.6410    4.2490   -1.1180 C   0  0  0  0  0  0  0  0  0  0  0  0
    3.9050    5.1040   -1.9390 O   0  0  0  0  0  0  0  0  0  0  0  0
   -2.5530   -3.3050    0.4900 C   0  0  0  0  0  0  0  0  0  0  0  0
   -2.9050   -1.9760    0.5600 O   0  0  0  0  0  0  0  0  0  0  0  0
   -3.2000   -1.3100   -0.6110 C   0  0  0  0  0  0  0  0  0  0  0  0
   -3.1400   -1.9290   -1.6940 O   0  0  0  0  0  0  0  0  0  0  0  0
   -3.5780    0.0890   -0.6110 C   0  0  0  0  0  0  0  0  0  0  0  0
   -3.8710    0.7460   -1.7850 C   0  0  0  0  0  0  0  0  0  0  0  0
   -4.2340    2.0840   -1.8030 C   0  0  0  0  0  0  0  0  0  0  0  0
   -4.3070    2.7900   -0.6110 C   0  0  0  0  0  0  0  0  0  0  0  0
   -4.0200    2.1590    0.5810 C   0  0  0  0  0  0  0  0  0  0  0  0
   -3.6650    0.8340    0.5520 C   0  0  0  0  0  0  0  0  0  0  0  0
   -4.1840    3.1680    1.6880 C   0  0  1  0  0  0  0  0  0  0  0  0
   -3.3000    2.9350    2.7220 O   0  0  0  0  0  0  0  0  0  0  0  0
   -3.8800    4.4540    0.9490 C   0  0  0  0  0  0  0  0  0  0  0  0
   -4.6690    4.2280   -0.3470 C   0  0  0  0  0  0  0  0  0  0  0  0
   -3.5380   -4.2550    0.5700 C   0  0  0  0  0  0  0  0  0  0  0  0
  1  2  1  0
  2  3  1  0
  3  4  2  0
  3 38  1  0
  4  5  1  0
  5  6  2  0
  6  7  1  0
  6 24  1  0
  7  8  1  0
  8  9  2  0
  8 10  1  0
 10 11  2  0
 10 15  1  0
 11 12  1  0
 12 13  2  0
 13 14  1  0
 13 20  1  0
 14 15  2  0
 14 16  1  0
 16 17  1  0
 17 18  1  1
 17 19  1  0
 19 20  1  0
 20 21  1  6
 21 22  1  0
 22 23  1  0
 24 25  1  0
 24 38  2  0
 25 26  1  0
 26 27  2  0
 26 28  1  0
 28 29  2  0
 28 33  1  0
 29 30  1  0
 30 31  2  0
 31 32  1  0
 31 37  1  0
 32 33  2  0
 32 34  1  0
 34 35  1  1
 34 36  1  0
 36 37  1  0
M  END
