
     RDKit          3D

 38 42  0  0  0  0  0  0  0  0999 V2000
   -0.6460    4.2310    3.4180 C   0  0  0  0  0  0  0  0  0  0  0  0
   -0.9840    5.0970    2.5000 C   0  0  0  0  0  0  0  0  0  0  0  0
   -0.9500    4.9170    1.0480 C   0  0  0  0  0  0  0  0  0  0  0  0
   -0.4450    3.6380    0.5920 N   0  0  0  0  0  0  0  0  0  0  0  0
   -1.2600    2.5050    0.4280 C   0  0  0  0  0  0  0  0  0  0  0  0
   -2.5010    2.4230    0.6590 O   0  0  0  0  0  0  0  0  0  0  0  0
   -0.3780    1.4520   -0.0620 C   0  0  0  0  0  0  0  0  0  0  0  0
   -0.9010    0.1110   -0.3730 C   0  0  0  0  0  0  0  0  0  0  0  0
   -0.1690   -0.7950   -0.8140 O   0  0  0  0  0  0  0  0  0  0  0  0
   -2.2440   -0.2380   -0.1940 O   0  0  0  0  0  0  0  0  0  0  0  0
   -2.6700   -1.5740   -0.5210 C   0  0  0  0  0  0  0  0  0  0  0  0
   -4.1140   -1.6850   -0.2360 C   0  0  0  0  0  0  0  0  0  0  0  0
   -4.5200   -1.9650    1.0750 C   0  0  0  0  0  0  0  0  0  0  0  0
   -5.8440   -2.0960    1.4010 C   0  0  0  0  0  0  0  0  0  0  0  0
   -6.7970   -1.9520    0.4320 C   0  0  0  0  0  0  0  0  0  0  0  0
   -6.4330   -1.6750   -0.8730 C   0  0  0  0  0  0  0  0  0  0  0  0
   -5.0860   -1.5460   -1.1800 C   0  0  0  0  0  0  0  0  0  0  0  0
   -7.6900   -1.5920   -1.6440 C   0  0  0  0  0  0  0  0  0  0  0  0
   -8.6010   -2.3450   -0.8890 O   0  0  0  0  0  0  0  0  0  0  0  0
   -8.2840   -2.0240    0.4130 C   0  0  0  0  0  0  0  0  0  0  0  0
    0.8560    1.8890   -0.1900 C   0  0  0  0  0  0  0  0  0  0  0  0
    1.9610    1.0480   -0.6550 C   0  0  0  0  0  0  0  0  0  0  0  0
    2.3560   -0.1260   -0.0810 C   0  0  0  0  0  0  0  0  0  0  0  0
    3.3850   -0.9010   -0.5880 C   0  0  0  0  0  0  0  0  0  0  0  0
    3.7960   -2.1760    0.0550 C   0  0  1  0  0  0  0  0  0  0  0  0
    3.0040   -2.4630    1.3040 C   0  0  0  0  0  0  0  0  0  0  0  0
    3.6150   -3.3160   -0.8970 C   0  0  0  0  0  0  0  0  0  0  0  0
    4.9760   -3.9770   -1.0590 C   0  0  0  0  0  0  0  0  0  0  0  0
    5.8280   -3.4700    0.0890 C   0  0  0  0  0  0  0  0  0  0  0  0
    5.2800   -2.0760    0.3370 C   0  0  0  0  0  0  0  0  0  0  0  0
    4.0340   -0.4780   -1.7080 C   0  0  0  0  0  0  0  0  0  0  0  0
    3.6680    0.7220   -2.3380 C   0  0  0  0  0  0  0  0  0  0  0  0
    4.3670    1.1080   -3.4790 O   0  0  0  0  0  0  0  0  0  0  0  0
    2.6430    1.4580   -1.8000 C   0  0  0  0  0  0  0  0  0  0  0  0
    2.2590    2.6320   -2.3850 O   0  0  0  0  0  0  0  0  0  0  0  0
    0.8800    3.2920    0.2040 C   0  0  2  0  0  0  0  0  0  0  0  0
    1.9610    3.6460    1.1810 C   0  0  0  0  0  0  0  0  0  0  0  0
    1.9790    5.0130    1.4270 O   0  0  0  0  0  0  0  0  0  0  0  0
  1  2  2  0
  2  3  1  0
  3  4  1  0
  4  5  1  0
  4 36  1  0
  5  6  2  0
  5  7  1  0
  7  8  1  0
  7 21  2  0
  8  9  2  0
  8 10  1  0
 10 11  1  0
 11 12  1  0
 12 13  2  0
 12 17  1  0
 13 14  1  0
 14 15  2  0
 15 16  1  0
 15 20  1  0
 16 17  2  0
 16 18  1  0
 18 19  1  0
 19 20  1  0
 21 22  1  0
 21 36  1  0
 22 23  2  0
 22 34  1  0
 23 24  1  0
 24 25  1  0
 24 31  2  0
 25 26  1  1
 25 27  1  0
 25 30  1  0
 27 28  1  0
 28 29  1  0
 29 30  1  0
 31 32  1  0
 32 33  1  0
 32 34  2  0
 34 35  1  0
 36 37  1  1
 37 38  1  0
M  END
