
     RDKit          3D

 37 41  0  0  0  0  0  0  0  0999 V2000
   -3.2020   -1.0180   -0.8040 C   0  0  0  0  0  0  0  0  0  0  0  0
   -2.5530    0.2480   -0.4580 C   0  0  0  0  0  0  0  0  0  0  0  0
   -3.1800    1.3330   -0.0420 C   0  0  0  0  0  0  0  0  0  0  0  0
   -4.5750    1.6690    0.2090 C   0  0  2  0  0  0  0  0  0  0  0  0
   -4.6750    1.9840    1.7160 C   0  0  0  0  0  0  0  0  0  0  0  0
   -4.4880    0.6730    2.3890 C   0  0  0  0  0  0  0  0  0  0  0  0
   -3.5360    0.4500    3.1650 O   0  0  0  0  0  0  0  0  0  0  0  0
   -5.4710   -0.3220    2.0900 N   0  0  0  0  0  0  0  0  0  0  0  0
   -6.0110   -0.2590    0.7660 C   0  0  0  0  0  0  0  0  0  0  0  0
   -6.9790   -1.1680    0.4120 C   0  0  0  0  0  0  0  0  0  0  0  0
   -7.4440   -2.2220    1.3890 C   0  0  0  0  0  0  0  0  0  0  0  0
   -8.4210   -2.9940    0.7630 O   0  0  0  0  0  0  0  0  0  0  0  0
   -7.5250   -1.1050   -0.8520 C   0  0  0  0  0  0  0  0  0  0  0  0
   -7.1400   -0.1660   -1.7830 C   0  0  0  0  0  0  0  0  0  0  0  0
   -6.1660    0.7190   -1.3750 C   0  0  0  0  0  0  0  0  0  0  0  0
   -5.5910    0.6940   -0.1210 C   0  0  0  0  0  0  0  0  0  0  0  0
   -2.1180    2.3360    0.1900 C   0  0  0  0  0  0  0  0  0  0  0  0
   -2.2590    3.5160    0.5910 O   0  0  0  0  0  0  0  0  0  0  0  0
   -0.9100    1.7840   -0.1050 O   0  0  0  0  0  0  0  0  0  0  0  0
   -1.1220    0.5030   -0.5080 C   0  0  0  0  0  0  0  0  0  0  0  0
   -0.1900   -0.3630   -0.8810 C   0  0  0  0  0  0  0  0  0  0  0  0
    1.2060    0.0540   -0.8740 C   0  0  0  0  0  0  0  0  0  0  0  0
    1.5770    1.2030   -0.5290 O   0  0  0  0  0  0  0  0  0  0  0  0
    2.1910   -0.8360   -1.2610 O   0  0  0  0  0  0  0  0  0  0  0  0
    3.5210   -0.4410   -1.2540 C   0  0  0  0  0  0  0  0  0  0  0  0
    4.1490    0.1380   -2.3150 C   0  0  0  0  0  0  0  0  0  0  0  0
    5.4840    0.5050   -2.2280 C   0  0  0  0  0  0  0  0  0  0  0  0
    6.2310    0.3080   -1.0830 C   0  0  0  0  0  0  0  0  0  0  0  0
    7.5700    0.6760   -0.9940 C   0  0  0  0  0  0  0  0  0  0  0  0
    8.2850    0.4660    0.1580 C   0  0  0  0  0  0  0  0  0  0  0  0
    9.7070    0.8660    0.2270 C   0  0  0  0  0  0  0  0  0  0  0  0
    7.6630   -0.1220    1.2500 C   0  0  0  0  0  0  0  0  0  0  0  0
    8.4770   -0.3240    2.4610 C   0  0  0  0  0  0  0  0  0  0  0  0
    6.3400   -0.4750    1.1340 C   0  0  0  0  0  0  0  0  0  0  0  0
    5.5910   -0.2790   -0.0080 C   0  0  0  0  0  0  0  0  0  0  0  0
    4.2540   -0.6440   -0.1030 C   0  0  0  0  0  0  0  0  0  0  0  0
    3.6820   -1.2240    1.0060 O   0  0  0  0  0  0  0  0  0  0  0  0
  1  2  1  0
  2  3  2  0
  2 20  1  0
  4  3  1  1
  3 17  1  0
  4  5  1  0
  4 16  1  0
  5  6  1  0
  6  7  2  0
  6  8  1  0
  8  9  1  0
  9 10  2  0
  9 16  1  0
 10 11  1  0
 10 13  1  0
 11 12  1  0
 13 14  2  0
 14 15  1  0
 15 16  2  0
 17 18  2  0
 17 19  1  0
 19 20  1  0
 20 21  2  3
 21 22  1  0
 22 23  2  0
 22 24  1  0
 24 25  1  0
 25 26  2  0
 25 36  1  0
 26 27  1  0
 27 28  2  0
 28 29  1  0
 28 35  1  0
 29 30  2  0
 30 31  1  0
 30 32  1  0
 32 33  1  0
 32 34  2  0
 34 35  1  0
 35 36  2  0
 36 37  1  0
M  END
