
     RDKit          3D

 37 40  0  0  0  0  0  0  0  0999 V2000
    3.3170    0.7500   -3.0270 C   0  0  0  0  0  0  0  0  0  0  0  0
    2.7300    0.6350   -1.8680 C   0  0  0  0  0  0  0  0  0  0  0  0
    3.5460    0.7640   -0.6210 C   0  0  0  0  0  0  0  0  0  0  0  0
    4.8060    0.4300   -0.5980 C   0  0  0  0  0  0  0  0  0  0  0  0
    5.6950    0.5090    0.5290 C   0  0  0  0  0  0  0  0  0  0  0  0
    6.9200    0.2010    0.6130 C   0  0  0  0  0  0  0  0  0  0  0  0
    7.8650   -0.3240   -0.3370 C   0  0  0  0  0  0  0  0  0  0  0  0
    7.8140   -0.6690   -1.6540 C   0  0  0  0  0  0  0  0  0  0  0  0
    9.0690   -1.1310   -2.0490 C   0  0  0  0  0  0  0  0  0  0  0  0
    9.8440   -1.0460   -0.9390 C   0  0  0  0  0  0  0  0  0  0  0  0
    9.1420   -0.5840    0.0270 O   0  0  0  0  0  0  0  0  0  0  0  0
    2.8020    1.2480    0.5430 C   0  0  0  0  0  0  0  0  0  0  0  0
    1.5170    0.4610    0.6740 C   0  0  0  0  0  0  0  0  0  0  0  0
    0.7180    0.3470   -0.5790 C   0  0  0  0  0  0  0  0  0  0  0  0
    1.2640    0.4180   -1.7600 C   0  0  0  0  0  0  0  0  0  0  0  0
    0.4690    0.1340   -2.9520 C   0  0  0  0  0  0  0  0  0  0  0  0
    0.9870    0.2010   -4.0940 O   0  0  0  0  0  0  0  0  0  0  0  0
   -0.9190   -0.2240   -2.8040 C   0  0  0  0  0  0  0  0  0  0  0  0
   -1.4740   -0.2920   -1.5860 C   0  0  0  0  0  0  0  0  0  0  0  0
   -2.8050   -0.6420   -1.6560 O   0  0  0  0  0  0  0  0  0  0  0  0
   -0.7050   -0.0060   -0.3420 C   0  0  0  0  0  0  0  0  0  0  0  0
   -1.4100    0.3670    0.6930 C   0  0  0  0  0  0  0  0  0  0  0  0
   -2.7340    0.0500    1.1040 C   0  0  0  0  0  0  0  0  0  0  0  0
   -3.2630    0.7730    2.0720 O   0  0  0  0  0  0  0  0  0  0  0  0
   -3.6160   -0.9430    0.6740 N   0  0  0  0  0  0  0  0  0  0  0  0
   -4.9980   -1.1030    1.1960 C   0  0  1  0  0  0  0  0  0  0  0  0
   -5.9890   -0.7530    0.1380 C   0  0  0  0  0  0  0  0  0  0  0  0
   -7.1070   -1.6850   -0.1000 C   0  0  0  0  0  0  0  0  0  0  0  0
   -7.4120   -2.5910    1.0740 C   0  0  0  0  0  0  0  0  0  0  0  0
   -6.1080   -3.3780    1.2710 C   0  0  0  0  0  0  0  0  0  0  0  0
   -5.1170   -2.4230    1.8400 C   0  0  1  0  0  0  0  0  0  0  0  0
   -3.8680   -3.0910    1.8380 O   0  0  0  0  0  0  0  0  0  0  0  0
   -0.9830    1.6670    1.3870 C   0  0  0  0  0  0  0  0  0  0  0  0
   -1.5490    1.9740    2.4560 O   0  0  0  0  0  0  0  0  0  0  0  0
   -0.0460    2.5070    0.8950 O   0  0  0  0  0  0  0  0  0  0  0  0
    0.3320    3.7240    1.5210 C   0  0  0  0  0  0  0  0  0  0  0  0
   -0.8580    4.6460    1.6430 C   0  0  0  0  0  0  0  0  0  0  0  0
  1  2  2  0
  2  3  1  0
  2 15  1  0
  3  4  2  3
  3 12  1  0
  4  5  1  0
  5  6  2  3
  6  7  1  0
  7  8  2  0
  7 11  1  0
  8  9  1  0
  9 10  2  0
 10 11  1  0
 12 13  1  0
 13 14  1  0
 14 15  2  0
 14 21  1  0
 15 16  1  0
 16 17  2  0
 16 18  1  0
 18 19  2  0
 19 20  1  0
 19 21  1  0
 21 22  2  3
 22 23  1  0
 22 33  1  0
 23 24  2  0
 23 25  1  0
 26 25  1  6
 26 27  1  0
 26 31  1  0
 27 28  1  0
 28 29  1  0
 29 30  1  0
 30 31  1  0
 31 32  1  6
 33 34  2  0
 33 35  1  0
 35 36  1  0
 36 37  1  0
M  END
