
     RDKit          3D

 32 34  0  0  0  0  0  0  0  0999 V2000
   -4.3000   -4.8520   -0.8800 C   0  0  0  0  0  0  0  0  0  0  0  0
   -3.8980   -3.4370   -0.4890 C   0  0  2  0  0  0  0  0  0  0  0  0
   -2.6670   -3.3780    0.1300 O   0  0  0  0  0  0  0  0  0  0  0  0
   -1.5470   -2.6760   -0.2730 C   0  0  0  0  0  0  0  0  0  0  0  0
   -1.4690   -1.8800   -1.3840 C   0  0  0  0  0  0  0  0  0  0  0  0
   -0.3500   -1.1980   -1.7610 C   0  0  0  0  0  0  0  0  0  0  0  0
    0.8260   -1.2810   -0.9980 C   0  0  0  0  0  0  0  0  0  0  0  0
    1.9570   -0.5430   -1.4310 N   0  0  0  0  0  0  0  0  0  0  0  0
    3.2850   -0.6680   -0.9950 C   0  0  0  0  0  0  0  0  0  0  0  0
    3.5550   -1.5300   -0.1190 O   0  0  0  0  0  0  0  0  0  0  0  0
    4.3370    0.1890   -1.5530 C   0  0  0  0  0  0  0  0  0  0  0  0
    4.0240    1.0350   -2.4080 O   0  0  0  0  0  0  0  0  0  0  0  0
    5.6340    0.0560   -1.1410 O   0  0  0  0  0  0  0  0  0  0  0  0
    6.7080    0.8290   -1.6170 C   0  0  0  0  0  0  0  0  0  0  0  0
    6.5900    2.2830   -1.3290 C   0  0  0  0  0  0  0  0  0  0  0  0
    6.5820    2.4910    0.1500 C   0  0  0  0  0  0  0  0  0  0  0  0
    7.5150    3.2150    0.7440 C   0  0  0  0  0  0  0  0  0  0  0  0
    7.2190    3.2210    2.1900 C   0  0  0  0  0  0  0  0  0  0  0  0
    6.0090    2.4140    2.3220 C   0  0  0  0  0  0  0  0  0  0  0  0
    5.6420    1.9900    1.1300 C   0  0  0  0  0  0  0  0  0  0  0  0
    0.7630   -2.0720    0.1150 C   0  0  0  0  0  0  0  0  0  0  0  0
   -0.3740   -2.7500    0.4760 C   0  0  0  0  0  0  0  0  0  0  0  0
   -4.9220   -2.8490    0.4800 C   0  0  2  0  0  0  0  0  0  0  0  0
   -6.2000   -2.8830   -0.0790 O   0  0  0  0  0  0  0  0  0  0  0  0
   -4.4980   -1.4620    0.7660 C   0  0  0  0  0  0  0  0  0  0  0  0
   -3.3960   -1.2640    1.2940 O   0  0  0  0  0  0  0  0  0  0  0  0
   -5.3550   -0.3940    0.4300 N   0  0  0  0  0  0  0  0  0  0  0  0
   -5.0440    0.9820    0.6620 C   0  0  0  0  0  0  0  0  0  0  0  0
   -3.9600    1.4740    1.2080 C   0  0  0  0  0  0  0  0  0  0  0  0
   -3.9880    2.9620    1.2850 C   0  0  0  0  0  0  0  0  0  0  0  0
   -5.1210    3.3110    0.3340 C   0  0  0  0  0  0  0  0  0  0  0  0
   -5.9840    2.0910    0.2750 C   0  0  0  0  0  0  0  0  0  0  0  0
  2  1  1  1
  2  3  1  0
  2 23  1  0
  3  4  1  0
  4  5  2  0
  4 22  1  0
  5  6  1  0
  6  7  2  0
  7  8  1  0
  7 21  1  0
  8  9  1  0
  9 10  2  0
  9 11  1  0
 11 12  2  0
 11 13  1  0
 13 14  1  0
 14 15  1  0
 15 16  1  0
 16 17  2  0
 16 20  1  0
 17 18  1  0
 18 19  1  0
 19 20  2  0
 21 22  2  0
 23 24  1  6
 23 25  1  0
 25 26  2  0
 25 27  1  0
 27 28  1  0
 28 29  2  0
 28 32  1  0
 29 30  1  0
 30 31  1  0
 31 32  1  0
M  END
