
     RDKit          3D

 32 33  0  0  0  0  0  0  0  0999 V2000
   -3.4330    2.7240   -3.2490 C   0  0  0  0  0  0  0  0  0  0  0  0
   -3.1930    3.2450   -1.8710 C   0  0  0  0  0  0  0  0  0  0  0  0
   -1.9530    2.6950   -1.2600 C   0  0  0  0  0  0  0  0  0  0  0  0
   -1.2780    1.8800   -1.9460 O   0  0  0  0  0  0  0  0  0  0  0  0
   -1.5110    3.0390    0.0310 N   0  0  0  0  0  0  0  0  0  0  0  0
   -0.3100    2.4830    0.5770 C   0  0  0  0  0  0  0  0  0  0  0  0
    0.6810    3.2850    0.9130 C   0  0  0  0  0  0  0  0  0  0  0  0
    1.9440    2.8560    1.4770 C   0  0  1  0  0  0  0  0  0  0  0  0
    2.1430    3.4720    2.7330 O   0  0  0  0  0  0  0  0  0  0  0  0
    2.0570    1.3930    1.5840 C   0  0  0  0  0  0  0  0  0  0  0  0
    3.1960    0.8210    2.0160 C   0  0  0  0  0  0  0  0  0  0  0  0
    4.2730    1.6470    2.3620 N   0  0  0  0  0  0  0  0  0  0  0  0
    5.4860    1.0120    2.8270 C   0  0  0  0  0  0  0  0  0  0  0  0
    5.5650   -0.2480    2.9150 O   0  0  0  0  0  0  0  0  0  0  0  0
    0.9330    0.5360    1.2060 C   0  0  0  0  0  0  0  0  0  0  0  0
    1.0460   -0.8240    1.3510 O   0  0  0  0  0  0  0  0  0  0  0  0
    1.8420   -1.7280    0.6960 C   0  0  0  0  0  0  0  0  0  0  0  0
    2.3300   -2.7920    1.3780 C   0  0  0  0  0  0  0  0  0  0  0  0
    3.1870   -3.8030    0.7540 C   0  0  0  0  0  0  0  0  0  0  0  0
    3.4980   -3.6000   -0.6820 C   0  0  0  0  0  0  0  0  0  0  0  0
    2.9200   -2.4220   -1.3210 C   0  0  0  0  0  0  0  0  0  0  0  0
    2.1600   -1.5550   -0.7080 C   0  0  0  0  0  0  0  0  0  0  0  0
    1.6030   -0.3800   -1.4700 C   0  0  0  0  0  0  0  0  0  0  0  0
   -0.2150    1.0460    0.7190 C   0  0  0  0  0  0  0  0  0  0  0  0
   -1.2220    0.1560    0.3910 O   0  0  0  0  0  0  0  0  0  0  0  0
   -1.9270   -0.4800    1.4530 C   0  0  0  0  0  0  0  0  0  0  0  0
   -2.9800   -1.4110    0.9730 C   0  0  0  0  0  0  0  0  0  0  0  0
   -3.6440   -2.0060    1.8140 O   0  0  0  0  0  0  0  0  0  0  0  0
   -3.2460   -1.6370   -0.4520 C   0  0  2  0  0  0  0  0  0  0  0  0
   -4.3820   -2.6420   -0.5770 C   0  0  0  0  0  0  0  0  0  0  0  0
   -2.0570   -2.2060   -1.1860 C   0  0  0  0  0  0  0  0  0  0  0  0
   -3.7160   -0.3520   -1.1280 C   0  0  0  0  0  0  0  0  0  0  0  0
  1  2  1  0
  2  3  1  0
  3  4  2  0
  3  5  1  0
  5  6  1  0
  6  7  2  0
  6 24  1  0
  7  8  1  0
  8  9  1  1
  8 10  1  0
 10 11  2  3
 10 15  1  0
 11 12  1  0
 12 13  1  0
 13 14  2  0
 15 16  1  0
 15 24  2  0
 16 17  1  0
 17 18  2  0
 17 22  1  0
 18 19  1  0
 19 20  1  0
 20 21  1  0
 21 22  2  0
 22 23  1  0
 24 25  1  0
 25 26  1  0
 26 27  1  0
 27 28  2  0
 27 29  1  0
 29 30  1  1
 29 31  1  0
 29 32  1  0
M  END
