
     RDKit          3D

 32 34  0  0  0  0  0  0  0  0999 V2000
   -6.2510    1.8030   -1.6830 C   0  0  0  0  0  0  0  0  0  0  0  0
   -6.3020    0.3700   -2.0870 C   0  0  0  0  0  0  0  0  0  0  0  0
   -5.4580   -0.5710   -1.4950 N   0  0  0  0  0  0  0  0  0  0  0  0
   -4.0890   -0.5940   -1.7240 C   0  0  0  0  0  0  0  0  0  0  0  0
   -3.1520    0.3980   -1.1150 C   0  0  2  0  0  0  0  0  0  0  0  0
   -1.7990    0.0950   -1.6010 C   0  0  0  0  0  0  0  0  0  0  0  0
   -1.6700   -0.0260   -2.8590 O   0  0  0  0  0  0  0  0  0  0  0  0
   -0.6540   -0.0660   -0.7850 C   0  0  0  0  0  0  0  0  0  0  0  0
    0.6660   -0.4280   -1.0290 C   0  0  0  0  0  0  0  0  0  0  0  0
    1.2920   -0.3990    0.1910 C   0  0  0  0  0  0  0  0  0  0  0  0
    2.7100   -0.7170    0.4130 C   0  0  0  0  0  0  0  0  0  0  0  0
    3.4100   -1.0370   -0.5680 O   0  0  0  0  0  0  0  0  0  0  0  0
    3.3160   -0.6670    1.7600 C   0  0  0  0  0  0  0  0  0  0  0  0
    4.6820   -1.0230    1.6660 O   0  0  0  0  0  0  0  0  0  0  0  0
    5.5200   -1.0620    2.7610 C   0  0  0  0  0  0  0  0  0  0  0  0
    5.1070   -0.7800    3.9010 O   0  0  0  0  0  0  0  0  0  0  0  0
    6.9440   -1.4440    2.6110 C   0  0  0  0  0  0  0  0  0  0  0  0
    7.2180   -1.6610    1.2540 O   0  0  0  0  0  0  0  0  0  0  0  0
    7.1100   -0.6900    0.2980 C   0  0  0  0  0  0  0  0  0  0  0  0
    6.7440    0.6020    0.5260 C   0  0  0  0  0  0  0  0  0  0  0  0
    6.6720    1.4960   -0.5520 C   0  0  0  0  0  0  0  0  0  0  0  0
    6.9560    1.1220   -1.8390 C   0  0  0  0  0  0  0  0  0  0  0  0
    7.3260   -0.1800   -2.0740 C   0  0  0  0  0  0  0  0  0  0  0  0
    7.3960   -1.0570   -1.0130 C   0  0  0  0  0  0  0  0  0  0  0  0
    0.4060   -0.0420    1.1210 N   0  0  0  0  0  0  0  0  0  0  0  0
   -0.7890    0.1670    0.5570 C   0  0  0  0  0  0  0  0  0  0  0  0
   -2.0350    0.5680    1.1850 C   0  0  0  0  0  0  0  0  0  0  0  0
   -3.2530    0.7030    0.3120 C   0  0  1  0  0  0  0  0  0  0  0  0
   -3.6240    2.2030    0.4310 C   0  0  0  0  0  0  0  0  0  0  0  0
   -4.3510   -0.0330    1.0740 C   0  0  0  0  0  0  0  0  0  0  0  0
   -4.2520   -1.4910    1.1720 C   0  0  0  0  0  0  0  0  0  0  0  0
   -5.3880   -1.9350    1.9220 O   0  0  0  0  0  0  0  0  0  0  0  0
  1  2  1  0
  2  3  1  0
  3  4  1  0
  5  4  1  1
  5  6  1  0
  5 28  1  0
  6  7  2  0
  6  8  1  0
  8  9  1  0
  8 26  2  0
  9 10  2  0
 10 11  1  0
 10 25  1  0
 11 12  2  0
 11 13  1  0
 13 14  1  0
 14 15  1  0
 15 16  2  0
 15 17  1  0
 17 18  1  0
 18 19  1  0
 19 20  2  0
 19 24  1  0
 20 21  1  0
 21 22  2  0
 22 23  1  0
 23 24  2  0
 25 26  1  0
 26 27  1  0
 27 28  1  0
 28 29  1  6
 28 30  1  0
 30 31  1  0
 31 32  1  0
M  END
