
     RDKit          3D

 32 34  0  0  0  0  0  0  0  0999 V2000
   -3.5010   -2.5310   -1.0500 C   0  0  0  0  0  0  0  0  0  0  0  0
   -3.0360   -1.4260   -0.1010 C   0  0  0  0  0  0  0  0  0  0  0  0
   -2.5360   -2.1010    1.1780 C   0  0  2  0  0  0  0  0  0  0  0  0
   -3.7640   -2.8750    1.7020 C   0  0  0  0  0  0  0  0  0  0  0  0
   -2.0630   -1.1300    2.2020 C   0  0  1  0  0  0  0  0  0  0  0  0
   -1.5900   -1.8660    3.4010 C   0  0  0  0  0  0  0  0  0  0  0  0
   -2.4080   -2.8010    4.0900 N   0  0  0  0  0  0  0  0  0  0  0  0
   -0.4230   -1.6460    3.8090 O   0  0  0  0  0  0  0  0  0  0  0  0
   -0.9860   -0.2370    1.6970 N   0  0  0  0  0  0  0  0  0  0  0  0
   -1.2150    1.1940    1.7690 C   0  0  0  0  0  0  0  0  0  0  0  0
   -1.7780    1.7630    0.5300 C   0  0  0  0  0  0  0  0  0  0  0  0
   -2.9370    2.3880    0.4650 C   0  0  0  0  0  0  0  0  0  0  0  0
   -3.4530    2.9330   -0.7800 C   0  0  0  0  0  0  0  0  0  0  0  0
   -2.7810    2.8430   -1.9900 C   0  0  0  0  0  0  0  0  0  0  0  0
   -3.5470    3.4570   -2.9500 C   0  0  0  0  0  0  0  0  0  0  0  0
   -4.6680    3.9020   -2.2810 C   0  0  0  0  0  0  0  0  0  0  0  0
   -4.5570    3.5680   -1.0200 O   0  0  0  0  0  0  0  0  0  0  0  0
    0.2070   -0.7750    1.2260 C   0  0  0  0  0  0  0  0  0  0  0  0
    0.2790   -2.0680    1.3130 O   0  0  0  0  0  0  0  0  0  0  0  0
    1.3510   -0.1200    0.6680 C   0  0  0  0  0  0  0  0  0  0  0  0
    1.6120    1.1960    0.3890 C   0  0  0  0  0  0  0  0  0  0  0  0
    2.9040    1.2060   -0.1430 C   0  0  0  0  0  0  0  0  0  0  0  0
    3.6910    2.2250   -0.5990 C   0  0  0  0  0  0  0  0  0  0  0  0
    4.9470    1.9480   -1.0790 C   0  0  0  0  0  0  0  0  0  0  0  0
    5.4100    0.6370   -1.1000 C   0  0  0  0  0  0  0  0  0  0  0  0
    6.6800    0.3960   -1.5900 O   0  0  0  0  0  0  0  0  0  0  0  0
    7.4780    1.4500   -2.0550 C   0  0  0  0  0  0  0  0  0  0  0  0
    4.6330   -0.4060   -0.6440 C   0  0  0  0  0  0  0  0  0  0  0  0
    5.1490   -1.6830   -0.6900 O   0  0  0  0  0  0  0  0  0  0  0  0
    4.9340   -2.4670   -1.8580 C   0  0  0  0  0  0  0  0  0  0  0  0
    3.3690   -0.0860   -0.1660 C   0  0  0  0  0  0  0  0  0  0  0  0
    2.4430   -0.8340    0.3120 O   0  0  0  0  0  0  0  0  0  0  0  0
  1  2  1  0
  2  3  1  0
  3  4  1  1
  3  5  1  0
  5  6  1  0
  5  9  1  6
  6  7  1  0
  6  8  2  0
  9 10  1  0
  9 18  1  0
 10 11  1  0
 11 12  2  3
 12 13  1  0
 13 14  2  0
 13 17  1  0
 14 15  1  0
 15 16  2  0
 16 17  1  0
 18 19  2  0
 18 20  1  0
 20 21  2  0
 20 32  1  0
 21 22  1  0
 22 23  2  0
 22 31  1  0
 23 24  1  0
 24 25  2  0
 25 26  1  0
 25 28  1  0
 26 27  1  0
 28 29  1  0
 28 31  2  0
 29 30  1  0
 31 32  1  0
M  END
