
     RDKit          3D

 32 34  0  0  0  0  0  0  0  0999 V2000
    7.1360   -1.6360   -0.6660 C   0  0  0  0  0  0  0  0  0  0  0  0
    6.1430   -2.1570    0.3380 C   0  0  0  0  0  0  0  0  0  0  0  0
    4.8000   -1.4740    0.1540 C   0  0  0  0  0  0  0  0  0  0  0  0
    4.3130   -1.7250   -1.1440 O   0  0  0  0  0  0  0  0  0  0  0  0
    3.0700   -1.1700   -1.5060 C   0  0  0  0  0  0  0  0  0  0  0  0
    2.3500   -0.4030   -0.6310 C   0  0  0  0  0  0  0  0  0  0  0  0
    1.1370    0.1390   -0.9830 C   0  0  0  0  0  0  0  0  0  0  0  0
    0.3590    0.9930   -0.1100 C   0  0  0  0  0  0  0  0  0  0  0  0
    0.9280    2.1570    0.4190 C   0  0  0  0  0  0  0  0  0  0  0  0
    0.2270    3.0210    1.2180 C   0  0  0  0  0  0  0  0  0  0  0  0
    0.7720    4.1770    1.7500 O   0  0  0  0  0  0  0  0  0  0  0  0
   -0.0110    5.0240    2.5660 C   0  0  0  0  0  0  0  0  0  0  0  0
    0.8100    6.2000    3.0140 C   0  0  0  0  0  0  0  0  0  0  0  0
    1.2490    6.9020    1.9120 O   0  0  0  0  0  0  0  0  0  0  0  0
    0.1970    7.3800    1.1520 C   0  0  0  0  0  0  0  0  0  0  0  0
   -1.0850    2.7220    1.5030 C   0  0  0  0  0  0  0  0  0  0  0  0
   -1.6450    1.5720    0.9810 C   0  0  0  0  0  0  0  0  0  0  0  0
   -0.9630    0.6900    0.1790 C   0  0  0  0  0  0  0  0  0  0  0  0
   -1.5210   -0.5070   -0.3190 N   0  0  0  0  0  0  0  0  0  0  0  0
   -2.8420   -0.9590   -0.2290 C   0  0  0  0  0  0  0  0  0  0  0  0
   -3.7000   -0.2700    0.3490 O   0  0  0  0  0  0  0  0  0  0  0  0
   -3.2830   -2.2720   -0.8150 C   0  0  1  0  0  0  0  0  0  0  0  0
   -2.5490   -3.4240   -0.2070 C   0  0  0  0  0  0  0  0  0  0  0  0
   -3.5170   -4.0050    0.7680 C   0  0  0  0  0  0  0  0  0  0  0  0
   -4.8140   -3.3270    0.4330 C   0  0  2  0  0  0  0  0  0  0  0  0
   -5.8750   -4.3470    0.0100 C   0  0  0  0  0  0  0  0  0  0  0  0
   -7.0850   -3.5930   -0.2620 N   0  0  0  0  0  0  0  0  0  0  0  0
   -4.6120   -2.4330   -0.5750 O   0  0  0  0  0  0  0  0  0  0  0  0
    0.6710   -0.1190   -2.2520 C   0  0  0  0  0  0  0  0  0  0  0  0
    1.3900   -0.8990   -3.1560 C   0  0  0  0  0  0  0  0  0  0  0  0
    2.6120   -1.4330   -2.7740 C   0  0  0  0  0  0  0  0  0  0  0  0
    3.3530   -2.2150   -3.6540 O   0  0  0  0  0  0  0  0  0  0  0  0
  1  2  1  0
  2  3  1  0
  3  4  1  0
  4  5  1  0
  5  6  2  0
  5 31  1  0
  6  7  1  0
  7  8  1  0
  7 29  2  0
  8  9  2  0
  8 18  1  0
  9 10  1  0
 10 11  1  0
 10 16  2  0
 11 12  1  0
 12 13  1  0
 13 14  1  0
 14 15  1  0
 16 17  1  0
 17 18  2  0
 18 19  1  0
 19 20  1  0
 20 21  2  0
 22 20  1  1
 22 23  1  0
 22 28  1  0
 23 24  1  0
 24 25  1  0
 25 26  1  6
 25 28  1  0
 26 27  1  0
 29 30  1  0
 30 31  2  0
 31 32  1  0
M  END
