
     RDKit          3D

 32 33  0  0  0  0  0  0  0  0999 V2000
   -6.2420   -0.7800    2.7640 C   0  0  0  0  0  0  0  0  0  0  0  0
   -6.4650   -0.1540    1.6460 C   0  0  0  0  0  0  0  0  0  0  0  0
   -5.3210    0.0480    0.7120 C   0  0  0  0  0  0  0  0  0  0  0  0
   -5.5490    0.6790   -0.4070 C   0  0  0  0  0  0  0  0  0  0  0  0
   -6.9620    1.1550   -0.6710 C   0  0  0  0  0  0  0  0  0  0  0  0
   -4.0130   -0.4950    1.0930 C   0  0  0  0  0  0  0  0  0  0  0  0
   -2.9950   -0.4440    0.0780 C   0  0  0  0  0  0  0  0  0  0  0  0
   -3.1790   -0.3710   -1.2030 O   0  0  0  0  0  0  0  0  0  0  0  0
   -2.0710   -0.3380   -1.8870 C   0  0  0  0  0  0  0  0  0  0  0  0
   -1.9510   -0.2560   -3.2960 N   0  0  0  0  0  0  0  0  0  0  0  0
   -3.1960   -0.1590   -4.0340 C   0  0  0  0  0  0  0  0  0  0  0  0
   -3.5820    1.0210   -4.4760 C   0  0  0  0  0  0  0  0  0  0  0  0
   -4.8260    1.2430   -5.2370 C   0  0  0  0  0  0  0  0  0  0  0  0
   -1.0200   -0.3980   -0.9300 C   0  0  0  0  0  0  0  0  0  0  0  0
    0.3580   -0.3880   -1.3220 C   0  0  0  0  0  0  0  0  0  0  0  0
    0.6460   -0.3490   -2.5830 O   0  0  0  0  0  0  0  0  0  0  0  0
    1.5700   -0.4110   -0.4980 C   0  0  0  0  0  0  0  0  0  0  0  0
    2.8330   -0.3210   -1.3920 C   0  0  0  0  0  0  0  0  0  0  0  0
    4.0420   -0.3520   -0.4880 C   0  0  0  0  0  0  0  0  0  0  0  0
    3.8780   -0.6700    0.6810 O   0  0  0  0  0  0  0  0  0  0  0  0
    5.3140   -0.0260   -0.9530 N   0  0  0  0  0  0  0  0  0  0  0  0
    6.5770    0.0430   -0.3560 C   0  0  0  0  0  0  0  0  0  0  0  0
    6.8820    0.9720    0.7480 C   0  0  1  0  0  0  0  0  0  0  0  0
    6.4310    0.6700    2.1260 C   0  0  0  0  0  0  0  0  0  0  0  0
    7.5180   -0.2230    2.7480 C   0  0  0  0  0  0  0  0  0  0  0  0
    8.5790   -0.1950    1.6880 C   0  0  0  0  0  0  0  0  0  0  0  0
    8.3090    0.9330    0.9650 O   0  0  0  0  0  0  0  0  0  0  0  0
   -1.5880   -0.4660    0.3040 C   0  0  0  0  0  0  0  0  0  0  0  0
   -1.0010   -0.5790    1.6060 C   0  0  0  0  0  0  0  0  0  0  0  0
    0.2040   -0.5910    1.8820 O   0  0  0  0  0  0  0  0  0  0  0  0
   -1.8070   -0.6980    2.7740 O   0  0  0  0  0  0  0  0  0  0  0  0
   -1.2350   -0.8140    4.0530 C   0  0  0  0  0  0  0  0  0  0  0  0
  1  2  2  0
  2  3  1  0
  3  4  2  3
  3  6  1  0
  4  5  1  0
  6  7  1  0
  7  8  1  0
  7 28  2  0
  8  9  1  0
  9 10  1  0
  9 14  2  0
 10 11  1  0
 11 12  2  3
 12 13  1  0
 14 15  1  0
 14 28  1  0
 15 16  2  0
 15 17  1  0
 17 18  1  0
 18 19  1  0
 19 20  2  0
 19 21  1  0
 21 22  1  0
 23 22  1  6
 23 24  1  0
 23 27  1  0
 24 25  1  0
 25 26  1  0
 26 27  1  0
 28 29  1  0
 29 30  2  0
 29 31  1  0
 31 32  1  0
M  END
