
     RDKit          3D

 30 31  0  0  0  0  0  0  0  0999 V2000
    7.3510   -2.8660    1.1500 O   0  0  0  0  0  0  0  0  0  0  0  0
    6.6530   -2.5010    0.1620 C   0  0  0  0  0  0  0  0  0  0  0  0
    7.0150   -2.9560   -1.1050 O   0  0  0  0  0  0  0  0  0  0  0  0
    5.5220   -1.6420    0.3420 N   0  0  0  0  0  0  0  0  0  0  0  0
    5.1660   -1.1850    1.6390 C   0  0  0  0  0  0  0  0  0  0  0  0
    5.8720   -1.5590    2.6070 O   0  0  0  0  0  0  0  0  0  0  0  0
    4.0080   -0.2950    1.8980 C   0  0  0  0  0  0  0  0  0  0  0  0
    3.3320    0.0140    0.6700 O   0  0  0  0  0  0  0  0  0  0  0  0
    2.2180    0.8310    0.6490 C   0  0  0  0  0  0  0  0  0  0  0  0
    1.7990    1.3070    1.7340 O   0  0  0  0  0  0  0  0  0  0  0  0
    1.5220    1.1590   -0.5490 N   0  0  0  0  0  0  0  0  0  0  0  0
    0.3530    2.0150   -0.5810 C   0  0  2  0  0  0  0  0  0  0  0  0
    0.7630    3.7060    0.1270 P   0  0  0  0  0  0  0  0  0  0  0  0
    0.6330    3.6770    1.8600 O   0  0  0  0  0  0  0  0  0  0  0  0
    2.3620    4.1220   -0.3800 O   0  0  0  0  0  0  0  0  0  0  0  0
   -0.7850    1.4770    0.2420 C   0  0  0  0  0  0  0  0  0  0  0  0
   -1.5680    0.5790   -0.6240 N   0  0  0  0  0  0  0  0  0  0  0  0
   -2.9040    0.1630   -0.2580 C   0  0  0  0  0  0  0  0  0  0  0  0
   -3.0740   -1.3120   -0.5380 C   0  0  1  0  0  0  0  0  0  0  0  0
   -4.2830   -1.5540   -1.1870 O   0  0  0  0  0  0  0  0  0  0  0  0
   -5.3130   -2.5150   -0.1790 P   0  0  0  0  0  0  0  0  0  0  0  0
   -4.5490   -2.7590    1.3600 O   0  0  0  0  0  0  0  0  0  0  0  0
   -7.2070   -1.4180    0.2080 P   0  0  0  0  0  0  0  0  0  0  0  0
   -8.1690   -2.4220    1.2490 O   0  0  0  0  0  0  0  0  0  0  0  0
   -6.8140    0.0490    1.0440 O   0  0  0  0  0  0  0  0  0  0  0  0
   -2.0090   -1.8530   -1.3070 O   0  0  0  0  0  0  0  0  0  0  0  0
   -1.2420   -1.1270   -2.1820 N   0  0  0  0  0  0  0  0  0  0  0  0
   -1.0110    0.1090   -1.8470 C   0  0  0  0  0  0  0  0  0  0  0  0
   -0.1880    1.0060   -2.7100 C   0  0  0  0  0  0  0  0  0  0  0  0
    0.0070    2.2370   -1.9700 N   0  0  0  0  0  0  0  0  0  0  0  0
  1  2  2  0
  2  3  1  0
  2  4  1  0
  4  5  1  0
  5  6  2  0
  5  7  1  0
  7  8  1  0
  8  9  1  0
  9 10  2  0
  9 11  1  0
 12 11  1  6
 12 13  1  0
 12 16  1  0
 12 30  1  0
 13 14  1  0
 13 15  1  0
 16 17  1  0
 17 18  1  0
 17 28  1  0
 18 19  1  0
 19 20  1  6
 19 26  1  0
 20 21  1  0
 21 22  1  0
 21 23  1  0
 23 24  1  0
 23 25  1  0
 26 27  1  0
 27 28  2  0
 28 29  1  0
 29 30  1  0
M  END
