
     RDKit          3D

 30 31  0  0  0  0  0  0  0  0999 V2000
    1.2650    1.1710    5.6990 O   0  0  0  0  0  0  0  0  0  0  0  0
    1.8130   -0.0880    4.9300 P   0  0  0  0  0  0  0  0  0  0  0  0
    1.3550   -0.3060    3.2380 N   0  0  0  0  0  0  0  0  0  0  0  0
    2.1510    0.1170    2.0980 C   0  0  0  0  0  0  0  0  0  0  0  0
    3.2650    0.6640    2.3540 O   0  0  0  0  0  0  0  0  0  0  0  0
    1.6200   -0.1050    0.7740 C   0  0  1  0  0  0  0  0  0  0  0  0
    2.4790    0.6790   -0.2690 C   0  0  0  0  0  0  0  0  0  0  0  0
    3.6580   -0.0780   -0.2940 O   0  0  0  0  0  0  0  0  0  0  0  0
    4.6700    0.3720   -1.6170 P   0  0  0  0  0  0  0  0  0  0  0  0
    3.9730   -0.2840   -3.1040 O   0  0  0  0  0  0  0  0  0  0  0  0
    4.9070    2.0380   -1.8310 O   0  0  0  0  0  0  0  0  0  0  0  0
    1.7150   -1.4440    0.2280 N   0  0  0  0  0  0  0  0  0  0  0  0
    0.6890   -1.5450   -0.7310 C   0  0  0  0  0  0  0  0  0  0  0  0
    0.5720   -2.3420   -1.6660 O   0  0  0  0  0  0  0  0  0  0  0  0
   -0.3030   -0.4200   -0.3910 C   0  0  1  0  0  0  0  0  0  0  0  0
   -0.3020    0.4690   -1.6390 C   0  0  0  0  0  0  0  0  0  0  0  0
   -0.6260    1.7710   -1.4810 O   0  0  0  0  0  0  0  0  0  0  0  0
   -1.7040    2.5520   -1.3600 C   0  0  0  0  0  0  0  0  0  0  0  0
   -2.8500    2.0970   -1.4390 O   0  0  0  0  0  0  0  0  0  0  0  0
   -1.4700    3.9390   -1.1560 O   0  0  0  0  0  0  0  0  0  0  0  0
   -2.7470    5.0570   -0.9790 P   0  0  0  0  0  0  0  0  0  0  0  0
   -4.2210    4.6560   -0.8780 O   0  0  0  0  0  0  0  0  0  0  0  0
   -1.5580   -1.1370   -0.1150 C   0  0  0  0  0  0  0  0  0  0  0  0
   -1.7770   -2.2860   -0.7360 N   0  0  0  0  0  0  0  0  0  0  0  0
   -2.9460   -3.0590   -0.5390 C   0  0  0  0  0  0  0  0  0  0  0  0
   -3.0920   -4.1420   -1.1630 O   0  0  0  0  0  0  0  0  0  0  0  0
   -3.9110   -2.5820    0.3450 N   0  0  0  0  0  0  0  0  0  0  0  0
   -3.7000   -1.4540    1.2240 C   0  0  0  0  0  0  0  0  0  0  0  0
   -2.5800   -0.6810    0.7750 N   0  0  0  0  0  0  0  0  0  0  0  0
    0.2980    0.2350    0.6330 O   0  0  0  0  0  0  0  0  0  0  0  0
  1  2  2  0
  2  3  1  0
  3  4  1  0
  4  5  2  0
  4  6  1  0
  6  7  1  6
  6 12  1  0
  6 30  1  0
  7  8  1  0
  8  9  1  0
  9 10  1  0
  9 11  1  0
 12 13  1  0
 13 14  2  0
 13 15  1  0
 15 16  1  6
 15 23  1  0
 15 30  1  0
 16 17  1  0
 17 18  1  0
 18 19  2  0
 18 20  1  0
 20 21  1  0
 21 22  2  0
 23 24  2  0
 23 29  1  0
 24 25  1  0
 25 26  2  0
 25 27  1  0
 27 28  1  0
 28 29  1  0
M  END
