
     RDKit          3D

 30 31  0  0  0  0  0  0  0  0999 V2000
    7.8950    1.8460    0.9040 O   0  0  0  0  0  0  0  0  0  0  0  0
    7.1750    0.5360    1.3040 P   0  0  0  0  0  0  0  0  0  0  0  0
    5.6120    0.0470    0.5740 N   0  0  0  0  0  0  0  0  0  0  0  0
    5.5310   -1.1930   -0.1050 C   0  0  0  0  0  0  0  0  0  0  0  0
    6.5640   -1.9140   -0.1740 O   0  0  0  0  0  0  0  0  0  0  0  0
    4.2660   -1.6520   -0.7290 C   0  0  1  0  0  0  0  0  0  0  0  0
    3.2850   -0.6810   -0.5150 O   0  0  0  0  0  0  0  0  0  0  0  0
    2.1440   -0.9400    0.1680 N   0  0  0  0  0  0  0  0  0  0  0  0
    1.2030   -0.0800    0.3140 C   0  0  0  0  0  0  0  0  0  0  0  0
    1.2920    1.1510   -0.2090 N   0  0  0  0  0  0  0  0  0  0  0  0
    0.2930    2.0530   -0.0480 C   0  0  0  0  0  0  0  0  0  0  0  0
    0.3720    3.2170   -0.5390 O   0  0  0  0  0  0  0  0  0  0  0  0
   -0.8220    1.7490    0.6380 N   0  0  0  0  0  0  0  0  0  0  0  0
   -0.9720    0.5430    1.1820 C   0  0  0  0  0  0  0  0  0  0  0  0
    0.0630   -0.3900    1.0160 C   0  0  0  0  0  0  0  0  0  0  0  0
   -0.4210   -1.5200    1.7030 O   0  0  0  0  0  0  0  0  0  0  0  0
   -1.3410   -1.0850    2.6050 O   0  0  0  0  0  0  0  0  0  0  0  0
   -1.9920   -0.0750    1.9450 N   0  0  0  0  0  0  0  0  0  0  0  0
   -3.3660    0.2310    2.0230 C   0  0  0  0  0  0  0  0  0  0  0  0
   -4.0180   -0.4790    2.8700 O   0  0  0  0  0  0  0  0  0  0  0  0
   -4.1140    1.2330    1.2700 C   0  0  1  0  0  0  0  0  0  0  0  0
   -4.1180    0.8230   -0.1890 C   0  0  0  0  0  0  0  0  0  0  0  0
   -4.9410   -0.8400   -0.2750 P   0  0  0  0  0  0  0  0  0  0  0  0
   -4.3960   -1.7550   -1.6410 O   0  0  0  0  0  0  0  0  0  0  0  0
   -6.6440   -0.7300   -0.1720 O   0  0  0  0  0  0  0  0  0  0  0  0
   -5.9240    1.1160    1.8060 P   0  0  0  0  0  0  0  0  0  0  0  0
   -6.3150    1.3850    3.2890 O   0  0  0  0  0  0  0  0  0  0  0  0
    4.5230   -1.8350   -2.1820 C   0  0  0  0  0  0  0  0  0  0  0  0
    5.3700   -2.6650   -2.5560 O   0  0  0  0  0  0  0  0  0  0  0  0
    3.8330   -1.0970   -3.1180 O   0  0  0  0  0  0  0  0  0  0  0  0
  1  2  2  0
  2  3  1  0
  3  4  1  0
  4  5  2  0
  4  6  1  0
  6  7  1  6
  6 28  1  0
  7  8  1  0
  8  9  2  3
  9 10  1  0
  9 15  1  0
 10 11  1  0
 11 12  2  0
 11 13  1  0
 13 14  1  0
 14 15  2  0
 14 18  1  0
 15 16  1  0
 16 17  1  0
 17 18  1  0
 18 19  1  0
 19 20  2  0
 19 21  1  0
 21 22  1  6
 21 26  1  0
 22 23  1  0
 23 24  1  0
 23 25  1  0
 26 27  2  0
 28 29  2  0
 28 30  1  0
M  END
