
     RDKit          3D

 31 32  0  0  0  0  0  0  0  0999 V2000
    1.4700   -0.6160   -2.0350 N   0  0  0  0  0  0  0  0  0  0  0  0
    1.6420   -0.3310   -0.7370 C   0  0  0  0  0  0  0  0  0  0  0  0
    1.2240    0.9430   -0.3220 N   0  0  0  0  0  0  0  0  0  0  0  0
   -0.0720    1.4170   -0.7610 C   0  0  0  0  0  0  0  0  0  0  0  0
   -1.2080    0.6460   -0.1760 C   0  0  0  0  0  0  0  0  0  0  0  0
   -1.9150   -0.2280   -0.8550 N   0  0  0  0  0  0  0  0  0  0  0  0
   -2.9010   -0.8010   -0.0920 N   0  0  0  0  0  0  0  0  0  0  0  0
   -3.8660   -1.7890   -0.5080 C   0  0  1  0  0  0  0  0  0  0  0  0
   -4.5310   -1.5440   -1.8410 C   0  0  0  0  0  0  0  0  0  0  0  0
   -4.4860   -2.9720   -1.9970 O   0  0  0  0  0  0  0  0  0  0  0  0
   -3.3040   -2.9380   -1.2770 C   0  0  0  0  0  0  0  0  0  0  0  0
   -2.2080   -3.6010   -1.2700 O   0  0  0  0  0  0  0  0  0  0  0  0
   -2.8280   -0.2480    1.2100 C   0  0  0  0  0  0  0  0  0  0  0  0
   -3.5830   -0.5450    2.1990 O   0  0  0  0  0  0  0  0  0  0  0  0
   -1.6980    0.7540    1.2110 C   0  0  1  0  0  0  0  0  0  0  0  0
   -0.7730    0.4460    2.1580 O   0  0  0  0  0  0  0  0  0  0  0  0
   -0.5720    1.2670    3.1250 O   0  0  0  0  0  0  0  0  0  0  0  0
   -1.6950    2.5320    3.3090 P   0  0  0  0  0  0  0  0  0  0  0  0
   -3.2040    2.3430    3.6310 O   0  0  0  0  0  0  0  0  0  0  0  0
    1.9790    1.8600    0.5140 C   0  0  0  0  0  0  0  0  0  0  0  0
    1.4620    3.6490    0.2070 P   0  0  0  0  0  0  0  0  0  0  0  0
    1.2230    3.9430   -1.4930 O   0  0  0  0  0  0  0  0  0  0  0  0
    2.7460    4.6510    0.8060 O   0  0  0  0  0  0  0  0  0  0  0  0
    2.2390   -1.3900   -0.0310 N   0  0  0  0  0  0  0  0  0  0  0  0
    2.5910   -1.5040    1.3110 C   0  0  0  0  0  0  0  0  0  0  0  0
    3.1190   -2.5900    1.7330 O   0  0  0  0  0  0  0  0  0  0  0  0
    2.4430   -0.5550    2.3060 O   0  0  0  0  0  0  0  0  0  0  0  0
    2.8080   -0.7380    3.5780 O   0  0  0  0  0  0  0  0  0  0  0  0
    2.6750   -2.8990   -1.0250 P   0  0  0  0  0  0  0  0  0  0  0  0
    4.3790   -2.8330   -1.3740 O   0  0  0  0  0  0  0  0  0  0  0  0
    1.7440   -2.8920   -2.4890 O   0  0  0  0  0  0  0  0  0  0  0  0
  1  2  2  0
  2  3  1  0
  2 24  1  0
  3  4  1  0
  3 20  1  0
  4  5  1  0
  5  6  2  0
  5 15  1  0
  6  7  1  0
  8  7  1  6
  7 13  1  0
  8  9  1  0
  8 11  1  0
  9 10  1  0
 10 11  1  0
 11 12  2  0
 13 14  2  0
 13 15  1  0
 15 16  1  1
 16 17  1  0
 17 18  1  0
 18 19  2  0
 20 21  1  0
 21 22  1  0
 21 23  1  0
 24 25  1  0
 24 29  1  0
 25 26  2  0
 25 27  1  0
 27 28  1  0
 29 30  1  0
 29 31  1  0
M  END
