
     RDKit          3D

 31 33  0  0  0  0  0  0  0  0999 V2000
   -7.8140    0.2550   -1.4900 N   0  0  0  0  0  0  0  0  0  0  0  0
   -6.5150    0.5690   -1.0270 C   0  0  0  0  0  0  0  0  0  0  0  0
   -6.1260    1.8560   -0.9750 N   0  0  0  0  0  0  0  0  0  0  0  0
   -4.9000    2.2100   -0.5420 C   0  0  0  0  0  0  0  0  0  0  0  0
   -4.0230    1.2710   -0.1460 N   0  0  0  0  0  0  0  0  0  0  0  0
   -4.3270   -0.0340   -0.1650 C   0  0  0  0  0  0  0  0  0  0  0  0
   -5.5990   -0.3790   -0.6160 C   0  0  0  0  0  0  0  0  0  0  0  0
   -5.6670   -1.7080   -0.5450 N   0  0  0  0  0  0  0  0  0  0  0  0
   -4.4860   -2.1720   -0.0700 C   0  0  0  0  0  0  0  0  0  0  0  0
   -3.6510   -1.1440    0.1680 N   0  0  0  0  0  0  0  0  0  0  0  0
   -2.3130   -1.2120    0.6730 C   0  0  2  0  0  0  0  0  0  0  0  0
   -1.7020    0.0240    0.6610 O   0  0  0  0  0  0  0  0  0  0  0  0
   -0.3470   -0.2340    0.8670 C   0  0  2  0  0  0  0  0  0  0  0  0
    0.4360    0.9190    0.3030 C   0  0  0  0  0  0  0  0  0  0  0  0
    1.7820    0.6740    0.5020 O   0  0  0  0  0  0  0  0  0  0  0  0
    2.7270    1.9400   -0.1130 P   0  0  1  0  0  0  0  0  0  0  0  0
    1.9730    2.5400   -1.2770 O   0  0  0  0  0  0  0  0  0  0  0  0
    2.9440    3.1590    1.0580 O   0  0  0  0  0  0  0  0  0  0  0  0
    4.2540    1.3900   -0.5860 O   0  0  0  0  0  0  0  0  0  0  0  0
    4.8770    0.3490    0.5920 P   0  0  2  0  0  0  0  0  0  0  0  0
    4.4000   -1.0750    0.3480 O   0  0  0  0  0  0  0  0  0  0  0  0
    4.2980    0.8420    2.1250 O   0  0  0  0  0  0  0  0  0  0  0  0
    6.5610    0.4340    0.6690 O   0  0  0  0  0  0  0  0  0  0  0  0
    7.2380    0.2920   -0.8630 P   0  0  1  0  0  0  0  0  0  0  0  0
    6.2780   -0.4760   -1.7410 O   0  0  0  0  0  0  0  0  0  0  0  0
    7.3720    1.8510   -1.5130 O   0  0  0  0  0  0  0  0  0  0  0  0
    8.7590   -0.4680   -0.7930 O   0  0  0  0  0  0  0  0  0  0  0  0
   -0.0460   -1.5220    0.1470 C   0  0  1  0  0  0  0  0  0  0  0  0
    0.5730   -2.3940    1.0410 O   0  0  0  0  0  0  0  0  0  0  0  0
   -1.4240   -2.0400   -0.2110 C   0  0  1  0  0  0  0  0  0  0  0  0
   -1.5320   -3.4070    0.0700 O   0  0  0  0  0  0  0  0  0  0  0  0
  1  2  1  0
  2  3  2  0
  2  7  1  0
  3  4  1  0
  4  5  2  0
  5  6  1  0
  6  7  2  0
  6 10  1  0
  7  8  1  0
  8  9  2  0
  9 10  1  0
 11 10  1  6
 11 12  1  0
 11 30  1  0
 12 13  1  0
 13 14  1  6
 13 28  1  0
 14 15  1  0
 15 16  1  0
 16 17  2  0
 16 18  1  1
 16 19  1  0
 19 20  1  0
 20 21  2  0
 20 22  1  1
 20 23  1  0
 23 24  1  0
 24 25  2  0
 24 26  1  6
 24 27  1  0
 28 29  1  1
 28 30  1  0
 30 31  1  1
M  END
