
     RDKit          3D

 30 31  0  0  0  0  0  0  0  0999 V2000
   -3.4780   -4.7880    0.5430 O   0  0  0  0  0  0  0  0  0  0  0  0
   -3.6660   -3.5820   -0.4280 P   0  0  0  0  0  0  0  0  0  0  0  0
   -2.5600   -2.2620   -0.2830 O   0  0  0  0  0  0  0  0  0  0  0  0
   -2.8310   -1.3910    0.7310 C   0  0  1  0  0  0  0  0  0  0  0  0
   -4.1180   -0.6940    0.6190 N   0  0  0  0  0  0  0  0  0  0  0  0
   -4.3120    0.2260   -0.4560 C   0  0  0  0  0  0  0  0  0  0  0  0
   -3.3580    0.4080   -1.2680 O   0  0  0  0  0  0  0  0  0  0  0  0
   -5.5580    0.8960   -0.5820 N   0  0  0  0  0  0  0  0  0  0  0  0
   -5.7520    2.1020   -1.9310 P   0  0  0  0  0  0  0  0  0  0  0  0
   -7.4530    2.3670   -2.2070 O   0  0  0  0  0  0  0  0  0  0  0  0
   -5.0980    3.6050   -1.2750 O   0  0  0  0  0  0  0  0  0  0  0  0
   -2.9350   -2.1630    2.0640 C   0  0  0  0  0  0  0  0  0  0  0  0
   -1.8320   -2.9600    2.1470 O   0  0  0  0  0  0  0  0  0  0  0  0
   -0.6640   -2.3560    1.7810 C   0  0  0  0  0  0  0  0  0  0  0  0
   -0.7410   -0.8510    1.6410 C   0  0  1  0  0  0  0  0  0  0  0  0
    0.4950   -0.4320    0.8640 C   0  0  0  0  0  0  0  0  0  0  0  0
    0.4890    0.7030    0.1860 N   0  0  0  0  0  0  0  0  0  0  0  0
    1.6120    1.1420   -0.5220 C   0  0  1  0  0  0  0  0  0  0  0  0
    2.7260    1.0780    0.4470 O   0  0  0  0  0  0  0  0  0  0  0  0
    3.8050    1.0280   -0.3230 C   0  0  0  0  0  0  0  0  0  0  0  0
    5.2140    0.6950    0.2110 C   0  0  0  0  0  0  0  0  0  0  0  0
    5.9160    0.6280   -0.9830 O   0  0  0  0  0  0  0  0  0  0  0  0
    7.1590    1.7390   -1.2030 P   0  0  0  0  0  0  0  0  0  0  0  0
    6.5260    2.8760   -2.4930 O   0  0  0  0  0  0  0  0  0  0  0  0
    7.2960    2.7880    0.1620 O   0  0  0  0  0  0  0  0  0  0  0  0
    2.1950   -0.1760   -1.2650 C   0  0  0  0  0  0  0  0  0  0  0  0
    2.4990   -0.0870   -2.4630 O   0  0  0  0  0  0  0  0  0  0  0  0
    2.3200   -1.3110   -0.5240 N   0  0  0  0  0  0  0  0  0  0  0  0
    1.4340   -1.4680    0.5590 N   0  0  0  0  0  0  0  0  0  0  0  0
   -1.8260   -0.4710    0.8670 O   0  0  0  0  0  0  0  0  0  0  0  0
  1  2  2  0
  2  3  1  0
  3  4  1  0
  4  5  1  6
  4 12  1  0
  4 30  1  0
  5  6  1  0
  6  7  2  0
  6  8  1  0
  8  9  1  0
  9 10  1  0
  9 11  1  0
 12 13  1  0
 13 14  1  0
 14 15  1  0
 15 16  1  6
 15 30  1  0
 16 17  2  0
 16 29  1  0
 17 18  1  0
 18 19  1  1
 18 26  1  0
 19 20  1  0
 20 21  1  0
 21 22  1  0
 22 23  1  0
 23 24  1  0
 23 25  1  0
 26 27  2  0
 26 28  1  0
 28 29  1  0
M  END
