
     RDKit          3D

 30 31  0  0  0  0  0  0  0  0999 V2000
    4.6440    0.8990   -0.8200 N   0  0  0  0  0  0  0  0  0  0  0  0
    5.3480    0.4610    0.1540 C   0  0  0  0  0  0  0  0  0  0  0  0
    4.6020    0.1750    1.3890 N   0  0  0  0  0  0  0  0  0  0  0  0
    3.3140   -0.1110    1.1010 O   0  0  0  0  0  0  0  0  0  0  0  0
    2.2880    0.7660    0.8840 C   0  0  0  0  0  0  0  0  0  0  0  0
    2.4510    1.9990    1.0530 O   0  0  0  0  0  0  0  0  0  0  0  0
    0.9740    0.2240    0.4290 C   0  0  1  0  0  0  0  0  0  0  0  0
    1.2850   -1.1530   -0.2320 C   0  0  0  0  0  0  0  0  0  0  0  0
    1.8490   -1.8690    0.8550 O   0  0  0  0  0  0  0  0  0  0  0  0
    0.9710   -1.8830    1.9180 C   0  0  0  0  0  0  0  0  0  0  0  0
   -0.2640   -1.3380    1.6170 O   0  0  0  0  0  0  0  0  0  0  0  0
   -0.1460    0.0490    1.3330 C   0  0  2  0  0  0  0  0  0  0  0  0
   -1.4080    0.3210    0.5300 C   0  0  0  0  0  0  0  0  0  0  0  0
   -1.3380    0.7800   -0.8050 N   0  0  0  0  0  0  0  0  0  0  0  0
   -2.6050    0.9250   -1.2060 O   0  0  0  0  0  0  0  0  0  0  0  0
   -3.3710    0.6220   -0.2500 C   0  0  0  0  0  0  0  0  0  0  0  0
   -4.8600    0.6700   -0.2780 C   0  0  1  0  0  0  0  0  0  0  0  0
   -5.2340    1.9420    0.5680 C   0  0  0  0  0  0  0  0  0  0  0  0
   -4.4970    1.5130    1.7260 O   0  0  0  0  0  0  0  0  0  0  0  0
   -5.3810    1.2640    2.6870 O   0  0  0  0  0  0  0  0  0  0  0  0
   -5.5560    0.6760   -1.9410 P   0  0  0  0  0  0  0  0  0  0  0  0
   -4.2460    0.9610   -3.0940 O   0  0  0  0  0  0  0  0  0  0  0  0
   -6.4080   -1.3330   -2.3520 P   0  0  0  0  0  0  0  0  0  0  0  0
   -5.1360   -2.5200   -2.3450 O   0  0  0  0  0  0  0  0  0  0  0  0
   -7.5100   -1.6780   -1.0280 O   0  0  0  0  0  0  0  0  0  0  0  0
   -2.6710    0.2540    0.8090 N   0  0  0  0  0  0  0  0  0  0  0  0
    6.7230    0.2130    0.0160 N   0  0  0  0  0  0  0  0  0  0  0  0
    7.6050    0.8820   -1.4180 P   0  0  0  0  0  0  0  0  0  0  0  0
    7.4930   -0.1790   -2.7790 O   0  0  0  0  0  0  0  0  0  0  0  0
    9.2680    1.0420   -0.9740 O   0  0  0  0  0  0  0  0  0  0  0  0
  1  2  2  0
  2  3  1  0
  2 27  1  0
  3  4  1  0
  4  5  1  0
  5  6  2  0
  7  5  1  1
  7  8  1  0
  7 12  1  0
  8  9  1  0
  9 10  1  0
 10 11  1  0
 11 12  1  0
 12 13  1  6
 13 14  2  0
 13 26  1  0
 14 15  1  0
 15 16  1  0
 16 17  1  0
 16 26  2  0
 17 18  1  6
 17 21  1  0
 18 19  1  0
 19 20  1  0
 21 22  1  0
 21 23  1  0
 23 24  1  0
 23 25  1  0
 27 28  1  0
 28 29  1  0
 28 30  1  0
M  END
