
     RDKit          3D

 30 32  0  0  0  0  0  0  0  0999 V2000
    2.0460   -1.1370    1.5780 C   0  0  0  0  0  0  0  0  0  0  0  0
    1.2270    0.0880    1.3780 C   0  0  1  0  0  0  0  0  0  0  0  0
   -0.1700   -0.1400    1.4490 O   0  0  0  0  0  0  0  0  0  0  0  0
   -0.7620   -0.6520    2.5930 C   0  0  0  0  0  0  0  0  0  0  0  0
    0.0290   -0.8980    3.5600 O   0  0  0  0  0  0  0  0  0  0  0  0
   -2.2250   -0.9050    2.7060 C   0  0  0  0  0  0  0  0  0  0  0  0
   -2.8140   -0.5120    1.4250 N   0  0  0  0  0  0  0  0  0  0  0  0
   -3.3060    0.7660    1.0750 C   0  0  0  0  0  0  0  0  0  0  0  0
   -3.3290    1.7980    1.7980 O   0  0  0  0  0  0  0  0  0  0  0  0
   -3.7920    0.7270   -0.2570 N   0  0  0  0  0  0  0  0  0  0  0  0
   -3.6070   -0.5450   -0.7270 N   0  0  0  0  0  0  0  0  0  0  0  0
   -3.0080   -1.3490    0.2670 C   0  0  0  0  0  0  0  0  0  0  0  0
   -2.7280   -2.5820    0.0840 N   0  0  0  0  0  0  0  0  0  0  0  0
   -2.9280   -3.3660   -1.0470 C   0  0  0  0  0  0  0  0  0  0  0  0
   -2.5750   -4.5970   -1.0360 O   0  0  0  0  0  0  0  0  0  0  0  0
   -3.4920   -2.9430   -2.2390 O   0  0  0  0  0  0  0  0  0  0  0  0
   -4.0040   -1.2650   -2.3390 P   0  0  0  0  0  0  0  0  0  0  0  0
   -3.1140   -0.4500   -3.5860 O   0  0  0  0  0  0  0  0  0  0  0  0
    1.5270    1.1430    2.4050 C   0  0  0  0  0  0  0  0  0  0  0  0
    2.0170    0.9810    3.5360 O   0  0  0  0  0  0  0  0  0  0  0  0
    1.1280    2.3690    1.8020 N   0  0  0  0  0  0  0  0  0  0  0  0
    0.8070    2.1610    0.3960 C   0  0  0  0  0  0  0  0  0  0  0  0
    1.5810    0.8640    0.1280 C   0  0  1  0  0  0  0  0  0  0  0  0
    2.9190    1.1840    0.1460 O   0  0  0  0  0  0  0  0  0  0  0  0
    1.1710    0.2450   -1.0270 O   0  0  0  0  0  0  0  0  0  0  0  0
    1.6460    1.2500   -2.3610 P   0  0  0  0  0  0  0  0  0  0  0  0
    0.9980    0.6620   -3.8560 O   0  0  0  0  0  0  0  0  0  0  0  0
    3.8240    1.4240   -2.5060 P   0  0  0  0  0  0  0  0  0  0  0  0
    4.3290    1.3750   -4.1600 O   0  0  0  0  0  0  0  0  0  0  0  0
    4.6350    0.2010   -1.5980 O   0  0  0  0  0  0  0  0  0  0  0  0
  2  1  1  1
  2  3  1  0
  2 19  1  0
  2 23  1  0
  3  4  1  0
  4  5  2  0
  4  6  1  0
  6  7  1  0
  7  8  1  0
  7 12  1  0
  8  9  2  0
  8 10  1  0
 10 11  1  0
 11 12  1  0
 11 17  1  0
 12 13  2  0
 13 14  1  0
 14 15  2  0
 14 16  1  0
 16 17  1  0
 17 18  1  0
 19 20  2  0
 19 21  1  0
 21 22  1  0
 22 23  1  0
 23 24  1  6
 23 25  1  0
 25 26  1  0
 26 27  1  0
 26 28  1  0
 28 29  1  0
 28 30  1  0
M  END
