
     RDKit          3D

 30 31  0  0  0  0  0  0  0  0999 V2000
    4.1260   -1.0470   -2.0370 N   0  0  0  0  0  0  0  0  0  0  0  0
    3.1450   -1.1930   -1.2260 C   0  0  0  0  0  0  0  0  0  0  0  0
    2.8900   -2.4980   -0.6550 N   0  0  0  0  0  0  0  0  0  0  0  0
    3.6770   -3.9320   -1.4400 P   0  0  0  0  0  0  0  0  0  0  0  0
    2.5090   -5.2140   -1.3830 O   0  0  0  0  0  0  0  0  0  0  0  0
    5.0730   -4.4240   -0.5320 O   0  0  0  0  0  0  0  0  0  0  0  0
    2.3090   -0.0890   -0.9120 N   0  0  0  0  0  0  0  0  0  0  0  0
    0.9410   -0.4070   -0.5010 C   0  0  0  0  0  0  0  0  0  0  0  0
    0.0360    0.7560   -0.5440 C   0  0  0  0  0  0  0  0  0  0  0  0
    0.3870    1.8950   -0.9500 O   0  0  0  0  0  0  0  0  0  0  0  0
   -1.3200    0.5630   -0.0990 N   0  0  0  0  0  0  0  0  0  0  0  0
   -2.3530    1.5600   -0.1240 C   0  0  0  0  0  0  0  0  0  0  0  0
   -3.6200    0.8440    0.2370 C   0  0  1  0  0  0  0  0  0  0  0  0
   -3.9520    1.2620    1.5250 O   0  0  0  0  0  0  0  0  0  0  0  0
   -4.7830    1.2550   -0.6470 C   0  0  0  0  0  0  0  0  0  0  0  0
   -4.6250    0.8910   -2.0220 N   0  0  0  0  0  0  0  0  0  0  0  0
   -3.2900   -0.5890    0.1250 C   0  0  2  0  0  0  0  0  0  0  0  0
   -4.1130   -1.4480    0.8090 O   0  0  0  0  0  0  0  0  0  0  0  0
   -3.9900   -1.4250    2.1750 C   0  0  0  0  0  0  0  0  0  0  0  0
   -2.7190   -1.2190    2.6850 O   0  0  0  0  0  0  0  0  0  0  0  0
   -1.6830   -0.6410    1.9360 C   0  0  0  0  0  0  0  0  0  0  0  0
   -0.7380   -0.1590    2.5740 O   0  0  0  0  0  0  0  0  0  0  0  0
   -1.8520   -0.6830    0.4820 C   0  0  2  0  0  0  0  0  0  0  0  0
    2.8370    1.5960   -0.9270 P   0  0  0  0  0  0  0  0  0  0  0  0
    2.3790    2.3940    0.5750 O   0  0  0  0  0  0  0  0  0  0  0  0
    2.5110    3.7070    0.3730 O   0  0  0  0  0  0  0  0  0  0  0  0
    4.5600    1.7100   -1.1330 O   0  0  0  0  0  0  0  0  0  0  0  0
    5.2680    1.9600    0.4260 P   0  0  0  0  0  0  0  0  0  0  0  0
    4.4880    0.9120    1.5630 O   0  0  0  0  0  0  0  0  0  0  0  0
    5.0740    3.5970    0.9560 O   0  0  0  0  0  0  0  0  0  0  0  0
  1  2  2  0
  2  3  1  0
  2  7  1  0
  3  4  1  0
  4  5  1  0
  4  6  1  0
  7  8  1  0
  7 24  1  0
  8  9  1  0
  9 10  2  0
  9 11  1  0
 11 12  1  0
 23 11  1  6
 12 13  1  0
 13 14  1  1
 13 15  1  0
 13 17  1  0
 15 16  1  0
 17 18  1  1
 17 23  1  0
 18 19  1  0
 19 20  1  0
 20 21  1  0
 21 22  2  0
 21 23  1  0
 24 25  1  0
 24 27  1  0
 25 26  1  0
 27 28  1  0
 28 29  1  0
 28 30  1  0
M  END
