
     RDKit          3D

 31 33  0  0  0  0  0  0  0  0999 V2000
   -0.9990   -3.9390   -0.8140 O   0  0  0  0  0  0  0  0  0  0  0  0
   -1.6910   -2.9320   -0.4540 C   0  0  0  0  0  0  0  0  0  0  0  0
   -1.1460   -1.9520    0.3650 O   0  0  0  0  0  0  0  0  0  0  0  0
   -1.8920   -0.8340    0.6970 C   0  0  1  0  0  0  0  0  0  0  0  0
   -2.7540   -1.0160    1.8810 C   0  0  0  0  0  0  0  0  0  0  0  0
   -2.7980   -2.1130    2.4930 O   0  0  0  0  0  0  0  0  0  0  0  0
   -3.5470    0.0120    2.3630 O   0  0  0  0  0  0  0  0  0  0  0  0
   -1.0960    0.4200    0.7720 C   0  0  0  0  0  0  0  0  0  0  0  0
    0.1510    0.5610    0.9970 N   0  0  0  0  0  0  0  0  0  0  0  0
    0.8070    1.7500    1.0510 O   0  0  0  0  0  0  0  0  0  0  0  0
    1.8750    2.2830   -0.2440 P   0  0  0  0  0  0  0  0  0  0  0  0
    1.3290    1.6490   -1.7680 O   0  0  0  0  0  0  0  0  0  0  0  0
    3.5290    1.8730    0.0590 O   0  0  0  0  0  0  0  0  0  0  0  0
    3.9310    0.2710   -0.4490 P   0  0  0  0  0  0  0  0  0  0  0  0
    2.8330   -0.8930    0.2060 O   0  0  0  0  0  0  0  0  0  0  0  0
    5.6280   -0.0410    0.0180 N   0  0  0  0  0  0  0  0  0  0  0  0
    6.8140   -0.0810   -0.8280 C   0  0  0  0  0  0  0  0  0  0  0  0
    7.9620    0.1760    0.1340 C   0  0  0  0  0  0  0  0  0  0  0  0
    7.4980   -0.3450    1.3600 O   0  0  0  0  0  0  0  0  0  0  0  0
    6.1150   -0.2960    1.3240 C   0  0  0  0  0  0  0  0  0  0  0  0
    5.3930   -0.4590    2.3430 O   0  0  0  0  0  0  0  0  0  0  0  0
   -2.0380    1.4580    0.5320 N   0  0  0  0  0  0  0  0  0  0  0  0
   -3.0450    0.9670   -0.1490 C   0  0  0  0  0  0  0  0  0  0  0  0
   -4.1990    1.6760   -0.5920 N   0  0  0  0  0  0  0  0  0  0  0  0
   -4.7240    3.1980    0.2150 P   0  0  0  0  0  0  0  0  0  0  0  0
   -4.2290    4.5960   -0.6400 O   0  0  0  0  0  0  0  0  0  0  0  0
   -6.4140    3.1800    0.5520 O   0  0  0  0  0  0  0  0  0  0  0  0
   -2.8080   -0.4390   -0.3910 N   0  0  0  0  0  0  0  0  0  0  0  0
   -3.2660   -1.3420   -1.3860 C   0  0  0  0  0  0  0  0  0  0  0  0
   -3.1100   -2.7610   -0.8880 C   0  0  1  0  0  0  0  0  0  0  0  0
   -3.4040   -3.6410   -1.9440 O   0  0  0  0  0  0  0  0  0  0  0  0
  1  2  2  0
  2  3  1  0
  2 30  1  0
  3  4  1  0
  4  5  1  1
  4  8  1  0
  4 28  1  0
  5  6  2  0
  5  7  1  0
  8  9  2  3
  8 22  1  0
  9 10  1  0
 10 11  1  0
 11 12  1  0
 11 13  1  0
 13 14  1  0
 14 15  1  0
 14 16  1  0
 16 17  1  0
 16 20  1  0
 17 18  1  0
 18 19  1  0
 19 20  1  0
 20 21  2  0
 22 23  2  0
 23 24  1  0
 23 28  1  0
 24 25  1  0
 25 26  1  0
 25 27  1  0
 28 29  1  0
 29 30  1  0
 30 31  1  6
M  END
