
     RDKit          3D

 28 30  0  0  0  0  0  0  0  0999 V2000
    4.1480    0.7960    4.1380 C   0  0  0  0  0  0  0  0  0  0  0  0
    3.4590    0.8330    2.9040 O   0  0  0  0  0  0  0  0  0  0  0  0
    4.1170    0.4030    1.7570 C   0  0  0  0  0  0  0  0  0  0  0  0
    5.4140   -0.0470    1.7970 C   0  0  0  0  0  0  0  0  0  0  0  0
    6.0750   -0.4720    0.6720 C   0  0  0  0  0  0  0  0  0  0  0  0
    7.4190   -0.9410    0.6970 N   0  0  0  0  0  0  0  0  0  0  0  0
    5.3980   -0.4390   -0.5260 C   0  0  0  0  0  0  0  0  0  0  0  0
    6.0440   -0.8770   -1.7390 C   0  0  0  0  0  0  0  0  0  0  0  0
    6.5640   -1.2120   -2.7160 N   0  0  0  0  0  0  0  0  0  0  0  0
    4.0770    0.0200   -0.5650 C   0  0  0  0  0  0  0  0  0  0  0  0
    3.3970    0.4490    0.5480 C   0  0  0  0  0  0  0  0  0  0  0  0
    2.0140    0.9200    0.5220 C   0  0  0  0  0  0  0  0  0  0  0  0
    1.3710    0.9250   -0.7370 N   0  0  0  0  0  0  0  0  0  0  0  0
   -0.0390    0.5330   -0.6360 C   0  0  0  0  0  0  0  0  0  0  0  0
   -0.1860   -0.9640   -0.8010 C   0  0  1  0  0  0  0  0  0  0  0  0
    0.5290   -1.6500    0.1850 O   0  0  0  0  0  0  0  0  0  0  0  0
   -1.6550   -1.3050   -0.7420 C   0  0  0  0  0  0  0  0  0  0  0  0
   -2.4600   -0.6570   -1.7280 N   0  0  1  0  0  0  0  0  0  0  0  0
   -3.2500   -1.6310   -2.4880 C   0  0  0  0  0  0  0  0  0  0  0  0
   -4.3210   -1.9660   -1.4540 C   0  0  0  0  0  0  0  0  0  0  0  0
   -4.6270   -0.6100   -0.9360 C   0  0  0  0  0  0  0  0  0  0  0  0
   -5.7610   -0.0820   -0.3720 C   0  0  0  0  0  0  0  0  0  0  0  0
   -5.8140    1.2320    0.0400 C   0  0  0  0  0  0  0  0  0  0  0  0
   -7.0610    1.7860    0.6540 C   0  0  0  0  0  0  0  0  0  0  0  0
   -4.7000    2.0090   -0.1270 C   0  0  0  0  0  0  0  0  0  0  0  0
   -4.7740    3.6770    0.3970 Cl  0  0  0  0  0  0  0  0  0  0  0  0
   -3.5550    1.4690   -0.7000 C   0  0  0  0  0  0  0  0  0  0  0  0
   -3.4790    0.1590   -1.1190 C   0  0  0  0  0  0  0  0  0  0  0  0
  1  2  1  0
  2  3  1  0
  3  4  2  0
  3 11  1  0
  4  5  1  0
  5  6  1  0
  5  7  2  0
  7  8  1  0
  7 10  1  0
  8  9  3  0
 10 11  2  0
 11 12  1  0
 12 13  1  0
 13 14  1  0
 14 15  1  0
 15 16  1  1
 15 17  1  0
 18 17  1  1
 18 19  1  0
 18 28  1  0
 19 20  1  0
 20 21  1  0
 21 22  2  0
 21 28  1  0
 22 23  1  0
 23 24  1  0
 23 25  2  0
 25 26  1  0
 25 27  1  0
 27 28  2  0
M  CHG  2  13   1  18   1
M  END
