
     RDKit          3D

 28 30  0  0  0  0  0  0  0  0999 V2000
    6.4700    1.8040   -0.8370 C   0  0  0  0  0  0  0  0  0  0  0  0
    5.6730    1.4360    0.3870 C   0  0  2  0  0  0  0  0  0  0  0  0
    6.3310    0.3940    1.2290 C   0  0  0  0  0  0  0  0  0  0  0  0
    4.3320    1.0500    0.0940 N   0  0  2  0  0  0  0  0  0  0  0  0
    4.1910   -0.3810   -0.2070 C   0  0  0  0  0  0  0  0  0  0  0  0
    2.7050   -0.6680    0.0580 C   0  0  0  0  0  0  0  0  0  0  0  0
    1.9000    0.1080   -0.9280 C   0  0  1  0  0  0  0  0  0  0  0  0
    0.4800   -0.0620   -0.5910 N   0  0  0  0  0  0  0  0  0  0  0  0
   -0.1590   -1.3010   -0.7790 C   0  0  0  0  0  0  0  0  0  0  0  0
    0.4780   -2.2830   -1.5400 C   0  0  0  0  0  0  0  0  0  0  0  0
   -0.1750   -3.4860   -1.7840 C   0  0  0  0  0  0  0  0  0  0  0  0
    0.5920   -4.7300   -2.7290 Cl  0  0  0  0  0  0  0  0  0  0  0  0
   -1.4300   -3.6910   -1.2760 C   0  0  0  0  0  0  0  0  0  0  0  0
   -2.0680   -2.7030   -0.5110 C   0  0  0  0  0  0  0  0  0  0  0  0
   -1.4440   -1.5100   -0.2570 C   0  0  0  0  0  0  0  0  0  0  0  0
   -2.0270   -0.5200    0.5510 N   0  0  0  0  0  0  0  0  0  0  0  0
   -3.3540   -0.5150    0.9910 C   0  0  0  0  0  0  0  0  0  0  0  0
   -4.1610   -1.3930    0.7030 O   0  0  0  0  0  0  0  0  0  0  0  0
   -3.7710    0.6480    1.8610 C   0  0  0  0  0  0  0  0  0  0  0  0
   -5.1370    0.5150    2.1230 O   0  0  0  0  0  0  0  0  0  0  0  0
   -6.1050    0.5440    1.1500 C   0  0  0  0  0  0  0  0  0  0  0  0
   -5.8570    0.7250   -0.1770 C   0  0  0  0  0  0  0  0  0  0  0  0
   -6.8940    0.7410   -1.1140 C   0  0  0  0  0  0  0  0  0  0  0  0
   -8.1530    0.5780   -0.7070 N   0  0  0  0  0  0  0  0  0  0  0  0
   -8.4380    0.3990    0.5900 C   0  0  0  0  0  0  0  0  0  0  0  0
   -7.4310    0.3790    1.5280 C   0  0  0  0  0  0  0  0  0  0  0  0
    2.2190    1.5970   -0.8680 C   0  0  0  0  0  0  0  0  0  0  0  0
    3.7400    1.7620   -0.9990 C   0  0  0  0  0  0  0  0  0  0  0  0
  2  1  1  6
  2  3  1  0
  2  4  1  0
  4  5  1  6
  4 28  1  0
  5  6  1  0
  6  7  1  0
  7  8  1  1
  7 27  1  0
  8  9  1  0
  9 10  2  0
  9 15  1  0
 10 11  1  0
 11 12  1  0
 11 13  2  0
 13 14  1  0
 14 15  2  0
 15 16  1  0
 16 17  1  0
 17 18  2  0
 17 19  1  0
 19 20  1  0
 20 21  1  0
 21 22  2  0
 21 26  1  0
 22 23  1  0
 23 24  2  0
 24 25  1  0
 25 26  2  0
 27 28  1  0
M  CHG  2   4   1  24   1
M  END
