
     RDKit          3D

 11 11  0  0  0  0  0  0  0  0999 V2000
    3.7060   -0.4220   -1.2960 C   0  0  0  0  0  0  0  0  0  0  0  0
    2.6830   -0.9820   -0.4980 O   0  0  0  0  0  0  0  0  0  0  0  0
    1.4470   -0.3230   -0.3790 C   0  0  0  0  0  0  0  0  0  0  0  0
    1.3410    0.7440   -1.0080 O   0  0  0  0  0  0  0  0  0  0  0  0
    0.4060   -0.8200    0.3860 N   0  0  0  0  0  0  0  0  0  0  0  0
   -0.9130   -0.2470    0.5960 C   0  0  0  0  0  0  0  0  0  0  0  0
   -1.4400    0.8330    0.1430 C   0  0  0  0  0  0  0  0  0  0  0  0
   -0.7670    1.7400   -0.7240 O   0  0  0  0  0  0  0  0  0  0  0  0
   -2.8320    1.1810    0.5300 C   0  0  0  0  0  0  0  0  0  0  0  0
   -2.8960    0.2430    2.1180 S   0  0  0  0  0  0  0  0  0  0  0  0
   -1.8210   -1.0760    1.4900 C   0  0  0  0  0  0  0  0  0  0  0  0
  1  2  1  0
  2  3  1  0
  3  4  2  0
  3  5  1  0
  5  6  1  0
  6  7  2  0
  6 11  1  0
  7  8  1  0
  7  9  1  0
  9 10  1  0
 10 11  1  0
M  END
