
     RDKit          3D

 21 22  0  0  0  0  0  0  0  0999 V2000
   -6.7930   -0.3370    0.2020 N   0  0  0  0  0  0  0  0  0  0  0  0
   -5.7970   -0.2510    1.1940 C   0  0  0  0  0  0  0  0  0  0  0  0
   -6.1190   -0.3900    2.4220 N   0  0  0  0  0  0  0  0  0  0  0  0
   -4.4260   -0.0080    0.8270 C   0  0  0  0  0  0  0  0  0  0  0  0
   -4.1290    0.1360   -0.5270 C   0  0  0  0  0  0  0  0  0  0  0  0
   -2.8510    0.3660   -0.9190 C   0  0  0  0  0  0  0  0  0  0  0  0
   -1.7990    0.4680   -0.0190 C   0  0  0  0  0  0  0  0  0  0  0  0
   -0.4840    0.7110   -0.5120 N   0  0  0  0  0  0  0  0  0  0  0  0
   -0.2540    1.5100   -1.4450 N   0  0  0  0  0  0  0  0  0  0  0  0
    1.0060    1.7930   -1.9740 N   0  0  0  0  0  0  0  0  0  0  0  0
    2.1310    1.1120   -1.4480 C   0  0  0  0  0  0  0  0  0  0  0  0
    2.5290   -0.0770   -2.0030 C   0  0  0  0  0  0  0  0  0  0  0  0
    3.6260   -0.7850   -1.5250 C   0  0  0  0  0  0  0  0  0  0  0  0
    4.3580   -0.3130   -0.4670 C   0  0  0  0  0  0  0  0  0  0  0  0
    5.5240   -1.0090    0.0850 C   0  0  0  0  0  0  0  0  0  0  0  0
    6.2400   -0.4500    1.1950 N   0  0  0  0  0  0  0  0  0  0  0  0
    5.9170   -2.1060   -0.4030 N   0  0  0  0  0  0  0  0  0  0  0  0
    3.9550    0.9000    0.1000 C   0  0  0  0  0  0  0  0  0  0  0  0
    2.8670    1.5880   -0.3840 C   0  0  0  0  0  0  0  0  0  0  0  0
   -2.0700    0.3280    1.3300 C   0  0  0  0  0  0  0  0  0  0  0  0
   -3.3800    0.0940    1.7160 C   0  0  0  0  0  0  0  0  0  0  0  0
  1  2  1  0
  2  3  2  0
  2  4  1  0
  4  5  2  0
  4 21  1  0
  5  6  1  0
  6  7  2  0
  7  8  1  0
  7 20  1  0
  8  9  2  3
  9 10  1  0
 10 11  1  0
 11 12  2  0
 11 19  1  0
 12 13  1  0
 13 14  2  0
 14 15  1  0
 14 18  1  0
 15 16  1  0
 15 17  2  0
 18 19  2  0
 20 21  2  0
M  CHG  2   3   1  17   1
M  END
