
     RDKit          3D

 28 30  0  0  0  0  0  0  0  0999 V2000
   -1.5800   -4.0570    0.4890 C   0  0  0  0  0  0  0  0  0  0  0  0
   -0.9660   -2.7000    0.2830 C   0  0  0  0  0  0  0  0  0  0  0  0
   -1.8130   -1.6090    0.2190 C   0  0  0  0  0  0  0  0  0  0  0  0
   -1.2640   -0.3670    0.0330 C   0  0  0  0  0  0  0  0  0  0  0  0
   -2.0420    0.8230    0.0030 C   0  0  0  0  0  0  0  0  0  0  0  0
   -1.4020    1.8900   -0.4170 O   0  0  0  0  0  0  0  0  0  0  0  0
   -3.3610    1.0600    0.3400 N   0  0  0  0  0  0  0  0  0  0  0  0
   -4.3850    0.2240    0.8920 C   0  0  0  0  0  0  0  0  0  0  0  0
   -5.2790   -0.1640   -0.2760 C   0  0  1  0  0  0  0  0  0  0  0  0
   -6.5490   -0.5820    0.2780 N   0  0  0  0  0  0  0  0  0  0  0  0
   -5.4860    0.9580   -1.0810 O   0  0  0  0  0  0  0  0  0  0  0  0
   -5.3500    2.1640   -0.4170 C   0  0  2  0  0  0  0  0  0  0  0  0
   -5.7530    3.2540   -1.3870 C   0  0  0  0  0  0  0  0  0  0  0  0
   -3.9320    2.4410    0.0510 C   0  0  0  0  0  0  0  0  0  0  0  0
    0.1470   -0.2740   -0.0850 C   0  0  0  0  0  0  0  0  0  0  0  0
    0.9620   -1.3710   -0.0180 C   0  0  0  0  0  0  0  0  0  0  0  0
    2.4340   -1.2460   -0.1440 C   0  0  0  0  0  0  0  0  0  0  0  0
    3.2500   -2.3490   -0.0770 C   0  0  0  0  0  0  0  0  0  0  0  0
    4.6440   -2.2390   -0.1950 C   0  0  0  0  0  0  0  0  0  0  0  0
    5.2570   -1.0180   -0.3840 C   0  0  0  0  0  0  0  0  0  0  0  0
    6.6810   -0.9560   -0.4970 N   0  0  0  0  0  0  0  0  0  0  0  0
    4.4440    0.0800   -0.4510 C   0  0  0  0  0  0  0  0  0  0  0  0
    5.0530    1.4210   -0.6560 C   0  0  0  0  0  0  0  0  0  0  0  0
    5.6700    1.8510    0.6550 C   0  0  0  0  0  0  0  0  0  0  0  0
    4.6550    1.9410    1.7670 C   0  0  0  0  0  0  0  0  0  0  0  0
    3.4250    3.1350    1.3070 Cl  0  0  0  0  0  0  0  0  0  0  0  0
    3.0470   -0.0310   -0.3330 C   0  0  0  0  0  0  0  0  0  0  0  0
    0.3700   -2.5570    0.1660 N   0  0  0  0  0  0  0  0  0  0  0  0
  1  2  1  0
  2  3  2  0
  2 28  1  0
  3  4  1  0
  4  5  1  0
  4 15  2  0
  5  6  2  0
  5  7  1  0
  7  8  1  0
  7 14  1  0
  8  9  1  0
  9 10  1  1
  9 11  1  0
 11 12  1  0
 12 13  1  6
 12 14  1  0
 15 16  1  0
 16 17  1  0
 16 28  2  0
 17 18  2  0
 17 27  1  0
 18 19  1  0
 19 20  2  0
 20 21  1  0
 20 22  1  0
 22 23  1  0
 22 27  2  0
 23 24  1  0
 24 25  1  0
 25 26  1  0
M  CHG  2  21   1  28   1
M  END
