
     RDKit          3D

 28 30  0  0  0  0  0  0  0  0999 V2000
    8.2500   -1.3780   -0.4990 C   0  0  0  0  0  0  0  0  0  0  0  0
    7.9460    0.0460   -0.9510 C   0  0  2  0  0  0  0  0  0  0  0  0
    8.2900    1.0360    0.1450 C   0  0  0  0  0  0  0  0  0  0  0  0
    6.4350    0.1070   -1.0930 C   0  0  0  0  0  0  0  0  0  0  0  0
    5.9490    0.3810   -2.1970 O   0  0  0  0  0  0  0  0  0  0  0  0
    5.7090   -0.1640    0.0850 N   0  0  0  0  0  0  0  0  0  0  0  0
    4.3140   -0.1540    0.1470 C   0  0  0  0  0  0  0  0  0  0  0  0
    3.5260    0.1220   -0.9380 C   0  0  0  0  0  0  0  0  0  0  0  0
    2.1220    0.1230   -0.8400 C   0  0  0  0  0  0  0  0  0  0  0  0
    1.5430   -0.1670    0.4020 C   0  0  0  0  0  0  0  0  0  0  0  0
    0.1200   -0.1260    0.4450 N   0  0  0  0  0  0  0  0  0  0  0  0
   -0.6350   -0.8250    1.4010 C   0  0  0  0  0  0  0  0  0  0  0  0
   -0.0200   -1.5450    2.2780 O   0  0  0  0  0  0  0  0  0  0  0  0
   -2.1060   -0.7860    1.4670 C   0  0  0  0  0  0  0  0  0  0  0  0
   -2.6910    0.0240    0.4670 N   0  0  2  0  0  0  0  0  0  0  0  0
   -2.7500    1.4170    0.9050 C   0  0  2  0  0  0  0  0  0  0  0  0
   -3.5370    1.5830    2.1840 C   0  0  0  0  0  0  0  0  0  0  0  0
   -3.2050    2.3020   -0.2110 C   0  0  0  0  0  0  0  0  0  0  0  0
   -4.0410    1.5630   -1.2010 C   0  0  0  0  0  0  0  0  0  0  0  0
   -4.9230    0.6100   -0.3910 C   0  0  1  0  0  0  0  0  0  0  0  0
   -6.0790    0.1560   -1.2130 C   0  0  0  0  0  0  0  0  0  0  0  0
   -5.9020   -1.1070   -1.8690 N   0  0  0  0  0  0  0  0  0  0  0  0
   -5.3330   -2.1220   -1.0370 C   0  0  0  0  0  0  0  0  0  0  0  0
   -3.9020   -1.6490   -0.7350 C   0  0  0  0  0  0  0  0  0  0  0  0
   -4.0670   -0.4560    0.1810 C   0  0  1  0  0  0  0  0  0  0  0  0
    2.3430   -0.4390    1.4750 C   0  0  0  0  0  0  0  0  0  0  0  0
    3.7280   -0.4390    1.3750 C   0  0  0  0  0  0  0  0  0  0  0  0
    4.7290   -0.7890    2.7530 Cl  0  0  0  0  0  0  0  0  0  0  0  0
  2  1  1  1
  2  3  1  0
  2  4  1  0
  4  5  2  0
  4  6  1  0
  6  7  1  0
  7  8  2  0
  7 27  1  0
  8  9  1  0
  9 10  2  0
 10 11  1  0
 10 26  1  0
 11 12  1  0
 12 13  2  0
 12 14  1  0
 15 14  1  1
 15 16  1  0
 15 25  1  0
 16 17  1  1
 16 18  1  0
 18 19  1  0
 20 19  1  6
 20 21  1  0
 20 25  1  0
 21 22  1  0
 22 23  1  0
 23 24  1  0
 25 24  1  6
 26 27  2  0
 27 28  1  0
M  CHG  2  15   1  22   1
M  END
