
     RDKit          3D

 11 11  0  0  0  0  0  0  0  0999 V2000
    4.5420   -0.3340    1.1000 O   0  0  0  0  0  0  0  0  0  0  0  0
    3.3710   -0.0530    0.8660 C   0  0  0  0  0  0  0  0  0  0  0  0
    2.8500    0.7370   -0.1610 N   0  0  0  0  0  0  0  0  0  0  0  0
    1.4770    0.6150   -0.3860 C   0  0  0  0  0  0  0  0  0  0  0  0
    0.8640    1.2800   -1.2920 O   0  0  0  0  0  0  0  0  0  0  0  0
    0.7690   -0.3110    0.4640 C   0  0  0  0  0  0  0  0  0  0  0  0
   -0.3970   -0.8970    0.4350 C   0  0  0  0  0  0  0  0  0  0  0  0
   -1.3550   -0.6690   -0.6710 C   0  0  0  0  0  0  0  0  0  0  0  0
   -2.6190   -0.0490   -0.1050 C   0  0  0  0  0  0  0  0  0  0  0  0
   -2.3120    1.1560    0.5030 O   0  0  0  0  0  0  0  0  0  0  0  0
    1.9660   -0.6060    1.8180 S   0  0  0  0  0  0  0  0  0  0  0  0
  1  2  2  0
  2  3  1  0
  2 11  1  0
  3  4  1  0
  4  5  2  0
  4  6  1  0
  6  7  2  3
  6 11  1  0
  7  8  1  0
  8  9  1  0
  9 10  1  0
M  END
