
     RDKit          3D

 11 11  0  0  0  0  0  0  0  0999 V2000
    3.6420   -1.1300   -1.4670 N   0  0  0  0  0  0  0  0  0  0  0  0
    2.3360   -1.0830   -0.9250 C   0  0  0  0  0  0  0  0  0  0  0  0
    1.7520   -2.1270   -0.6070 O   0  0  0  0  0  0  0  0  0  0  0  0
    1.6770    0.2330   -0.7430 C   0  0  0  0  0  0  0  0  0  0  0  0
    0.4030    0.0790   -0.1990 O   0  0  0  0  0  0  0  0  0  0  0  0
   -0.4790    1.0660    0.1000 C   0  0  0  0  0  0  0  0  0  0  0  0
   -0.1330    2.2490   -0.1290 O   0  0  0  0  0  0  0  0  0  0  0  0
   -1.8480    0.8060    0.6900 C   0  0  0  0  0  0  0  0  0  0  0  0
   -2.4160   -0.2590    1.0030 C   0  0  0  0  0  0  0  0  0  0  0  0
   -3.6470    0.2740    1.4800 C   0  0  0  0  0  0  0  0  0  0  0  0
   -3.1180    1.8760    1.1450 S   0  0  0  0  0  0  0  0  0  0  0  0
  1  2  1  0
  2  3  2  0
  2  4  1  0
  4  5  1  0
  5  6  1  0
  6  7  2  0
  6  8  1  0
  8  9  2  0
  8 11  1  0
  9 10  1  0
 10 11  1  0
M  END
