
     RDKit          3D

 28 30  0  0  0  0  0  0  0  0999 V2000
    4.1660    0.3870    0.1600 O   0  0  0  0  0  0  0  0  0  0  0  0
    4.3630   -0.5100   -0.6700 C   0  0  0  0  0  0  0  0  0  0  0  0
    5.7990   -0.8230   -1.0230 C   0  0  0  0  0  0  0  0  0  0  0  0
    6.6540    0.0370   -0.2740 N   0  0  1  0  0  0  0  0  0  0  0  0
    7.0780   -0.5950    0.9440 C   0  0  0  0  0  0  0  0  0  0  0  0
    8.0500    0.2410    1.7140 C   0  0  0  0  0  0  0  0  0  0  0  0
    8.2300    1.6280    1.1560 C   0  0  0  0  0  0  0  0  0  0  0  0
    8.4100    1.6550   -0.3320 C   0  0  0  0  0  0  0  0  0  0  0  0
    7.8530    0.4200   -1.0080 C   0  0  0  0  0  0  0  0  0  0  0  0
    3.3020   -1.2030   -1.2570 N   0  0  0  0  0  0  0  0  0  0  0  0
    1.9330   -0.9970   -1.0010 C   0  0  0  0  0  0  0  0  0  0  0  0
    0.9830   -1.6570   -1.7940 C   0  0  0  0  0  0  0  0  0  0  0  0
   -0.3770   -1.5240   -1.6110 C   0  0  0  0  0  0  0  0  0  0  0  0
   -0.8820   -0.7230   -0.6260 C   0  0  0  0  0  0  0  0  0  0  0  0
   -2.2360   -0.4970   -0.3300 N   0  0  0  0  0  0  0  0  0  0  0  0
   -3.3190   -1.0620   -1.0040 C   0  0  0  0  0  0  0  0  0  0  0  0
   -3.1690   -1.8480   -1.9650 O   0  0  0  0  0  0  0  0  0  0  0  0
   -4.7450   -0.7820   -0.6410 C   0  0  0  0  0  0  0  0  0  0  0  0
   -4.7890    0.1240    0.4660 N   0  0  0  0  0  0  0  0  0  0  0  0
   -6.1480    0.3550    0.9330 C   0  0  2  0  0  0  0  0  0  0  0  0
   -7.0650   -0.7800    0.6010 C   0  0  0  0  0  0  0  0  0  0  0  0
   -8.3930   -0.5070    1.3020 C   0  0  0  0  0  0  0  0  0  0  0  0
   -8.9500    0.8220    0.9100 C   0  0  0  0  0  0  0  0  0  0  0  0
   -8.1060    1.5450   -0.0970 C   0  0  0  0  0  0  0  0  0  0  0  0
   -6.6590    1.6040    0.2600 C   0  0  0  0  0  0  0  0  0  0  0  0
    0.0420   -0.0580    0.1740 C   0  0  0  0  0  0  0  0  0  0  0  0
   -0.4740    1.0010    1.4740 Cl  0  0  0  0  0  0  0  0  0  0  0  0
    1.4200   -0.2030   -0.0230 C   0  0  0  0  0  0  0  0  0  0  0  0
  1  2  2  0
  2  3  1  0
  2 10  1  0
  4  3  1  6
  4  5  1  0
  4  9  1  0
  5  6  1  0
  6  7  1  0
  7  8  1  0
  8  9  1  0
 10 11  1  0
 11 12  2  0
 11 28  1  0
 12 13  1  0
 13 14  2  0
 14 15  1  0
 14 26  1  0
 15 16  1  0
 16 17  2  0
 16 18  1  0
 18 19  1  0
 20 19  1  6
 20 21  1  0
 20 25  1  0
 21 22  1  0
 22 23  1  0
 23 24  1  0
 24 25  1  0
 26 27  1  0
 26 28  2  0
M  CHG  2   4   1  19   1
M  END
