
     RDKit          3D

 28 30  0  0  0  0  0  0  0  0999 V2000
   -6.3160   -1.0900    1.5360 C   0  0  0  0  0  0  0  0  0  0  0  0
   -5.6970    0.0640    0.7450 C   0  0  2  0  0  0  0  0  0  0  0  0
   -6.7510    0.8130   -0.0270 C   0  0  0  0  0  0  0  0  0  0  0  0
   -7.4710   -0.0930   -1.0220 C   0  0  0  0  0  0  0  0  0  0  0  0
   -8.4550    0.7330   -1.7020 N   0  0  0  0  0  0  0  0  0  0  0  0
   -4.7320   -0.5260   -0.0980 O   0  0  0  0  0  0  0  0  0  0  0  0
   -3.3500   -0.2490    0.0430 C   0  0  0  0  0  0  0  0  0  0  0  0
   -3.0910    0.5500    0.9680 O   0  0  0  0  0  0  0  0  0  0  0  0
   -2.3900   -0.8770   -0.8440 C   0  0  0  0  0  0  0  0  0  0  0  0
   -2.8150   -1.8260   -1.7860 C   0  0  0  0  0  0  0  0  0  0  0  0
   -1.9310   -2.4540   -2.6150 C   0  0  0  0  0  0  0  0  0  0  0  0
   -0.5960   -2.1450   -2.5140 C   0  0  0  0  0  0  0  0  0  0  0  0
    0.5340   -2.9480   -3.5700 Cl  0  0  0  0  0  0  0  0  0  0  0  0
   -0.1210   -1.2130   -1.5970 C   0  0  0  0  0  0  0  0  0  0  0  0
   -1.0540   -0.5870   -0.7660 C   0  0  0  0  0  0  0  0  0  0  0  0
   -0.6150    0.4080    0.2380 C   0  0  0  0  0  0  0  0  0  0  0  0
    0.7800    0.6630    0.1990 N   0  0  0  0  0  0  0  0  0  0  0  0
    1.2840    1.4010   -0.9080 C   0  0  0  0  0  0  0  0  0  0  0  0
    2.7770    1.1050   -1.1210 C   0  0  0  0  0  0  0  0  0  0  0  0
    3.2470    0.4450    0.1590 C   0  0  1  0  0  0  0  0  0  0  0  0
    4.6450    0.0980    0.1510 N   0  0  1  0  0  0  0  0  0  0  0  0
    5.4600    1.2410    0.3640 C   0  0  0  0  0  0  0  0  0  0  0  0
    6.6470    0.9220    1.2840 C   0  0  0  0  0  0  0  0  0  0  0  0
    7.1970   -0.3270    0.7910 N   0  0  0  0  0  0  0  0  0  0  0  0
    6.2940   -1.3800    1.2160 C   0  0  0  0  0  0  0  0  0  0  0  0
    4.8490   -0.9610    1.1120 C   0  0  0  0  0  0  0  0  0  0  0  0
    2.8000    1.2700    1.3150 C   0  0  0  0  0  0  0  0  0  0  0  0
    1.2730    1.1690    1.4460 C   0  0  0  0  0  0  0  0  0  0  0  0
  2  1  1  6
  2  3  1  0
  2  6  1  0
  3  4  1  0
  4  5  1  0
  6  7  1  0
  7  8  2  0
  7  9  1  0
  9 10  2  0
  9 15  1  0
 10 11  1  0
 11 12  2  0
 12 13  1  0
 12 14  1  0
 14 15  2  0
 15 16  1  0
 16 17  1  0
 17 18  1  0
 17 28  1  0
 18 19  1  0
 20 19  1  6
 20 21  1  0
 20 27  1  0
 21 22  1  1
 21 26  1  0
 22 23  1  0
 23 24  1  0
 24 25  1  0
 25 26  1  0
 27 28  1  0
M  CHG  2  21   1  24   1
M  END
