
     RDKit          3D

 11 11  0  0  0  0  0  0  0  0999 V2000
    3.3390   -0.0340   -0.1330 C   0  0  0  0  0  0  0  0  0  0  0  0
    1.9410   -0.2400   -0.0610 O   0  0  0  0  0  0  0  0  0  0  0  0
    1.1030    0.8740    0.0240 C   0  0  0  0  0  0  0  0  0  0  0  0
    1.6310    2.0100    0.0320 O   0  0  0  0  0  0  0  0  0  0  0  0
   -0.3440    0.7050    0.1000 C   0  0  0  0  0  0  0  0  0  0  0  0
   -1.0660   -0.3660    0.1060 C   0  0  0  0  0  0  0  0  0  0  0  0
   -0.4340   -1.6710    0.0260 N   0  0  0  0  0  0  0  0  0  0  0  0
   -2.4970   -0.2690    0.1910 C   0  0  0  0  0  0  0  0  0  0  0  0
   -2.9680    1.1060    0.0340 C   0  0  0  0  0  0  0  0  0  0  0  0
   -4.0970    1.4450   -0.1620 O   0  0  0  0  0  0  0  0  0  0  0  0
   -1.4690    2.0920    0.2080 S   0  0  0  0  0  0  0  0  0  0  0  0
  1  2  1  0
  2  3  1  0
  3  4  2  0
  3  5  1  0
  5  6  2  0
  5 11  1  0
  6  7  1  0
  6  8  1  0
  8  9  1  0
  9 10  2  0
  9 11  1  0
M  END
