
     RDKit          3D

 19 21  0  0  0  0  0  0  0  0999 V2000
   -5.0640    1.8570    0.3190 C   0  0  0  0  0  0  0  0  0  0  0  0
   -4.3440    0.5470    0.2240 C   0  0  0  0  0  0  0  0  0  0  0  0
   -5.0930   -0.6060    0.1800 C   0  0  0  0  0  0  0  0  0  0  0  0
   -4.4870   -1.8390    0.0930 C   0  0  0  0  0  0  0  0  0  0  0  0
   -3.1230   -1.9160    0.0480 C   0  0  0  0  0  0  0  0  0  0  0  0
   -2.3750   -0.7640    0.0910 C   0  0  0  0  0  0  0  0  0  0  0  0
   -0.9630   -0.8730    0.0440 N   0  0  0  0  0  0  0  0  0  0  0  0
   -0.1580    0.3130    0.0870 C   0  0  0  0  0  0  0  0  0  0  0  0
    1.2920    0.0160    0.0040 C   0  0  0  0  0  0  0  0  0  0  0  0
    1.7820   -1.0890   -0.6530 C   0  0  0  0  0  0  0  0  0  0  0  0
    3.1570   -1.3420   -0.7090 C   0  0  0  0  0  0  0  0  0  0  0  0
    4.0550   -0.4850   -0.1030 C   0  0  0  0  0  0  0  0  0  0  0  0
    3.5880    0.6310    0.5630 C   0  0  0  0  0  0  0  0  0  0  0  0
    2.2400    0.8460    0.5970 C   0  0  0  0  0  0  0  0  0  0  0  0
    4.7750    1.3620    1.1120 C   0  0  0  0  0  0  0  0  0  0  0  0
    5.9410    0.5650    0.6980 C   0  0  0  0  0  0  0  0  0  0  0  0
    7.4880    0.9030    1.0270 S   0  0  0  0  0  0  0  0  0  0  0  0
    5.4720   -0.5420   -0.0330 N   0  0  0  0  0  0  0  0  0  0  0  0
   -2.9850    0.4930    0.1810 C   0  0  0  0  0  0  0  0  0  0  0  0
  1  2  1  0
  2  3  2  0
  2 19  1  0
  3  4  1  0
  4  5  2  0
  5  6  1  0
  6  7  1  0
  6 19  2  0
  7  8  1  0
  8  9  1  0
  9 10  2  0
  9 14  1  0
 10 11  1  0
 11 12  2  0
 12 13  1  0
 12 18  1  0
 13 14  2  0
 13 15  1  0
 15 16  1  0
 16 17  2  0
 16 18  1  0
M  END
