
     RDKit          3D

 19 21  0  0  0  0  0  0  0  0999 V2000
   -3.8690   -3.3060    0.0210 C   0  0  0  0  0  0  0  0  0  0  0  0
   -3.0600   -2.0790    0.1530 C   0  0  0  0  0  0  0  0  0  0  0  0
   -1.7250   -2.1070    0.5720 C   0  0  0  0  0  0  0  0  0  0  0  0
   -0.9890   -0.9600    0.6830 C   0  0  0  0  0  0  0  0  0  0  0  0
    0.7220   -1.0100    1.2310 S   0  0  0  0  0  0  0  0  0  0  0  0
    1.8080   -1.2810   -0.1260 N   0  0  0  0  0  0  0  0  0  0  0  0
    3.0630   -0.6200   -0.1270 C   0  0  0  0  0  0  0  0  0  0  0  0
    4.1450   -1.0920    0.5950 C   0  0  0  0  0  0  0  0  0  0  0  0
    5.3730   -0.4740    0.5990 C   0  0  0  0  0  0  0  0  0  0  0  0
    5.5390    0.6860   -0.1610 C   0  0  0  0  0  0  0  0  0  0  0  0
    4.4910    1.1930   -0.8950 C   0  0  0  0  0  0  0  0  0  0  0  0
    3.2870    0.5430   -0.8670 C   0  0  0  0  0  0  0  0  0  0  0  0
   -1.5370    0.2670    0.3850 C   0  0  0  0  0  0  0  0  0  0  0  0
   -1.0650    1.5340    0.4060 N   0  0  0  0  0  0  0  0  0  0  0  0
   -2.0190    2.4000    0.0230 C   0  0  0  0  0  0  0  0  0  0  0  0
   -1.9150    3.8880   -0.0930 C   0  0  0  0  0  0  0  0  0  0  0  0
   -3.1340    1.6410   -0.2500 C   0  0  0  0  0  0  0  0  0  0  0  0
   -2.8540    0.3140   -0.0310 C   0  0  0  0  0  0  0  0  0  0  0  0
   -3.6060   -0.8600   -0.1440 C   0  0  0  0  0  0  0  0  0  0  0  0
  1  2  1  0
  2  3  2  0
  2 19  1  0
  3  4  1  0
  4  5  1  0
  4 13  2  0
  5  6  1  0
  6  7  1  0
  7  8  2  0
  7 12  1  0
  8  9  1  0
  9 10  2  0
 10 11  1  0
 11 12  2  0
 13 14  1  0
 13 18  1  0
 14 15  1  0
 15 16  1  0
 15 17  2  0
 17 18  1  0
 18 19  2  0
M  END
