
     RDKit          3D

 19 21  0  0  0  0  0  0  0  0999 V2000
    1.1690   -1.5230    1.6920 N   0  0  0  0  0  0  0  0  0  0  0  0
    0.4880   -0.7300    0.7600 C   0  0  0  0  0  0  0  0  0  0  0  0
   -0.9090   -0.7580    0.6350 C   0  0  0  0  0  0  0  0  0  0  0  0
   -1.5530    0.0140   -0.2690 C   0  0  0  0  0  0  0  0  0  0  0  0
   -3.0430    0.0250   -0.4470 C   0  0  0  0  0  0  0  0  0  0  0  0
   -3.7960   -0.7300    0.2820 C   0  0  0  0  0  0  0  0  0  0  0  0
   -5.2400   -0.9240    0.3300 C   0  0  0  0  0  0  0  0  0  0  0  0
   -6.0690    0.1010   -0.8680 S   0  0  0  0  0  0  0  0  0  0  0  0
   -4.8280    1.0320   -1.7330 C   0  0  0  0  0  0  0  0  0  0  0  0
   -3.5690    0.9140   -1.4650 C   0  0  0  0  0  0  0  0  0  0  0  0
   -0.8320    0.8170   -1.0550 N   0  0  0  0  0  0  0  0  0  0  0  0
    0.4890    0.8970   -0.9930 C   0  0  0  0  0  0  0  0  0  0  0  0
    1.1650    0.1210   -0.0810 C   0  0  0  0  0  0  0  0  0  0  0  0
    2.6270    0.2470   -0.0530 C   0  0  0  0  0  0  0  0  0  0  0  0
    3.1500    1.5220   -0.0910 C   0  0  0  0  0  0  0  0  0  0  0  0
    4.5180    1.6820   -0.0670 C   0  0  0  0  0  0  0  0  0  0  0  0
    5.3730    0.6200   -0.0070 C   0  0  0  0  0  0  0  0  0  0  0  0
    4.8380   -0.6510    0.0300 C   0  0  0  0  0  0  0  0  0  0  0  0
    3.4560   -0.8450    0.0070 C   0  0  0  0  0  0  0  0  0  0  0  0
  1  2  1  0
  2  3  2  0
  2 13  1  0
  3  4  1  0
  4  5  1  0
  4 11  2  0
  5  6  2  0
  5 10  1  0
  6  7  1  0
  7  8  1  0
  8  9  1  0
  9 10  2  0
 11 12  1  0
 12 13  2  0
 13 14  1  0
 14 15  2  0
 14 19  1  0
 15 16  1  0
 16 17  2  0
 17 18  1  0
 18 19  2  0
M  END
