
     RDKit          3D

 22 23  0  0  0  0  0  0  0  0999 V2000
   -0.1170    5.0290   -2.8600 C   0  0  0  0  0  0  0  0  0  0  0  0
    0.5410    4.0340   -2.1000 O   0  0  0  0  0  0  0  0  0  0  0  0
   -0.2030    2.8910   -1.7770 C   0  0  0  0  0  0  0  0  0  0  0  0
   -1.3780    2.7870   -2.1540 O   0  0  0  0  0  0  0  0  0  0  0  0
    0.4690    1.8420   -0.9840 C   0  0  0  0  0  0  0  0  0  0  0  0
    2.1990    1.9690   -0.4160 S   0  0  0  0  0  0  0  0  0  0  0  0
    2.2380    0.4540    0.3890 C   0  0  0  0  0  0  0  0  0  0  0  0
    3.3930   -0.1020    1.1020 C   0  0  0  0  0  0  0  0  0  0  0  0
    3.5830   -1.2310    1.7600 C   0  0  0  0  0  0  0  0  0  0  0  0
    4.7720   -1.4950    2.3340 C   0  0  0  0  0  0  0  0  0  0  0  0
    5.7650   -0.5580    2.2090 C   0  0  0  0  0  0  0  0  0  0  0  0
    4.9520    0.7380    1.2350 S   0  0  0  0  0  0  0  0  0  0  0  0
    0.9880   -0.0690    0.2020 C   0  0  0  0  0  0  0  0  0  0  0  0
    0.0900    0.6360   -0.4950 C   0  0  0  0  0  0  0  0  0  0  0  0
   -1.2710    0.1760   -0.7530 N   0  0  0  0  0  0  0  0  0  0  0  0
   -1.8170   -1.0390   -0.3200 C   0  0  0  0  0  0  0  0  0  0  0  0
   -1.1380   -1.8450    0.3480 O   0  0  0  0  0  0  0  0  0  0  0  0
   -3.2350   -1.4220   -0.6410 C   0  0  0  0  0  0  0  0  0  0  0  0
   -3.5740   -2.7600   -0.0250 C   0  0  0  0  0  0  0  0  0  0  0  0
   -3.4430   -2.7180    1.4540 C   0  0  0  0  0  0  0  0  0  0  0  0
   -3.1090   -1.6710    2.0570 O   0  0  0  0  0  0  0  0  0  0  0  0
   -3.6970   -3.8700    2.2090 O   0  0  0  0  0  0  0  0  0  0  0  0
  1  2  1  0
  2  3  1  0
  3  4  2  0
  3  5  1  0
  5  6  1  0
  5 14  2  0
  6  7  1  0
  7  8  1  0
  7 13  2  0
  8  9  2  0
  8 12  1  0
  9 10  1  0
 10 11  2  0
 11 12  1  0
 13 14  1  0
 14 15  1  0
 15 16  1  0
 16 17  2  0
 16 18  1  0
 18 19  1  0
 19 20  1  0
 20 21  2  0
 20 22  1  0
M  END
