
     RDKit          3D

 19 21  0  0  0  0  0  0  0  0999 V2000
   -2.6060   -2.3820   -1.6600 C   0  0  0  0  0  0  0  0  0  0  0  0
   -2.7440   -2.0790   -0.1840 C   0  0  0  0  0  0  0  0  0  0  0  0
   -1.9750   -0.8820    0.2050 C   0  0  0  0  0  0  0  0  0  0  0  0
   -0.7790   -1.0160    0.8590 C   0  0  0  0  0  0  0  0  0  0  0  0
   -0.0010    0.0560    1.2490 C   0  0  0  0  0  0  0  0  0  0  0  0
    1.2470   -0.0990    1.9310 N   0  0  0  0  0  0  0  0  0  0  0  0
    1.9740    1.0680    2.2730 C   0  0  0  0  0  0  0  0  0  0  0  0
    3.0460    1.3670    1.5680 C   0  0  0  0  0  0  0  0  0  0  0  0
    3.4660    0.5020    0.4560 C   0  0  0  0  0  0  0  0  0  0  0  0
    4.5370    0.6270   -0.4070 C   0  0  0  0  0  0  0  0  0  0  0  0
    4.7350   -0.2760   -1.3450 C   0  0  0  0  0  0  0  0  0  0  0  0
    3.8970   -1.3610   -1.5020 C   0  0  0  0  0  0  0  0  0  0  0  0
    2.7030   -0.9910   -0.1120 S   0  0  0  0  0  0  0  0  0  0  0  0
   -0.4990    1.3210    0.9410 C   0  0  0  0  0  0  0  0  0  0  0  0
   -1.6950    1.5090    0.2860 C   0  0  0  0  0  0  0  0  0  0  0  0
   -2.3750    2.6360   -0.1150 C   0  0  0  0  0  0  0  0  0  0  0  0
   -3.5280    2.1930   -0.7280 C   0  0  0  0  0  0  0  0  0  0  0  0
   -3.5480    0.8550   -0.7000 N   0  0  0  0  0  0  0  0  0  0  0  0
   -2.4290    0.3830   -0.0790 C   0  0  0  0  0  0  0  0  0  0  0  0
  1  2  1  0
  2  3  1  0
  3  4  2  0
  3 19  1  0
  4  5  1  0
  5  6  1  0
  5 14  2  0
  6  7  1  0
  7  8  2  3
  8  9  1  0
  9 10  2  0
  9 13  1  0
 10 11  1  0
 11 12  2  0
 12 13  1  0
 14 15  1  0
 15 16  1  0
 15 19  2  0
 16 17  2  0
 17 18  1  0
 18 19  1  0
M  END
