
     RDKit          3D

 19 21  0  0  0  0  0  0  0  0999 V2000
    4.2590    1.7680    1.8140 C   0  0  0  0  0  0  0  0  0  0  0  0
    3.3180    0.6080    1.9210 C   0  0  0  0  0  0  0  0  0  0  0  0
    2.8770    0.1020    0.7420 O   0  0  0  0  0  0  0  0  0  0  0  0
    2.1840    0.9880   -0.0610 C   0  0  0  0  0  0  0  0  0  0  0  0
    1.7270    0.3510   -1.3530 C   0  0  0  0  0  0  0  0  0  0  0  0
    0.8170   -0.8150   -1.1840 C   0  0  1  0  0  0  0  0  0  0  0  0
    1.4220   -1.9020   -0.4370 N   0  0  0  0  0  0  0  0  0  0  0  0
    1.0590   -3.1690   -1.0380 C   0  0  0  0  0  0  0  0  0  0  0  0
   -0.2320   -3.7230   -0.5580 C   0  0  0  0  0  0  0  0  0  0  0  0
   -1.0190   -2.8760    0.2190 O   0  0  0  0  0  0  0  0  0  0  0  0
   -1.2810   -1.5210    0.0430 C   0  0  0  0  0  0  0  0  0  0  0  0
   -2.4900   -1.1160    0.5620 C   0  0  0  0  0  0  0  0  0  0  0  0
   -2.9360    0.1870    0.4910 C   0  0  0  0  0  0  0  0  0  0  0  0
   -2.1190    1.1060   -0.1320 C   0  0  0  0  0  0  0  0  0  0  0  0
   -0.8940    0.7750   -0.6770 C   0  0  0  0  0  0  0  0  0  0  0  0
   -0.4950   -0.5390   -0.5790 C   0  0  0  0  0  0  0  0  0  0  0  0
   -2.7750    2.4550   -0.1070 C   0  0  0  0  0  0  0  0  0  0  0  0
   -4.2310    2.0750    0.0180 C   0  0  0  0  0  0  0  0  0  0  0  0
   -4.1580    0.8840    0.9500 C   0  0  0  0  0  0  0  0  0  0  0  0
  1  2  1  0
  2  3  1  0
  3  4  1  0
  4  5  1  0
  6  5  1  1
  6  7  1  0
  6 16  1  0
  7  8  1  0
  8  9  1  0
  9 10  1  0
 10 11  1  0
 11 12  2  0
 11 16  1  0
 12 13  1  0
 13 14  2  0
 13 19  1  0
 14 15  1  0
 14 17  1  0
 15 16  2  0
 17 18  1  0
 18 19  1  0
M  END
