
     RDKit          3D

 19 21  0  0  0  0  0  0  0  0999 V2000
   -2.8990   -3.1170   -0.0180 C   0  0  0  0  0  0  0  0  0  0  0  0
   -3.0280   -1.6390   -0.1360 C   0  0  0  0  0  0  0  0  0  0  0  0
   -1.7490   -0.9240   -0.0830 C   0  0  0  0  0  0  0  0  0  0  0  0
   -0.5340   -1.5290    0.0600 C   0  0  0  0  0  0  0  0  0  0  0  0
    0.6900   -0.8390    0.1100 C   0  0  0  0  0  0  0  0  0  0  0  0
    1.9300   -1.5620    0.2640 C   0  0  0  0  0  0  0  0  0  0  0  0
    3.0460   -1.0220    0.3190 O   0  0  0  0  0  0  0  0  0  0  0  0
    1.9000   -2.9700    0.3600 O   0  0  0  0  0  0  0  0  0  0  0  0
    3.1260   -3.6410    0.5100 C   0  0  0  0  0  0  0  0  0  0  0  0
    0.6510    0.5250    0.0070 C   0  0  0  0  0  0  0  0  0  0  0  0
    1.7650    1.3500    0.0380 C   0  0  0  0  0  0  0  0  0  0  0  0
    1.6790    2.7220   -0.0680 C   0  0  0  0  0  0  0  0  0  0  0  0
    2.9240    3.5680   -0.0280 C   0  0  0  0  0  0  0  0  0  0  0  0
    0.4430    3.3030   -0.2110 C   0  0  0  0  0  0  0  0  0  0  0  0
   -0.7120    2.5080   -0.2480 C   0  0  0  0  0  0  0  0  0  0  0  0
   -0.5630    1.1560   -0.1370 C   0  0  0  0  0  0  0  0  0  0  0  0
   -1.7530    0.4750   -0.1850 C   0  0  0  0  0  0  0  0  0  0  0  0
   -2.7510    1.4740   -0.3390 N   0  0  0  0  0  0  0  0  0  0  0  0
   -2.1650    2.8060   -0.3880 C   0  0  0  0  0  0  0  0  0  0  0  0
  1  2  1  0
  2  3  1  0
  3  4  2  0
  3 17  1  0
  4  5  1  0
  5  6  1  0
  5 10  2  0
  6  7  2  0
  6  8  1  0
  8  9  1  0
 10 11  1  0
 10 16  1  0
 11 12  2  0
 12 13  1  0
 12 14  1  0
 14 15  2  0
 15 16  1  0
 15 19  1  0
 16 17  2  0
 17 18  1  0
 18 19  1  0
M  END
