
     RDKit          3D

 19 21  0  0  0  0  0  0  0  0999 V2000
   -5.9140    0.2960   -0.5500 C   0  0  0  0  0  0  0  0  0  0  0  0
   -4.4020    0.2690   -0.3600 C   0  0  2  0  0  0  0  0  0  0  0  0
   -3.9490   -1.1290   -0.8040 C   0  0  0  0  0  0  0  0  0  0  0  0
   -4.0450    0.4010    0.9570 O   0  0  0  0  0  0  0  0  0  0  0  0
   -3.1520    1.4000    1.2420 C   0  0  0  0  0  0  0  0  0  0  0  0
   -1.8460    1.2740    0.5540 C   0  0  0  0  0  0  0  0  0  0  0  0
   -1.5150    1.8450   -0.6440 C   0  0  0  0  0  0  0  0  0  0  0  0
   -0.2030    1.4750   -0.9240 C   0  0  0  0  0  0  0  0  0  0  0  0
    0.1900    0.6890    0.1400 C   0  0  0  0  0  0  0  0  0  0  0  0
    1.4940    0.0560    0.3150 C   0  0  0  0  0  0  0  0  0  0  0  0
    1.7610   -0.7080    1.4260 C   0  0  0  0  0  0  0  0  0  0  0  0
    2.9780   -1.3190    1.6220 C   0  0  0  0  0  0  0  0  0  0  0  0
    3.9730   -1.1630    0.6710 C   0  0  0  0  0  0  0  0  0  0  0  0
    3.7600   -0.4100   -0.4610 C   0  0  0  0  0  0  0  0  0  0  0  0
    2.5080    0.1910   -0.6160 C   0  0  0  0  0  0  0  0  0  0  0  0
    4.9980   -0.4550   -1.2460 C   0  0  0  0  0  0  0  0  0  0  0  0
    6.0530   -0.7740   -0.2180 C   0  0  0  0  0  0  0  0  0  0  0  0
    5.3100   -1.6910    0.6490 N   0  0  0  0  0  0  0  0  0  0  0  0
   -0.8030    0.6090    0.9620 O   0  0  0  0  0  0  0  0  0  0  0  0
  2  1  1  1
  2  3  1  0
  2  4  1  0
  4  5  1  0
  5  6  1  0
  6  7  2  0
  6 19  1  0
  7  8  1  0
  8  9  2  0
  9 10  1  0
  9 19  1  0
 10 11  2  0
 10 15  1  0
 11 12  1  0
 12 13  2  0
 13 14  1  0
 13 18  1  0
 14 15  2  0
 14 16  1  0
 16 17  1  0
 17 18  1  0
M  END
