
     RDKit          3D

 23 23  0  0  0  0  0  0  0  0999 V2000
   -6.8000    1.1720   -0.8390 C   0  0  0  0  0  0  0  0  0  0  0  0
   -6.8500    0.4070    0.3020 O   0  0  0  0  0  0  0  0  0  0  0  0
   -6.5030   -0.9080    0.1200 C   0  0  0  0  0  0  0  0  0  0  0  0
   -5.0970   -1.0860   -0.4010 C   0  0  0  0  0  0  0  0  0  0  0  0
   -4.1350   -0.5100    0.5400 N   0  0  0  0  0  0  0  0  0  0  0  0
   -3.1020   -1.4650    0.8840 C   0  0  0  0  0  0  0  0  0  0  0  0
   -1.9270   -1.2570   -0.0580 C   0  0  1  0  0  0  0  0  0  0  0  0
   -1.5060    0.1780    0.0460 C   0  0  0  0  0  0  0  0  0  0  0  0
   -0.0670    0.3620   -0.0130 N   0  0  0  0  0  0  0  0  0  0  0  0
    0.4950    1.4590   -0.7060 C   0  0  0  0  0  0  0  0  0  0  0  0
   -0.3120    2.2720   -1.2720 O   0  0  0  0  0  0  0  0  0  0  0  0
    1.9270    1.7540   -0.8380 C   0  0  0  0  0  0  0  0  0  0  0  0
    2.6740    0.8080   -0.1860 O   0  0  0  0  0  0  0  0  0  0  0  0
    4.0350    1.0190   -0.2660 C   0  0  1  0  0  0  0  0  0  0  0  0
    4.5680    1.3110    1.1210 C   0  0  0  0  0  0  0  0  0  0  0  0
    6.0120    1.5410    1.0810 N   0  0  0  0  0  0  0  0  0  0  0  0
    4.7550   -0.0910   -0.9170 C   0  0  0  0  0  0  0  0  0  0  0  0
    4.1450   -1.1200   -1.3460 O   0  0  0  0  0  0  0  0  0  0  0  0
    6.1230   -0.0700   -1.0930 O   0  0  0  0  0  0  0  0  0  0  0  0
    6.8330   -1.0780   -1.6910 N   0  0  0  0  0  0  0  0  0  0  0  0
    0.7840   -0.5920    0.6460 C   0  0  0  0  0  0  0  0  0  0  0  0
   -0.0980   -1.6690    1.2620 C   0  0  0  0  0  0  0  0  0  0  0  0
   -0.8990   -2.1530    0.2300 O   0  0  0  0  0  0  0  0  0  0  0  0
  1  2  1  0
  2  3  1  0
  3  4  1  0
  4  5  1  0
  5  6  1  0
  7  6  1  1
  7  8  1  0
  7 23  1  0
  8  9  1  0
  9 10  1  0
  9 21  1  0
 10 11  2  0
 10 12  1  0
 12 13  1  0
 13 14  1  0
 14 15  1  1
 14 17  1  0
 15 16  1  0
 17 18  2  0
 17 19  1  0
 19 20  1  0
 21 22  1  0
 22 23  1  0
M  CHG  3   5   1  16   1  20   1
M  END
