
     RDKit          3D

 19 21  0  0  0  0  0  0  0  0999 V2000
   -3.8290    1.9800    1.5390 C   0  0  0  0  0  0  0  0  0  0  0  0
   -2.5940    1.2400    1.1010 C   0  0  0  0  0  0  0  0  0  0  0  0
   -1.3410    1.6940    1.4520 C   0  0  0  0  0  0  0  0  0  0  0  0
   -0.2110    0.9820    1.0290 C   0  0  0  0  0  0  0  0  0  0  0  0
   -0.3030   -0.1580    0.2730 C   0  0  0  0  0  0  0  0  0  0  0  0
    0.7610   -0.8580   -0.1440 O   0  0  0  0  0  0  0  0  0  0  0  0
    2.1180   -0.7230   -0.0110 C   0  0  0  0  0  0  0  0  0  0  0  0
    2.7640    0.4860   -0.5880 C   0  0  0  0  0  0  0  0  0  0  0  0
    4.2380    0.4860   -0.3610 C   0  0  0  0  0  0  0  0  0  0  0  0
    4.9100   -0.5050    0.2970 C   0  0  0  0  0  0  0  0  0  0  0  0
    6.2560   -0.1650    0.3140 C   0  0  0  0  0  0  0  0  0  0  0  0
    6.3030    1.0520   -0.3600 C   0  0  0  0  0  0  0  0  0  0  0  0
    5.0920    1.3810   -0.7300 O   0  0  0  0  0  0  0  0  0  0  0  0
   -1.5800   -0.6130   -0.0800 C   0  0  0  0  0  0  0  0  0  0  0  0
   -2.6820    0.0950    0.3420 C   0  0  0  0  0  0  0  0  0  0  0  0
   -3.9790   -0.3660   -0.0150 N   0  0  0  0  0  0  0  0  0  0  0  0
   -4.1980   -1.2270   -1.1700 C   0  0  0  0  0  0  0  0  0  0  0  0
   -2.9030   -1.5410   -1.8780 C   0  0  0  0  0  0  0  0  0  0  0  0
   -1.7860   -1.8230   -0.8860 C   0  0  0  0  0  0  0  0  0  0  0  0
  1  2  1  0
  2  3  2  0
  2 15  1  0
  3  4  1  0
  4  5  2  0
  5  6  1  0
  5 14  1  0
  6  7  1  0
  7  8  1  0
  8  9  1  0
  9 10  2  0
  9 13  1  0
 10 11  1  0
 11 12  2  0
 12 13  1  0
 14 15  2  0
 14 19  1  0
 15 16  1  0
 16 17  1  0
 17 18  1  0
 18 19  1  0
M  END
