
     RDKit          3D

  9  8  0  0  0  0  0  0  0  0999 V2000
    2.2080    0.2720   -0.4280 C   0  0  0  0  0  0  0  0  0  0  0  0
    0.9090    0.0400   -0.8370 O   0  0  0  0  0  0  0  0  0  0  0  0
   -0.0010    0.0080    0.2050 C   0  0  1  0  0  0  0  0  0  0  0  0
    0.3220   -1.0010    1.1060 O   0  0  0  0  0  0  0  0  0  0  0  0
   -0.1100    1.1950    0.8910 O   0  0  0  0  0  0  0  0  0  0  0  0
   -1.2620    0.9850    2.1290 Cl  0  0  0  0  0  0  0  0  0  0  0  0
   -1.3680   -0.2840   -0.4280 C   0  0  2  0  0  0  0  0  0  0  0  0
   -1.7070    0.7000   -1.3350 O   0  0  0  0  0  0  0  0  0  0  0  0
   -2.3140   -0.4110    0.5660 O   0  0  0  0  0  0  0  0  0  0  0  0
  1  2  1  0
  2  3  1  0
  3  4  1  1
  3  5  1  0
  3  7  1  0
  5  6  1  0
  7  8  1  6
  7  9  1  0
M  END
