
     RDKit          3D

  9  8  0  0  0  0  0  0  0  0999 V2000
    1.8160    0.2090    0.4120 C   0  0  0  0  0  0  0  0  0  0  0  0
    1.0210    0.0110   -0.6680 O   0  0  0  0  0  0  0  0  0  0  0  0
   -0.3240    0.1050   -0.5360 C   0  0  2  0  0  0  0  0  0  0  0  0
   -0.9780   -0.0260   -2.2200 Cl  0  0  0  0  0  0  0  0  0  0  0  0
   -0.7130    1.3750   -0.0880 O   0  0  0  0  0  0  0  0  0  0  0  0
   -0.3110    2.2830   -0.9600 O   0  0  0  0  0  0  0  0  0  0  0  0
   -0.9970   -0.9700    0.2600 C   0  0  2  0  0  0  0  0  0  0  0  0
   -0.5310   -0.9830    1.5470 O   0  0  0  0  0  0  0  0  0  0  0  0
   -0.7770   -2.2320   -0.2890 O   0  0  0  0  0  0  0  0  0  0  0  0
  1  2  1  0
  2  3  1  0
  3  4  1  6
  3  5  1  0
  3  7  1  0
  5  6  1  0
  7  8  1  1
  7  9  1  0
M  END
