
     RDKit          3D

 10  9  0  0  0  0  0  0  0  0999 V2000
   -2.5000    0.7170   -0.5020 O   0  0  0  0  0  0  0  0  0  0  0  0
   -1.3310    0.5100   -0.0180 C   0  0  0  0  0  0  0  0  0  0  0  0
   -1.0160    1.4020    1.0140 O   0  0  0  0  0  0  0  0  0  0  0  0
   -0.4460   -0.5540   -0.5150 C   0  0  2  0  0  0  0  0  0  0  0  0
   -1.1740   -1.2350   -1.5020 O   0  0  0  0  0  0  0  0  0  0  0  0
   -0.1440   -1.3870    0.5630 O   0  0  0  0  0  0  0  0  0  0  0  0
   -1.5420   -2.0770    1.2250 Cl  0  0  0  0  0  0  0  0  0  0  0  0
    0.7350   -0.1370   -1.0690 O   0  0  0  0  0  0  0  0  0  0  0  0
    1.5560    0.5480   -0.2060 C   0  0  0  0  0  0  0  0  0  0  0  0
    1.8980   -0.2590    0.9030 O   0  0  0  0  0  0  0  0  0  0  0  0
  1  2  2  0
  2  3  1  0
  2  4  1  0
  4  5  1  6
  4  6  1  0
  4  8  1  0
  6  7  1  0
  8  9  1  0
  9 10  1  0
M  END
