
     RDKit          3D

 10  9  0  0  0  0  0  0  0  0999 V2000
   -1.3830    0.6170   -1.7590 O   0  0  0  0  0  0  0  0  0  0  0  0
   -1.4850    0.0070   -0.6730 C   0  0  0  0  0  0  0  0  0  0  0  0
   -2.6660   -0.6100   -0.3580 O   0  0  0  0  0  0  0  0  0  0  0  0
   -0.3000   -0.0180    0.2320 C   0  0  2  0  0  0  0  0  0  0  0  0
   -0.5460   -0.7230    1.3930 O   0  0  0  0  0  0  0  0  0  0  0  0
    0.0240    1.2840    0.5850 O   0  0  0  0  0  0  0  0  0  0  0  0
    0.2990    1.9360   -0.5360 O   0  0  0  0  0  0  0  0  0  0  0  0
    0.7150   -0.6520   -0.4580 O   0  0  0  0  0  0  0  0  0  0  0  0
    1.8990   -0.7450    0.2220 C   0  0  0  0  0  0  0  0  0  0  0  0
    3.0630   -1.5930   -0.8460 Cl  0  0  0  0  0  0  0  0  0  0  0  0
  1  2  2  0
  2  3  1  0
  2  4  1  0
  4  5  1  1
  4  6  1  0
  4  8  1  0
  6  7  1  0
  8  9  1  0
  9 10  1  0
M  END
