
     RDKit          3D

 10  9  0  0  0  0  0  0  0  0999 V2000
   -1.6820   -1.3740    0.9130 O   0  0  0  0  0  0  0  0  0  0  0  0
   -1.2950   -0.6510    0.0130 C   0  0  0  0  0  0  0  0  0  0  0  0
   -0.5870    0.6240    0.2660 C   0  0  1  0  0  0  0  0  0  0  0  0
   -0.2380    1.2840   -0.8840 O   0  0  0  0  0  0  0  0  0  0  0  0
   -1.4820    1.4700    0.9610 O   0  0  0  0  0  0  0  0  0  0  0  0
   -2.8540    1.7130   -0.0180 Cl  0  0  0  0  0  0  0  0  0  0  0  0
    0.5530    0.3800    1.0750 O   0  0  0  0  0  0  0  0  0  0  0  0
    1.5390   -0.4640    0.6330 C   0  0  0  0  0  0  0  0  0  0  0  0
    1.4140   -1.0180   -0.5030 O   0  0  0  0  0  0  0  0  0  0  0  0
    2.6570   -0.7010    1.4290 O   0  0  0  0  0  0  0  0  0  0  0  0
  1  2  2  0
  2  3  1  0
  3  4  1  6
  3  5  1  0
  3  7  1  0
  5  6  1  0
  7  8  1  0
  8  9  2  0
  8 10  1  0
M  END
