
     RDKit          3D

  9  8  0  0  0  0  0  0  0  0999 V2000
    2.9540   -0.9320    0.4890 O   0  0  0  0  0  0  0  0  0  0  0  0
    1.9200    0.0280    0.5870 C   0  0  0  0  0  0  0  0  0  0  0  0
    0.8180   -0.5040   -0.0190 O   0  0  0  0  0  0  0  0  0  0  0  0
   -0.2980    0.2790   -0.0280 C   0  0  2  0  0  0  0  0  0  0  0  0
   -0.7650    0.6230    1.2330 O   0  0  0  0  0  0  0  0  0  0  0  0
   -1.4060   -0.5170   -0.7330 C   0  0  0  0  0  0  0  0  0  0  0  0
   -1.6030   -1.6800   -0.0040 O   0  0  0  0  0  0  0  0  0  0  0  0
   -0.0850    1.4130   -0.7970 O   0  0  0  0  0  0  0  0  0  0  0  0
   -1.4510    2.4220   -0.8390 Cl  0  0  0  0  0  0  0  0  0  0  0  0
  1  2  1  0
  2  3  1  0
  3  4  1  0
  4  5  1  1
  4  6  1  0
  4  8  1  0
  6  7  1  0
  8  9  1  0
M  END
