
     RDKit          3D

 19 20  0  0  0  0  0  0  0  0999 V2000
    1.3710   -1.1060    1.0190 O   0  0  0  0  0  0  0  0  0  0  0  0
    0.9370   -0.1530    0.2870 C   0  0  0  0  0  0  0  0  0  0  0  0
    1.8940    0.7860   -0.2170 N   0  0  0  0  0  0  0  0  0  0  0  0
    3.2690    0.6640    0.0830 C   0  0  0  0  0  0  0  0  0  0  0  0
    3.9140    1.6150    0.7140 C   0  0  0  0  0  0  0  0  0  0  0  0
    5.3550    1.5520    1.0600 C   0  0  0  0  0  0  0  0  0  0  0  0
    5.9650    0.3630    0.6410 O   0  0  0  0  0  0  0  0  0  0  0  0
    5.2720   -0.6240   -0.0210 C   0  0  0  0  0  0  0  0  0  0  0  0
    3.9760   -0.5410   -0.3190 C   0  0  0  0  0  0  0  0  0  0  0  0
   -0.4180   -0.0470    0.0020 O   0  0  0  0  0  0  0  0  0  0  0  0
   -1.3080   -1.0100    0.5320 C   0  0  0  0  0  0  0  0  0  0  0  0
   -2.7020   -0.6810    0.0850 C   0  0  0  0  0  0  0  0  0  0  0  0
   -2.9670    0.4100   -0.7160 C   0  0  0  0  0  0  0  0  0  0  0  0
   -4.2430    0.7250   -1.1350 C   0  0  0  0  0  0  0  0  0  0  0  0
   -4.5100    1.8300   -1.9460 O   0  0  0  0  0  0  0  0  0  0  0  0
   -5.2660   -0.1020   -0.7200 C   0  0  0  0  0  0  0  0  0  0  0  0
   -5.0010   -1.1910    0.0800 C   0  0  0  0  0  0  0  0  0  0  0  0
   -3.7220   -1.5110    0.5030 C   0  0  0  0  0  0  0  0  0  0  0  0
   -3.4790   -2.6140    1.3100 O   0  0  0  0  0  0  0  0  0  0  0  0
  1  2  2  0
  2  3  1  0
  2 10  1  0
  3  4  1  0
  4  5  2  0
  4  9  1  0
  5  6  1  0
  6  7  1  0
  7  8  1  0
  8  9  2  0
 10 11  1  0
 11 12  1  0
 12 13  2  0
 12 18  1  0
 13 14  1  0
 14 15  1  0
 14 16  2  0
 16 17  1  0
 17 18  2  0
 18 19  1  0
M  END
