
     RDKit          3D

 19 20  0  0  0  0  0  0  0  0999 V2000
    1.1750    0.5950    1.9990 O   0  0  0  0  0  0  0  0  0  0  0  0
    0.6230    0.7290    0.8870 C   0  0  0  0  0  0  0  0  0  0  0  0
   -0.0720    1.9620    0.6000 N   0  0  0  0  0  0  0  0  0  0  0  0
   -0.4210    2.5170   -0.6860 C   0  0  0  0  0  0  0  0  0  0  0  0
   -1.1420    3.6880   -0.5620 C   0  0  0  0  0  0  0  0  0  0  0  0
   -1.5870    4.4010   -1.6630 C   0  0  0  0  0  0  0  0  0  0  0  0
   -1.2860    3.9010   -2.9140 C   0  0  0  0  0  0  0  0  0  0  0  0
   -0.5620    2.7260   -3.0450 C   0  0  0  0  0  0  0  0  0  0  0  0
   -0.1210    2.0190   -1.9470 C   0  0  0  0  0  0  0  0  0  0  0  0
    0.5880    0.8650   -2.3010 O   0  0  0  0  0  0  0  0  0  0  0  0
    0.9180   -0.2610   -1.5240 C   0  0  0  0  0  0  0  0  0  0  0  0
    1.4120   -1.2620   -2.0680 O   0  0  0  0  0  0  0  0  0  0  0  0
    0.7220   -0.3720   -0.0500 C   0  0  0  0  0  0  0  0  0  0  0  0
    0.6140   -1.5820    0.4340 C   0  0  0  0  0  0  0  0  0  0  0  0
    0.4000   -1.9920    1.8060 C   0  0  0  0  0  0  0  0  0  0  0  0
    0.3290   -3.2910    2.0690 C   0  0  0  0  0  0  0  0  0  0  0  0
    0.4580   -4.1970    1.0490 O   0  0  0  0  0  0  0  0  0  0  0  0
    0.1120   -3.7260    3.4580 C   0  0  0  0  0  0  0  0  0  0  0  0
    1.2080   -4.5240    3.8450 O   0  0  0  0  0  0  0  0  0  0  0  0
  1  2  2  0
  2  3  1  0
  2 13  1  0
  3  4  1  0
  4  5  2  0
  4  9  1  0
  5  6  1  0
  6  7  2  0
  7  8  1  0
  8  9  2  0
  9 10  1  0
 10 11  1  0
 11 12  2  0
 11 13  1  0
 13 14  2  3
 14 15  1  0
 15 16  2  3
 16 17  1  0
 16 18  1  0
 18 19  1  0
M  END
