
     RDKit          3D

 12 12  0  0  0  0  0  0  0  0999 V2000
    3.1870   -1.4580   -0.3930 C   0  0  0  0  0  0  0  0  0  0  0  0
    2.1480   -0.3260   -0.3120 C   0  0  0  0  0  0  0  0  0  0  0  0
    0.9860   -0.9100    0.0750 O   0  0  0  0  0  0  0  0  0  0  0  0
   -0.1190   -0.0760    0.2170 C   0  0  1  0  0  0  0  0  0  0  0  0
   -1.2300   -1.0520    0.6450 C   0  0  1  0  0  0  0  0  0  0  0  0
   -2.5230   -0.3440    0.9160 C   0  0  0  0  0  0  0  0  0  0  0  0
   -1.4430   -2.0600   -0.3510 N   0  0  0  0  0  0  0  0  0  0  0  0
    0.1100    0.8760    1.3450 C   0  0  0  0  0  0  0  0  0  0  0  0
   -0.1540    2.2950    0.8570 C   0  0  0  0  0  0  0  0  0  0  0  0
    0.7170    2.4820   -0.2160 O   0  0  0  0  0  0  0  0  0  0  0  0
    0.1060    1.9100   -1.3280 C   0  0  0  0  0  0  0  0  0  0  0  0
   -0.4360    0.5440   -1.0880 C   0  0  0  0  0  0  0  0  0  0  0  0
  1  2  1  0
  2  3  1  0
  4  3  1  6
  4  5  1  0
  4  8  1  0
  4 12  1  0
  5  6  1  6
  5  7  1  0
  8  9  1  0
  9 10  1  0
 10 11  1  0
 11 12  1  0
M  CHG  1   7   1
M  END
