
     RDKit          3D

 22 24  0  0  0  0  0  0  0  0999 V2000
   -2.7180   -2.2790   -1.3270 C   0  0  0  0  0  0  0  0  0  0  0  0
   -2.6010   -1.4710   -0.0500 C   0  0  2  0  0  0  0  0  0  0  0  0
   -3.3890   -2.1590    1.0710 C   0  0  0  0  0  0  0  0  0  0  0  0
   -3.0960   -0.2000   -0.2010 O   0  0  0  0  0  0  0  0  0  0  0  0
   -2.0290    0.6910    0.0730 C   0  0  2  0  0  0  0  0  0  0  0  0
   -1.2310    0.7990   -1.1810 C   0  0  0  0  0  0  0  0  0  0  0  0
    0.0710    1.1180   -1.0490 O   0  0  0  0  0  0  0  0  0  0  0  0
    0.7810    0.5390   -0.0450 C   0  0  1  0  0  0  0  0  0  0  0  0
    1.4580   -0.7530   -0.4280 C   0  0  0  0  0  0  0  0  0  0  0  0
    2.3360   -0.4400   -1.4780 O   0  0  0  0  0  0  0  0  0  0  0  0
    3.1410   -1.8240   -1.9750 S   0  0  2  0  0  0  0  0  0  0  0  0
    4.0220   -2.5010   -0.6430 N   0  0  0  0  0  0  0  0  0  0  0  0
    4.0740   -1.4540   -3.0840 O   0  0  0  0  0  0  0  0  0  0  0  0
    2.1130   -2.8270   -2.4380 O   0  0  0  0  0  0  0  0  0  0  0  0
    1.7710    1.4860    0.3350 O   0  0  0  0  0  0  0  0  0  0  0  0
    1.0080    2.4360    1.0100 C   0  0  1  0  0  0  0  0  0  0  0  0
    1.9000    3.0460    2.0980 C   0  0  0  0  0  0  0  0  0  0  0  0
    0.5720    3.4730    0.0220 C   0  0  0  0  0  0  0  0  0  0  0  0
   -0.0180    1.7750    1.6350 O   0  0  0  0  0  0  0  0  0  0  0  0
    0.0630    0.4260    1.2790 C   0  0  1  0  0  0  0  0  0  0  0  0
   -1.2690   -0.1920    1.0710 C   0  0  2  0  0  0  0  0  0  0  0  0
   -1.2830   -1.3800    0.3850 O   0  0  0  0  0  0  0  0  0  0  0  0
  2  1  1  6
  2  3  1  0
  2  4  1  0
  2 22  1  0
  4  5  1  0
  5  6  1  6
  5 21  1  0
  6  7  1  0
  7  8  1  0
  8  9  1  6
  8 15  1  0
  8 20  1  0
  9 10  1  0
 10 11  1  0
 11 12  1  1
 11 13  2  0
 11 14  2  0
 15 16  1  0
 16 17  1  1
 16 18  1  0
 16 19  1  0
 20 19  1  6
 20 21  1  0
 21 22  1  6
M  END
