
     RDKit          3D

 12 12  0  0  0  0  0  0  0  0999 V2000
    4.5830   -0.4820   -0.3300 N   0  0  0  0  0  0  0  0  0  0  0  0
    3.7600   -0.8520    0.8110 C   0  0  0  0  0  0  0  0  0  0  0  0
    2.3350   -0.7320    0.4070 C   0  0  0  0  0  0  0  0  0  0  0  0
    1.5510    0.0940    1.0540 C   0  0  0  0  0  0  0  0  0  0  0  0
    0.1360    0.2170    0.6570 C   0  0  0  0  0  0  0  0  0  0  0  0
   -0.7880    1.0360    1.2440 C   0  0  0  0  0  0  0  0  0  0  0  0
   -1.9890    0.8640    0.5900 C   0  0  0  0  0  0  0  0  0  0  0  0
   -1.7370   -0.0740   -0.3890 C   0  0  0  0  0  0  0  0  0  0  0  0
   -2.6620   -0.6470   -1.3970 C   0  0  0  0  0  0  0  0  0  0  0  0
   -4.0180   -0.0200   -1.1940 C   0  0  0  0  0  0  0  0  0  0  0  0
   -4.4090   -0.3480    0.1230 O   0  0  0  0  0  0  0  0  0  0  0  0
   -0.4750   -0.4190   -0.3040 O   0  0  0  0  0  0  0  0  0  0  0  0
  1  2  1  0
  2  3  1  0
  3  4  2  3
  4  5  1  0
  5  6  2  0
  5 12  1  0
  6  7  1  0
  7  8  2  0
  8  9  1  0
  8 12  1  0
  9 10  1  0
 10 11  1  0
M  CHG  1   1   1
M  END
