
     RDKit          3D

 41 45  0  0  0  0  0  0  0  0999 V2000
    7.5150   -1.8750    1.4130 C   0  0  0  0  0  0  0  0  0  0  0  0
    6.5090   -1.3390    0.6770 C   0  0  0  0  0  0  0  0  0  0  0  0
    6.1640   -1.9900   -0.5910 C   0  0  0  0  0  0  0  0  0  0  0  0
    5.8600   -0.1480    1.2160 C   0  0  0  0  0  0  0  0  0  0  0  0
    4.5430   -0.1170    1.5020 O   0  0  0  0  0  0  0  0  0  0  0  0
    3.3720   -0.1580    0.8020 C   0  0  0  0  0  0  0  0  0  0  0  0
    3.2220   -0.2240   -0.5480 C   0  0  0  0  0  0  0  0  0  0  0  0
    1.9880   -0.2670   -1.1550 C   0  0  0  0  0  0  0  0  0  0  0  0
    0.7820   -0.2450   -0.4450 C   0  0  0  0  0  0  0  0  0  0  0  0
   -0.5190   -0.3100   -1.1410 C   0  0  1  0  0  0  0  0  0  0  0  0
   -1.3620   -1.3280   -0.5330 C   0  0  0  0  0  0  0  0  0  0  0  0
   -2.6100   -1.4340   -0.1310 C   0  0  0  0  0  0  0  0  0  0  0  0
   -3.1840   -2.6860    0.4740 C   0  0  0  0  0  0  0  0  0  0  0  0
   -2.4370   -3.2520    1.6130 C   0  0  2  0  0  0  0  0  0  0  0  0
   -2.9390   -4.6970    1.7860 C   0  0  0  0  0  0  0  0  0  0  0  0
   -2.8320   -2.5200    2.8710 C   0  0  0  0  0  0  0  0  0  0  0  0
   -0.9520   -3.3530    1.3950 C   0  0  0  0  0  0  0  0  0  0  0  0
   -0.4670   -2.8530   -0.2360 S   0  0  1  0  0  0  0  0  0  0  0  0
   -0.8990   -3.8720   -1.2610 O   0  0  0  0  0  0  0  0  0  0  0  0
    0.9910   -2.6610   -0.3010 O   0  0  0  0  0  0  0  0  0  0  0  0
   -3.6310   -0.4150   -0.1740 N   0  0  0  0  0  0  0  0  0  0  0  0
   -3.6340    0.6660   -1.1020 C   0  0  0  0  0  0  0  0  0  0  0  0
   -4.9340    1.0590   -1.3780 C   0  0  0  0  0  0  0  0  0  0  0  0
   -6.0140    0.4290   -0.8300 O   0  0  0  0  0  0  0  0  0  0  0  0
   -5.0610    2.1370   -2.2530 C   0  0  0  0  0  0  0  0  0  0  0  0
   -3.9500    2.7410   -2.7860 C   0  0  0  0  0  0  0  0  0  0  0  0
   -2.6720    2.3320   -2.4980 C   0  0  0  0  0  0  0  0  0  0  0  0
   -2.5150    1.2670   -1.6350 C   0  0  0  0  0  0  0  0  0  0  0  0
   -1.1110    0.9580   -1.4930 N   0  0  0  0  0  0  0  0  0  0  0  0
   -0.2740    1.9730   -1.7880 C   0  0  0  0  0  0  0  0  0  0  0  0
    0.4130    1.4260   -2.9510 O   0  0  0  0  0  0  0  0  0  0  0  0
    0.3210    3.2430   -1.6350 C   0  0  0  0  0  0  0  0  0  0  0  0
    0.8270    4.3270   -1.5020 N   0  0  0  0  0  0  0  0  0  0  0  0
    0.8330    5.2860   -0.6860 C   0  0  0  0  0  0  0  0  0  0  0  0
    1.5100    6.6110   -0.6160 C   0  0  0  0  0  0  0  0  0  0  0  0
    0.0020    4.7790    0.1850 O   0  0  0  0  0  0  0  0  0  0  0  0
   -0.4040    3.6240   -0.1680 C   0  0  0  0  0  0  0  0  0  0  0  0
   -1.2970    2.7890    0.5260 C   0  0  0  0  0  0  0  0  0  0  0  0
    0.9330   -0.1800    0.9360 C   0  0  0  0  0  0  0  0  0  0  0  0
   -0.1850   -0.1850    1.6900 F   0  0  0  0  0  0  0  0  0  0  0  0
    2.1580   -0.1390    1.5270 C   0  0  0  0  0  0  0  0  0  0  0  0
  1  2  2  0
  2  3  1  0
  2  4  1  0
  4  5  1  0
  5  6  1  0
  6  7  2  0
  6 41  1  0
  7  8  1  0
  8  9  2  0
 10  9  1  1
  9 39  1  0
 10 11  1  0
 10 29  1  0
 11 12  2  0
 11 18  1  0
 12 13  1  0
 12 21  1  0
 13 14  1  0
 14 15  1  1
 14 16  1  0
 14 17  1  0
 18 17  1  1
 18 19  2  0
 18 20  2  0
 21 22  1  0
 22 23  2  0
 22 28  1  0
 23 24  1  0
 23 25  1  0
 25 26  2  0
 26 27  1  0
 27 28  2  0
 28 29  1  0
 29 30  1  0
 30 31  2  0
 30 32  1  0
 32 33  1  0
 32 37  2  0
 33 34  2  0
 34 35  1  0
 34 36  1  0
 36 37  1  0
 37 38  1  0
 39 40  1  0
 39 41  2  0
M  END
