
     RDKit          3D

 41 44  0  0  0  0  0  0  0  0999 V2000
   -6.7270   -3.3340    1.0190 C   0  0  0  0  0  0  0  0  0  0  0  0
   -5.5160   -2.7580    0.6040 O   0  0  0  0  0  0  0  0  0  0  0  0
   -5.3570   -1.3820    0.3620 C   0  0  0  0  0  0  0  0  0  0  0  0
   -6.5020   -0.6450    0.5660 C   0  0  0  0  0  0  0  0  0  0  0  0
   -6.4950    0.7080    0.3720 C   0  0  0  0  0  0  0  0  0  0  0  0
   -5.3310    1.3240   -0.0290 C   0  0  0  0  0  0  0  0  0  0  0  0
   -4.1540    0.6220   -0.2480 C   0  0  0  0  0  0  0  0  0  0  0  0
   -4.1720   -0.7930   -0.0430 C   0  0  0  0  0  0  0  0  0  0  0  0
   -3.0650   -1.5370   -0.2360 O   0  0  0  0  0  0  0  0  0  0  0  0
   -2.2540   -2.0810   -1.1680 C   0  0  0  0  0  0  0  0  0  0  0  0
   -0.8490   -1.7220   -1.2670 C   0  0  0  0  0  0  0  0  0  0  0  0
   -0.1900   -2.4890   -2.0850 O   0  0  0  0  0  0  0  0  0  0  0  0
   -0.1470   -0.7760   -0.6860 O   0  0  0  0  0  0  0  0  0  0  0  0
    0.4890   -0.4320    0.4670 C   0  0  1  0  0  0  0  0  0  0  0  0
    0.4900   -1.5040    1.5180 C   0  0  0  0  0  0  0  0  0  0  0  0
    1.4670   -2.4050    0.9620 O   0  0  0  0  0  0  0  0  0  0  0  0
    2.4840   -1.5520    0.4820 C   0  0  0  0  0  0  0  0  0  0  0  0
    3.8300   -1.7860    0.3100 C   0  0  0  0  0  0  0  0  0  0  0  0
    4.6910   -0.7880   -0.1890 C   0  0  0  0  0  0  0  0  0  0  0  0
    6.0960   -1.0850   -0.3290 C   0  0  0  0  0  0  0  0  0  0  0  0
    6.6260   -2.2590   -0.0880 C   0  0  0  0  0  0  0  0  0  0  0  0
    8.1140   -2.4760   -0.2640 C   0  0  0  0  0  0  0  0  0  0  0  0
    8.6650   -2.8650    0.9440 O   0  0  0  0  0  0  0  0  0  0  0  0
    4.1570    0.4320   -0.5040 C   0  0  0  0  0  0  0  0  0  0  0  0
    4.9110    1.5100   -1.0720 C   0  0  0  0  0  0  0  0  0  0  0  0
    6.2040    1.4790   -1.6300 N   0  0  0  0  0  0  0  0  0  0  0  0
    4.3330    2.6690   -1.0820 O   0  0  0  0  0  0  0  0  0  0  0  0
    2.7760    0.6180   -0.3090 C   0  0  0  0  0  0  0  0  0  0  0  0
    1.9330   -0.3320    0.1710 C   0  0  0  0  0  0  0  0  0  0  0  0
   -0.0850    0.8220    1.0330 C   0  0  0  0  0  0  0  0  0  0  0  0
    0.0190    0.9830    2.5010 C   0  0  1  0  0  0  0  0  0  0  0  0
    1.3610    0.9200    2.9220 O   0  0  0  0  0  0  0  0  0  0  0  0
   -0.5120    2.2400    3.1060 C   0  0  0  0  0  0  0  0  0  0  0  0
    0.2820    3.3130    2.7070 O   0  0  0  0  0  0  0  0  0  0  0  0
   -0.6260    1.7160    0.2360 C   0  0  0  0  0  0  0  0  0  0  0  0
   -1.1720    2.9010    0.8030 O   0  0  0  0  0  0  0  0  0  0  0  0
   -0.7620    1.6880   -1.2340 C   0  0  0  0  0  0  0  0  0  0  0  0
   -2.2260    1.6410   -1.6560 C   0  0  1  0  0  0  0  0  0  0  0  0
   -2.5310    3.1020   -2.1090 C   0  0  0  0  0  0  0  0  0  0  0  0
   -2.4070    0.7970   -2.8820 C   0  0  0  0  0  0  0  0  0  0  0  0
   -3.0560    1.2700   -0.6330 O   0  0  0  0  0  0  0  0  0  0  0  0
  1  2  1  0
  2  3  1  0
  3  4  2  0
  3  8  1  0
  4  5  1  0
  5  6  2  0
  6  7  1  0
  7  8  2  0
  7 41  1  0
  8  9  1  0
  9 10  1  0
 10 11  1  0
 11 12  2  0
 11 13  1  0
 13 14  1  0
 14 15  1  1
 14 29  1  0
 14 30  1  0
 15 16  1  0
 16 17  1  0
 17 18  2  0
 17 29  1  0
 18 19  1  0
 19 20  1  0
 19 24  2  0
 20 21  2  3
 21 22  1  0
 22 23  1  0
 24 25  1  0
 24 28  1  0
 25 26  1  0
 25 27  2  0
 28 29  2  0
 30 31  1  0
 30 35  2  0
 31 32  1  6
 31 33  1  0
 33 34  1  0
 35 36  1  0
 35 37  1  0
 37 38  1  0
 38 39  1  6
 38 40  1  0
 38 41  1  0
M  END
