
     RDKit          3D

 41 45  0  0  0  0  0  0  0  0999 V2000
   -3.3280    1.1960    2.4550 C   0  0  0  0  0  0  0  0  0  0  0  0
   -3.2580   -0.2920    2.2970 C   0  0  0  0  0  0  0  0  0  0  0  0
   -3.9820   -0.6700    1.0680 C   0  0  0  0  0  0  0  0  0  0  0  0
   -5.2060   -1.2100    1.2680 C   0  0  0  0  0  0  0  0  0  0  0  0
   -5.7160   -1.3770    2.6660 C   0  0  0  0  0  0  0  0  0  0  0  0
   -6.0610   -1.6460    0.1860 C   0  0  0  0  0  0  0  0  0  0  0  0
   -5.5090   -1.4020   -1.1180 N   0  0  0  0  0  0  0  0  0  0  0  0
   -6.3230   -1.8100   -2.2540 C   0  0  0  0  0  0  0  0  0  0  0  0
   -5.8840   -1.6210   -3.4710 C   0  0  0  0  0  0  0  0  0  0  0  0
   -4.5950   -1.0090   -3.7230 C   0  0  0  0  0  0  0  0  0  0  0  0
   -4.1980   -0.8410   -5.0030 F   0  0  0  0  0  0  0  0  0  0  0  0
   -3.8090   -0.6150   -2.7000 C   0  0  0  0  0  0  0  0  0  0  0  0
   -4.2550   -0.8060   -1.3340 C   0  0  0  0  0  0  0  0  0  0  0  0
   -3.4670   -0.4570   -0.2530 C   0  0  0  0  0  0  0  0  0  0  0  0
   -2.2190   -0.0070   -0.6200 N   0  0  0  0  0  0  0  0  0  0  0  0
   -1.0640    0.4460   -0.0010 C   0  0  0  0  0  0  0  0  0  0  0  0
   -0.9550    0.5170    1.1670 O   0  0  0  0  0  0  0  0  0  0  0  0
    0.1110    0.8700   -0.8630 C   0  0  0  0  0  0  0  0  0  0  0  0
    1.2040    1.3050   -0.0450 N   0  0  0  0  0  0  0  0  0  0  0  0
    1.3450    2.6930    0.3450 C   0  0  0  0  0  0  0  0  0  0  0  0
    2.2300    3.4150   -0.6050 C   0  0  2  0  0  0  0  0  0  0  0  0
    2.3510    4.8770   -0.1480 C   0  0  0  0  0  0  0  0  0  0  0  0
    3.3370    5.5450   -1.0460 C   0  0  0  0  0  0  0  0  0  0  0  0
    2.8080    5.5860   -2.3950 N   0  0  0  0  0  0  0  0  0  0  0  0
    2.5360    4.2860   -2.9260 C   0  0  0  0  0  0  0  0  0  0  0  0
    1.6780    3.4340   -1.9940 C   0  0  0  0  0  0  0  0  0  0  0  0
    2.1650    0.3810    0.4240 C   0  0  0  0  0  0  0  0  0  0  0  0
    3.1180    0.7910    1.1270 O   0  0  0  0  0  0  0  0  0  0  0  0
    2.1250   -1.0240    0.1450 N   0  0  0  0  0  0  0  0  0  0  0  0
    3.1490   -1.8860    0.6660 C   0  0  0  0  0  0  0  0  0  0  0  0
    4.1350   -1.3740    1.4080 N   0  0  0  0  0  0  0  0  0  0  0  0
    5.1080   -2.1490    1.9110 C   0  0  0  0  0  0  0  0  0  0  0  0
    6.2000   -1.5330    2.7420 C   0  0  0  0  0  0  0  0  0  0  0  0
    5.1260   -3.4970    1.6810 C   0  0  0  0  0  0  0  0  0  0  0  0
    4.1240   -4.0830    0.9160 C   0  0  0  0  0  0  0  0  0  0  0  0
    4.1460   -5.4350    0.6870 C   0  0  0  0  0  0  0  0  0  0  0  0
    3.1670   -6.0180   -0.0630 C   0  0  0  0  0  0  0  0  0  0  0  0
    3.1440   -7.3620   -0.3180 F   0  0  0  0  0  0  0  0  0  0  0  0
    2.1730   -5.2150   -0.5730 C   0  0  0  0  0  0  0  0  0  0  0  0
    2.1600   -3.8500   -0.3380 C   0  0  0  0  0  0  0  0  0  0  0  0
    3.1340   -3.2320    0.4160 C   0  0  0  0  0  0  0  0  0  0  0  0
  1  2  1  0
  2  3  1  0
  3  4  2  0
  3 14  1  0
  4  5  1  0
  4  6  1  0
  6  7  1  0
  7  8  1  0
  7 13  1  0
  8  9  2  0
  9 10  1  0
 10 11  1  0
 10 12  2  0
 12 13  1  0
 13 14  2  0
 14 15  1  0
 15 16  1  0
 16 17  2  0
 16 18  1  0
 18 19  1  0
 19 20  1  0
 19 27  1  0
 21 20  1  1
 21 22  1  0
 21 26  1  0
 22 23  1  0
 23 24  1  0
 24 25  1  0
 25 26  1  0
 27 28  2  0
 27 29  1  0
 29 30  1  0
 30 31  2  0
 30 41  1  0
 31 32  1  0
 32 33  1  0
 32 34  2  0
 34 35  1  0
 35 36  2  0
 35 41  1  0
 36 37  1  0
 37 38  1  0
 37 39  2  0
 39 40  1  0
 40 41  2  0
M  CHG  1  24   1
M  END
