
     RDKit          3D

 41 43  0  0  0  0  0  0  0  0999 V2000
   -3.1510   -3.1940    0.8270 C   0  0  0  0  0  0  0  0  0  0  0  0
   -4.1000   -2.1370    0.3660 C   0  0  1  0  0  0  0  0  0  0  0  0
   -5.1380   -1.8990    1.4200 C   0  0  0  0  0  0  0  0  0  0  0  0
   -3.4450   -0.8710   -0.1890 C   0  0  0  0  0  0  0  0  0  0  0  0
   -3.8070    0.2840    0.3980 C   0  0  0  0  0  0  0  0  0  0  0  0
   -3.5190    1.6760    0.2540 C   0  0  0  0  0  0  0  0  0  0  0  0
   -2.6520    2.5980   -0.0790 C   0  0  0  0  0  0  0  0  0  0  0  0
   -3.0690    4.0900    0.0150 C   0  0  2  0  0  0  0  0  0  0  0  0
   -2.2920    4.8920    0.7670 O   0  0  0  0  0  0  0  0  0  0  0  0
   -4.4730    4.3010    0.4900 C   0  0  0  0  0  0  0  0  0  0  0  0
   -4.6170    4.0160    1.8500 O   0  0  0  0  0  0  0  0  0  0  0  0
   -1.2990    2.4500   -0.6030 C   0  0  0  0  0  0  0  0  0  0  0  0
   -0.1300    2.1210   -0.0660 C   0  0  0  0  0  0  0  0  0  0  0  0
    0.0170    1.8230    1.2540 O   0  0  0  0  0  0  0  0  0  0  0  0
    0.6380    0.6920    1.7410 C   0  0  0  0  0  0  0  0  0  0  0  0
   -0.2670   -0.4680    1.9490 C   0  0  0  0  0  0  0  0  0  0  0  0
   -0.5300   -0.8890    3.1110 O   0  0  0  0  0  0  0  0  0  0  0  0
   -0.8040   -1.0580    0.8370 O   0  0  0  0  0  0  0  0  0  0  0  0
   -0.1900   -1.2210   -0.4230 C   0  0  2  0  0  0  0  0  0  0  0  0
   -1.2480   -1.1700   -1.5070 C   0  0  0  0  0  0  0  0  0  0  0  0
   -2.5380   -1.0290   -1.3200 C   0  0  0  0  0  0  0  0  0  0  0  0
    0.5170   -2.6010   -0.4630 C   0  0  0  0  0  0  0  0  0  0  0  0
    1.6150   -2.4440   -1.4810 C   0  0  0  0  0  0  0  0  0  0  0  0
    1.5170   -1.5080   -2.3620 O   0  0  0  0  0  0  0  0  0  0  0  0
    2.7910   -3.2710   -1.5600 C   0  0  0  0  0  0  0  0  0  0  0  0
    3.7170   -3.4710   -0.6350 C   0  0  0  0  0  0  0  0  0  0  0  0
    4.7680   -4.3620   -1.0350 O   0  0  0  0  0  0  0  0  0  0  0  0
    3.7530   -2.8870    0.6880 C   0  0  0  0  0  0  0  0  0  0  0  0
    3.7480   -1.5880    1.0150 C   0  0  0  0  0  0  0  0  0  0  0  0
    3.7870   -1.2860    2.4530 C   0  0  0  0  0  0  0  0  0  0  0  0
    3.7790    0.0550    2.8830 N   0  0  0  0  0  0  0  0  0  0  0  0
    3.8280   -2.1990    3.2950 O   0  0  0  0  0  0  0  0  0  0  0  0
    3.7080   -0.6480    0.0370 O   0  0  0  0  0  0  0  0  0  0  0  0
    4.4900   -0.3480   -1.0620 C   0  0  0  0  0  0  0  0  0  0  0  0
    4.4920    1.1870   -1.2460 C   0  0  1  0  0  0  0  0  0  0  0  0
    5.3550    1.5520   -2.2450 O   0  0  0  0  0  0  0  0  0  0  0  0
    3.1100    1.6760   -1.4670 C   0  0  0  0  0  0  0  0  0  0  0  0
    2.5650    2.2370   -2.5870 C   0  0  0  0  0  0  0  0  0  0  0  0
    1.2580    2.5010   -2.2540 C   0  0  0  0  0  0  0  0  0  0  0  0
    1.0810    2.0800   -0.9350 C   0  0  0  0  0  0  0  0  0  0  0  0
    2.2170    1.6120   -0.5550 O   0  0  0  0  0  0  0  0  0  0  0  0
  2  1  1  1
  2  3  1  0
  2  4  1  0
  4  5  2  0
  4 21  1  0
  5  6  1  0
  6  7  2  0
  7  8  1  0
  7 12  1  0
  8  9  1  1
  8 10  1  0
 10 11  1  0
 12 13  2  0
 13 14  1  0
 13 40  1  0
 14 15  1  0
 15 16  1  0
 16 17  2  0
 16 18  1  0
 18 19  1  0
 19 20  1  0
 19 22  1  1
 20 21  2  0
 22 23  1  0
 23 24  2  0
 23 25  1  0
 25 26  2  0
 26 27  1  0
 26 28  1  0
 28 29  2  0
 29 30  1  0
 29 33  1  0
 30 31  1  0
 30 32  2  0
 33 34  1  0
 34 35  1  0
 35 36  1  6
 35 37  1  0
 37 38  2  0
 37 41  1  0
 38 39  1  0
 39 40  2  0
 40 41  1  0
M  END
