
     RDKit          3D

 41 44  0  0  0  0  0  0  0  0999 V2000
    6.4280    2.8160    0.0860 C   0  0  0  0  0  0  0  0  0  0  0  0
    6.6860    1.3840    0.3340 C   0  0  0  0  0  0  0  0  0  0  0  0
    7.7420    1.0890    1.1210 C   0  0  0  0  0  0  0  0  0  0  0  0
    8.4920    2.1300    1.6290 O   0  0  0  0  0  0  0  0  0  0  0  0
    5.9070    0.2760   -0.1620 C   0  0  0  0  0  0  0  0  0  0  0  0
    4.8610    0.3130   -0.9400 C   0  0  0  0  0  0  0  0  0  0  0  0
    4.3710    1.6330   -1.4070 C   0  0  0  0  0  0  0  0  0  0  0  0
    3.1260    2.0660   -1.2640 C   0  0  0  0  0  0  0  0  0  0  0  0
    1.9570    1.4450   -0.6660 C   0  0  0  0  0  0  0  0  0  0  0  0
    1.5910    0.7150    0.3310 C   0  0  0  0  0  0  0  0  0  0  0  0
    2.4240    0.1820    1.3990 O   0  0  0  0  0  0  0  0  0  0  0  0
    2.2030   -1.1720    1.5930 C   0  0  0  0  0  0  0  0  0  0  0  0
    0.8450   -1.3880    1.0180 C   0  0  0  0  0  0  0  0  0  0  0  0
    0.3620    0.1030    0.8650 C   0  0  1  0  0  0  0  0  0  0  0  0
    0.1770    0.4660    2.2140 O   0  0  0  0  0  0  0  0  0  0  0  0
   -0.9010   -0.0160    0.1520 C   0  0  0  0  0  0  0  0  0  0  0  0
   -1.9920    0.4950    0.8320 C   0  0  0  0  0  0  0  0  0  0  0  0
   -3.2880    0.4610    0.3990 C   0  0  0  0  0  0  0  0  0  0  0  0
   -4.3690    1.0250    1.2140 C   0  0  0  0  0  0  0  0  0  0  0  0
   -5.1880    0.0100    1.9420 C   0  0  0  0  0  0  0  0  0  0  0  0
   -6.2920    0.6250    2.7590 C   0  0  2  0  0  0  0  0  0  0  0  0
   -7.2680    1.4220    1.9360 C   0  0  0  0  0  0  0  0  0  0  0  0
   -5.8600    1.4420    3.8850 C   0  0  0  0  0  0  0  0  0  0  0  0
   -6.1630    1.1050    5.0550 O   0  0  0  0  0  0  0  0  0  0  0  0
   -5.1150    2.5950    3.7170 O   0  0  0  0  0  0  0  0  0  0  0  0
   -3.4760   -0.1400   -0.8160 C   0  0  0  0  0  0  0  0  0  0  0  0
   -2.4030   -0.6620   -1.5250 C   0  0  0  0  0  0  0  0  0  0  0  0
   -1.0880   -0.6290   -1.0940 C   0  0  0  0  0  0  0  0  0  0  0  0
   -0.1230   -1.1630   -1.8700 O   0  0  0  0  0  0  0  0  0  0  0  0
    0.8070   -0.8850   -2.8290 C   0  0  0  0  0  0  0  0  0  0  0  0
    2.0950   -1.6630   -2.6040 C   0  0  2  0  0  0  0  0  0  0  0  0
    1.7500   -3.1250   -2.3880 C   0  0  0  0  0  0  0  0  0  0  0  0
    2.3480   -3.8840   -1.3590 N   0  0  0  0  0  0  0  0  0  0  0  0
    0.9150   -3.6790   -3.1390 O   0  0  0  0  0  0  0  0  0  0  0  0
    2.9790   -1.2140   -1.7020 O   0  0  0  0  0  0  0  0  0  0  0  0
    4.2070   -0.9690   -1.2940 C   0  0  0  0  0  0  0  0  0  0  0  0
    5.0280   -1.9840   -1.1590 O   0  0  0  0  0  0  0  0  0  0  0  0
   -2.8410   -1.2320   -2.7400 O   0  0  0  0  0  0  0  0  0  0  0  0
   -4.0430   -1.9460   -2.8760 C   0  0  0  0  0  0  0  0  0  0  0  0
   -5.1900   -1.2860   -2.1490 C   0  0  0  0  0  0  0  0  0  0  0  0
   -4.7430   -0.2220   -1.3320 O   0  0  0  0  0  0  0  0  0  0  0  0
  1  2  1  0
  2  3  2  3
  2  5  1  0
  3  4  1  0
  5  6  2  3
  6  7  1  0
  6 36  1  0
  7  8  2  0
  8  9  1  0
  9 10  2  0
 10 11  1  0
 10 14  1  0
 11 12  1  0
 12 13  1  0
 13 14  1  0
 14 15  1  1
 14 16  1  0
 16 17  2  0
 16 28  1  0
 17 18  1  0
 18 19  1  0
 18 26  2  0
 19 20  1  0
 20 21  1  0
 21 22  1  6
 21 23  1  0
 23 24  2  0
 23 25  1  0
 26 27  1  0
 26 41  1  0
 27 28  2  0
 27 38  1  0
 28 29  1  0
 29 30  1  0
 30 31  1  0
 31 32  1  1
 31 35  1  0
 32 33  1  0
 32 34  2  0
 35 36  1  0
 36 37  2  0
 38 39  1  0
 39 40  1  0
 40 41  1  0
M  END
