
     RDKit          3D

 41 43  0  0  0  0  0  0  0  0999 V2000
   -2.7080    3.6860    2.9880 C   0  0  0  0  0  0  0  0  0  0  0  0
   -3.0830    2.9870    1.7100 C   0  0  2  0  0  0  0  0  0  0  0  0
   -3.8070    3.8670    0.9190 O   0  0  0  0  0  0  0  0  0  0  0  0
   -3.8830    1.7480    1.9760 C   0  0  0  0  0  0  0  0  0  0  0  0
   -4.2160    1.0450    0.8160 O   0  0  0  0  0  0  0  0  0  0  0  0
   -3.1790    0.5110   -0.0460 C   0  0  0  0  0  0  0  0  0  0  0  0
   -2.9780    1.2250   -1.1420 O   0  0  0  0  0  0  0  0  0  0  0  0
   -3.7890    1.5820   -2.2100 C   0  0  0  0  0  0  0  0  0  0  0  0
   -5.0150    2.3630   -1.8940 C   0  0  0  0  0  0  0  0  0  0  0  0
   -5.8950    1.7030   -1.0410 O   0  0  0  0  0  0  0  0  0  0  0  0
   -2.6230   -0.5960    0.4210 C   0  0  0  0  0  0  0  0  0  0  0  0
   -3.1410   -1.0190    1.6210 O   0  0  0  0  0  0  0  0  0  0  0  0
   -1.5170   -1.3630   -0.2750 C   0  0  0  0  0  0  0  0  0  0  0  0
   -1.0430   -2.4470    0.3180 C   0  0  0  0  0  0  0  0  0  0  0  0
   -1.6590   -2.7630    1.6490 C   0  0  0  0  0  0  0  0  0  0  0  0
   -1.3850   -3.8420    2.3830 C   0  0  0  0  0  0  0  0  0  0  0  0
   -2.0760   -4.0520    3.7160 C   0  0  0  0  0  0  0  0  0  0  0  0
   -2.7570   -5.2830    3.5470 O   0  0  0  0  0  0  0  0  0  0  0  0
   -0.4310   -4.7770    1.8840 C   0  0  0  0  0  0  0  0  0  0  0  0
   -0.1450   -5.8060    2.5530 O   0  0  0  0  0  0  0  0  0  0  0  0
    0.1840   -4.5030    0.6070 C   0  0  0  0  0  0  0  0  0  0  0  0
   -0.0770   -3.4190   -0.1630 C   0  0  0  0  0  0  0  0  0  0  0  0
    0.6950   -3.4880   -1.4210 C   0  0  0  0  0  0  0  0  0  0  0  0
    1.9010   -2.8950   -1.4180 O   0  0  0  0  0  0  0  0  0  0  0  0
    2.7100   -3.0830   -0.3120 C   0  0  0  0  0  0  0  0  0  0  0  0
    3.5290   -1.7620   -0.2420 C   0  0  1  0  0  0  0  0  0  0  0  0
    4.4030   -1.8380   -1.2840 O   0  0  0  0  0  0  0  0  0  0  0  0
    2.4960   -0.7010   -0.2890 C   0  0  0  0  0  0  0  0  0  0  0  0
    2.7840    0.6320   -0.7990 C   0  0  2  0  0  0  0  0  0  0  0  0
    1.5830    0.9620   -1.6940 C   0  0  0  0  0  0  0  0  0  0  0  0
    1.0910   -0.1430   -2.4920 C   0  0  0  0  0  0  0  0  0  0  0  0
    1.8700   -0.5780   -3.4130 O   0  0  0  0  0  0  0  0  0  0  0  0
   -0.1590   -0.8260   -2.3970 N   0  0  0  0  0  0  0  0  0  0  0  0
   -1.1600   -0.6390   -1.4820 C   0  0  0  0  0  0  0  0  0  0  0  0
    3.9940    0.7370   -1.6530 C   0  0  0  0  0  0  0  0  0  0  0  0
    4.2010    2.1010   -2.2550 C   0  0  2  0  0  0  0  0  0  0  0  0
    5.5530    2.1560   -2.6380 O   0  0  0  0  0  0  0  0  0  0  0  0
    3.9280    3.2400   -1.3580 C   0  0  0  0  0  0  0  0  0  0  0  0
    2.7860    3.0810   -0.4130 C   0  0  0  0  0  0  0  0  0  0  0  0
    2.8260    1.7200    0.2600 C   0  0  2  0  0  0  0  0  0  0  0  0
    4.1260    1.7310    1.0320 C   0  0  0  0  0  0  0  0  0  0  0  0
  2  1  1  1
  2  3  1  0
  2  4  1  0
  4  5  1  0
  5  6  1  0
  6  7  1  0
  6 11  2  3
  7  8  1  0
  8  9  1  0
  9 10  1  0
 11 12  1  0
 11 13  1  0
 13 14  2  0
 13 34  1  0
 14 15  1  0
 14 22  1  0
 15 16  2  0
 16 17  1  0
 16 19  1  0
 17 18  1  0
 19 20  2  0
 19 21  1  0
 21 22  2  0
 22 23  1  0
 23 24  1  0
 24 25  1  0
 25 26  1  0
 26 27  1  6
 26 28  1  0
 29 28  1  1
 29 30  1  0
 29 35  1  0
 29 40  1  0
 30 31  1  0
 31 32  2  0
 31 33  1  0
 33 34  1  0
 35 36  1  0
 36 37  1  1
 36 38  1  0
 38 39  1  0
 39 40  1  0
 40 41  1  6
M  END
