
     RDKit          3D

 41 44  0  0  0  0  0  0  0  0999 V2000
   -5.1420    0.1280    2.4540 C   0  0  0  0  0  0  0  0  0  0  0  0
   -4.0400   -0.3620    1.9110 C   0  0  0  0  0  0  0  0  0  0  0  0
   -4.1290   -1.5830    1.4890 O   0  0  0  0  0  0  0  0  0  0  0  0
   -3.1290   -2.1810    0.9380 C   0  0  0  0  0  0  0  0  0  0  0  0
   -3.4870   -3.4780    0.5780 C   0  0  0  0  0  0  0  0  0  0  0  0
   -4.8000   -3.9610    0.8310 O   0  0  0  0  0  0  0  0  0  0  0  0
   -5.1580   -5.2610    0.4690 C   0  0  0  0  0  0  0  0  0  0  0  0
   -2.5740   -4.2780   -0.0150 C   0  0  0  0  0  0  0  0  0  0  0  0
   -1.3540   -3.7520   -0.2210 C   0  0  0  0  0  0  0  0  0  0  0  0
   -0.9280   -2.4340    0.1220 C   0  0  0  0  0  0  0  0  0  0  0  0
   -1.8630   -1.5960    0.7360 C   0  0  0  0  0  0  0  0  0  0  0  0
   -1.7280   -0.2830    1.1760 C   0  0  0  0  0  0  0  0  0  0  0  0
   -0.5830    0.3800    1.0460 O   0  0  0  0  0  0  0  0  0  0  0  0
   -2.8110    0.3460    1.7650 C   0  0  0  0  0  0  0  0  0  0  0  0
   -2.9520    1.5670    2.2870 C   0  0  0  0  0  0  0  0  0  0  0  0
   -2.0870    2.7260    2.4300 C   0  0  0  0  0  0  0  0  0  0  0  0
   -1.6690    3.5090    1.4190 C   0  0  0  0  0  0  0  0  0  0  0  0
   -2.0350    3.3020    0.0110 C   0  0  0  0  0  0  0  0  0  0  0  0
   -1.2690    4.2390   -0.8680 C   0  0  1  0  0  0  0  0  0  0  0  0
   -1.7420    3.9890   -2.3070 C   0  0  0  0  0  0  0  0  0  0  0  0
   -1.6700    5.5680   -0.5930 O   0  0  0  0  0  0  0  0  0  0  0  0
    0.2030    4.0960   -0.7750 C   0  0  0  0  0  0  0  0  0  0  0  0
    0.8340    3.3880   -1.8570 N   0  0  0  0  0  0  0  0  0  0  0  0
    1.7700    2.3250   -1.7990 C   0  0  0  0  0  0  0  0  0  0  0  0
    2.9500    2.7370   -2.2860 O   0  0  0  0  0  0  0  0  0  0  0  0
    1.6880    0.9370   -1.3310 C   0  0  0  0  0  0  0  0  0  0  0  0
    0.8930   -0.0890   -1.6600 C   0  0  0  0  0  0  0  0  0  0  0  0
    1.1730   -1.3480   -0.9280 C   0  0  0  0  0  0  0  0  0  0  0  0
    0.4970   -2.2310   -0.2560 C   0  0  0  0  0  0  0  0  0  0  0  0
    2.5970   -1.6190   -1.0310 O   0  0  0  0  0  0  0  0  0  0  0  0
    3.4560   -1.5060   -2.0870 C   0  0  0  0  0  0  0  0  0  0  0  0
    4.5240   -2.5950   -1.8830 C   0  0  2  0  0  0  0  0  0  0  0  0
    3.8060   -3.7660   -1.6490 O   0  0  0  0  0  0  0  0  0  0  0  0
    5.4080   -2.3190   -0.7330 C   0  0  0  0  0  0  0  0  0  0  0  0
    5.8040   -3.3720   -0.1150 O   0  0  0  0  0  0  0  0  0  0  0  0
    5.7830   -1.0940   -0.3440 O   0  0  0  0  0  0  0  0  0  0  0  0
    5.1750   -0.0080    0.2320 C   0  0  0  0  0  0  0  0  0  0  0  0
    4.1580   -0.2770    1.3020 C   0  0  1  0  0  0  0  0  0  0  0  0
    4.5010    0.1600    2.5550 O   0  0  0  0  0  0  0  0  0  0  0  0
    2.7940    0.3080    0.9340 C   0  0  0  0  0  0  0  0  0  0  0  0
    2.6880    0.7250   -0.3290 O   0  0  0  0  0  0  0  0  0  0  0  0
  1  2  2  0
  2  3  1  0
  2 14  1  0
  3  4  1  0
  4  5  2  0
  4 11  1  0
  5  6  1  0
  5  8  1  0
  6  7  1  0
  8  9  2  0
  9 10  1  0
 10 11  2  0
 10 29  1  0
 11 12  1  0
 12 13  2  0
 12 14  1  0
 14 15  2  0
 15 16  1  0
 16 17  2  0
 17 18  1  0
 18 19  1  0
 19 20  1  6
 19 21  1  0
 19 22  1  0
 22 23  1  0
 23 24  1  0
 24 25  2  0
 24 26  1  0
 26 27  2  0
 26 41  1  0
 27 28  1  0
 28 29  2  0
 28 30  1  0
 30 31  1  0
 31 32  1  0
 32 33  1  1
 32 34  1  0
 34 35  2  0
 34 36  1  0
 36 37  1  0
 37 38  1  0
 38 39  1  1
 38 40  1  0
 40 41  1  0
M  END
