
     RDKit          3D

 41 45  0  0  0  0  0  0  0  0999 V2000
   -0.8810   -4.1610   -0.7690 C   0  0  0  0  0  0  0  0  0  0  0  0
   -0.6890   -2.6760   -0.7790 C   0  0  1  0  0  0  0  0  0  0  0  0
   -1.9730   -2.0540   -0.3570 C   0  0  0  0  0  0  0  0  0  0  0  0
   -2.4370   -2.3860    0.7640 O   0  0  0  0  0  0  0  0  0  0  0  0
   -2.6600   -1.1500   -1.1260 O   0  0  0  0  0  0  0  0  0  0  0  0
   -3.8450   -0.5540   -0.7740 C   0  0  0  0  0  0  0  0  0  0  0  0
   -5.0320   -1.1520   -1.1030 C   0  0  0  0  0  0  0  0  0  0  0  0
   -5.0440   -2.3870   -1.8070 N   0  0  0  0  0  0  0  0  0  0  0  0
   -6.2540   -0.5840   -0.7670 C   0  0  0  0  0  0  0  0  0  0  0  0
   -6.3150    0.6100   -0.0860 C   0  0  0  0  0  0  0  0  0  0  0  0
   -7.6170    1.1630    0.2340 C   0  0  0  0  0  0  0  0  0  0  0  0
   -8.8240    0.5550   -0.0920 C   0  0  0  0  0  0  0  0  0  0  0  0
   -9.8180    1.3770    0.3740 C   0  0  0  0  0  0  0  0  0  0  0  0
   -9.1920    2.4450    0.9610 C   0  0  0  0  0  0  0  0  0  0  0  0
   -7.9150    2.2700    0.8510 O   0  0  0  0  0  0  0  0  0  0  0  0
   -5.1100    1.2360    0.2600 C   0  0  0  0  0  0  0  0  0  0  0  0
   -3.9150    0.6440   -0.0900 C   0  0  0  0  0  0  0  0  0  0  0  0
   -2.7320    1.3110    0.2760 O   0  0  0  0  0  0  0  0  0  0  0  0
   -2.7980    2.7380    0.3370 C   0  0  0  0  0  0  0  0  0  0  0  0
   -3.8980    3.1280    1.2750 C   0  0  0  0  0  0  0  0  0  0  0  0
   -5.2150    2.4980    0.9980 C   0  0  2  0  0  0  0  0  0  0  0  0
   -5.7800    2.1810    2.2480 O   0  0  0  0  0  0  0  0  0  0  0  0
    0.4570   -2.2700    0.1590 C   0  0  0  0  0  0  0  0  0  0  0  0
    1.5260   -1.9070   -0.7870 C   0  0  2  0  0  0  0  0  0  0  0  0
    0.8030   -1.3500   -1.9400 C   0  0  0  0  0  0  0  0  0  0  0  0
    1.1460   -0.3720   -2.6290 O   0  0  0  0  0  0  0  0  0  0  0  0
   -0.3340   -2.1740   -2.0630 O   0  0  0  0  0  0  0  0  0  0  0  0
    2.5170   -3.0030   -1.1180 C   0  0  2  0  0  0  0  0  0  0  0  0
    2.0830   -4.2900   -0.9520 O   0  0  0  0  0  0  0  0  0  0  0  0
    3.3070   -2.4420    0.0830 C   0  0  0  0  0  0  0  0  0  0  0  0
    2.7120   -1.1100   -0.2850 C   0  0  2  0  0  0  0  0  0  0  0  0
    2.4690   -0.2380    0.9020 C   0  0  0  0  0  0  0  0  0  0  0  0
    3.3200   -0.5140   -1.3560 O   0  0  0  0  0  0  0  0  0  0  0  0
    4.3580    0.3300   -1.1560 C   0  0  0  0  0  0  0  0  0  0  0  0
    5.6080   -0.1890   -0.5460 C   0  0  1  0  0  0  0  0  0  0  0  0
    6.1720   -1.2240   -1.3460 O   0  0  0  0  0  0  0  0  0  0  0  0
    6.6600    0.8990   -0.4400 C   0  0  0  0  0  0  0  0  0  0  0  0
    6.2240    2.0420    0.4000 C   0  0  0  0  0  0  0  0  0  0  0  0
    7.3030    3.1100    0.5230 C   0  0  0  0  0  0  0  0  0  0  0  0
    8.5590    2.5510    1.1490 C   0  0  0  0  0  0  0  0  0  0  0  0
    8.3530    2.0520    2.4110 O   0  0  0  0  0  0  0  0  0  0  0  0
  2  1  1  6
  2  3  1  0
  2 23  1  0
  2 27  1  0
  3  4  2  0
  3  5  1  0
  5  6  1  0
  6  7  2  0
  6 17  1  0
  7  8  1  0
  7  9  1  0
  9 10  2  0
 10 11  1  0
 10 16  1  0
 11 12  2  0
 11 15  1  0
 12 13  1  0
 13 14  2  0
 14 15  1  0
 16 17  2  0
 16 21  1  0
 17 18  1  0
 18 19  1  0
 19 20  1  0
 20 21  1  0
 21 22  1  1
 24 23  1  1
 24 25  1  0
 24 28  1  0
 24 31  1  0
 25 26  2  0
 25 27  1  0
 28 29  1  1
 28 30  1  0
 30 31  1  0
 31 32  1  1
 31 33  1  0
 33 34  1  0
 34 35  1  0
 35 36  1  6
 35 37  1  0
 37 38  1  0
 38 39  1  0
 39 40  1  0
 40 41  1  0
M  END
