
     RDKit          3D

 41 44  0  0  0  0  0  0  0  0999 V2000
    6.7750    2.6870    3.5130 C   0  0  0  0  0  0  0  0  0  0  0  0
    5.6390    2.0810    2.9480 O   0  0  0  0  0  0  0  0  0  0  0  0
    5.3130    2.2090    1.5850 C   0  0  0  0  0  0  0  0  0  0  0  0
    6.2020    2.9750    0.8610 C   0  0  0  0  0  0  0  0  0  0  0  0
    5.9570    3.1440   -0.4640 C   0  0  0  0  0  0  0  0  0  0  0  0
    4.8470    2.5540   -1.0390 C   0  0  0  0  0  0  0  0  0  0  0  0
    3.9560    1.7850   -0.3200 C   0  0  0  0  0  0  0  0  0  0  0  0
    4.1880    1.6040    1.0320 C   0  0  0  0  0  0  0  0  0  0  0  0
    3.3350    0.8520    1.8290 O   0  0  0  0  0  0  0  0  0  0  0  0
    1.9680    1.1040    2.0620 C   0  0  0  0  0  0  0  0  0  0  0  0
    1.3100   -0.2570    2.2290 C   0  0  0  0  0  0  0  0  0  0  0  0
    2.0530   -0.9870    2.9410 O   0  0  0  0  0  0  0  0  0  0  0  0
    0.1510   -0.4200    1.6350 O   0  0  0  0  0  0  0  0  0  0  0  0
   -0.7360   -1.3170    1.1020 C   0  0  1  0  0  0  0  0  0  0  0  0
   -1.3260   -2.0730    2.2860 C   0  0  0  0  0  0  0  0  0  0  0  0
   -2.3600   -1.2070    2.7510 O   0  0  0  0  0  0  0  0  0  0  0  0
   -2.9050   -0.6360    1.5870 C   0  0  0  0  0  0  0  0  0  0  0  0
   -4.1420   -0.0920    1.3600 C   0  0  0  0  0  0  0  0  0  0  0  0
   -4.5250    0.4430    0.1050 C   0  0  0  0  0  0  0  0  0  0  0  0
   -5.8650    0.9710   -0.0240 C   0  0  0  0  0  0  0  0  0  0  0  0
   -6.5620    1.1110   -1.0940 C   0  0  0  0  0  0  0  0  0  0  0  0
   -7.9490    1.6930   -1.0440 C   0  0  0  0  0  0  0  0  0  0  0  0
   -8.0510    2.8430   -1.8030 O   0  0  0  0  0  0  0  0  0  0  0  0
   -3.6090    0.4100   -0.8960 C   0  0  0  0  0  0  0  0  0  0  0  0
   -3.7480    1.0980   -2.1550 C   0  0  0  0  0  0  0  0  0  0  0  0
   -4.4150    2.3240   -2.3730 N   0  0  0  0  0  0  0  0  0  0  0  0
   -3.2140    0.5810   -3.1980 O   0  0  0  0  0  0  0  0  0  0  0  0
   -2.3440   -0.1560   -0.6470 C   0  0  0  0  0  0  0  0  0  0  0  0
   -1.9830   -0.6760    0.5750 C   0  0  0  0  0  0  0  0  0  0  0  0
   -0.1500   -2.2230    0.0610 C   0  0  0  0  0  0  0  0  0  0  0  0
   -0.4940   -3.6770   -0.0250 C   0  0  1  0  0  0  0  0  0  0  0  0
   -0.2030   -4.4110    1.0860 O   0  0  0  0  0  0  0  0  0  0  0  0
   -1.9260   -3.9250   -0.4280 C   0  0  0  0  0  0  0  0  0  0  0  0
   -2.1370   -5.2900   -0.6990 O   0  0  0  0  0  0  0  0  0  0  0  0
    0.6590   -1.7220   -0.8490 C   0  0  0  0  0  0  0  0  0  0  0  0
    1.1860   -2.6260   -1.8040 O   0  0  0  0  0  0  0  0  0  0  0  0
    1.1180   -0.3360   -1.0470 C   0  0  0  0  0  0  0  0  0  0  0  0
    2.5890   -0.1570   -1.1500 C   0  0  2  0  0  0  0  0  0  0  0  0
    2.9240   -0.3510   -2.6570 C   0  0  0  0  0  0  0  0  0  0  0  0
    3.4490   -1.1250   -0.4340 C   0  0  0  0  0  0  0  0  0  0  0  0
    2.8770    1.2110   -0.9110 O   0  0  0  0  0  0  0  0  0  0  0  0
  1  2  1  0
  2  3  1  0
  3  4  2  0
  3  8  1  0
  4  5  1  0
  5  6  2  0
  6  7  1  0
  7  8  2  0
  7 41  1  0
  8  9  1  0
  9 10  1  0
 10 11  1  0
 11 12  2  0
 11 13  1  0
 13 14  1  0
 14 15  1  1
 14 29  1  0
 14 30  1  0
 15 16  1  0
 16 17  1  0
 17 18  2  0
 17 29  1  0
 18 19  1  0
 19 20  1  0
 19 24  2  0
 20 21  2  3
 21 22  1  0
 22 23  1  0
 24 25  1  0
 24 28  1  0
 25 26  1  0
 25 27  2  0
 28 29  2  0
 30 31  1  0
 30 35  2  0
 31 32  1  1
 31 33  1  0
 33 34  1  0
 35 36  1  0
 35 37  1  0
 37 38  1  0
 38 39  1  6
 38 40  1  0
 38 41  1  0
M  END
