
     RDKit          3D

 41 45  0  0  0  0  0  0  0  0999 V2000
    5.3470    0.1500   -2.0220 C   0  0  0  0  0  0  0  0  0  0  0  0
    4.7730   -1.2490   -1.9730 C   0  0  0  0  0  0  0  0  0  0  0  0
    4.3160   -1.5500   -0.6030 C   0  0  0  0  0  0  0  0  0  0  0  0
    5.1670   -2.3400    0.0720 C   0  0  0  0  0  0  0  0  0  0  0  0
    6.4210   -2.8300   -0.5390 C   0  0  0  0  0  0  0  0  0  0  0  0
    4.8820   -2.7520    1.4390 C   0  0  0  0  0  0  0  0  0  0  0  0
    3.6790   -2.1960    1.9420 N   0  0  0  0  0  0  0  0  0  0  0  0
    3.3200   -2.5450    3.2970 C   0  0  0  0  0  0  0  0  0  0  0  0
    2.2440   -2.1100    3.8880 C   0  0  0  0  0  0  0  0  0  0  0  0
    1.3490   -1.2420    3.1930 C   0  0  0  0  0  0  0  0  0  0  0  0
    0.2330   -0.7790    3.7760 F   0  0  0  0  0  0  0  0  0  0  0  0
    1.6080   -0.8650    1.9230 C   0  0  0  0  0  0  0  0  0  0  0  0
    2.8040   -1.3420    1.2500 C   0  0  0  0  0  0  0  0  0  0  0  0
    3.0890   -1.0130   -0.0570 C   0  0  0  0  0  0  0  0  0  0  0  0
    2.1070   -0.2590   -0.6780 N   0  0  0  0  0  0  0  0  0  0  0  0
    1.8850    0.3100   -1.9300 C   0  0  0  0  0  0  0  0  0  0  0  0
    2.6790    0.1890   -2.8150 O   0  0  0  0  0  0  0  0  0  0  0  0
    0.6100    1.1100   -2.2110 C   0  0  0  0  0  0  0  0  0  0  0  0
   -0.2380    1.1680   -1.0370 N   0  0  0  0  0  0  0  0  0  0  0  0
   -0.1440    2.2600   -0.1330 C   0  0  0  0  0  0  0  0  0  0  0  0
   -0.9850    3.4670   -0.4670 C   0  0  1  0  0  0  0  0  0  0  0  0
   -0.6410    4.0850   -1.8000 C   0  0  0  0  0  0  0  0  0  0  0  0
   -1.3640    5.4410   -1.8380 C   0  0  0  0  0  0  0  0  0  0  0  0
   -2.7940    5.2040   -1.8560 N   0  0  0  0  0  0  0  0  0  0  0  0
   -3.2490    4.4520   -0.7340 C   0  0  0  0  0  0  0  0  0  0  0  0
   -2.4520    3.2300   -0.4040 C   0  0  0  0  0  0  0  0  0  0  0  0
   -1.1630    0.1280   -0.8480 C   0  0  0  0  0  0  0  0  0  0  0  0
   -1.2730   -0.7850   -1.6990 O   0  0  0  0  0  0  0  0  0  0  0  0
   -2.0000    0.0670    0.3060 N   0  0  0  0  0  0  0  0  0  0  0  0
   -2.9170   -1.0380    0.4440 C   0  0  0  0  0  0  0  0  0  0  0  0
   -2.9530   -1.9990   -0.5170 N   0  0  0  0  0  0  0  0  0  0  0  0
   -3.7470   -3.0570   -0.4860 C   0  0  0  0  0  0  0  0  0  0  0  0
   -3.7710   -4.0980   -1.5430 C   0  0  0  0  0  0  0  0  0  0  0  0
   -4.5920   -3.1840    0.5990 C   0  0  0  0  0  0  0  0  0  0  0  0
   -4.5920   -2.2390    1.5950 C   0  0  0  0  0  0  0  0  0  0  0  0
   -5.4480   -2.3990    2.6600 C   0  0  0  0  0  0  0  0  0  0  0  0
   -5.4520   -1.4540    3.6610 C   0  0  0  0  0  0  0  0  0  0  0  0
   -6.2890   -1.6180    4.6950 F   0  0  0  0  0  0  0  0  0  0  0  0
   -4.6170   -0.3640    3.6040 C   0  0  0  0  0  0  0  0  0  0  0  0
   -3.7640   -0.2010    2.5470 C   0  0  0  0  0  0  0  0  0  0  0  0
   -3.7500   -1.1530    1.5240 C   0  0  0  0  0  0  0  0  0  0  0  0
  1  2  1  0
  2  3  1  0
  3  4  2  0
  3 14  1  0
  4  5  1  0
  4  6  1  0
  6  7  1  0
  7  8  1  0
  7 13  1  0
  8  9  2  0
  9 10  1  0
 10 11  1  0
 10 12  2  0
 12 13  1  0
 13 14  2  0
 14 15  1  0
 15 16  1  0
 16 17  2  0
 16 18  1  0
 18 19  1  0
 19 20  1  0
 19 27  1  0
 21 20  1  6
 21 22  1  0
 21 26  1  0
 22 23  1  0
 23 24  1  0
 24 25  1  0
 25 26  1  0
 27 28  2  0
 27 29  1  0
 29 30  1  0
 30 31  2  0
 30 41  1  0
 31 32  1  0
 32 33  1  0
 32 34  2  0
 34 35  1  0
 35 36  2  0
 35 41  1  0
 36 37  1  0
 37 38  1  0
 37 39  2  0
 39 40  1  0
 40 41  2  0
M  CHG  1  24   1
M  END
