
     RDKit          3D

 40 43  0  0  0  0  0  0  0  0999 V2000
    8.3950   -1.5070    0.8880 C   0  0  0  0  0  0  0  0  0  0  0  0
    7.3220   -0.5600    1.3930 C   0  0  2  0  0  0  0  0  0  0  0  0
    7.0620   -0.8870    2.7260 O   0  0  0  0  0  0  0  0  0  0  0  0
    6.0620   -0.6900    0.6310 C   0  0  0  0  0  0  0  0  0  0  0  0
    5.9930   -1.3060   -0.5870 C   0  0  0  0  0  0  0  0  0  0  0  0
    4.7590   -1.3740   -1.2180 C   0  0  0  0  0  0  0  0  0  0  0  0
    3.5930   -0.8540   -0.6850 C   0  0  0  0  0  0  0  0  0  0  0  0
    3.6710   -0.2320    0.5450 C   0  0  0  0  0  0  0  0  0  0  0  0
    4.9100   -0.1700    1.1690 C   0  0  0  0  0  0  0  0  0  0  0  0
    2.4960    0.3830    1.2040 C   0  0  0  0  0  0  0  0  0  0  0  0
    2.3870    0.1800    2.4490 O   0  0  0  0  0  0  0  0  0  0  0  0
    1.5480    1.1420    0.5460 O   0  0  0  0  0  0  0  0  0  0  0  0
    1.7770    2.2150   -0.3110 C   0  0  0  0  0  0  0  0  0  0  0  0
    1.0360    3.4600    0.0480 C   0  0  0  0  0  0  0  0  0  0  0  0
   -0.1820    3.4900   -0.6250 O   0  0  0  0  0  0  0  0  0  0  0  0
   -1.2390    3.6260    0.2420 C   0  0  0  0  0  0  0  0  0  0  0  0
   -2.4780    3.9560   -0.5540 C   0  0  2  0  0  0  0  0  0  0  0  0
   -2.2230    5.3070   -1.2350 C   0  0  0  0  0  0  0  0  0  0  0  0
   -3.4900    4.2130    0.3830 O   0  0  0  0  0  0  0  0  0  0  0  0
   -2.8760    2.9090   -1.5410 C   0  0  0  0  0  0  0  0  0  0  0  0
   -1.9420    1.7440   -1.6460 C   0  0  0  0  0  0  0  0  0  0  0  0
   -2.7460    0.5850   -1.9500 O   0  0  0  0  0  0  0  0  0  0  0  0
   -3.2230   -0.2740   -0.9290 C   0  0  0  0  0  0  0  0  0  0  0  0
   -4.5120   -0.5030   -0.7880 C   0  0  0  0  0  0  0  0  0  0  0  0
   -5.0950   -1.3810    0.2410 C   0  0  0  0  0  0  0  0  0  0  0  0
   -6.3890   -1.5630    0.2510 C   0  0  0  0  0  0  0  0  0  0  0  0
   -7.1480   -2.3780    1.1660 C   0  0  0  0  0  0  0  0  0  0  0  0
   -6.6650   -3.1550    2.2390 N   0  0  0  0  0  0  0  0  0  0  0  0
   -8.4270   -2.4300    1.0190 O   0  0  0  0  0  0  0  0  0  0  0  0
   -4.1800   -2.0090    1.2020 C   0  0  2  0  0  0  0  0  0  0  0  0
   -4.5100   -1.6890    2.5270 O   0  0  0  0  0  0  0  0  0  0  0  0
   -2.7550   -1.6910    0.9380 C   0  0  0  0  0  0  0  0  0  0  0  0
   -2.2710   -0.9100   -0.0130 C   0  0  0  0  0  0  0  0  0  0  0  0
   -0.9020   -0.6930   -0.1530 O   0  0  0  0  0  0  0  0  0  0  0  0
   -0.0590   -0.9690   -1.2430 C   0  0  2  0  0  0  0  0  0  0  0  0
   -0.7180   -1.9610   -2.1490 C   0  0  0  0  0  0  0  0  0  0  0  0
   -0.2000   -3.3250   -1.7670 C   0  0  0  0  0  0  0  0  0  0  0  0
    1.1970   -2.9990   -1.2970 C   0  0  0  0  0  0  0  0  0  0  0  0
    1.2120   -1.5980   -0.7810 C   0  0  1  0  0  0  0  0  0  0  0  0
    2.3640   -0.9520   -1.3640 O   0  0  0  0  0  0  0  0  0  0  0  0
  2  1  1  6
  2  3  1  0
  2  4  1  0
  4  5  2  0
  4  9  1  0
  5  6  1  0
  6  7  2  0
  7  8  1  0
  7 40  1  0
  8  9  2  0
  8 10  1  0
 10 11  2  0
 10 12  1  0
 12 13  1  0
 13 14  1  0
 14 15  1  0
 15 16  1  0
 16 17  1  0
 17 18  1  6
 17 19  1  0
 17 20  1  0
 20 21  1  0
 21 22  1  0
 22 23  1  0
 23 24  2  0
 23 33  1  0
 24 25  1  0
 25 26  2  3
 25 30  1  0
 26 27  1  0
 27 28  1  0
 27 29  2  0
 30 31  1  1
 30 32  1  0
 32 33  2  0
 33 34  1  0
 34 35  1  0
 35 36  1  6
 35 39  1  0
 36 37  1  0
 37 38  1  0
 39 38  1  6
 39 40  1  0
M  END
