
     RDKit          3D

 41 43  0  0  0  0  0  0  0  0999 V2000
    2.5470   -3.5870    3.4180 C   0  0  0  0  0  0  0  0  0  0  0  0
    1.6990   -2.9750    2.2790 C   0  0  2  0  0  0  0  0  0  0  0  0
    1.3400   -4.0790    1.4950 O   0  0  0  0  0  0  0  0  0  0  0  0
    2.6280   -2.1010    1.5250 C   0  0  0  0  0  0  0  0  0  0  0  0
    2.1290   -1.5830    0.2950 O   0  0  0  0  0  0  0  0  0  0  0  0
    2.9890   -0.7750   -0.4190 C   0  0  0  0  0  0  0  0  0  0  0  0
    4.3100   -1.3190   -0.5830 O   0  0  0  0  0  0  0  0  0  0  0  0
    4.5410   -2.5170   -1.2490 C   0  0  0  0  0  0  0  0  0  0  0  0
    4.0910   -2.5450   -2.6890 C   0  0  0  0  0  0  0  0  0  0  0  0
    4.7200   -1.5810   -3.4680 O   0  0  0  0  0  0  0  0  0  0  0  0
    2.8270    0.3880   -0.9740 C   0  0  0  0  0  0  0  0  0  0  0  0
    3.9510    0.8900   -1.6100 O   0  0  0  0  0  0  0  0  0  0  0  0
    1.5840    1.1910   -0.9930 C   0  0  0  0  0  0  0  0  0  0  0  0
    1.4330    2.3910   -1.5270 C   0  0  0  0  0  0  0  0  0  0  0  0
    2.6400    2.9560   -2.1630 C   0  0  0  0  0  0  0  0  0  0  0  0
    2.6990    4.1620   -2.7380 C   0  0  0  0  0  0  0  0  0  0  0  0
    3.9440    4.6790   -3.3630 C   0  0  0  0  0  0  0  0  0  0  0  0
    4.3790    5.8600   -2.7620 O   0  0  0  0  0  0  0  0  0  0  0  0
    1.5310    4.9950   -2.7590 C   0  0  0  0  0  0  0  0  0  0  0  0
    1.5300    6.1490   -3.2930 O   0  0  0  0  0  0  0  0  0  0  0  0
    0.3350    4.4510   -2.1370 C   0  0  0  0  0  0  0  0  0  0  0  0
    0.2620    3.2340   -1.5520 C   0  0  0  0  0  0  0  0  0  0  0  0
   -1.0970    2.9970   -1.0120 C   0  0  0  0  0  0  0  0  0  0  0  0
   -1.2170    2.8140    0.3330 O   0  0  0  0  0  0  0  0  0  0  0  0
   -2.5180    3.0110    0.7070 C   0  0  0  0  0  0  0  0  0  0  0  0
   -3.1280    1.8470    1.5050 C   0  0  1  0  0  0  0  0  0  0  0  0
   -4.4060    2.3910    1.8490 O   0  0  0  0  0  0  0  0  0  0  0  0
   -3.2720    0.6390    0.6940 C   0  0  0  0  0  0  0  0  0  0  0  0
   -2.7300   -0.6620    1.1100 C   0  0  2  0  0  0  0  0  0  0  0  0
   -1.6300   -0.7350    2.0880 C   0  0  0  0  0  0  0  0  0  0  0  0
   -0.4670    0.1320    2.0250 C   0  0  0  0  0  0  0  0  0  0  0  0
   -0.2760    0.7910    3.1390 O   0  0  0  0  0  0  0  0  0  0  0  0
    0.4910    0.4290    1.0710 N   0  0  0  0  0  0  0  0  0  0  0  0
    0.4430    0.4030   -0.3670 C   0  0  0  0  0  0  0  0  0  0  0  0
   -2.3130   -1.4980   -0.1180 C   0  0  0  0  0  0  0  0  0  0  0  0
   -3.2420   -2.6380   -0.4070 C   0  0  2  0  0  0  0  0  0  0  0  0
   -2.9540   -3.0250   -1.7410 O   0  0  0  0  0  0  0  0  0  0  0  0
   -4.6940   -2.2240   -0.4240 C   0  0  0  0  0  0  0  0  0  0  0  0
   -5.0550   -1.6860    0.9210 C   0  0  0  0  0  0  0  0  0  0  0  0
   -3.8630   -1.4930    1.7530 C   0  0  2  0  0  0  0  0  0  0  0  0
   -4.2140   -1.0110    3.1160 C   0  0  0  0  0  0  0  0  0  0  0  0
  2  1  1  1
  2  3  1  0
  2  4  1  0
  4  5  1  0
  5  6  1  0
  6  7  1  0
  6 11  2  3
  7  8  1  0
  8  9  1  0
  9 10  1  0
 11 12  1  0
 11 13  1  0
 13 14  2  0
 13 34  1  0
 14 15  1  0
 14 22  1  0
 15 16  2  0
 16 17  1  0
 16 19  1  0
 17 18  1  0
 19 20  2  0
 19 21  1  0
 21 22  2  0
 22 23  1  0
 23 24  1  0
 24 25  1  0
 25 26  1  0
 26 27  1  6
 26 28  1  0
 29 28  1  6
 29 30  1  0
 29 35  1  0
 29 40  1  0
 30 31  1  0
 31 32  2  0
 31 33  1  0
 33 34  1  0
 35 36  1  0
 36 37  1  6
 36 38  1  0
 38 39  1  0
 39 40  1  0
 40 41  1  1
M  END
