
     RDKit          3D

 41 45  0  0  0  0  0  0  0  0999 V2000
    7.1050    0.2400    2.2540 C   0  0  0  0  0  0  0  0  0  0  0  0
    6.4390   -0.3090    1.2450 C   0  0  0  0  0  0  0  0  0  0  0  0
    7.2470   -0.7740    0.0790 C   0  0  0  0  0  0  0  0  0  0  0  0
    4.9690   -0.4490    1.2790 C   0  0  0  0  0  0  0  0  0  0  0  0
    4.3710    0.2570    0.1990 O   0  0  0  0  0  0  0  0  0  0  0  0
    2.9990    0.2810    0.0090 C   0  0  0  0  0  0  0  0  0  0  0  0
    2.5010    0.9800   -1.0520 C   0  0  0  0  0  0  0  0  0  0  0  0
    1.1270    1.0130   -1.2550 C   0  0  0  0  0  0  0  0  0  0  0  0
    0.2190    0.3780   -0.4440 C   0  0  0  0  0  0  0  0  0  0  0  0
   -1.2720    0.3970   -0.7290 C   0  0  1  0  0  0  0  0  0  0  0  0
   -1.6830   -1.0140   -0.7720 C   0  0  0  0  0  0  0  0  0  0  0  0
   -2.3310   -1.8740   -0.0340 C   0  0  0  0  0  0  0  0  0  0  0  0
   -2.5420   -3.2450   -0.4340 C   0  0  0  0  0  0  0  0  0  0  0  0
   -1.3570   -3.9950   -0.9210 C   0  0  1  0  0  0  0  0  0  0  0  0
   -0.4730   -4.5040    0.2090 C   0  0  0  0  0  0  0  0  0  0  0  0
   -1.8870   -5.2610   -1.6160 C   0  0  0  0  0  0  0  0  0  0  0  0
   -0.4810   -3.3000   -1.9000 C   0  0  0  0  0  0  0  0  0  0  0  0
   -1.1110   -1.7040   -2.3100 S   0  0  1  0  0  0  0  0  0  0  0  0
   -2.3550   -1.8730   -3.1520 O   0  0  0  0  0  0  0  0  0  0  0  0
   -0.1290   -0.8450   -2.9930 O   0  0  0  0  0  0  0  0  0  0  0  0
   -2.9190   -1.5940    1.2320 N   0  0  0  0  0  0  0  0  0  0  0  0
   -3.4130   -0.3030    1.6660 C   0  0  0  0  0  0  0  0  0  0  0  0
   -4.4330   -0.3870    2.5550 C   0  0  0  0  0  0  0  0  0  0  0  0
   -4.9060   -1.5810    3.0090 O   0  0  0  0  0  0  0  0  0  0  0  0
   -5.0150    0.8110    3.0160 C   0  0  0  0  0  0  0  0  0  0  0  0
   -4.5770    2.0290    2.5870 C   0  0  0  0  0  0  0  0  0  0  0  0
   -3.5470    2.1000    1.6880 C   0  0  0  0  0  0  0  0  0  0  0  0
   -2.9520    0.9240    1.2200 C   0  0  0  0  0  0  0  0  0  0  0  0
   -1.8980    1.1930    0.2960 N   0  0  0  0  0  0  0  0  0  0  0  0
   -1.3030    2.4820    0.5010 C   0  0  0  0  0  0  0  0  0  0  0  0
   -1.0990    2.8060    1.7220 O   0  0  0  0  0  0  0  0  0  0  0  0
   -0.9360    3.4200   -0.5140 C   0  0  0  0  0  0  0  0  0  0  0  0
   -1.0690    3.3570   -1.8460 N   0  0  0  0  0  0  0  0  0  0  0  0
   -0.5850    4.4670   -2.4290 C   0  0  0  0  0  0  0  0  0  0  0  0
   -0.5520    4.7770   -3.9010 C   0  0  0  0  0  0  0  0  0  0  0  0
   -0.1530    5.2140   -1.4460 O   0  0  0  0  0  0  0  0  0  0  0  0
   -0.3320    4.6490   -0.2780 C   0  0  0  0  0  0  0  0  0  0  0  0
    0.0410    5.2130    1.0690 C   0  0  0  0  0  0  0  0  0  0  0  0
    0.7420   -0.3220    0.6190 C   0  0  0  0  0  0  0  0  0  0  0  0
   -0.0370   -0.9850    1.4940 F   0  0  0  0  0  0  0  0  0  0  0  0
    2.1200   -0.3680    0.8410 C   0  0  0  0  0  0  0  0  0  0  0  0
  1  2  2  0
  2  3  1  0
  2  4  1  0
  4  5  1  0
  5  6  1  0
  6  7  2  0
  6 41  1  0
  7  8  1  0
  8  9  2  0
 10  9  1  1
  9 39  1  0
 10 11  1  0
 10 29  1  0
 11 12  2  0
 11 18  1  0
 12 13  1  0
 12 21  1  0
 13 14  1  0
 14 15  1  1
 14 16  1  0
 14 17  1  0
 18 17  1  1
 18 19  2  0
 18 20  2  0
 21 22  1  0
 22 23  2  0
 22 28  1  0
 23 24  1  0
 23 25  1  0
 25 26  2  0
 26 27  1  0
 27 28  2  0
 28 29  1  0
 29 30  1  0
 30 31  2  0
 30 32  1  0
 32 33  1  0
 32 37  2  0
 33 34  2  0
 34 35  1  0
 34 36  1  0
 36 37  1  0
 37 38  1  0
 39 40  1  0
 39 41  2  0
M  END
