
     RDKit          3D

 41 44  0  0  0  0  0  0  0  0999 V2000
   -5.5580    0.1560   -0.8760 C   0  0  0  0  0  0  0  0  0  0  0  0
   -4.3000    0.6160   -0.9710 C   0  0  0  0  0  0  0  0  0  0  0  0
   -4.0850    1.4210   -1.9310 O   0  0  0  0  0  0  0  0  0  0  0  0
   -2.8580    1.9240   -2.1330 C   0  0  0  0  0  0  0  0  0  0  0  0
   -2.9290    2.7800   -3.2820 C   0  0  0  0  0  0  0  0  0  0  0  0
   -4.0820    2.9110   -3.9080 O   0  0  0  0  0  0  0  0  0  0  0  0
   -4.8510    3.3980   -4.8730 C   0  0  0  0  0  0  0  0  0  0  0  0
   -1.7480    3.3600   -3.6040 C   0  0  0  0  0  0  0  0  0  0  0  0
   -0.6670    3.0960   -2.8800 C   0  0  0  0  0  0  0  0  0  0  0  0
   -0.5440    2.2360   -1.7270 C   0  0  0  0  0  0  0  0  0  0  0  0
   -1.7640    1.6330   -1.3540 C   0  0  0  0  0  0  0  0  0  0  0  0
   -2.0040    0.7460   -0.2800 C   0  0  0  0  0  0  0  0  0  0  0  0
   -1.0490    0.4080    0.5730 O   0  0  0  0  0  0  0  0  0  0  0  0
   -3.2410    0.2260   -0.0760 C   0  0  0  0  0  0  0  0  0  0  0  0
   -3.7100   -0.6590    0.8240 C   0  0  0  0  0  0  0  0  0  0  0  0
   -3.5490   -1.5180    1.8840 C   0  0  0  0  0  0  0  0  0  0  0  0
   -2.7240   -2.6300    2.0780 C   0  0  0  0  0  0  0  0  0  0  0  0
   -1.7290   -3.2530    1.2300 C   0  0  0  0  0  0  0  0  0  0  0  0
   -1.6660   -3.1920   -0.2170 C   0  0  1  0  0  0  0  0  0  0  0  0
   -1.4360   -4.5840   -0.8650 C   0  0  0  0  0  0  0  0  0  0  0  0
   -2.9090   -2.7540   -0.7500 O   0  0  0  0  0  0  0  0  0  0  0  0
   -0.5770   -2.3010   -0.7940 C   0  0  0  0  0  0  0  0  0  0  0  0
    0.6180   -2.3250   -0.0430 N   0  0  0  0  0  0  0  0  0  0  0  0
    1.5850   -1.4400    0.4820 C   0  0  0  0  0  0  0  0  0  0  0  0
    2.7740   -1.9030    0.0840 O   0  0  0  0  0  0  0  0  0  0  0  0
    1.6020   -0.2220    1.3090 C   0  0  0  0  0  0  0  0  0  0  0  0
    1.6140    1.0460    0.9480 C   0  0  0  0  0  0  0  0  0  0  0  0
    1.6450    1.6190   -0.3860 C   0  0  0  0  0  0  0  0  0  0  0  0
    0.8470    2.0310   -1.3170 C   0  0  0  0  0  0  0  0  0  0  0  0
    3.0460    1.7920   -0.7850 O   0  0  0  0  0  0  0  0  0  0  0  0
    4.2130    1.3080   -0.3470 C   0  0  0  0  0  0  0  0  0  0  0  0
    4.7300    1.8860    0.9490 C   0  0  2  0  0  0  0  0  0  0  0  0
    5.1870    3.1680    0.7190 O   0  0  0  0  0  0  0  0  0  0  0  0
    5.7250    0.9910    1.5220 C   0  0  0  0  0  0  0  0  0  0  0  0
    6.4280    0.3070    0.6580 O   0  0  0  0  0  0  0  0  0  0  0  0
    5.9120    0.8790    2.8630 O   0  0  0  0  0  0  0  0  0  0  0  0
    5.1200    0.1930    3.8150 C   0  0  0  0  0  0  0  0  0  0  0  0
    4.0140   -0.6310    3.1800 C   0  0  1  0  0  0  0  0  0  0  0  0
    4.2980   -1.9950    3.2020 O   0  0  0  0  0  0  0  0  0  0  0  0
    2.6510   -0.4060    3.6850 C   0  0  0  0  0  0  0  0  0  0  0  0
    1.6310   -0.5540    2.7270 O   0  0  0  0  0  0  0  0  0  0  0  0
  1  2  2  0
  2  3  1  0
  2 14  1  0
  3  4  1  0
  4  5  2  0
  4 11  1  0
  5  6  1  0
  5  8  1  0
  6  7  1  0
  8  9  2  0
  9 10  1  0
 10 11  2  0
 10 29  1  0
 11 12  1  0
 12 13  2  0
 12 14  1  0
 14 15  2  0
 15 16  1  0
 16 17  2  0
 17 18  1  0
 18 19  1  0
 19 20  1  6
 19 21  1  0
 19 22  1  0
 22 23  1  0
 23 24  1  0
 24 25  2  0
 24 26  1  0
 26 27  2  0
 26 41  1  0
 27 28  1  0
 28 29  2  0
 28 30  1  0
 30 31  1  0
 31 32  1  0
 32 33  1  6
 32 34  1  0
 34 35  2  0
 34 36  1  0
 36 37  1  0
 37 38  1  0
 38 39  1  1
 38 40  1  0
 40 41  1  0
M  END
