
     RDKit          3D

 41 44  0  0  0  0  0  0  0  0999 V2000
    5.8740   -2.7340    3.7830 C   0  0  0  0  0  0  0  0  0  0  0  0
    4.6710   -2.7980    4.2550 C   0  0  0  0  0  0  0  0  0  0  0  0
    4.5890   -3.1490    5.6180 O   0  0  0  0  0  0  0  0  0  0  0  0
    3.4580   -2.5270    3.4830 C   0  0  0  0  0  0  0  0  0  0  0  0
    2.2670   -2.6470    4.0810 C   0  0  0  0  0  0  0  0  0  0  0  0
    1.0280   -3.1210    3.4890 C   0  0  0  0  0  0  0  0  0  0  0  0
    0.4990   -4.4200    3.8140 O   0  0  0  0  0  0  0  0  0  0  0  0
    0.2480   -2.4720    2.6210 C   0  0  0  0  0  0  0  0  0  0  0  0
   -0.4740   -1.1970    2.7160 C   0  0  0  0  0  0  0  0  0  0  0  0
   -1.7780   -1.2810    1.9010 C   0  0  1  0  0  0  0  0  0  0  0  0
   -2.3490   -2.6610    2.1430 C   0  0  0  0  0  0  0  0  0  0  0  0
   -2.7390   -0.2150    2.3160 C   0  0  0  0  0  0  0  0  0  0  0  0
   -2.4180    0.4680    3.3600 O   0  0  0  0  0  0  0  0  0  0  0  0
   -3.9710    0.0740    1.6270 N   0  0  0  0  0  0  0  0  0  0  0  0
   -3.9110    0.4460    0.1840 C   0  0  0  0  0  0  0  0  0  0  0  0
   -3.8350    1.7490   -0.2280 C   0  0  0  0  0  0  0  0  0  0  0  0
   -3.8120    2.0790   -1.6480 C   0  0  0  0  0  0  0  0  0  0  0  0
   -3.8630    1.1240   -2.5890 C   0  0  0  0  0  0  0  0  0  0  0  0
   -3.9370   -0.1780   -2.1690 C   0  0  0  0  0  0  0  0  0  0  0  0
   -4.0080   -1.3550   -3.0120 O   0  0  0  0  0  0  0  0  0  0  0  0
   -3.9600   -0.5300   -0.7940 C   0  0  0  0  0  0  0  0  0  0  0  0
   -3.8610    1.3970   -3.9450 O   0  0  0  0  0  0  0  0  0  0  0  0
   -2.9610    1.8620   -4.8680 C   0  0  0  0  0  0  0  0  0  0  0  0
   -3.0100    3.3770   -4.9830 C   0  0  0  0  0  0  0  0  0  0  0  0
   -2.0230    4.0840   -4.3450 O   0  0  0  0  0  0  0  0  0  0  0  0
   -0.7930    3.8660   -3.9100 C   0  0  0  0  0  0  0  0  0  0  0  0
    0.2300    4.5430   -4.3430 O   0  0  0  0  0  0  0  0  0  0  0  0
   -0.4200    2.8560   -2.8910 C   0  0  2  0  0  0  0  0  0  0  0  0
   -0.1980    3.4970   -1.4950 C   0  0  0  0  0  0  0  0  0  0  0  0
    0.0870    2.3130   -0.7180 O   0  0  0  0  0  0  0  0  0  0  0  0
    1.3340    1.7020   -1.0030 C   0  0  0  0  0  0  0  0  0  0  0  0
    2.1320    1.1710    0.1140 C   0  0  0  0  0  0  0  0  0  0  0  0
    3.2490    0.6480   -0.3780 C   0  0  0  0  0  0  0  0  0  0  0  0
    3.7340    0.5410   -1.6260 C   0  0  0  0  0  0  0  0  0  0  0  0
    2.8800    1.1050   -2.7510 C   0  0  0  0  0  0  0  0  0  0  0  0
    1.7160    1.6430   -2.2820 C   0  0  0  0  0  0  0  0  0  0  0  0
    0.7650    2.2250   -3.1910 O   0  0  0  0  0  0  0  0  0  0  0  0
    4.0080   -0.2750    0.6600 C   0  0  2  0  0  0  0  0  0  0  0  0
    4.4630   -1.4890   -0.0100 O   0  0  0  0  0  0  0  0  0  0  0  0
    3.0380   -0.9880    1.5990 C   0  0  0  0  0  0  0  0  0  0  0  0
    3.5130   -2.1560    2.1800 O   0  0  0  0  0  0  0  0  0  0  0  0
  1  2  2  0
  2  3  1  0
  2  4  1  0
  4  5  2  0
  4 41  1  0
  5  6  1  0
  6  7  1  0
  6  8  2  0
  8  9  1  0
  9 10  1  0
 10 11  1  1
 10 12  1  0
 12 13  2  0
 12 14  1  0
 14 15  1  0
 15 16  2  0
 15 21  1  0
 16 17  1  0
 17 18  2  0
 18 19  1  0
 18 22  1  0
 19 20  1  0
 19 21  2  0
 22 23  1  0
 23 24  1  0
 24 25  1  0
 25 26  1  0
 26 27  2  0
 26 28  1  0
 28 29  1  0
 28 37  1  6
 29 30  1  0
 30 31  1  0
 31 32  1  0
 31 36  2  0
 32 33  2  0
 33 34  1  0
 33 38  1  0
 34 35  2  0
 35 36  1  0
 36 37  1  0
 38 39  1  6
 38 40  1  0
 40 41  1  0
M  END
