
     RDKit          3D

 41 44  0  0  0  0  0  0  0  0999 V2000
    6.1560   -1.9550   -2.4660 C   0  0  0  0  0  0  0  0  0  0  0  0
    6.8030   -0.6470   -2.3050 C   0  0  0  0  0  0  0  0  0  0  0  0
    8.1490   -0.6320   -2.4550 C   0  0  0  0  0  0  0  0  0  0  0  0
    8.7740   -1.8140   -2.7440 O   0  0  0  0  0  0  0  0  0  0  0  0
    6.1230    0.5850   -2.1350 C   0  0  0  0  0  0  0  0  0  0  0  0
    4.8220    0.8180   -1.9220 C   0  0  0  0  0  0  0  0  0  0  0  0
    4.4420    2.2400   -1.8100 C   0  0  0  0  0  0  0  0  0  0  0  0
    3.3740    2.7720   -1.2390 C   0  0  0  0  0  0  0  0  0  0  0  0
    2.2360    2.2080   -0.5480 C   0  0  0  0  0  0  0  0  0  0  0  0
    1.9220    1.4490    0.4560 C   0  0  0  0  0  0  0  0  0  0  0  0
    2.8870    0.8280    1.3510 O   0  0  0  0  0  0  0  0  0  0  0  0
    2.4680   -0.3280    1.9220 C   0  0  0  0  0  0  0  0  0  0  0  0
    1.0890   -0.5850    1.3600 C   0  0  0  0  0  0  0  0  0  0  0  0
    0.7280    0.9220    1.1080 C   0  0  1  0  0  0  0  0  0  0  0  0
    0.7700    1.4040    2.4740 O   0  0  0  0  0  0  0  0  0  0  0  0
   -0.6380    0.8860    0.6310 C   0  0  0  0  0  0  0  0  0  0  0  0
   -1.5460    1.4580    1.4990 C   0  0  0  0  0  0  0  0  0  0  0  0
   -2.9250    1.4860    1.3200 C   0  0  0  0  0  0  0  0  0  0  0  0
   -3.8020    2.0910    2.3290 C   0  0  0  0  0  0  0  0  0  0  0  0
   -4.3660    1.2060    3.3630 C   0  0  0  0  0  0  0  0  0  0  0  0
   -5.2780    0.1080    2.9990 C   0  0  2  0  0  0  0  0  0  0  0  0
   -6.5800    0.5450    2.3580 C   0  0  0  0  0  0  0  0  0  0  0  0
   -5.6050   -0.7010    4.2000 C   0  0  0  0  0  0  0  0  0  0  0  0
   -5.1570   -0.2820    5.3230 O   0  0  0  0  0  0  0  0  0  0  0  0
   -6.3440   -1.8520    4.1830 O   0  0  0  0  0  0  0  0  0  0  0  0
   -3.3850    0.8990    0.1980 C   0  0  0  0  0  0  0  0  0  0  0  0
   -2.4830    0.3120   -0.7010 C   0  0  0  0  0  0  0  0  0  0  0  0
   -1.1140    0.2840   -0.5290 C   0  0  0  0  0  0  0  0  0  0  0  0
   -0.3640   -0.3110   -1.4840 O   0  0  0  0  0  0  0  0  0  0  0  0
    0.3860   -0.0650   -2.6030 C   0  0  0  0  0  0  0  0  0  0  0  0
    1.5760   -0.9970   -2.7290 C   0  0  2  0  0  0  0  0  0  0  0  0
    1.1540   -2.3140   -2.1420 C   0  0  0  0  0  0  0  0  0  0  0  0
   -0.0740   -2.9430   -2.3450 N   0  0  0  0  0  0  0  0  0  0  0  0
    2.0130   -2.8810   -1.3990 O   0  0  0  0  0  0  0  0  0  0  0  0
    2.7770   -0.5170   -2.4440 O   0  0  0  0  0  0  0  0  0  0  0  0
    3.8540   -0.2920   -1.7250 C   0  0  0  0  0  0  0  0  0  0  0  0
    4.2780   -0.9990   -0.6980 O   0  0  0  0  0  0  0  0  0  0  0  0
   -3.1820   -0.2430   -1.8020 O   0  0  0  0  0  0  0  0  0  0  0  0
   -4.3830   -0.9640   -1.6810 C   0  0  0  0  0  0  0  0  0  0  0  0
   -5.3330   -0.2920   -0.7080 C   0  0  0  0  0  0  0  0  0  0  0  0
   -4.7220    0.8450   -0.1220 O   0  0  0  0  0  0  0  0  0  0  0  0
  1  2  1  0
  2  3  2  3
  2  5  1  0
  3  4  1  0
  5  6  2  3
  6  7  1  0
  6 36  1  0
  7  8  2  0
  8  9  1  0
  9 10  2  0
 10 11  1  0
 10 14  1  0
 11 12  1  0
 12 13  1  0
 13 14  1  0
 14 15  1  1
 14 16  1  0
 16 17  2  0
 16 28  1  0
 17 18  1  0
 18 19  1  0
 18 26  2  0
 19 20  1  0
 20 21  1  0
 21 22  1  1
 21 23  1  0
 23 24  2  0
 23 25  1  0
 26 27  1  0
 26 41  1  0
 27 28  2  0
 27 38  1  0
 28 29  1  0
 29 30  1  0
 30 31  1  0
 31 32  1  1
 31 35  1  0
 32 33  1  0
 32 34  2  0
 35 36  1  0
 36 37  2  0
 38 39  1  0
 39 40  1  0
 40 41  1  0
M  END
