
     RDKit          3D

 46 50  0  0  0  0  0  0  0  0999 V2000
   13.6990   -2.8680   -0.7350 C   0  0  0  0  0  0  0  0  0  0  0  0
   12.2920   -2.8310   -0.5300 O   0  0  0  0  0  0  0  0  0  0  0  0
   11.6130   -1.6760   -0.8960 C   0  0  0  0  0  0  0  0  0  0  0  0
   10.2550   -1.6370   -0.7000 C   0  0  0  0  0  0  0  0  0  0  0  0
    9.5520   -0.5140   -1.0500 C   0  0  0  0  0  0  0  0  0  0  0  0
    8.0950   -0.5240   -0.8200 C   0  0  0  0  0  0  0  0  0  0  0  0
    7.5710   -1.6180   -0.5230 O   0  0  0  0  0  0  0  0  0  0  0  0
    7.2750    0.6150   -0.9170 N   0  0  0  0  0  0  0  0  0  0  0  0
    5.8850    0.7070   -0.7150 C   0  0  0  0  0  0  0  0  0  0  0  0
    5.1180   -0.3050   -0.2260 C   0  0  0  0  0  0  0  0  0  0  0  0
    3.7280   -0.1450   -0.0610 C   0  0  0  0  0  0  0  0  0  0  0  0
    3.0840    1.0250   -0.3810 C   0  0  0  0  0  0  0  0  0  0  0  0
    1.7140    1.0950   -0.1860 O   0  0  0  0  0  0  0  0  0  0  0  0
    1.1780    1.5070    1.0330 C   0  0  0  0  0  0  0  0  0  0  0  0
    2.0350    1.8040    1.9260 O   0  0  0  0  0  0  0  0  0  0  0  0
   -0.2720    1.6000    1.2940 C   0  0  2  0  0  0  0  0  0  0  0  0
   -0.4690    2.0490    2.7270 C   0  0  0  0  0  0  0  0  0  0  0  0
   -1.0280   -0.0210    1.0420 S   0  0  0  0  0  0  0  0  0  0  0  0
   -2.8090    0.0200    1.3490 C   0  0  1  0  0  0  0  0  0  0  0  0
   -3.1260    0.2880    2.7750 C   0  0  0  0  0  0  0  0  0  0  0  0
   -3.0040   -0.5230    3.7280 O   0  0  0  0  0  0  0  0  0  0  0  0
   -3.5950    1.6330    2.8660 N   0  0  0  0  0  0  0  0  0  0  0  0
   -3.9890    2.2520    4.1120 C   0  0  0  0  0  0  0  0  0  0  0  0
   -3.5920    2.1990    1.5430 C   0  0  0  0  0  0  0  0  0  0  0  0
   -3.6570    3.4370    1.3490 O   0  0  0  0  0  0  0  0  0  0  0  0
   -3.5030    1.0870    0.5490 C   0  0  2  0  0  0  0  0  0  0  0  0
   -4.8980    0.6460    0.2310 C   0  0  0  0  0  0  0  0  0  0  0  0
   -5.9000    1.3210    0.6370 O   0  0  0  0  0  0  0  0  0  0  0  0
   -5.1840   -0.4920   -0.5040 O   0  0  0  0  0  0  0  0  0  0  0  0
   -6.5000   -0.8470   -0.7630 C   0  0  0  0  0  0  0  0  0  0  0  0
   -7.1640   -1.6810    0.1070 C   0  0  0  0  0  0  0  0  0  0  0  0
   -8.4790   -2.0400   -0.1470 C   0  0  0  0  0  0  0  0  0  0  0  0
   -9.1400   -1.5770   -1.2590 C   0  0  0  0  0  0  0  0  0  0  0  0
   -8.4750   -0.7290   -2.1510 C   0  0  0  0  0  0  0  0  0  0  0  0
   -7.1730   -0.3750   -1.8970 C   0  0  0  0  0  0  0  0  0  0  0  0
   -6.4150    0.4570   -2.7080 O   0  0  0  0  0  0  0  0  0  0  0  0
   -6.8810    1.0490   -3.8990 C   0  0  0  0  0  0  0  0  0  0  0  0
  -10.5100   -2.1160   -1.2580 C   0  0  0  0  0  0  0  0  0  0  0  0
  -10.4300   -3.3100   -0.3370 C   0  0  0  0  0  0  0  0  0  0  0  0
   -9.3630   -2.9130    0.6460 C   0  0  0  0  0  0  0  0  0  0  0  0
   -9.2400   -3.2380    1.8510 O   0  0  0  0  0  0  0  0  0  0  0  0
    3.8540    2.0450   -0.8730 C   0  0  0  0  0  0  0  0  0  0  0  0
    5.2090    1.8930   -1.0350 C   0  0  0  0  0  0  0  0  0  0  0  0
   10.2050    0.5580   -1.5900 C   0  0  0  0  0  0  0  0  0  0  0  0
   11.5760    0.4880   -1.7760 C   0  0  0  0  0  0  0  0  0  0  0  0
   12.2590   -0.6140   -1.4310 N   0  0  0  0  0  0  0  0  0  0  0  0
  1  2  1  0
  2  3  1  0
  3  4  2  0
  3 46  1  0
  4  5  1  0
  5  6  1  0
  5 44  2  0
  6  7  2  0
  6  8  1  0
  8  9  1  0
  9 10  2  0
  9 43  1  0
 10 11  1  0
 11 12  2  0
 12 13  1  0
 12 42  1  0
 13 14  1  0
 14 15  2  0
 14 16  1  0
 16 17  1  1
 16 18  1  0
 19 18  1  1
 19 20  1  0
 19 26  1  0
 20 21  2  0
 20 22  1  0
 22 23  1  0
 22 24  1  0
 24 25  2  0
 24 26  1  0
 26 27  1  1
 27 28  2  0
 27 29  1  0
 29 30  1  0
 30 31  2  0
 30 35  1  0
 31 32  1  0
 32 33  2  0
 32 40  1  0
 33 34  1  0
 33 38  1  0
 34 35  2  0
 35 36  1  0
 36 37  1  0
 38 39  1  0
 39 40  1  0
 40 41  2  0
 42 43  2  0
 44 45  1  0
 45 46  2  0
M  END
