
     RDKit          3D

 45 49  0  0  0  0  0  0  0  0999 V2000
    0.2350    7.3210   -0.1270 C   0  0  0  0  0  0  0  0  0  0  0  0
   -1.1020    6.7210    0.2080 C   0  0  0  0  0  0  0  0  0  0  0  0
   -1.0410    5.2070    0.2800 C   0  0  0  0  0  0  0  0  0  0  0  0
   -0.5300    4.6150   -1.3220 S   0  0  1  0  0  0  0  0  0  0  0  0
   -1.5920    5.0480   -2.3120 O   0  0  0  0  0  0  0  0  0  0  0  0
    0.7630    5.2590   -1.6620 O   0  0  0  0  0  0  0  0  0  0  0  0
   -0.4420    2.8860   -1.2860 N   0  0  0  0  0  0  0  0  0  0  0  0
    0.4560    2.2020   -0.4090 C   0  0  0  0  0  0  0  0  0  0  0  0
    1.4750    2.9000    0.2040 C   0  0  0  0  0  0  0  0  0  0  0  0
    2.3020    2.1660    1.0360 C   0  0  0  0  0  0  0  0  0  0  0  0
    2.1410    0.8180    1.2580 C   0  0  0  0  0  0  0  0  0  0  0  0
    3.0740    0.0690    2.1760 C   0  0  0  0  0  0  0  0  0  0  0  0
    4.1650   -0.4850    1.3540 C   0  0  0  0  0  0  0  0  0  0  0  0
    4.1820   -0.2930    0.1180 O   0  0  0  0  0  0  0  0  0  0  0  0
    5.2240   -1.2470    1.9130 N   0  0  0  0  0  0  0  0  0  0  0  0
    6.3010   -1.8050    1.1500 C   0  0  0  0  0  0  0  0  0  0  0  0
    7.2750   -2.5620    2.0280 C   0  0  0  0  0  0  0  0  0  0  0  0
    8.3310   -3.0960    1.1400 C   0  0  0  0  0  0  0  0  0  0  0  0
    8.1480   -4.1900    0.5270 O   0  0  0  0  0  0  0  0  0  0  0  0
    9.5820   -2.3840    0.9570 C   0  0  0  0  0  0  0  0  0  0  0  0
   10.5650   -2.9130    0.1160 C   0  0  0  0  0  0  0  0  0  0  0  0
   11.7550   -2.2830   -0.0920 C   0  0  0  0  0  0  0  0  0  0  0  0
   12.0180   -1.0790    0.5410 C   0  0  0  0  0  0  0  0  0  0  0  0
   11.0720   -0.5710    1.3490 N   0  0  0  0  0  0  0  0  0  0  0  0
    9.8830   -1.1960    1.5610 C   0  0  0  0  0  0  0  0  0  0  0  0
    1.1110    0.1680    0.6240 C   0  0  0  0  0  0  0  0  0  0  0  0
    0.2760    0.8680   -0.2070 C   0  0  0  0  0  0  0  0  0  0  0  0
   -0.7600    0.1380   -0.8250 O   0  0  0  0  0  0  0  0  0  0  0  0
   -2.0160    0.0150   -0.2630 C   0  0  0  0  0  0  0  0  0  0  0  0
   -2.2260    0.5820    0.8370 O   0  0  0  0  0  0  0  0  0  0  0  0
   -3.0920   -0.7580   -0.9240 C   0  0  0  0  0  0  0  0  0  0  0  0
   -4.3670   -0.9360   -0.4490 C   0  0  0  0  0  0  0  0  0  0  0  0
   -5.0480   -1.7180   -1.3660 C   0  0  0  0  0  0  0  0  0  0  0  0
   -4.1540   -1.9860   -2.3690 C   0  0  0  0  0  0  0  0  0  0  0  0
   -3.0290   -1.3990   -2.0530 O   0  0  0  0  0  0  0  0  0  0  0  0
   -4.8190   -2.8270   -3.3940 C   0  0  0  0  0  0  0  0  0  0  0  0
   -4.2210   -3.5590   -4.1980 O   0  0  0  0  0  0  0  0  0  0  0  0
   -6.2620   -2.5510   -3.1840 C   0  0  0  0  0  0  0  0  0  0  0  0
   -6.3310   -2.3840   -1.7090 C   0  0  2  0  0  0  0  0  0  0  0  0
   -7.5040   -1.5510   -1.2510 C   0  0  2  0  0  0  0  0  0  0  0  0
   -7.4330   -1.3810    0.2260 C   0  0  0  0  0  0  0  0  0  0  0  0
   -8.7490   -1.6400    0.9190 C   0  0  0  0  0  0  0  0  0  0  0  0
   -9.3620   -2.9230    0.4020 C   0  0  0  0  0  0  0  0  0  0  0  0
   -9.2940   -3.0330   -1.0760 C   0  0  0  0  0  0  0  0  0  0  0  0
   -8.7090   -1.9970   -1.7320 O   0  0  0  0  0  0  0  0  0  0  0  0
  1  2  1  0
  2  3  1  0
  4  3  1  1
  4  5  2  0
  4  6  2  0
  4  7  1  0
  7  8  1  0
  8  9  2  0
  8 27  1  0
  9 10  1  0
 10 11  2  0
 11 12  1  0
 11 26  1  0
 12 13  1  0
 13 14  2  0
 13 15  1  0
 15 16  1  0
 16 17  1  0
 17 18  1  0
 18 19  2  0
 18 20  1  0
 20 21  2  0
 20 25  1  0
 21 22  1  0
 22 23  2  0
 23 24  1  0
 24 25  2  0
 26 27  2  0
 27 28  1  0
 28 29  1  0
 29 30  2  0
 29 31  1  0
 31 32  2  0
 31 35  1  0
 32 33  1  0
 33 34  2  0
 33 39  1  0
 34 35  1  0
 34 36  1  0
 36 37  2  0
 36 38  1  0
 39 38  1  6
 39 40  1  0
 40 41  1  1
 40 45  1  0
 41 42  1  0
 42 43  1  0
 43 44  1  0
 44 45  1  0
M  END
