
     RDKit          3D

 46 50  0  0  0  0  0  0  0  0999 V2000
    0.3710    4.1530   -0.0630 C   0  0  0  0  0  0  0  0  0  0  0  0
    0.0500    2.7470   -0.0620 N   0  0  0  0  0  0  0  0  0  0  0  0
   -0.1660    2.1680    1.2190 C   0  0  2  0  0  0  0  0  0  0  0  0
   -0.9520    2.9510    2.2020 C   0  0  0  0  0  0  0  0  0  0  0  0
   -2.3560    3.2850    1.8330 C   0  0  0  0  0  0  0  0  0  0  0  0
   -3.2130    2.0930    1.6220 C   0  0  0  0  0  0  0  0  0  0  0  0
   -3.8640    1.4680    2.6850 C   0  0  0  0  0  0  0  0  0  0  0  0
   -4.6680    0.3770    2.5370 C   0  0  0  0  0  0  0  0  0  0  0  0
   -4.8750   -0.1700    1.2860 C   0  0  0  0  0  0  0  0  0  0  0  0
   -5.7620   -1.3790    1.0820 C   0  0  2  0  0  0  0  0  0  0  0  0
   -5.0030   -2.2350    0.3900 O   0  0  0  0  0  0  0  0  0  0  0  0
   -7.0540   -0.9540    0.6630 C   0  0  0  0  0  0  0  0  0  0  0  0
   -7.5680    0.1800    1.3310 C   0  0  0  0  0  0  0  0  0  0  0  0
   -8.8060    0.7030    1.0580 C   0  0  0  0  0  0  0  0  0  0  0  0
   -9.6070    0.1270    0.1040 C   0  0  0  0  0  0  0  0  0  0  0  0
   -9.0950   -0.9770   -0.5390 C   0  0  0  0  0  0  0  0  0  0  0  0
   -7.8330   -1.5330   -0.2810 C   0  0  0  0  0  0  0  0  0  0  0  0
   -7.3350   -2.7020   -1.0230 C   0  0  1  0  0  0  0  0  0  0  0  0
   -8.5180   -3.0930   -1.9630 C   0  0  0  0  0  0  0  0  0  0  0  0
   -6.2500   -2.3770   -2.0380 C   0  0  0  0  0  0  0  0  0  0  0  0
   -7.1020   -3.9390   -0.2280 C   0  0  0  0  0  0  0  0  0  0  0  0
   -4.2500    0.4200    0.2180 C   0  0  0  0  0  0  0  0  0  0  0  0
   -3.4300    1.5380    0.3860 C   0  0  0  0  0  0  0  0  0  0  0  0
    1.0890    1.6130    1.8770 C   0  0  1  0  0  0  0  0  0  0  0  0
    1.6290    0.5540    0.9890 C   0  0  0  0  0  0  0  0  0  0  0  0
    2.9230    0.7840    0.4130 N   0  0  0  0  0  0  0  0  0  0  0  0
    3.7010    1.7660    0.6610 C   0  0  0  0  0  0  0  0  0  0  0  0
    4.9570    1.8510    0.0030 N   0  0  0  0  0  0  0  0  0  0  0  0
    5.6800    0.7020   -0.4570 C   0  0  0  0  0  0  0  0  0  0  0  0
    6.1340   -0.2160    0.6190 C   0  0  0  0  0  0  0  0  0  0  0  0
    5.8350    0.0840    1.9180 C   0  0  0  0  0  0  0  0  0  0  0  0
    6.2530   -0.7770    2.9210 C   0  0  0  0  0  0  0  0  0  0  0  0
    6.9550   -1.8990    2.5490 C   0  0  0  0  0  0  0  0  0  0  0  0
    7.2300   -2.1620    1.2820 N   0  0  0  0  0  0  0  0  0  0  0  0
    6.8430   -1.3450    0.2320 C   0  0  0  0  0  0  0  0  0  0  0  0
    7.2000   -1.7520   -0.9710 O   0  0  0  0  0  0  0  0  0  0  0  0
    7.1810   -1.5000   -2.2830 C   0  0  2  0  0  0  0  0  0  0  0  0
    6.4720   -2.6260   -3.0270 C   0  0  0  0  0  0  0  0  0  0  0  0
    7.4980   -3.4760   -3.6920 C   0  0  0  0  0  0  0  0  0  0  0  0
    8.8280   -2.9760   -3.2210 C   0  0  0  0  0  0  0  0  0  0  0  0
    8.5750   -1.5190   -2.9330 C   0  0  2  0  0  0  0  0  0  0  0  0
    9.5540   -1.0260   -2.1050 O   0  0  0  0  0  0  0  0  0  0  0  0
    3.2830    2.7610    1.6200 N   0  0  0  0  0  0  0  0  0  0  0  0
    4.1940    3.8710    1.8800 C   0  0  0  0  0  0  0  0  0  0  0  0
    2.0320    2.6490    2.2770 C   0  0  0  0  0  0  0  0  0  0  0  0
    1.7680    3.4530    3.1950 O   0  0  0  0  0  0  0  0  0  0  0  0
  1  2  1  0
  2  3  1  0
  3  4  1  1
  3 24  1  0
  4  5  1  0
  5  6  1  0
  6  7  2  0
  6 23  1  0
  7  8  1  0
  8  9  2  0
  9 10  1  0
  9 22  1  0
 10 11  1  6
 10 12  1  0
 12 13  2  0
 12 17  1  0
 13 14  1  0
 14 15  2  0
 15 16  1  0
 16 17  2  0
 17 18  1  0
 18 19  1  6
 18 20  1  0
 18 21  1  0
 22 23  2  0
 24 25  1  6
 24 45  1  0
 25 26  1  0
 26 27  2  0
 27 28  1  0
 27 43  1  0
 28 29  1  0
 29 30  1  0
 30 31  2  0
 30 35  1  0
 31 32  1  0
 32 33  2  0
 33 34  1  0
 34 35  2  0
 35 36  1  0
 37 36  1  1
 37 38  1  0
 37 41  1  0
 38 39  1  0
 39 40  1  0
 40 41  1  0
 41 42  1  1
 43 44  1  0
 43 45  1  0
 45 46  2  0
M  CHG  2   2   1  26   1
M  END
