
     RDKit          3D

 46 50  0  0  0  0  0  0  0  0999 V2000
   -6.6670    6.7430    1.4970 C   0  0  0  0  0  0  0  0  0  0  0  0
   -6.5130    6.1420    0.2260 O   0  0  0  0  0  0  0  0  0  0  0  0
   -5.8370    4.9400    0.1550 C   0  0  0  0  0  0  0  0  0  0  0  0
   -5.3950    4.4410    1.2160 O   0  0  0  0  0  0  0  0  0  0  0  0
   -5.6340    4.2530   -1.1200 C   0  0  0  0  0  0  0  0  0  0  0  0
   -4.8870    2.9790   -0.9790 C   0  0  0  0  0  0  0  0  0  0  0  0
   -3.5130    3.0160   -1.0740 C   0  0  0  0  0  0  0  0  0  0  0  0
   -2.7610    1.8570   -0.9510 C   0  0  0  0  0  0  0  0  0  0  0  0
   -3.4000    0.6490   -0.7310 C   0  0  0  0  0  0  0  0  0  0  0  0
   -2.6220   -0.4840   -0.6150 O   0  0  0  0  0  0  0  0  0  0  0  0
   -1.2090   -0.5230   -0.7070 C   0  0  0  0  0  0  0  0  0  0  0  0
   -0.5860    0.2490    0.2330 O   0  0  0  0  0  0  0  0  0  0  0  0
    0.7660    0.2030    0.1480 C   0  0  0  0  0  0  0  0  0  0  0  0
    1.4050    0.7090   -1.0710 C   0  0  0  0  0  0  0  0  0  0  0  0
    0.7400    1.2180   -1.9920 O   0  0  0  0  0  0  0  0  0  0  0  0
    2.8050    0.6180   -1.2060 N   0  0  0  0  0  0  0  0  0  0  0  0
    3.5920    1.0640   -2.3280 C   0  0  0  0  0  0  0  0  0  0  0  0
    4.9040    1.5120   -1.7220 C   0  0  0  0  0  0  0  0  0  0  0  0
    4.8520    1.0590   -0.2700 C   0  0  2  0  0  0  0  0  0  0  0  0
    6.0960    0.2970    0.0760 C   0  0  0  0  0  0  0  0  0  0  0  0
    5.9700   -0.7800    0.6960 O   0  0  0  0  0  0  0  0  0  0  0  0
    7.3300    0.8290   -0.3160 N   0  0  0  0  0  0  0  0  0  0  0  0
    8.4800    0.1650   -0.0360 C   0  0  0  0  0  0  0  0  0  0  0  0
    8.7820   -0.8740    0.8960 C   0  0  0  0  0  0  0  0  0  0  0  0
   10.1430   -1.3590    0.9390 C   0  0  0  0  0  0  0  0  0  0  0  0
   10.6830   -2.3800    1.7820 C   0  0  0  0  0  0  0  0  0  0  0  0
   11.0670   -0.8140    0.1000 C   0  0  0  0  0  0  0  0  0  0  0  0
   10.3790   -0.0270   -0.4570 N   0  0  0  0  0  0  0  0  0  0  0  0
    9.4850    0.6410   -0.8290 C   0  0  0  0  0  0  0  0  0  0  0  0
   10.2670    1.2840   -1.7170 O   0  0  0  0  0  0  0  0  0  0  0  0
   11.7030    0.7650   -1.6540 C   0  0  0  0  0  0  0  0  0  0  0  0
   12.2110   -0.3960   -0.6840 C   0  0  0  0  0  0  0  0  0  0  0  0
    3.7230    0.0640   -0.2540 C   0  0  0  0  0  0  0  0  0  0  0  0
   -4.7760    0.5870   -0.6320 C   0  0  0  0  0  0  0  0  0  0  0  0
   -5.4510   -0.5980   -0.4120 O   0  0  0  0  0  0  0  0  0  0  0  0
   -5.7480   -1.0420    0.8660 C   0  0  0  0  0  0  0  0  0  0  0  0
   -5.3660   -0.3040    1.8170 O   0  0  0  0  0  0  0  0  0  0  0  0
   -6.4340   -2.2470    1.0260 N   0  0  0  0  0  0  0  0  0  0  0  0
   -6.7560   -2.7310    2.3370 C   0  0  0  0  0  0  0  0  0  0  0  0
   -7.2440   -4.1400    2.3580 C   0  0  1  0  0  0  0  0  0  0  0  0
   -8.1640   -4.2860    3.5780 C   0  0  0  0  0  0  0  0  0  0  0  0
   -7.9480   -4.5610    1.2680 O   0  0  0  0  0  0  0  0  0  0  0  0
   -8.1880   -3.6320    0.2910 C   0  0  2  0  0  0  0  0  0  0  0  0
   -8.8480   -4.2850   -0.8960 C   0  0  0  0  0  0  0  0  0  0  0  0
   -6.8330   -3.0260   -0.1060 C   0  0  0  0  0  0  0  0  0  0  0  0
   -5.4970    1.7530   -0.7580 C   0  0  0  0  0  0  0  0  0  0  0  0
  1  2  1  0
  2  3  1  0
  3  4  2  0
  3  5  1  0
  5  6  1  0
  6  7  2  0
  6 46  1  0
  7  8  1  0
  8  9  2  0
  9 10  1  0
  9 34  1  0
 10 11  1  0
 11 12  1  0
 12 13  1  0
 13 14  1  0
 14 15  2  0
 14 16  1  0
 16 17  1  0
 16 33  1  0
 17 18  1  0
 18 19  1  0
 19 20  1  6
 19 33  1  0
 20 21  2  0
 20 22  1  0
 22 23  1  0
 23 24  2  0
 23 29  1  0
 24 25  1  0
 25 26  1  0
 25 27  2  0
 27 28  1  0
 27 32  1  0
 28 29  2  0
 29 30  1  0
 30 31  1  0
 31 32  1  0
 34 35  1  0
 34 46  2  0
 35 36  1  0
 36 37  2  0
 36 38  1  0
 38 39  1  0
 38 45  1  0
 39 40  1  0
 40 41  1  1
 40 42  1  0
 42 43  1  0
 43 44  1  6
 43 45  1  0
M  END
