
     RDKit          3D

 46 50  0  0  0  0  0  0  0  0999 V2000
    4.9340    1.3490   -3.2910 C   0  0  0  0  0  0  0  0  0  0  0  0
    5.2700    1.9780   -2.2940 C   0  0  0  0  0  0  0  0  0  0  0  0
    5.6750    2.7390   -1.1290 C   0  0  0  0  0  0  0  0  0  0  0  0
    4.8610    2.4210    0.0860 C   0  0  0  0  0  0  0  0  0  0  0  0
    4.9840    1.0040    0.4990 N   0  0  1  0  0  0  0  0  0  0  0  0
    6.0510    0.9010    1.4670 C   0  0  0  0  0  0  0  0  0  0  0  0
    7.4070    0.8070    0.8260 C   0  0  0  0  0  0  0  0  0  0  0  0
    8.4170    1.6680    1.1520 C   0  0  0  0  0  0  0  0  0  0  0  0
    9.6430    1.5510    0.5420 C   0  0  0  0  0  0  0  0  0  0  0  0
    9.8660    0.5690   -0.4010 C   0  0  0  0  0  0  0  0  0  0  0  0
    8.8490   -0.3030   -0.7340 C   0  0  0  0  0  0  0  0  0  0  0  0
    7.6280   -0.1690   -0.1100 C   0  0  0  0  0  0  0  0  0  0  0  0
    3.7350    0.6140    1.0550 C   0  0  2  0  0  0  0  0  0  0  0  0
    3.8690   -0.2620    2.2800 C   0  0  0  0  0  0  0  0  0  0  0  0
    4.3120   -1.6810    1.9680 C   0  0  0  0  0  0  0  0  0  0  0  0
    3.1380   -2.2420    1.1800 C   0  0  0  0  0  0  0  0  0  0  0  0
    2.6990   -3.3680    1.4870 O   0  0  0  0  0  0  0  0  0  0  0  0
    2.6360   -1.4020    0.1410 N   0  0  0  0  0  0  0  0  0  0  0  0
    2.7380    0.0030    0.1330 C   0  0  1  0  0  0  0  0  0  0  0  0
    1.4580    0.8200    0.0090 C   0  0  0  0  0  0  0  0  0  0  0  0
    0.4250    0.0570   -0.7960 C   0  0  0  0  0  0  0  0  0  0  0  0
   -0.2710   -1.0350    0.0040 C   0  0  0  0  0  0  0  0  0  0  0  0
   -1.3970   -0.5100    0.8660 C   0  0  1  0  0  0  0  0  0  0  0  0
   -1.1120    0.5770    1.8200 C   0  0  0  0  0  0  0  0  0  0  0  0
   -2.5860   -0.3900    0.1180 O   0  0  0  0  0  0  0  0  0  0  0  0
   -3.7360   -1.0740    0.3970 C   0  0  0  0  0  0  0  0  0  0  0  0
   -3.6420   -1.8200    1.4570 O   0  0  0  0  0  0  0  0  0  0  0  0
   -4.9950   -1.0690   -0.3270 C   0  0  0  0  0  0  0  0  0  0  0  0
   -6.0540   -0.2460   -0.1510 C   0  0  0  0  0  0  0  0  0  0  0  0
   -6.0610    0.8980    0.7030 C   0  0  0  0  0  0  0  0  0  0  0  0
   -5.2650    1.9120    0.6860 C   0  0  0  0  0  0  0  0  0  0  0  0
   -5.4960    2.9950    1.7180 C   0  0  0  0  0  0  0  0  0  0  0  0
   -4.2210    3.4440    2.2000 N   0  0  0  0  0  0  0  0  0  0  0  0
   -3.4620    4.1070    1.1530 C   0  0  0  0  0  0  0  0  0  0  0  0
   -3.1830    3.1240    0.1140 N   0  0  0  0  0  0  0  0  0  0  0  0
   -4.2090    2.1930   -0.2620 C   0  0  0  0  0  0  0  0  0  0  0  0
   -4.2320    1.6100   -1.3830 O   0  0  0  0  0  0  0  0  0  0  0  0
   -7.2390   -0.4740   -0.8650 N   0  0  0  0  0  0  0  0  0  0  0  0
   -7.3730   -1.4710   -1.7180 C   0  0  0  0  0  0  0  0  0  0  0  0
   -8.6530   -1.7380   -2.4730 C   0  0  0  0  0  0  0  0  0  0  0  0
   -6.3200   -2.3430   -1.9410 C   0  0  0  0  0  0  0  0  0  0  0  0
   -5.1540   -2.1300   -1.2460 C   0  0  0  0  0  0  0  0  0  0  0  0
   -4.1710   -3.1850   -1.6490 C   0  0  0  0  0  0  0  0  0  0  0  0
   -5.0750   -4.3050   -2.0980 C   0  0  1  0  0  0  0  0  0  0  0  0
   -5.6680   -4.9430   -0.8720 C   0  0  0  0  0  0  0  0  0  0  0  0
   -6.1840   -3.5340   -2.8210 C   0  0  0  0  0  0  0  0  0  0  0  0
  1  2  3  0
  2  3  1  0
  3  4  1  0
  5  4  1  1
  5  6  1  0
  5 13  1  0
  6  7  1  0
  7  8  2  0
  7 12  1  0
  8  9  1  0
  9 10  2  0
 10 11  1  0
 11 12  2  0
 13 14  1  1
 13 19  1  0
 14 15  1  0
 15 16  1  0
 16 17  2  0
 16 18  1  0
 18 19  1  0
 19 20  1  1
 20 21  1  0
 21 22  1  0
 22 23  1  0
 23 24  1  6
 23 25  1  0
 25 26  1  0
 26 27  2  0
 26 28  1  0
 28 29  1  0
 28 42  2  0
 29 30  1  0
 29 38  2  0
 30 31  2  3
 31 32  1  0
 31 36  1  0
 32 33  1  0
 33 34  1  0
 34 35  1  0
 35 36  1  0
 36 37  2  0
 38 39  1  0
 39 40  1  0
 39 41  2  0
 41 42  1  0
 41 46  1  0
 42 43  1  0
 43 44  1  0
 44 45  1  1
 44 46  1  0
M  CHG  2   5   1  33   1
M  END
