
     RDKit          3D

 37 40  0  0  0  0  0  0  0  0999 V2000
   -4.6070   -1.3320   -3.1540 C   0  0  0  0  0  0  0  0  0  0  0  0
   -4.0850   -0.1950   -3.8550 N   0  0  0  0  0  0  0  0  0  0  0  0
   -4.5450    1.0680   -3.3630 C   0  0  1  0  0  0  0  0  0  0  0  0
   -6.0430    1.1090   -3.3390 C   0  0  0  0  0  0  0  0  0  0  0  0
   -3.8950    1.3650   -2.0720 C   0  0  0  0  0  0  0  0  0  0  0  0
   -4.2140    2.4430   -1.5060 O   0  0  0  0  0  0  0  0  0  0  0  0
   -2.9550    0.5400   -1.4350 N   0  0  0  0  0  0  0  0  0  0  0  0
   -2.3330    0.9310   -0.0970 C   0  0  2  0  0  0  0  0  0  0  0  0
   -0.9160    1.1780   -0.3720 C   0  0  0  0  0  0  0  0  0  0  0  0
   -0.4890    0.8860   -1.5750 O   0  0  0  0  0  0  0  0  0  0  0  0
    0.1220    1.6940    0.4250 N   0  0  0  0  0  0  0  0  0  0  0  0
   -0.1340    2.0810    1.8350 C   0  0  0  0  0  0  0  0  0  0  0  0
    1.0770    2.9390    2.2180 C   0  0  0  0  0  0  0  0  0  0  0  0
    2.1630    2.1370    1.5010 C   0  0  2  0  0  0  0  0  0  0  0  0
    3.4170    2.9450    1.3790 C   0  0  0  0  0  0  0  0  0  0  0  0
    1.4910    1.9840    0.1530 C   0  0  1  0  0  0  0  0  0  0  0  0
    2.2390    1.1470   -0.7870 C   0  0  0  0  0  0  0  0  0  0  0  0
    1.8870    1.0760   -1.9770 O   0  0  0  0  0  0  0  0  0  0  0  0
    3.3900    0.3940   -0.3490 N   0  0  0  0  0  0  0  0  0  0  0  0
    4.1960   -0.4280   -1.1510 C   0  0  0  0  0  0  0  0  0  0  0  0
    4.1730   -0.4000   -2.5320 C   0  0  0  0  0  0  0  0  0  0  0  0
    5.0390   -1.1810   -3.3080 C   0  0  0  0  0  0  0  0  0  0  0  0
    5.9460   -2.0040   -2.7190 C   0  0  0  0  0  0  0  0  0  0  0  0
    5.9880   -2.0500   -1.3540 C   0  0  0  0  0  0  0  0  0  0  0  0
    5.1220   -1.2710   -0.5570 C   0  0  0  0  0  0  0  0  0  0  0  0
    5.2610   -1.4290    0.8850 C   0  0  0  0  0  0  0  0  0  0  0  0
    6.3300   -2.1600    1.3370 N   0  0  0  0  0  0  0  0  0  0  0  0
    6.5510   -2.4110    2.6330 C   0  0  0  0  0  0  0  0  0  0  0  0
    5.6790   -1.9270    3.6100 C   0  0  0  0  0  0  0  0  0  0  0  0
    4.6120   -1.1960    3.1460 C   0  0  0  0  0  0  0  0  0  0  0  0
    4.4490   -0.9800    1.8260 N   0  0  0  0  0  0  0  0  0  0  0  0
   -2.7250   -0.1240    0.8550 C   0  0  1  0  0  0  0  0  0  0  0  0
   -2.2140   -1.5170    0.5620 C   0  0  0  0  0  0  0  0  0  0  0  0
   -2.8010   -2.4210    1.6360 C   0  0  0  0  0  0  0  0  0  0  0  0
   -4.0620   -1.8830    2.2400 C   0  0  0  0  0  0  0  0  0  0  0  0
   -3.8470   -0.6120    3.0190 C   0  0  0  0  0  0  0  0  0  0  0  0
   -2.6870    0.1150    2.3140 C   0  0  0  0  0  0  0  0  0  0  0  0
  1  2  1  0
  2  3  1  0
  3  4  1  1
  3  5  1  0
  5  6  2  0
  5  7  1  0
  8  7  1  6
  8  9  1  0
  8 32  1  0
  9 10  2  0
  9 11  1  0
 11 12  1  0
 11 16  1  0
 12 13  1  0
 13 14  1  0
 14 15  1  6
 14 16  1  0
 16 17  1  1
 17 18  2  0
 17 19  1  0
 19 20  1  0
 20 21  2  0
 20 25  1  0
 21 22  1  0
 22 23  2  0
 23 24  1  0
 24 25  2  0
 25 26  1  0
 26 27  2  0
 26 31  1  0
 27 28  1  0
 28 29  2  0
 29 30  1  0
 30 31  2  0
 32 33  1  1
 32 37  1  0
 33 34  1  0
 34 35  1  0
 35 36  1  0
 36 37  1  0
M  CHG  1   2   1
M  END
