
     RDKit          3D

 45 48  0  0  0  0  0  0  0  0999 V2000
   -3.1220    7.0180   -1.9520 C   0  0  0  0  0  0  0  0  0  0  0  0
   -2.3400    5.7740   -1.7230 C   0  0  0  0  0  0  0  0  0  0  0  0
   -1.3710    5.2810   -2.5770 C   0  0  0  0  0  0  0  0  0  0  0  0
   -0.9210    4.1250   -1.9780 C   0  0  0  0  0  0  0  0  0  0  0  0
   -1.5820    3.9050   -0.7990 C   0  0  0  0  0  0  0  0  0  0  0  0
   -1.4010    2.7900    0.1270 C   0  0  0  0  0  0  0  0  0  0  0  0
   -2.0770    2.6950    1.1840 O   0  0  0  0  0  0  0  0  0  0  0  0
   -0.4920    1.8030   -0.1110 O   0  0  0  0  0  0  0  0  0  0  0  0
   -0.2450    0.6940    0.7000 C   0  0  1  0  0  0  0  0  0  0  0  0
   -0.5660   -0.5880    0.0660 C   0  0  0  0  0  0  0  0  0  0  0  0
   -1.0270   -0.7050   -1.1050 O   0  0  0  0  0  0  0  0  0  0  0  0
   -0.3720   -1.7780    0.7470 O   0  0  0  0  0  0  0  0  0  0  0  0
   -0.6910   -3.0370    0.1280 C   0  0  0  0  0  0  0  0  0  0  0  0
   -2.1220   -3.0620   -0.1830 C   0  0  0  0  0  0  0  0  0  0  0  0
   -2.8380   -2.0730    0.1730 O   0  0  0  0  0  0  0  0  0  0  0  0
   -2.7210   -4.1710   -0.8750 N   0  0  0  0  0  0  0  0  0  0  0  0
   -1.9850   -5.3290   -1.3190 C   0  0  0  0  0  0  0  0  0  0  0  0
   -2.9950   -6.3630   -1.7420 C   0  0  0  0  0  0  0  0  0  0  0  0
   -4.3360   -5.8410   -1.2430 C   0  0  0  0  0  0  0  0  0  0  0  0
   -4.0940   -4.3410   -1.2470 C   0  0  1  0  0  0  0  0  0  0  0  0
   -5.0460   -3.6170   -0.3100 C   0  0  0  0  0  0  0  0  0  0  0  0
    1.0760    0.6200    1.3260 C   0  0  0  0  0  0  0  0  0  0  0  0
    1.2230   -0.3790    2.1180 O   0  0  0  0  0  0  0  0  0  0  0  0
    2.1580    1.4830    1.1660 N   0  0  0  0  0  0  0  0  0  0  0  0
    2.0770    2.6090    0.2550 C   0  0  0  0  0  0  0  0  0  0  0  0
    3.3660    1.3040    1.9070 C   0  0  0  0  0  0  0  0  0  0  0  0
    4.3480    0.3680    1.1510 C   0  0  0  0  0  0  0  0  0  0  0  0
    3.9200   -0.0890    0.0250 C   0  0  0  0  0  0  0  0  0  0  0  0
    4.5460   -0.9820   -0.9550 C   0  0  0  0  0  0  0  0  0  0  0  0
    3.6970   -2.2120   -1.2380 C   0  0  0  0  0  0  0  0  0  0  0  0
    4.3890   -2.9860   -2.1640 O   0  0  0  0  0  0  0  0  0  0  0  0
    5.8660    0.1770    1.9770 S   0  0  0  0  0  0  0  0  0  0  0  0
    7.0320   -1.0320    1.5140 C   0  0  0  0  0  0  0  0  0  0  0  0
    6.5640   -2.4060    1.8860 C   0  0  0  0  0  0  0  0  0  0  0  0
    7.1710   -3.2820    2.6960 C   0  0  0  0  0  0  0  0  0  0  0  0
    6.3960   -4.4290    2.7620 O   0  0  0  0  0  0  0  0  0  0  0  0
    5.2580   -4.2650    1.9500 C   0  0  0  0  0  0  0  0  0  0  0  0
    5.3940   -2.9690    1.4190 O   0  0  0  0  0  0  0  0  0  0  0  0
   -2.4570    4.9440   -0.6640 N   0  0  0  0  0  0  0  0  0  0  0  0
   -3.3430    5.1320    0.4080 C   0  0  0  0  0  0  0  0  0  0  0  0
   -2.8630    5.3530    1.6710 C   0  0  0  0  0  0  0  0  0  0  0  0
   -3.7340    5.5420    2.7550 C   0  0  0  0  0  0  0  0  0  0  0  0
   -5.1010    5.5020    2.5410 C   0  0  0  0  0  0  0  0  0  0  0  0
   -5.5850    5.2820    1.2810 C   0  0  0  0  0  0  0  0  0  0  0  0
   -4.6960    5.0960    0.2130 C   0  0  0  0  0  0  0  0  0  0  0  0
  1  2  1  0
  2  3  2  0
  2 39  1  0
  3  4  1  0
  4  5  2  0
  5  6  1  0
  5 39  1  0
  6  7  2  0
  6  8  1  0
  9  8  1  6
  9 10  1  0
  9 22  1  0
 10 11  2  0
 10 12  1  0
 12 13  1  0
 13 14  1  0
 14 15  2  0
 14 16  1  0
 16 17  1  0
 16 20  1  0
 17 18  1  0
 18 19  1  0
 19 20  1  0
 20 21  1  1
 22 23  2  0
 22 24  1  0
 24 25  1  0
 24 26  1  0
 26 27  1  0
 27 28  2  3
 27 32  1  0
 28 29  1  0
 29 30  1  0
 30 31  1  0
 32 33  1  0
 33 34  1  0
 34 35  2  0
 34 38  1  0
 35 36  1  0
 36 37  1  0
 37 38  1  0
 39 40  1  0
 40 41  2  0
 40 45  1  0
 41 42  1  0
 42 43  2  0
 43 44  1  0
 44 45  2  0
M  END
