
     RDKit          3D

 45 48  0  0  0  0  0  0  0  0999 V2000
   -8.5740    1.3260    3.1710 C   0  0  0  0  0  0  0  0  0  0  0  0
   -7.8930    2.5820    2.7010 C   0  0  0  0  0  0  0  0  0  0  0  0
   -6.5930    2.3780    2.1090 N   0  0  0  0  0  0  0  0  0  0  0  0
   -6.6730    1.6460    0.8360 C   0  0  2  0  0  0  0  0  0  0  0  0
   -5.7670    0.4770    0.8650 C   0  0  0  0  0  0  0  0  0  0  0  0
   -4.6130    0.6430   -0.1090 C   0  0  0  0  0  0  0  0  0  0  0  0
   -4.9530    1.2670   -1.3180 C   0  0  0  0  0  0  0  0  0  0  0  0
   -3.4040    1.3200   -2.2580 S   0  0  0  0  0  0  0  0  0  0  0  0
   -2.4550    0.5290   -0.9610 C   0  0  0  0  0  0  0  0  0  0  0  0
   -1.0390    0.2890   -1.0420 N   0  0  0  0  0  0  0  0  0  0  0  0
   -0.3320    0.6420    0.1390 C   0  0  0  0  0  0  0  0  0  0  0  0
   -1.0170    1.1790    1.1000 O   0  0  0  0  0  0  0  0  0  0  0  0
    1.0760    0.4700    0.4040 C   0  0  0  0  0  0  0  0  0  0  0  0
    1.6110    1.0660    1.5530 C   0  0  0  0  0  0  0  0  0  0  0  0
    2.9170    0.9240    1.9480 C   0  0  0  0  0  0  0  0  0  0  0  0
    3.7460    0.1590    1.1790 C   0  0  0  0  0  0  0  0  0  0  0  0
    5.0760   -0.0390    1.5070 O   0  0  0  0  0  0  0  0  0  0  0  0
    5.6960    0.5060    2.6290 C   0  0  0  0  0  0  0  0  0  0  0  0
    3.2460   -0.4530    0.0160 C   0  0  0  0  0  0  0  0  0  0  0  0
    4.1620   -1.2040   -0.6830 O   0  0  0  0  0  0  0  0  0  0  0  0
    5.3570   -0.8370   -1.1980 C   0  0  0  0  0  0  0  0  0  0  0  0
    5.6760    0.4000   -1.0000 O   0  0  0  0  0  0  0  0  0  0  0  0
    6.2810   -1.6690   -1.9200 C   0  0  0  0  0  0  0  0  0  0  0  0
    5.8400   -2.8740   -2.1220 O   0  0  0  0  0  0  0  0  0  0  0  0
    7.5390   -1.3820   -2.4220 N   0  0  0  0  0  0  0  0  0  0  0  0
    8.2870   -2.3870   -3.1650 C   0  0  0  0  0  0  0  0  0  0  0  0
    9.7490   -1.9950   -3.0660 C   0  0  0  0  0  0  0  0  0  0  0  0
   10.0950   -1.5390   -1.8130 O   0  0  0  0  0  0  0  0  0  0  0  0
    9.4180   -0.4280   -1.3690 C   0  0  1  0  0  0  0  0  0  0  0  0
   10.2110    0.6760   -1.1450 O   0  0  0  0  0  0  0  0  0  0  0  0
   10.1890    1.0350    0.1820 C   0  0  0  0  0  0  0  0  0  0  0  0
    8.2080   -0.1310   -2.2530 C   0  0  0  0  0  0  0  0  0  0  0  0
    1.9460   -0.2830   -0.3350 C   0  0  0  0  0  0  0  0  0  0  0  0
   -3.3190    0.2630    0.0520 C   0  0  0  0  0  0  0  0  0  0  0  0
   -2.8840   -0.7250    1.1180 C   0  0  0  0  0  0  0  0  0  0  0  0
   -3.6290   -0.8720    2.1110 O   0  0  0  0  0  0  0  0  0  0  0  0
   -1.7570   -1.4690    1.0460 O   0  0  0  0  0  0  0  0  0  0  0  0
   -1.2780   -2.4030    1.9650 C   0  0  2  0  0  0  0  0  0  0  0  0
    0.2130   -2.3770    2.0280 C   0  0  0  0  0  0  0  0  0  0  0  0
   -1.6210   -3.8370    1.4390 C   0  0  0  0  0  0  0  0  0  0  0  0
   -6.2980    1.7750   -1.5580 C   0  0  1  0  0  0  0  0  0  0  0  0
   -7.2160    0.7600   -1.6900 O   0  0  0  0  0  0  0  0  0  0  0  0
   -8.0240    1.0540   -2.8210 C   0  0  0  0  0  0  0  0  0  0  0  0
   -9.0720    0.0180   -3.0230 C   0  0  0  0  0  0  0  0  0  0  0  0
   -6.5950    2.6080   -0.2700 C   0  0  0  0  0  0  0  0  0  0  0  0
  1  2  1  0
  2  3  1  0
  4  3  1  1
  4  5  1  0
  4 45  1  0
  5  6  1  0
  6  7  2  0
  6 34  1  0
  7  8  1  0
  7 41  1  0
  8  9  1  0
  9 10  1  0
  9 34  2  0
 10 11  1  0
 11 12  2  0
 11 13  1  0
 13 14  2  0
 13 33  1  0
 14 15  1  0
 15 16  2  0
 16 17  1  0
 16 19  1  0
 17 18  1  0
 19 20  1  0
 19 33  2  0
 20 21  1  0
 21 22  2  0
 21 23  1  0
 23 24  2  0
 23 25  1  0
 25 26  1  0
 25 32  1  0
 26 27  1  0
 27 28  1  0
 28 29  1  0
 29 30  1  6
 29 32  1  0
 30 31  1  0
 34 35  1  0
 35 36  2  0
 35 37  1  0
 37 38  1  0
 38 39  1  6
 38 40  1  0
 41 42  1  1
 41 45  1  0
 42 43  1  0
 43 44  1  0
M  END
