
     RDKit          3D

 12 12  0  0  0  0  0  0  0  0999 V2000
   -0.9620   -2.3230    0.0630 C   0  0  0  0  0  0  0  0  0  0  0  0
   -1.7390   -1.0740   -0.2410 C   0  0  0  0  0  0  0  0  0  0  0  0
   -3.0260   -1.2780   -0.7720 C   0  0  0  0  0  0  0  0  0  0  0  0
   -4.1450   -1.4490   -1.2550 N   0  0  0  0  0  0  0  0  0  0  0  0
   -1.2330    0.0970   -0.0720 C   0  0  0  0  0  0  0  0  0  0  0  0
   -2.2730    1.5530   -0.4580 S   0  0  0  0  0  0  0  0  0  0  0  0
   -1.0030    2.7370   -0.1400 C   0  0  0  0  0  0  0  0  0  0  0  0
    0.0680    2.0720    0.2160 C   0  0  0  0  0  0  0  0  0  0  0  0
   -0.0150    0.6760    0.2700 N   0  0  0  0  0  0  0  0  0  0  0  0
    1.1540   -0.1140    0.6740 C   0  0  0  0  0  0  0  0  0  0  0  0
    2.2890   -0.0830   -0.2860 C   0  0  0  0  0  0  0  0  0  0  0  0
    2.8240    1.2030   -0.4670 O   0  0  0  0  0  0  0  0  0  0  0  0
  1  2  1  0
  2  3  1  0
  2  5  2  3
  3  4  3  0
  5  6  1  0
  5  9  1  0
  6  7  1  0
  7  8  2  0
  8  9  1  0
  9 10  1  0
 10 11  1  0
 11 12  1  0
M  END
