
     RDKit          3D

 12 13  0  0  0  0  0  0  0  0999 V2000
   -2.2850   -1.1990   -0.2130 C   0  0  0  0  0  0  0  0  0  0  0  0
   -1.3940   -0.0610   -0.2940 N   0  0  0  0  0  0  0  0  0  0  0  0
   -1.9340    1.2820   -0.5620 C   0  0  0  0  0  0  0  0  0  0  0  0
   -1.3310    2.3110    0.8300 S   0  0  0  0  0  0  0  0  0  0  0  0
    0.4300    2.0070    0.9710 C   0  0  0  0  0  0  0  0  0  0  0  0
    0.8330    0.6810    0.4480 C   0  0  0  0  0  0  0  0  0  0  0  0
   -0.0100   -0.2410   -0.1170 C   0  0  0  0  0  0  0  0  0  0  0  0
    0.5370   -1.4530   -0.5580 C   0  0  0  0  0  0  0  0  0  0  0  0
    1.8770   -1.7380   -0.4400 C   0  0  0  0  0  0  0  0  0  0  0  0
    2.6470   -0.7910    0.1220 N   0  0  0  0  0  0  0  0  0  0  0  0
    2.1740    0.3720    0.5550 C   0  0  0  0  0  0  0  0  0  0  0  0
    2.9980    1.2010    1.0740 O   0  0  0  0  0  0  0  0  0  0  0  0
  1  2  1  0
  2  3  1  0
  2  7  1  0
  3  4  1  0
  4  5  1  0
  5  6  1  0
  6  7  2  0
  6 11  1  0
  7  8  1  0
  8  9  2  0
  9 10  1  0
 10 11  1  0
 11 12  2  0
M  END
