
     RDKit          3D

 12 13  0  0  0  0  0  0  0  0999 V2000
   -2.6100   -0.7570    0.0420 C   0  0  0  0  0  0  0  0  0  0  0  0
   -1.4340   -0.1350   -0.0530 C   0  0  0  0  0  0  0  0  0  0  0  0
   -0.3070   -0.8060   -0.7190 C   0  0  0  0  0  0  0  0  0  0  0  0
    0.9360   -0.3920   -0.0940 N   0  0  0  0  0  0  0  0  0  0  0  0
    2.1130   -1.1660    0.0590 C   0  0  0  0  0  0  0  0  0  0  0  0
    2.1510   -2.4100    0.3670 O   0  0  0  0  0  0  0  0  0  0  0  0
    3.3500   -0.3850   -0.1760 C   0  0  0  0  0  0  0  0  0  0  0  0
    2.8250    1.1860    0.6230 S   0  0  0  0  0  0  0  0  0  0  0  0
    1.0820    0.9040    0.4440 C   0  0  0  0  0  0  0  0  0  0  0  0
    0.0940    1.6310    0.7130 N   0  0  0  0  0  0  0  0  0  0  0  0
   -1.2570    1.2000    0.4970 C   0  0  0  0  0  0  0  0  0  0  0  0
   -2.2850    1.9720    0.7790 C   0  0  0  0  0  0  0  0  0  0  0  0
  1  2  2  0
  2  3  1  0
  2 11  1  0
  3  4  1  0
  4  5  1  0
  4  9  1  0
  5  6  2  0
  5  7  1  0
  7  8  1  0
  8  9  1  0
  9 10  2  0
 10 11  1  0
 11 12  2  0
M  END
