
     RDKit          3D

 28 31  0  0  0  0  0  0  0  0999 V2000
   -5.3690   -0.3570    1.9840 O   0  0  0  0  0  0  0  0  0  0  0  0
   -5.1390   -0.1990    0.7580 C   0  0  0  0  0  0  0  0  0  0  0  0
   -6.2960   -0.3050   -0.1890 C   0  0  0  0  0  0  0  0  0  0  0  0
   -7.4750   -0.5680    0.5020 O   0  0  0  0  0  0  0  0  0  0  0  0
   -3.8210    0.0690    0.3150 N   0  0  0  0  0  0  0  0  0  0  0  0
   -3.6310    0.2400   -1.1050 C   0  0  0  0  0  0  0  0  0  0  0  0
   -2.2310    0.1890   -1.5850 C   0  0  0  0  0  0  0  0  0  0  0  0
   -1.1990   -0.0520   -0.5340 C   0  0  1  0  0  0  0  0  0  0  0  0
    0.1550    0.1830   -1.0650 C   0  0  0  0  0  0  0  0  0  0  0  0
    0.4370    0.5780   -2.3260 N   0  0  0  0  0  0  0  0  0  0  0  0
    1.7430    0.7000   -2.4860 N   0  0  0  0  0  0  0  0  0  0  0  0
    2.3750    0.3930   -1.3460 C   0  0  0  0  0  0  0  0  0  0  0  0
    3.8240    0.4200   -1.1550 C   0  0  0  0  0  0  0  0  0  0  0  0
    4.6550   -0.4520   -1.8260 C   0  0  0  0  0  0  0  0  0  0  0  0
    6.0210   -0.4360   -1.6590 C   0  0  0  0  0  0  0  0  0  0  0  0
    6.6190    0.4580   -0.8090 C   0  0  0  0  0  0  0  0  0  0  0  0
    8.3700    0.4620   -0.6090 Cl  0  0  0  0  0  0  0  0  0  0  0  0
    5.8230    1.3400   -0.1250 C   0  0  0  0  0  0  0  0  0  0  0  0
    4.4420    1.3250   -0.2940 C   0  0  0  0  0  0  0  0  0  0  0  0
    1.3810    0.0640   -0.4390 C   0  0  0  0  0  0  0  0  0  0  0  0
    1.5650   -0.3430    0.9330 C   0  0  0  0  0  0  0  0  0  0  0  0
    1.1730   -1.5760    1.4080 C   0  0  0  0  0  0  0  0  0  0  0  0
    1.3730   -1.9210    2.7410 C   0  0  0  0  0  0  0  0  0  0  0  0
    1.9530   -1.0240    3.5410 N   0  0  0  0  0  0  0  0  0  0  0  0
    2.3360    0.1770    3.0890 C   0  0  0  0  0  0  0  0  0  0  0  0
    2.1360    0.4870    1.8090 N   0  0  0  0  0  0  0  0  0  0  0  0
   -1.5050    0.7810    0.6940 C   0  0  0  0  0  0  0  0  0  0  0  0
   -2.7700    0.1530    1.2900 C   0  0  0  0  0  0  0  0  0  0  0  0
  1  2  2  0
  2  3  1  0
  2  5  1  0
  3  4  1  0
  5  6  1  0
  5 28  1  0
  6  7  1  0
  7  8  1  0
  8  9  1  6
  8 27  1  0
  9 10  1  0
  9 20  2  0
 10 11  1  0
 11 12  2  0
 12 13  1  0
 12 20  1  0
 13 14  2  0
 13 19  1  0
 14 15  1  0
 15 16  2  0
 16 17  1  0
 16 18  1  0
 18 19  2  0
 20 21  1  0
 21 22  2  0
 21 26  1  0
 22 23  1  0
 23 24  2  0
 24 25  1  0
 25 26  2  0
 27 28  1  0
M  END
