
     RDKit          3D

 12 13  0  0  0  0  0  0  0  0999 V2000
    3.1930    1.9520    0.9830 O   0  0  0  0  0  0  0  0  0  0  0  0
    2.8470    0.8450    0.4470 C   0  0  0  0  0  0  0  0  0  0  0  0
    3.8170   -0.2210    0.2300 C   0  0  0  0  0  0  0  0  0  0  0  0
    2.7440   -1.7020    0.0650 S   0  0  0  0  0  0  0  0  0  0  0  0
    1.2120   -0.7900   -0.0290 C   0  0  0  0  0  0  0  0  0  0  0  0
    0.0710   -1.3730   -0.1300 N   0  0  0  0  0  0  0  0  0  0  0  0
   -1.1630   -0.7130   -0.2080 C   0  0  0  0  0  0  0  0  0  0  0  0
   -1.6550   -0.0710   -1.2530 C   0  0  0  0  0  0  0  0  0  0  0  0
   -2.9800    0.4830   -0.9250 C   0  0  0  0  0  0  0  0  0  0  0  0
   -3.1810    0.0610    0.4810 C   0  0  0  0  0  0  0  0  0  0  0  0
   -2.1240   -0.6260    0.8750 C   0  0  0  0  0  0  0  0  0  0  0  0
    1.5440    0.5590    0.0300 N   0  0  0  0  0  0  0  0  0  0  0  0
  1  2  2  0
  2  3  1  0
  2 12  1  0
  3  4  1  0
  4  5  1  0
  5  6  2  3
  5 12  1  0
  6  7  1  0
  7  8  2  0
  7 11  1  0
  8  9  1  0
  9 10  1  0
 10 11  2  0
M  END
