
     RDKit          3D

 12 13  0  0  0  0  0  0  0  0999 V2000
    4.4200    0.1130   -0.2250 C   0  0  0  0  0  0  0  0  0  0  0  0
    3.0750    1.2570   -0.5520 S   0  0  0  0  0  0  0  0  0  0  0  0
    1.4860    0.5030   -0.2620 C   0  0  0  0  0  0  0  0  0  0  0  0
    0.3750    1.2160   -0.4570 C   0  0  0  0  0  0  0  0  0  0  0  0
   -0.9160    0.6670   -0.2410 N   0  0  0  0  0  0  0  0  0  0  0  0
   -2.2170    1.2920   -0.1260 C   0  0  0  0  0  0  0  0  0  0  0  0
   -3.1670    0.1900    0.3150 C   0  0  0  0  0  0  0  0  0  0  0  0
   -2.2060   -0.8000    0.9430 C   0  0  0  0  0  0  0  0  0  0  0  0
   -1.0860   -0.7650   -0.0950 C   0  0  2  0  0  0  0  0  0  0  0  0
    0.1480   -1.4220    0.3960 C   0  0  0  0  0  0  0  0  0  0  0  0
    0.0050   -2.5070    1.0160 O   0  0  0  0  0  0  0  0  0  0  0  0
    1.4240   -0.8490    0.1740 N   0  0  0  0  0  0  0  0  0  0  0  0
  1  2  1  0
  2  3  1  0
  3  4  2  0
  3 12  1  0
  4  5  1  0
  5  6  1  0
  5  9  1  0
  6  7  1  0
  7  8  1  0
  9  8  1  1
  9 10  1  0
 10 11  2  0
 10 12  1  0
M  END
