
     RDKit          3D

 12 12  0  0  0  0  0  0  0  0999 V2000
    2.5370   -0.8270    0.3530 C   0  0  0  0  0  0  0  0  0  0  0  0
    1.2600   -0.9880    0.1040 C   0  0  0  0  0  0  0  0  0  0  0  0
    0.8090   -2.2900   -0.1350 C   0  0  0  0  0  0  0  0  0  0  0  0
    1.6430   -3.2550   -0.1020 O   0  0  0  0  0  0  0  0  0  0  0  0
   -0.4780   -2.4680   -0.3880 N   0  0  0  0  0  0  0  0  0  0  0  0
   -1.3590   -1.4620   -0.4240 C   0  0  0  0  0  0  0  0  0  0  0  0
   -2.9350   -1.7300   -0.7500 S   0  0  0  0  0  0  0  0  0  0  0  0
   -0.9560   -0.1700   -0.1940 N   0  0  0  0  0  0  0  0  0  0  0  0
   -1.9770    0.8180   -0.2390 C   0  0  0  0  0  0  0  0  0  0  0  0
    0.3330    0.0830    0.0670 C   0  0  0  0  0  0  0  0  0  0  0  0
    0.8010    1.2860    0.2890 C   0  0  0  0  0  0  0  0  0  0  0  0
    0.0980    2.5520    0.3110 C   0  0  0  0  0  0  0  0  0  0  0  0
  1  2  2  0
  2  3  1  0
  2 10  1  0
  3  4  2  0
  3  5  1  0
  5  6  1  0
  6  7  2  0
  6  8  1  0
  8  9  1  0
  8 10  1  0
 10 11  2  3
 11 12  1  0
M  END
