
     RDKit          3D

 12 12  0  0  0  0  0  0  0  0999 V2000
   -5.2740    1.4740    0.9950 N   0  0  0  0  0  0  0  0  0  0  0  0
   -4.2780    0.9250    0.7330 C   0  0  0  0  0  0  0  0  0  0  0  0
   -3.0380    0.2210    0.4200 C   0  0  0  0  0  0  0  0  0  0  0  0
   -1.9530    1.1150    0.2570 O   0  0  0  0  0  0  0  0  0  0  0  0
   -0.7170    0.5010   -0.0480 C   0  0  0  0  0  0  0  0  0  0  0  0
    0.3510    0.7150    0.6970 C   0  0  0  0  0  0  0  0  0  0  0  0
    1.6050    0.0610    0.3450 C   0  0  0  0  0  0  0  0  0  0  0  0
    2.5560   -0.1330    1.2340 C   0  0  0  0  0  0  0  0  0  0  0  0
    4.1040   -0.9290    0.8410 S   0  0  0  0  0  0  0  0  0  0  0  0
    1.8190   -0.3940   -1.0420 C   0  0  0  0  0  0  0  0  0  0  0  0
    0.6570   -0.1990   -1.8770 N   0  0  0  0  0  0  0  0  0  0  0  0
   -0.5800   -0.4000   -1.2080 C   0  0  0  0  0  0  0  0  0  0  0  0
  1  2  3  0
  2  3  1  0
  3  4  1  0
  4  5  1  0
  5  6  2  0
  5 12  1  0
  6  7  1  0
  7  8  2  3
  7 10  1  0
  8  9  1  0
 10 11  1  0
 11 12  1  0
M  END
