
     RDKit          3D

 28 31  0  0  0  0  0  0  0  0999 V2000
   -4.4770    0.9540    1.3850 C   0  0  0  0  0  0  0  0  0  0  0  0
   -3.8680    0.4950    0.0370 C   0  0  2  0  0  0  0  0  0  0  0  0
   -4.4260   -0.8320   -0.2490 C   0  0  0  0  0  0  0  0  0  0  0  0
   -3.9220   -1.9580    0.6040 C   0  0  0  0  0  0  0  0  0  0  0  0
   -2.4590   -2.1620    0.5570 C   0  0  2  0  0  0  0  0  0  0  0  0
   -1.6940   -1.6200    1.7350 C   0  0  0  0  0  0  0  0  0  0  0  0
   -0.2340   -1.3720    1.2510 C   0  0  0  0  0  0  0  0  0  0  0  0
   -0.1950   -0.0690    0.4920 C   0  0  1  0  0  0  0  0  0  0  0  0
    1.0990    0.4390    0.0940 C   0  0  2  0  0  0  0  0  0  0  0  0
    2.0170   -0.2160   -0.8320 C   0  0  1  0  0  0  0  0  0  0  0  0
    3.1860    0.6300   -0.9580 O   0  0  0  0  0  0  0  0  0  0  0  0
    2.4800   -1.5340   -1.0400 C   0  0  1  0  0  0  0  0  0  0  0  0
    1.7330   -2.7340   -1.4120 C   0  0  0  0  0  0  0  0  0  0  0  0
    3.6870   -1.5080   -2.0210 C   0  0  0  0  0  0  0  0  0  0  0  0
    4.5970   -2.5870   -1.5450 C   0  0  0  0  0  0  0  0  0  0  0  0
    3.9080   -3.1710   -0.4830 O   0  0  0  0  0  0  0  0  0  0  0  0
    3.3130   -2.0700    0.1740 C   0  0  0  0  0  0  0  0  0  0  0  0
    1.8210    0.7080    1.4750 C   0  0  0  0  0  0  0  0  0  0  0  0
    1.0660    1.8790    2.0700 C   0  0  0  0  0  0  0  0  0  0  0  0
    0.6190    2.6890    0.8710 C   0  0  0  0  0  0  0  0  0  0  0  0
    1.1890    1.9200   -0.2450 C   0  0  2  0  0  0  0  0  0  0  0  0
    1.0570    2.3890   -1.6160 C   0  0  0  0  0  0  0  0  0  0  0  0
    1.1660    3.9260   -1.7290 C   0  0  0  0  0  0  0  0  0  0  0  0
    0.1420    4.4460   -0.9720 O   0  0  0  0  0  0  0  0  0  0  0  0
   -1.3870   -0.1090   -0.4360 C   0  0  1  0  0  0  0  0  0  0  0  0
   -1.8910   -1.5330   -0.6700 C   0  0  0  0  0  0  0  0  0  0  0  0
   -2.4770    0.8430   -0.1120 C   0  0  1  0  0  0  0  0  0  0  0  0
   -2.3570    2.0340   -0.8880 O   0  0  0  0  0  0  0  0  0  0  0  0
  2  1  1  1
  2  3  1  0
  2 27  1  0
  3  4  1  0
  5  4  1  1
  5  6  1  0
  5 26  1  0
  6  7  1  0
  8  7  1  6
  8  9  1  0
  8 25  1  0
  9 10  1  0
  9 18  1  1
  9 21  1  0
 10 11  1  1
 10 12  1  0
 12 13  1  6
 12 14  1  0
 12 17  1  0
 14 15  1  0
 15 16  1  0
 16 17  1  0
 18 19  1  0
 19 20  1  0
 20 21  1  0
 21 22  1  6
 22 23  1  0
 23 24  1  0
 25 26  1  1
 25 27  1  0
 27 28  1  6
M  END
