
     RDKit          3D

 28 32  0  0  0  0  0  0  0  0999 V2000
    5.5350    0.9400    0.5030 C   0  0  0  0  0  0  0  0  0  0  0  0
    4.6500    0.0060    1.2470 C   0  0  0  0  0  0  0  0  0  0  0  0
    3.2860    0.5370    1.5870 C   0  0  2  0  0  0  0  0  0  0  0  0
    3.5830    1.7860    2.4580 C   0  0  0  0  0  0  0  0  0  0  0  0
    2.7860   -0.3530    2.5400 O   0  0  0  0  0  0  0  0  0  0  0  0
    2.3830    0.9530    0.5440 C   0  0  0  0  0  0  0  0  0  0  0  0
    1.8120    0.1910   -0.5360 C   0  0  1  0  0  0  0  0  0  0  0  0
    2.8950   -0.3530   -1.4440 C   0  0  0  0  0  0  0  0  0  0  0  0
    2.3780   -0.5280   -2.8760 C   0  0  0  0  0  0  0  0  0  0  0  0
    1.0030   -1.1330   -2.7740 C   0  0  0  0  0  0  0  0  0  0  0  0
    0.8520   -1.7800   -1.4390 C   0  0  2  0  0  0  0  0  0  0  0  0
   -0.2190   -2.8110   -1.4970 C   0  0  0  0  0  0  0  0  0  0  0  0
   -1.5990   -2.3370   -1.2360 C   0  0  0  0  0  0  0  0  0  0  0  0
   -1.5230   -1.5500    0.0420 C   0  0  2  0  0  0  0  0  0  0  0  0
   -2.8220   -1.2250    0.6570 C   0  0  0  0  0  0  0  0  0  0  0  0
   -3.4410   -0.0940   -0.1490 C   0  0  2  0  0  0  0  0  0  0  0  0
   -2.6080    1.1080    0.0580 C   0  0  1  0  0  0  0  0  0  0  0  0
   -3.1480    2.1230    1.0080 C   0  0  0  0  0  0  0  0  0  0  0  0
   -4.6570    2.2270    0.9280 C   0  0  2  0  0  0  0  0  0  0  0  0
   -5.1740    0.8560    1.3930 C   0  0  0  0  0  0  0  0  0  0  0  0
   -4.9000    0.0750    0.1030 C   0  0  1  0  0  0  0  0  0  0  0  0
   -5.4270    1.0390   -0.8980 C   0  0  0  0  0  0  0  0  0  0  0  0
   -6.0220    0.6950   -1.9500 O   0  0  0  0  0  0  0  0  0  0  0  0
   -5.1170    2.3000   -0.4100 O   0  0  0  0  0  0  0  0  0  0  0  0
   -1.1680    0.7750    0.5070 C   0  0  0  0  0  0  0  0  0  0  0  0
   -0.6870   -0.3090   -0.3410 C   0  0  1  0  0  0  0  0  0  0  0  0
    0.7090   -0.7800   -0.3000 C   0  0  2  0  0  0  0  0  0  0  0  0
    0.8610   -1.5580    0.8440 O   0  0  0  0  0  0  0  0  0  0  0  0
  1  2  1  0
  2  3  1  0
  3  4  1  1
  3  5  1  0
  3  6  1  0
  7  6  1  1
  7  8  1  0
  7 27  1  0
  8  9  1  0
  9 10  1  0
 11 10  1  6
 11 12  1  0
 11 27  1  0
 12 13  1  0
 14 13  1  6
 14 15  1  0
 14 26  1  0
 16 15  1  1
 16 17  1  0
 16 21  1  0
 17 18  1  1
 17 25  1  0
 19 18  1  6
 19 20  1  0
 19 24  1  0
 20 21  1  0
 21 22  1  6
 22 23  2  0
 22 24  1  0
 26 25  1  1
 26 27  1  0
 27 28  1  1
M  END
