
     RDKit          3D

 20 22  0  0  0  0  0  0  0  0999 V2000
   -4.2270    1.2410    0.2850 C   0  0  0  0  0  0  0  0  0  0  0  0
   -3.4340    0.0860   -0.2600 C   0  0  1  0  0  0  0  0  0  0  0  0
   -4.1790   -1.1840    0.0860 C   0  0  0  0  0  0  0  0  0  0  0  0
   -3.2350    0.2030   -1.7460 C   0  0  0  0  0  0  0  0  0  0  0  0
   -2.0870   -0.0140    0.3990 C   0  0  0  0  0  0  0  0  0  0  0  0
   -0.9390    0.0730   -0.1370 N   0  0  0  0  0  0  0  0  0  0  0  0
    0.1060   -0.0650    0.7520 N   0  0  0  0  0  0  0  0  0  0  0  0
    1.5190    0.0040    0.4180 C   0  0  0  0  0  0  0  0  0  0  0  0
    2.4600    0.6900    0.4510 N   0  0  0  0  0  0  0  0  0  0  0  0
    3.6900    0.4730    0.0450 C   0  0  0  0  0  0  0  0  0  0  0  0
    4.8150    1.3120    0.0890 C   0  0  0  0  0  0  0  0  0  0  0  0
    6.0250    0.8840   -0.4020 C   0  0  0  0  0  0  0  0  0  0  0  0
    6.2250   -0.3580   -0.9560 C   0  0  0  0  0  0  0  0  0  0  0  0
    7.7760   -0.8350   -1.5520 Cl  0  0  0  0  0  0  0  0  0  0  0  0
    5.1240   -1.2030   -1.0070 C   0  0  0  0  0  0  0  0  0  0  0  0
    3.9030   -0.7730   -0.5140 C   0  0  0  0  0  0  0  0  0  0  0  0
    2.2890   -1.5370   -0.4020 S   0  0  0  0  0  0  0  0  0  0  0  0
   -0.4630   -0.2710    2.0390 C   0  0  0  0  0  0  0  0  0  0  0  0
    0.1960   -0.4480    3.1000 O   0  0  0  0  0  0  0  0  0  0  0  0
   -1.9310   -0.2330    1.8540 C   0  0  0  0  0  0  0  0  0  0  0  0
  2  1  1  1
  2  3  1  0
  2  4  1  0
  2  5  1  0
  5  6  2  0
  5 20  1  0
  6  7  1  0
  7  8  1  0
  7 18  1  0
  8  9  2  0
  8 17  1  0
  9 10  1  0
 10 11  2  0
 10 16  1  0
 11 12  1  0
 12 13  2  0
 13 14  1  0
 13 15  1  0
 15 16  2  0
 16 17  1  0
 18 19  2  0
 18 20  1  0
M  END
