
     RDKit          3D

 28 31  0  0  0  0  0  0  0  0999 V2000
   -4.7180   -0.9410    1.6450 C   0  0  0  0  0  0  0  0  0  0  0  0
   -3.6940   -0.7660    0.5510 C   0  0  0  0  0  0  0  0  0  0  0  0
   -2.7430    0.1410    0.5360 C   0  0  0  0  0  0  0  0  0  0  0  0
   -2.4320    1.1850    1.5240 C   0  0  2  0  0  0  0  0  0  0  0  0
   -3.7040    2.0510    1.6300 C   0  0  0  0  0  0  0  0  0  0  0  0
   -1.3280    2.0590    1.0680 C   0  0  1  0  0  0  0  0  0  0  0  0
   -0.8450    2.7940    2.3390 C   0  0  0  0  0  0  0  0  0  0  0  0
   -0.1780    1.3440    0.4240 C   0  0  0  0  0  0  0  0  0  0  0  0
   -0.4850    0.0060   -0.2210 C   0  0  2  0  0  0  0  0  0  0  0  0
   -0.1370   -0.9910    0.8700 C   0  0  0  0  0  0  0  0  0  0  0  0
   -0.3060   -2.3110    0.5220 O   0  0  0  0  0  0  0  0  0  0  0  0
    0.5180   -0.2100   -1.3050 C   0  0  0  0  0  0  0  0  0  0  0  0
    1.9540   -0.2710   -1.0520 C   0  0  0  0  0  0  0  0  0  0  0  0
    2.7230    0.9060   -0.5720 C   0  0  2  0  0  0  0  0  0  0  0  0
    2.6480    1.9870   -1.4790 O   0  0  0  0  0  0  0  0  0  0  0  0
    4.2360    0.5670   -0.5280 C   0  0  2  0  0  0  0  0  0  0  0  0
    4.7060    0.2120   -1.9220 C   0  0  0  0  0  0  0  0  0  0  0  0
    4.5230   -0.5740    0.3830 C   0  0  0  0  0  0  0  0  0  0  0  0
    5.8970   -0.1870    0.9410 C   0  0  0  0  0  0  0  0  0  0  0  0
    5.9150    1.2860    0.7600 C   0  0  0  0  0  0  0  0  0  0  0  0
    4.9220    1.6630   -0.0920 O   0  0  0  0  0  0  0  0  0  0  0  0
   -1.8760    0.0440   -0.6790 C   0  0  2  0  0  0  0  0  0  0  0  0
   -1.9780    1.3830   -1.2280 O   0  0  0  0  0  0  0  0  0  0  0  0
   -2.6370   -0.7940   -1.5120 C   0  0  1  0  0  0  0  0  0  0  0  0
   -2.3030   -1.8090   -2.4720 C   0  0  0  0  0  0  0  0  0  0  0  0
   -2.3480   -3.1880   -1.8320 C   0  0  0  0  0  0  0  0  0  0  0  0
   -3.2400   -2.9660   -0.6050 C   0  0  0  0  0  0  0  0  0  0  0  0
   -3.6790   -1.5580   -0.6570 C   0  0  1  0  0  0  0  0  0  0  0  0
  1  2  1  0
  2  3  2  0
  2 28  1  0
  3  4  1  0
  3 22  1  0
  4  5  1  6
  4  6  1  0
  6  7  1  1
  6  8  1  0
  8  9  1  0
  9 10  1  1
  9 12  1  0
  9 22  1  0
 10 11  1  0
 12 13  1  0
 13 14  1  0
 14 15  1  6
 14 16  1  0
 16 17  1  6
 16 18  1  0
 16 21  1  0
 18 19  1  0
 19 20  1  0
 20 21  1  0
 22 23  1  6
 22 24  1  0
 24 25  1  1
 24 28  1  0
 25 26  1  0
 26 27  1  0
 28 27  1  1
M  END
