
     RDKit          3D

 27 29  0  0  0  0  0  0  0  0999 V2000
    4.3360   -2.1230    0.1700 C   0  0  0  0  0  0  0  0  0  0  0  0
    3.2310   -1.2390    0.6710 C   0  0  1  0  0  0  0  0  0  0  0  0
    3.7110    0.0720    1.2250 C   0  0  1  0  0  0  0  0  0  0  0  0
    4.7650   -0.1640    2.2500 C   0  0  0  0  0  0  0  0  0  0  0  0
    5.2080    1.0640    2.7630 O   0  0  0  0  0  0  0  0  0  0  0  0
    4.1130    1.0530    0.1630 C   0  0  0  0  0  0  0  0  0  0  0  0
    2.9450    1.2960   -0.7530 C   0  0  1  0  0  0  0  0  0  0  0  0
    3.4390    2.2060   -1.8590 C   0  0  0  0  0  0  0  0  0  0  0  0
    2.4330    0.0330   -1.3470 C   0  0  2  0  0  0  0  0  0  0  0  0
    3.5180   -0.5040   -2.2910 C   0  0  0  0  0  0  0  0  0  0  0  0
    1.2170    0.2530   -2.1830 C   0  0  0  0  0  0  0  0  0  0  0  0
    0.0270    0.7240   -1.3660 C   0  0  0  0  0  0  0  0  0  0  0  0
   -0.3250   -0.3840   -0.4010 C   0  0  2  0  0  0  0  0  0  0  0  0
   -1.3440    0.1340    0.6260 C   0  0  2  0  0  0  0  0  0  0  0  0
   -1.7170   -0.9340    1.6070 C   0  0  0  0  0  0  0  0  0  0  0  0
   -2.9900   -0.5800    2.3190 C   0  0  0  0  0  0  0  0  0  0  0  0
   -4.1190   -1.2290    1.5510 C   0  0  0  0  0  0  0  0  0  0  0  0
   -4.6390   -0.2360    0.5530 C   0  0  2  0  0  0  0  0  0  0  0  0
   -5.3300    0.8600    1.3260 C   0  0  0  0  0  0  0  0  0  0  0  0
   -5.6700   -0.9040   -0.1550 O   0  0  0  0  0  0  0  0  0  0  0  0
   -3.6520    0.2130   -0.4540 C   0  0  1  0  0  0  0  0  0  0  0  0
   -3.3440   -0.9490   -1.3730 C   0  0  0  0  0  0  0  0  0  0  0  0
   -4.3700    1.2220   -1.3400 C   0  0  0  0  0  0  0  0  0  0  0  0
   -4.8260    2.3130   -0.6100 O   0  0  0  0  0  0  0  0  0  0  0  0
   -2.4510    0.9110    0.0600 C   0  0  0  0  0  0  0  0  0  0  0  0
    0.8460   -0.8980    0.3670 C   0  0  0  0  0  0  0  0  0  0  0  0
    2.1270   -1.0450   -0.3580 C   0  0  2  0  0  0  0  0  0  0  0  0
  2  1  1  6
  2  3  1  0
  2 27  1  0
  3  4  1  1
  3  6  1  0
  4  5  1  0
  6  7  1  0
  7  8  1  6
  7  9  1  0
  9 10  1  6
  9 11  1  0
  9 27  1  0
 11 12  1  0
 13 12  1  6
 13 14  1  0
 13 26  1  0
 14 15  1  6
 14 25  1  0
 15 16  1  0
 16 17  1  0
 17 18  1  0
 18 19  1  1
 18 20  1  0
 18 21  1  0
 21 22  1  6
 21 23  1  0
 21 25  1  0
 23 24  1  0
 27 26  1  1
M  END
