
     RDKit          3D

 28 31  0  0  0  0  0  0  0  0999 V2000
   -3.8030    1.0840   -2.2010 C   0  0  0  0  0  0  0  0  0  0  0  0
   -2.9160    1.1110   -0.9760 C   0  0  0  0  0  0  0  0  0  0  0  0
   -3.0820   -0.0820   -0.0590 C   0  0  1  0  0  0  0  0  0  0  0  0
   -4.5830   -0.0110    0.3280 C   0  0  0  0  0  0  0  0  0  0  0  0
   -5.4050   -0.1150   -0.7580 O   0  0  0  0  0  0  0  0  0  0  0  0
   -2.9460   -1.2720   -0.9550 C   0  0  0  0  0  0  0  0  0  0  0  0
   -2.4740   -2.5300   -0.3230 C   0  0  0  0  0  0  0  0  0  0  0  0
   -2.8270   -2.5850    1.1310 C   0  0  0  0  0  0  0  0  0  0  0  0
   -2.4860   -1.3850    1.9240 C   0  0  0  0  0  0  0  0  0  0  0  0
   -2.3770   -0.0530    1.2010 C   0  0  2  0  0  0  0  0  0  0  0  0
   -3.1040    0.8520    2.0410 O   0  0  0  0  0  0  0  0  0  0  0  0
   -0.9870    0.4260    1.4000 C   0  0  2  0  0  0  0  0  0  0  0  0
   -0.7330    0.2660    2.9180 C   0  0  0  0  0  0  0  0  0  0  0  0
   -0.6790    1.8500    1.1270 C   0  0  0  0  0  0  0  0  0  0  0  0
    0.8010    2.1550    1.4220 C   0  0  0  0  0  0  0  0  0  0  0  0
    1.5740    1.3970    0.3310 C   0  0  1  0  0  0  0  0  0  0  0  0
    3.0240    1.7810    0.3410 C   0  0  0  0  0  0  0  0  0  0  0  0
    3.9110    0.7450   -0.2740 C   0  0  1  0  0  0  0  0  0  0  0  0
    3.7400   -0.6180    0.3910 C   0  0  0  0  0  0  0  0  0  0  0  0
    2.2960   -0.9310   -0.0300 C   0  0  2  0  0  0  0  0  0  0  0  0
    2.2900   -0.5460   -1.4860 C   0  0  0  0  0  0  0  0  0  0  0  0
    3.4500    0.4030   -1.6960 C   0  0  2  0  0  0  0  0  0  0  0  0
    4.6090   -0.3210   -2.3210 C   0  0  0  0  0  0  0  0  0  0  0  0
    4.5350   -1.4860   -2.7500 O   0  0  0  0  0  0  0  0  0  0  0  0
    5.8220    0.3450   -2.4230 O   0  0  0  0  0  0  0  0  0  0  0  0
    6.9670   -0.2810   -3.0050 C   0  0  0  0  0  0  0  0  0  0  0  0
    1.4270   -0.0550    0.8110 C   0  0  2  0  0  0  0  0  0  0  0  0
    0.0060   -0.4410    0.6830 C   0  0  0  0  0  0  0  0  0  0  0  0
  1  2  1  0
  3  2  1  6
  3  4  1  0
  3  6  1  0
  3 10  1  0
  4  5  1  0
  6  7  1  0
  7  8  1  0
  8  9  1  0
  9 10  1  0
 10 11  1  1
 10 12  1  0
 12 13  1  1
 12 14  1  0
 12 28  1  0
 14 15  1  0
 16 15  1  1
 16 17  1  0
 16 27  1  0
 18 17  1  1
 18 19  1  0
 18 22  1  0
 19 20  1  0
 20 21  1  6
 20 27  1  0
 21 22  1  0
 22 23  1  6
 23 24  2  0
 23 25  1  0
 25 26  1  0
 27 28  1  6
M  END
