
     RDKit          3D

 28 31  0  0  0  0  0  0  0  0999 V2000
   -2.9960   -3.5520    1.7050 C   0  0  0  0  0  0  0  0  0  0  0  0
   -2.9450   -2.2500    0.8450 C   0  0  0  0  0  0  0  0  0  0  0  0
   -1.5150   -1.8640    0.8610 C   0  0  1  0  0  0  0  0  0  0  0  0
   -0.8610   -3.1110    0.2560 C   0  0  0  0  0  0  0  0  0  0  0  0
    0.5060   -2.9320   -0.2230 C   0  0  0  0  0  0  0  0  0  0  0  0
    1.1090   -1.8080    0.6120 C   0  0  1  0  0  0  0  0  0  0  0  0
    2.5440   -1.8020    0.2700 C   0  0  0  0  0  0  0  0  0  0  0  0
    3.3050   -0.5470    0.3050 C   0  0  0  0  0  0  0  0  0  0  0  0
    2.5490    0.6890   -0.1540 C   0  0  1  0  0  0  0  0  0  0  0  0
    3.2720    1.3710   -1.3010 C   0  0  1  0  0  0  0  0  0  0  0  0
    2.5300    2.6330   -1.7150 C   0  0  0  0  0  0  0  0  0  0  0  0
    3.6210    3.5650   -2.2190 C   0  0  0  0  0  0  0  0  0  0  0  0
    4.8250    2.9670   -1.7810 O   0  0  0  0  0  0  0  0  0  0  0  0
    4.5950    1.9180   -0.9020 C   0  0  0  0  0  0  0  0  0  0  0  0
    5.3510    1.5130    0.0390 O   0  0  0  0  0  0  0  0  0  0  0  0
    1.2200    0.1380   -0.7140 C   0  0  0  0  0  0  0  0  0  0  0  0
    0.4040   -0.4660    0.3860 C   0  0  2  0  0  0  0  0  0  0  0  0
    0.6630    0.2260    1.7360 C   0  0  0  0  0  0  0  0  0  0  0  0
   -1.0770   -0.6080    0.1160 C   0  0  1  0  0  0  0  0  0  0  0  0
   -1.2730   -0.9060   -1.3580 C   0  0  0  0  0  0  0  0  0  0  0  0
   -2.2340   -0.0400   -2.0950 C   0  0  0  0  0  0  0  0  0  0  0  0
   -2.1660    1.4000   -1.7750 C   0  0  0  0  0  0  0  0  0  0  0  0
   -2.0510    1.7500   -0.3080 C   0  0  2  0  0  0  0  0  0  0  0  0
   -1.1920    2.9150   -0.0840 C   0  0  0  0  0  0  0  0  0  0  0  0
   -1.0210    3.3460    1.2200 O   0  0  0  0  0  0  0  0  0  0  0  0
   -1.9570    0.5120    0.4840 C   0  0  2  0  0  0  0  0  0  0  0  0
   -2.2190    0.7920    1.9160 C   0  0  0  0  0  0  0  0  0  0  0  0
   -3.2270   -0.0620    0.0650 O   0  0  0  0  0  0  0  0  0  0  0  0
  1  2  1  0
  3  2  1  6
  3  4  1  0
  3 19  1  0
  4  5  1  0
  6  5  1  6
  6  7  1  0
  6 17  1  0
  7  8  1  0
  9  8  1  6
  9 10  1  0
  9 16  1  0
 10 11  1  1
 10 14  1  0
 11 12  1  0
 12 13  1  0
 13 14  1  0
 14 15  2  0
 16 17  1  0
 17 18  1  1
 17 19  1  0
 19 20  1  6
 19 26  1  0
 20 21  1  0
 21 22  1  0
 22 23  1  0
 23 24  1  6
 23 26  1  0
 24 25  1  0
 26 27  1  1
 26 28  1  0
M  END
