
     RDKit          3D

 28 31  0  0  0  0  0  0  0  0999 V2000
    1.0040   -4.6210   -0.4150 C   0  0  0  0  0  0  0  0  0  0  0  0
    1.5120   -3.1690   -0.3170 C   0  0  0  0  0  0  0  0  0  0  0  0
    0.3110   -2.3130   -0.3310 C   0  0  2  0  0  0  0  0  0  0  0  0
   -0.3500   -2.5480   -1.5190 O   0  0  0  0  0  0  0  0  0  0  0  0
    0.5050   -0.8450   -0.1020 C   0  0  2  0  0  0  0  0  0  0  0  0
   -0.8980   -0.2270   -0.1710 C   0  0  1  0  0  0  0  0  0  0  0  0
   -0.9010    1.2120    0.2730 C   0  0  0  0  0  0  0  0  0  0  0  0
   -2.3830    1.6110    0.3560 C   0  0  2  0  0  0  0  0  0  0  0  0
   -2.3550    3.1380    0.5080 C   0  0  0  0  0  0  0  0  0  0  0  0
   -3.0590    1.0950    1.5730 C   0  0  1  0  0  0  0  0  0  0  0  0
   -3.0670    2.0180    2.6260 O   0  0  0  0  0  0  0  0  0  0  0  0
   -4.5120    0.8160    1.2440 C   0  0  0  0  0  0  0  0  0  0  0  0
   -4.4980   -0.3610    0.2670 C   0  0  0  0  0  0  0  0  0  0  0  0
   -3.8390    0.0450   -1.0010 C   0  0  2  0  0  0  0  0  0  0  0  0
   -2.8460   -1.0030   -1.5280 C   0  0  0  0  0  0  0  0  0  0  0  0
   -1.5020   -0.2520   -1.5370 C   0  0  1  0  0  0  0  0  0  0  0  0
   -2.0390    1.0940   -2.0100 C   0  0  0  0  0  0  0  0  0  0  0  0
   -3.0860    1.3270   -0.9440 C   0  0  2  0  0  0  0  0  0  0  0  0
    1.2730   -0.3140   -1.2820 C   0  0  0  0  0  0  0  0  0  0  0  0
    2.7460   -0.1190   -1.0330 C   0  0  0  0  0  0  0  0  0  0  0  0
    2.9460    0.8190    0.1130 C   0  0  2  0  0  0  0  0  0  0  0  0
    4.4280    1.0050    0.4000 C   0  0  1  0  0  0  0  0  0  0  0  0
    5.1740    1.5630   -0.7620 C   0  0  0  0  0  0  0  0  0  0  0  0
    4.6310    1.7220    1.5940 O   0  0  0  0  0  0  0  0  0  0  0  0
    5.2130    1.2160    2.7310 C   0  0  0  0  0  0  0  0  0  0  0  0
    5.6010    0.0350    2.7360 O   0  0  0  0  0  0  0  0  0  0  0  0
    2.1580    0.4790    1.3260 C   0  0  0  0  0  0  0  0  0  0  0  0
    1.1570   -0.5990    1.2160 C   0  0  0  0  0  0  0  0  0  0  0  0
  1  2  1  0
  2  3  1  0
  3  4  1  6
  3  5  1  0
  5  6  1  0
  5 19  1  6
  5 28  1  0
  6  7  1  6
  6 16  1  0
  7  8  1  0
  8  9  1  1
  8 10  1  0
  8 18  1  0
 10 11  1  1
 10 12  1  0
 12 13  1  0
 14 13  1  1
 14 15  1  0
 14 18  1  0
 16 15  1  1
 16 17  1  0
 18 17  1  6
 19 20  1  0
 21 20  1  6
 21 22  1  0
 21 27  1  0
 22 23  1  6
 22 24  1  0
 24 25  1  0
 25 26  2  0
 27 28  1  0
M  END
