
     RDKit          3D

 31 34  0  0  0  0  0  0  0  0999 V2000
    8.6060   -0.4690    0.2390 C   0  0  0  0  0  0  0  0  0  0  0  0
    7.4170   -1.0390    0.2530 C   0  0  0  0  0  0  0  0  0  0  0  0
    6.4120   -0.7070   -0.7450 C   0  0  0  0  0  0  0  0  0  0  0  0
    5.2350   -1.2990   -0.6970 C   0  0  0  0  0  0  0  0  0  0  0  0
    4.1580   -1.0140   -1.6790 C   0  0  0  0  0  0  0  0  0  0  0  0
    3.0330   -0.5360   -1.0860 O   0  0  0  0  0  0  0  0  0  0  0  0
    2.7160    0.5480   -0.3500 C   0  0  0  0  0  0  0  0  0  0  0  0
    3.6290    1.5030   -0.0390 C   0  0  0  0  0  0  0  0  0  0  0  0
    3.2840    2.6100    0.7160 C   0  0  0  0  0  0  0  0  0  0  0  0
    4.5070    3.8220    1.0910 Cl  0  0  0  0  0  0  0  0  0  0  0  0
    1.9980    2.7200    1.1460 C   0  0  0  0  0  0  0  0  0  0  0  0
    1.0510    1.7340    0.8280 C   0  0  0  0  0  0  0  0  0  0  0  0
    1.3570    0.6280    0.0800 C   0  0  0  0  0  0  0  0  0  0  0  0
    0.5300   -0.4600   -0.2250 N   0  0  0  0  0  0  0  0  0  0  0  0
   -0.8560   -0.4500   -0.3880 C   0  0  0  0  0  0  0  0  0  0  0  0
   -1.6290   -1.9050   -0.7010 S   0  0  0  0  0  0  0  0  0  0  0  0
   -1.6510    0.6980   -0.3500 N   0  0  0  0  0  0  0  0  0  0  0  0
   -3.0670    0.6140   -0.4590 C   0  0  0  0  0  0  0  0  0  0  0  0
   -3.6840    1.6350   -1.1710 C   0  0  0  0  0  0  0  0  0  0  0  0
   -5.0530    1.6690   -1.3050 C   0  0  0  0  0  0  0  0  0  0  0  0
   -5.8170    0.6730   -0.7230 C   0  0  0  0  0  0  0  0  0  0  0  0
   -5.2070   -0.3380   -0.0180 C   0  0  0  0  0  0  0  0  0  0  0  0
   -3.8110   -0.3810    0.1250 C   0  0  0  0  0  0  0  0  0  0  0  0
   -6.0710   -1.3800    0.5850 C   0  0  0  0  0  0  0  0  0  0  0  0
   -7.2430   -0.7640    1.1280 N   0  0  0  0  0  0  0  0  0  0  0  0
   -8.0560   -0.1140    0.1190 C   0  0  0  0  0  0  0  0  0  0  0  0
   -7.2350    0.6400   -0.8180 N   0  0  0  0  0  0  0  0  0  0  0  0
    4.9650   -2.2750    0.3580 C   0  0  0  0  0  0  0  0  0  0  0  0
    5.8100   -2.6100    1.2670 N   0  0  0  0  0  0  0  0  0  0  0  0
    7.1030   -2.0270    1.2970 C   0  0  0  0  0  0  0  0  0  0  0  0
    7.9740   -2.3110    2.1580 O   0  0  0  0  0  0  0  0  0  0  0  0
  1  2  2  0
  2  3  1  0
  2 30  1  0
  3  4  2  0
  4  5  1  0
  4 28  1  0
  5  6  1  0
  6  7  1  0
  7  8  2  0
  7 13  1  0
  8  9  1  0
  9 10  1  0
  9 11  2  0
 11 12  1  0
 12 13  2  0
 13 14  1  0
 14 15  1  0
 15 16  2  0
 15 17  1  0
 17 18  1  0
 18 19  2  0
 18 23  1  0
 19 20  1  0
 20 21  2  0
 21 22  1  0
 21 27  1  0
 22 23  2  0
 22 24  1  0
 24 25  1  0
 25 26  1  0
 26 27  1  0
 28 29  2  0
 29 30  1  0
 30 31  2  0
M  CHG  1  25   1
M  END
