
     RDKit          3D

 30 32  0  0  0  0  0  0  0  0999 V2000
    7.4380    0.0770    2.1600 C   0  0  0  0  0  0  0  0  0  0  0  0
    6.4050   -0.4580    1.2630 N   0  0  0  0  0  0  0  0  0  0  0  0
    5.1370    0.1610    1.2100 C   0  0  0  0  0  0  0  0  0  0  0  0
    4.9130    1.1620    1.9330 O   0  0  0  0  0  0  0  0  0  0  0  0
    4.0780   -0.3270    0.3400 C   0  0  0  0  0  0  0  0  0  0  0  0
    4.2360   -1.4140   -0.4900 C   0  0  0  0  0  0  0  0  0  0  0  0
    3.2110   -1.8640   -1.3120 C   0  0  0  0  0  0  0  0  0  0  0  0
    2.0040   -1.1900   -1.2850 C   0  0  0  0  0  0  0  0  0  0  0  0
    0.8590   -1.6290   -2.1520 C   0  0  0  0  0  0  0  0  0  0  0  0
    1.7980   -0.0960   -0.4710 C   0  0  0  0  0  0  0  0  0  0  0  0
    0.5240    0.5640   -0.4850 N   0  0  0  0  0  0  0  0  0  0  0  0
   -0.4590    0.2120    0.3600 C   0  0  0  0  0  0  0  0  0  0  0  0
   -0.2390   -0.8840    1.3380 C   0  0  0  0  0  0  0  0  0  0  0  0
   -1.6840    0.8740    0.3200 C   0  0  0  0  0  0  0  0  0  0  0  0
   -1.9220    1.8940   -0.5720 C   0  0  0  0  0  0  0  0  0  0  0  0
   -3.1260    2.5400   -0.6020 O   0  0  0  0  0  0  0  0  0  0  0  0
   -4.2560    2.3260    0.1590 C   0  0  0  0  0  0  0  0  0  0  0  0
   -4.8590    0.9960   -0.0750 C   0  0  0  0  0  0  0  0  0  0  0  0
   -4.4050    0.1060   -1.0220 C   0  0  0  0  0  0  0  0  0  0  0  0
   -5.0220   -1.1300   -1.2380 C   0  0  0  0  0  0  0  0  0  0  0  0
   -6.1180   -1.4600   -0.4780 C   0  0  0  0  0  0  0  0  0  0  0  0
   -6.7610   -2.6590   -0.6490 F   0  0  0  0  0  0  0  0  0  0  0  0
   -6.6080   -0.5910    0.4860 C   0  0  0  0  0  0  0  0  0  0  0  0
   -5.9800    0.6190    0.6780 C   0  0  0  0  0  0  0  0  0  0  0  0
   -6.4120    1.5020    1.6000 F   0  0  0  0  0  0  0  0  0  0  0  0
   -0.9090    2.2480   -1.4340 C   0  0  0  0  0  0  0  0  0  0  0  0
   -1.1650    3.6630   -2.7100 Br  0  0  0  0  0  0  0  0  0  0  0  0
    0.2800    1.5610   -1.3510 C   0  0  0  0  0  0  0  0  0  0  0  0
    1.2110    1.8780   -2.1350 O   0  0  0  0  0  0  0  0  0  0  0  0
    2.8360    0.3210    0.3300 C   0  0  0  0  0  0  0  0  0  0  0  0
  1  2  1  0
  2  3  1  0
  3  4  2  0
  3  5  1  0
  5  6  2  0
  5 30  1  0
  6  7  1  0
  7  8  2  0
  8  9  1  0
  8 10  1  0
 10 11  1  0
 10 30  2  0
 11 12  1  0
 11 28  1  0
 12 13  1  0
 12 14  2  0
 14 15  1  0
 15 16  1  0
 15 26  2  0
 16 17  1  0
 17 18  1  0
 18 19  2  0
 18 24  1  0
 19 20  1  0
 20 21  2  0
 21 22  1  0
 21 23  1  0
 23 24  2  0
 24 25  1  0
 26 27  1  0
 26 28  1  0
 28 29  2  0
M  END
