
     RDKit          3D

 31 34  0  0  0  0  0  0  0  0999 V2000
   -7.8270   -1.6170   -1.5820 O   0  0  0  0  0  0  0  0  0  0  0  0
   -7.6400   -0.5320   -0.9890 C   0  0  0  0  0  0  0  0  0  0  0  0
   -8.7520    0.3760   -0.8410 N   0  0  0  0  0  0  0  0  0  0  0  0
   -8.6010    1.5480   -0.0900 N   0  0  0  0  0  0  0  0  0  0  0  0
   -7.6400    1.3900    0.9630 C   0  0  0  0  0  0  0  0  0  0  0  0
   -6.2930    0.8980    0.4970 C   0  0  0  0  0  0  0  0  0  0  0  0
   -6.3790   -0.1620   -0.4590 N   0  0  0  0  0  0  0  0  0  0  0  0
   -5.2030   -0.8450   -0.8810 C   0  0  0  0  0  0  0  0  0  0  0  0
   -5.2810   -1.7790   -1.7220 O   0  0  0  0  0  0  0  0  0  0  0  0
   -3.9390   -0.4740   -0.3540 N   0  0  0  0  0  0  0  0  0  0  0  0
   -2.6850   -1.0360   -0.6590 C   0  0  0  0  0  0  0  0  0  0  0  0
   -2.5830   -2.0250   -1.5980 C   0  0  0  0  0  0  0  0  0  0  0  0
   -1.3170   -2.5440   -1.8720 C   0  0  0  0  0  0  0  0  0  0  0  0
   -0.1950   -2.1000   -1.2390 C   0  0  0  0  0  0  0  0  0  0  0  0
   -0.3220   -1.1020   -0.2950 C   0  0  0  0  0  0  0  0  0  0  0  0
    0.8060   -0.6440    0.3550 C   0  0  0  0  0  0  0  0  0  0  0  0
    2.4160   -1.3480   -0.0330 S   0  0  0  0  0  0  0  0  0  0  0  0
    3.1600   -0.3850   -1.3740 C   0  0  0  0  0  0  0  0  0  0  0  0
    3.4820    1.0260   -0.9340 C   0  0  0  0  0  0  0  0  0  0  0  0
    4.4160    0.9750    0.1740 N   0  0  0  0  0  0  0  0  0  0  0  0
    5.4720    0.0790   -0.1630 C   0  0  0  0  0  0  0  0  0  0  0  0
    6.7290    0.3260    0.5570 C   0  0  0  0  0  0  0  0  0  0  0  0
    7.3070   -0.5660    1.3450 C   0  0  0  0  0  0  0  0  0  0  0  0
    8.5620   -0.0320    1.9330 C   0  0  0  0  0  0  0  0  0  0  0  0
    8.6190    1.3220    1.3530 C   0  0  0  0  0  0  0  0  0  0  0  0
    7.5710    1.5200    0.5700 C   0  0  0  0  0  0  0  0  0  0  0  0
    7.1630    2.9580   -0.3550 Cl  0  0  0  0  0  0  0  0  0  0  0  0
    0.7010    0.3330    1.2850 C   0  0  0  0  0  0  0  0  0  0  0  0
   -0.4990    0.8920    1.6100 C   0  0  0  0  0  0  0  0  0  0  0  0
   -1.6390    0.4210    0.9450 C   0  0  0  0  0  0  0  0  0  0  0  0
   -1.5540   -0.5640    0.0030 C   0  0  0  0  0  0  0  0  0  0  0  0
  1  2  2  0
  2  3  1  0
  2  7  1  0
  3  4  1  0
  4  5  1  0
  5  6  1  0
  6  7  1  0
  7  8  1  0
  8  9  2  0
  8 10  1  0
 10 11  1  0
 11 12  2  0
 11 31  1  0
 12 13  1  0
 13 14  2  0
 14 15  1  0
 15 16  2  0
 15 31  1  0
 16 17  1  0
 16 28  1  0
 17 18  1  0
 18 19  1  0
 19 20  1  0
 20 21  1  0
 21 22  1  0
 22 23  2  0
 22 26  1  0
 23 24  1  0
 24 25  1  0
 25 26  2  0
 26 27  1  0
 28 29  2  0
 29 30  1  0
 30 31  2  0
M  CHG  1  20   1
M  END
