
     RDKit          3D

 30 32  0  0  0  0  0  0  0  0999 V2000
    0.5600   -0.2090   -2.9470 C   0  0  0  0  0  0  0  0  0  0  0  0
    0.5120   -1.2150   -2.0610 C   0  0  0  0  0  0  0  0  0  0  0  0
   -0.1520   -2.4630   -2.4060 C   0  0  0  0  0  0  0  0  0  0  0  0
   -0.8010   -3.1650   -1.6030 N   0  0  0  0  0  0  0  0  0  0  0  0
   -1.1390   -3.1040   -0.2550 C   0  0  0  0  0  0  0  0  0  0  0  0
   -0.6210   -3.9940    0.6850 C   0  0  0  0  0  0  0  0  0  0  0  0
   -0.9580   -3.9650    1.9850 N   0  0  0  0  0  0  0  0  0  0  0  0
   -1.8180   -3.0790    2.4820 C   0  0  0  0  0  0  0  0  0  0  0  0
   -2.3640   -2.1710    1.5920 C   0  0  0  0  0  0  0  0  0  0  0  0
   -2.0520   -2.1570    0.2510 C   0  0  0  0  0  0  0  0  0  0  0  0
   -2.7230   -1.1590   -0.5870 C   0  0  0  0  0  0  0  0  0  0  0  0
   -2.1690    0.1560   -0.4240 N   0  0  0  0  0  0  0  0  0  0  0  0
   -2.6820    0.8370    0.7280 C   0  0  0  0  0  0  0  0  0  0  0  0
   -2.8310    2.3360    0.5670 C   0  0  0  0  0  0  0  0  0  0  0  0
   -1.6970    2.9090   -0.1820 N   0  0  0  0  0  0  0  0  0  0  0  0
   -1.7130    2.2820   -1.5270 C   0  0  0  0  0  0  0  0  0  0  0  0
   -2.4800    1.0060   -1.5620 C   0  0  0  0  0  0  0  0  0  0  0  0
   -0.7750    3.8410    0.2760 C   0  0  0  0  0  0  0  0  0  0  0  0
   -0.7660    5.1380    0.1790 O   0  0  0  0  0  0  0  0  0  0  0  0
    0.4000    3.3880    0.9910 N   0  0  0  0  0  0  0  0  0  0  0  0
    1.3010    2.3720    0.5290 C   0  0  0  0  0  0  0  0  0  0  0  0
    1.4580    1.2570    1.4810 C   0  0  0  0  0  0  0  0  0  0  0  0
    0.5200    1.1380    2.3430 O   0  0  0  0  0  0  0  0  0  0  0  0
    2.5130    0.3370    1.5290 N   0  0  0  0  0  0  0  0  0  0  0  0
    3.2050   -0.2280    0.4330 C   0  0  0  0  0  0  0  0  0  0  0  0
    4.4710   -0.5750    0.5580 C   0  0  0  0  0  0  0  0  0  0  0  0
    5.1980   -0.3760    1.8650 C   0  0  0  0  0  0  0  0  0  0  0  0
    5.1140   -1.1130   -0.5020 F   0  0  0  0  0  0  0  0  0  0  0  0
    2.5550   -0.4580   -0.8950 C   0  0  0  0  0  0  0  0  0  0  0  0
    1.1630   -0.9880   -0.7480 C   0  0  0  0  0  0  0  0  0  0  0  0
  1  2  2  0
  2  3  1  0
  2 30  1  0
  3  4  2  0
  4  5  1  0
  5  6  2  0
  5 10  1  0
  6  7  1  0
  7  8  2  0
  8  9  1  0
  9 10  2  0
 10 11  1  0
 11 12  1  0
 12 13  1  0
 12 17  1  0
 13 14  1  0
 14 15  1  0
 15 16  1  0
 15 18  1  0
 16 17  1  0
 18 19  2  0
 18 20  1  0
 20 21  1  0
 21 22  1  0
 22 23  2  0
 22 24  1  0
 24 25  1  0
 25 26  2  3
 25 29  1  0
 26 27  1  0
 26 28  1  0
 29 30  1  0
M  END
