
     RDKit          3D

 31 34  0  0  0  0  0  0  0  0999 V2000
   -5.6470   -1.7590   -1.0850 C   0  0  0  0  0  0  0  0  0  0  0  0
   -4.4700   -1.5640   -0.1820 C   0  0  2  0  0  0  0  0  0  0  0  0
   -4.3200   -2.7290    0.7630 C   0  0  0  0  0  0  0  0  0  0  0  0
   -4.5240   -0.2420    0.5800 C   0  0  0  0  0  0  0  0  0  0  0  0
   -3.1380    0.2720    0.7080 C   0  0  2  0  0  0  0  0  0  0  0  0
   -2.9280    1.7240    0.4890 C   0  0  0  0  0  0  0  0  0  0  0  0
   -3.6130    2.6520    1.4010 C   0  0  0  0  0  0  0  0  0  0  0  0
   -5.0920    2.6330    1.4860 C   0  0  0  0  0  0  0  0  0  0  0  0
   -5.6710    3.9260    2.6240 Cl  0  0  0  0  0  0  0  0  0  0  0  0
   -2.3170   -0.5680   -0.2100 C   0  0  2  0  0  0  0  0  0  0  0  0
   -1.4500    0.2120   -1.1710 C   0  0  0  0  0  0  0  0  0  0  0  0
   -0.7200   -0.7490   -1.9930 N   0  0  0  0  0  0  0  0  0  0  0  0
    0.2850   -1.3260   -1.1740 C   0  0  0  0  0  0  0  0  0  0  0  0
    0.1010   -2.4030   -0.5570 O   0  0  0  0  0  0  0  0  0  0  0  0
    1.5670   -0.6570   -1.0400 C   0  0  0  0  0  0  0  0  0  0  0  0
    2.6130   -1.1110   -0.2810 C   0  0  0  0  0  0  0  0  0  0  0  0
    3.6460   -0.2070   -0.4110 C   0  0  0  0  0  0  0  0  0  0  0  0
    4.9310   -0.3660    0.2600 C   0  0  0  0  0  0  0  0  0  0  0  0
    5.2470   -1.4200    1.0780 N   0  0  0  0  0  0  0  0  0  0  0  0
    6.4770   -1.2460    1.5110 C   0  0  0  0  0  0  0  0  0  0  0  0
    7.1000   -2.0340    2.2950 O   0  0  0  0  0  0  0  0  0  0  0  0
    7.0260   -0.1260    1.0350 N   0  0  0  0  0  0  0  0  0  0  0  0
    8.2260    0.4530    1.1940 C   0  0  0  0  0  0  0  0  0  0  0  0
    9.3840   -0.2310    2.1470 S   0  0  0  0  0  0  0  0  0  0  0  0
    8.5210    1.6120    0.5790 N   0  0  0  0  0  0  0  0  0  0  0  0
    7.6160    2.2090   -0.2060 C   0  0  0  0  0  0  0  0  0  0  0  0
    6.3610    1.6160   -0.3810 C   0  0  0  0  0  0  0  0  0  0  0  0
    6.0640    0.4230    0.2550 C   0  0  0  0  0  0  0  0  0  0  0  0
    3.1910    0.7570   -1.2390 C   0  0  0  0  0  0  0  0  0  0  0  0
    1.8980    0.4880   -1.6370 N   0  0  0  0  0  0  0  0  0  0  0  0
   -3.2250   -1.4360   -1.0470 C   0  0  0  0  0  0  0  0  0  0  0  0
  2  1  1  6
  2  3  1  0
  2  4  1  0
  2 31  1  0
  4  5  1  0
  5  6  1  6
  5 10  1  0
  6  7  1  0
  7  8  1  0
  8  9  1  0
 10 11  1  6
 10 31  1  0
 11 12  1  0
 12 13  1  0
 13 14  2  0
 13 15  1  0
 15 16  2  0
 15 30  1  0
 16 17  1  0
 17 18  1  0
 17 29  2  0
 18 19  1  0
 18 28  2  0
 19 20  1  0
 20 21  2  0
 20 22  1  0
 22 23  1  0
 22 28  1  0
 23 24  2  0
 23 25  1  0
 25 26  1  0
 26 27  2  0
 27 28  1  0
 29 30  1  0
M  CHG  1  12   1
M  END
