
     RDKit          3D

 27 29  0  0  0  0  0  0  0  0999 V2000
   -2.1220   -3.0200    2.6530 C   0  0  0  0  0  0  0  0  0  0  0  0
   -1.2880   -1.9430    1.9940 C   0  0  0  0  0  0  0  0  0  0  0  0
   -0.9200   -0.6380    3.0750 Cl  0  0  0  0  0  0  0  0  0  0  0  0
   -1.0060   -2.0980    0.7380 C   0  0  0  0  0  0  0  0  0  0  0  0
   -1.5420   -3.3250    0.0850 C   0  0  0  0  0  0  0  0  0  0  0  0
   -1.2180   -3.9660   -0.9810 N   0  0  0  0  0  0  0  0  0  0  0  0
   -0.1720   -3.6470   -1.9000 C   0  0  0  0  0  0  0  0  0  0  0  0
    0.5350   -2.5210   -1.9730 C   0  0  0  0  0  0  0  0  0  0  0  0
    0.4620   -1.3330   -1.1770 C   0  0  0  0  0  0  0  0  0  0  0  0
   -0.2020   -1.1410    0.0050 C   0  0  0  0  0  0  0  0  0  0  0  0
   -0.0180    0.1340    0.5410 N   0  0  0  0  0  0  0  0  0  0  0  0
    1.1300    0.5030    1.3320 C   0  0  0  0  0  0  0  0  0  0  0  0
    2.2300    1.2410    0.5690 C   0  0  0  0  0  0  0  0  0  0  0  0
    2.8950    0.4720   -0.3790 N   0  0  0  0  0  0  0  0  0  0  0  0
    3.7360   -0.5770    0.1550 C   0  0  0  0  0  0  0  0  0  0  0  0
    4.9750    0.1240    0.7250 C   0  0  0  0  0  0  0  0  0  0  0  0
    5.4440    1.0850   -0.1870 O   0  0  0  0  0  0  0  0  0  0  0  0
    4.9700    0.8520   -1.4810 C   0  0  0  0  0  0  0  0  0  0  0  0
    3.4470    1.0120   -1.5580 C   0  0  0  0  0  0  0  0  0  0  0  0
   -0.8900    1.2240    0.2270 C   0  0  0  0  0  0  0  0  0  0  0  0
   -2.2100    1.0410   -0.3540 C   0  0  2  0  0  0  0  0  0  0  0  0
   -2.3440    0.3390   -1.6600 C   0  0  0  0  0  0  0  0  0  0  0  0
   -1.6490    0.9690   -2.6730 O   0  0  0  0  0  0  0  0  0  0  0  0
   -2.6900    2.5110   -0.6810 C   0  0  0  0  0  0  0  0  0  0  0  0
   -3.2790    2.9670    0.6310 C   0  0  0  0  0  0  0  0  0  0  0  0
   -3.4510    1.8250    1.4900 N   0  0  0  0  0  0  0  0  0  0  0  0
   -3.3520    0.7040    0.5700 C   0  0  0  0  0  0  0  0  0  0  0  0
  1  2  1  0
  2  3  1  0
  2  4  2  3
  4  5  1  0
  4 10  1  0
  5  6  2  0
  6  7  1  0
  7  8  2  0
  8  9  1  0
  9 10  2  0
 10 11  1  0
 11 12  1  0
 11 20  1  0
 12 13  1  0
 13 14  1  0
 14 15  1  0
 14 19  1  0
 15 16  1  0
 16 17  1  0
 17 18  1  0
 18 19  1  0
 21 20  1  1
 21 22  1  0
 21 24  1  0
 21 27  1  0
 22 23  1  0
 24 25  1  0
 25 26  1  0
 26 27  1  0
M  CHG  1  26   1
M  END
