
     RDKit          3D

 26 29  0  0  0  0  0  0  0  0999 V2000
   -4.1770    2.2430    2.3460 C   0  0  0  0  0  0  0  0  0  0  0  0
   -3.1060    1.4160    1.6450 C   0  0  1  0  0  0  0  0  0  0  0  0
   -2.4220    0.5720    2.5830 N   0  0  0  0  0  0  0  0  0  0  0  0
   -3.7640    0.5070    0.6290 C   0  0  0  0  0  0  0  0  0  0  0  0
   -5.1460    0.3930    0.6430 C   0  0  0  0  0  0  0  0  0  0  0  0
   -5.7440   -0.4440   -0.2710 C   0  0  0  0  0  0  0  0  0  0  0  0
   -5.0050   -1.1240   -1.1450 N   0  0  0  0  0  0  0  0  0  0  0  0
   -3.6780   -1.0020   -1.1450 N   0  0  0  0  0  0  0  0  0  0  0  0
   -3.0380   -0.2150   -0.2950 C   0  0  0  0  0  0  0  0  0  0  0  0
   -1.6480   -0.0890   -0.3020 N   0  0  0  0  0  0  0  0  0  0  0  0
   -0.6190   -0.6660   -1.0910 C   0  0  1  0  0  0  0  0  0  0  0  0
    0.7260   -0.2410   -0.5310 C   0  0  0  0  0  0  0  0  0  0  0  0
    0.7690    0.5070    0.4450 O   0  0  0  0  0  0  0  0  0  0  0  0
    1.9120   -0.7100   -1.1390 N   0  0  0  0  0  0  0  0  0  0  0  0
    3.2180   -0.3640   -0.6720 C   0  0  0  0  0  0  0  0  0  0  0  0
    4.3930   -0.8180   -1.2590 C   0  0  0  0  0  0  0  0  0  0  0  0
    5.4560   -0.2890   -0.5500 C   0  0  0  0  0  0  0  0  0  0  0  0
    6.7910   -0.4040   -0.6870 N   0  0  0  0  0  0  0  0  0  0  0  0
    7.6440    0.2130    0.1380 C   0  0  0  0  0  0  0  0  0  0  0  0
    7.1450    1.0010    1.1740 C   0  0  0  0  0  0  0  0  0  0  0  0
    5.7830    1.1320    1.3320 C   0  0  0  0  0  0  0  0  0  0  0  0
    4.9420    0.4810    0.4620 C   0  0  0  0  0  0  0  0  0  0  0  0
    3.5820    0.4070    0.3500 N   0  0  0  0  0  0  0  0  0  0  0  0
   -0.5710   -2.1140   -1.3700 C   0  0  0  0  0  0  0  0  0  0  0  0
   -0.5970   -1.8470   -2.8500 C   0  0  0  0  0  0  0  0  0  0  0  0
   -0.7310   -0.3810   -2.5590 C   0  0  0  0  0  0  0  0  0  0  0  0
  2  1  1  1
  2  3  1  0
  2  4  1  0
  4  5  2  0
  4  9  1  0
  5  6  1  0
  6  7  2  0
  7  8  1  0
  8  9  2  0
  9 10  1  0
 11 10  1  1
 11 12  1  0
 11 24  1  0
 11 26  1  0
 12 13  2  0
 12 14  1  0
 14 15  1  0
 15 16  2  0
 15 23  1  0
 16 17  1  0
 17 18  2  0
 17 22  1  0
 18 19  1  0
 19 20  2  0
 20 21  1  0
 21 22  2  0
 22 23  1  0
 24 25  1  0
 25 26  1  0
M  CHG  2   3   1   8   1
M  END
