
     RDKit          3D

 26 29  0  0  0  0  0  0  0  0999 V2000
   -7.3590    0.7010    0.7450 N   0  0  0  0  0  0  0  0  0  0  0  0
   -6.0690    0.1970    0.4530 C   0  0  0  0  0  0  0  0  0  0  0  0
   -4.9340    0.7380    1.0010 C   0  0  0  0  0  0  0  0  0  0  0  0
   -3.6600    0.2420    0.7140 C   0  0  0  0  0  0  0  0  0  0  0  0
   -3.5530   -0.8160   -0.1440 C   0  0  0  0  0  0  0  0  0  0  0  0
   -2.3040   -1.3680   -0.4470 N   0  0  0  0  0  0  0  0  0  0  0  0
   -1.0910   -0.7430   -0.0100 C   0  0  0  0  0  0  0  0  0  0  0  0
   -0.8510    0.4890   -0.8370 C   0  0  0  0  0  0  0  0  0  0  0  0
    0.3510    1.1690   -0.4280 N   0  0  0  0  0  0  0  0  0  0  0  0
    1.6410    0.5400   -0.4870 C   0  0  0  0  0  0  0  0  0  0  0  0
    1.6870   -0.6290   -0.9100 O   0  0  0  0  0  0  0  0  0  0  0  0
    2.8310    1.1890   -0.0890 N   0  0  0  0  0  0  0  0  0  0  0  0
    4.1370    0.6800   -0.1070 C   0  0  0  0  0  0  0  0  0  0  0  0
    4.4720   -0.5220   -0.6350 C   0  0  0  0  0  0  0  0  0  0  0  0
    5.8090   -0.9800   -0.6110 C   0  0  0  0  0  0  0  0  0  0  0  0
    6.7730   -0.1870   -0.0430 C   0  0  0  0  0  0  0  0  0  0  0  0
    8.1430   -0.3170    0.1470 C   0  0  0  0  0  0  0  0  0  0  0  0
    8.6320    0.8000    0.7870 C   0  0  0  0  0  0  0  0  0  0  0  0
    7.5770    1.6060    0.9870 N   0  0  0  0  0  0  0  0  0  0  0  0
    6.4530    1.0360    0.4980 C   0  0  0  0  0  0  0  0  0  0  0  0
    5.1390    1.4460    0.4550 C   0  0  0  0  0  0  0  0  0  0  0  0
   -4.6810   -1.3740   -0.7060 C   0  0  0  0  0  0  0  0  0  0  0  0
   -4.8820   -2.4080   -1.5710 N   0  0  0  0  0  0  0  0  0  0  0  0
   -6.1690   -2.5500   -1.8070 N   0  0  0  0  0  0  0  0  0  0  0  0
   -6.8570   -1.6090   -1.1000 C   0  0  0  0  0  0  0  0  0  0  0  0
   -5.9230   -0.8690   -0.4070 C   0  0  0  0  0  0  0  0  0  0  0  0
  1  2  1  0
  2  3  2  0
  2 26  1  0
  3  4  1  0
  4  5  2  0
  5  6  1  0
  5 22  1  0
  6  7  1  0
  7  8  1  0
  8  9  1  0
  9 10  1  0
 10 11  2  0
 10 12  1  0
 12 13  1  0
 13 14  2  0
 13 21  1  0
 14 15  1  0
 15 16  2  0
 16 17  1  0
 16 20  1  0
 17 18  2  0
 18 19  1  0
 19 20  1  0
 20 21  2  0
 22 23  1  0
 22 26  2  0
 23 24  1  0
 24 25  2  0
 25 26  1  0
M  CHG  1   1   1
M  END
