
     RDKit          3D

 27 29  0  0  0  0  0  0  0  0999 V2000
   -5.5390    2.6960   -0.8270 C   0  0  0  0  0  0  0  0  0  0  0  0
   -4.4690    1.8160   -0.6560 O   0  0  0  0  0  0  0  0  0  0  0  0
   -4.6220    0.5030   -0.1890 C   0  0  0  0  0  0  0  0  0  0  0  0
   -5.8890    0.1030    0.1010 C   0  0  0  0  0  0  0  0  0  0  0  0
   -6.1130   -1.1610    0.5600 C   0  0  0  0  0  0  0  0  0  0  0  0
   -5.0380   -2.0100    0.7200 C   0  0  0  0  0  0  0  0  0  0  0  0
   -5.2880   -3.6650    1.3140 Cl  0  0  0  0  0  0  0  0  0  0  0  0
   -3.7550   -1.6070    0.4270 C   0  0  0  0  0  0  0  0  0  0  0  0
   -3.5390   -0.3350   -0.0340 C   0  0  0  0  0  0  0  0  0  0  0  0
   -2.3200    0.1670   -0.3530 O   0  0  0  0  0  0  0  0  0  0  0  0
   -1.0620   -0.4180   -0.3070 C   0  0  1  0  0  0  0  0  0  0  0  0
   -0.3040   -0.3160   -1.6130 C   0  0  0  0  0  0  0  0  0  0  0  0
   -0.4970    1.0630   -2.1690 C   0  0  0  0  0  0  0  0  0  0  0  0
   -0.5650    2.1600   -1.1940 C   0  0  0  0  0  0  0  0  0  0  0  0
   -0.5170    1.8490    0.2480 C   0  0  0  0  0  0  0  0  0  0  0  0
   -0.2280    0.4560    0.6490 C   0  0  2  0  0  0  0  0  0  0  0  0
    1.1110    0.0550    0.7380 N   0  0  0  0  0  0  0  0  0  0  0  0
    1.3580   -1.2110    1.2390 C   0  0  0  0  0  0  0  0  0  0  0  0
    2.1470   -1.3480    2.5140 C   0  0  0  0  0  0  0  0  0  0  0  0
    3.5840   -1.3260    2.1270 C   0  0  0  0  0  0  0  0  0  0  0  0
    4.3970   -2.0920    2.7750 N   0  0  0  0  0  0  0  0  0  0  0  0
    4.1300   -0.5160    1.0860 N   0  0  0  0  0  0  0  0  0  0  0  0
    3.4370    0.2570    0.1000 C   0  0  0  0  0  0  0  0  0  0  0  0
    3.9850    0.3750   -1.0950 C   0  0  0  0  0  0  0  0  0  0  0  0
    5.2460   -0.2170   -1.5100 C   0  0  0  0  0  0  0  0  0  0  0  0
    6.1410    0.8790   -1.8950 N   0  0  0  0  0  0  0  0  0  0  0  0
    2.1340    0.9260    0.3550 C   0  0  0  0  0  0  0  0  0  0  0  0
  1  2  1  0
  2  3  1  0
  3  4  2  0
  3  9  1  0
  4  5  1  0
  5  6  2  0
  6  7  1  0
  6  8  1  0
  8  9  2  0
  9 10  1  0
 11 10  1  6
 11 12  1  0
 11 16  1  0
 12 13  1  0
 13 14  1  0
 14 15  1  0
 15 16  1  0
 16 17  1  6
 17 18  1  0
 17 27  1  0
 18 19  1  0
 19 20  1  0
 20 21  2  0
 20 22  1  0
 22 23  1  0
 23 24  2  3
 23 27  1  0
 24 25  1  0
 25 26  1  0
M  CHG  1  21   1
M  END
