
     RDKit          3D

 26 29  0  0  0  0  0  0  0  0999 V2000
    0.6380    1.7540    2.1100 N   0  0  0  0  0  0  0  0  0  0  0  0
    1.2760    1.2240    0.9690 C   0  0  0  0  0  0  0  0  0  0  0  0
    2.4720    1.7780    0.5810 N   0  0  0  0  0  0  0  0  0  0  0  0
    2.8610    1.1150   -0.5130 C   0  0  0  0  0  0  0  0  0  0  0  0
    1.9300    0.1400   -0.8340 C   0  0  0  0  0  0  0  0  0  0  0  0
    2.3630   -0.5120   -1.9610 C   0  0  0  0  0  0  0  0  0  0  0  0
    3.5430    0.0700   -2.3060 N   0  0  0  0  0  0  0  0  0  0  0  0
    3.8350    1.0230   -1.4590 N   0  0  0  0  0  0  0  0  0  0  0  0
    4.9930    1.8900   -1.4570 C   0  0  0  0  0  0  0  0  0  0  0  0
    6.1220    1.2790   -0.6480 C   0  0  0  0  0  0  0  0  0  0  0  0
    5.7340    1.0760    0.6730 O   0  0  0  0  0  0  0  0  0  0  0  0
    0.9680    0.2410    0.1060 N   0  0  0  0  0  0  0  0  0  0  0  0
   -0.2360   -0.5560    0.2000 C   0  0  2  0  0  0  0  0  0  0  0  0
   -0.3690   -0.9860    1.6320 C   0  0  0  0  0  0  0  0  0  0  0  0
    0.3010   -2.2800    1.7560 N   0  0  0  0  0  0  0  0  0  0  0  0
    0.9200   -2.5340    0.4480 C   0  0  0  0  0  0  0  0  0  0  0  0
   -0.1290   -1.9140   -0.4440 C   0  0  1  0  0  0  0  0  0  0  0  0
   -1.4080   -2.7110   -0.1450 C   0  0  0  0  0  0  0  0  0  0  0  0
   -2.3910   -2.6700   -1.2690 C   0  0  0  0  0  0  0  0  0  0  0  0
   -3.6210   -1.8820   -1.0060 C   0  0  0  0  0  0  0  0  0  0  0  0
   -3.6190   -1.0730    0.2440 C   0  0  0  0  0  0  0  0  0  0  0  0
   -2.6820    0.1150    0.1380 C   0  0  0  0  0  0  0  0  0  0  0  0
   -3.2840    1.1730    0.6020 C   0  0  0  0  0  0  0  0  0  0  0  0
   -2.7590    2.5420    0.6930 C   0  0  0  0  0  0  0  0  0  0  0  0
   -3.5880    3.4800   -0.0810 N   0  0  0  0  0  0  0  0  0  0  0  0
   -1.3380    0.2700   -0.3760 C   0  0  0  0  0  0  0  0  0  0  0  0
  1  2  1  0
  2  3  2  0
  2 12  1  0
  3  4  1  0
  4  5  2  0
  4  8  1  0
  5  6  1  0
  5 12  1  0
  6  7  2  0
  7  8  1  0
  8  9  1  0
  9 10  1  0
 10 11  1  0
 13 12  1  1
 13 14  1  0
 13 17  1  0
 13 26  1  0
 14 15  1  0
 15 16  1  0
 17 16  1  1
 17 18  1  0
 18 19  1  0
 19 20  1  0
 20 21  1  0
 21 22  1  0
 22 23  2  3
 22 26  1  0
 23 24  1  0
 24 25  1  0
M  CHG  2  15   1  25   1
M  END
