
     RDKit          3D

 16 18  0  0  0  0  0  0  0  0999 V2000
    5.7320    1.7430   -0.4550 Cl  0  0  0  0  0  0  0  0  0  0  0  0
    4.1520    1.0210   -0.2490 C   0  0  0  0  0  0  0  0  0  0  0  0
    3.0440    1.8200   -0.1270 C   0  0  0  0  0  0  0  0  0  0  0  0
    1.7970    1.2260    0.0360 C   0  0  0  0  0  0  0  0  0  0  0  0
    1.6650   -0.1410    0.0750 C   0  0  0  0  0  0  0  0  0  0  0  0
    0.4100   -0.6840    0.2380 C   0  0  0  0  0  0  0  0  0  0  0  0
   -0.7830    0.0660    0.3720 N   0  0  0  0  0  0  0  0  0  0  0  0
   -2.0560   -0.6560    0.5400 C   0  0  0  0  0  0  0  0  0  0  0  0
   -3.2080    0.3110    0.6640 C   0  0  1  0  0  0  0  0  0  0  0  0
   -3.3810    1.2280   -0.5600 C   0  0  0  0  0  0  0  0  0  0  0  0
   -4.3880    0.1720   -0.2420 C   0  0  0  0  0  0  0  0  0  0  0  0
    0.3300   -2.0360    0.2710 N   0  0  0  0  0  0  0  0  0  0  0  0
    1.4300   -2.8010    0.1500 C   0  0  0  0  0  0  0  0  0  0  0  0
    2.6560   -2.2740   -0.0090 N   0  0  0  0  0  0  0  0  0  0  0  0
    2.7960   -0.9410   -0.0490 C   0  0  0  0  0  0  0  0  0  0  0  0
    4.0380   -0.3450   -0.2120 C   0  0  0  0  0  0  0  0  0  0  0  0
  1  2  1  0
  2  3  2  0
  2 16  1  0
  3  4  1  0
  4  5  2  0
  5  6  1  0
  5 15  1  0
  6  7  1  0
  6 12  2  0
  7  8  1  0
  9  8  1  6
  9 10  1  0
  9 11  1  0
 10 11  1  0
 12 13  1  0
 13 14  2  0
 14 15  1  0
 15 16  2  0
M  END
