
     RDKit          3D

 31 32  0  0  0  0  0  0  0  0999 V2000
    0.5030   -1.1840    2.0790 C   0  0  0  0  0  0  0  0  0  0  0  0
    0.1740   -1.3240    0.6040 C   0  0  2  0  0  0  0  0  0  0  0  0
    1.3490   -1.4610   -0.0660 O   0  0  0  0  0  0  0  0  0  0  0  0
    1.5090   -2.5180   -0.8770 C   0  0  2  0  0  0  0  0  0  0  0  0
    0.5570   -3.6560   -0.7210 C   0  0  0  0  0  0  0  0  0  0  0  0
    0.5900   -4.2220    0.5530 O   0  0  0  0  0  0  0  0  0  0  0  0
    2.9210   -3.0720   -0.6860 C   0  0  0  0  0  0  0  0  0  0  0  0
    3.8380   -2.1840   -1.4280 C   0  0  0  0  0  0  0  0  0  0  0  0
    4.4090   -2.6310   -2.4520 O   0  0  0  0  0  0  0  0  0  0  0  0
    4.0700   -0.8980   -1.0180 O   0  0  0  0  0  0  0  0  0  0  0  0
    4.2120   -0.4670    0.3090 C   0  0  0  0  0  0  0  0  0  0  0  0
    3.4850    0.6930    0.5710 O   0  0  0  0  0  0  0  0  0  0  0  0
    3.5170    1.5280   -0.5500 C   0  0  2  0  0  0  0  0  0  0  0  0
    4.8610    1.8840   -0.7840 O   0  0  0  0  0  0  0  0  0  0  0  0
    2.7510    2.7880   -0.3080 C   0  0  2  0  0  0  0  0  0  0  0  0
    3.6570    3.7860    0.3680 C   0  0  0  0  0  0  0  0  0  0  0  0
    2.9650    4.9870    0.5210 O   0  0  0  0  0  0  0  0  0  0  0  0
    1.6300    2.6090    0.5020 O   0  0  0  0  0  0  0  0  0  0  0  0
    0.5850    1.9960   -0.1460 C   0  0  0  0  0  0  0  0  0  0  0  0
   -0.2010    1.0530    0.7660 C   0  0  0  0  0  0  0  0  0  0  0  0
   -0.5450   -0.1560    0.1020 N   0  0  2  0  0  0  0  0  0  0  0  0
   -1.9720   -0.4030    0.0190 C   0  0  1  0  0  0  0  0  0  0  0  0
   -2.5960   -0.7380    1.3320 C   0  0  0  0  0  0  0  0  0  0  0  0
   -4.0750   -1.0290    1.0350 C   0  0  1  0  0  0  0  0  0  0  0  0
   -4.7030   -1.6330    2.0960 O   0  0  0  0  0  0  0  0  0  0  0  0
   -4.6700    0.3330    0.7030 C   0  0  0  0  0  0  0  0  0  0  0  0
   -4.1170    0.7290   -0.6400 C   0  0  1  0  0  0  0  0  0  0  0  0
   -4.7000   -0.1000   -1.5930 O   0  0  0  0  0  0  0  0  0  0  0  0
   -4.6080    2.1480   -0.9350 C   0  0  0  0  0  0  0  0  0  0  0  0
   -4.2320    2.5430   -2.2150 O   0  0  0  0  0  0  0  0  0  0  0  0
   -2.6390    0.6970   -0.7320 C   0  0  0  0  0  0  0  0  0  0  0  0
  2  1  1  1
  2  3  1  0
  2 21  1  0
  3  4  1  0
  4  5  1  1
  4  7  1  0
  5  6  1  0
  7  8  1  0
  8  9  2  0
  8 10  1  0
 10 11  1  0
 11 12  1  0
 12 13  1  0
 13 14  1  1
 13 15  1  0
 15 16  1  1
 15 18  1  0
 16 17  1  0
 18 19  1  0
 19 20  1  0
 21 20  1  1
 21 22  1  0
 22 23  1  1
 22 31  1  0
 23 24  1  0
 24 25  1  1
 24 26  1  0
 26 27  1  0
 27 28  1  6
 27 29  1  0
 27 31  1  0
 29 30  1  0
M  CHG  1  21   1
M  END
