
     RDKit          3D

 33 36  0  0  0  0  0  0  0  0999 V2000
    6.3450   -0.4660    3.4580 C   0  0  0  0  0  0  0  0  0  0  0  0
    6.5720   -0.2320    2.2350 C   0  0  0  0  0  0  0  0  0  0  0  0
    5.8650    0.1780    1.0530 C   0  0  0  0  0  0  0  0  0  0  0  0
    6.5410    0.2810    0.0120 N   0  0  0  0  0  0  0  0  0  0  0  0
    7.0730    0.4450   -1.1720 C   0  0  1  0  0  0  0  0  0  0  0  0
    8.4820    0.1860   -1.2090 F   0  0  0  0  0  0  0  0  0  0  0  0
    6.5720   -0.3540   -2.2210 F   0  0  0  0  0  0  0  0  0  0  0  0
    6.9960    1.7590   -1.6840 F   0  0  0  0  0  0  0  0  0  0  0  0
    4.4220    0.4760    1.0080 C   0  0  0  0  0  0  0  0  0  0  0  0
    3.5870    0.4030    2.0580 C   0  0  0  0  0  0  0  0  0  0  0  0
    2.2150    0.7070    1.9190 C   0  0  0  0  0  0  0  0  0  0  0  0
    1.7450    1.0810    0.6870 C   0  0  0  0  0  0  0  0  0  0  0  0
    2.5570    1.1700   -0.4130 C   0  0  0  0  0  0  0  0  0  0  0  0
    2.0300    1.5660   -1.7160 C   0  0  0  0  0  0  0  0  0  0  0  0
    0.6370    1.5820   -1.7970 O   0  0  0  0  0  0  0  0  0  0  0  0
   -0.1070    0.4350   -1.5840 C   0  0  0  0  0  0  0  0  0  0  0  0
    0.5220   -0.6220   -1.3170 O   0  0  0  0  0  0  0  0  0  0  0  0
   -1.5640    0.4180   -1.6600 C   0  0  0  0  0  0  0  0  0  0  0  0
   -2.2690   -0.6190   -1.4700 N   0  0  0  0  0  0  0  0  0  0  0  0
   -3.7130   -0.7400   -1.5180 C   0  0  1  0  0  0  0  0  0  0  0  0
   -4.2040   -1.2760   -0.2210 C   0  0  0  0  0  0  0  0  0  0  0  0
   -3.3050   -1.9260    0.6270 C   0  0  0  0  0  0  0  0  0  0  0  0
   -3.7620   -2.4540    1.8280 C   0  0  0  0  0  0  0  0  0  0  0  0
   -5.0800   -2.3460    2.1920 C   0  0  0  0  0  0  0  0  0  0  0  0
   -5.5370   -2.8580    3.3610 F   0  0  0  0  0  0  0  0  0  0  0  0
   -5.9820   -1.6950    1.3440 C   0  0  0  0  0  0  0  0  0  0  0  0
   -5.4970   -1.1810    0.1590 C   0  0  0  0  0  0  0  0  0  0  0  0
   -6.4210   -0.4400   -0.7790 C   0  0  0  0  0  0  0  0  0  0  0  0
   -5.6710    0.8320   -1.1500 C   0  0  0  0  0  0  0  0  0  0  0  0
   -4.4190    0.4820   -1.9370 C   0  0  1  0  0  0  0  0  0  0  0  0
   -3.5830    1.6200   -2.1270 N   0  0  0  0  0  0  0  0  0  0  0  0
   -2.3280    1.6230   -2.0150 C   0  0  0  0  0  0  0  0  0  0  0  0
    3.8850    0.8660   -0.2380 C   0  0  0  0  0  0  0  0  0  0  0  0
  1  2  2  0
  2  3  1  0
  3  4  2  3
  3  9  1  0
  4  5  1  0
  5  6  1  1
  5  7  1  0
  5  8  1  0
  9 10  2  0
  9 33  1  0
 10 11  1  0
 11 12  2  0
 12 13  1  0
 13 14  1  0
 13 33  2  0
 14 15  1  0
 15 16  1  0
 16 17  2  0
 16 18  1  0
 18 19  2  0
 18 32  1  0
 20 19  1  1
 20 21  1  0
 20 30  1  0
 21 22  2  0
 21 27  1  0
 22 23  1  0
 23 24  2  0
 24 25  1  0
 24 26  1  0
 26 27  2  0
 27 28  1  0
 28 29  1  0
 30 29  1  1
 30 31  1  0
 31 32  2  0
M  END
