
     RDKit          3D

 31 33  0  0  0  0  0  0  0  0999 V2000
    4.9520   -0.0500   -2.0040 O   0  0  0  0  0  0  0  0  0  0  0  0
    4.8280   -0.6390   -0.8880 C   0  0  0  0  0  0  0  0  0  0  0  0
    5.9890   -1.0600   -0.2620 O   0  0  0  0  0  0  0  0  0  0  0  0
    6.0870   -1.0040    1.1690 C   0  0  0  0  0  0  0  0  0  0  0  0
    4.9280   -0.0940    1.5970 C   0  0  1  0  0  0  0  0  0  0  0  0
    5.0680    1.0940    0.8800 O   0  0  0  0  0  0  0  0  0  0  0  0
    3.6650   -0.8380    1.2200 C   0  0  0  0  0  0  0  0  0  0  0  0
    3.5050   -0.8810   -0.2550 C   0  0  1  0  0  0  0  0  0  0  0  0
    2.5940    0.1020   -0.7800 N   0  0  0  0  0  0  0  0  0  0  0  0
    1.2630    0.0130   -0.2580 C   0  0  2  0  0  0  0  0  0  0  0  0
    0.6680   -1.3320   -0.4540 C   0  0  1  0  0  0  0  0  0  0  0  0
    0.9520   -2.1370    0.6750 O   0  0  0  0  0  0  0  0  0  0  0  0
   -0.7900   -1.3830   -0.6810 C   0  0  1  0  0  0  0  0  0  0  0  0
   -1.3830   -2.6680   -0.1350 C   0  0  0  0  0  0  0  0  0  0  0  0
   -2.8800   -2.7240   -0.3650 C   0  0  0  0  0  0  0  0  0  0  0  0
   -3.4010   -3.9170    0.1450 O   0  0  0  0  0  0  0  0  0  0  0  0
   -4.7600   -4.0120   -0.0420 C   0  0  1  0  0  0  0  0  0  0  0  0
   -5.0220   -5.1160   -0.8490 O   0  0  0  0  0  0  0  0  0  0  0  0
   -5.4510   -4.2150    1.1540 O   0  0  0  0  0  0  0  0  0  0  0  0
   -1.5810   -0.1910   -0.2750 C   0  0  1  0  0  0  0  0  0  0  0  0
   -1.8910   -0.3590    1.0980 O   0  0  0  0  0  0  0  0  0  0  0  0
   -0.9590    1.1330   -0.4590 C   0  0  1  0  0  0  0  0  0  0  0  0
   -1.7720    1.9520   -1.4290 C   0  0  0  0  0  0  0  0  0  0  0  0
   -1.7950    3.4120   -1.1520 C   0  0  0  0  0  0  0  0  0  0  0  0
   -1.7620    3.8050    0.2740 C   0  0  1  0  0  0  0  0  0  0  0  0
   -2.8910    4.7820    0.6140 C   0  0  0  0  0  0  0  0  0  0  0  0
   -2.7630    5.2040    1.9230 O   0  0  0  0  0  0  0  0  0  0  0  0
   -1.8410    2.7160    1.1240 O   0  0  0  0  0  0  0  0  0  0  0  0
   -0.7400    1.9060    0.8150 C   0  0  0  0  0  0  0  0  0  0  0  0
    0.4260    0.9830   -1.1040 C   0  0  1  0  0  0  0  0  0  0  0  0
    1.0650    2.1980   -1.2170 O   0  0  0  0  0  0  0  0  0  0  0  0
  1  2  2  0
  2  3  1  0
  2  8  1  0
  3  4  1  0
  4  5  1  0
  5  6  1  6
  5  7  1  0
  7  8  1  0
  8  9  1  6
 10  9  1  6
 10 11  1  0
 10 30  1  0
 11 12  1  1
 11 13  1  0
 13 14  1  1
 13 20  1  0
 14 15  1  0
 15 16  1  0
 16 17  1  0
 17 18  1  6
 17 19  1  0
 20 21  1  1
 20 22  1  0
 22 23  1  6
 22 29  1  0
 22 30  1  0
 23 24  1  0
 24 25  1  0
 25 26  1  1
 25 28  1  0
 26 27  1  0
 28 29  1  0
 30 31  1  1
M  CHG  1   9   1
M  END
