
     RDKit          3D

 31 32  0  0  0  0  0  0  0  0999 V2000
    4.4800    0.4020   -0.8640 C   0  0  0  0  0  0  0  0  0  0  0  0
    3.6840    0.0530    0.3690 C   0  0  1  0  0  0  0  0  0  0  0  0
    2.2670   -0.3800    0.0340 C   0  0  1  0  0  0  0  0  0  0  0  0
    1.5830    0.7280   -0.6700 C   0  0  0  0  0  0  0  0  0  0  0  0
    0.3510    1.0770   -0.1310 O   0  0  0  0  0  0  0  0  0  0  0  0
   -0.3580    1.8300   -1.0460 C   0  0  2  0  0  0  0  0  0  0  0  0
    0.1030    3.2900   -1.0700 C   0  0  0  0  0  0  0  0  0  0  0  0
   -0.0400    3.9190    0.1340 O   0  0  0  0  0  0  0  0  0  0  0  0
   -1.8260    1.6640   -1.0160 C   0  0  2  0  0  0  0  0  0  0  0  0
   -2.3390    2.9630   -1.3000 O   0  0  0  0  0  0  0  0  0  0  0  0
   -2.4980    1.2290    0.2000 C   0  0  1  0  0  0  0  0  0  0  0  0
   -2.1140    2.0550    1.4390 C   0  0  0  0  0  0  0  0  0  0  0  0
   -2.8070    1.5680    2.5580 O   0  0  0  0  0  0  0  0  0  0  0  0
   -3.9830    1.4930    0.0100 C   0  0  0  0  0  0  0  0  0  0  0  0
   -4.2090    2.8730   -0.2080 O   0  0  0  0  0  0  0  0  0  0  0  0
   -2.3920   -0.2040    0.6190 C   0  0  2  0  0  0  0  0  0  0  0  0
   -1.2100   -0.4940    1.2880 O   0  0  0  0  0  0  0  0  0  0  0  0
   -2.7980   -1.2120   -0.3950 C   0  0  2  0  0  0  0  0  0  0  0  0
   -3.8310   -2.2120    0.1500 C   0  0  0  0  0  0  0  0  0  0  0  0
   -4.1810   -3.1280   -0.8180 O   0  0  0  0  0  0  0  0  0  0  0  0
   -1.7330   -2.0170   -1.0330 C   0  0  1  0  0  0  0  0  0  0  0  0
   -0.7990   -1.2920   -1.7620 O   0  0  0  0  0  0  0  0  0  0  0  0
   -1.0220   -3.0030   -0.1680 C   0  0  0  0  0  0  0  0  0  0  0  0
    0.3110   -3.2500   -0.7390 N   0  0  0  0  0  0  0  0  0  0  0  0
    1.3630   -2.6620    0.0680 C   0  0  0  0  0  0  0  0  0  0  0  0
    2.2290   -1.7000   -0.6640 C   0  0  2  0  0  0  0  0  0  0  0  0
    3.5200   -2.2710   -0.7640 O   0  0  0  0  0  0  0  0  0  0  0  0
    4.3780   -0.9480    1.0440 O   0  0  0  0  0  0  0  0  0  0  0  0
    5.3990   -0.3120    1.7220 C   0  0  0  0  0  0  0  0  0  0  0  0
    4.9440    1.1260    1.8350 C   0  0  0  0  0  0  0  0  0  0  0  0
    3.6890    1.1400    1.2300 O   0  0  0  0  0  0  0  0  0  0  0  0
  2  1  1  6
  2  3  1  0
  2 28  1  0
  2 31  1  0
  3  4  1  6
  3 26  1  0
  4  5  1  0
  5  6  1  0
  6  7  1  1
  6  9  1  0
  7  8  1  0
  9 10  1  1
  9 11  1  0
 11 12  1  1
 11 14  1  0
 11 16  1  0
 12 13  1  0
 14 15  1  0
 16 17  1  6
 16 18  1  0
 18 19  1  1
 18 21  1  0
 19 20  1  0
 21 22  1  1
 21 23  1  0
 23 24  1  0
 24 25  1  0
 25 26  1  0
 26 27  1  1
 28 29  1  0
 29 30  1  0
 30 31  1  0
M  CHG  1  24   1
M  END
