
     RDKit          3D

 31 32  0  0  0  0  0  0  0  0999 V2000
   -3.7670    3.0230    0.4810 N   0  0  0  0  0  0  0  0  0  0  0  0
   -2.7800    2.0110    0.0370 C   0  0  1  0  0  0  0  0  0  0  0  0
   -2.2600    2.5210   -1.2610 C   0  0  0  0  0  0  0  0  0  0  0  0
   -1.5960    3.6940   -0.9080 O   0  0  0  0  0  0  0  0  0  0  0  0
   -1.3330    3.7000    0.4380 C   0  0  0  0  0  0  0  0  0  0  0  0
   -1.5880    2.2460    0.9190 C   0  0  2  0  0  0  0  0  0  0  0  0
   -0.3160    1.5470    0.5300 C   0  0  0  0  0  0  0  0  0  0  0  0
   -0.2190    0.2610    0.9320 O   0  0  0  0  0  0  0  0  0  0  0  0
    0.9160   -0.4250    0.3970 C   0  0  1  0  0  0  0  0  0  0  0  0
    2.0490    0.4860    0.5540 C   0  0  0  0  0  0  0  0  0  0  0  0
    3.4070    0.1090    0.1010 C   0  0  0  0  0  0  0  0  0  0  0  0
    4.2140    1.2550    0.3940 O   0  0  0  0  0  0  0  0  0  0  0  0
    5.5170    1.0400    0.0220 C   0  0  2  0  0  0  0  0  0  0  0  0
    6.3390    1.1690    1.1350 O   0  0  0  0  0  0  0  0  0  0  0  0
    5.8770    2.0240   -1.0320 C   0  0  0  0  0  0  0  0  0  0  0  0
    6.8120    2.8340   -0.8620 O   0  0  0  0  0  0  0  0  0  0  0  0
    5.1650    2.0450   -2.2220 O   0  0  0  0  0  0  0  0  0  0  0  0
    0.8710   -1.7250    1.0730 C   0  0  2  0  0  0  0  0  0  0  0  0
    1.8610   -2.7710    0.9090 C   0  0  1  0  0  0  0  0  0  0  0  0
    1.4130   -3.8650    1.7250 O   0  0  0  0  0  0  0  0  0  0  0  0
    2.1530   -3.3440   -0.4170 C   0  0  0  0  0  0  0  0  0  0  0  0
    3.1730   -4.3150   -0.2200 O   0  0  0  0  0  0  0  0  0  0  0  0
   -0.5040   -2.3550    0.8080 C   0  0  1  0  0  0  0  0  0  0  0  0
   -1.3630   -2.0070    1.8170 O   0  0  0  0  0  0  0  0  0  0  0  0
   -1.0370   -2.0560   -0.5520 C   0  0  0  0  0  0  0  0  0  0  0  0
   -2.3410   -2.8350   -0.6910 C   0  0  0  0  0  0  0  0  0  0  0  0
   -3.0820   -2.1370   -1.6730 O   0  0  0  0  0  0  0  0  0  0  0  0
   -4.0280   -1.3790   -1.0230 C   0  0  0  0  0  0  0  0  0  0  0  0
   -3.7020    0.0830   -1.2540 C   0  0  1  0  0  0  0  0  0  0  0  0
   -4.8690    0.6710   -1.7900 O   0  0  0  0  0  0  0  0  0  0  0  0
   -3.4120    0.7040    0.0920 C   0  0  0  0  0  0  0  0  0  0  0  0
  2  1  1  1
  2  3  1  0
  2  6  1  0
  2 31  1  0
  3  4  1  0
  4  5  1  0
  6  5  1  6
  6  7  1  0
  7  8  1  0
  8  9  1  0
  9 10  1  1
  9 18  1  0
 10 11  1  0
 11 12  1  0
 12 13  1  0
 13 14  1  1
 13 15  1  0
 15 16  2  0
 15 17  1  0
 18 19  1  6
 18 23  1  0
 19 20  1  1
 19 21  1  0
 21 22  1  0
 23 24  1  1
 23 25  1  0
 25 26  1  0
 26 27  1  0
 27 28  1  0
 28 29  1  0
 29 30  1  1
 29 31  1  0
M  CHG  1   1   1
M  END
