
     RDKit          3D

 19 20  0  0  0  0  0  0  0  0999 V2000
    5.4010   -0.6590   -0.0730 C   0  0  0  0  0  0  0  0  0  0  0  0
    4.3560    0.1250   -0.1030 C   0  0  0  0  0  0  0  0  0  0  0  0
    4.5400    1.4690   -0.1110 N   0  0  0  0  0  0  0  0  0  0  0  0
    3.4970    2.3140   -0.1420 C   0  0  0  0  0  0  0  0  0  0  0  0
    3.6850    3.5590   -0.1490 O   0  0  0  0  0  0  0  0  0  0  0  0
    2.2090    1.7760   -0.1650 C   0  0  0  0  0  0  0  0  0  0  0  0
    1.9670    0.4190   -0.1580 C   0  0  0  0  0  0  0  0  0  0  0  0
    3.0700   -0.4290   -0.1260 C   0  0  0  0  0  0  0  0  0  0  0  0
    2.8570   -1.7150   -0.1190 C   0  0  0  0  0  0  0  0  0  0  0  0
    0.6220   -0.0740   -0.1830 N   0  0  0  0  0  0  0  0  0  0  0  0
   -0.4760    0.8350   -0.2150 C   0  0  0  0  0  0  0  0  0  0  0  0
   -1.7420    0.4690   -0.2390 C   0  0  0  0  0  0  0  0  0  0  0  0
   -2.2150   -0.9000   -0.2370 C   0  0  0  0  0  0  0  0  0  0  0  0
   -3.5170   -1.1780   -0.2630 C   0  0  0  0  0  0  0  0  0  0  0  0
   -3.9410   -2.5340   -0.2600 N   0  0  0  0  0  0  0  0  0  0  0  0
   -4.4470   -0.1220   -0.2930 N   0  0  0  0  0  0  0  0  0  0  0  0
   -5.4890    0.0760    0.6970 C   0  0  0  0  0  0  0  0  0  0  0  0
   -0.1340    2.2520   -0.2200 C   0  0  0  0  0  0  0  0  0  0  0  0
    1.0960    2.6570   -0.1970 N   0  0  0  0  0  0  0  0  0  0  0  0
  1  2  2  0
  2  3  1  0
  2  8  1  0
  3  4  1  0
  4  5  2  0
  4  6  1  0
  6  7  2  0
  6 19  1  0
  7  8  1  0
  7 10  1  0
  8  9  2  0
 10 11  1  0
 11 12  2  3
 11 18  1  0
 12 13  1  0
 13 14  2  3
 14 15  1  0
 14 16  1  0
 16 17  1  0
 18 19  2  0
M  END
