
     RDKit          3D

 18 20  0  0  0  0  0  0  0  0999 V2000
   -6.5950    0.4010    0.9840 N   0  0  0  0  0  0  0  0  0  0  0  0
   -5.2130    0.3090    0.6330 C   0  0  0  0  0  0  0  0  0  0  0  0
   -4.2100    0.4820    1.5620 C   0  0  0  0  0  0  0  0  0  0  0  0
   -2.8640    0.3860    1.1920 C   0  0  0  0  0  0  0  0  0  0  0  0
   -2.5300    0.1210   -0.0930 C   0  0  0  0  0  0  0  0  0  0  0  0
   -1.1490    0.0070   -0.5480 C   0  0  0  0  0  0  0  0  0  0  0  0
   -0.8650   -0.2690   -1.8910 C   0  0  0  0  0  0  0  0  0  0  0  0
    0.4270   -0.3840   -2.3590 C   0  0  0  0  0  0  0  0  0  0  0  0
    1.4960   -0.2220   -1.4780 C   0  0  0  0  0  0  0  0  0  0  0  0
    2.8070   -0.2830   -1.6770 N   0  0  0  0  0  0  0  0  0  0  0  0
    3.4390   -0.0540   -0.5010 C   0  0  0  0  0  0  0  0  0  0  0  0
    4.8900   -0.0210   -0.2270 C   0  0  0  0  0  0  0  0  0  0  0  0
    5.1200    0.2590    1.1750 N   0  0  0  0  0  0  0  0  0  0  0  0
    2.4640    0.1530    0.4460 C   0  0  0  0  0  0  0  0  0  0  0  0
    1.2340    0.0500   -0.1550 C   0  0  0  0  0  0  0  0  0  0  0  0
   -0.0900    0.1590    0.2800 C   0  0  0  0  0  0  0  0  0  0  0  0
   -3.5530   -0.0440   -0.9840 N   0  0  0  0  0  0  0  0  0  0  0  0
   -4.8240    0.0460   -0.6340 N   0  0  0  0  0  0  0  0  0  0  0  0
  1  2  1  0
  2  3  2  0
  2 18  1  0
  3  4  1  0
  4  5  2  0
  5  6  1  0
  5 17  1  0
  6  7  2  0
  6 16  1  0
  7  8  1  0
  8  9  2  0
  9 10  1  0
  9 15  1  0
 10 11  1  0
 11 12  1  0
 11 14  2  0
 12 13  1  0
 14 15  1  0
 15 16  2  0
 17 18  2  0
M  CHG  1  13   1
M  END
