
     RDKit          3D

 16 17  0  0  0  0  0  0  0  0999 V2000
   -3.9800   -2.0020    0.2250 C   0  0  0  0  0  0  0  0  0  0  0  0
   -3.2080   -0.7260    0.2150 C   0  0  2  0  0  0  0  0  0  0  0  0
   -3.9410    0.3610   -0.5860 C   0  0  0  0  0  0  0  0  0  0  0  0
   -3.1370    1.9050   -0.0680 S   0  0  0  0  0  0  0  0  0  0  0  0
   -1.3730    1.5190    0.0320 C   0  0  0  0  0  0  0  0  0  0  0  0
   -0.4500    2.5240    0.2320 C   0  0  0  0  0  0  0  0  0  0  0  0
    0.8750    2.2090    0.3010 C   0  0  0  0  0  0  0  0  0  0  0  0
    1.3110    0.9020    0.1740 C   0  0  0  0  0  0  0  0  0  0  0  0
    2.6930    0.5850    0.2470 N   0  0  0  0  0  0  0  0  0  0  0  0
    3.1050   -0.7990    0.1090 C   0  0  0  0  0  0  0  0  0  0  0  0
    4.6020   -0.8550    0.2230 C   0  0  0  0  0  0  0  0  0  0  0  0
    4.9750   -0.3300    1.5340 C   0  0  0  0  0  0  0  0  0  0  0  0
    5.2500    0.0890    2.5630 N   0  0  0  0  0  0  0  0  0  0  0  0
    0.3640   -0.0790   -0.0250 C   0  0  0  0  0  0  0  0  0  0  0  0
   -1.0070    0.2000   -0.1010 C   0  0  0  0  0  0  0  0  0  0  0  0
   -1.9210   -0.8370   -0.3040 O   0  0  0  0  0  0  0  0  0  0  0  0
  2  1  1  6
  2  3  1  0
  2 16  1  0
  3  4  1  0
  4  5  1  0
  5  6  2  0
  5 15  1  0
  6  7  1  0
  7  8  2  0
  8  9  1  0
  8 14  1  0
  9 10  1  0
 10 11  1  0
 11 12  1  0
 12 13  3  0
 14 15  2  0
 15 16  1  0
M  END
