
     RDKit          3D

 23 24  0  0  0  0  0  0  0  0999 V2000
    5.1740    1.8440    1.5090 C   0  0  0  0  0  0  0  0  0  0  0  0
    4.7300    0.8180    0.6970 O   0  0  0  0  0  0  0  0  0  0  0  0
    3.4250    0.4840    0.3750 C   0  0  0  0  0  0  0  0  0  0  0  0
    2.3280    1.1130    0.8330 C   0  0  0  0  0  0  0  0  0  0  0  0
    1.0230    0.7570    0.4830 C   0  0  0  0  0  0  0  0  0  0  0  0
    0.8090   -0.3150   -0.3850 C   0  0  0  0  0  0  0  0  0  0  0  0
   -0.4350   -0.5540   -0.9910 N   0  0  0  0  0  0  0  0  0  0  0  0
   -1.7540   -0.3750   -0.6920 C   0  0  0  0  0  0  0  0  0  0  0  0
   -2.2880    0.0350    0.5300 C   0  0  0  0  0  0  0  0  0  0  0  0
   -3.6330    0.2370    0.7370 C   0  0  0  0  0  0  0  0  0  0  0  0
   -4.1910    0.6820    2.0560 C   0  0  2  0  0  0  0  0  0  0  0  0
   -3.2200    0.5580    3.0250 F   0  0  0  0  0  0  0  0  0  0  0  0
   -5.3330   -0.0400    2.3330 F   0  0  0  0  0  0  0  0  0  0  0  0
   -4.4880    2.0340    1.9430 F   0  0  0  0  0  0  0  0  0  0  0  0
   -4.5250    0.0200   -0.2750 C   0  0  0  0  0  0  0  0  0  0  0  0
   -4.0550   -0.3920   -1.4920 C   0  0  0  0  0  0  0  0  0  0  0  0
   -2.7190   -0.5800   -1.6980 C   0  0  0  0  0  0  0  0  0  0  0  0
   -2.2030   -1.1050   -3.2920 Cl  0  0  0  0  0  0  0  0  0  0  0  0
    1.9230   -0.9710   -0.8450 C   0  0  0  0  0  0  0  0  0  0  0  0
    1.8600   -2.2150   -1.6410 C   0  0  0  0  0  0  0  0  0  0  0  0
    2.9160   -2.7430   -2.0630 O   0  0  0  0  0  0  0  0  0  0  0  0
    0.6390   -2.7650   -1.9070 O   0  0  0  0  0  0  0  0  0  0  0  0
    3.2080   -0.5890   -0.4870 C   0  0  0  0  0  0  0  0  0  0  0  0
  1  2  1  0
  2  3  1  0
  3  4  2  0
  3 23  1  0
  4  5  1  0
  5  6  2  0
  6  7  1  0
  6 19  1  0
  7  8  1  0
  8  9  2  0
  8 17  1  0
  9 10  1  0
 10 11  1  0
 10 15  2  0
 11 12  1  1
 11 13  1  0
 11 14  1  0
 15 16  1  0
 16 17  2  0
 17 18  1  0
 19 20  1  0
 19 23  2  0
 20 21  2  0
 20 22  1  0
M  END
