
     RDKit          3D

 16 17  0  0  0  0  0  0  0  0999 V2000
    3.9130    2.2760   -1.8810 S   0  0  0  0  0  0  0  0  0  0  0  0
    4.0910    1.7480   -0.3340 C   0  0  0  0  0  0  0  0  0  0  0  0
    4.1290    0.3660   -0.0130 N   0  0  0  0  0  0  0  0  0  0  0  0
    2.9220   -0.3440    0.1990 C   0  0  0  0  0  0  0  0  0  0  0  0
    2.9800   -1.7010    0.5130 C   0  0  0  0  0  0  0  0  0  0  0  0
    1.8170   -2.4010    0.7220 C   0  0  0  0  0  0  0  0  0  0  0  0
    0.6230   -1.7600    0.6190 C   0  0  0  0  0  0  0  0  0  0  0  0
    0.5140   -0.4070    0.3080 C   0  0  0  0  0  0  0  0  0  0  0  0
   -0.7650    0.2110    0.2140 N   0  0  0  0  0  0  0  0  0  0  0  0
   -1.7810   -0.4650   -0.2090 C   0  0  0  0  0  0  0  0  0  0  0  0
   -3.1080    0.1140   -0.3250 C   0  0  0  0  0  0  0  0  0  0  0  0
   -3.4130    1.4140   -0.0040 C   0  0  0  0  0  0  0  0  0  0  0  0
   -4.7550    1.5870   -0.2440 C   0  0  0  0  0  0  0  0  0  0  0  0
   -5.2100    0.3730   -0.7050 C   0  0  0  0  0  0  0  0  0  0  0  0
   -4.2100   -0.4560   -0.7340 O   0  0  0  0  0  0  0  0  0  0  0  0
    1.6970    0.2750    0.1030 C   0  0  0  0  0  0  0  0  0  0  0  0
  1  2  2  0
  2  3  1  0
  3  4  1  0
  4  5  2  0
  4 16  1  0
  5  6  1  0
  6  7  2  0
  7  8  1  0
  8  9  1  0
  8 16  2  0
  9 10  2  3
 10 11  1  0
 11 12  2  0
 11 15  1  0
 12 13  1  0
 13 14  2  0
 14 15  1  0
M  END
