
     RDKit          3D

 19 21  0  0  0  0  0  0  0  0999 V2000
   -4.1590    2.0820   -0.2110 C   0  0  0  0  0  0  0  0  0  0  0  0
   -3.3820    0.8190   -0.0810 C   0  0  0  0  0  0  0  0  0  0  0  0
   -2.0160    0.8660   -0.1020 C   0  0  0  0  0  0  0  0  0  0  0  0
   -1.2520   -0.3000    0.0180 C   0  0  0  0  0  0  0  0  0  0  0  0
    0.2010   -0.1810   -0.0120 C   0  0  0  0  0  0  0  0  0  0  0  0
    0.7080    0.9900   -0.1470 N   0  0  0  0  0  0  0  0  0  0  0  0
    2.0910    1.3520   -0.2020 C   0  0  0  0  0  0  0  0  0  0  0  0
    3.0200    0.2140   -0.0880 C   0  0  0  0  0  0  0  0  0  0  0  0
    2.5430   -1.0660    0.0590 C   0  0  0  0  0  0  0  0  0  0  0  0
    3.6110   -1.8810    0.1370 N   0  0  0  0  0  0  0  0  0  0  0  0
    4.7290   -1.1730    0.0460 N   0  0  0  0  0  0  0  0  0  0  0  0
    4.3980    0.1270   -0.0940 C   0  0  0  0  0  0  0  0  0  0  0  0
    5.3400    1.2610   -0.2300 C   0  0  0  0  0  0  0  0  0  0  0  0
    1.1140   -1.2540    0.0960 N   0  0  0  0  0  0  0  0  0  0  0  0
   -1.9490   -1.4740    0.1550 C   0  0  0  0  0  0  0  0  0  0  0  0
   -1.2980   -2.6730    0.2800 O   0  0  0  0  0  0  0  0  0  0  0  0
   -3.3530   -1.5030    0.1750 C   0  0  0  0  0  0  0  0  0  0  0  0
   -4.0930   -0.3510    0.0560 C   0  0  0  0  0  0  0  0  0  0  0  0
   -5.5120   -0.3460    0.0720 N   0  0  0  0  0  0  0  0  0  0  0  0
  1  2  1  0
  2  3  2  0
  2 18  1  0
  3  4  1  0
  4  5  1  0
  4 15  2  0
  5  6  2  0
  5 14  1  0
  6  7  1  0
  7  8  1  0
  8  9  2  0
  8 12  1  0
  9 10  1  0
  9 14  1  0
 10 11  1  0
 11 12  2  0
 12 13  1  0
 15 16  1  0
 15 17  1  0
 17 18  2  0
 18 19  1  0
M  CHG  1  11   1
M  END
