
     RDKit          3D

 16 17  0  0  0  0  0  0  0  0999 V2000
   -3.3660   -0.5860    1.4170 C   0  0  0  0  0  0  0  0  0  0  0  0
   -2.8430   -0.1860    0.0720 C   0  0  1  0  0  0  0  0  0  0  0  0
   -3.5190    1.0630   -0.3940 C   0  0  0  0  0  0  0  0  0  0  0  0
   -1.4460   -0.1640   -0.0990 N   0  0  0  0  0  0  0  0  0  0  0  0
   -0.9860    0.8670   -1.0160 C   0  0  0  0  0  0  0  0  0  0  0  0
   -0.6500   -0.1280    1.1250 C   0  0  0  0  0  0  0  0  0  0  0  0
    0.7550   -0.3310    0.6240 C   0  0  0  0  0  0  0  0  0  0  0  0
    0.9770   -1.3360   -0.3230 C   0  0  0  0  0  0  0  0  0  0  0  0
    2.2190   -1.5900   -0.8290 C   0  0  0  0  0  0  0  0  0  0  0  0
    3.3060   -0.8610   -0.4230 C   0  0  0  0  0  0  0  0  0  0  0  0
    4.5910   -0.8800   -0.7280 O   0  0  0  0  0  0  0  0  0  0  0  0
    5.2490    0.0320   -0.0610 C   0  0  0  0  0  0  0  0  0  0  0  0
    6.8710    0.3460   -0.1460 S   0  0  0  0  0  0  0  0  0  0  0  0
    4.3390    0.6600    0.7060 N   0  0  0  0  0  0  0  0  0  0  0  0
    3.1200    0.1360    0.5110 C   0  0  0  0  0  0  0  0  0  0  0  0
    1.8400    0.3910    1.0260 C   0  0  0  0  0  0  0  0  0  0  0  0
  2  1  1  1
  2  3  1  0
  2  4  1  0
  4  5  1  0
  4  6  1  0
  6  7  1  0
  7  8  2  0
  7 16  1  0
  8  9  1  0
  9 10  2  0
 10 11  1  0
 10 15  1  0
 11 12  1  0
 12 13  2  0
 12 14  1  0
 14 15  1  0
 15 16  2  0
M  END
