
     RDKit          3D

 12 12  0  0  0  0  0  0  0  0999 V2000
    4.6100    0.6000    0.1630 C   0  0  0  0  0  0  0  0  0  0  0  0
    3.2160    0.6310    0.3740 O   0  0  0  0  0  0  0  0  0  0  0  0
    2.3130   -0.1340   -0.3380 C   0  0  0  0  0  0  0  0  0  0  0  0
    2.7720   -0.9010   -1.2260 O   0  0  0  0  0  0  0  0  0  0  0  0
    0.8570   -0.0270   -0.0350 C   0  0  0  0  0  0  0  0  0  0  0  0
   -0.1420   -1.0960   -1.0630 S   0  0  0  0  0  0  0  0  0  0  0  0
   -1.8570   -0.8840   -0.6140 C   0  0  0  0  0  0  0  0  0  0  0  0
   -2.8710   -1.4970   -1.1480 N   0  0  0  0  0  0  0  0  0  0  0  0
   -4.0610   -1.0810   -0.5450 N   0  0  0  0  0  0  0  0  0  0  0  0
   -3.7780   -0.1600    0.4660 N   0  0  0  0  0  0  0  0  0  0  0  0
   -4.2710    1.0620    0.1100 O   0  0  0  0  0  0  0  0  0  0  0  0
   -2.3730   -0.0350    0.3700 N   0  0  0  0  0  0  0  0  0  0  0  0
  1  2  1  0
  2  3  1  0
  3  4  2  0
  3  5  1  0
  5  6  1  0
  6  7  1  0
  7  8  2  0
  7 12  1  0
  8  9  1  0
  9 10  1  0
 10 11  1  0
 10 12  1  0
M  END
