
     RDKit          3D

 12 12  0  0  0  0  0  0  0  0999 V2000
    3.1470    1.0840    0.3870 N   0  0  0  0  0  0  0  0  0  0  0  0
    2.4600    0.2510    1.2190 O   0  0  0  0  0  0  0  0  0  0  0  0
    2.2360   -0.9610    0.5200 C   0  0  0  0  0  0  0  0  0  0  0  0
    1.2730   -0.6580   -0.9870 S   0  0  0  0  0  0  0  0  0  0  0  0
   -0.3800   -0.1190   -0.6320 C   0  0  0  0  0  0  0  0  0  0  0  0
   -0.7340    1.1660   -0.4790 N   0  0  0  0  0  0  0  0  0  0  0  0
   -2.0050    1.5110   -0.2140 N   0  0  0  0  0  0  0  0  0  0  0  0
   -2.9860    0.5960   -0.0870 C   0  0  0  0  0  0  0  0  0  0  0  0
   -4.5360    1.0330    0.2370 S   0  0  0  0  0  0  0  0  0  0  0  0
   -2.6580   -0.7050   -0.2370 N   0  0  0  0  0  0  0  0  0  0  0  0
   -1.3800   -1.0650   -0.5040 C   0  0  0  0  0  0  0  0  0  0  0  0
   -1.1460   -2.2820   -0.6280 O   0  0  0  0  0  0  0  0  0  0  0  0
  1  2  1  0
  2  3  1  0
  3  4  1  0
  4  5  1  0
  5  6  2  0
  5 11  1  0
  6  7  1  0
  7  8  1  0
  8  9  2  0
  8 10  1  0
 10 11  1  0
 11 12  2  0
M  END
