
     RDKit          3D

 13 13  0  0  0  0  0  0  0  0999 V2000
   -3.8870    0.2510   -0.1230 N   0  0  0  0  0  0  0  0  0  0  0  0
   -2.6710   -0.4470    0.0150 C   0  0  0  0  0  0  0  0  0  0  0  0
   -2.7160   -2.0770    0.0340 S   0  0  0  0  0  0  0  0  0  0  0  0
   -1.4230    0.2970    0.1360 C   0  0  0  0  0  0  0  0  0  0  0  0
   -0.2730   -0.6120    0.2720 N   0  0  0  0  0  0  0  0  0  0  0  0
    1.0550   -0.0620    0.4000 C   0  0  0  0  0  0  0  0  0  0  0  0
    1.1920    1.1300    0.8530 N   0  0  0  0  0  0  0  0  0  0  0  0
    2.8950    1.4260    0.8590 S   0  0  1  0  0  0  0  0  0  0  0  0
    3.1770    2.5360   -0.0800 O   0  0  0  0  0  0  0  0  0  0  0  0
    3.4260    1.6530    2.2330 O   0  0  0  0  0  0  0  0  0  0  0  0
    3.3480   -0.1170    0.2330 N   0  0  0  0  0  0  0  0  0  0  0  0
    2.2510   -0.7520    0.0570 C   0  0  0  0  0  0  0  0  0  0  0  0
    2.3120   -2.0700   -0.4560 O   0  0  0  0  0  0  0  0  0  0  0  0
  1  2  1  0
  2  3  2  0
  2  4  1  0
  4  5  1  0
  5  6  1  0
  6  7  2  0
  6 12  1  0
  8  7  1  1
  8  9  2  0
  8 10  2  0
  8 11  1  0
 11 12  2  0
 12 13  1  0
M  END
