
     RDKit          3D

 12 12  0  0  0  0  0  0  0  0999 V2000
   -1.9650    3.0280   -0.4050 O   0  0  0  0  0  0  0  0  0  0  0  0
   -1.7450    1.8120   -0.1610 C   0  0  0  0  0  0  0  0  0  0  0  0
   -0.5100    1.3640    0.1430 N   0  0  0  0  0  0  0  0  0  0  0  0
   -0.3460    0.0480    0.3910 C   0  0  0  0  0  0  0  0  0  0  0  0
    1.2400   -0.6240    0.8770 S   0  0  0  0  0  0  0  0  0  0  0  0
    2.1030   -1.3230   -0.5570 C   0  0  0  0  0  0  0  0  0  0  0  0
    3.8650   -0.9550   -0.3840 S   0  0  0  0  0  0  0  0  0  0  0  0
    4.0640    0.7210   -0.5250 O   0  0  0  0  0  0  0  0  0  0  0  0
   -1.3630   -0.8140    0.3410 N   0  0  0  0  0  0  0  0  0  0  0  0
   -2.6040   -0.3410    0.0330 C   0  0  0  0  0  0  0  0  0  0  0  0
   -3.5320   -1.1570   -0.0030 O   0  0  0  0  0  0  0  0  0  0  0  0
   -2.7780    0.9720   -0.2150 N   0  0  0  0  0  0  0  0  0  0  0  0
  1  2  2  0
  2  3  1  0
  2 12  1  0
  3  4  2  0
  4  5  1  0
  4  9  1  0
  5  6  1  0
  6  7  1  0
  7  8  1  0
  9 10  1  0
 10 11  2  0
 10 12  1  0
M  END
