
     RDKit          3D

 12 12  0  0  0  0  0  0  0  0999 V2000
    3.3710    1.2200    0.4110 O   0  0  0  0  0  0  0  0  0  0  0  0
    2.2750    0.6810    0.1380 C   0  0  0  0  0  0  0  0  0  0  0  0
    2.0740   -0.6230    0.3530 N   0  0  0  0  0  0  0  0  0  0  0  0
    0.8870   -1.1460    0.0440 C   0  0  0  0  0  0  0  0  0  0  0  0
    0.7080   -2.3780    0.2510 O   0  0  0  0  0  0  0  0  0  0  0  0
   -0.1250   -0.4310   -0.4760 N   0  0  0  0  0  0  0  0  0  0  0  0
   -1.4110   -1.0130   -0.8030 C   0  0  0  0  0  0  0  0  0  0  0  0
   -2.5580   -0.9120    0.6090 S   0  0  0  0  0  0  0  0  0  0  0  0
   -2.9550    0.7440    0.9260 O   0  0  0  0  0  0  0  0  0  0  0  0
    0.0910    0.8780   -0.6870 C   0  0  0  0  0  0  0  0  0  0  0  0
   -1.1100    1.7720   -1.3110 S   0  0  0  0  0  0  0  0  0  0  0  0
    1.2980    1.4420   -0.3790 N   0  0  0  0  0  0  0  0  0  0  0  0
  1  2  2  0
  2  3  1  0
  2 12  1  0
  3  4  1  0
  4  5  2  0
  4  6  1  0
  6  7  1  0
  6 10  1  0
  7  8  1  0
  8  9  1  0
 10 11  2  0
 10 12  1  0
M  END
