
     RDKit          3D

 13 13  0  0  0  0  0  0  0  0999 V2000
    2.4320    1.0490   -0.0780 O   0  0  0  0  0  0  0  0  0  0  0  0
    2.4560    0.7900    1.1330 C   0  0  0  0  0  0  0  0  0  0  0  0
    3.2060    1.6120    1.9620 O   0  0  0  0  0  0  0  0  0  0  0  0
    1.7300   -0.3140    1.6160 N   0  0  0  0  0  0  0  0  0  0  0  0
    0.9720   -1.1500    0.7990 N   0  0  0  0  0  0  0  0  0  0  0  0
   -0.0570   -0.7090    0.1340 C   0  0  0  0  0  0  0  0  0  0  0  0
   -0.6430    0.8900    0.1350 S   0  0  0  0  0  0  0  0  0  0  0  0
   -2.0120    1.0970   -0.8570 C   0  0  0  0  0  0  0  0  0  0  0  0
   -2.7740    2.5240   -1.0410 S   0  0  0  0  0  0  0  0  0  0  0  0
   -2.4120   -0.0280   -1.4800 N   0  0  0  0  0  0  0  0  0  0  0  0
   -1.8570   -1.2040   -1.3850 N   0  0  0  0  0  0  0  0  0  0  0  0
   -0.7950   -1.5640   -0.6720 C   0  0  0  0  0  0  0  0  0  0  0  0
   -0.3970   -2.7850   -0.7100 O   0  0  0  0  0  0  0  0  0  0  0  0
  1  2  2  0
  2  3  1  0
  2  4  1  0
  4  5  1  0
  5  6  2  3
  6  7  1  0
  6 12  1  0
  7  8  1  0
  8  9  2  0
  8 10  1  0
 10 11  1  0
 11 12  1  0
 12 13  2  0
M  END
