
     RDKit          3D

 13 13  0  0  0  0  0  0  0  0999 V2000
   -3.9940    0.5250    1.0340 C   0  0  0  0  0  0  0  0  0  0  0  0
   -3.1380   -0.3430   -0.2570 S   0  0  2  0  0  0  0  0  0  0  0  0
   -4.0550   -0.6360   -1.4130 O   0  0  0  0  0  0  0  0  0  0  0  0
   -2.7080   -1.6510    0.3170 O   0  0  0  0  0  0  0  0  0  0  0  0
   -1.7550    0.5280   -0.7820 N   0  0  0  0  0  0  0  0  0  0  0  0
   -0.4880   -0.0160   -0.4890 C   0  0  0  0  0  0  0  0  0  0  0  0
   -0.4090   -1.0950    0.1500 O   0  0  0  0  0  0  0  0  0  0  0  0
    0.6950    0.5590   -0.8710 N   0  0  0  0  0  0  0  0  0  0  0  0
    1.8910   -0.0440   -0.4670 C   0  0  0  0  0  0  0  0  0  0  0  0
    2.9460    0.0840   -1.0380 N   0  0  0  0  0  0  0  0  0  0  0  0
    4.0520   -0.5460   -0.5980 N   0  0  0  0  0  0  0  0  0  0  0  0
    4.2580   -0.2740    0.8340 C   0  0  0  0  0  0  0  0  0  0  0  0
    2.4770   -0.6150    1.2050 S   0  0  0  0  0  0  0  0  0  0  0  0
  2  1  1  1
  2  3  2  0
  2  4  2  0
  2  5  1  0
  5  6  1  0
  6  7  2  0
  6  8  1  0
  8  9  1  0
  9 10  2  0
  9 13  1  0
 10 11  1  0
 11 12  1  0
 12 13  1  0
M  END
