
     RDKit          3D

 30 32  0  0  0  0  0  0  0  0999 V2000
    8.7960   -0.2920   -0.7770 O   0  0  0  0  0  0  0  0  0  0  0  0
    8.6960    0.8460   -0.2130 C   0  0  0  0  0  0  0  0  0  0  0  0
    9.7700    1.7400   -0.2330 O   0  0  0  0  0  0  0  0  0  0  0  0
    7.4790    1.2090    0.4430 N   0  0  0  0  0  0  0  0  0  0  0  0
    6.3400    0.3010    0.4760 C   0  0  0  0  0  0  0  0  0  0  0  0
    6.4810   -0.7930   -0.0920 O   0  0  0  0  0  0  0  0  0  0  0  0
    5.1810    0.6320    1.0970 O   0  0  0  0  0  0  0  0  0  0  0  0
    4.0160   -0.0550    1.2010 C   0  0  0  0  0  0  0  0  0  0  0  0
    3.0280   -0.0590    0.0410 C   0  0  2  0  0  0  0  0  0  0  0  0
    3.6100   -0.5840   -1.1690 C   0  0  0  0  0  0  0  0  0  0  0  0
    4.4370    0.2780   -1.8440 O   0  0  0  0  0  0  0  0  0  0  0  0
    4.2510    1.8190   -1.0340 S   0  0  0  0  0  0  0  0  0  0  0  0
    2.6900    1.3870   -0.2950 C   0  0  0  0  0  0  0  0  0  0  0  0
    1.5200    1.5790    0.0300 N   0  0  0  0  0  0  0  0  0  0  0  0
    0.9220    0.4160    0.5690 N   0  0  0  0  0  0  0  0  0  0  0  0
    1.7670   -0.5380    0.5770 C   0  0  0  0  0  0  0  0  0  0  0  0
    1.4840   -1.8140    1.0340 O   0  0  0  0  0  0  0  0  0  0  0  0
    0.2800   -2.1020    1.5960 O   0  0  0  0  0  0  0  0  0  0  0  0
   -0.6540   -1.6030    0.7860 O   0  0  0  0  0  0  0  0  0  0  0  0
   -1.9840   -1.8900    1.0870 C   0  0  0  0  0  0  0  0  0  0  0  0
   -2.2370   -2.5870    2.0810 O   0  0  0  0  0  0  0  0  0  0  0  0
   -3.0150   -1.3930    0.2680 N   0  0  0  0  0  0  0  0  0  0  0  0
   -4.4550   -1.4650    0.2600 C   0  0  0  0  0  0  0  0  0  0  0  0
   -4.4440   -0.0880   -0.4250 C   0  0  2  0  0  0  0  0  0  0  0  0
   -5.4340    0.0660   -1.4320 N   0  0  0  0  0  0  0  0  0  0  0  0
   -6.7510   -0.0430   -0.8690 C   0  0  0  0  0  0  0  0  0  0  0  0
   -7.1570    1.1090    0.0070 C   0  0  0  0  0  0  0  0  0  0  0  0
   -6.3490    1.3000    1.1030 O   0  0  0  0  0  0  0  0  0  0  0  0
   -6.7400    2.3150    1.8340 O   0  0  0  0  0  0  0  0  0  0  0  0
   -3.0890   -0.5950   -0.9330 C   0  0  0  0  0  0  0  0  0  0  0  0
  1  2  2  0
  2  3  1  0
  2  4  1  0
  4  5  1  0
  5  6  2  0
  5  7  1  0
  7  8  1  0
  9  8  1  1
  9 10  1  0
  9 13  1  0
  9 16  1  0
 10 11  1  0
 11 12  1  0
 12 13  1  0
 13 14  2  0
 14 15  1  0
 15 16  2  0
 16 17  1  0
 17 18  1  0
 18 19  1  0
 19 20  1  0
 20 21  2  0
 20 22  1  0
 22 23  1  0
 22 30  1  0
 23 24  1  0
 24 25  1  6
 24 30  1  0
 25 26  1  0
 26 27  1  0
 27 28  1  0
 28 29  1  0
M  END
