
     RDKit          3D

 30 31  0  0  0  0  0  0  0  0999 V2000
   -1.2540   -2.1140   -0.6210 O   0  0  0  0  0  0  0  0  0  0  0  0
   -0.7810   -0.9550   -0.6010 C   0  0  0  0  0  0  0  0  0  0  0  0
   -1.6460    0.2100   -0.6450 C   0  0  0  0  0  0  0  0  0  0  0  0
   -3.0410    0.0340   -0.7590 N   0  0  0  0  0  0  0  0  0  0  0  0
   -3.8950    1.2000   -0.4510 C   0  0  0  0  0  0  0  0  0  0  0  0
   -5.3020    0.8020   -0.1560 C   0  0  2  0  0  0  0  0  0  0  0  0
   -6.1400    1.0290   -1.2750 O   0  0  0  0  0  0  0  0  0  0  0  0
   -5.9090    1.6840    0.9500 C   0  0  0  0  0  0  0  0  0  0  0  0
   -5.9270    3.0150    0.6270 O   0  0  0  0  0  0  0  0  0  0  0  0
   -6.4590    3.6680    1.6230 O   0  0  0  0  0  0  0  0  0  0  0  0
   -7.7290    3.8620    1.3550 O   0  0  0  0  0  0  0  0  0  0  0  0
   -5.5190   -0.6000    0.2980 C   0  0  0  0  0  0  0  0  0  0  0  0
   -4.8620   -1.5350   -0.5090 O   0  0  0  0  0  0  0  0  0  0  0  0
   -3.7350   -1.1300   -1.1880 C   0  0  0  0  0  0  0  0  0  0  0  0
   -3.1700   -1.9310   -2.4620 S   0  0  0  0  0  0  0  0  0  0  0  0
    0.6330   -0.8690   -0.5340 N   0  0  0  0  0  0  0  0  0  0  0  0
    1.4220   -2.0180   -0.4850 C   0  0  0  0  0  0  0  0  0  0  0  0
    0.9160   -3.2910   -0.4820 N   0  0  0  0  0  0  0  0  0  0  0  0
    1.8890   -4.1750   -0.4230 N   0  0  0  0  0  0  0  0  0  0  0  0
    3.0480   -3.5150   -0.3860 C   0  0  0  0  0  0  0  0  0  0  0  0
    2.7750   -2.1650   -0.4240 C   0  0  0  0  0  0  0  0  0  0  0  0
    3.7480   -1.0950   -0.4160 C   0  0  0  0  0  0  0  0  0  0  0  0
    3.3820    0.0960   -0.4760 O   0  0  0  0  0  0  0  0  0  0  0  0
    5.1580   -1.3670   -0.3410 N   0  0  0  0  0  0  0  0  0  0  0  0
    6.1710   -0.3620   -0.3370 C   0  0  0  0  0  0  0  0  0  0  0  0
    6.0900    0.6240    0.7980 C   0  0  0  0  0  0  0  0  0  0  0  0
    7.1610    1.5340    0.6410 O   0  0  0  0  0  0  0  0  0  0  0  0
    7.0970    2.3830    1.6180 O   0  0  0  0  0  0  0  0  0  0  0  0
    8.2320    3.0120    1.8320 O   0  0  0  0  0  0  0  0  0  0  0  0
    9.2330    2.1740    2.0100 O   0  0  0  0  0  0  0  0  0  0  0  0
  1  2  2  0
  2  3  1  0
  2 16  1  0
  3  4  1  0
  4  5  1  0
  4 14  1  0
  5  6  1  0
  6  7  1  6
  6  8  1  0
  6 12  1  0
  8  9  1  0
  9 10  1  0
 10 11  1  0
 12 13  1  0
 13 14  1  0
 14 15  2  0
 16 17  1  0
 17 18  2  0
 17 21  1  0
 18 19  1  0
 19 20  1  0
 20 21  2  0
 21 22  1  0
 22 23  2  0
 22 24  1  0
 24 25  1  0
 25 26  1  0
 26 27  1  0
 27 28  1  0
 28 29  1  0
 29 30  1  0
M  END
