
     RDKit          3D

 30 32  0  0  0  0  0  0  0  0999 V2000
    5.0930   -0.8300    1.0560 O   0  0  0  0  0  0  0  0  0  0  0  0
    4.7050   -0.3160   -0.0400 C   0  0  0  0  0  0  0  0  0  0  0  0
    5.5190   -0.3190   -1.1960 N   0  0  0  0  0  0  0  0  0  0  0  0
    6.7420   -0.8620   -1.1870 O   0  0  0  0  0  0  0  0  0  0  0  0
    7.2400   -1.0870   -0.0050 O   0  0  0  0  0  0  0  0  0  0  0  0
    7.5890   -0.0260    0.6570 O   0  0  0  0  0  0  0  0  0  0  0  0
    8.8860    0.1530    0.5770 O   0  0  0  0  0  0  0  0  0  0  0  0
    3.4160    0.2440    0.0040 O   0  0  0  0  0  0  0  0  0  0  0  0
    2.6520    0.2270    1.1550 C   0  0  0  0  0  0  0  0  0  0  0  0
    3.1400   -0.3170    2.1760 O   0  0  0  0  0  0  0  0  0  0  0  0
    1.3110    0.8380    1.1620 C   0  0  2  0  0  0  0  0  0  0  0  0
    0.6970    0.6970    2.4400 O   0  0  0  0  0  0  0  0  0  0  0  0
   -0.5210    0.6990    1.7170 C   0  0  0  0  0  0  0  0  0  0  0  0
    0.1820    0.0810    0.5290 C   0  0  1  0  0  0  0  0  0  0  0  0
   -0.1980    0.6520   -0.7790 C   0  0  0  0  0  0  0  0  0  0  0  0
    0.7760    0.8530   -1.5890 O   0  0  0  0  0  0  0  0  0  0  0  0
   -1.4990    0.9850   -1.2020 N   0  0  0  0  0  0  0  0  0  0  0  0
   -2.4890    1.6940   -0.4190 C   0  0  0  0  0  0  0  0  0  0  0  0
   -3.7780    1.8320   -1.1970 C   0  0  0  0  0  0  0  0  0  0  0  0
   -4.6980    0.6520   -0.9600 C   0  0  0  0  0  0  0  0  0  0  0  0
   -5.0840    0.5220    0.3590 O   0  0  0  0  0  0  0  0  0  0  0  0
   -4.8460   -0.7030    0.9300 C   0  0  0  0  0  0  0  0  0  0  0  0
   -3.8830   -1.5410    0.1700 C   0  0  0  0  0  0  0  0  0  0  0  0
   -2.6760   -1.5880    0.2550 N   0  0  0  0  0  0  0  0  0  0  0  0
   -1.8270   -2.2870   -0.3830 C   0  0  0  0  0  0  0  0  0  0  0  0
   -2.5160   -3.1630   -1.3790 N   0  0  0  0  0  0  0  0  0  0  0  0
   -4.1890   -2.7520   -1.1360 S   0  0  0  0  0  0  0  0  0  0  0  0
   -0.4150   -2.3050   -0.2510 N   0  0  0  0  0  0  0  0  0  0  0  0
    0.3010   -1.3850    0.5420 C   0  0  0  0  0  0  0  0  0  0  0  0
    1.1610   -1.8380    1.3820 O   0  0  0  0  0  0  0  0  0  0  0  0
  1  2  2  0
  2  3  1  0
  2  8  1  0
  3  4  1  0
  4  5  1  0
  5  6  1  0
  6  7  1  0
  8  9  1  0
  9 10  2  0
 11  9  1  1
 11 12  1  0
 11 14  1  0
 12 13  1  0
 14 13  1  1
 14 15  1  0
 14 29  1  0
 15 16  2  0
 15 17  1  0
 17 18  1  0
 18 19  1  0
 19 20  1  0
 20 21  1  0
 21 22  1  0
 22 23  1  0
 23 24  2  0
 23 27  1  0
 24 25  1  0
 25 26  2  0
 25 28  1  0
 26 27  1  0
 28 29  1  0
 29 30  2  0
M  END
