
     RDKit          3D

 31 32  0  0  0  0  0  0  0  0999 V2000
   -0.6780    0.1930   -1.4910 C   0  0  0  0  0  0  0  0  0  0  0  0
   -0.8380   -0.3650   -0.1290 C   0  0  1  0  0  0  0  0  0  0  0  0
   -2.1310   -0.8600    0.1260 O   0  0  0  0  0  0  0  0  0  0  0  0
   -2.7500   -1.8610   -0.5660 C   0  0  0  0  0  0  0  0  0  0  0  0
   -2.1200   -2.3980   -1.5200 O   0  0  0  0  0  0  0  0  0  0  0  0
   -4.0710   -2.2690   -0.2010 N   0  0  0  0  0  0  0  0  0  0  0  0
   -4.6800   -3.3150   -0.9470 C   0  0  0  0  0  0  0  0  0  0  0  0
   -4.0670   -3.8720   -1.9110 O   0  0  0  0  0  0  0  0  0  0  0  0
   -5.9570   -3.7540   -0.6420 O   0  0  0  0  0  0  0  0  0  0  0  0
    0.2080   -1.4370    0.0570 C   0  0  0  0  0  0  0  0  0  0  0  0
    1.3660   -1.1340    0.6590 N   0  0  0  0  0  0  0  0  0  0  0  0
    2.1270   -2.2370    0.7070 C   0  0  0  0  0  0  0  0  0  0  0  0
    1.4140   -3.2110    0.1260 N   0  0  0  0  0  0  0  0  0  0  0  0
    0.2900   -2.7020   -0.2450 O   0  0  0  0  0  0  0  0  0  0  0  0
    3.4930   -2.2170    1.3250 C   0  0  0  0  0  0  0  0  0  0  0  0
    4.4560   -1.6850    0.4820 O   0  0  0  0  0  0  0  0  0  0  0  0
    4.2170   -0.3380    0.1710 C   0  0  0  0  0  0  0  0  0  0  0  0
    3.3720   -0.2000   -1.0370 C   0  0  0  0  0  0  0  0  0  0  0  0
    3.3460   -1.2530   -1.7820 O   0  0  0  0  0  0  0  0  0  0  0  0
    2.6400    0.9160   -1.4170 N   0  0  0  0  0  0  0  0  0  0  0  0
    2.5420    2.2000   -0.8550 C   0  0  0  0  0  0  0  0  0  0  0  0
    2.5780    3.2180   -1.6630 O   0  0  0  0  0  0  0  0  0  0  0  0
    2.4050    2.5490    0.5060 N   0  0  0  0  0  0  0  0  0  0  0  0
    1.6110    1.8850    1.4880 C   0  0  0  0  0  0  0  0  0  0  0  0
    1.8300    2.3280    2.6810 O   0  0  0  0  0  0  0  0  0  0  0  0
    0.7660    0.9280    1.1380 O   0  0  0  0  0  0  0  0  0  0  0  0
   -0.5620    0.6490    1.0010 C   0  0  1  0  0  0  0  0  0  0  0  0
   -1.5530    1.7350    1.0990 C   0  0  0  0  0  0  0  0  0  0  0  0
   -1.7530    2.6370   -0.0520 C   0  0  0  0  0  0  0  0  0  0  0  0
   -2.7390    3.5880    0.3310 O   0  0  0  0  0  0  0  0  0  0  0  0
   -2.9690    4.4270   -0.6500 O   0  0  0  0  0  0  0  0  0  0  0  0
  2  1  1  6
  2  3  1  0
  2 10  1  0
  2 27  1  0
  3  4  1  0
  4  5  2  0
  4  6  1  0
  6  7  1  0
  7  8  2  0
  7  9  1  0
 10 11  2  0
 10 14  1  0
 11 12  1  0
 12 13  2  0
 12 15  1  0
 13 14  1  0
 15 16  1  0
 16 17  1  0
 17 18  1  0
 18 19  2  0
 18 20  1  0
 20 21  1  0
 21 22  2  0
 21 23  1  0
 23 24  1  0
 24 25  2  0
 24 26  1  0
 26 27  1  0
 27 28  1  6
 28 29  1  0
 29 30  1  0
 30 31  1  0
M  END
