
     RDKit          3D

 31 32  0  0  0  0  0  0  0  0999 V2000
    3.4860    3.2070   -1.6410 O   0  0  0  0  0  0  0  0  0  0  0  0
    2.7960    2.3840   -1.2160 C   0  0  0  0  0  0  0  0  0  0  0  0
    1.6200    2.4220   -0.3840 C   0  0  0  0  0  0  0  0  0  0  0  0
    1.1350    1.2470    0.1780 O   0  0  0  0  0  0  0  0  0  0  0  0
    1.9430    0.4580    1.0180 C   0  0  0  0  0  0  0  0  0  0  0  0
    3.1290    0.9190    1.1730 O   0  0  0  0  0  0  0  0  0  0  0  0
    1.4850   -0.7890    1.6710 C   0  0  0  0  0  0  0  0  0  0  0  0
    0.1830   -0.9750    1.7450 O   0  0  0  0  0  0  0  0  0  0  0  0
   -0.7440   -1.0670    0.8030 C   0  0  0  0  0  0  0  0  0  0  0  0
   -2.0710   -1.2710    1.5230 C   0  0  0  0  0  0  0  0  0  0  0  0
   -3.2810   -1.1470    1.2750 N   0  0  0  0  0  0  0  0  0  0  0  0
   -4.2660   -1.3550    2.0250 C   0  0  0  0  0  0  0  0  0  0  0  0
   -5.7460   -1.2130    1.7790 C   0  0  1  0  0  0  0  0  0  0  0  0
   -6.1160    0.2110    1.5040 C   0  0  0  0  0  0  0  0  0  0  0  0
   -7.5770    0.3190    1.1870 C   0  0  0  0  0  0  0  0  0  0  0  0
   -8.0530   -0.6440    0.2810 O   0  0  0  0  0  0  0  0  0  0  0  0
   -7.3550   -1.8220   -0.0400 C   0  0  0  0  0  0  0  0  0  0  0  0
   -7.6830   -2.5930   -0.9130 O   0  0  0  0  0  0  0  0  0  0  0  0
   -6.1720   -2.0860    0.7500 N   0  0  0  0  0  0  0  0  0  0  0  0
   -3.8790   -1.8110    3.3960 N   0  0  0  0  0  0  0  0  0  0  0  0
   -2.0590   -1.8180    3.2150 S   0  0  0  0  0  0  0  0  0  0  0  0
    3.2330    0.7760   -1.6390 N   0  0  0  0  0  0  0  0  0  0  0  0
    4.5920    1.1620   -2.2180 C   0  0  0  0  0  0  0  0  0  0  0  0
    5.1300    2.2020   -2.2060 O   0  0  0  0  0  0  0  0  0  0  0  0
    4.9440   -0.0940   -2.7240 N   0  0  0  0  0  0  0  0  0  0  0  0
    6.6220    0.3200   -3.0280 C   0  0  0  0  0  0  0  0  0  0  0  0
    6.9060    1.4450   -2.8410 O   0  0  0  0  0  0  0  0  0  0  0  0
    7.3290   -0.7590   -3.4230 O   0  0  0  0  0  0  0  0  0  0  0  0
    8.7270   -0.4860   -3.6170 O   0  0  0  0  0  0  0  0  0  0  0  0
    9.2070   -0.5540   -2.3350 O   0  0  0  0  0  0  0  0  0  0  0  0
    9.1630    0.6740   -1.8700 O   0  0  0  0  0  0  0  0  0  0  0  0
  1  2  2  0
  2  3  1  0
  2 22  1  0
  3  4  1  0
  4  5  1  0
  5  6  2  0
  5  7  1  0
  7  8  1  0
  8  9  1  0
  9 10  1  0
 10 11  2  0
 10 21  1  0
 11 12  1  0
 13 12  1  6
 12 20  2  0
 13 14  1  0
 13 19  1  0
 14 15  1  0
 15 16  1  0
 16 17  1  0
 17 18  2  0
 17 19  1  0
 20 21  1  0
 22 23  1  0
 23 24  2  0
 23 25  1  0
 25 26  1  0
 26 27  2  0
 26 28  1  0
 28 29  1  0
 29 30  1  0
 30 31  1  0
M  END
