
     RDKit          3D

 31 33  0  0  0  0  0  0  0  0999 V2000
   -6.4360   -1.3220    3.7630 N   0  0  0  0  0  0  0  0  0  0  0  0
   -6.1950   -1.3320    2.3610 C   0  0  0  0  0  0  0  0  0  0  0  0
   -7.0820   -1.8600    1.4970 N   0  0  0  0  0  0  0  0  0  0  0  0
   -6.8450   -1.8650    0.1680 C   0  0  0  0  0  0  0  0  0  0  0  0
   -5.7180   -1.3450   -0.3500 N   0  0  0  0  0  0  0  0  0  0  0  0
   -4.7890   -0.8010    0.4570 C   0  0  0  0  0  0  0  0  0  0  0  0
   -5.0350   -0.7980    1.8130 C   0  0  0  0  0  0  0  0  0  0  0  0
   -3.9600   -0.2030    2.3750 N   0  0  0  0  0  0  0  0  0  0  0  0
   -3.1010    0.1380    1.3880 C   0  0  0  0  0  0  0  0  0  0  0  0
   -3.5900   -0.2200    0.1970 N   0  0  0  0  0  0  0  0  0  0  0  0
   -3.0080   -0.0510   -1.1270 C   0  0  2  0  0  0  0  0  0  0  0  0
   -1.6340   -0.1280   -1.1150 O   0  0  0  0  0  0  0  0  0  0  0  0
   -1.1220    0.8620   -1.9110 C   0  0  2  0  0  0  0  0  0  0  0  0
    0.2730    1.2710   -1.5310 C   0  0  0  0  0  0  0  0  0  0  0  0
    1.1880    0.2690   -1.5940 O   0  0  0  0  0  0  0  0  0  0  0  0
    2.7200    0.6650   -1.1940 P   0  0  0  0  0  0  0  0  0  0  0  0
    3.0440    1.8590   -0.0710 O   0  0  0  0  0  0  0  0  0  0  0  0
    3.9750   -0.0070   -2.0150 O   0  0  0  0  0  0  0  0  0  0  0  0
    2.7820   -0.3900   -0.1000 O   0  0  0  0  0  0  0  0  0  0  0  0
    4.0070   -1.0310    0.5820 P   0  0  0  0  0  0  0  0  0  0  0  0
    4.4410    0.4750    1.1290 O   0  0  0  0  0  0  0  0  0  0  0  0
    3.0410   -1.9460    1.5520 O   0  0  0  0  0  0  0  0  0  0  0  0
    5.2840   -1.6470    1.1820 O   0  0  0  0  0  0  0  0  0  0  0  0
    6.6610   -1.0080    1.2110 P   0  0  0  0  0  0  0  0  0  0  0  0
    6.1400    0.0730    2.3900 O   0  0  0  0  0  0  0  0  0  0  0  0
    6.7640   -0.5320   -0.3140 O   0  0  0  0  0  0  0  0  0  0  0  0
    7.4290   -2.8600    1.8090 S   0  0  0  0  0  0  0  0  0  0  0  0
   -2.0650    2.0320   -1.6440 C   0  0  1  0  0  0  0  0  0  0  0  0
   -2.0100    2.9740   -2.6680 O   0  0  0  0  0  0  0  0  0  0  0  0
   -3.4040    1.3030   -1.6270 C   0  0  1  0  0  0  0  0  0  0  0  0
   -3.8420    1.1790   -2.9490 O   0  0  0  0  0  0  0  0  0  0  0  0
  1  2  1  0
  2  3  2  0
  2  7  1  0
  3  4  1  0
  4  5  2  0
  5  6  1  0
  6  7  2  0
  6 10  1  0
  7  8  1  0
  8  9  2  0
  9 10  1  0
 11 10  1  1
 11 12  1  0
 11 30  1  0
 12 13  1  0
 13 14  1  1
 13 28  1  0
 14 15  1  0
 15 16  1  0
 16 17  1  0
 16 18  1  0
 16 19  1  0
 19 20  1  0
 20 21  1  0
 20 22  1  0
 20 23  1  0
 23 24  1  0
 24 25  1  0
 24 26  1  0
 24 27  1  0
 28 29  1  6
 28 30  1  0
 30 31  1  6
M  END
