
     RDKit          3D

 30 32  0  0  0  0  0  0  0  0999 V2000
   -2.5350    2.2900    0.2680 N   0  0  0  0  0  0  0  0  0  0  0  0
   -3.3670    1.2990    0.2240 C   0  0  0  0  0  0  0  0  0  0  0  0
   -2.8460   -0.0190    0.1010 N   0  0  0  0  0  0  0  0  0  0  0  0
   -1.4580   -0.1910    0.1060 N   0  0  0  0  0  0  0  0  0  0  0  0
   -0.8690   -0.5740   -0.9700 C   0  0  0  0  0  0  0  0  0  0  0  0
   -1.6230   -0.8280   -2.1860 C   0  0  0  0  0  0  0  0  0  0  0  0
   -2.8670   -0.6850   -2.2340 O   0  0  0  0  0  0  0  0  0  0  0  0
   -0.8510   -1.2420   -3.2890 O   0  0  0  0  0  0  0  0  0  0  0  0
    0.3100   -2.0250   -3.0660 C   0  0  0  0  0  0  0  0  0  0  0  0
    1.2150   -1.4560   -2.0090 C   0  0  0  0  0  0  0  0  0  0  0  0
    0.5560   -0.7510   -0.9650 N   0  0  0  0  0  0  0  0  0  0  0  0
    1.2740   -0.1980    0.1110 C   0  0  0  0  0  0  0  0  0  0  0  0
    0.6440    0.4280    1.0370 O   0  0  0  0  0  0  0  0  0  0  0  0
    2.7170   -0.2900    0.2480 C   0  0  1  0  0  0  0  0  0  0  0  0
    3.4100   -0.9450   -0.7250 O   0  0  0  0  0  0  0  0  0  0  0  0
    4.6500   -0.3130   -0.8680 C   0  0  0  0  0  0  0  0  0  0  0  0
    4.6690    0.5840    0.3520 C   0  0  2  0  0  0  0  0  0  0  0  0
    5.5590    1.7080    0.1910 N   0  0  0  0  0  0  0  0  0  0  0  0
    4.8930   -0.1200    1.5250 O   0  0  0  0  0  0  0  0  0  0  0  0
    6.0390   -0.7620    1.5310 O   0  0  0  0  0  0  0  0  0  0  0  0
    6.9820    0.1680    1.7000 O   0  0  0  0  0  0  0  0  0  0  0  0
    8.1210   -0.3130    1.3050 O   0  0  0  0  0  0  0  0  0  0  0  0
    8.9200    0.5710    0.7660 O   0  0  0  0  0  0  0  0  0  0  0  0
    3.3220    0.9890    0.3730 O   0  0  0  0  0  0  0  0  0  0  0  0
   -4.8340    1.5150    0.3000 C   0  0  2  0  0  0  0  0  0  0  0  0
   -5.4330    0.8000    1.5030 C   0  0  0  0  0  0  0  0  0  0  0  0
   -6.9230    0.7180    1.3490 C   0  0  0  0  0  0  0  0  0  0  0  0
   -7.3680   -0.3090    0.5720 O   0  0  0  0  0  0  0  0  0  0  0  0
   -6.5390   -0.6800   -0.4590 C   0  0  0  0  0  0  0  0  0  0  0  0
   -5.6780    0.7700   -1.1380 S   0  0  0  0  0  0  0  0  0  0  0  0
  1  2  2  0
  2  3  1  0
 25  2  1  6
  3  4  1  0
  4  5  2  3
  5  6  1  0
  5 11  1  0
  6  7  2  0
  6  8  1  0
  8  9  1  0
  9 10  1  0
 10 11  1  0
 11 12  1  0
 12 13  2  0
 14 12  1  6
 14 15  1  0
 14 24  1  0
 15 16  1  0
 16 17  1  0
 17 18  1  6
 17 19  1  0
 17 24  1  0
 19 20  1  0
 20 21  1  0
 21 22  1  0
 22 23  1  0
 25 26  1  0
 25 30  1  0
 26 27  1  0
 27 28  1  0
 28 29  1  0
 29 30  1  0
M  END
