
     RDKit          3D

 30 31  0  0  0  0  0  0  0  0999 V2000
    3.7480   -2.6700    0.5090 C   0  0  0  0  0  0  0  0  0  0  0  0
    3.2550   -2.6660   -1.2250 S   0  0  0  0  0  0  0  0  0  0  0  0
    1.5430   -2.1790   -1.3840 C   0  0  0  0  0  0  0  0  0  0  0  0
    0.9210   -2.1370   -2.4880 N   0  0  0  0  0  0  0  0  0  0  0  0
   -0.3920   -1.7300   -2.3280 N   0  0  0  0  0  0  0  0  0  0  0  0
   -0.6710   -1.4930   -1.1150 C   0  0  0  0  0  0  0  0  0  0  0  0
   -1.8880   -1.0610   -0.5290 N   0  0  0  0  0  0  0  0  0  0  0  0
   -2.3600    0.1320   -0.6110 C   0  0  0  0  0  0  0  0  0  0  0  0
   -3.6290    0.3910    0.0560 C   0  0  0  0  0  0  0  0  0  0  0  0
   -4.1160    1.5420   -0.0120 O   0  0  0  0  0  0  0  0  0  0  0  0
   -4.3160   -0.6220    0.7760 N   0  0  0  0  0  0  0  0  0  0  0  0
   -5.5550   -0.4170    1.4470 C   0  0  0  0  0  0  0  0  0  0  0  0
   -6.0720    0.7480    1.3940 O   0  0  0  0  0  0  0  0  0  0  0  0
   -6.2340   -1.3880    2.1490 O   0  0  0  0  0  0  0  0  0  0  0  0
   -1.6610    1.2010   -1.3320 C   0  0  0  0  0  0  0  0  0  0  0  0
   -2.1720    2.3350   -1.3700 O   0  0  0  0  0  0  0  0  0  0  0  0
   -0.4410    0.9290   -1.9610 O   0  0  0  0  0  0  0  0  0  0  0  0
    0.2330    1.9200   -2.6340 C   0  0  0  0  0  0  0  0  0  0  0  0
   -0.2690    3.0640   -2.6660 O   0  0  0  0  0  0  0  0  0  0  0  0
    1.4520    1.6960   -3.2790 O   0  0  0  0  0  0  0  0  0  0  0  0
    0.5920   -1.7530   -0.3020 C   0  0  2  0  0  0  0  0  0  0  0  0
    0.9950   -0.7630    0.3540 O   0  0  0  0  0  0  0  0  0  0  0  0
    1.3630    0.0450    1.2470 C   0  0  1  0  0  0  0  0  0  0  0  0
    2.8180    0.5190    1.1220 C   0  0  0  0  0  0  0  0  0  0  0  0
    2.9510    1.9320    1.1850 N   0  0  0  0  0  0  0  0  0  0  0  0
    2.0550    2.7760    0.4650 C   0  0  0  0  0  0  0  0  0  0  0  0
    2.4730    3.7590   -0.1690 O   0  0  0  0  0  0  0  0  0  0  0  0
    0.7010    2.3950    0.5430 O   0  0  0  0  0  0  0  0  0  0  0  0
    0.4740    1.2610    1.3110 C   0  0  0  0  0  0  0  0  0  0  0  0
   -0.5060    1.2070    2.1110 O   0  0  0  0  0  0  0  0  0  0  0  0
  1  2  1  0
  2  3  1  0
  3  4  2  0
  3 21  1  0
  4  5  1  0
  5  6  2  0
  6  7  1  0
  6 21  1  0
  7  8  2  3
  8  9  1  0
  8 15  1  0
  9 10  2  0
  9 11  1  0
 11 12  1  0
 12 13  2  0
 12 14  1  0
 15 16  2  0
 15 17  1  0
 17 18  1  0
 18 19  2  0
 18 20  1  0
 21 22  1  6
 23 22  1  6
 23 24  1  0
 23 29  1  0
 24 25  1  0
 25 26  1  0
 26 27  2  0
 26 28  1  0
 28 29  1  0
 29 30  2  0
M  END
