
     RDKit          3D

 31 32  0  0  0  0  0  0  0  0999 V2000
    2.9980   -1.8570    2.6420 O   0  0  0  0  0  0  0  0  0  0  0  0
    2.4920   -1.4500    1.5680 C   0  0  0  0  0  0  0  0  0  0  0  0
    3.3910   -1.3140    0.3940 C   0  0  0  0  0  0  0  0  0  0  0  0
    2.7080   -0.7870   -0.7590 N   0  0  0  0  0  0  0  0  0  0  0  0
    3.4160   -0.0630   -1.7180 C   0  0  0  0  0  0  0  0  0  0  0  0
    2.6620    0.5400   -3.0280 S   0  0  0  0  0  0  0  0  0  0  0  0
    4.7700    0.1570   -1.5770 O   0  0  0  0  0  0  0  0  0  0  0  0
    5.2870    1.2120   -0.8900 O   0  0  0  0  0  0  0  0  0  0  0  0
    6.4290    1.0410   -0.1390 C   0  0  0  0  0  0  0  0  0  0  0  0
    6.9500   -0.0990   -0.1210 O   0  0  0  0  0  0  0  0  0  0  0  0
    7.0120    2.0900    0.5930 O   0  0  0  0  0  0  0  0  0  0  0  0
    1.2680   -1.0570   -0.8490 C   0  0  0  0  0  0  0  0  0  0  0  0
    0.6380   -0.3850    0.3590 C   0  0  1  0  0  0  0  0  0  0  0  0
    1.1040   -1.1400    1.5160 N   0  0  0  0  0  0  0  0  0  0  0  0
    1.1530    0.9780    0.3820 N   0  0  0  0  0  0  0  0  0  0  0  0
    0.3680    2.1010    0.8010 C   0  0  0  0  0  0  0  0  0  0  0  0
    0.9410    2.9360    1.5930 O   0  0  0  0  0  0  0  0  0  0  0  0
   -0.9780    2.3180    0.3870 N   0  0  0  0  0  0  0  0  0  0  0  0
   -1.4910    2.2090   -0.9400 C   0  0  0  0  0  0  0  0  0  0  0  0
   -2.9060    1.6780   -1.0100 C   0  0  0  0  0  0  0  0  0  0  0  0
   -2.9010    0.4120   -1.6560 O   0  0  0  0  0  0  0  0  0  0  0  0
   -3.7850   -0.6060   -1.3530 C   0  0  0  0  0  0  0  0  0  0  0  0
   -4.5430   -1.1410   -2.2420 O   0  0  0  0  0  0  0  0  0  0  0  0
   -3.9290   -1.1480   -0.0300 N   0  0  0  0  0  0  0  0  0  0  0  0
   -5.2890   -1.4650    0.4330 C   0  0  0  0  0  0  0  0  0  0  0  0
   -5.8820   -0.4040    1.0650 O   0  0  0  0  0  0  0  0  0  0  0  0
   -5.2350    0.0050    2.1180 O   0  0  0  0  0  0  0  0  0  0  0  0
   -2.8050   -1.3750    0.8110 C   0  0  0  0  0  0  0  0  0  0  0  0
   -3.0350   -1.4720    2.0440 O   0  0  0  0  0  0  0  0  0  0  0  0
   -1.4080   -1.5020    0.3320 C   0  0  0  0  0  0  0  0  0  0  0  0
   -0.7270   -0.3190    0.2980 O   0  0  0  0  0  0  0  0  0  0  0  0
  1  2  2  0
  2  3  1  0
  2 14  1  0
  3  4  1  0
  4  5  1  0
  4 12  1  0
  5  6  2  0
  5  7  1  0
  7  8  1  0
  8  9  1  0
  9 10  2  0
  9 11  1  0
 13 12  1  6
 13 14  1  0
 13 15  1  0
 13 31  1  0
 15 16  1  0
 16 17  2  0
 16 18  1  0
 18 19  1  0
 19 20  1  0
 20 21  1  0
 21 22  1  0
 22 23  2  0
 22 24  1  0
 24 25  1  0
 24 28  1  0
 25 26  1  0
 26 27  1  0
 28 29  2  0
 28 30  1  0
 30 31  1  0
M  END
