
     RDKit          3D

 30 32  0  0  0  0  0  0  0  0999 V2000
    4.2000   -0.5540   -0.9520 O   0  0  0  0  0  0  0  0  0  0  0  0
    3.9400   -0.0760    0.2000 C   0  0  0  0  0  0  0  0  0  0  0  0
    5.0360    0.3500    1.1190 C   0  0  0  0  0  0  0  0  0  0  0  0
    6.3920    0.1300    0.4890 C   0  0  0  0  0  0  0  0  0  0  0  0
    6.4890    0.8700   -0.6890 O   0  0  0  0  0  0  0  0  0  0  0  0
    7.6490    0.7120   -1.2730 O   0  0  0  0  0  0  0  0  0  0  0  0
    8.2430    1.8500   -1.5450 O   0  0  0  0  0  0  0  0  0  0  0  0
    9.3610    1.5700   -2.1740 O   0  0  0  0  0  0  0  0  0  0  0  0
    2.5910    0.0570    0.6250 N   0  0  0  0  0  0  0  0  0  0  0  0
    1.4930   -0.3170   -0.1710 C   0  0  0  0  0  0  0  0  0  0  0  0
    1.8220   -0.9320   -1.6500 S   0  0  0  0  0  0  0  0  0  0  0  0
    0.1360   -0.2070    0.2130 N   0  0  0  0  0  0  0  0  0  0  0  0
   -0.9370   -0.6570   -0.6800 C   0  0  0  0  0  0  0  0  0  0  0  0
   -2.2660   -0.6100    0.1190 C   0  0  1  0  0  0  0  0  0  0  0  0
   -3.2920   -1.0670   -0.5120 O   0  0  0  0  0  0  0  0  0  0  0  0
   -4.4370   -0.6330   -0.9690 C   0  0  2  0  0  0  0  0  0  0  0  0
   -4.2760    0.4780   -1.9700 C   0  0  0  0  0  0  0  0  0  0  0  0
   -4.3990    1.7780   -1.4310 O   0  0  0  0  0  0  0  0  0  0  0  0
   -4.4310    2.1170   -0.0990 C   0  0  0  0  0  0  0  0  0  0  0  0
   -4.0200    3.2000    0.3370 O   0  0  0  0  0  0  0  0  0  0  0  0
   -4.9940    1.0840    0.7600 N   0  0  0  0  0  0  0  0  0  0  0  0
   -5.4140   -0.1030    0.0460 C   0  0  0  0  0  0  0  0  0  0  0  0
   -6.4980   -0.7610    0.0340 N   0  0  0  0  0  0  0  0  0  0  0  0
   -6.4850   -1.7780   -0.9410 C   0  0  0  0  0  0  0  0  0  0  0  0
   -7.4170   -2.5790   -1.1560 O   0  0  0  0  0  0  0  0  0  0  0  0
   -5.2390   -1.6860   -1.5830 N   0  0  0  0  0  0  0  0  0  0  0  0
   -1.9470   -1.2630    1.4670 C   0  0  0  0  0  0  0  0  0  0  0  0
   -1.2210   -0.3020    2.2140 O   0  0  0  0  0  0  0  0  0  0  0  0
   -0.2050    0.3470    1.4940 C   0  0  0  0  0  0  0  0  0  0  0  0
    0.3890    1.3680    1.9340 O   0  0  0  0  0  0  0  0  0  0  0  0
  1  2  2  0
  2  3  1  0
  2  9  1  0
  3  4  1  0
  4  5  1  0
  5  6  1  0
  6  7  1  0
  7  8  1  0
  9 10  1  0
 10 11  2  0
 10 12  1  0
 12 13  1  0
 12 29  1  0
 13 14  1  0
 14 15  1  6
 14 27  1  0
 16 15  1  1
 16 17  1  0
 16 22  1  0
 16 26  1  0
 17 18  1  0
 18 19  1  0
 19 20  2  0
 19 21  1  0
 21 22  1  0
 22 23  2  0
 23 24  1  0
 24 25  2  0
 24 26  1  0
 27 28  1  0
 28 29  1  0
 29 30  2  0
M  END
