
     RDKit          3D

 30 30  0  0  0  0  0  0  0  0999 V2000
    4.5500    2.9700    3.4050 C   0  0  0  0  0  0  0  0  0  0  0  0
    4.6500    1.3770    2.6330 S   0  0  0  0  0  0  0  0  0  0  0  0
    3.1870    0.9050    1.7110 C   0  0  0  0  0  0  0  0  0  0  0  0
    3.2810   -0.2720    1.1580 N   0  0  0  0  0  0  0  0  0  0  0  0
    2.2990   -0.8550    0.4030 O   0  0  0  0  0  0  0  0  0  0  0  0
    1.4610   -1.7960    1.0090 C   0  0  0  0  0  0  0  0  0  0  0  0
    0.3810   -2.3410    0.1130 C   0  0  1  0  0  0  0  0  0  0  0  0
    0.3390   -3.7770    0.0160 N   0  0  0  0  0  0  0  0  0  0  0  0
    0.6690   -4.4900   -1.1820 C   0  0  0  0  0  0  0  0  0  0  0  0
    0.6330   -5.8950   -1.3030 N   0  0  0  0  0  0  0  0  0  0  0  0
    1.0140   -3.8140   -2.1870 O   0  0  0  0  0  0  0  0  0  0  0  0
   -0.9410   -1.7600    0.4870 C   0  0  0  0  0  0  0  0  0  0  0  0
   -1.7060   -1.0070   -0.3050 C   0  0  0  0  0  0  0  0  0  0  0  0
   -2.9880   -0.5580    0.3270 C   0  0  0  0  0  0  0  0  0  0  0  0
   -3.1830    0.8060    0.4420 O   0  0  0  0  0  0  0  0  0  0  0  0
   -3.2530    1.7310   -0.5750 C   0  0  0  0  0  0  0  0  0  0  0  0
   -3.1410    1.3870   -1.7600 O   0  0  0  0  0  0  0  0  0  0  0  0
   -3.4570    3.1350   -0.3250 N   0  0  0  0  0  0  0  0  0  0  0  0
   -3.5240    4.0690   -1.3960 C   0  0  0  0  0  0  0  0  0  0  0  0
   -3.4050    3.6500   -2.5780 O   0  0  0  0  0  0  0  0  0  0  0  0
   -3.7170    5.4350   -1.1870 O   0  0  0  0  0  0  0  0  0  0  0  0
   -1.3570   -0.6730   -1.6300 N   0  0  0  0  0  0  0  0  0  0  0  0
   -0.2200    0.0180   -2.1580 C   0  0  0  0  0  0  0  0  0  0  0  0
    0.2000   -0.3810   -3.3100 O   0  0  0  0  0  0  0  0  0  0  0  0
    0.4700    1.1170   -1.4860 C   0  0  0  0  0  0  0  0  0  0  0  0
    1.2350    1.7910   -2.3080 O   0  0  0  0  0  0  0  0  0  0  0  0
    0.4830    1.5690   -0.2500 O   0  0  0  0  0  0  0  0  0  0  0  0
    0.8510    1.5680    0.9680 O   0  0  0  0  0  0  0  0  0  0  0  0
    2.0520    1.7700    1.6200 C   0  0  0  0  0  0  0  0  0  0  0  0
    2.1590    2.8990    2.2330 O   0  0  0  0  0  0  0  0  0  0  0  0
  1  2  1  0
  2  3  1  0
  3  4  2  0
  3 29  1  0
  4  5  1  0
  5  6  1  0
  6  7  1  0
  7  8  1  1
  7 12  1  0
  8  9  1  0
  9 10  1  0
  9 11  2  0
 12 13  2  0
 13 14  1  0
 13 22  1  0
 14 15  1  0
 15 16  1  0
 16 17  2  0
 16 18  1  0
 18 19  1  0
 19 20  2  0
 19 21  1  0
 22 23  1  0
 23 24  2  0
 23 25  1  0
 25 26  2  0
 25 27  1  0
 27 28  1  0
 28 29  1  0
 29 30  2  0
M  END
