
     RDKit          3D

 37 41  0  0  0  0  0  0  0  0999 V2000
    6.8280   -2.7250   -2.5610 C   0  0  0  0  0  0  0  0  0  0  0  0
    7.4690   -2.5130   -1.2160 C   0  0  0  0  0  0  0  0  0  0  0  0
    7.3270   -1.2350   -0.6910 O   0  0  0  0  0  0  0  0  0  0  0  0
    6.1660   -0.5720   -0.3820 C   0  0  0  0  0  0  0  0  0  0  0  0
    4.9580   -1.1850   -0.5850 C   0  0  0  0  0  0  0  0  0  0  0  0
    3.7970   -0.5000   -0.2690 C   0  0  0  0  0  0  0  0  0  0  0  0
    2.5830   -1.0900   -0.4640 C   0  0  0  0  0  0  0  0  0  0  0  0
    2.5520   -2.2450   -0.9270 O   0  0  0  0  0  0  0  0  0  0  0  0
    1.4510   -0.4040   -0.1490 N   0  0  0  0  0  0  0  0  0  0  0  0
    1.4500    0.8430    0.3530 C   0  0  0  0  0  0  0  0  0  0  0  0
    0.2110    1.5600    0.6850 C   0  0  0  0  0  0  0  0  0  0  0  0
    0.2690    2.8160    1.1910 C   0  0  0  0  0  0  0  0  0  0  0  0
   -0.9060    3.4640    1.4930 C   0  0  0  0  0  0  0  0  0  0  0  0
   -2.1260    2.8520    1.2870 C   0  0  0  0  0  0  0  0  0  0  0  0
   -2.2280    1.5560    0.7660 C   0  0  0  0  0  0  0  0  0  0  0  0
   -3.5150    1.0190    0.5880 N   0  0  0  0  0  0  0  0  0  0  0  0
   -3.8850   -0.2700    0.1800 C   0  0  0  0  0  0  0  0  0  0  0  0
   -2.9260   -1.0810   -0.0850 O   0  0  0  0  0  0  0  0  0  0  0  0
   -5.2630   -0.7700    0.0260 C   0  0  0  0  0  0  0  0  0  0  0  0
   -5.6400   -1.7710   -0.8890 C   0  0  0  0  0  0  0  0  0  0  0  0
   -6.9610   -1.9320   -0.7990 N   0  0  0  0  0  0  0  0  0  0  0  0
   -7.6820   -2.8990   -1.6190 C   0  0  0  0  0  0  0  0  0  0  0  0
   -7.4970   -1.1160    0.1060 C   0  0  0  0  0  0  0  0  0  0  0  0
   -8.7900   -0.9410    0.5410 C   0  0  0  0  0  0  0  0  0  0  0  0
   -9.0300   -0.0280    1.5090 N   0  0  0  0  0  0  0  0  0  0  0  0
   -8.0440    0.7010    2.0470 C   0  0  0  0  0  0  0  0  0  0  0  0
   -8.4570    1.8550    3.2940 Cl  0  0  0  0  0  0  0  0  0  0  0  0
   -6.7360    0.5160    1.6000 C   0  0  0  0  0  0  0  0  0  0  0  0
   -6.4340   -0.3960    0.6170 C   0  0  0  0  0  0  0  0  0  0  0  0
   -1.0330    0.9520    0.4810 C   0  0  0  0  0  0  0  0  0  0  0  0
    2.6570    1.4420    0.5520 C   0  0  0  0  0  0  0  0  0  0  0  0
    3.8270    0.7790    0.2440 C   0  0  0  0  0  0  0  0  0  0  0  0
    5.0680    1.3720    0.4390 C   0  0  0  0  0  0  0  0  0  0  0  0
    6.2350    0.7130    0.1320 C   0  0  0  0  0  0  0  0  0  0  0  0
    7.4730    1.3360    0.3390 O   0  0  0  0  0  0  0  0  0  0  0  0
    7.4670    2.6460    0.8650 C   0  0  0  0  0  0  0  0  0  0  0  0
    8.7180    3.1600    1.0270 F   0  0  0  0  0  0  0  0  0  0  0  0
  1  2  1  0
  2  3  1  0
  3  4  1  0
  4  5  2  0
  4 34  1  0
  5  6  1  0
  6  7  1  0
  6 32  2  0
  7  8  2  0
  7  9  1  0
  9 10  1  0
 10 11  1  0
 10 31  2  0
 11 12  2  0
 11 30  1  0
 12 13  1  0
 13 14  2  0
 14 15  1  0
 15 16  1  0
 15 30  2  0
 16 17  1  0
 17 18  2  0
 17 19  1  0
 19 20  2  0
 19 29  1  0
 20 21  1  0
 21 22  1  0
 21 23  1  0
 23 24  2  0
 23 29  1  0
 24 25  1  0
 25 26  2  0
 26 27  1  0
 26 28  1  0
 28 29  2  0
 31 32  1  0
 32 33  1  0
 33 34  2  0
 34 35  1  0
 35 36  1  0
 36 37  1  0
M  END
