
     RDKit          3D

 37 41  0  0  0  0  0  0  0  0999 V2000
   -5.7080   -2.4460   -0.4890 C   0  0  0  0  0  0  0  0  0  0  0  0
   -4.7570   -2.5240    0.3870 O   0  0  0  0  0  0  0  0  0  0  0  0
   -4.4020   -1.9530    1.4860 C   0  0  0  0  0  0  0  0  0  0  0  0
   -4.0480   -0.4950    1.6430 C   0  0  0  0  0  0  0  0  0  0  0  0
   -3.0130   -0.0580    0.7620 N   0  0  0  0  0  0  0  0  0  0  0  0
   -3.2380    0.6510   -0.3170 C   0  0  0  0  0  0  0  0  0  0  0  0
   -4.4810    1.2860   -0.7200 C   0  0  0  0  0  0  0  0  0  0  0  0
   -5.7410    1.0160   -0.3080 C   0  0  0  0  0  0  0  0  0  0  0  0
   -6.8260    1.7640   -0.7210 C   0  0  0  0  0  0  0  0  0  0  0  0
   -6.6780    2.8220   -1.5780 C   0  0  0  0  0  0  0  0  0  0  0  0
   -7.7680    3.5860   -2.0040 O   0  0  0  0  0  0  0  0  0  0  0  0
   -5.4100    3.1180   -2.0160 C   0  0  0  0  0  0  0  0  0  0  0  0
   -4.3440    2.3810   -1.6060 C   0  0  0  0  0  0  0  0  0  0  0  0
   -2.1290    0.9110   -1.0960 N   0  0  0  0  0  0  0  0  0  0  0  0
   -0.9360    0.5020   -0.8160 N   0  0  0  0  0  0  0  0  0  0  0  0
   -0.6810   -0.2370    0.3070 C   0  0  0  0  0  0  0  0  0  0  0  0
    0.7090   -0.6130    0.4730 C   0  0  0  0  0  0  0  0  0  0  0  0
    1.1580   -1.3040    1.4550 C   0  0  0  0  0  0  0  0  0  0  0  0
    2.4580   -1.7800    1.8250 C   0  0  0  0  0  0  0  0  0  0  0  0
    2.5540   -2.7780    2.7970 C   0  0  0  0  0  0  0  0  0  0  0  0
    3.7780   -3.2390    3.2050 C   0  0  0  0  0  0  0  0  0  0  0  0
    4.9330   -2.7360    2.6740 C   0  0  0  0  0  0  0  0  0  0  0  0
    4.8680   -1.7510    1.7160 C   0  0  0  0  0  0  0  0  0  0  0  0
    5.7930   -1.0940    1.0520 O   0  0  0  0  0  0  0  0  0  0  0  0
    5.3050   -0.2250    0.2310 C   0  0  0  0  0  0  0  0  0  0  0  0
    6.0530    0.6820   -0.6650 C   0  0  0  0  0  0  0  0  0  0  0  0
    7.1850    1.2170   -0.2430 C   0  0  0  0  0  0  0  0  0  0  0  0
    7.6170    0.9010    1.0190 F   0  0  0  0  0  0  0  0  0  0  0  0
    8.0380    2.1380   -1.0230 C   0  0  0  0  0  0  0  0  0  0  0  0
    7.5140    2.4090   -2.3260 N   0  0  0  0  0  0  0  0  0  0  0  0
    6.3010    1.8260   -2.7570 C   0  0  0  0  0  0  0  0  0  0  0  0
    5.5880    1.0040   -1.9900 C   0  0  0  0  0  0  0  0  0  0  0  0
    4.0910    0.2990   -2.5610 Cl  0  0  0  0  0  0  0  0  0  0  0  0
    3.9230   -0.3060    0.3550 C   0  0  0  0  0  0  0  0  0  0  0  0
    3.6170   -1.2670    1.2860 C   0  0  0  0  0  0  0  0  0  0  0  0
   -1.7350   -0.5090    1.0860 C   0  0  0  0  0  0  0  0  0  0  0  0
   -1.6100   -1.1720    2.1250 O   0  0  0  0  0  0  0  0  0  0  0  0
  1  2  1  0
  2  3  1  0
  3  4  1  0
  4  5  1  0
  5  6  1  0
  5 36  1  0
  6  7  1  0
  6 14  2  0
  7  8  2  0
  7 13  1  0
  8  9  1  0
  9 10  2  0
 10 11  1  0
 10 12  1  0
 12 13  2  0
 14 15  1  0
 15 16  2  0
 16 17  1  0
 16 36  1  0
 17 18  2  3
 18 19  1  0
 19 20  2  0
 19 35  1  0
 20 21  1  0
 21 22  2  0
 22 23  1  0
 23 24  1  0
 23 35  2  0
 24 25  1  0
 25 26  1  0
 25 34  2  0
 26 27  2  0
 26 32  1  0
 27 28  1  0
 27 29  1  0
 29 30  1  0
 30 31  1  0
 31 32  2  0
 32 33  1  0
 34 35  1  0
 36 37  2  0
M  END
