
     RDKit          3D

 37 41  0  0  0  0  0  0  0  0999 V2000
   -5.6770    5.4250    0.3880 C   0  0  0  0  0  0  0  0  0  0  0  0
   -5.0700    4.2100   -0.2930 C   0  0  0  0  0  0  0  0  0  0  0  0
   -4.1780    3.4730    0.6650 C   0  0  0  0  0  0  0  0  0  0  0  0
   -3.5230    2.2720    0.1630 C   0  0  0  0  0  0  0  0  0  0  0  0
   -2.2380    2.2310   -0.2650 N   0  0  0  0  0  0  0  0  0  0  0  0
   -1.6170    1.1470   -0.7090 C   0  0  0  0  0  0  0  0  0  0  0  0
   -0.3350    1.0300   -1.1570 O   0  0  0  0  0  0  0  0  0  0  0  0
    0.7030    0.5220   -0.4120 C   0  0  0  0  0  0  0  0  0  0  0  0
    0.4260   -0.0250    0.8240 C   0  0  0  0  0  0  0  0  0  0  0  0
    1.4620   -0.5440    1.5590 C   0  0  0  0  0  0  0  0  0  0  0  0
    2.7400   -0.5160    1.0700 C   0  0  0  0  0  0  0  0  0  0  0  0
    3.0770    0.0370   -0.1880 C   0  0  0  0  0  0  0  0  0  0  0  0
    4.3100    0.0230   -0.5420 O   0  0  0  0  0  0  0  0  0  0  0  0
    5.4730    0.1660   -1.1530 C   0  0  0  0  0  0  0  0  0  0  0  0
    6.5680   -0.5650   -0.3830 C   0  0  0  0  0  0  0  0  0  0  0  0
    7.2160   -1.6370   -0.9410 C   0  0  0  0  0  0  0  0  0  0  0  0
    8.3150   -2.1310   -0.2440 C   0  0  0  0  0  0  0  0  0  0  0  0
    9.0680   -3.2060   -0.7000 O   0  0  0  0  0  0  0  0  0  0  0  0
    8.6970   -1.5270    0.9620 C   0  0  0  0  0  0  0  0  0  0  0  0
    9.7640   -2.0500    1.6480 F   0  0  0  0  0  0  0  0  0  0  0  0
    8.0390   -0.4410    1.5170 C   0  0  0  0  0  0  0  0  0  0  0  0
    6.9140    0.0510    0.7880 C   0  0  0  0  0  0  0  0  0  0  0  0
    6.2340    1.1220    1.3010 O   0  0  0  0  0  0  0  0  0  0  0  0
    1.9950    0.5580   -0.9210 C   0  0  0  0  0  0  0  0  0  0  0  0
   -2.3380   -0.0270   -0.7340 N   0  0  0  0  0  0  0  0  0  0  0  0
   -3.5970   -0.0540   -0.3300 C   0  0  0  0  0  0  0  0  0  0  0  0
   -4.2370    1.0880    0.1280 C   0  0  0  0  0  0  0  0  0  0  0  0
   -5.5300    1.0140    0.5470 C   0  0  0  0  0  0  0  0  0  0  0  0
   -6.2180   -0.1740    0.5380 N   0  0  0  0  0  0  0  0  0  0  0  0
   -5.6130   -1.3270    0.1010 C   0  0  0  0  0  0  0  0  0  0  0  0
   -6.2590   -2.4980    0.1640 N   0  0  0  0  0  0  0  0  0  0  0  0
   -5.6150   -3.6680   -0.2030 C   0  0  0  0  0  0  0  0  0  0  0  0
   -4.3190   -3.6140   -0.6300 C   0  0  0  0  0  0  0  0  0  0  0  0
   -3.6210   -4.8830   -0.9990 C   0  0  0  0  0  0  0  0  0  0  0  0
   -3.6720   -2.4110   -0.6890 C   0  0  0  0  0  0  0  0  0  0  0  0
   -2.0200   -2.3040   -1.2250 Cl  0  0  0  0  0  0  0  0  0  0  0  0
   -4.3250   -1.2320   -0.3180 C   0  0  0  0  0  0  0  0  0  0  0  0
  1  2  1  0
  2  3  1  0
  3  4  1  0
  4  5  2  0
  4 27  1  0
  5  6  1  0
  6  7  1  0
  6 25  2  0
  7  8  1  0
  8  9  2  0
  8 24  1  0
  9 10  1  0
 10 11  2  0
 11 12  1  0
 12 13  1  0
 12 24  2  0
 13 14  1  0
 14 15  1  0
 15 16  2  0
 15 22  1  0
 16 17  1  0
 17 18  1  0
 17 19  2  0
 19 20  1  0
 19 21  1  0
 21 22  2  0
 22 23  1  0
 25 26  1  0
 26 27  2  0
 26 37  1  0
 27 28  1  0
 28 29  2  0
 29 30  1  0
 30 31  2  0
 30 37  1  0
 31 32  1  0
 32 33  2  0
 33 34  1  0
 33 35  1  0
 35 36  1  0
 35 37  2  0
M  END
