
     RDKit          3D

 37 41  0  0  0  0  0  0  0  0999 V2000
  -11.0640   -1.8640   -0.9080 C   0  0  0  0  0  0  0  0  0  0  0  0
  -10.2210   -0.6630   -1.0310 C   0  0  0  0  0  0  0  0  0  0  0  0
  -10.7310    0.3990   -1.4520 O   0  0  0  0  0  0  0  0  0  0  0  0
   -8.8150   -0.7290   -0.6630 C   0  0  0  0  0  0  0  0  0  0  0  0
   -8.0050    0.4090   -0.7800 C   0  0  0  0  0  0  0  0  0  0  0  0
   -6.6710    0.3800   -0.4400 C   0  0  0  0  0  0  0  0  0  0  0  0
   -5.6860    1.3130   -0.4570 N   0  0  0  0  0  0  0  0  0  0  0  0
   -4.5230    0.8150   -0.0280 C   0  0  0  0  0  0  0  0  0  0  0  0
   -3.2790    1.3130    0.1410 N   0  0  0  0  0  0  0  0  0  0  0  0
   -2.2390    0.5970    0.6000 C   0  0  0  0  0  0  0  0  0  0  0  0
   -0.9510    1.2000    0.7470 N   0  0  0  0  0  0  0  0  0  0  0  0
   -0.2700    0.9860    1.7980 C   0  0  0  0  0  0  0  0  0  0  0  0
    0.9590    1.5890    1.8860 O   0  0  0  0  0  0  0  0  0  0  0  0
    1.8860    1.4960    0.8800 C   0  0  0  0  0  0  0  0  0  0  0  0
    1.6880    0.7800   -0.2670 C   0  0  0  0  0  0  0  0  0  0  0  0
    2.6690    0.7170   -1.2690 C   0  0  0  0  0  0  0  0  0  0  0  0
    3.8730    1.3700   -1.1450 C   0  0  0  0  0  0  0  0  0  0  0  0
    4.8340    1.3030   -2.1390 O   0  0  0  0  0  0  0  0  0  0  0  0
    6.0760    1.9020   -2.1340 C   0  0  0  0  0  0  0  0  0  0  0  0
    7.0550    1.5090   -1.1350 C   0  0  0  0  0  0  0  0  0  0  0  0
    8.0760    2.2960   -1.0340 O   0  0  0  0  0  0  0  0  0  0  0  0
    7.0390    0.3990   -0.2790 N   0  0  0  0  0  0  0  0  0  0  0  0
    6.0610   -0.6500   -0.2190 C   0  0  0  0  0  0  0  0  0  0  0  0
    6.6960   -1.9690    0.1500 C   0  0  0  0  0  0  0  0  0  0  0  0
    7.9640   -2.1470    0.4170 C   0  0  0  0  0  0  0  0  0  0  0  0
    8.9020   -0.9990    0.3700 C   0  0  0  0  0  0  0  0  0  0  0  0
    8.1460    0.2690    0.6870 C   0  0  0  0  0  0  0  0  0  0  0  0
    4.0740    2.0910    0.0110 C   0  0  0  0  0  0  0  0  0  0  0  0
    3.1200    2.1600    0.9990 C   0  0  0  0  0  0  0  0  0  0  0  0
    3.4290    3.0870    2.4380 Cl  0  0  0  0  0  0  0  0  0  0  0  0
   -2.4610   -0.7270    0.9160 C   0  0  0  0  0  0  0  0  0  0  0  0
   -3.7050   -1.2950    0.7660 C   0  0  0  0  0  0  0  0  0  0  0  0
   -4.7410   -0.5120    0.2900 C   0  0  0  0  0  0  0  0  0  0  0  0
   -6.0760   -0.7690    0.0290 C   0  0  0  0  0  0  0  0  0  0  0  0
   -6.8480   -1.9020    0.1550 C   0  0  0  0  0  0  0  0  0  0  0  0
   -8.2040   -1.8690   -0.1920 C   0  0  0  0  0  0  0  0  0  0  0  0
   -8.9610   -3.0000   -0.0630 F   0  0  0  0  0  0  0  0  0  0  0  0
  1  2  1  0
  2  3  2  0
  2  4  1  0
  4  5  2  0
  4 36  1  0
  5  6  1  0
  6  7  1  0
  6 34  2  0
  7  8  1  0
  8  9  2  0
  8 33  1  0
  9 10  1  0
 10 11  1  0
 10 31  2  0
 11 12  2  3
 12 13  1  0
 13 14  1  0
 14 15  2  0
 14 29  1  0
 15 16  1  0
 16 17  2  0
 17 18  1  0
 17 28  1  0
 18 19  1  0
 19 20  1  0
 20 21  2  0
 20 22  1  0
 22 23  1  0
 22 27  1  0
 23 24  1  0
 24 25  2  0
 25 26  1  0
 26 27  1  0
 28 29  2  0
 29 30  1  0
 31 32  1  0
 32 33  2  0
 33 34  1  0
 34 35  1  0
 35 36  2  0
 36 37  1  0
M  END
