
     RDKit          3D

 37 41  0  0  0  0  0  0  0  0999 V2000
    2.2240   -1.9450   -0.9270 C   0  0  0  0  0  0  0  0  0  0  0  0
    3.0290   -0.6650   -0.8340 C   0  0  1  0  0  0  0  0  0  0  0  0
    2.7550    0.1130   -2.1090 C   0  0  0  0  0  0  0  0  0  0  0  0
    2.5210    0.0970    0.3690 C   0  0  0  0  0  0  0  0  0  0  0  0
    1.1050    0.3750    0.1540 N   0  0  0  0  0  0  0  0  0  0  0  0
    0.3730    1.1000    1.1700 C   0  0  0  0  0  0  0  0  0  0  0  0
    1.0390    1.4460    2.1680 O   0  0  0  0  0  0  0  0  0  0  0  0
   -1.0260    1.3990    1.0080 C   0  0  0  0  0  0  0  0  0  0  0  0
   -1.5660    2.5290    1.5880 C   0  0  0  0  0  0  0  0  0  0  0  0
   -1.0440    3.1930    2.6610 C   0  0  0  0  0  0  0  0  0  0  0  0
   -1.8210    4.2520    2.9460 N   0  0  0  0  0  0  0  0  0  0  0  0
   -2.8790    4.3320    2.0810 C   0  0  0  0  0  0  0  0  0  0  0  0
   -3.8980    5.3090    2.0750 N   0  0  0  0  0  0  0  0  0  0  0  0
   -3.8210    6.3460    3.0970 C   0  0  0  0  0  0  0  0  0  0  0  0
   -3.8720    5.6970    4.3210 F   0  0  0  0  0  0  0  0  0  0  0  0
   -2.7770    3.2770    1.2020 C   0  0  0  0  0  0  0  0  0  0  0  0
   -3.5930    2.9400    0.1570 C   0  0  0  0  0  0  0  0  0  0  0  0
   -4.5830    3.6940    0.0010 O   0  0  0  0  0  0  0  0  0  0  0  0
   -3.4760    1.9340   -0.7000 O   0  0  0  0  0  0  0  0  0  0  0  0
   -2.9250    0.7490   -0.4930 C   0  0  0  0  0  0  0  0  0  0  0  0
   -3.5820   -0.2620   -1.1470 C   0  0  0  0  0  0  0  0  0  0  0  0
   -4.9850    0.0400   -2.1370 Cl  0  0  0  0  0  0  0  0  0  0  0  0
   -3.1220   -1.5640   -1.0210 C   0  0  0  0  0  0  0  0  0  0  0  0
   -2.0210   -1.8090   -0.2450 C   0  0  0  0  0  0  0  0  0  0  0  0
   -1.3550   -0.7920    0.4170 C   0  0  0  0  0  0  0  0  0  0  0  0
   -1.8150    0.4940    0.2860 C   0  0  0  0  0  0  0  0  0  0  0  0
   -1.4360   -3.1740   -0.0400 C   0  0  0  0  0  0  0  0  0  0  0  0
   -2.4440   -4.1900   -0.4720 C   0  0  0  0  0  0  0  0  0  0  0  0
   -2.9520   -3.8390   -1.8560 C   0  0  0  0  0  0  0  0  0  0  0  0
   -3.8650   -2.6630   -1.7510 C   0  0  0  0  0  0  0  0  0  0  0  0
    4.4330   -1.0060   -0.6930 N   0  0  0  0  0  0  0  0  0  0  0  0
    4.8270   -2.2290   -0.3020 C   0  0  0  0  0  0  0  0  0  0  0  0
    6.1440   -2.6090   -0.1500 C   0  0  0  0  0  0  0  0  0  0  0  0
    7.1010   -1.6540   -0.4230 C   0  0  0  0  0  0  0  0  0  0  0  0
    6.7100   -0.3960   -0.8250 C   0  0  0  0  0  0  0  0  0  0  0  0
    5.3730   -0.0810   -0.9570 C   0  0  0  0  0  0  0  0  0  0  0  0
    5.0790    1.0910   -1.3300 O   0  0  0  0  0  0  0  0  0  0  0  0
  2  1  1  6
  2  3  1  0
  2  4  1  0
  2 31  1  0
  4  5  1  0
  5  6  1  0
  6  7  2  0
  6  8  1  0
  8  9  2  0
  8 26  1  0
  9 10  1  0
  9 16  1  0
 10 11  2  0
 11 12  1  0
 12 13  1  0
 12 16  2  0
 13 14  1  0
 14 15  1  0
 16 17  1  0
 17 18  2  0
 17 19  1  0
 19 20  1  0
 20 21  2  0
 20 26  1  0
 21 22  1  0
 21 23  1  0
 23 24  2  0
 23 30  1  0
 24 25  1  0
 24 27  1  0
 25 26  2  0
 27 28  1  0
 28 29  1  0
 29 30  1  0
 31 32  1  0
 31 36  1  0
 32 33  2  0
 33 34  1  0
 34 35  2  0
 35 36  1  0
 36 37  2  0
M  END
