
     RDKit          3D

 36 39  0  0  0  0  0  0  0  0999 V2000
   -1.4240   -2.0290   -1.5790 C   0  0  0  0  0  0  0  0  0  0  0  0
   -2.4520   -1.7730   -0.5290 C   0  0  1  0  0  0  0  0  0  0  0  0
   -1.8720   -2.1910    0.8130 C   0  0  0  0  0  0  0  0  0  0  0  0
   -0.8360   -1.2320    1.1430 N   0  0  0  0  0  0  0  0  0  0  0  0
    0.4740   -1.7010    1.4400 C   0  0  0  0  0  0  0  0  0  0  0  0
    0.7350   -2.9290    1.4180 O   0  0  0  0  0  0  0  0  0  0  0  0
    1.5510   -0.7750    1.7790 C   0  0  0  0  0  0  0  0  0  0  0  0
    2.3760   -0.2340    0.7950 C   0  0  0  0  0  0  0  0  0  0  0  0
    3.3910    0.6380    1.1240 C   0  0  0  0  0  0  0  0  0  0  0  0
    4.3200    1.3160    0.3700 C   0  0  0  0  0  0  0  0  0  0  0  0
    4.6170    1.2820   -1.0570 C   0  0  0  0  0  0  0  0  0  0  0  0
    4.9260    2.4060   -1.6140 O   0  0  0  0  0  0  0  0  0  0  0  0
    4.5950    0.0980   -1.8620 C   0  0  0  0  0  0  0  0  0  0  0  0
    4.4010   -1.0180   -1.3360 O   0  0  0  0  0  0  0  0  0  0  0  0
    4.7900    0.1530   -3.2810 N   0  0  0  0  0  0  0  0  0  0  0  0
    5.0180    1.3830   -3.9700 C   0  0  0  0  0  0  0  0  0  0  0  0
    4.7560   -1.0810   -4.0470 C   0  0  0  0  0  0  0  0  0  0  0  0
    5.0530    2.0630    1.3170 C   0  0  0  0  0  0  0  0  0  0  0  0
    4.5950    1.8430    2.5490 N   0  0  0  0  0  0  0  0  0  0  0  0
    5.0770    2.4160    3.7930 C   0  0  0  0  0  0  0  0  0  0  0  0
    3.5760    0.9710    2.4490 C   0  0  0  0  0  0  0  0  0  0  0  0
    2.7370    0.4180    3.4230 C   0  0  0  0  0  0  0  0  0  0  0  0
    1.7220   -0.4550    3.1060 C   0  0  0  0  0  0  0  0  0  0  0  0
    0.6750   -1.1420    4.3520 Cl  0  0  0  0  0  0  0  0  0  0  0  0
   -1.1890    0.1660    1.1530 C   0  0  2  0  0  0  0  0  0  0  0  0
   -2.1810    0.5230    2.2170 C   0  0  0  0  0  0  0  0  0  0  0  0
   -1.8120    0.5080   -0.1920 C   0  0  0  0  0  0  0  0  0  0  0  0
   -2.9040   -0.4070   -0.4620 N   0  0  1  0  0  0  0  0  0  0  0  0
   -3.6900    0.0080   -1.5730 C   0  0  0  0  0  0  0  0  0  0  0  0
   -5.1500   -0.0300   -1.3070 C   0  0  0  0  0  0  0  0  0  0  0  0
   -5.8540    1.0570   -0.7990 C   0  0  0  0  0  0  0  0  0  0  0  0
   -7.2100    0.9910   -0.5630 C   0  0  0  0  0  0  0  0  0  0  0  0
   -7.9010   -0.1700   -0.8310 C   0  0  0  0  0  0  0  0  0  0  0  0
   -9.2320   -0.3150   -0.6260 F   0  0  0  0  0  0  0  0  0  0  0  0
   -7.2210   -1.2670   -1.3380 C   0  0  0  0  0  0  0  0  0  0  0  0
   -5.8620   -1.1750   -1.5650 C   0  0  0  0  0  0  0  0  0  0  0  0
  2  1  1  6
  2  3  1  0
  2 28  1  0
  3  4  1  0
  4  5  1  0
  4 25  1  0
  5  6  2  0
  5  7  1  0
  7  8  2  0
  7 23  1  0
  8  9  1  0
  9 10  1  0
  9 21  2  0
 10 11  1  0
 10 18  2  0
 11 12  2  0
 11 13  1  0
 13 14  2  0
 13 15  1  0
 15 16  1  0
 15 17  1  0
 18 19  1  0
 19 20  1  0
 19 21  1  0
 21 22  1  0
 22 23  2  0
 23 24  1  0
 25 26  1  1
 25 27  1  0
 27 28  1  0
 28 29  1  6
 29 30  1  0
 30 31  2  0
 30 36  1  0
 31 32  1  0
 32 33  2  0
 33 34  1  0
 33 35  1  0
 35 36  2  0
M  CHG  1  28   1
M  END
