
     RDKit          3D

 37 41  0  0  0  0  0  0  0  0999 V2000
    3.2790    2.6560    3.3350 N   0  0  0  0  0  0  0  0  0  0  0  0
    3.9030    2.0600    2.3450 C   0  0  0  0  0  0  0  0  0  0  0  0
    4.5120    1.4780    1.3470 C   0  0  0  0  0  0  0  0  0  0  0  0
    5.8570    1.7190    0.9550 C   0  0  0  0  0  0  0  0  0  0  0  0
    6.3970    1.1320   -0.1480 C   0  0  0  0  0  0  0  0  0  0  0  0
    5.6710    0.2750   -0.9410 C   0  0  0  0  0  0  0  0  0  0  0  0
    6.2190   -0.3000   -2.0630 C   0  0  0  0  0  0  0  0  0  0  0  0
    5.4650   -1.1450   -2.8490 C   0  0  0  0  0  0  0  0  0  0  0  0
    4.1390   -1.4230   -2.5080 C   0  0  0  0  0  0  0  0  0  0  0  0
    3.6190   -0.8370   -1.3890 C   0  0  0  0  0  0  0  0  0  0  0  0
    4.3320    0.0210   -0.5630 C   0  0  0  0  0  0  0  0  0  0  0  0
    3.7740    0.5850    0.5180 C   0  0  0  0  0  0  0  0  0  0  0  0
    2.4220    0.3200    0.8780 N   0  0  0  0  0  0  0  0  0  0  0  0
    1.3490    1.0830    0.4180 C   0  0  0  0  0  0  0  0  0  0  0  0
    1.6350    2.0440   -0.3750 O   0  0  0  0  0  0  0  0  0  0  0  0
   -0.0310    0.8680    0.7620 C   0  0  0  0  0  0  0  0  0  0  0  0
   -1.0570    1.3720   -0.0360 C   0  0  0  0  0  0  0  0  0  0  0  0
   -2.3780    1.1660    0.2230 C   0  0  0  0  0  0  0  0  0  0  0  0
   -2.7260    0.4190    1.3390 C   0  0  0  0  0  0  0  0  0  0  0  0
   -4.0780    0.1240    1.6250 N   0  0  0  0  0  0  0  0  0  0  0  0
   -4.6350   -0.1110    2.9030 C   0  0  0  0  0  0  0  0  0  0  0  0
   -3.9070   -0.0510    3.9010 O   0  0  0  0  0  0  0  0  0  0  0  0
   -6.1180   -0.4370    3.0100 C   0  0  0  0  0  0  0  0  0  0  0  0
   -6.7330   -0.5600    1.8730 O   0  0  0  0  0  0  0  0  0  0  0  0
   -7.2420   -0.7920    0.7250 C   0  0  0  0  0  0  0  0  0  0  0  0
   -8.3450   -0.0490    0.2650 C   0  0  0  0  0  0  0  0  0  0  0  0
   -8.9200   -0.2470   -0.9510 C   0  0  0  0  0  0  0  0  0  0  0  0
   -8.4210   -1.2120   -1.7860 C   0  0  0  0  0  0  0  0  0  0  0  0
   -9.1090   -1.5220   -3.3770 Cl  0  0  0  0  0  0  0  0  0  0  0  0
   -7.3450   -1.9550   -1.3630 C   0  0  0  0  0  0  0  0  0  0  0  0
   -6.7970   -1.7420   -0.1670 N   0  0  0  0  0  0  0  0  0  0  0  0
   -1.7410   -0.0840    2.1360 C   0  0  0  0  0  0  0  0  0  0  0  0
   -0.4060    0.1390    1.8510 C   0  0  0  0  0  0  0  0  0  0  0  0
    0.5220   -0.3900    2.7210 F   0  0  0  0  0  0  0  0  0  0  0  0
    6.2320   -1.5940   -3.9130 O   0  0  0  0  0  0  0  0  0  0  0  0
    7.5340   -1.1180   -3.8370 C   0  0  0  0  0  0  0  0  0  0  0  0
    7.5610   -0.1720   -2.6950 C   0  0  0  0  0  0  0  0  0  0  0  0
  1  2  3  0
  2  3  1  0
  3  4  2  0
  3 12  1  0
  4  5  1  0
  5  6  2  0
  6  7  1  0
  6 11  1  0
  7  8  2  0
  7 37  1  0
  8  9  1  0
  8 35  1  0
  9 10  2  0
 10 11  1  0
 11 12  2  0
 12 13  1  0
 13 14  1  0
 14 15  2  0
 14 16  1  0
 16 17  2  0
 16 33  1  0
 17 18  1  0
 18 19  2  0
 19 20  1  0
 19 32  1  0
 20 21  1  0
 21 22  2  0
 21 23  1  0
 23 24  1  0
 24 25  1  0
 25 26  2  0
 25 31  1  0
 26 27  1  0
 27 28  2  0
 28 29  1  0
 28 30  1  0
 30 31  2  0
 32 33  2  0
 33 34  1  0
 35 36  1  0
 36 37  1  0
M  END
