
     RDKit          3D

 37 41  0  0  0  0  0  0  0  0999 V2000
    7.3910    3.9070    1.7350 C   0  0  0  0  0  0  0  0  0  0  0  0
    7.2040    2.5610    2.1320 O   0  0  0  0  0  0  0  0  0  0  0  0
    6.5780    1.6080    1.3760 C   0  0  0  0  0  0  0  0  0  0  0  0
    7.3440    1.1170    0.4020 C   0  0  0  0  0  0  0  0  0  0  0  0
    7.1920    0.1280   -0.6510 C   0  0  0  0  0  0  0  0  0  0  0  0
    6.2650   -0.6630   -1.0690 N   0  0  0  0  0  0  0  0  0  0  0  0
    4.9230   -0.9430   -0.6850 C   0  0  0  0  0  0  0  0  0  0  0  0
    4.4150   -1.8990   -1.5230 C   0  0  0  0  0  0  0  0  0  0  0  0
    3.1210   -2.3680   -1.3970 C   0  0  0  0  0  0  0  0  0  0  0  0
    2.2620   -1.8860   -0.3990 C   0  0  0  0  0  0  0  0  0  0  0  0
    0.9500   -2.4150   -0.3240 N   0  0  0  0  0  0  0  0  0  0  0  0
   -0.1130   -2.0060    0.4960 C   0  0  0  0  0  0  0  0  0  0  0  0
    0.0640   -1.0580    1.2900 O   0  0  0  0  0  0  0  0  0  0  0  0
   -1.4410   -2.6610    0.4610 C   0  0  0  0  0  0  0  0  0  0  0  0
   -2.4540   -1.7990   -0.1420 N   0  0  0  0  0  0  0  0  0  0  0  0
   -3.2210   -1.0180    0.5900 N   0  0  0  0  0  0  0  0  0  0  0  0
   -4.2000   -0.2280    0.0300 C   0  0  0  0  0  0  0  0  0  0  0  0
   -5.0110    0.5840    0.9480 C   0  0  0  0  0  0  0  0  0  0  0  0
   -4.5000    1.1420    2.0730 C   0  0  0  0  0  0  0  0  0  0  0  0
   -5.5220    1.8770    2.8010 C   0  0  0  0  0  0  0  0  0  0  0  0
   -6.7530    1.6360    2.0320 C   0  0  0  0  0  0  0  0  0  0  0  0
   -6.4180    0.9020    0.9770 C   0  0  0  0  0  0  0  0  0  0  0  0
   -7.4180    0.5270    0.0650 O   0  0  0  0  0  0  0  0  0  0  0  0
   -4.3810   -0.2400   -1.3230 C   0  0  0  0  0  0  0  0  0  0  0  0
   -5.2740    0.5530   -1.9650 C   0  0  0  0  0  0  0  0  0  0  0  0
   -5.3690    0.5170   -3.3540 C   0  0  0  0  0  0  0  0  0  0  0  0
   -4.5700   -0.3090   -4.1280 C   0  0  0  0  0  0  0  0  0  0  0  0
   -4.6660   -0.3440   -5.4620 F   0  0  0  0  0  0  0  0  0  0  0  0
   -3.6620   -1.1080   -3.4920 C   0  0  0  0  0  0  0  0  0  0  0  0
   -3.5630   -1.0780   -2.1250 C   0  0  0  0  0  0  0  0  0  0  0  0
   -2.6230   -1.8270   -1.4580 C   0  0  0  0  0  0  0  0  0  0  0  0
   -1.8880   -2.5790   -2.1470 O   0  0  0  0  0  0  0  0  0  0  0  0
    2.7920   -0.9310    0.4280 C   0  0  0  0  0  0  0  0  0  0  0  0
    4.1010   -0.4580    0.2990 C   0  0  0  0  0  0  0  0  0  0  0  0
    4.2510    0.5360    1.3830 C   0  0  0  0  0  0  0  0  0  0  0  0
    2.7790    0.6240    2.3160 Cl  0  0  0  0  0  0  0  0  0  0  0  0
    5.2110    1.3410    1.8050 C   0  0  0  0  0  0  0  0  0  0  0  0
  1  2  1  0
  2  3  1  0
  3  4  2  0
  3 37  1  0
  4  5  1  0
  5  6  2  0
  6  7  1  0
  7  8  2  0
  7 34  1  0
  8  9  1  0
  9 10  2  0
 10 11  1  0
 10 33  1  0
 11 12  1  0
 12 13  2  0
 12 14  1  0
 14 15  1  0
 15 16  1  0
 15 31  1  0
 16 17  2  0
 17 18  1  0
 17 24  1  0
 18 19  2  0
 18 22  1  0
 19 20  1  0
 20 21  1  0
 21 22  2  0
 22 23  1  0
 24 25  2  0
 24 30  1  0
 25 26  1  0
 26 27  2  0
 27 28  1  0
 27 29  1  0
 29 30  2  0
 30 31  1  0
 31 32  2  0
 33 34  2  0
 34 35  1  0
 35 36  1  0
 35 37  2  0
M  END
