
     RDKit          3D

 37 41  0  0  0  0  0  0  0  0999 V2000
    4.4260    4.4450   -1.7490 C   0  0  0  0  0  0  0  0  0  0  0  0
    3.8090    3.1650   -1.3460 C   0  0  0  0  0  0  0  0  0  0  0  0
    2.6360    2.9260   -1.7030 O   0  0  0  0  0  0  0  0  0  0  0  0
    4.5460    2.2000   -0.5510 C   0  0  0  0  0  0  0  0  0  0  0  0
    5.8410    2.4280   -0.1380 C   0  0  0  0  0  0  0  0  0  0  0  0
    6.5030    1.4850    0.6150 C   0  0  0  0  0  0  0  0  0  0  0  0
    7.7680    1.7720    0.9860 F   0  0  0  0  0  0  0  0  0  0  0  0
    5.8600    0.3270    0.9450 C   0  0  0  0  0  0  0  0  0  0  0  0
    4.5430    0.0290    0.5590 C   0  0  0  0  0  0  0  0  0  0  0  0
    3.9780   -1.2140    0.9500 N   0  0  0  0  0  0  0  0  0  0  0  0
    2.6400   -1.6290    0.8490 C   0  0  0  0  0  0  0  0  0  0  0  0
    1.8370   -0.8140    0.3620 O   0  0  0  0  0  0  0  0  0  0  0  0
    2.1600   -2.9370    1.2770 C   0  0  0  0  0  0  0  0  0  0  0  0
    3.1020   -3.8970    1.6870 C   0  0  0  0  0  0  0  0  0  0  0  0
    2.6840   -5.1670    2.0180 C   0  0  0  0  0  0  0  0  0  0  0  0
    3.8410   -6.4020    2.5370 Cl  0  0  0  0  0  0  0  0  0  0  0  0
    1.3710   -5.5410    1.9650 C   0  0  0  0  0  0  0  0  0  0  0  0
    0.4550   -4.5860    1.5620 C   0  0  0  0  0  0  0  0  0  0  0  0
    0.8260   -3.2720    1.2130 C   0  0  0  0  0  0  0  0  0  0  0  0
   -0.1370   -2.3000    0.9140 N   0  0  0  0  0  0  0  0  0  0  0  0
   -1.4500   -2.5990    0.4720 C   0  0  0  0  0  0  0  0  0  0  0  0
   -1.8570   -3.7730    0.3000 O   0  0  0  0  0  0  0  0  0  0  0  0
   -2.4140   -1.5090    0.1910 C   0  0  0  0  0  0  0  0  0  0  0  0
   -3.6230   -1.7800   -0.2150 C   0  0  0  0  0  0  0  0  0  0  0  0
   -4.6290   -0.7740   -0.5130 C   0  0  0  0  0  0  0  0  0  0  0  0
   -5.8740   -1.1810   -0.9350 C   0  0  0  0  0  0  0  0  0  0  0  0
   -6.8450   -0.2440   -1.2240 C   0  0  0  0  0  0  0  0  0  0  0  0
   -6.6180    1.1200   -1.1050 C   0  0  0  0  0  0  0  0  0  0  0  0
   -7.3270    2.2040   -1.3020 O   0  0  0  0  0  0  0  0  0  0  0  0
   -6.6140    3.2780   -1.0320 C   0  0  0  0  0  0  0  0  0  0  0  0
   -6.6470    4.6280   -0.9990 N   0  0  0  0  0  0  0  0  0  0  0  0
   -5.4380    5.0810   -0.5860 C   0  0  0  0  0  0  0  0  0  0  0  0
   -4.6820    3.9490   -0.3750 C   0  0  0  0  0  0  0  0  0  0  0  0
   -5.3920    2.8490   -0.6450 N   0  0  0  0  0  0  0  0  0  0  0  0
   -5.3550    1.5020   -0.6770 C   0  0  0  0  0  0  0  0  0  0  0  0
   -4.3780    0.5580   -0.3860 C   0  0  0  0  0  0  0  0  0  0  0  0
    3.9210    0.9940   -0.1890 C   0  0  0  0  0  0  0  0  0  0  0  0
  1  2  1  0
  2  3  2  0
  2  4  1  0
  4  5  2  0
  4 37  1  0
  5  6  1  0
  6  7  1  0
  6  8  2  0
  8  9  1  0
  9 10  1  0
  9 37  2  0
 10 11  1  0
 11 12  2  0
 11 13  1  0
 13 14  2  0
 13 19  1  0
 14 15  1  0
 15 16  1  0
 15 17  2  0
 17 18  1  0
 18 19  2  0
 19 20  1  0
 20 21  1  0
 21 22  2  0
 21 23  1  0
 23 24  2  3
 24 25  1  0
 25 26  2  0
 25 36  1  0
 26 27  1  0
 27 28  2  0
 28 29  1  0
 28 35  1  0
 29 30  1  0
 30 31  2  0
 30 34  1  0
 31 32  1  0
 32 33  2  0
 33 34  1  0
 34 35  1  0
 35 36  2  0
M  END
