
     RDKit          3D

 27 30  0  0  0  0  0  0  0  0999 V2000
   -5.4290   -2.8690    0.4270 C   0  0  0  0  0  0  0  0  0  0  0  0
   -4.7810   -3.2780   -0.8710 C   0  0  0  0  0  0  0  0  0  0  0  0
   -3.3440   -3.1980   -0.7040 N   0  0  0  0  0  0  0  0  0  0  0  0
   -2.7010   -1.9650   -0.3840 C   0  0  0  0  0  0  0  0  0  0  0  0
   -1.4030   -1.7890   -0.2110 N   0  0  0  0  0  0  0  0  0  0  0  0
   -1.1180   -0.4790    0.0860 C   0  0  0  0  0  0  0  0  0  0  0  0
    0.2560   -0.0580    0.3260 C   0  0  0  0  0  0  0  0  0  0  0  0
    0.6430    0.7770    1.1350 O   0  0  0  0  0  0  0  0  0  0  0  0
    1.2900   -0.6780   -0.4660 N   0  0  0  0  0  0  0  0  0  0  0  0
    2.6700   -0.4220   -0.3950 C   0  0  0  0  0  0  0  0  0  0  0  0
    3.4900   -0.9410   -1.4130 C   0  0  0  0  0  0  0  0  0  0  0  0
    4.8500   -0.7650   -1.4400 C   0  0  0  0  0  0  0  0  0  0  0  0
    5.5040   -0.0590   -0.4580 C   0  0  0  0  0  0  0  0  0  0  0  0
    6.8720    0.1180   -0.4850 C   0  0  0  0  0  0  0  0  0  0  0  0
    7.4710    0.8350    0.5270 C   0  0  0  0  0  0  0  0  0  0  0  0
    6.6760    1.3470    1.5300 C   0  0  0  0  0  0  0  0  0  0  0  0
    5.3530    1.1480    1.5120 N   0  0  0  0  0  0  0  0  0  0  0  0
    4.7250    0.4570    0.5470 C   0  0  0  0  0  0  0  0  0  0  0  0
    3.3320    0.2790    0.5790 C   0  0  0  0  0  0  0  0  0  0  0  0
   -2.2880    0.1750    0.0900 C   0  0  0  0  0  0  0  0  0  0  0  0
   -2.6070    1.5790    0.3300 C   0  0  0  0  0  0  0  0  0  0  0  0
   -1.7470    2.5890    0.5280 C   0  0  0  0  0  0  0  0  0  0  0  0
   -2.2150    3.9030    0.6890 C   0  0  0  0  0  0  0  0  0  0  0  0
   -3.5540    4.1610    0.6430 C   0  0  0  0  0  0  0  0  0  0  0  0
   -4.4320    3.1190    0.4380 C   0  0  0  0  0  0  0  0  0  0  0  0
   -3.9400    1.8990    0.2930 N   0  0  0  0  0  0  0  0  0  0  0  0
   -3.2620   -0.7650   -0.2010 N   0  0  0  0  0  0  0  0  0  0  0  0
  1  2  1  0
  2  3  1  0
  3  4  1  0
  4  5  2  0
  4 27  1  0
  5  6  1  0
  6  7  1  0
  6 20  2  0
  7  8  2  0
  7  9  1  0
  9 10  1  0
 10 11  2  0
 10 19  1  0
 11 12  1  0
 12 13  2  0
 13 14  1  0
 13 18  1  0
 14 15  2  0
 15 16  1  0
 16 17  2  0
 17 18  1  0
 18 19  2  0
 20 21  1  0
 20 27  1  0
 21 22  2  0
 21 26  1  0
 22 23  1  0
 23 24  2  0
 24 25  1  0
 25 26  2  0
M  END
