
     RDKit          3D

 27 30  0  0  0  0  0  0  0  0999 V2000
   -3.4030   -2.8210    0.1260 O   0  0  0  0  0  0  0  0  0  0  0  0
   -2.7070   -1.8570    0.4590 C   0  0  0  0  0  0  0  0  0  0  0  0
   -1.6130   -1.4520   -0.3690 N   0  0  0  0  0  0  0  0  0  0  0  0
   -1.2610   -2.0760   -1.5680 C   0  0  0  0  0  0  0  0  0  0  0  0
   -2.0510   -2.9550   -2.2910 C   0  0  0  0  0  0  0  0  0  0  0  0
   -1.4230   -3.2640   -3.4290 N   0  0  0  0  0  0  0  0  0  0  0  0
   -0.2830   -2.6360   -3.4700 N   0  0  0  0  0  0  0  0  0  0  0  0
   -0.1360   -1.8830   -2.3300 C   0  0  0  0  0  0  0  0  0  0  0  0
    1.0480   -1.0460   -2.1150 C   0  0  0  0  0  0  0  0  0  0  0  0
    1.8440   -0.6830   -3.2020 C   0  0  0  0  0  0  0  0  0  0  0  0
    3.0060    0.0420   -3.0810 C   0  0  0  0  0  0  0  0  0  0  0  0
    3.4590    0.4600   -1.8470 C   0  0  0  0  0  0  0  0  0  0  0  0
    4.6570    1.2070   -1.7090 N   0  0  0  0  0  0  0  0  0  0  0  0
    4.7330    2.3970   -1.2430 C   0  0  0  0  0  0  0  0  0  0  0  0
    3.5200    3.0740   -0.8120 C   0  0  0  0  0  0  0  0  0  0  0  0
    3.5550    4.3150   -0.3160 C   0  0  0  0  0  0  0  0  0  0  0  0
    4.7690    4.9980   -0.1990 N   0  0  0  0  0  0  0  0  0  0  0  0
    5.8680    4.4780   -0.5520 C   0  0  0  0  0  0  0  0  0  0  0  0
    6.0160    3.1190   -1.1210 C   0  0  0  0  0  0  0  0  0  0  0  0
    2.6890    0.1110   -0.7660 C   0  0  0  0  0  0  0  0  0  0  0  0
    1.5000   -0.6330   -0.8930 C   0  0  0  0  0  0  0  0  0  0  0  0
   -3.0320   -1.1880    1.6650 N   0  0  0  0  0  0  0  0  0  0  0  0
   -4.1280   -1.6270    2.4580 C   0  0  2  0  0  0  0  0  0  0  0  0
   -5.1220   -0.5280    2.7700 C   0  0  0  0  0  0  0  0  0  0  0  0
   -4.2780    0.3900    3.6240 C   0  0  0  0  0  0  0  0  0  0  0  0
   -3.5440   -0.5820    4.5210 C   0  0  0  0  0  0  0  0  0  0  0  0
   -3.6250   -1.9430    3.8530 C   0  0  0  0  0  0  0  0  0  0  0  0
  1  2  2  0
  2  3  1  0
  2 22  1  0
  3  4  1  0
  4  5  1  0
  4  8  2  0
  5  6  2  0
  6  7  1  0
  7  8  1  0
  8  9  1  0
  9 10  2  0
  9 21  1  0
 10 11  1  0
 11 12  2  0
 12 13  1  0
 12 20  1  0
 13 14  2  3
 14 15  1  0
 14 19  1  0
 15 16  2  0
 16 17  1  0
 17 18  2  0
 18 19  1  0
 20 21  2  0
 23 22  1  6
 23 24  1  0
 23 27  1  0
 24 25  1  0
 25 26  1  0
 26 27  1  0
M  END
