
     RDKit          3D

 26 29  0  0  0  0  0  0  0  0999 V2000
    5.1430   -0.0620    1.2760 C   0  0  0  0  0  0  0  0  0  0  0  0
    4.9050    0.0570   -0.1860 C   0  0  0  0  0  0  0  0  0  0  0  0
    5.6460   -0.0650   -1.2600 N   0  0  0  0  0  0  0  0  0  0  0  0
    4.9110    0.0050   -2.3650 N   0  0  0  0  0  0  0  0  0  0  0  0
    3.6620    0.1780   -1.9770 C   0  0  0  0  0  0  0  0  0  0  0  0
    3.5490    0.2260   -0.6320 C   0  0  0  0  0  0  0  0  0  0  0  0
    2.5500    0.6260    0.2690 N   0  0  0  0  0  0  0  0  0  0  0  0
    1.3310    0.3320    0.7390 C   0  0  0  0  0  0  0  0  0  0  0  0
    0.0820   -0.2470    0.2990 C   0  0  0  0  0  0  0  0  0  0  0  0
   -0.2350   -1.5940    0.2040 C   0  0  0  0  0  0  0  0  0  0  0  0
   -1.5330   -1.7220    0.1560 N   0  0  0  0  0  0  0  0  0  0  0  0
   -2.3600   -2.8960    0.1410 C   0  0  0  0  0  0  0  0  0  0  0  0
   -3.7640   -2.7630    0.0880 C   0  0  0  0  0  0  0  0  0  0  0  0
   -4.6030   -3.7810    0.1450 C   0  0  0  0  0  0  0  0  0  0  0  0
   -3.9950   -5.0760    0.2790 C   0  0  0  0  0  0  0  0  0  0  0  0
   -2.7360   -5.2200    0.3250 N   0  0  0  0  0  0  0  0  0  0  0  0
   -1.8810   -4.1850    0.2600 C   0  0  0  0  0  0  0  0  0  0  0  0
   -2.0970   -0.4750    0.2160 N   0  0  0  0  0  0  0  0  0  0  0  0
   -1.1530    0.4540    0.2950 C   0  0  0  0  0  0  0  0  0  0  0  0
   -1.3590    1.8800    0.2800 C   0  0  0  0  0  0  0  0  0  0  0  0
   -1.9180    2.5920    1.2940 C   0  0  0  0  0  0  0  0  0  0  0  0
   -2.3120    3.9340    1.1620 C   0  0  0  0  0  0  0  0  0  0  0  0
   -2.1430    4.6220    0.0050 C   0  0  0  0  0  0  0  0  0  0  0  0
   -1.5800    3.9220   -1.0400 C   0  0  0  0  0  0  0  0  0  0  0  0
   -1.4030    4.5730   -2.2620 O   0  0  0  0  0  0  0  0  0  0  0  0
   -1.1800    2.5800   -0.9510 C   0  0  0  0  0  0  0  0  0  0  0  0
  1  2  1  0
  2  3  2  0
  2  6  1  0
  3  4  1  0
  4  5  1  0
  5  6  2  0
  6  7  1  0
  7  8  1  0
  8  9  1  0
  9 10  2  0
  9 19  1  0
 10 11  1  0
 11 12  1  0
 11 18  1  0
 12 13  2  0
 12 17  1  0
 13 14  1  0
 14 15  2  0
 15 16  1  0
 16 17  2  0
 18 19  2  0
 19 20  1  0
 20 21  2  0
 20 26  1  0
 21 22  1  0
 22 23  2  0
 23 24  1  0
 24 25  1  0
 24 26  2  0
M  END
