
     RDKit          3D

 18 19  0  0  0  0  0  0  0  0999 V2000
   -4.9970    0.5910    0.5700 C   0  0  0  0  0  0  0  0  0  0  0  0
   -3.5850    0.1370    0.4810 C   0  0  0  0  0  0  0  0  0  0  0  0
   -3.0730   -0.6420    1.5020 C   0  0  0  0  0  0  0  0  0  0  0  0
   -1.7550   -1.0880    1.4580 C   0  0  0  0  0  0  0  0  0  0  0  0
   -1.0490   -1.8330    2.3020 N   0  0  0  0  0  0  0  0  0  0  0  0
    0.1740   -1.9520    1.7560 C   0  0  0  0  0  0  0  0  0  0  0  0
    1.1050   -2.5870    2.2730 O   0  0  0  0  0  0  0  0  0  0  0  0
    0.2650   -1.3010    0.5850 N   0  0  0  0  0  0  0  0  0  0  0  0
    1.3190   -1.1370   -0.3400 C   0  0  0  0  0  0  0  0  0  0  0  0
    2.2160    0.0270   -0.1580 C   0  0  0  0  0  0  0  0  0  0  0  0
    3.2810    0.0480   -1.2280 C   0  0  0  0  0  0  0  0  0  0  0  0
    4.1800    1.2310   -1.0520 C   0  0  0  0  0  0  0  0  0  0  0  0
    4.9130    1.2730    0.2580 C   0  0  0  0  0  0  0  0  0  0  0  0
    5.6970    2.4230    0.2290 F   0  0  0  0  0  0  0  0  0  0  0  0
   -0.9620   -0.7550    0.4010 C   0  0  0  0  0  0  0  0  0  0  0  0
   -1.5040    0.0330   -0.6160 C   0  0  0  0  0  0  0  0  0  0  0  0
   -2.8050    0.4880   -0.5980 C   0  0  0  0  0  0  0  0  0  0  0  0
   -3.3310    1.3250   -1.7100 C   0  0  0  0  0  0  0  0  0  0  0  0
  1  2  1  0
  2  3  2  0
  2 17  1  0
  3  4  1  0
  4  5  1  0
  4 15  2  0
  5  6  1  0
  6  7  2  0
  6  8  1  0
  8  9  1  0
  8 15  1  0
  9 10  1  0
 10 11  1  0
 11 12  1  0
 12 13  1  0
 13 14  1  0
 15 16  1  0
 16 17  2  0
 17 18  1  0
M  END
