
     RDKit          3D

 27 30  0  0  0  0  0  0  0  0999 V2000
   -6.0480    0.4890   -3.0650 C   0  0  0  0  0  0  0  0  0  0  0  0
   -6.5440    0.5580   -1.7060 N   0  0  0  0  0  0  0  0  0  0  0  0
   -5.7900    0.1160   -0.7580 C   0  0  0  0  0  0  0  0  0  0  0  0
   -4.4490   -0.4500   -1.0420 C   0  0  0  0  0  0  0  0  0  0  0  0
   -3.4430    0.3160   -0.3540 N   0  0  0  0  0  0  0  0  0  0  0  0
   -2.0560    0.0020   -0.4430 C   0  0  0  0  0  0  0  0  0  0  0  0
   -1.6970   -1.0840   -1.2260 C   0  0  0  0  0  0  0  0  0  0  0  0
   -0.3600   -1.4200   -1.3360 C   0  0  0  0  0  0  0  0  0  0  0  0
    0.6150   -0.6900   -0.6790 C   0  0  0  0  0  0  0  0  0  0  0  0
    1.9960   -0.7630   -0.5860 C   0  0  0  0  0  0  0  0  0  0  0  0
    2.4290    0.2380    0.2180 C   0  0  0  0  0  0  0  0  0  0  0  0
    3.8190    0.5460    0.5990 C   0  0  0  0  0  0  0  0  0  0  0  0
    4.2430    1.5350    1.3930 N   0  0  0  0  0  0  0  0  0  0  0  0
    5.5140    1.4760    1.4850 O   0  0  0  0  0  0  0  0  0  0  0  0
    5.9780    0.4840    0.7850 C   0  0  0  0  0  0  0  0  0  0  0  0
    7.4030    0.0880    0.6380 C   0  0  0  0  0  0  0  0  0  0  0  0
    7.8700   -0.9200   -0.0740 C   0  0  0  0  0  0  0  0  0  0  0  0
    9.3490   -1.0030    0.0220 C   0  0  0  0  0  0  0  0  0  0  0  0
    9.6710    0.1320    0.9150 C   0  0  0  0  0  0  0  0  0  0  0  0
    8.5450    0.7400    1.2540 C   0  0  0  0  0  0  0  0  0  0  0  0
    4.9250   -0.1210    0.2140 N   0  0  0  0  0  0  0  0  0  0  0  0
    1.3570    0.9210    0.6190 N   0  0  0  0  0  0  0  0  0  0  0  0
    0.2350    0.3810    0.0900 C   0  0  0  0  0  0  0  0  0  0  0  0
   -1.0920    0.7320    0.2130 C   0  0  0  0  0  0  0  0  0  0  0  0
   -6.2300    0.1590    0.6040 N   0  0  0  0  0  0  0  0  0  0  0  0
   -6.4350    1.4110    1.3040 C   0  0  0  0  0  0  0  0  0  0  0  0
   -6.4700   -1.0840    1.2840 C   0  0  0  0  0  0  0  0  0  0  0  0
  1  2  1  0
  2  3  2  3
  3  4  1  0
  3 25  1  0
  4  5  1  0
  5  6  1  0
  6  7  2  0
  6 24  1  0
  7  8  1  0
  8  9  2  0
  9 10  1  0
  9 23  1  0
 10 11  2  0
 11 12  1  0
 11 22  1  0
 12 13  2  0
 12 21  1  0
 13 14  1  0
 14 15  1  0
 15 16  1  0
 15 21  2  0
 16 17  2  0
 16 20  1  0
 17 18  1  0
 18 19  1  0
 19 20  2  0
 22 23  1  0
 23 24  2  0
 25 26  1  0
 25 27  1  0
M  END
