
     RDKit          3D

 27 30  0  0  0  0  0  0  0  0999 V2000
    7.8850    1.0570   -0.1970 C   0  0  0  0  0  0  0  0  0  0  0  0
    6.7140    1.5960    0.0360 C   0  0  0  0  0  0  0  0  0  0  0  0
    5.5050    0.7430   -0.0450 C   0  0  0  0  0  0  0  0  0  0  0  0
    5.6960   -0.4550   -0.3370 O   0  0  0  0  0  0  0  0  0  0  0  0
    4.2240    1.2750    0.1970 N   0  0  0  0  0  0  0  0  0  0  0  0
    3.0170    0.5330    0.1440 C   0  0  0  0  0  0  0  0  0  0  0  0
    2.9050   -0.8190   -0.0250 C   0  0  0  0  0  0  0  0  0  0  0  0
    1.6770   -1.4920   -0.0780 C   0  0  0  0  0  0  0  0  0  0  0  0
    0.5320   -0.7560    0.0470 C   0  0  0  0  0  0  0  0  0  0  0  0
   -0.7400   -1.3230    0.0090 C   0  0  0  0  0  0  0  0  0  0  0  0
   -0.8860   -2.7220   -0.1660 N   0  0  0  0  0  0  0  0  0  0  0  0
   -2.1170   -3.4210   -0.2210 C   0  0  0  0  0  0  0  0  0  0  0  0
   -2.2960   -4.7970   -0.3920 C   0  0  0  0  0  0  0  0  0  0  0  0
   -3.6400   -5.0700   -0.3910 C   0  0  0  0  0  0  0  0  0  0  0  0
   -4.2600   -3.8930   -0.2240 N   0  0  0  0  0  0  0  0  0  0  0  0
   -3.3420   -2.9110   -0.1230 N   0  0  0  0  0  0  0  0  0  0  0  0
   -1.8000   -0.5000    0.1430 N   0  0  0  0  0  0  0  0  0  0  0  0
   -1.7220    0.8240    0.3090 C   0  0  0  0  0  0  0  0  0  0  0  0
   -2.8740    1.7140    0.4540 C   0  0  0  0  0  0  0  0  0  0  0  0
   -4.1800    1.3060    0.4370 C   0  0  0  0  0  0  0  0  0  0  0  0
   -5.2200    2.2350    0.5840 C   0  0  0  0  0  0  0  0  0  0  0  0
   -4.9800    3.5800    0.7490 C   0  0  0  0  0  0  0  0  0  0  0  0
   -3.6650    3.9920    0.7660 C   0  0  0  0  0  0  0  0  0  0  0  0
   -2.6480    3.0730    0.6210 C   0  0  0  0  0  0  0  0  0  0  0  0
   -0.4670    1.3430    0.3410 N   0  0  0  0  0  0  0  0  0  0  0  0
    0.6450    0.6070    0.2180 C   0  0  0  0  0  0  0  0  0  0  0  0
    1.8380    1.2640    0.2690 C   0  0  0  0  0  0  0  0  0  0  0  0
  1  2  2  0
  2  3  1  0
  3  4  2  0
  3  5  1  0
  5  6  1  0
  6  7  2  0
  6 27  1  0
  7  8  1  0
  8  9  2  0
  9 10  1  0
  9 26  1  0
 10 11  1  0
 10 17  2  0
 11 12  1  0
 12 13  2  0
 12 16  1  0
 13 14  1  0
 14 15  2  0
 15 16  1  0
 17 18  1  0
 18 19  1  0
 18 25  2  0
 19 20  2  0
 19 24  1  0
 20 21  1  0
 21 22  2  0
 22 23  1  0
 23 24  2  0
 25 26  1  0
 26 27  2  0
M  END
