
     RDKit          3D

 27 30  0  0  0  0  0  0  0  0999 V2000
   -6.9620   -0.2370    0.5470 C   0  0  0  0  0  0  0  0  0  0  0  0
   -5.8670   -1.0830   -0.0850 C   0  0  0  0  0  0  0  0  0  0  0  0
   -5.3630   -0.3990   -1.3290 C   0  0  0  0  0  0  0  0  0  0  0  0
   -4.8060    0.8970   -1.1160 N   0  0  0  0  0  0  0  0  0  0  0  0
   -5.5610    2.0340   -1.2440 C   0  0  0  0  0  0  0  0  0  0  0  0
   -4.7490    3.1230   -1.0130 C   0  0  0  0  0  0  0  0  0  0  0  0
   -3.5150    2.6100   -0.7480 C   0  0  0  0  0  0  0  0  0  0  0  0
   -3.5440    1.2090   -0.8100 C   0  0  0  0  0  0  0  0  0  0  0  0
   -2.3670    0.3690   -0.5740 C   0  0  0  0  0  0  0  0  0  0  0  0
   -1.0990    0.8150   -0.3980 N   0  0  0  0  0  0  0  0  0  0  0  0
   -0.2420   -0.1960   -0.2230 C   0  0  0  0  0  0  0  0  0  0  0  0
    1.1430   -0.2640   -0.0080 C   0  0  0  0  0  0  0  0  0  0  0  0
    1.8100   -1.4470    0.1440 C   0  0  0  0  0  0  0  0  0  0  0  0
    3.1960   -1.6190    0.3620 N   0  0  0  0  0  0  0  0  0  0  0  0
    4.1710   -0.6070    0.4360 C   0  0  0  0  0  0  0  0  0  0  0  0
    3.8170    0.5610    0.3020 O   0  0  0  0  0  0  0  0  0  0  0  0
    5.5390   -0.9070    0.6600 N   0  0  0  0  0  0  0  0  0  0  0  0
    6.6040    0.0160    0.7490 C   0  0  0  0  0  0  0  0  0  0  0  0
    6.4910    1.3220    0.4460 C   0  0  0  0  0  0  0  0  0  0  0  0
    7.6130    2.1470    0.5870 C   0  0  0  0  0  0  0  0  0  0  0  0
    8.8050    1.5980    1.0330 C   0  0  0  0  0  0  0  0  0  0  0  0
    8.8700    0.2940    1.3220 N   0  0  0  0  0  0  0  0  0  0  0  0
    7.8220   -0.5330    1.2020 C   0  0  0  0  0  0  0  0  0  0  0  0
    1.0120   -2.6020    0.0720 C   0  0  0  0  0  0  0  0  0  0  0  0
   -0.3480   -2.5350   -0.1390 C   0  0  0  0  0  0  0  0  0  0  0  0
   -0.9970   -1.3340   -0.2900 C   0  0  0  0  0  0  0  0  0  0  0  0
   -2.2990   -0.9520   -0.5060 N   0  0  0  0  0  0  0  0  0  0  0  0
  1  2  1  0
  2  3  1  0
  3  4  1  0
  4  5  1  0
  4  8  1  0
  5  6  2  0
  6  7  1  0
  7  8  2  0
  8  9  1  0
  9 10  2  0
  9 27  1  0
 10 11  1  0
 11 12  2  0
 11 26  1  0
 12 13  1  0
 13 14  1  0
 13 24  2  0
 14 15  1  0
 15 16  2  0
 15 17  1  0
 17 18  1  0
 18 19  2  0
 18 23  1  0
 19 20  1  0
 20 21  2  0
 21 22  1  0
 22 23  2  0
 24 25  1  0
 25 26  2  0
 26 27  1  0
M  END
