
     RDKit          3D

 40 45  0  0  0  0  0  0  0  0999 V2000
    2.5260   -2.7850    0.9550 N   0  0  0  0  0  0  0  0  0  0  0  0
    3.4900   -2.6450   -0.0590 C   0  0  2  0  0  0  0  0  0  0  0  0
    4.8410   -2.2010    0.4080 C   0  0  0  0  0  0  0  0  0  0  0  0
    4.9050   -0.8970    1.1110 C   0  0  0  0  0  0  0  0  0  0  0  0
    6.3530   -0.5940    1.5310 C   0  0  0  0  0  0  0  0  0  0  0  0
    6.8580   -1.5520    2.3750 O   0  0  0  0  0  0  0  0  0  0  0  0
    3.0290   -2.0010   -1.3530 C   0  0  2  0  0  0  0  0  0  0  0  0
    4.2030   -1.9800   -2.2080 N   0  0  0  0  0  0  0  0  0  0  0  0
    4.7720   -0.8330   -2.7830 C   0  0  0  0  0  0  0  0  0  0  0  0
    5.8270   -0.8570   -3.4680 O   0  0  0  0  0  0  0  0  0  0  0  0
    4.1270    0.3930   -2.5780 N   0  0  0  0  0  0  0  0  0  0  0  0
    2.9430    0.3690   -1.7860 C   0  0  0  0  0  0  0  0  0  0  0  0
    2.3910   -0.6750   -1.2080 C   0  0  0  0  0  0  0  0  0  0  0  0
    1.1950   -0.5630   -0.3740 C   0  0  0  0  0  0  0  0  0  0  0  0
    0.6170   -1.6710   -0.0120 O   0  0  0  0  0  0  0  0  0  0  0  0
    0.5450    0.6110    0.1190 C   0  0  0  0  0  0  0  0  0  0  0  0
   -0.6470    0.6500    0.7600 C   0  0  0  0  0  0  0  0  0  0  0  0
   -1.4400   -0.4920    1.0490 N   0  0  0  0  0  0  0  0  0  0  0  0
   -2.5730   -0.8390    0.2490 C   0  0  0  0  0  0  0  0  0  0  0  0
   -2.8750   -0.0400   -0.8340 C   0  0  0  0  0  0  0  0  0  0  0  0
   -3.9710   -0.3830   -1.5950 C   0  0  0  0  0  0  0  0  0  0  0  0
   -4.7410   -1.4850   -1.2910 C   0  0  0  0  0  0  0  0  0  0  0  0
   -4.4440   -2.2970   -0.2010 C   0  0  0  0  0  0  0  0  0  0  0  0
   -3.3440   -1.9390    0.5510 C   0  0  0  0  0  0  0  0  0  0  0  0
   -5.1290   -3.5150    0.3040 C   0  0  0  0  0  0  0  0  0  0  0  0
   -6.6050   -3.2050    0.5820 C   0  0  0  0  0  0  0  0  0  0  0  0
   -7.3450   -3.0240   -0.7150 C   0  0  0  0  0  0  0  0  0  0  0  0
   -7.1410   -1.6800   -1.3410 C   0  0  0  0  0  0  0  0  0  0  0  0
   -5.8850   -1.7080   -2.2190 C   0  0  0  0  0  0  0  0  0  0  0  0
   -1.0270    2.0380    1.0600 C   0  0  0  0  0  0  0  0  0  0  0  0
   -0.1250    2.8320    0.0870 C   0  0  2  0  0  0  0  0  0  0  0  0
    1.0880    1.9800    0.2360 C   0  0  0  0  0  0  0  0  0  0  0  0
    2.2570    2.4880    0.4810 C   0  0  0  0  0  0  0  0  0  0  0  0
    2.5200    3.9470    0.5390 C   0  0  0  0  0  0  0  0  0  0  0  0
    1.2900    4.6850    0.8980 C   0  0  0  0  0  0  0  0  0  0  0  0
    1.4730    5.9460    1.4650 C   0  0  0  0  0  0  0  0  0  0  0  0
    0.3750    6.6950    1.8290 C   0  0  0  0  0  0  0  0  0  0  0  0
   -0.8850    6.1760    1.6220 C   0  0  0  0  0  0  0  0  0  0  0  0
   -1.0660    4.9340    1.0630 C   0  0  0  0  0  0  0  0  0  0  0  0
    0.0520    4.1660    0.6890 C   0  0  0  0  0  0  0  0  0  0  0  0
  2  1  1  1
  2  3  1  0
  2  7  1  0
  3  4  1  0
  4  5  1  0
  5  6  1  0
  7  8  1  6
  7 13  1  0
  8  9  1  0
  9 10  2  0
  9 11  1  0
 11 12  1  0
 12 13  2  0
 13 14  1  0
 14 15  2  0
 14 16  1  0
 16 17  2  0
 16 32  1  0
 17 18  1  0
 17 30  1  0
 18 19  1  0
 19 20  2  0
 19 24  1  0
 20 21  1  0
 21 22  2  0
 22 23  1  0
 22 29  1  0
 23 24  2  0
 23 25  1  0
 25 26  1  0
 26 27  1  0
 27 28  1  0
 28 29  1  0
 31 30  1  1
 31 32  1  0
 31 40  1  0
 32 33  2  0
 33 34  1  0
 34 35  1  0
 35 36  2  0
 35 40  1  0
 36 37  1  0
 37 38  2  0
 38 39  1  0
 39 40  2  0
M  END
