
     RDKit          3D

 40 42  0  0  0  0  0  0  0  0999 V2000
   -2.9860    6.0000   -0.6930 C   0  0  0  0  0  0  0  0  0  0  0  0
   -1.7610    5.5370   -0.4920 C   0  0  0  0  0  0  0  0  0  0  0  0
   -1.4630    4.1210   -0.7930 C   0  0  0  0  0  0  0  0  0  0  0  0
   -0.9940    3.4180    0.4280 C   0  0  2  0  0  0  0  0  0  0  0  0
    0.2560    4.0040    0.9950 C   0  0  0  0  0  0  0  0  0  0  0  0
   -0.9640    1.9580    0.3020 N   0  0  2  0  0  0  0  0  0  0  0  0
   -0.4090    1.3280    1.4430 C   0  0  0  0  0  0  0  0  0  0  0  0
   -1.3470    0.7090    2.3920 C   0  0  0  0  0  0  0  0  0  0  0  0
   -0.8230   -0.2170    3.1220 O   0  0  0  0  0  0  0  0  0  0  0  0
   -2.7090    0.9630    2.6330 N   0  0  0  0  0  0  0  0  0  0  0  0
   -3.8140    0.9810    1.7780 C   0  0  0  0  0  0  0  0  0  0  0  0
   -4.6240    1.9500    1.8880 O   0  0  0  0  0  0  0  0  0  0  0  0
   -4.1620   -0.0130    0.7350 C   0  0  0  0  0  0  0  0  0  0  0  0
   -5.3390   -0.0640    0.1630 C   0  0  0  0  0  0  0  0  0  0  0  0
   -6.4500    0.8670    0.4960 C   0  0  0  0  0  0  0  0  0  0  0  0
   -3.1510   -0.9920    0.2910 C   0  0  0  0  0  0  0  0  0  0  0  0
   -3.6120   -2.2740   -0.2690 C   0  0  0  0  0  0  0  0  0  0  0  0
   -3.0740   -2.5110   -1.9920 S   0  0  0  0  0  0  0  0  0  0  0  0
   -1.3000   -2.4050   -2.1590 C   0  0  0  0  0  0  0  0  0  0  0  0
   -0.6210   -3.5410   -2.1640 C   0  0  0  0  0  0  0  0  0  0  0  0
   -1.2770   -4.8330   -2.0380 C   0  0  0  0  0  0  0  0  0  0  0  0
   -0.5550   -5.9300   -2.0490 C   0  0  0  0  0  0  0  0  0  0  0  0
   -1.2020   -7.2780   -1.9210 C   0  0  0  0  0  0  0  0  0  0  0  0
   -0.5790   -1.1200   -2.2960 C   0  0  0  0  0  0  0  0  0  0  0  0
    0.2620   -0.8970   -1.0710 C   0  0  1  0  0  0  0  0  0  0  0  0
    1.3130   -1.8100   -1.0540 O   0  0  0  0  0  0  0  0  0  0  0  0
    2.6430   -1.5470   -0.8420 C   0  0  0  0  0  0  0  0  0  0  0  0
    3.0010   -0.3180   -0.6540 C   0  0  0  0  0  0  0  0  0  0  0  0
    1.9600    0.7380   -0.6740 C   0  0  0  0  0  0  0  0  0  0  0  0
    0.6770    0.5010   -0.8690 C   0  0  0  0  0  0  0  0  0  0  0  0
   -0.2380    1.6350   -0.8900 C   0  0  0  0  0  0  0  0  0  0  0  0
    4.4080    0.0900   -0.4050 C   0  0  1  0  0  0  0  0  0  0  0  0
    4.4650    0.5940    0.9610 C   0  0  0  0  0  0  0  0  0  0  0  0
    5.2250    0.3610    1.9520 C   0  0  0  0  0  0  0  0  0  0  0  0
    6.3700   -0.5420    2.0810 C   0  0  0  0  0  0  0  0  0  0  0  0
    4.8580    1.1890    3.2260 C   0  0  0  0  0  0  0  0  0  0  0  0
    5.3780   -0.9170   -0.8050 C   0  0  0  0  0  0  0  0  0  0  0  0
    4.9280   -2.3060   -0.6160 C   0  0  0  0  0  0  0  0  0  0  0  0
    5.7300   -3.2300   -0.2540 O   0  0  0  0  0  0  0  0  0  0  0  0
    3.5840   -2.6450   -0.8380 N   0  0  0  0  0  0  0  0  0  0  0  0
  1  2  2  0
  2  3  1  0
  3  4  1  0
  4  5  1  6
  4  6  1  0
  6  7  1  1
  6 31  1  0
  7  8  1  0
  8  9  2  0
  8 10  1  0
 10 11  1  0
 11 12  2  0
 11 13  1  0
 13 14  2  3
 13 16  1  0
 14 15  1  0
 16 17  1  0
 17 18  1  0
 18 19  1  0
 19 20  2  3
 19 24  1  0
 20 21  1  0
 21 22  2  3
 22 23  1  0
 25 24  1  6
 25 26  1  0
 25 30  1  0
 26 27  1  0
 27 28  2  0
 27 40  1  0
 28 29  1  0
 28 32  1  0
 29 30  2  0
 30 31  1  0
 32 33  1  1
 32 37  1  0
 33 34  2  3
 34 35  1  0
 34 36  1  0
 37 38  1  0
 38 39  2  0
 38 40  1  0
M  CHG  1   6   1
M  END
