
     RDKit          3D

 40 44  0  0  0  0  0  0  0  0999 V2000
  -10.8890   -1.8070    2.4350 C   0  0  0  0  0  0  0  0  0  0  0  0
  -11.1230   -2.3280    1.0680 C   0  0  0  0  0  0  0  0  0  0  0  0
  -10.1000   -2.8070    0.3550 C   0  0  0  0  0  0  0  0  0  0  0  0
   -8.8610   -2.8210    0.8650 N   0  0  0  0  0  0  0  0  0  0  0  0
   -7.7400   -2.3640    0.9510 C   0  0  0  0  0  0  0  0  0  0  0  0
   -7.1300   -1.2410    0.2980 C   0  0  0  0  0  0  0  0  0  0  0  0
   -5.7910   -0.9430    0.5940 C   0  0  0  0  0  0  0  0  0  0  0  0
   -5.1420    0.1110    0.0100 C   0  0  0  0  0  0  0  0  0  0  0  0
   -3.7080    0.3810    0.3630 C   0  0  0  0  0  0  0  0  0  0  0  0
   -2.9450   -0.3890   -0.4850 O   0  0  0  0  0  0  0  0  0  0  0  0
   -1.6130   -0.2240   -0.2720 C   0  0  0  0  0  0  0  0  0  0  0  0
   -1.1650    1.1350   -0.6230 C   0  0  0  0  0  0  0  0  0  0  0  0
   -2.0160    1.9580   -1.0940 O   0  0  0  0  0  0  0  0  0  0  0  0
    0.1850    1.5350   -0.4480 N   0  0  0  0  0  0  0  0  0  0  0  0
    0.6140    2.8690   -0.7760 C   0  0  0  0  0  0  0  0  0  0  0  0
    1.5580    3.4890    0.2040 C   0  0  0  0  0  0  0  0  0  0  0  0
    2.5660    2.4580    0.6810 C   0  0  0  0  0  0  0  0  0  0  0  0
    1.8520    1.2400    1.1840 C   0  0  0  0  0  0  0  0  0  0  0  0
    1.1460    0.5340    0.0670 C   0  0  2  0  0  0  0  0  0  0  0  0
    1.9850    0.1460   -1.1070 C   0  0  0  0  0  0  0  0  0  0  0  0
    3.2540   -1.0470   -0.9160 S   0  0  0  0  0  0  0  0  0  0  0  0
    4.6980   -0.5210   -0.0420 C   0  0  2  0  0  0  0  0  0  0  0  0
    5.4750    0.5660   -0.7960 C   0  0  0  0  0  0  0  0  0  0  0  0
    6.6220   -0.2250   -1.4320 C   0  0  0  0  0  0  0  0  0  0  0  0
    7.0040   -1.0760   -0.2460 C   0  0  1  0  0  0  0  0  0  0  0  0
    8.0210   -2.1400   -0.6230 C   0  0  0  0  0  0  0  0  0  0  0  0
    9.2160   -1.7040    0.2150 C   0  0  2  0  0  0  0  0  0  0  0  0
    8.4830   -1.3630    1.5250 C   0  0  0  0  0  0  0  0  0  0  0  0
    7.5780   -0.2890    0.8840 C   0  0  1  0  0  0  0  0  0  0  0  0
    8.6540    0.6570    0.3920 C   0  0  0  0  0  0  0  0  0  0  0  0
    9.6490   -0.3310   -0.2120 C   0  0  1  0  0  0  0  0  0  0  0  0
   10.9520    0.0000    0.3030 N   0  0  0  0  0  0  0  0  0  0  0  0
    5.6940   -1.6620    0.1190 C   0  0  0  0  0  0  0  0  0  0  0  0
    5.4220   -2.7950    0.4740 O   0  0  0  0  0  0  0  0  0  0  0  0
   -5.8130    0.8990   -0.8900 C   0  0  0  0  0  0  0  0  0  0  0  0
   -7.1420    0.6060   -1.1870 C   0  0  0  0  0  0  0  0  0  0  0  0
   -7.8230   -0.4530   -0.6110 C   0  0  0  0  0  0  0  0  0  0  0  0
   -9.1280   -0.7390   -0.9070 O   0  0  0  0  0  0  0  0  0  0  0  0
   -9.8740    0.0350   -1.8030 C   0  0  0  0  0  0  0  0  0  0  0  0
  -10.0480    1.4630   -1.3520 C   0  0  0  0  0  0  0  0  0  0  0  0
  1  2  1  0
  2  3  2  3
  3  4  1  0
  4  5  2  3
  5  6  1  0
  6  7  2  0
  6 37  1  0
  7  8  1  0
  8  9  1  0
  8 35  2  0
  9 10  1  0
 10 11  1  0
 11 12  1  0
 12 13  2  0
 12 14  1  0
 14 15  1  0
 14 19  1  0
 15 16  1  0
 16 17  1  0
 17 18  1  0
 18 19  1  0
 19 20  1  6
 20 21  1  0
 22 21  1  6
 22 23  1  0
 22 33  1  0
 23 24  1  0
 25 24  1  6
 25 26  1  0
 25 29  1  0
 25 33  1  0
 27 26  1  6
 27 28  1  0
 27 31  1  0
 28 29  1  0
 29 30  1  6
 30 31  1  0
 31 32  1  1
 33 34  2  0
 35 36  1  0
 36 37  2  0
 37 38  1  0
 38 39  1  0
 39 40  1  0
M  CHG  1  32   1
M  END
