
     RDKit          3D

 40 44  0  0  0  0  0  0  0  0999 V2000
  -10.3310    1.6620   -1.6360 C   0  0  0  0  0  0  0  0  0  0  0  0
   -9.3690    0.5750   -1.2580 C   0  0  0  0  0  0  0  0  0  0  0  0
   -8.1520    1.0900   -0.6690 N   0  0  0  0  0  0  0  0  0  0  0  0
   -7.1640    0.1590   -0.2540 C   0  0  0  0  0  0  0  0  0  0  0  0
   -7.3180   -1.1710   -0.3850 N   0  0  0  0  0  0  0  0  0  0  0  0
   -6.3630   -2.0260    0.0230 C   0  0  0  0  0  0  0  0  0  0  0  0
   -5.2190   -1.5990    0.5740 N   0  0  0  0  0  0  0  0  0  0  0  0
   -5.0080   -0.3010    0.7300 C   0  0  0  0  0  0  0  0  0  0  0  0
   -5.9880    0.6010    0.3130 C   0  0  0  0  0  0  0  0  0  0  0  0
   -5.4790    1.8180    0.6030 N   0  0  0  0  0  0  0  0  0  0  0  0
   -4.2700    1.6690    1.1600 C   0  0  0  0  0  0  0  0  0  0  0  0
   -3.9740    0.3460    1.2400 N   0  0  0  0  0  0  0  0  0  0  0  0
   -2.7480   -0.0950    1.7960 C   0  0  2  0  0  0  0  0  0  0  0  0
   -1.7110    0.5320    1.0560 O   0  0  0  0  0  0  0  0  0  0  0  0
   -0.6400   -0.3500    1.1320 C   0  0  2  0  0  0  0  0  0  0  0  0
    0.3880   -0.1240    0.0830 C   0  0  0  0  0  0  0  0  0  0  0  0
    0.1190    0.1230   -1.1670 C   0  0  0  0  0  0  0  0  0  0  0  0
    1.1360    0.3520   -2.2130 C   0  0  0  0  0  0  0  0  0  0  0  0
    2.4700    0.3560   -1.6140 N   0  0  0  0  0  0  0  0  0  0  0  0
    2.8520    1.3600   -0.6840 C   0  0  0  0  0  0  0  0  0  0  0  0
    1.9970    2.2260   -0.4290 O   0  0  0  0  0  0  0  0  0  0  0  0
    4.1530    1.3740   -0.0730 C   0  0  0  0  0  0  0  0  0  0  0  0
    5.1050    0.3960   -0.3530 C   0  0  0  0  0  0  0  0  0  0  0  0
    6.3620    0.3740    0.2180 C   0  0  0  0  0  0  0  0  0  0  0  0
    7.3130   -0.6970   -0.1280 C   0  0  0  0  0  0  0  0  0  0  0  0
    6.8380   -1.9700   -0.4400 C   0  0  0  0  0  0  0  0  0  0  0  0
    7.7060   -2.9880   -0.7660 C   0  0  0  0  0  0  0  0  0  0  0  0
    9.0750   -2.7820   -0.7950 C   0  0  0  0  0  0  0  0  0  0  0  0
    9.9180   -3.8010   -1.1200 F   0  0  0  0  0  0  0  0  0  0  0  0
    9.5520   -1.5310   -0.4900 C   0  0  0  0  0  0  0  0  0  0  0  0
    8.6770   -0.5040   -0.1610 C   0  0  0  0  0  0  0  0  0  0  0  0
    6.6750    1.3750    1.1070 C   0  0  0  0  0  0  0  0  0  0  0  0
    5.7810    2.3570    1.4190 C   0  0  0  0  0  0  0  0  0  0  0  0
    6.1550    3.3520    2.3320 O   0  0  0  0  0  0  0  0  0  0  0  0
    4.5020    2.3640    0.8260 C   0  0  0  0  0  0  0  0  0  0  0  0
    3.7080    3.3930    1.2190 O   0  0  0  0  0  0  0  0  0  0  0  0
   -1.3340   -1.6630    0.8290 C   0  0  1  0  0  0  0  0  0  0  0  0
   -0.5370   -2.7620    1.1280 O   0  0  0  0  0  0  0  0  0  0  0  0
   -2.4750   -1.5320    1.8500 C   0  0  1  0  0  0  0  0  0  0  0  0
   -1.8600   -1.8910    3.0760 O   0  0  0  0  0  0  0  0  0  0  0  0
  1  2  1  0
  2  3  1  0
  3  4  1  0
  4  5  2  0
  4  9  1  0
  5  6  1  0
  6  7  2  0
  7  8  1  0
  8  9  2  0
  8 12  1  0
  9 10  1  0
 10 11  2  0
 11 12  1  0
 13 12  1  6
 13 14  1  0
 13 39  1  0
 14 15  1  0
 15 16  1  6
 15 37  1  0
 16 17  2  3
 17 18  1  0
 18 19  1  0
 19 20  1  0
 20 21  2  0
 20 22  1  0
 22 23  2  0
 22 35  1  0
 23 24  1  0
 24 25  1  0
 24 32  2  0
 25 26  2  0
 25 31  1  0
 26 27  1  0
 27 28  2  0
 28 29  1  0
 28 30  1  0
 30 31  2  0
 32 33  1  0
 33 34  1  0
 33 35  2  0
 35 36  1  0
 37 38  1  1
 37 39  1  0
 39 40  1  1
M  END
