
     RDKit          3D

 40 44  0  0  0  0  0  0  0  0999 V2000
   -3.9100   -2.2800    4.0380 C   0  0  0  0  0  0  0  0  0  0  0  0
   -4.5490   -2.4360    2.8890 C   0  0  0  0  0  0  0  0  0  0  0  0
   -3.8750   -2.2180    1.6300 C   0  0  0  0  0  0  0  0  0  0  0  0
   -4.3820   -1.1690    0.7280 C   0  0  0  0  0  0  0  0  0  0  0  0
   -5.4050   -0.4100    1.0330 C   0  0  0  0  0  0  0  0  0  0  0  0
   -6.0630   -0.5520    2.2740 N   0  0  0  0  0  0  0  0  0  0  0  0
   -5.9430    0.4070   -0.0600 C   0  0  1  0  0  0  0  0  0  0  0  0
   -6.8160    1.5620    0.2860 C   0  0  0  0  0  0  0  0  0  0  0  0
   -6.8300    2.3280   -1.0430 C   0  0  2  0  0  0  0  0  0  0  0  0
   -6.5950    3.7710   -0.7400 C   0  0  0  0  0  0  0  0  0  0  0  0
   -8.1140    2.1550   -1.7830 C   0  0  0  0  0  0  0  0  0  0  0  0
   -5.6900    1.7340   -1.8970 C   0  0  0  0  0  0  0  0  0  0  0  0
   -4.8620    1.1040   -0.8030 C   0  0  2  0  0  0  0  0  0  0  0  0
   -3.7790    0.2370   -1.1670 C   0  0  0  0  0  0  0  0  0  0  0  0
   -2.9350    0.5550   -2.3650 C   0  0  0  0  0  0  0  0  0  0  0  0
   -3.5210   -0.8430   -0.4510 C   0  0  0  0  0  0  0  0  0  0  0  0
   -2.4240   -1.7120   -0.7860 N   0  0  0  0  0  0  0  0  0  0  0  0
   -1.0770   -1.3010   -0.6400 C   0  0  0  0  0  0  0  0  0  0  0  0
   -0.6870   -0.0660   -0.1700 C   0  0  0  0  0  0  0  0  0  0  0  0
    0.6610    0.2730   -0.0530 C   0  0  0  0  0  0  0  0  0  0  0  0
    1.6270   -0.6240   -0.4050 C   0  0  0  0  0  0  0  0  0  0  0  0
    2.9690   -0.2520   -0.2750 C   0  0  0  0  0  0  0  0  0  0  0  0
    3.3080    0.8810    0.1560 O   0  0  0  0  0  0  0  0  0  0  0  0
    3.9370   -1.1630   -0.6330 C   0  0  0  0  0  0  0  0  0  0  0  0
    5.3050   -0.8630   -0.5310 C   0  0  0  0  0  0  0  0  0  0  0  0
    6.2720   -1.7600   -0.8830 C   0  0  0  0  0  0  0  0  0  0  0  0
    7.7170   -1.4800   -0.7760 C   0  0  1  0  0  0  0  0  0  0  0  0
    8.3610   -1.7490   -2.0030 O   0  0  0  0  0  0  0  0  0  0  0  0
    7.9640   -0.1150   -0.3020 C   0  0  0  0  0  0  0  0  0  0  0  0
    8.5570    0.7120   -1.0600 O   0  0  0  0  0  0  0  0  0  0  0  0
    7.5650    0.3190    0.9860 N   0  0  0  0  0  0  0  0  0  0  0  0
    7.8090    1.6590    1.4590 C   0  0  0  0  0  0  0  0  0  0  0  0
    9.2750    1.9700    1.4990 C   0  0  0  0  0  0  0  0  0  0  0  0
    9.4520    3.3960    2.0110 C   0  0  0  0  0  0  0  0  0  0  0  0
    5.8580   -3.0010   -1.3550 C   0  0  0  0  0  0  0  0  0  0  0  0
    4.5250   -3.2970   -1.4560 C   0  0  0  0  0  0  0  0  0  0  0  0
    3.5360   -2.3910   -1.1000 C   0  0  0  0  0  0  0  0  0  0  0  0
    2.2300   -2.7300   -1.2180 N   0  0  0  0  0  0  0  0  0  0  0  0
    1.2630   -1.8610   -0.8760 C   0  0  0  0  0  0  0  0  0  0  0  0
   -0.0820   -2.1860   -0.9880 C   0  0  0  0  0  0  0  0  0  0  0  0
  1  2  2  0
  2  3  1  0
  3  4  1  0
  4  5  2  0
  4 16  1  0
  5  6  1  0
  5  7  1  0
  7  8  1  1
  7 13  1  0
  8  9  1  0
  9 10  1  1
  9 11  1  0
  9 12  1  0
 13 12  1  6
 13 14  1  0
 14 15  1  0
 14 16  2  0
 16 17  1  0
 17 18  1  0
 18 19  2  0
 18 40  1  0
 19 20  1  0
 20 21  2  0
 21 22  1  0
 21 39  1  0
 22 23  2  0
 22 24  1  0
 24 25  2  0
 24 37  1  0
 25 26  1  0
 26 27  1  0
 26 35  2  0
 27 28  1  6
 27 29  1  0
 29 30  2  0
 29 31  1  0
 31 32  1  0
 32 33  1  0
 33 34  1  0
 35 36  1  0
 36 37  2  0
 37 38  1  0
 38 39  1  0
 39 40  2  0
M  END
