
     RDKit          3D

 39 42  0  0  0  0  0  0  0  0999 V2000
   -7.6020   -3.7610   -0.8260 C   0  0  0  0  0  0  0  0  0  0  0  0
   -6.7950   -2.1850   -0.9420 S   0  0  0  0  0  0  0  0  0  0  0  0
   -5.0290   -2.2200   -1.2260 C   0  0  0  0  0  0  0  0  0  0  0  0
   -4.2920   -2.7380   -0.0490 C   0  0  1  0  0  0  0  0  0  0  0  0
   -4.6800   -4.1130    0.2840 C   0  0  0  0  0  0  0  0  0  0  0  0
   -3.8360   -4.8100    1.3270 C   0  0  0  0  0  0  0  0  0  0  0  0
   -2.9090   -3.7860    1.9210 C   0  0  0  0  0  0  0  0  0  0  0  0
   -2.0030   -3.3450    0.7550 C   0  0  0  0  0  0  0  0  0  0  0  0
   -2.8040   -2.4720   -0.2050 C   0  0  2  0  0  0  0  0  0  0  0  0
   -2.5720   -1.1140    0.1480 N   0  0  0  0  0  0  0  0  0  0  0  0
   -1.5190   -0.4140   -0.4810 C   0  0  2  0  0  0  0  0  0  0  0  0
   -0.6520   -1.1580   -1.4440 C   0  0  0  0  0  0  0  0  0  0  0  0
    0.4600   -0.1620   -1.8050 C   0  0  0  0  0  0  0  0  0  0  0  0
    1.4020   -0.2440   -0.6140 N   0  0  0  0  0  0  0  0  0  0  0  0
    2.7630   -0.2890   -0.8900 C   0  0  0  0  0  0  0  0  0  0  0  0
    2.9790   -0.0800   -2.1910 O   0  0  0  0  0  0  0  0  0  0  0  0
    3.9720   -0.4930   -0.1670 C   0  0  0  0  0  0  0  0  0  0  0  0
    5.1780   -0.3740   -0.7580 C   0  0  0  0  0  0  0  0  0  0  0  0
    5.2880   -0.0180   -2.1980 C   0  0  0  0  0  0  0  0  0  0  0  0
    6.4790   -0.5780   -0.0710 C   0  0  2  0  0  0  0  0  0  0  0  0
    7.0080   -1.9320   -0.4280 C   0  0  0  0  0  0  0  0  0  0  0  0
    8.3250   -2.2760    0.1880 C   0  0  0  0  0  0  0  0  0  0  0  0
    8.6700   -3.5750   -0.2470 O   0  0  0  0  0  0  0  0  0  0  0  0
    6.3780   -0.3640    1.4000 C   0  0  0  0  0  0  0  0  0  0  0  0
    5.3020   -1.1390    1.8610 O   0  0  0  0  0  0  0  0  0  0  0  0
    4.0490   -0.9060    1.2310 C   0  0  0  0  0  0  0  0  0  0  0  0
    3.0180   -1.0700    1.9120 O   0  0  0  0  0  0  0  0  0  0  0  0
    0.6970   -0.1900    0.6200 C   0  0  0  0  0  0  0  0  0  0  0  0
   -0.7140    0.3680    0.5280 C   0  0  1  0  0  0  0  0  0  0  0  0
   -0.8030    1.8160    0.3890 C   0  0  0  0  0  0  0  0  0  0  0  0
    0.2780    2.6340    0.4030 C   0  0  0  0  0  0  0  0  0  0  0  0
    0.1130    4.0130    0.2570 C   0  0  0  0  0  0  0  0  0  0  0  0
   -1.1370    4.5620    0.0990 C   0  0  0  0  0  0  0  0  0  0  0  0
   -1.3580    6.0410   -0.0590 C   0  0  2  0  0  0  0  0  0  0  0  0
   -0.5200    6.7730    0.9950 C   0  0  0  0  0  0  0  0  0  0  0  0
   -2.8080    6.3640    0.2880 C   0  0  0  0  0  0  0  0  0  0  0  0
   -0.9800    6.5430   -1.4180 C   0  0  0  0  0  0  0  0  0  0  0  0
   -2.2250    3.7440    0.0860 C   0  0  0  0  0  0  0  0  0  0  0  0
   -2.0540    2.3660    0.2320 C   0  0  0  0  0  0  0  0  0  0  0  0
  1  2  1  0
  2  3  1  0
  4  3  1  6
  4  5  1  0
  4  9  1  0
  5  6  1  0
  6  7  1  0
  7  8  1  0
  8  9  1  0
  9 10  1  1
 11 10  1  1
 11 12  1  0
 11 29  1  0
 12 13  1  0
 13 14  1  0
 14 15  1  0
 14 28  1  0
 15 16  2  0
 15 17  1  0
 17 18  2  0
 17 26  1  0
 18 19  1  0
 18 20  1  0
 20 21  1  1
 20 24  1  0
 21 22  1  0
 22 23  1  0
 24 25  1  0
 25 26  1  0
 26 27  2  0
 28 29  1  0
 29 30  1  6
 30 31  2  0
 30 39  1  0
 31 32  1  0
 32 33  2  0
 33 34  1  0
 33 38  1  0
 34 35  1  1
 34 36  1  0
 34 37  1  0
 38 39  2  0
M  CHG  1  10   1
M  END
