
     RDKit          3D

 39 43  0  0  0  0  0  0  0  0999 V2000
    4.9410   -0.0670    2.6690 C   0  0  0  0  0  0  0  0  0  0  0  0
    6.0860   -0.0760    1.7420 C   0  0  0  0  0  0  0  0  0  0  0  0
    7.2940   -0.4460    2.2080 C   0  0  0  0  0  0  0  0  0  0  0  0
    8.4900   -0.5040    1.4060 C   0  0  0  0  0  0  0  0  0  0  0  0
    8.4010   -0.1790    0.1360 C   0  0  0  0  0  0  0  0  0  0  0  0
    9.5900   -0.2050   -0.7890 C   0  0  0  0  0  0  0  0  0  0  0  0
   10.6170   -1.1320   -0.2090 C   0  0  0  0  0  0  0  0  0  0  0  0
   10.9520   -0.5820    1.1850 C   0  0  0  0  0  0  0  0  0  0  0  0
    9.7680   -0.9320    2.0640 C   0  0  0  0  0  0  0  0  0  0  0  0
    7.1610    0.2200   -0.4250 N   0  0  0  0  0  0  0  0  0  0  0  0
    5.9320    0.2940    0.3530 C   0  0  0  0  0  0  0  0  0  0  0  0
    4.8680    0.7370   -0.2370 C   0  0  0  0  0  0  0  0  0  0  0  0
    3.5540    0.9940    0.3140 C   0  0  0  0  0  0  0  0  0  0  0  0
    3.1530    1.8990    1.2860 C   0  0  0  0  0  0  0  0  0  0  0  0
    1.8040    1.7910    1.4830 C   0  0  0  0  0  0  0  0  0  0  0  0
    1.3510    0.8130    0.6310 C   0  0  0  0  0  0  0  0  0  0  0  0
   -0.0830    0.3620    0.5060 C   0  0  0  0  0  0  0  0  0  0  0  0
   -0.7680    1.1920   -0.5520 C   0  0  0  0  0  0  0  0  0  0  0  0
   -0.1010    2.0640   -1.1320 O   0  0  0  0  0  0  0  0  0  0  0  0
   -2.1240    0.9400   -0.8300 N   0  0  0  0  0  0  0  0  0  0  0  0
   -2.9080    1.6180   -1.7820 C   0  0  0  0  0  0  0  0  0  0  0  0
   -2.4120    2.6080   -2.5670 C   0  0  0  0  0  0  0  0  0  0  0  0
   -3.2540    3.2370   -3.5010 C   0  0  0  0  0  0  0  0  0  0  0  0
   -2.7090    4.2860   -4.3230 N   0  0  0  0  0  0  0  0  0  0  0  0
   -4.5540    2.8880   -3.6470 C   0  0  0  0  0  0  0  0  0  0  0  0
   -5.0570    1.8670   -2.8350 C   0  0  0  0  0  0  0  0  0  0  0  0
   -4.2510    1.2350   -1.9120 C   0  0  0  0  0  0  0  0  0  0  0  0
   -4.6940    0.2380   -1.1000 O   0  0  0  0  0  0  0  0  0  0  0  0
   -5.9630   -0.3450   -1.0140 C   0  0  2  0  0  0  0  0  0  0  0  0
   -6.4580   -0.1160    0.3870 C   0  0  0  0  0  0  0  0  0  0  0  0
   -7.3730   -1.1260    0.9460 C   0  0  1  0  0  0  0  0  0  0  0  0
   -7.2390   -1.0720    2.4750 C   0  0  0  0  0  0  0  0  0  0  0  0
   -8.8340   -0.7580    0.6600 C   0  0  0  0  0  0  0  0  0  0  0  0
   -7.1220   -2.5370    0.5420 C   0  0  0  0  0  0  0  0  0  0  0  0
   -5.8030   -2.7170   -0.1830 C   0  0  2  0  0  0  0  0  0  0  0  0
   -4.6230   -2.5350    0.7120 C   0  0  0  0  0  0  0  0  0  0  0  0
   -5.8260   -1.8000   -1.3690 C   0  0  2  0  0  0  0  0  0  0  0  0
   -4.6380   -2.0410   -2.0880 O   0  0  0  0  0  0  0  0  0  0  0  0
    2.4030    0.3580   -0.0480 N   0  0  0  0  0  0  0  0  0  0  0  0
  1  2  1  0
  2  3  2  0
  2 11  1  0
  3  4  1  0
  4  5  2  0
  4  9  1  0
  5  6  1  0
  5 10  1  0
  6  7  1  0
  7  8  1  0
  8  9  1  0
 10 11  1  0
 11 12  2  3
 12 13  1  0
 13 14  2  0
 13 39  1  0
 14 15  1  0
 15 16  2  0
 16 17  1  0
 16 39  1  0
 17 18  1  0
 18 19  2  0
 18 20  1  0
 20 21  1  0
 21 22  2  0
 21 27  1  0
 22 23  1  0
 23 24  1  0
 23 25  2  0
 25 26  1  0
 26 27  2  0
 27 28  1  0
 29 28  1  1
 29 30  1  0
 29 37  1  0
 30 31  1  0
 31 32  1  1
 31 33  1  0
 31 34  1  0
 34 35  1  0
 35 36  1  1
 35 37  1  0
 37 38  1  1
M  END
