
     RDKit          3D

 40 44  0  0  0  0  0  0  0  0999 V2000
    9.9320    3.3760    0.0200 C   0  0  0  0  0  0  0  0  0  0  0  0
    8.8260    2.3310   -0.0570 C   0  0  2  0  0  0  0  0  0  0  0  0
    9.2920    1.1260   -0.8150 C   0  0  0  0  0  0  0  0  0  0  0  0
    8.7650   -0.1320   -0.1940 C   0  0  0  0  0  0  0  0  0  0  0  0
    7.3450   -0.4490   -0.4370 C   0  0  0  0  0  0  0  0  0  0  0  0
    6.5910    0.4370   -1.3390 C   0  0  0  0  0  0  0  0  0  0  0  0
    5.6100    1.3740   -0.6190 C   0  0  2  0  0  0  0  0  0  0  0  0
    4.8360    1.9290   -1.5690 O   0  0  0  0  0  0  0  0  0  0  0  0
    3.5180    1.7280   -1.6590 C   0  0  0  0  0  0  0  0  0  0  0  0
    2.9560    0.4030   -2.0070 C   0  0  1  0  0  0  0  0  0  0  0  0
    3.1810   -0.7360   -1.0780 C   0  0  0  0  0  0  0  0  0  0  0  0
    2.2590   -0.2810    0.0720 C   0  0  0  0  0  0  0  0  0  0  0  0
    1.0670    0.1280   -0.7830 C   0  0  1  0  0  0  0  0  0  0  0  0
    0.1920    1.1590   -0.1230 C   0  0  0  0  0  0  0  0  0  0  0  0
   -0.2920    0.5770    1.1660 C   0  0  0  0  0  0  0  0  0  0  0  0
    0.4630    0.8410    2.1680 O   0  0  0  0  0  0  0  0  0  0  0  0
   -1.4530   -0.1930    1.3240 N   0  0  0  0  0  0  0  0  0  0  0  0
   -1.7810   -0.7020    2.6510 C   0  0  0  0  0  0  0  0  0  0  0  0
   -1.7270   -2.1890    2.5700 C   0  0  0  0  0  0  0  0  0  0  0  0
   -1.7140   -2.7590    1.1750 C   0  0  0  0  0  0  0  0  0  0  0  0
   -2.6070   -2.0190    0.2080 C   0  0  1  0  0  0  0  0  0  0  0  0
   -4.0120   -2.3830    0.4890 C   0  0  0  0  0  0  0  0  0  0  0  0
   -4.2100   -3.1690    1.4430 O   0  0  0  0  0  0  0  0  0  0  0  0
   -5.1150   -1.9120   -0.2380 N   0  0  0  0  0  0  0  0  0  0  0  0
   -6.4780   -2.2060   -0.0730 C   0  0  0  0  0  0  0  0  0  0  0  0
   -6.9270   -3.2320    0.7400 C   0  0  0  0  0  0  0  0  0  0  0  0
   -8.2930   -3.5490    0.8500 C   0  0  0  0  0  0  0  0  0  0  0  0
   -9.2280   -2.8370    0.1400 C   0  0  0  0  0  0  0  0  0  0  0  0
   -8.8010   -1.8160   -0.6710 C   0  0  0  0  0  0  0  0  0  0  0  0
   -7.4410   -1.5130   -0.7670 C   0  0  0  0  0  0  0  0  0  0  0  0
   -7.0950   -0.3780   -1.6330 C   0  0  0  0  0  0  0  0  0  0  0  0
   -7.6740    0.8630   -0.9160 C   0  0  2  0  0  0  0  0  0  0  0  0
   -7.3320    0.7990    0.5580 C   0  0  0  0  0  0  0  0  0  0  0  0
   -7.9020    1.9840    1.1740 N   0  0  0  0  0  0  0  0  0  0  0  0
   -9.4770    0.7240   -1.0670 S   0  0  0  0  0  0  0  0  0  0  0  0
   -9.8060   -1.0410   -1.4470 C   0  0  0  0  0  0  0  0  0  0  0  0
   -2.3380   -0.5290    0.2510 C   0  0  0  0  0  0  0  0  0  0  0  0
    1.5370    0.4690   -2.0280 O   0  0  0  0  0  0  0  0  0  0  0  0
    6.4120    2.3800    0.1880 C   0  0  0  0  0  0  0  0  0  0  0  0
    7.5590    2.9540   -0.5700 C   0  0  0  0  0  0  0  0  0  0  0  0
  2  1  1  6
  2  3  1  0
  2 40  1  0
  3  4  1  0
  4  5  1  0
  5  6  1  0
  6  7  1  0
  7  8  1  6
  7 39  1  0
  8  9  1  0
 10  9  1  1
 10 11  1  0
 10 38  1  0
 11 12  1  0
 12 13  1  0
 13 14  1  1
 13 38  1  0
 14 15  1  0
 15 16  2  0
 15 17  1  0
 17 18  1  0
 17 37  1  0
 18 19  1  0
 19 20  1  0
 20 21  1  0
 21 22  1  1
 21 37  1  0
 22 23  2  0
 22 24  1  0
 24 25  1  0
 25 26  2  0
 25 30  1  0
 26 27  1  0
 27 28  2  0
 28 29  1  0
 29 30  2  0
 29 36  1  0
 30 31  1  0
 31 32  1  0
 32 33  1  1
 32 35  1  0
 33 34  1  0
 35 36  1  0
 39 40  1  0
M  CHG  1  34   1
M  END
