
     RDKit          3D

 40 44  0  0  0  0  0  0  0  0999 V2000
   -4.0860   -3.5760    1.2330 C   0  0  0  0  0  0  0  0  0  0  0  0
   -3.6140   -2.4300    0.8100 C   0  0  0  0  0  0  0  0  0  0  0  0
   -4.4360   -1.1960    0.6710 C   0  0  0  0  0  0  0  0  0  0  0  0
   -3.4680   -0.2480   -0.0370 C   0  0  1  0  0  0  0  0  0  0  0  0
   -3.5150   -0.5990   -1.4820 C   0  0  0  0  0  0  0  0  0  0  0  0
   -2.7200    0.1720   -2.4520 C   0  0  0  0  0  0  0  0  0  0  0  0
   -3.6640    1.1660    0.2580 C   0  0  0  0  0  0  0  0  0  0  0  0
   -4.9690    1.6400    0.3360 C   0  0  0  0  0  0  0  0  0  0  0  0
   -5.2120    2.9610    0.6190 C   0  0  0  0  0  0  0  0  0  0  0  0
   -4.1490    3.8120    0.8240 C   0  0  0  0  0  0  0  0  0  0  0  0
   -2.8450    3.3190    0.7420 C   0  0  0  0  0  0  0  0  0  0  0  0
   -2.5900    1.9890    0.4570 C   0  0  0  0  0  0  0  0  0  0  0  0
   -1.1420    1.5410    0.3960 C   0  0  2  0  0  0  0  0  0  0  0  0
   -0.4280    2.4700   -0.3410 N   0  0  0  0  0  0  0  0  0  0  0  0
    0.9490    2.5750   -0.4130 C   0  0  2  0  0  0  0  0  0  0  0  0
    1.6910    1.4200   -1.0450 C   0  0  0  0  0  0  0  0  0  0  0  0
    1.2150    0.8950   -2.0830 O   0  0  0  0  0  0  0  0  0  0  0  0
    2.8890    0.8930   -0.5380 N   0  0  0  0  0  0  0  0  0  0  0  0
    3.6590   -0.1820   -1.0560 C   0  0  0  0  0  0  0  0  0  0  0  0
    3.2850   -0.9970   -2.0890 C   0  0  0  0  0  0  0  0  0  0  0  0
    4.1350   -2.0290   -2.5310 C   0  0  0  0  0  0  0  0  0  0  0  0
    5.3580   -2.2540   -1.9470 C   0  0  0  0  0  0  0  0  0  0  0  0
    6.2120   -3.2500   -2.3530 C   0  0  0  0  0  0  0  0  0  0  0  0
    7.4310   -3.4560   -1.7540 C   0  0  0  0  0  0  0  0  0  0  0  0
    7.7640   -2.6150   -0.7220 C   0  0  0  0  0  0  0  0  0  0  0  0
    8.8860   -2.7710   -0.1370 O   0  0  0  0  0  0  0  0  0  0  0  0
    6.9520   -1.6440   -0.3120 N   0  0  0  0  0  0  0  0  0  0  0  0
    5.7590   -1.4400   -0.8960 C   0  0  0  0  0  0  0  0  0  0  0  0
    4.9020   -0.4460   -0.4960 C   0  0  0  0  0  0  0  0  0  0  0  0
    1.6890    3.1810    0.7460 C   0  0  2  0  0  0  0  0  0  0  0  0
    1.5570    2.4980    2.0480 C   0  0  0  0  0  0  0  0  0  0  0  0
    1.2810    4.6600    0.9330 C   0  0  0  0  0  0  0  0  0  0  0  0
   -1.0260    0.0930    0.0770 C   0  0  0  0  0  0  0  0  0  0  0  0
   -2.1950   -0.6420    0.6690 C   0  0  1  0  0  0  0  0  0  0  0  0
   -2.2360   -0.4320    2.1270 C   0  0  0  0  0  0  0  0  0  0  0  0
   -1.2050   -0.9490    2.9540 N   0  0  0  0  0  0  0  0  0  0  0  0
   -3.1540    0.1960    2.6840 O   0  0  0  0  0  0  0  0  0  0  0  0
   -2.2300   -2.0990    0.3940 C   0  0  0  0  0  0  0  0  0  0  0  0
   -1.3290   -2.8820   -0.0910 C   0  0  0  0  0  0  0  0  0  0  0  0
   -1.4590   -4.3070   -0.3540 C   0  0  0  0  0  0  0  0  0  0  0  0
  1  2  2  0
  2  3  1  0
  2 38  1  0
  3  4  1  0
  4  5  1  6
  4  7  1  0
  4 34  1  0
  5  6  1  0
  7  8  2  0
  7 12  1  0
  8  9  1  0
  9 10  2  0
 10 11  1  0
 11 12  2  0
 12 13  1  0
 13 14  1  6
 13 33  1  0
 15 14  1  1
 15 16  1  0
 15 30  1  0
 16 17  2  0
 16 18  1  0
 18 19  1  0
 19 20  2  0
 19 29  1  0
 20 21  1  0
 21 22  2  0
 22 23  1  0
 22 28  1  0
 23 24  2  0
 24 25  1  0
 25 26  2  0
 25 27  1  0
 27 28  1  0
 28 29  2  0
 30 31  1  1
 30 32  1  0
 33 34  1  0
 34 35  1  1
 34 38  1  0
 35 36  1  0
 35 37  2  0
 38 39  2  3
 39 40  1  0
M  END
