
     RDKit          3D

 39 41  0  0  0  0  0  0  0  0999 V2000
   -4.7630    4.6740   -1.3910 C   0  0  0  0  0  0  0  0  0  0  0  0
   -4.2620    3.8610   -0.3500 O   0  0  0  0  0  0  0  0  0  0  0  0
   -5.2710    3.0020    0.0320 C   0  0  0  0  0  0  0  0  0  0  0  0
   -4.8420    2.1010    1.1280 C   0  0  0  0  0  0  0  0  0  0  0  0
   -3.6720    1.1940    0.8220 C   0  0  1  0  0  0  0  0  0  0  0  0
   -3.4790    0.3660    2.0820 C   0  0  0  0  0  0  0  0  0  0  0  0
   -3.1950    1.1780    3.1790 O   0  0  0  0  0  0  0  0  0  0  0  0
   -3.9920    0.2380   -0.3000 C   0  0  0  0  0  0  0  0  0  0  0  0
   -4.8680   -0.8750    0.0690 C   0  0  0  0  0  0  0  0  0  0  0  0
   -5.9680   -0.6310    0.6280 O   0  0  0  0  0  0  0  0  0  0  0  0
   -4.5650   -2.2130   -0.1600 O   0  0  0  0  0  0  0  0  0  0  0  0
   -3.8680   -2.6670   -1.2990 C   0  0  2  0  0  0  0  0  0  0  0  0
   -4.8960   -3.1760   -2.2850 C   0  0  0  0  0  0  0  0  0  0  0  0
   -2.8370   -3.7270   -1.0140 C   0  0  0  0  0  0  0  0  0  0  0  0
   -1.6190   -3.5250   -1.7740 N   0  0  0  0  0  0  0  0  0  0  0  0
   -0.2940   -3.5070   -1.2880 C   0  0  0  0  0  0  0  0  0  0  0  0
    0.5500   -4.2010   -1.9180 O   0  0  0  0  0  0  0  0  0  0  0  0
    0.2320   -2.7680   -0.1210 C   0  0  2  0  0  0  0  0  0  0  0  0
   -0.2030   -3.5380    1.0990 C   0  0  0  0  0  0  0  0  0  0  0  0
   -0.2970   -1.3760   -0.1710 C   0  0  0  0  0  0  0  0  0  0  0  0
    0.5390   -0.2900    0.4020 C   0  0  1  0  0  0  0  0  0  0  0  0
    0.8950   -0.4370    1.8320 C   0  0  0  0  0  0  0  0  0  0  0  0
    2.3260   -0.8980    1.9180 C   0  0  0  0  0  0  0  0  0  0  0  0
    2.9000   -0.3010    0.7280 N   0  0  0  0  0  0  0  0  0  0  0  0
    4.2420    0.1420    0.6380 C   0  0  0  0  0  0  0  0  0  0  0  0
    4.9900    0.0150    1.6310 O   0  0  0  0  0  0  0  0  0  0  0  0
    4.7910    0.7490   -0.5900 C   0  0  0  0  0  0  0  0  0  0  0  0
    6.0280   -0.0150   -0.9970 C   0  0  2  0  0  0  0  0  0  0  0  0
    7.0480    0.0370    0.0900 C   0  0  0  0  0  0  0  0  0  0  0  0
    8.4650   -0.1300   -0.4520 C   0  0  0  0  0  0  0  0  0  0  0  0
    8.7350    0.8830   -1.5450 C   0  0  0  0  0  0  0  0  0  0  0  0
    7.4200    1.5630   -1.8820 C   0  0  0  0  0  0  0  0  0  0  0  0
    6.4970    0.5720   -2.1820 O   0  0  0  0  0  0  0  0  0  0  0  0
    1.8790   -0.2590   -0.2970 C   0  0  0  0  0  0  0  0  0  0  0  0
   -0.1360    1.0390    0.0610 C   0  0  1  0  0  0  0  0  0  0  0  0
   -0.6440    0.9160   -1.2280 O   0  0  0  0  0  0  0  0  0  0  0  0
   -1.1570    1.4640    1.0740 C   0  0  1  0  0  0  0  0  0  0  0  0
   -0.4990    2.5970    1.8800 C   0  0  0  0  0  0  0  0  0  0  0  0
   -2.4330    2.0080    0.5100 C   0  0  0  0  0  0  0  0  0  0  0  0
  1  2  1  0
  2  3  1  0
  3  4  1  0
  5  4  1  1
  5  6  1  0
  5  8  1  0
  5 39  1  0
  6  7  1  0
  8  9  1  0
  9 10  2  0
  9 11  1  0
 11 12  1  0
 12 13  1  6
 12 14  1  0
 14 15  1  0
 15 16  1  0
 16 17  2  0
 16 18  1  0
 18 19  1  1
 18 20  1  0
 21 20  1  6
 21 22  1  0
 21 34  1  0
 21 35  1  0
 22 23  1  0
 23 24  1  0
 24 25  1  0
 24 34  1  0
 25 26  2  0
 25 27  1  0
 28 27  1  1
 28 29  1  0
 28 33  1  0
 29 30  1  0
 30 31  1  0
 31 32  1  0
 32 33  1  0
 35 36  1  6
 35 37  1  0
 37 38  1  1
 37 39  1  0
M  END
