
     RDKit          3D

 40 42  0  0  0  0  0  0  0  0999 V2000
   -4.2630    2.3320    2.9750 C   0  0  0  0  0  0  0  0  0  0  0  0
   -5.1390    1.5490    2.0180 C   0  0  0  0  0  0  0  0  0  0  0  0
   -4.3630    0.3390    1.5400 C   0  0  1  0  0  0  0  0  0  0  0  0
   -5.1570   -0.5000    0.5830 C   0  0  0  0  0  0  0  0  0  0  0  0
   -5.7570    0.2030   -0.5790 C   0  0  0  0  0  0  0  0  0  0  0  0
   -5.7130   -0.5170   -1.9020 C   0  0  0  0  0  0  0  0  0  0  0  0
   -5.3480   -1.9280   -1.7410 C   0  0  0  0  0  0  0  0  0  0  0  0
   -6.5720   -2.5830   -1.2900 O   0  0  0  0  0  0  0  0  0  0  0  0
   -4.2820   -2.6360   -1.8970 C   0  0  0  0  0  0  0  0  0  0  0  0
   -2.9120   -2.5200   -2.2850 C   0  0  0  0  0  0  0  0  0  0  0  0
   -2.0770   -1.5120   -2.5440 C   0  0  0  0  0  0  0  0  0  0  0  0
   -2.4680   -0.1120   -2.4730 C   0  0  0  0  0  0  0  0  0  0  0  0
   -2.6330    0.5260   -1.3250 C   0  0  0  0  0  0  0  0  0  0  0  0
   -2.4360   -0.1410   -0.0160 C   0  0  0  0  0  0  0  0  0  0  0  0
   -2.9620    0.6820    1.1200 C   0  0  2  0  0  0  0  0  0  0  0  0
   -2.0540    0.6660    2.1710 O   0  0  0  0  0  0  0  0  0  0  0  0
   -0.8750    1.1970    2.4460 C   0  0  0  0  0  0  0  0  0  0  0  0
   -0.7410    2.0870    3.3630 O   0  0  0  0  0  0  0  0  0  0  0  0
    0.3900    0.8370    1.7550 C   0  0  2  0  0  0  0  0  0  0  0  0
    1.5850    1.0920    2.7040 C   0  0  0  0  0  0  0  0  0  0  0  0
    0.6740    1.6320    0.5960 N   0  0  0  0  0  0  0  0  0  0  0  0
    0.9360    1.2410   -0.7150 C   0  0  0  0  0  0  0  0  0  0  0  0
    0.2890    1.7870   -1.6900 O   0  0  0  0  0  0  0  0  0  0  0  0
    1.9240    0.2160   -1.1660 C   0  0  1  0  0  0  0  0  0  0  0  0
    2.5180    0.7190   -2.4690 C   0  0  0  0  0  0  0  0  0  0  0  0
    3.0960    1.9720   -2.1450 O   0  0  0  0  0  0  0  0  0  0  0  0
    3.0030    0.1310   -0.2600 O   0  0  0  0  0  0  0  0  0  0  0  0
    4.0600   -0.6990   -0.4380 C   0  0  0  0  0  0  0  0  0  0  0  0
    4.1820   -1.4650   -1.4230 O   0  0  0  0  0  0  0  0  0  0  0  0
    5.2050   -0.7810    0.5480 C   0  0  1  0  0  0  0  0  0  0  0  0
    5.2700   -2.2310    1.0060 C   0  0  0  0  0  0  0  0  0  0  0  0
    6.4950   -0.4580   -0.1400 C   0  0  0  0  0  0  0  0  0  0  0  0
    6.9180    0.9810    0.0250 C   0  0  0  0  0  0  0  0  0  0  0  0
    7.0960    1.2540    1.4940 C   0  0  0  0  0  0  0  0  0  0  0  0
    6.2290    0.2640    2.2500 C   0  0  0  0  0  0  0  0  0  0  0  0
    4.9980    0.0840    1.5940 O   0  0  0  0  0  0  0  0  0  0  0  0
    1.2040   -1.0940   -1.3150 C   0  0  0  0  0  0  0  0  0  0  0  0
    0.5330   -1.2930   -2.5760 N   0  0  0  0  0  0  0  0  0  0  0  0
   -0.6740   -1.9060   -2.8850 C   0  0  0  0  0  0  0  0  0  0  0  0
   -0.5440   -3.0060   -3.5910 O   0  0  0  0  0  0  0  0  0  0  0  0
  1  2  1  0
  3  2  1  6
  3  4  1  0
  3 15  1  0
  4  5  1  0
  5  6  1  0
  6  7  1  0
  7  8  1  0
  7  9  2  0
  9 10  1  0
 10 11  2  0
 11 12  1  0
 11 39  1  0
 12 13  2  0
 13 14  1  0
 14 15  1  0
 15 16  1  1
 16 17  1  0
 17 18  2  0
 17 19  1  0
 19 20  1  1
 19 21  1  0
 21 22  1  0
 22 23  2  0
 22 24  1  0
 24 25  1  6
 24 27  1  0
 24 37  1  0
 25 26  1  0
 27 28  1  0
 28 29  2  0
 28 30  1  0
 30 31  1  1
 30 32  1  0
 30 36  1  0
 32 33  1  0
 33 34  1  0
 34 35  1  0
 35 36  1  0
 37 38  1  0
 38 39  1  0
 39 40  2  0
M  END
