
     RDKit          3D

 39 41  0  0  0  0  0  0  0  0999 V2000
    0.4740    4.6920    0.9730 C   0  0  0  0  0  0  0  0  0  0  0  0
   -0.6770    3.7430    1.2560 C   0  0  1  0  0  0  0  0  0  0  0  0
   -1.6140    4.4260    2.2500 C   0  0  0  0  0  0  0  0  0  0  0  0
   -1.4560    3.4910   -0.0420 C   0  0  2  0  0  0  0  0  0  0  0  0
   -1.9340    4.9140   -0.4350 C   0  0  0  0  0  0  0  0  0  0  0  0
   -2.7040    2.7140    0.1880 C   0  0  0  0  0  0  0  0  0  0  0  0
   -2.7540    1.9490    1.3480 O   0  0  0  0  0  0  0  0  0  0  0  0
   -3.6490    0.8970    1.4550 C   0  0  0  0  0  0  0  0  0  0  0  0
   -3.6330    0.2580    2.5620 O   0  0  0  0  0  0  0  0  0  0  0  0
   -4.5880    0.4740    0.4210 C   0  0  0  0  0  0  0  0  0  0  0  0
   -4.2200   -0.7200   -0.3770 C   0  0  2  0  0  0  0  0  0  0  0  0
   -4.9910   -1.9210    0.0860 C   0  0  0  0  0  0  0  0  0  0  0  0
   -4.6620   -3.1780   -0.6540 C   0  0  0  0  0  0  0  0  0  0  0  0
   -3.3110   -3.2680   -1.2400 C   0  0  1  0  0  0  0  0  0  0  0  0
   -3.4000   -4.1750   -2.4760 C   0  0  0  0  0  0  0  0  0  0  0  0
   -2.6740   -1.9960   -1.6840 C   0  0  0  0  0  0  0  0  0  0  0  0
   -2.7600   -1.0250   -0.4860 C   0  0  2  0  0  0  0  0  0  0  0  0
   -2.3060   -1.7730    0.7150 C   0  0  0  0  0  0  0  0  0  0  0  0
   -1.2100   -1.5430    1.4100 C   0  0  0  0  0  0  0  0  0  0  0  0
   -0.1880   -0.5110    1.1740 C   0  0  1  0  0  0  0  0  0  0  0  0
    1.0750   -0.8110    2.0010 C   0  0  0  0  0  0  0  0  0  0  0  0
    0.1840   -0.3320   -0.1430 O   0  0  0  0  0  0  0  0  0  0  0  0
    0.8210    0.8870   -0.3900 C   0  0  1  0  0  0  0  0  0  0  0  0
    2.0960    0.6110   -1.2170 C   0  0  0  0  0  0  0  0  0  0  0  0
    3.0310   -0.2430   -0.5710 N   0  0  0  0  0  0  0  0  0  0  0  0
    3.0170   -1.6630   -0.7050 C   0  0  0  0  0  0  0  0  0  0  0  0
    1.9860   -2.1880   -1.1770 O   0  0  0  0  0  0  0  0  0  0  0  0
    4.1400   -2.5450   -0.3220 C   0  0  0  0  0  0  0  0  0  0  0  0
    5.2150   -1.8440    0.4290 C   0  0  1  0  0  0  0  0  0  0  0  0
    6.3710   -1.3630   -0.3830 C   0  0  0  0  0  0  0  0  0  0  0  0
    7.1060   -2.4660   -1.1060 C   0  0  0  0  0  0  0  0  0  0  0  0
    7.5950   -3.3750   -0.1740 O   0  0  0  0  0  0  0  0  0  0  0  0
    4.6890   -0.6640    1.2280 C   0  0  1  0  0  0  0  0  0  0  0  0
    5.7830   -0.0580    1.8430 O   0  0  0  0  0  0  0  0  0  0  0  0
    4.0780    0.2880    0.2660 C   0  0  0  0  0  0  0  0  0  0  0  0
    4.4240    1.4880    0.1580 O   0  0  0  0  0  0  0  0  0  0  0  0
   -0.0680    1.7020   -1.2590 C   0  0  0  0  0  0  0  0  0  0  0  0
   -0.3820    1.0930   -2.3510 O   0  0  0  0  0  0  0  0  0  0  0  0
   -0.5790    2.9740   -1.0640 N   0  0  0  0  0  0  0  0  0  0  0  0
  2  1  1  6
  2  3  1  0
  2  4  1  0
  4  5  1  6
  4  6  1  0
  4 39  1  0
  6  7  1  0
  7  8  1  0
  8  9  2  0
  8 10  1  0
 11 10  1  1
 11 12  1  0
 11 17  1  0
 12 13  1  0
 13 14  1  0
 14 15  1  6
 14 16  1  0
 17 16  1  6
 17 18  1  0
 18 19  2  0
 19 20  1  0
 20 21  1  1
 20 22  1  0
 22 23  1  0
 23 24  1  6
 23 37  1  0
 24 25  1  0
 25 26  1  0
 25 35  1  0
 26 27  2  0
 26 28  1  0
 28 29  1  0
 29 30  1  6
 29 33  1  0
 30 31  1  0
 31 32  1  0
 33 34  1  6
 33 35  1  0
 35 36  2  0
 37 38  2  0
 37 39  1  0
M  END
