
     RDKit          3D

 40 43  0  0  0  0  0  0  0  0999 V2000
   -3.2520    2.6680   -0.4740 C   0  0  0  0  0  0  0  0  0  0  0  0
   -1.7450    2.6990   -0.3050 C   0  0  2  0  0  0  0  0  0  0  0  0
   -1.2940    1.7560    0.6420 O   0  0  0  0  0  0  0  0  0  0  0  0
   -2.0260    0.8570    1.3530 C   0  0  0  0  0  0  0  0  0  0  0  0
   -1.9100    0.8100    2.6160 O   0  0  0  0  0  0  0  0  0  0  0  0
   -2.9900   -0.1180    0.7790 C   0  0  0  0  0  0  0  0  0  0  0  0
   -2.7080   -1.5260    1.2600 C   0  0  1  0  0  0  0  0  0  0  0  0
   -3.8420   -2.3280    1.3370 O   0  0  0  0  0  0  0  0  0  0  0  0
   -4.6830   -2.6640    0.3130 C   0  0  0  0  0  0  0  0  0  0  0  0
   -5.6840   -1.9260   -0.1270 C   0  0  0  0  0  0  0  0  0  0  0  0
   -6.3590   -2.6170   -1.2380 C   0  0  0  0  0  0  0  0  0  0  0  0
   -5.6120   -3.8680   -1.3900 C   0  0  0  0  0  0  0  0  0  0  0  0
   -4.6530   -3.8750   -0.4890 C   0  0  0  0  0  0  0  0  0  0  0  0
   -1.6930   -2.1740    0.3570 C   0  0  0  0  0  0  0  0  0  0  0  0
   -1.7130   -1.8670   -0.8670 O   0  0  0  0  0  0  0  0  0  0  0  0
   -0.7320   -3.0970    0.8090 N   0  0  0  0  0  0  0  0  0  0  0  0
   -0.0520   -2.9520    2.0990 C   0  0  0  0  0  0  0  0  0  0  0  0
    0.5790   -1.5710    2.2260 C   0  0  0  0  0  0  0  0  0  0  0  0
    2.0500   -1.6590    2.5360 C   0  0  0  0  0  0  0  0  0  0  0  0
    2.8500   -1.9410    1.2650 C   0  0  1  0  0  0  0  0  0  0  0  0
    1.9170   -2.2820    0.2590 O   0  0  0  0  0  0  0  0  0  0  0  0
    3.5870   -0.7420    0.7950 C   0  0  1  0  0  0  0  0  0  0  0  0
    5.0500   -0.9320    0.6600 C   0  0  0  0  0  0  0  0  0  0  0  0
    5.7860   -2.0040    0.7310 C   0  0  0  0  0  0  0  0  0  0  0  0
    7.2060   -1.6860    0.5290 C   0  0  0  0  0  0  0  0  0  0  0  0
    7.1820   -0.2260    0.3240 C   0  0  0  0  0  0  0  0  0  0  0  0
    5.9380    0.2090    0.3990 C   0  0  0  0  0  0  0  0  0  0  0  0
    3.0400   -0.1490   -0.4920 C   0  0  0  0  0  0  0  0  0  0  0  0
    3.4330    1.2100   -0.5340 O   0  0  0  0  0  0  0  0  0  0  0  0
    2.6380    2.2600   -0.9080 C   0  0  0  0  0  0  0  0  0  0  0  0
    3.1180    3.1620   -1.6560 O   0  0  0  0  0  0  0  0  0  0  0  0
    1.2170    2.4050   -0.4800 C   0  0  0  0  0  0  0  0  0  0  0  0
    0.3710    2.9410   -1.6140 C   0  0  2  0  0  0  0  0  0  0  0  0
    0.4150    4.4350   -1.5720 C   0  0  0  0  0  0  0  0  0  0  0  0
   -0.6860    4.9230   -0.7820 N   0  0  0  0  0  0  0  0  0  0  0  0
   -1.3890    4.0750    0.0900 C   0  0  0  0  0  0  0  0  0  0  0  0
   -1.7260    4.4860    1.2270 O   0  0  0  0  0  0  0  0  0  0  0  0
   -1.0350    2.3960   -1.6070 C   0  0  2  0  0  0  0  0  0  0  0  0
   -1.7530    3.0130   -2.7880 C   0  0  0  0  0  0  0  0  0  0  0  0
   -0.9630    1.0280   -1.8560 O   0  0  0  0  0  0  0  0  0  0  0  0
  2  1  1  6
  2  3  1  0
  2 36  1  0
  2 38  1  0
  3  4  1  0
  4  5  2  0
  4  6  1  0
  6  7  1  0
  7  8  1  6
  7 14  1  0
  8  9  1  0
  9 10  2  0
  9 13  1  0
 10 11  1  0
 11 12  1  0
 12 13  2  0
 14 15  2  0
 14 16  1  0
 16 17  1  0
 17 18  1  0
 18 19  1  0
 19 20  1  0
 20 21  1  6
 20 22  1  0
 22 23  1  6
 22 28  1  0
 23 24  2  0
 23 27  1  0
 24 25  1  0
 25 26  1  0
 26 27  2  0
 28 29  1  0
 29 30  1  0
 30 31  2  0
 30 32  1  0
 33 32  1  1
 33 34  1  0
 33 38  1  0
 34 35  1  0
 35 36  1  0
 36 37  2  0
 38 39  1  6
 38 40  1  0
M  END
