
     RDKit          3D

 40 41  0  0  0  0  0  0  0  0999 V2000
   -3.3270   -5.0430   -0.3060 C   0  0  0  0  0  0  0  0  0  0  0  0
   -2.5870   -4.0520    0.5300 C   0  0  0  0  0  0  0  0  0  0  0  0
   -2.3970   -2.7310   -0.1990 C   0  0  1  0  0  0  0  0  0  0  0  0
   -1.7140   -2.9120   -1.3610 O   0  0  0  0  0  0  0  0  0  0  0  0
   -0.3600   -2.6600   -1.3330 C   0  0  0  0  0  0  0  0  0  0  0  0
    0.1150   -1.5740   -0.3840 C   0  0  0  0  0  0  0  0  0  0  0  0
   -0.4000   -0.3910   -0.2260 C   0  0  0  0  0  0  0  0  0  0  0  0
    0.0440    0.7070    0.7290 C   0  0  1  0  0  0  0  0  0  0  0  0
    0.8020    1.7930    0.0870 C   0  0  0  0  0  0  0  0  0  0  0  0
    0.6190    2.0290   -1.1070 O   0  0  0  0  0  0  0  0  0  0  0  0
    1.7980    2.6530    0.7850 C   0  0  0  0  0  0  0  0  0  0  0  0
    2.5970    3.5050   -0.1670 C   0  0  0  0  0  0  0  0  0  0  0  0
    3.4220    2.7820   -1.1480 C   0  0  0  0  0  0  0  0  0  0  0  0
    4.2410    1.6120   -0.6230 C   0  0  2  0  0  0  0  0  0  0  0  0
    5.6750    1.7440   -1.1340 C   0  0  0  0  0  0  0  0  0  0  0  0
    6.5420    0.6230   -0.6860 C   0  0  0  0  0  0  0  0  0  0  0  0
    6.6020    0.5670    0.7010 O   0  0  0  0  0  0  0  0  0  0  0  0
    3.6720    0.4020   -1.2590 C   0  0  0  0  0  0  0  0  0  0  0  0
    4.1590    0.2310   -2.4620 O   0  0  0  0  0  0  0  0  0  0  0  0
    2.7500   -0.5150   -0.7840 N   0  0  0  0  0  0  0  0  0  0  0  0
    2.7460   -1.5140    0.2420 C   0  0  2  0  0  0  0  0  0  0  0  0
    3.2260   -1.1220    1.5860 C   0  0  0  0  0  0  0  0  0  0  0  0
    3.6030   -2.7080   -0.2340 C   0  0  0  0  0  0  0  0  0  0  0  0
    3.7600   -3.8360    0.6710 C   0  0  0  0  0  0  0  0  0  0  0  0
    1.3280   -2.0480    0.3740 C   0  0  0  0  0  0  0  0  0  0  0  0
    1.2120   -2.9820    1.2100 O   0  0  0  0  0  0  0  0  0  0  0  0
   -1.1320    1.1950    1.4920 C   0  0  0  0  0  0  0  0  0  0  0  0
   -0.9600    1.1120    2.7820 O   0  0  0  0  0  0  0  0  0  0  0  0
   -2.3750    1.7190    1.1000 N   0  0  0  0  0  0  0  0  0  0  0  0
   -2.8320    2.1950   -0.1720 C   0  0  2  0  0  0  0  0  0  0  0  0
   -3.6380    3.4430    0.0190 C   0  0  0  0  0  0  0  0  0  0  0  0
   -4.9220    3.3080   -0.0610 O   0  0  0  0  0  0  0  0  0  0  0  0
   -3.1980    4.7090    0.2690 O   0  0  0  0  0  0  0  0  0  0  0  0
   -4.1670    5.7350    0.4180 C   0  0  0  0  0  0  0  0  0  0  0  0
   -3.7710    1.2110   -0.8440 C   0  0  0  0  0  0  0  0  0  0  0  0
   -4.6000    0.3080   -0.0630 C   0  0  2  0  0  0  0  0  0  0  0  0
   -5.6030    0.8330    0.9080 C   0  0  0  0  0  0  0  0  0  0  0  0
   -3.9520   -0.9460    0.5250 C   0  0  0  0  0  0  0  0  0  0  0  0
   -3.7250   -2.0320   -0.4950 C   0  0  1  0  0  0  0  0  0  0  0  0
   -3.8140   -1.5500   -1.7910 O   0  0  0  0  0  0  0  0  0  0  0  0
  1  2  1  0
  3  2  1  6
  3  4  1  0
  3 39  1  0
  4  5  1  0
  5  6  1  0
  6  7  2  0
  6 25  1  0
  7  8  1  0
  8  9  1  6
  8 27  1  0
  9 10  2  0
  9 11  1  0
 11 12  1  0
 12 13  1  0
 13 14  1  0
 14 15  1  6
 14 18  1  0
 15 16  1  0
 16 17  1  0
 18 19  2  0
 18 20  1  0
 20 21  1  0
 21 22  1  1
 21 23  1  0
 21 25  1  0
 23 24  1  0
 25 26  2  0
 27 28  2  0
 27 29  1  0
 29 30  1  0
 30 31  1  1
 30 35  1  0
 31 32  2  0
 31 33  1  0
 33 34  1  0
 35 36  1  0
 36 37  1  1
 36 38  1  0
 38 39  1  0
 39 40  1  6
M  END
