
     RDKit          3D

 40 42  0  0  0  0  0  0  0  0999 V2000
   -3.5560    5.6190   -0.1660 C   0  0  0  0  0  0  0  0  0  0  0  0
   -2.7150    4.4490    0.2190 C   0  0  0  0  0  0  0  0  0  0  0  0
   -3.5010    3.1400    0.1870 C   0  0  0  0  0  0  0  0  0  0  0  0
   -2.6440    2.0110    0.5750 C   0  0  0  0  0  0  0  0  0  0  0  0
   -1.4650    2.2950    0.8790 O   0  0  0  0  0  0  0  0  0  0  0  0
   -3.0870    0.6310    0.6170 C   0  0  0  0  0  0  0  0  0  0  0  0
   -2.3320   -0.4060    0.9740 C   0  0  0  0  0  0  0  0  0  0  0  0
   -2.8440   -1.6370    0.9740 O   0  0  0  0  0  0  0  0  0  0  0  0
   -2.9610   -2.9480    1.1270 C   0  0  0  0  0  0  0  0  0  0  0  0
   -3.2360   -3.5100    2.4730 C   0  0  0  0  0  0  0  0  0  0  0  0
   -3.3800   -4.9670    2.6620 C   0  0  0  0  0  0  0  0  0  0  0  0
   -2.8500   -3.8560    0.1300 C   0  0  0  0  0  0  0  0  0  0  0  0
   -3.0060   -5.2520    0.4210 O   0  0  0  0  0  0  0  0  0  0  0  0
   -2.5770   -3.5760   -1.2730 C   0  0  0  0  0  0  0  0  0  0  0  0
   -3.6060   -3.6910   -2.0750 O   0  0  0  0  0  0  0  0  0  0  0  0
   -1.3870   -3.2120   -1.8790 O   0  0  0  0  0  0  0  0  0  0  0  0
   -0.2810   -4.0040   -2.1750 C   0  0  0  0  0  0  0  0  0  0  0  0
    1.0550   -3.3670   -2.1730 C   0  0  0  0  0  0  0  0  0  0  0  0
    1.2890   -2.3760   -1.0590 C   0  0  0  0  0  0  0  0  0  0  0  0
    0.9440   -1.0270   -1.6050 C   0  0  2  0  0  0  0  0  0  0  0  0
    1.9330   -0.4390   -2.5510 C   0  0  2  0  0  0  0  0  0  0  0  0
    3.1390   -1.0960   -2.6090 O   0  0  0  0  0  0  0  0  0  0  0  0
    2.0560    1.0190   -2.1550 C   0  0  2  0  0  0  0  0  0  0  0  0
    3.3330    1.4100   -2.5160 O   0  0  0  0  0  0  0  0  0  0  0  0
    3.3770    2.4690   -3.3900 C   0  0  0  0  0  0  0  0  0  0  0  0
    1.8940    0.9080   -0.6280 C   0  0  2  0  0  0  0  0  0  0  0  0
    3.1270    0.6890   -0.1060 N   0  0  0  0  0  0  0  0  0  0  0  0
    3.4570    0.0010    1.0460 C   0  0  0  0  0  0  0  0  0  0  0  0
    4.9820    0.0700    1.2580 C   0  0  0  0  0  0  0  0  0  0  0  0
    5.4550    1.4510    1.5600 C   0  0  2  0  0  0  0  0  0  0  0  0
    6.0380    1.6680    2.9050 C   0  0  0  0  0  0  0  0  0  0  0  0
    4.3060    2.3900    1.2420 C   0  0  0  0  0  0  0  0  0  0  0  0
    3.8680    1.9630   -0.1640 C   0  0  0  0  0  0  0  0  0  0  0  0
    0.7290    0.0290   -0.5840 C   0  0  2  0  0  0  0  0  0  0  0  0
    0.2610   -0.4070    0.6900 N   0  0  0  0  0  0  0  0  0  0  0  0
   -0.9540   -0.0810    1.3570 C   0  0  0  0  0  0  0  0  0  0  0  0
   -0.8240    0.6050    2.4820 O   0  0  0  0  0  0  0  0  0  0  0  0
   -4.5540    0.3740    0.2340 C   0  0  1  0  0  0  0  0  0  0  0  0
   -5.5050    0.9500    1.2100 C   0  0  0  0  0  0  0  0  0  0  0  0
   -4.7400    0.8040   -1.0790 O   0  0  0  0  0  0  0  0  0  0  0  0
  1  2  1  0
  2  3  1  0
  3  4  1  0
  4  5  2  0
  4  6  1  0
  6  7  2  3
  6 38  1  0
  7  8  1  0
  7 36  1  0
  8  9  1  0
  9 10  1  0
  9 12  2  0
 10 11  1  0
 12 13  1  0
 12 14  1  0
 14 15  2  0
 14 16  1  0
 16 17  1  0
 17 18  1  0
 18 19  1  0
 20 19  1  1
 20 21  1  0
 20 34  1  0
 21 22  1  1
 21 23  1  0
 23 24  1  1
 23 26  1  0
 24 25  1  0
 26 27  1  1
 26 34  1  0
 27 28  1  0
 27 33  1  0
 28 29  1  0
 29 30  1  0
 30 31  1  1
 30 32  1  0
 32 33  1  0
 34 35  1  1
 35 36  1  0
 36 37  2  0
 38 39  1  1
 38 40  1  0
M  END
