
     RDKit          3D

 40 41  0  0  0  0  0  0  0  0999 V2000
   -0.6290    5.1590    0.8260 C   0  0  0  0  0  0  0  0  0  0  0  0
    0.0170    4.0090    0.0740 C   0  0  0  0  0  0  0  0  0  0  0  0
    1.2880    3.7450    0.4050 C   0  0  0  0  0  0  0  0  0  0  0  0
    1.8860    4.6410    1.4880 C   0  0  0  0  0  0  0  0  0  0  0  0
    2.1100    2.8170   -0.0690 O   0  0  0  0  0  0  0  0  0  0  0  0
    2.5270    2.2560   -1.2440 C   0  0  0  0  0  0  0  0  0  0  0  0
    3.2220    0.9270   -0.8700 C   0  0  2  0  0  0  0  0  0  0  0  0
    4.4300    0.7260   -1.7600 C   0  0  0  0  0  0  0  0  0  0  0  0
    5.2980    1.8670   -1.6300 N   0  0  0  0  0  0  0  0  0  0  0  0
    6.4950    1.8670   -2.4010 C   0  0  0  0  0  0  0  0  0  0  0  0
    6.7540    0.9080   -3.1470 O   0  0  0  0  0  0  0  0  0  0  0  0
    7.3530    2.9530   -2.2960 O   0  0  0  0  0  0  0  0  0  0  0  0
    2.3480   -0.1460   -0.9340 O   0  0  0  0  0  0  0  0  0  0  0  0
    2.6460   -1.1670   -0.0500 C   0  0  0  0  0  0  0  0  0  0  0  0
    1.4350   -1.5190    0.8180 C   0  0  1  0  0  0  0  0  0  0  0  0
    1.9620   -2.0510    2.1270 C   0  0  0  0  0  0  0  0  0  0  0  0
    1.0390   -0.0920    1.2730 C   0  0  0  0  0  0  0  0  0  0  0  0
    0.3040   -2.1600    0.1970 C   0  0  2  0  0  0  0  0  0  0  0  0
   -0.7090   -2.5370    1.2810 C   0  0  0  0  0  0  0  0  0  0  0  0
   -0.5140   -3.7640    2.0390 C   0  0  0  0  0  0  0  0  0  0  0  0
    0.1960   -4.9140    1.4270 C   0  0  0  0  0  0  0  0  0  0  0  0
    1.0000   -4.5850    0.2170 C   0  0  0  0  0  0  0  0  0  0  0  0
    0.4680   -3.4190   -0.5850 C   0  0  2  0  0  0  0  0  0  0  0  0
    1.2180   -3.4070   -1.8520 C   0  0  0  0  0  0  0  0  0  0  0  0
   -0.9590   -3.9010   -0.9290 C   0  0  0  0  0  0  0  0  0  0  0  0
   -0.4350   -1.1570   -0.6860 C   0  0  0  0  0  0  0  0  0  0  0  0
   -0.2030   -1.3950   -1.9400 O   0  0  0  0  0  0  0  0  0  0  0  0
   -1.1880   -0.2080   -0.1550 O   0  0  0  0  0  0  0  0  0  0  0  0
   -1.7670    1.0110   -0.2180 C   0  0  2  0  0  0  0  0  0  0  0  0
   -1.8660    1.6500    1.1780 C   0  0  0  0  0  0  0  0  0  0  0  0
   -3.2530    0.8520   -0.6220 C   0  0  1  0  0  0  0  0  0  0  0  0
   -3.4040    0.1840   -1.9470 C   0  0  0  0  0  0  0  0  0  0  0  0
   -3.9160    0.0060    0.4170 C   0  0  0  0  0  0  0  0  0  0  0  0
   -5.3690   -0.2590    0.1790 C   0  0  1  0  0  0  0  0  0  0  0  0
   -5.8180   -1.0840    1.2600 O   0  0  0  0  0  0  0  0  0  0  0  0
   -6.1900    0.9940    0.2830 C   0  0  0  0  0  0  0  0  0  0  0  0
   -5.9400    1.9190   -0.6960 O   0  0  0  0  0  0  0  0  0  0  0  0
   -1.1260    2.0390   -1.0910 C   0  0  0  0  0  0  0  0  0  0  0  0
   -0.8630    1.5400   -2.2520 O   0  0  0  0  0  0  0  0  0  0  0  0
   -0.7920    3.3600   -0.8680 N   0  0  0  0  0  0  0  0  0  0  0  0
  1  2  1  0
  2  3  2  0
  2 40  1  0
  3  4  1  0
  3  5  1  0
  5  6  1  0
  6  7  1  0
  7  8  1  6
  7 13  1  0
  8  9  1  0
  9 10  1  0
 10 11  2  0
 10 12  1  0
 13 14  1  0
 14 15  1  0
 15 16  1  1
 15 17  1  0
 15 18  1  0
 18 19  1  1
 18 23  1  0
 18 26  1  0
 19 20  1  0
 20 21  1  0
 21 22  1  0
 22 23  1  0
 23 24  1  6
 23 25  1  0
 26 27  2  0
 26 28  1  0
 28 29  1  0
 29 30  1  1
 29 31  1  0
 29 38  1  0
 31 32  1  6
 31 33  1  0
 33 34  1  0
 34 35  1  1
 34 36  1  0
 36 37  1  0
 38 39  2  0
 38 40  1  0
M  END
