
     RDKit          3D

 41 45  0  0  0  0  0  0  0  0999 V2000
  -11.0040   -1.4660    0.7940 C   0  0  0  0  0  0  0  0  0  0  0  0
   -9.8280   -0.9540   -0.0150 C   0  0  0  0  0  0  0  0  0  0  0  0
   -9.7010    0.5360    0.1620 C   0  0  0  0  0  0  0  0  0  0  0  0
   -8.5940    1.0200   -0.6040 N   0  0  0  0  0  0  0  0  0  0  0  0
   -7.2730    0.6440   -0.2860 C   0  0  0  0  0  0  0  0  0  0  0  0
   -7.0250   -0.1560    0.7570 N   0  0  0  0  0  0  0  0  0  0  0  0
   -5.7630   -0.5210    1.0870 C   0  0  0  0  0  0  0  0  0  0  0  0
   -4.7090   -0.0880    0.3720 N   0  0  0  0  0  0  0  0  0  0  0  0
   -4.8800    0.7130   -0.6820 C   0  0  0  0  0  0  0  0  0  0  0  0
   -6.1720    1.0770   -1.0080 C   0  0  0  0  0  0  0  0  0  0  0  0
   -6.0590    1.8650   -2.0790 N   0  0  0  0  0  0  0  0  0  0  0  0
   -4.7600    1.9840   -2.4040 C   0  0  0  0  0  0  0  0  0  0  0  0
   -4.0050    1.2690   -1.5390 N   0  0  0  0  0  0  0  0  0  0  0  0
   -2.5600    1.1370   -1.5450 C   0  0  2  0  0  0  0  0  0  0  0  0
   -2.2080   -0.0210   -0.8410 O   0  0  0  0  0  0  0  0  0  0  0  0
   -0.8520    0.1490   -0.6140 C   0  0  2  0  0  0  0  0  0  0  0  0
   -0.2920   -0.8150    0.3520 C   0  0  0  0  0  0  0  0  0  0  0  0
    0.8850   -0.5570    0.9360 C   0  0  0  0  0  0  0  0  0  0  0  0
    1.4370   -1.5220    1.8970 C   0  0  0  0  0  0  0  0  0  0  0  0
    2.7380   -2.0150    1.4330 N   0  0  0  0  0  0  0  0  0  0  0  0
    3.8090   -1.1230    1.2360 C   0  0  0  0  0  0  0  0  0  0  0  0
    3.5600    0.0990    1.4880 O   0  0  0  0  0  0  0  0  0  0  0  0
    5.1240   -1.4860    0.7840 C   0  0  0  0  0  0  0  0  0  0  0  0
    6.0560   -0.4670    0.6470 C   0  0  0  0  0  0  0  0  0  0  0  0
    7.3340   -0.7150    0.2220 C   0  0  0  0  0  0  0  0  0  0  0  0
    8.2880    0.3760    0.0880 C   0  0  0  0  0  0  0  0  0  0  0  0
    8.2120    1.4740    0.9420 C   0  0  0  0  0  0  0  0  0  0  0  0
    9.0920    2.5290    0.8530 C   0  0  0  0  0  0  0  0  0  0  0  0
   10.0890    2.5220   -0.1040 C   0  0  0  0  0  0  0  0  0  0  0  0
   10.9160    3.5870   -0.1360 F   0  0  0  0  0  0  0  0  0  0  0  0
   10.1790    1.4470   -0.9550 C   0  0  0  0  0  0  0  0  0  0  0  0
    9.2940    0.3950   -0.8590 C   0  0  0  0  0  0  0  0  0  0  0  0
    7.7490   -1.9850   -0.0870 C   0  0  0  0  0  0  0  0  0  0  0  0
    6.8540   -3.0160    0.0380 C   0  0  0  0  0  0  0  0  0  0  0  0
    7.3110   -4.2810   -0.2830 O   0  0  0  0  0  0  0  0  0  0  0  0
    5.5610   -2.7450    0.4710 C   0  0  0  0  0  0  0  0  0  0  0  0
    4.6990   -3.7960    0.5820 O   0  0  0  0  0  0  0  0  0  0  0  0
   -0.7550    1.5580   -0.0710 C   0  0  1  0  0  0  0  0  0  0  0  0
    0.4500    2.1610   -0.4400 O   0  0  0  0  0  0  0  0  0  0  0  0
   -1.8750    2.2630   -0.7960 C   0  0  1  0  0  0  0  0  0  0  0  0
   -1.4320    3.2730   -1.6230 O   0  0  0  0  0  0  0  0  0  0  0  0
  1  2  1  0
  2  3  1  0
  3  4  1  0
  4  5  1  0
  5  6  2  0
  5 10  1  0
  6  7  1  0
  7  8  2  0
  8  9  1  0
  9 10  2  0
  9 13  1  0
 10 11  1  0
 11 12  2  0
 12 13  1  0
 14 13  1  1
 14 15  1  0
 14 40  1  0
 15 16  1  0
 16 17  1  1
 16 38  1  0
 17 18  2  3
 18 19  1  0
 19 20  1  0
 20 21  1  0
 21 22  2  0
 21 23  1  0
 23 24  2  0
 23 36  1  0
 24 25  1  0
 25 26  1  0
 25 33  2  0
 26 27  2  0
 26 32  1  0
 27 28  1  0
 28 29  2  0
 29 30  1  0
 29 31  1  0
 31 32  2  0
 33 34  1  0
 34 35  1  0
 34 36  2  0
 36 37  1  0
 38 39  1  6
 38 40  1  0
 40 41  1  6
M  END
