
     RDKit          3D

 21 21  0  0  0  0  0  0  0  0999 V2000
   -2.9820    2.5930   -1.6270 C   0  0  0  0  0  0  0  0  0  0  0  0
   -3.5320    1.5870   -0.7150 C   0  0  0  0  0  0  0  0  0  0  0  0
   -2.7250    0.7010   -0.1020 C   0  0  0  0  0  0  0  0  0  0  0  0
   -1.3130    0.8270   -0.4210 C   0  0  0  0  0  0  0  0  0  0  0  0
   -0.4130    0.0190    0.0910 C   0  0  0  0  0  0  0  0  0  0  0  0
    1.0070    0.2560   -0.3160 C   0  0  0  0  0  0  0  0  0  0  0  0
    1.3010    1.3480   -1.2370 C   0  0  0  0  0  0  0  0  0  0  0  0
    1.8870   -0.5690    0.2120 C   0  0  0  0  0  0  0  0  0  0  0  0
    3.3090   -0.4440   -0.1050 C   0  0  0  0  0  0  0  0  0  0  0  0
    4.1740   -1.2650    0.4220 C   0  0  0  0  0  0  0  0  0  0  0  0
    5.5880   -1.2260    0.1760 C   0  0  0  0  0  0  0  0  0  0  0  0
    6.2070   -0.2330   -0.7120 C   0  0  0  0  0  0  0  0  0  0  0  0
    6.4080   -2.1170    0.7650 C   0  0  0  0  0  0  0  0  0  0  0  0
    7.8230   -2.0610    0.5050 C   0  0  0  0  0  0  0  0  0  0  0  0
    8.4360   -1.2710   -0.2230 O   0  0  0  0  0  0  0  0  0  0  0  0
   -3.1860   -0.3200    0.8470 C   0  0  1  0  0  0  0  0  0  0  0  0
   -2.9120   -1.6940    0.2650 C   0  0  0  0  0  0  0  0  0  0  0  0
   -2.4680   -0.2230    2.1970 C   0  0  0  0  0  0  0  0  0  0  0  0
   -4.6470   -0.1630    1.1530 C   0  0  0  0  0  0  0  0  0  0  0  0
   -5.4220    0.1720   -0.0660 C   0  0  0  0  0  0  0  0  0  0  0  0
   -5.0180    1.5730   -0.5320 C   0  0  0  0  0  0  0  0  0  0  0  0
  1  2  1  0
  2  3  2  0
  2 21  1  0
  3  4  1  0
  3 16  1  0
  4  5  2  3
  5  6  1  0
  6  7  1  0
  6  8  2  3
  8  9  1  0
  9 10  2  3
 10 11  1  0
 11 12  1  0
 11 13  2  3
 13 14  1  0
 14 15  2  0
 16 17  1  6
 16 18  1  0
 16 19  1  0
 19 20  1  0
 20 21  1  0
M  END
