
     RDKit          3D

 25 25  0  0  0  0  0  0  0  0999 V2000
    4.6590   -0.8940    1.4940 O   0  0  0  0  0  0  0  0  0  0  0  0
    3.6450   -0.5190    0.8150 C   0  0  0  0  0  0  0  0  0  0  0  0
    3.4270    0.7970    0.6550 O   0  0  0  0  0  0  0  0  0  0  0  0
    3.1800    1.6660   -0.3740 C   0  0  0  0  0  0  0  0  0  0  0  0
    2.1820    2.7190   -0.1030 C   0  0  0  0  0  0  0  0  0  0  0  0
    0.9890    2.8990   -0.6000 C   0  0  0  0  0  0  0  0  0  0  0  0
    0.4100    4.0540   -0.0380 F   0  0  0  0  0  0  0  0  0  0  0  0
    0.1780    2.2200   -1.5560 C   0  0  0  0  0  0  0  0  0  0  0  0
   -0.7020    1.2440   -1.5110 C   0  0  0  0  0  0  0  0  0  0  0  0
   -1.2660    0.8980   -2.7950 O   0  0  0  0  0  0  0  0  0  0  0  0
   -1.2400    0.4350   -0.4470 C   0  0  0  0  0  0  0  0  0  0  0  0
   -2.5750    0.2160   -0.3340 C   0  0  0  0  0  0  0  0  0  0  0  0
   -3.2030   -0.5870    0.7080 C   0  0  1  0  0  0  0  0  0  0  0  0
   -4.2690    0.2900    1.3780 C   0  0  0  0  0  0  0  0  0  0  0  0
   -5.1860    0.6670    0.4250 F   0  0  0  0  0  0  0  0  0  0  0  0
   -3.9510   -1.7290    0.0480 C   0  0  1  0  0  0  0  0  0  0  0  0
   -4.8990   -1.1350   -0.7870 F   0  0  0  0  0  0  0  0  0  0  0  0
   -3.0720   -2.3890   -0.7930 F   0  0  0  0  0  0  0  0  0  0  0  0
   -4.5440   -2.5670    0.9590 F   0  0  0  0  0  0  0  0  0  0  0  0
   -0.5320   -0.2100    0.5630 O   0  0  0  0  0  0  0  0  0  0  0  0
    0.8530   -0.3570    0.5590 C   0  0  0  0  0  0  0  0  0  0  0  0
    1.4310   -1.6890    0.9150 C   0  0  1  0  0  0  0  0  0  0  0  0
    0.7540   -2.7590    0.3870 O   0  0  0  0  0  0  0  0  0  0  0  0
    2.8460   -1.6570    0.2970 C   0  0  2  0  0  0  0  0  0  0  0  0
    3.4660   -2.8690    0.3610 O   0  0  0  0  0  0  0  0  0  0  0  0
  1  2  2  0
  2  3  1  0
  2 24  1  0
  3  4  1  0
  4  5  1  0
  5  6  2  0
  6  7  1  0
  6  8  1  0
  8  9  2  0
  9 10  1  0
  9 11  1  0
 11 12  2  3
 11 20  1  0
 12 13  1  0
 13 14  1  6
 13 16  1  0
 14 15  1  0
 16 17  1  6
 16 18  1  0
 16 19  1  0
 20 21  1  0
 21 22  1  0
 22 23  1  6
 22 24  1  0
 24 25  1  1
M  END
