
     RDKit          3D

 25 25  0  0  0  0  0  0  0  0999 V2000
   -1.7000   -1.3800   -2.1010 O   0  0  0  0  0  0  0  0  0  0  0  0
   -1.2720   -1.6070   -0.9180 C   0  0  0  0  0  0  0  0  0  0  0  0
   -2.2920   -1.4850    0.1610 C   0  0  0  0  0  0  0  0  0  0  0  0
   -3.2540   -0.3440   -0.1080 C   0  0  2  0  0  0  0  0  0  0  0  0
   -3.3140   -0.0640   -1.4600 O   0  0  0  0  0  0  0  0  0  0  0  0
   -2.8520    0.9070    0.6360 C   0  0  2  0  0  0  0  0  0  0  0  0
   -2.7310    0.6390    2.0090 O   0  0  0  0  0  0  0  0  0  0  0  0
   -3.9860    1.9010    0.4940 C   0  0  2  0  0  0  0  0  0  0  0  0
   -3.6470    3.0460    1.1600 F   0  0  0  0  0  0  0  0  0  0  0  0
   -5.1820    1.3910    0.9700 F   0  0  0  0  0  0  0  0  0  0  0  0
   -4.1260    2.2490   -0.8540 F   0  0  0  0  0  0  0  0  0  0  0  0
   -1.6160    1.5340    0.0680 C   0  0  0  0  0  0  0  0  0  0  0  0
   -0.5380    1.4850    1.1440 C   0  0  0  0  0  0  0  0  0  0  0  0
    0.8200    1.2930    0.5000 C   0  0  1  0  0  0  0  0  0  0  0  0
    0.6920    1.5860   -0.8480 F   0  0  0  0  0  0  0  0  0  0  0  0
    1.6750    2.1950    1.0970 F   0  0  0  0  0  0  0  0  0  0  0  0
    1.2010   -0.0170    0.6900 O   0  0  0  0  0  0  0  0  0  0  0  0
    2.5430   -0.2420    0.6480 C   0  0  2  0  0  0  0  0  0  0  0  0
    3.2260    0.3700   -0.5490 C   0  0  0  0  0  0  0  0  0  0  0  0
    4.7070    0.1060   -0.5700 C   0  0  0  0  0  0  0  0  0  0  0  0
    5.2020    0.7330   -1.7340 O   0  0  0  0  0  0  0  0  0  0  0  0
    2.8030   -1.7040    0.7000 C   0  0  0  0  0  0  0  0  0  0  0  0
    1.9360   -2.6720    0.6400 C   0  0  0  0  0  0  0  0  0  0  0  0
    0.4690   -2.5800    0.5050 C   0  0  0  0  0  0  0  0  0  0  0  0
    0.0530   -1.9410   -0.6800 O   0  0  0  0  0  0  0  0  0  0  0  0
  1  2  2  0
  2  3  1  0
  2 25  1  0
  3  4  1  0
  4  5  1  6
  4  6  1  0
  6  7  1  1
  6  8  1  0
  6 12  1  0
  8  9  1  1
  8 10  1  0
  8 11  1  0
 12 13  1  0
 13 14  1  0
 14 15  1  6
 14 16  1  0
 14 17  1  0
 17 18  1  0
 18 19  1  6
 18 22  1  0
 19 20  1  0
 20 21  1  0
 22 23  2  0
 23 24  1  0
 24 25  1  0
M  END
