
     RDKit          3D

 25 26  0  0  0  0  0  0  0  0999 V2000
   -2.0070    2.8560    1.8380 O   0  0  0  0  0  0  0  0  0  0  0  0
   -2.1720    1.8730    1.0840 C   0  0  0  0  0  0  0  0  0  0  0  0
   -2.7700    2.0550   -0.1290 O   0  0  0  0  0  0  0  0  0  0  0  0
   -1.7240    0.5500    1.5230 C   0  0  0  0  0  0  0  0  0  0  0  0
   -1.7980   -0.4620    0.5040 C   0  0  2  0  0  0  0  0  0  0  0  0
   -1.4370   -1.7630    0.9140 O   0  0  0  0  0  0  0  0  0  0  0  0
   -1.9150   -2.4690   -0.2220 C   0  0  0  0  0  0  0  0  0  0  0  0
   -1.5950   -1.5660   -1.4340 C   0  0  0  0  0  0  0  0  0  0  0  0
   -0.8910   -0.4080   -0.7160 C   0  0  1  0  0  0  0  0  0  0  0  0
   -1.1010    0.7410   -1.4160 O   0  0  0  0  0  0  0  0  0  0  0  0
    0.4930   -0.8000   -0.4970 C   0  0  1  0  0  0  0  0  0  0  0  0
    0.5450   -2.0630    0.1410 O   0  0  0  0  0  0  0  0  0  0  0  0
    1.2480   -0.9440   -1.7950 C   0  0  0  0  0  0  0  0  0  0  0  0
    1.7320    0.3340   -2.3980 C   0  0  0  0  0  0  0  0  0  0  0  0
    2.2090    1.3180   -1.5490 O   0  0  0  0  0  0  0  0  0  0  0  0
    1.6660    1.3910   -0.2410 C   0  0  0  0  0  0  0  0  0  0  0  0
    1.4580    2.5130    0.3930 C   0  0  0  0  0  0  0  0  0  0  0  0
    0.9580    2.7230    1.6010 F   0  0  0  0  0  0  0  0  0  0  0  0
    1.8290    3.6510   -0.2920 F   0  0  0  0  0  0  0  0  0  0  0  0
    1.3680    0.0950    0.3280 C   0  0  0  0  0  0  0  0  0  0  0  0
    1.8580   -0.2570    1.4890 C   0  0  0  0  0  0  0  0  0  0  0  0
    2.7200    0.4540    2.4210 C   0  0  1  0  0  0  0  0  0  0  0  0
    2.0510    0.8920    3.5240 F   0  0  0  0  0  0  0  0  0  0  0  0
    3.7120   -0.4420    2.9350 F   0  0  0  0  0  0  0  0  0  0  0  0
    3.4900    1.4570    1.8670 F   0  0  0  0  0  0  0  0  0  0  0  0
  1  2  2  0
  2  3  1  0
  2  4  1  0
  5  4  1  1
  5  6  1  0
  5  9  1  0
  6  7  1  0
  7  8  1  0
  8  9  1  0
  9 10  1  6
  9 11  1  0
 11 12  1  1
 11 13  1  0
 11 20  1  0
 13 14  1  0
 14 15  1  0
 15 16  1  0
 16 17  2  3
 16 20  1  0
 17 18  1  0
 17 19  1  0
 20 21  2  3
 21 22  1  0
 22 23  1  1
 22 24  1  0
 22 25  1  0
M  END
