
     RDKit          3D

 25 25  0  0  0  0  0  0  0  0999 V2000
   -2.9910   -0.5950    2.1750 O   0  0  0  0  0  0  0  0  0  0  0  0
   -3.2420   -1.8230    1.5800 C   0  0  0  0  0  0  0  0  0  0  0  0
   -2.6800   -2.1390    0.4270 C   0  0  0  0  0  0  0  0  0  0  0  0
   -2.9460   -3.3630   -0.1410 F   0  0  0  0  0  0  0  0  0  0  0  0
   -1.7890   -1.1780   -0.2150 C   0  0  0  0  0  0  0  0  0  0  0  0
   -1.2360   -1.5460   -1.3860 C   0  0  0  0  0  0  0  0  0  0  0  0
   -1.5680   -2.7950   -1.8680 F   0  0  0  0  0  0  0  0  0  0  0  0
   -0.3330   -0.7840   -2.1880 C   0  0  0  0  0  0  0  0  0  0  0  0
    0.7730   -0.2100   -1.8310 C   0  0  0  0  0  0  0  0  0  0  0  0
    1.6490   -0.7070   -1.0370 C   0  0  0  0  0  0  0  0  0  0  0  0
    2.3250   -1.8350   -1.4840 O   0  0  0  0  0  0  0  0  0  0  0  0
    1.9800   -0.1840    0.2740 C   0  0  0  0  0  0  0  0  0  0  0  0
    2.2020   -1.0270    1.2590 C   0  0  0  0  0  0  0  0  0  0  0  0
    2.1460   -2.5020    1.1560 C   0  0  2  0  0  0  0  0  0  0  0  0
    1.9990   -3.0830    2.4200 F   0  0  0  0  0  0  0  0  0  0  0  0
    3.2910   -3.0210    0.5860 F   0  0  0  0  0  0  0  0  0  0  0  0
    1.0090   -2.8790    0.4610 F   0  0  0  0  0  0  0  0  0  0  0  0
    2.0710    1.1770    0.5360 O   0  0  0  0  0  0  0  0  0  0  0  0
    1.8830    2.1810   -0.4350 C   0  0  0  0  0  0  0  0  0  0  0  0
    0.5180    2.8270   -0.3730 C   0  0  1  0  0  0  0  0  0  0  0  0
   -0.0070    2.9340   -1.6650 O   0  0  0  0  0  0  0  0  0  0  0  0
   -0.3890    2.0700    0.5620 C   0  0  1  0  0  0  0  0  0  0  0  0
   -0.8980    2.9000    1.5690 O   0  0  0  0  0  0  0  0  0  0  0  0
   -1.4850    1.3140   -0.1550 C   0  0  0  0  0  0  0  0  0  0  0  0
   -1.5590    0.0150    0.3770 O   0  0  0  0  0  0  0  0  0  0  0  0
  1  2  1  0
  2  3  2  3
  3  4  1  0
  3  5  1  0
  5  6  2  0
  5 25  1  0
  6  7  1  0
  6  8  1  0
  8  9  2  0
  9 10  2  0
 10 11  1  0
 10 12  1  0
 12 13  2  3
 12 18  1  0
 13 14  1  0
 14 15  1  1
 14 16  1  0
 14 17  1  0
 18 19  1  0
 19 20  1  0
 20 21  1  6
 20 22  1  0
 22 23  1  1
 22 24  1  0
 24 25  1  0
M  END
