
     RDKit          3D

 24 26  0  0  0  0  0  0  0  0999 V2000
    0.6590    2.3550    0.6180 O   0  0  0  0  0  0  0  0  0  0  0  0
    0.4270    1.3460   -0.2730 C   0  0  1  0  0  0  0  0  0  0  0  0
    1.5920    0.3830   -0.1100 C   0  0  1  0  0  0  0  0  0  0  0  0
    2.1690   -0.1040   -1.3770 C   0  0  0  0  0  0  0  0  0  0  0  0
    3.1620   -1.2160   -1.0590 C   0  0  0  0  0  0  0  0  0  0  0  0
    4.2230   -0.5880   -0.4060 O   0  0  0  0  0  0  0  0  0  0  0  0
    3.8110   -0.0600    0.7840 C   0  0  0  0  0  0  0  0  0  0  0  0
    2.7650    1.0520    0.6210 C   0  0  0  0  0  0  0  0  0  0  0  0
    1.0790   -0.5180    0.7770 O   0  0  0  0  0  0  0  0  0  0  0  0
   -0.2260   -0.7700    0.3240 C   0  0  1  0  0  0  0  0  0  0  0  0
    0.0490   -1.5310   -0.8520 O   0  0  0  0  0  0  0  0  0  0  0  0
   -1.0070   -1.6610    1.1930 C   0  0  0  0  0  0  0  0  0  0  0  0
   -2.0330   -2.4040    0.3490 C   0  0  0  0  0  0  0  0  0  0  0  0
   -2.0330   -2.0780   -0.9690 O   0  0  0  0  0  0  0  0  0  0  0  0
   -2.4830   -0.8770   -1.3760 C   0  0  0  0  0  0  0  0  0  0  0  0
   -1.5600    0.2740   -1.3550 C   0  0  0  0  0  0  0  0  0  0  0  0
   -0.8400    0.5480   -0.0570 C   0  0  2  0  0  0  0  0  0  0  0  0
   -1.7590    1.1350    0.9250 C   0  0  1  0  0  0  0  0  0  0  0  0
   -2.8930    0.2780    1.0430 O   0  0  0  0  0  0  0  0  0  0  0  0
   -1.2620    1.1390    2.2370 F   0  0  0  0  0  0  0  0  0  0  0  0
   -2.3440    2.4700    0.6760 C   0  0  1  0  0  0  0  0  0  0  0  0
   -3.1930    2.8490    1.7540 F   0  0  0  0  0  0  0  0  0  0  0  0
   -1.4860    3.5330    0.5920 F   0  0  0  0  0  0  0  0  0  0  0  0
   -3.2000    2.5720   -0.4040 F   0  0  0  0  0  0  0  0  0  0  0  0
  2  1  1  1
  2  3  1  0
  2 17  1  0
  3  4  1  6
  3  8  1  0
  3  9  1  0
  4  5  1  0
  5  6  1  0
  6  7  1  0
  7  8  1  0
  9 10  1  0
 10 11  1  6
 10 12  1  0
 10 17  1  0
 12 13  1  0
 13 14  1  0
 14 15  1  0
 15 16  1  0
 17 16  1  6
 17 18  1  0
 18 19  1  1
 18 20  1  0
 18 21  1  0
 21 22  1  1
 21 23  1  0
 21 24  1  0
M  END
