
     RDKit          3D

 24 25  0  0  0  0  0  0  0  0999 V2000
    0.7710    1.0780   -1.7740 C   0  0  0  0  0  0  0  0  0  0  0  0
    1.0260    0.3880   -0.4310 C   0  0  1  0  0  0  0  0  0  0  0  0
   -0.1140   -0.5710   -0.1950 C   0  0  1  0  0  0  0  0  0  0  0  0
    0.3060   -1.2590    1.0060 O   0  0  0  0  0  0  0  0  0  0  0  0
   -1.4220    0.0660    0.0410 C   0  0  0  0  0  0  0  0  0  0  0  0
   -1.7290    1.2100    0.4800 O   0  0  0  0  0  0  0  0  0  0  0  0
   -3.0440    1.4040    0.5560 C   0  0  0  0  0  0  0  0  0  0  0  0
   -3.5610    2.5420    1.0040 C   0  0  0  0  0  0  0  0  0  0  0  0
   -4.8370    2.8630    1.1370 F   0  0  0  0  0  0  0  0  0  0  0  0
   -2.6760    3.5240    1.3900 F   0  0  0  0  0  0  0  0  0  0  0  0
   -3.6670    0.2640    0.1110 C   0  0  0  0  0  0  0  0  0  0  0  0
   -4.9710    0.0250    0.0380 C   0  0  0  0  0  0  0  0  0  0  0  0
   -5.4520   -1.1290   -0.4100 F   0  0  0  0  0  0  0  0  0  0  0  0
   -5.8800    0.9330    0.4220 F   0  0  0  0  0  0  0  0  0  0  0  0
   -2.6300   -0.5810   -0.2120 C   0  0  0  0  0  0  0  0  0  0  0  0
   -2.6590   -1.9740   -0.7320 C   0  0  0  0  0  0  0  0  0  0  0  0
   -2.0550   -2.0890   -1.9820 O   0  0  0  0  0  0  0  0  0  0  0  0
    2.2550   -0.4810   -0.6440 C   0  0  0  0  0  0  0  0  0  0  0  0
    3.2700    0.1470    0.2370 C   0  0  2  0  0  0  0  0  0  0  0  0
    4.1480    0.9890   -0.4210 O   0  0  0  0  0  0  0  0  0  0  0  0
    4.1170   -0.9040    0.9230 C   0  0  0  0  0  0  0  0  0  0  0  0
    4.9450   -0.2740    1.8390 O   0  0  0  0  0  0  0  0  0  0  0  0
    2.4010    0.9060    1.2490 C   0  0  0  0  0  0  0  0  0  0  0  0
    1.2490    1.2650    0.5750 O   0  0  0  0  0  0  0  0  0  0  0  0
  2  1  1  6
  2  3  1  0
  2 18  1  0
  2 24  1  0
  3  4  1  1
  3  5  1  0
  5  6  1  0
  5 15  2  0
  6  7  1  0
  7  8  2  3
  7 11  1  0
  8  9  1  0
  8 10  1  0
 11 12  2  3
 11 15  1  0
 12 13  1  0
 12 14  1  0
 15 16  1  0
 16 17  1  0
 18 19  1  0
 19 20  1  6
 19 21  1  0
 19 23  1  0
 21 22  1  0
 23 24  1  0
M  END
