
     RDKit          3D

 31 33  0  0  0  0  0  0  0  0999 V2000
   -5.1080    0.9230   -3.2780 C   0  0  0  0  0  0  0  0  0  0  0  0
   -5.2580    0.0310   -2.0720 C   0  0  1  0  0  0  0  0  0  0  0  0
   -3.9440   -0.5550   -1.6610 C   0  0  0  0  0  0  0  0  0  0  0  0
   -3.2870   -1.2860   -2.4040 O   0  0  0  0  0  0  0  0  0  0  0  0
   -3.6510   -0.1170   -0.3420 N   0  0  0  0  0  0  0  0  0  0  0  0
   -2.7040   -0.1670    0.7570 C   0  0  0  0  0  0  0  0  0  0  0  0
   -1.4480   -0.9020    0.7650 C   0  0  0  0  0  0  0  0  0  0  0  0
   -0.6790   -0.8750    1.7750 O   0  0  0  0  0  0  0  0  0  0  0  0
   -0.9480   -1.7050   -0.3040 N   0  0  0  0  0  0  0  0  0  0  0  0
    0.3510   -2.3770   -0.1420 C   0  0  0  0  0  0  0  0  0  0  0  0
    1.4850   -1.4290    0.0400 C   0  0  0  0  0  0  0  0  0  0  0  0
    2.7080   -2.0880    0.1890 O   0  0  0  0  0  0  0  0  0  0  0  0
    3.9880   -0.9610    0.3950 P   0  0  0  0  0  0  0  0  0  0  0  0
    4.7370   -1.0730    1.9370 O   0  0  0  0  0  0  0  0  0  0  0  0
    5.2190   -1.0200   -0.9970 C   0  0  1  0  0  0  0  0  0  0  0  0
    5.2300    0.3830   -1.6180 C   0  0  0  0  0  0  0  0  0  0  0  0
    5.7600    1.3080   -0.5420 C   0  0  0  0  0  0  0  0  0  0  0  0
    7.2260    0.9920   -0.3500 C   0  0  0  0  0  0  0  0  0  0  0  0
    7.5050   -0.2560   -0.8450 O   0  0  0  0  0  0  0  0  0  0  0  0
    6.6270   -1.2410   -0.4580 C   0  0  0  0  0  0  0  0  0  0  0  0
   -3.1460    0.5740    1.7860 C   0  0  0  0  0  0  0  0  0  0  0  0
   -2.5960    0.8500    3.0820 C   0  0  0  0  0  0  0  0  0  0  0  0
   -1.4030    0.4080    3.6580 N   0  0  0  0  0  0  0  0  0  0  0  0
   -3.2450    1.6140    3.8910 O   0  0  0  0  0  0  0  0  0  0  0  0
   -4.4230    1.1480    1.3920 N   0  0  0  0  0  0  0  0  0  0  0  0
   -5.3130    2.0000    2.0890 C   0  0  0  0  0  0  0  0  0  0  0  0
   -6.4120    2.3880    1.5220 O   0  0  0  0  0  0  0  0  0  0  0  0
   -5.1630    2.4990    3.3560 O   0  0  0  0  0  0  0  0  0  0  0  0
   -4.7320    0.7080    0.0520 C   0  0  0  0  0  0  0  0  0  0  0  0
   -5.6460    0.8060   -0.9050 C   0  0  0  0  0  0  0  0  0  0  0  0
   -6.8310    1.5420   -0.8400 O   0  0  0  0  0  0  0  0  0  0  0  0
  2  1  1  6
  2  3  1  0
  2 30  1  0
  3  4  2  0
  3  5  1  0
  5  6  1  0
  5 29  1  0
  6  7  1  0
  6 21  2  0
  7  8  2  0
  7  9  1  0
  9 10  1  0
 10 11  1  0
 11 12  1  0
 12 13  1  0
 13 14  1  0
 15 13  1  1
 15 16  1  0
 15 20  1  0
 16 17  1  0
 17 18  1  0
 18 19  1  0
 19 20  1  0
 21 22  1  0
 21 25  1  0
 22 23  1  0
 22 24  2  0
 25 26  1  0
 25 29  1  0
 26 27  2  0
 26 28  1  0
 29 30  2  0
 30 31  1  0
M  END
