
     RDKit          3D

 31 33  0  0  0  0  0  0  0  0999 V2000
   -5.6020   -2.8470    0.2260 C   0  0  0  0  0  0  0  0  0  0  0  0
   -4.5270   -1.8420    0.0700 C   0  0  0  0  0  0  0  0  0  0  0  0
   -4.7350   -0.4800    0.1500 C   0  0  0  0  0  0  0  0  0  0  0  0
   -3.7090    0.4300   -0.0010 C   0  0  0  0  0  0  0  0  0  0  0  0
   -4.0190    1.7460    0.0970 N   0  0  0  0  0  0  0  0  0  0  0  0
   -3.0430    2.6290   -0.0440 C   0  0  0  0  0  0  0  0  0  0  0  0
   -3.2870    3.9830    0.0430 C   0  0  0  0  0  0  0  0  0  0  0  0
   -4.4620    4.3720    0.2600 O   0  0  0  0  0  0  0  0  0  0  0  0
   -2.2330    4.8030   -0.1140 N   0  0  0  0  0  0  0  0  0  0  0  0
   -0.9760    4.3820   -0.3470 C   0  0  0  0  0  0  0  0  0  0  0  0
   -0.0310    5.2350   -0.4830 O   0  0  0  0  0  0  0  0  0  0  0  0
   -0.7120    3.0660   -0.4360 N   0  0  0  0  0  0  0  0  0  0  0  0
   -1.6720    2.1540   -0.2990 C   0  0  0  0  0  0  0  0  0  0  0  0
   -1.3870    0.8320   -0.3920 N   0  0  0  0  0  0  0  0  0  0  0  0
   -0.0320    0.4510   -0.6410 C   0  0  0  0  0  0  0  0  0  0  0  0
    0.7690    0.2370    0.6370 C   0  0  2  0  0  0  0  0  0  0  0  0
    0.8340    1.3640    1.4210 O   0  0  0  0  0  0  0  0  0  0  0  0
    2.1690   -0.1690    0.2080 C   0  0  2  0  0  0  0  0  0  0  0  0
    2.0870   -1.3280   -0.5960 O   0  0  0  0  0  0  0  0  0  0  0  0
    3.0190   -0.5540    1.4010 C   0  0  2  0  0  0  0  0  0  0  0  0
    3.1800    0.5130    2.2830 O   0  0  0  0  0  0  0  0  0  0  0  0
    4.3930   -0.9180    0.8780 C   0  0  0  0  0  0  0  0  0  0  0  0
    4.9740    0.1800    0.2080 O   0  0  0  0  0  0  0  0  0  0  0  0
    6.4910   -0.2470   -0.3610 P   0  0  2  0  0  0  0  0  0  0  0  0
    6.8610   -1.6240    0.1640 O   0  0  0  0  0  0  0  0  0  0  0  0
    7.6690    0.8270    0.1580 O   0  0  0  0  0  0  0  0  0  0  0  0
    6.5470   -0.3390   -2.0480 O   0  0  0  0  0  0  0  0  0  0  0  0
   -2.4180   -0.0140   -0.2400 C   0  0  0  0  0  0  0  0  0  0  0  0
   -2.1990   -1.3510   -0.3210 C   0  0  0  0  0  0  0  0  0  0  0  0
   -3.2380   -2.2660   -0.1680 C   0  0  0  0  0  0  0  0  0  0  0  0
   -2.9030   -3.7160   -0.2720 C   0  0  0  0  0  0  0  0  0  0  0  0
  1  2  1  0
  2  3  2  0
  2 30  1  0
  3  4  1  0
  4  5  1  0
  4 28  2  0
  5  6  2  0
  6  7  1  0
  6 13  1  0
  7  8  2  0
  7  9  1  0
  9 10  1  0
 10 11  2  0
 10 12  1  0
 12 13  2  0
 13 14  1  0
 14 15  1  0
 14 28  1  0
 15 16  1  0
 16 17  1  6
 16 18  1  0
 18 19  1  6
 18 20  1  0
 20 21  1  1
 20 22  1  0
 22 23  1  0
 23 24  1  0
 24 25  2  0
 24 26  1  1
 24 27  1  0
 28 29  1  0
 29 30  2  0
 30 31  1  0
M  END
