
     RDKit          3D

 31 32  0  0  0  0  0  0  0  0999 V2000
    7.9710    0.3850    1.9790 C   0  0  0  0  0  0  0  0  0  0  0  0
    6.4900    0.2440    1.8440 C   0  0  0  0  0  0  0  0  0  0  0  0
    5.9700   -0.0070    0.6320 C   0  0  0  0  0  0  0  0  0  0  0  0
    6.8430   -0.1320   -0.4880 C   0  0  0  0  0  0  0  0  0  0  0  0
    6.5690   -0.3680   -1.7270 C   0  0  0  0  0  0  0  0  0  0  0  0
    7.6100   -0.4500   -2.6800 O   0  0  0  0  0  0  0  0  0  0  0  0
    9.0470    0.5250   -2.5700 P   0  0  0  0  0  0  0  0  0  0  0  0
    8.8380    1.8910   -1.5250 O   0  0  0  0  0  0  0  0  0  0  0  0
   10.4530   -0.3750   -2.1510 O   0  0  0  0  0  0  0  0  0  0  0  0
    4.5660   -0.1540    0.4080 C   0  0  0  0  0  0  0  0  0  0  0  0
    4.0390   -0.3860   -0.6890 O   0  0  0  0  0  0  0  0  0  0  0  0
    3.6720   -0.0430    1.4290 N   0  0  0  0  0  0  0  0  0  0  0  0
    2.3300   -0.1260    1.4680 C   0  0  0  0  0  0  0  0  0  0  0  0
    2.2290    0.1120    2.8360 O   0  0  0  0  0  0  0  0  0  0  0  0
    1.0180   -0.2480    1.2790 N   0  0  0  0  0  0  0  0  0  0  0  0
    0.3100   -0.5110    0.1610 C   0  0  0  0  0  0  0  0  0  0  0  0
    0.9830   -0.6500   -0.8730 O   0  0  0  0  0  0  0  0  0  0  0  0
   -1.1200   -0.6070    0.2600 C   0  0  0  0  0  0  0  0  0  0  0  0
   -1.7060   -0.4410    1.3500 O   0  0  0  0  0  0  0  0  0  0  0  0
   -1.8030   -0.8870   -0.8910 O   0  0  0  0  0  0  0  0  0  0  0  0
   -3.1950   -1.0040   -0.9340 C   0  0  0  0  0  0  0  0  0  0  0  0
   -3.8340    0.2790   -0.5420 C   0  0  0  0  0  0  0  0  0  0  0  0
   -5.2770    0.2370   -0.5620 N   0  0  0  0  0  0  0  0  0  0  0  0
   -6.0940   -0.1300    0.5630 C   0  0  0  0  0  0  0  0  0  0  0  0
   -7.3740   -0.7920    0.1560 C   0  0  1  0  0  0  0  0  0  0  0  0
   -8.5480    0.1860    0.1700 C   0  0  0  0  0  0  0  0  0  0  0  0
   -8.2920    0.9750   -1.0920 C   0  0  0  0  0  0  0  0  0  0  0  0
   -7.3490    0.0890   -1.9090 C   0  0  2  0  0  0  0  0  0  0  0  0
   -7.3890   -1.2060   -1.2360 N   0  0  0  0  0  0  0  0  0  0  0  0
   -5.9430    0.5790   -1.7670 C   0  0  0  0  0  0  0  0  0  0  0  0
   -5.3890    1.2610   -2.6770 O   0  0  0  0  0  0  0  0  0  0  0  0
  1  2  1  0
  2  3  2  3
  3  4  1  0
  3 10  1  0
  4  5  2  3
  5  6  1  0
  6  7  1  0
  7  8  1  0
  7  9  1  0
 10 11  2  0
 10 12  1  0
 12 13  1  0
 13 14  2  0
 13 15  1  0
 15 16  1  0
 16 17  2  0
 16 18  1  0
 18 19  2  0
 18 20  1  0
 20 21  1  0
 21 22  1  0
 22 23  1  0
 23 24  1  0
 23 30  1  0
 25 24  1  6
 25 26  1  0
 25 29  1  0
 26 27  1  0
 28 27  1  1
 28 29  1  0
 28 30  1  0
 30 31  2  0
M  END
