
     RDKit          3D

 30 32  0  0  0  0  0  0  0  0999 V2000
   -4.1190   -5.3300   -1.4950 O   0  0  0  0  0  0  0  0  0  0  0  0
   -3.3120   -4.7070   -2.2420 C   0  0  0  0  0  0  0  0  0  0  0  0
   -2.9610   -5.2330   -3.4720 O   0  0  0  0  0  0  0  0  0  0  0  0
   -2.8070   -3.4830   -1.7610 N   0  0  0  0  0  0  0  0  0  0  0  0
   -3.5360   -2.5880   -1.2260 C   0  0  0  0  0  0  0  0  0  0  0  0
   -4.8960   -2.7580   -1.0780 O   0  0  0  0  0  0  0  0  0  0  0  0
   -5.7190   -1.8630   -0.3820 C   0  0  0  0  0  0  0  0  0  0  0  0
   -4.9550   -0.9760    0.5650 C   0  0  0  0  0  0  0  0  0  0  0  0
   -3.8310   -0.4070   -0.1690 N   0  0  0  0  0  0  0  0  0  0  0  0
   -2.9160   -1.3340   -0.7500 C   0  0  0  0  0  0  0  0  0  0  0  0
   -1.6390   -1.1630   -0.8890 C   0  0  0  0  0  0  0  0  0  0  0  0
   -0.8510   -0.0030   -0.4830 C   0  0  0  0  0  0  0  0  0  0  0  0
   -1.4390    0.9480    0.0660 N   0  0  0  0  0  0  0  0  0  0  0  0
   -1.0580    2.1240    0.5520 O   0  0  0  0  0  0  0  0  0  0  0  0
   -1.5470    3.3860    0.1500 C   0  0  0  0  0  0  0  0  0  0  0  0
   -0.9070    4.4550    0.9750 C   0  0  2  0  0  0  0  0  0  0  0  0
    0.5790    4.5930    0.9310 C   0  0  0  0  0  0  0  0  0  0  0  0
    0.0080    3.9760    2.1470 C   0  0  0  0  0  0  0  0  0  0  0  0
    0.6240   -0.0580   -0.7650 C   0  0  1  0  0  0  0  0  0  0  0  0
    1.3400    1.1880   -0.3670 C   0  0  0  0  0  0  0  0  0  0  0  0
    2.6950    1.0070   -0.6620 O   0  0  0  0  0  0  0  0  0  0  0  0
    3.4030    0.5430    0.4430 C   0  0  0  0  0  0  0  0  0  0  0  0
    3.6990   -0.9260    0.1420 C   0  0  1  0  0  0  0  0  0  0  0  0
    4.8200   -1.4460    0.9760 C   0  0  0  0  0  0  0  0  0  0  0  0
    6.3340   -0.4330    0.6020 P   0  0  0  0  0  0  0  0  0  0  0  0
    6.1260    0.5730   -0.7720 O   0  0  0  0  0  0  0  0  0  0  0  0
    6.8540    0.4790    1.9830 O   0  0  0  0  0  0  0  0  0  0  0  0
    2.4320   -1.6530    0.3060 C   0  0  0  0  0  0  0  0  0  0  0  0
    2.4740   -2.7600    0.9230 O   0  0  0  0  0  0  0  0  0  0  0  0
    1.1560   -1.2390   -0.1610 N   0  0  0  0  0  0  0  0  0  0  0  0
  1  2  2  0
  2  3  1  0
  2  4  1  0
  4  5  2  3
  5  6  1  0
  5 10  1  0
  6  7  1  0
  7  8  1  0
  8  9  1  0
  9 10  1  0
 10 11  2  3
 11 12  1  0
 12 13  2  3
 19 12  1  1
 13 14  1  0
 14 15  1  0
 16 15  1  6
 16 17  1  0
 16 18  1  0
 17 18  1  0
 19 20  1  0
 19 30  1  0
 20 21  1  0
 21 22  1  0
 22 23  1  0
 23 24  1  1
 23 28  1  0
 24 25  1  0
 25 26  1  0
 25 27  1  0
 28 29  2  0
 28 30  1  0
M  END
