
     RDKit          3D

 31 33  0  0  0  0  0  0  0  0999 V2000
   -9.5420    2.6310    0.2970 N   0  0  0  0  0  0  0  0  0  0  0  0
   -8.1870    2.2190    0.4950 C   0  0  0  0  0  0  0  0  0  0  0  0
   -7.4070    3.0440    1.0360 O   0  0  0  0  0  0  0  0  0  0  0  0
   -7.7070    0.9460    0.1130 N   0  0  0  0  0  0  0  0  0  0  0  0
   -6.3160    0.6430    0.3640 C   0  0  2  0  0  0  0  0  0  0  0  0
   -5.6870   -0.0240   -0.8520 C   0  0  0  0  0  0  0  0  0  0  0  0
   -4.9370   -0.8230    0.0790 N   0  0  0  0  0  0  0  0  0  0  0  0
   -3.6700   -1.4240    0.1040 C   0  0  0  0  0  0  0  0  0  0  0  0
   -2.9040   -1.3030   -0.8860 O   0  0  0  0  0  0  0  0  0  0  0  0
   -3.1860   -2.1660    1.1730 O   0  0  0  0  0  0  0  0  0  0  0  0
   -1.8800   -2.7590    1.1420 C   0  0  0  0  0  0  0  0  0  0  0  0
   -0.8930   -1.7730    0.9860 O   0  0  0  0  0  0  0  0  0  0  0  0
    0.4250   -2.1360    0.9330 C   0  0  0  0  0  0  0  0  0  0  0  0
    0.7230   -3.3620    1.0260 O   0  0  0  0  0  0  0  0  0  0  0  0
    1.5460   -1.1830    0.7710 C   0  0  2  0  0  0  0  0  0  0  0  0
    1.4360   -0.3880   -0.5260 C   0  0  0  0  0  0  0  0  0  0  0  0
    2.9020    0.1220   -0.6630 C   0  0  0  0  0  0  0  0  0  0  0  0
    3.7090   -0.7860    0.0650 N   0  0  0  0  0  0  0  0  0  0  0  0
    5.0840   -0.7860    0.3680 C   0  0  0  0  0  0  0  0  0  0  0  0
    5.5350   -1.7650    1.1160 O   0  0  0  0  0  0  0  0  0  0  0  0
    6.1160    0.1490   -0.0250 C   0  0  0  0  0  0  0  0  0  0  0  0
    5.9040    1.1970   -0.7910 C   0  0  0  0  0  0  0  0  0  0  0  0
    6.9650    2.1440   -1.1830 C   0  0  1  0  0  0  0  0  0  0  0  0
    7.0720    2.1710   -2.5890 O   0  0  0  0  0  0  0  0  0  0  0  0
    6.5450    3.8820   -0.6030 P   0  0  0  0  0  0  0  0  0  0  0  0
    5.2130    4.1060    0.1670 O   0  0  0  0  0  0  0  0  0  0  0  0
    8.2190    1.8470   -0.6830 O   0  0  0  0  0  0  0  0  0  0  0  0
    8.4540    0.7640    0.1130 C   0  0  0  0  0  0  0  0  0  0  0  0
    7.4920   -0.0580    0.4440 C   0  0  0  0  0  0  0  0  0  0  0  0
    2.8520   -1.8850    0.5080 C   0  0  0  0  0  0  0  0  0  0  0  0
   -6.0650   -0.7290    0.9700 C   0  0  0  0  0  0  0  0  0  0  0  0
  1  2  1  0
  2  3  2  0
  2  4  1  0
  5  4  1  6
  5  6  1  0
  5 31  1  0
  6  7  1  0
  7  8  1  0
  7 31  1  0
  8  9  2  0
  8 10  1  0
 10 11  1  0
 11 12  1  0
 12 13  1  0
 13 14  2  0
 15 13  1  6
 15 16  1  0
 15 30  1  0
 16 17  1  0
 17 18  1  0
 18 19  1  0
 18 30  1  0
 19 20  2  0
 19 21  1  0
 21 22  2  0
 21 29  1  0
 22 23  1  0
 23 24  1  6
 23 25  1  0
 23 27  1  0
 25 26  2  0
 27 28  1  0
 28 29  2  0
M  END
