
     RDKit          3D

 30 32  0  0  0  0  0  0  0  0999 V2000
    0.4840   -3.6440    1.3880 C   0  0  0  0  0  0  0  0  0  0  0  0
    0.4350   -2.3990    0.7510 O   0  0  0  0  0  0  0  0  0  0  0  0
   -0.3360   -1.3300    1.1350 C   0  0  0  0  0  0  0  0  0  0  0  0
   -1.0700   -1.4610    2.1450 O   0  0  0  0  0  0  0  0  0  0  0  0
   -0.3530   -0.0250    0.4240 C   0  0  2  0  0  0  0  0  0  0  0  0
    1.0190    0.5480    0.4420 C   0  0  0  0  0  0  0  0  0  0  0  0
    2.1670   -0.1000    0.1850 N   0  0  0  0  0  0  0  0  0  0  0  0
    3.1910    0.7620    0.3030 C   0  0  0  0  0  0  0  0  0  0  0  0
    4.6220    0.5840    0.1350 C   0  0  0  0  0  0  0  0  0  0  0  0
    5.0550   -0.6900   -0.2100 C   0  0  0  0  0  0  0  0  0  0  0  0
    6.4080   -0.8910   -0.3770 C   0  0  0  0  0  0  0  0  0  0  0  0
    7.2830    0.1450   -0.2040 C   0  0  0  0  0  0  0  0  0  0  0  0
    8.6380   -0.1250   -0.3880 O   0  0  0  0  0  0  0  0  0  0  0  0
    6.8270    1.4010    0.1380 C   0  0  0  0  0  0  0  0  0  0  0  0
    5.4900    1.5920    0.3010 N   0  0  0  0  0  0  0  0  0  0  0  0
    2.6060    1.9270    0.6350 N   0  0  0  0  0  0  0  0  0  0  0  0
    1.3100    1.7940    0.7160 O   0  0  0  0  0  0  0  0  0  0  0  0
   -1.3490    0.9120    1.0560 C   0  0  0  0  0  0  0  0  0  0  0  0
   -2.5760    0.8140    0.3230 N   0  0  0  0  0  0  0  0  0  0  0  0
   -3.6560    0.5790    1.2310 C   0  0  0  0  0  0  0  0  0  0  0  0
   -4.9950    0.4640    0.5250 C   0  0  1  0  0  0  0  0  0  0  0  0
   -5.9480    0.2370    1.5230 O   0  0  0  0  0  0  0  0  0  0  0  0
   -5.4360    2.0650   -0.3080 P   0  0  0  0  0  0  0  0  0  0  0  0
   -7.1590    2.2450   -0.2170 O   0  0  0  0  0  0  0  0  0  0  0  0
   -4.7120    3.4140    0.5150 O   0  0  0  0  0  0  0  0  0  0  0  0
   -2.3980   -0.1940   -0.6890 C   0  0  0  0  0  0  0  0  0  0  0  0
   -0.8830   -0.2070   -0.9530 C   0  0  1  0  0  0  0  0  0  0  0  0
   -0.5940    0.9270   -1.8880 C   0  0  0  0  0  0  0  0  0  0  0  0
   -0.4840   -1.5040   -1.6200 C   0  0  0  0  0  0  0  0  0  0  0  0
   -1.0780   -1.4860   -2.9050 O   0  0  0  0  0  0  0  0  0  0  0  0
  1  2  1  0
  2  3  1  0
  3  4  2  0
  5  3  1  1
  5  6  1  0
  5 18  1  0
  5 27  1  0
  6  7  2  0
  6 17  1  0
  7  8  1  0
  8  9  1  0
  8 16  2  0
  9 10  2  0
  9 15  1  0
 10 11  1  0
 11 12  2  0
 12 13  1  0
 12 14  1  0
 14 15  2  0
 16 17  1  0
 18 19  1  0
 19 20  1  0
 19 26  1  0
 20 21  1  0
 21 22  1  1
 21 23  1  0
 23 24  1  0
 23 25  1  0
 26 27  1  0
 27 28  1  6
 27 29  1  0
 29 30  1  0
M  END
