
     RDKit          3D

 31 33  0  0  0  0  0  0  0  0999 V2000
    4.7270    0.0970    3.0280 C   0  0  0  0  0  0  0  0  0  0  0  0
    5.1010   -0.1490    1.6690 C   0  0  0  0  0  0  0  0  0  0  0  0
    4.1820   -0.2410    0.6510 C   0  0  0  0  0  0  0  0  0  0  0  0
    2.8100   -0.0780    1.0180 C   0  0  0  0  0  0  0  0  0  0  0  0
    2.5290    0.1420    2.2670 O   0  0  0  0  0  0  0  0  0  0  0  0
    1.6760   -0.1220    0.2020 N   0  0  0  0  0  0  0  0  0  0  0  0
    0.3560    0.0640    0.7410 C   0  0  0  0  0  0  0  0  0  0  0  0
   -0.6680    0.0100   -0.0870 C   0  0  0  0  0  0  0  0  0  0  0  0
   -0.6400   -0.2140   -1.4790 O   0  0  0  0  0  0  0  0  0  0  0  0
   -1.9870   -0.0680   -1.9750 C   0  0  0  0  0  0  0  0  0  0  0  0
   -2.7620   -0.6160   -0.8090 C   0  0  2  0  0  0  0  0  0  0  0  0
   -4.1940   -0.4590   -0.8020 C   0  0  0  0  0  0  0  0  0  0  0  0
   -4.8550   -0.8510   -1.8010 O   0  0  0  0  0  0  0  0  0  0  0  0
   -4.9070    0.1230    0.2910 N   0  0  0  0  0  0  0  0  0  0  0  0
   -6.3580    0.0720    0.2750 C   0  0  1  0  0  0  0  0  0  0  0  0
   -6.9330    0.6540   -0.9420 C   0  0  0  0  0  0  0  0  0  0  0  0
   -7.6380   -0.1950   -1.6070 N   0  0  0  0  0  0  0  0  0  0  0  0
   -7.6370   -1.4400   -0.9470 N   0  0  0  0  0  0  0  0  0  0  0  0
   -6.8520   -1.3270    0.2350 C   0  0  0  0  0  0  0  0  0  0  0  0
   -6.6470   -2.2630    1.0550 O   0  0  0  0  0  0  0  0  0  0  0  0
   -4.1980    0.7290    1.3500 C   0  0  0  0  0  0  0  0  0  0  0  0
   -4.8010    1.2600    2.3320 O   0  0  0  0  0  0  0  0  0  0  0  0
   -2.7260    0.7240    1.2780 C   0  0  0  0  0  0  0  0  0  0  0  0
   -2.0750    0.1780    0.2910 C   0  0  0  0  0  0  0  0  0  0  0  0
    4.7070   -0.4890   -0.6510 C   0  0  0  0  0  0  0  0  0  0  0  0
    4.1750   -0.6330   -1.8070 C   0  0  0  0  0  0  0  0  0  0  0  0
    5.0480   -0.8800   -2.9410 O   0  0  0  0  0  0  0  0  0  0  0  0
    6.1790   -0.5970   -0.6260 O   0  0  0  0  0  0  0  0  0  0  0  0
    7.0900    0.7960   -1.1820 P   0  0  0  0  0  0  0  0  0  0  0  0
    7.9350    1.5330    0.1370 O   0  0  0  0  0  0  0  0  0  0  0  0
    6.0390    1.9520   -1.9510 O   0  0  0  0  0  0  0  0  0  0  0  0
  1  2  1  0
  2  3  2  3
  3  4  1  0
  3 25  1  0
  4  5  2  0
  4  6  1  0
  6  7  1  0
  7  8  2  3
  8  9  1  0
  8 24  1  0
  9 10  1  0
 11 10  1  6
 11 12  1  0
 11 24  1  0
 12 13  2  0
 12 14  1  0
 15 14  1  6
 14 21  1  0
 15 16  1  0
 15 19  1  0
 16 17  2  0
 17 18  1  0
 18 19  1  0
 19 20  2  0
 21 22  2  0
 21 23  1  0
 23 24  2  0
 25 26  2  3
 25 28  1  0
 26 27  1  0
 28 29  1  0
 29 30  1  0
 29 31  1  0
M  END
