
     RDKit          3D

 31 33  0  0  0  0  0  0  0  0999 V2000
   -1.5140   -2.5880   -0.3260 O   0  0  0  0  0  0  0  0  0  0  0  0
   -2.1010   -1.4910   -0.1400 C   0  0  0  0  0  0  0  0  0  0  0  0
   -3.3790   -1.4760    0.5050 N   0  0  0  0  0  0  0  0  0  0  0  0
   -3.9300   -2.7540    0.9150 C   0  0  0  0  0  0  0  0  0  0  0  0
   -5.2780   -2.5600    1.5780 C   0  0  0  0  0  0  0  0  0  0  0  0
   -5.7880   -3.7860    1.9620 O   0  0  0  0  0  0  0  0  0  0  0  0
   -1.4770   -0.2550   -0.5830 C   0  0  0  0  0  0  0  0  0  0  0  0
   -0.2790   -0.3040   -1.1840 C   0  0  0  0  0  0  0  0  0  0  0  0
    0.3640   -1.4900   -1.3890 N   0  0  0  0  0  0  0  0  0  0  0  0
    1.4140   -2.0730   -1.0440 C   0  0  0  0  0  0  0  0  0  0  0  0
    1.6520   -3.3420   -1.5390 N   0  0  0  0  0  0  0  0  0  0  0  0
    2.7460   -4.0070   -1.2440 C   0  0  0  0  0  0  0  0  0  0  0  0
    3.6620   -3.4410   -0.4380 N   0  0  0  0  0  0  0  0  0  0  0  0
    3.5070   -2.2250    0.0790 C   0  0  0  0  0  0  0  0  0  0  0  0
    2.3460   -1.4900   -0.2180 C   0  0  0  0  0  0  0  0  0  0  0  0
    2.1630   -0.2020    0.4350 C   0  0  0  0  0  0  0  0  0  0  0  0
    1.1380    0.0230    1.1570 O   0  0  0  0  0  0  0  0  0  0  0  0
    3.1560    0.8790    0.2820 C   0  0  0  0  0  0  0  0  0  0  0  0
    4.2040    0.6900   -0.4840 C   0  0  0  0  0  0  0  0  0  0  0  0
    5.2300    1.7270   -0.6760 C   0  0  0  0  0  0  0  0  0  0  0  0
    4.9430    2.8880    0.0390 O   0  0  0  0  0  0  0  0  0  0  0  0
    3.8450    3.1010    0.8480 C   0  0  0  0  0  0  0  0  0  0  0  0
    2.9550    2.1440    0.9890 C   0  0  0  0  0  0  0  0  0  0  0  0
    0.3480    0.8820   -1.6270 O   0  0  0  0  0  0  0  0  0  0  0  0
   -0.1380    2.1300   -1.2530 C   0  0  0  0  0  0  0  0  0  0  0  0
   -1.6270    2.1640   -0.9800 C   0  0  1  0  0  0  0  0  0  0  0  0
   -2.3340    2.4980   -2.1330 O   0  0  0  0  0  0  0  0  0  0  0  0
   -3.1940    4.0030   -1.9320 P   0  0  0  0  0  0  0  0  0  0  0  0
   -4.7660    3.7150   -1.2480 O   0  0  0  0  0  0  0  0  0  0  0  0
   -2.3140    5.1010   -0.9150 O   0  0  0  0  0  0  0  0  0  0  0  0
   -2.0750    0.9520   -0.4030 O   0  0  0  0  0  0  0  0  0  0  0  0
  1  2  2  0
  2  3  1  0
  2  7  1  0
  3  4  1  0
  4  5  1  0
  5  6  1  0
  7  8  2  0
  7 31  1  0
  8  9  1  0
  8 24  1  0
  9 10  2  3
 10 11  1  0
 10 15  1  0
 11 12  2  0
 12 13  1  0
 13 14  1  0
 14 15  2  0
 15 16  1  0
 16 17  2  0
 16 18  1  0
 18 19  2  0
 18 23  1  0
 19 20  1  0
 20 21  1  0
 21 22  1  0
 22 23  2  0
 24 25  1  0
 25 26  1  0
 26 27  1  6
 26 31  1  0
 27 28  1  0
 28 29  1  0
 28 30  1  0
M  END
