
     RDKit          3D

 30 32  0  0  0  0  0  0  0  0999 V2000
   -6.5070   -1.4800   -1.9580 O   0  0  0  0  0  0  0  0  0  0  0  0
   -5.5440   -1.1210   -1.2030 C   0  0  0  0  0  0  0  0  0  0  0  0
   -4.5270   -2.0440   -0.8340 N   0  0  0  0  0  0  0  0  0  0  0  0
   -3.2510   -1.5420   -0.5140 C   0  0  0  0  0  0  0  0  0  0  0  0
   -2.3690   -2.3230   -0.0750 O   0  0  0  0  0  0  0  0  0  0  0  0
   -2.9780   -0.0790   -0.7070 C   0  0  2  0  0  0  0  0  0  0  0  0
   -1.7810    0.2940    0.1120 C   0  0  0  0  0  0  0  0  0  0  0  0
   -2.0350    0.8510    1.2050 O   0  0  0  0  0  0  0  0  0  0  0  0
   -0.4680    0.0590   -0.2720 N   0  0  0  0  0  0  0  0  0  0  0  0
   -0.1020   -0.5440   -1.5440 C   0  0  0  0  0  0  0  0  0  0  0  0
    0.9080    0.3370   -2.2590 C   0  0  0  0  0  0  0  0  0  0  0  0
    1.8300    0.8990   -1.3930 O   0  0  0  0  0  0  0  0  0  0  0  0
    1.3120    1.5440   -0.2920 C   0  0  0  0  0  0  0  0  0  0  0  0
    0.6530    0.4230    0.5550 C   0  0  1  0  0  0  0  0  0  0  0  0
    0.3750    0.8320    1.9440 C   0  0  0  0  0  0  0  0  0  0  0  0
   -0.2350   -0.2060    2.6450 O   0  0  0  0  0  0  0  0  0  0  0  0
    1.6860   -0.7240    0.5110 C   0  0  0  0  0  0  0  0  0  0  0  0
    2.8010   -0.4190    1.3480 N   0  0  0  0  0  0  0  0  0  0  0  0
    3.8710   -1.3730    1.3220 C   0  0  0  0  0  0  0  0  0  0  0  0
    4.6360   -1.3670    0.0080 C   0  0  0  0  0  0  0  0  0  0  0  0
    5.2480    0.0120   -0.2350 C   0  0  0  0  0  0  0  0  0  0  0  0
    6.1750   -0.0910   -1.8460 P   0  0  0  0  0  0  0  0  0  0  0  0
    7.4390   -1.2960   -1.6960 O   0  0  0  0  0  0  0  0  0  0  0  0
    6.9130    1.4360   -2.2270 O   0  0  0  0  0  0  0  0  0  0  0  0
   -4.1280    0.6510   -0.2670 N   0  0  0  0  0  0  0  0  0  0  0  0
   -4.3460    1.8180    0.5630 C   0  0  0  0  0  0  0  0  0  0  0  0
   -3.6010    2.8050    0.7180 O   0  0  0  0  0  0  0  0  0  0  0  0
   -5.6600    1.6270    1.2160 C   0  0  0  0  0  0  0  0  0  0  0  0
   -6.2530    0.3670    0.5920 C   0  0  0  0  0  0  0  0  0  0  0  0
   -5.4590    0.2400   -0.6960 C   0  0  2  0  0  0  0  0  0  0  0  0
  1  2  2  0
  2  3  1  0
  2 30  1  0
  3  4  1  0
  4  5  2  0
  4  6  1  0
  6  7  1  1
  6 25  1  0
  7  8  2  0
  7  9  1  0
  9 10  1  0
  9 14  1  0
 10 11  1  0
 11 12  1  0
 12 13  1  0
 13 14  1  0
 14 15  1  1
 14 17  1  0
 15 16  1  0
 17 18  1  0
 18 19  1  0
 19 20  1  0
 20 21  1  0
 21 22  1  0
 22 23  1  0
 22 24  1  0
 25 26  1  0
 25 30  1  0
 26 27  2  0
 26 28  1  0
 28 29  1  0
 30 29  1  1
M  END
