
     RDKit          3D

 31 33  0  0  0  0  0  0  0  0999 V2000
   -1.5860   -1.7490    4.5160 O   0  0  0  0  0  0  0  0  0  0  0  0
   -2.6770   -1.1090    4.4500 C   0  0  0  0  0  0  0  0  0  0  0  0
   -3.1620   -0.6630    3.1570 C   0  0  0  0  0  0  0  0  0  0  0  0
   -2.4690   -0.9210    2.0540 C   0  0  0  0  0  0  0  0  0  0  0  0
   -2.9540   -0.4770    0.7830 C   0  0  0  0  0  0  0  0  0  0  0  0
   -2.3190   -0.7020   -0.3400 C   0  0  0  0  0  0  0  0  0  0  0  0
   -2.7940   -0.2580   -1.6500 C   0  0  0  0  0  0  0  0  0  0  0  0
   -3.7880    0.5930   -1.8740 C   0  0  0  0  0  0  0  0  0  0  0  0
   -4.2090    0.9910   -3.1850 C   0  0  0  0  0  0  0  0  0  0  0  0
   -3.7690    0.6530   -4.3470 N   0  0  0  0  0  0  0  0  0  0  0  0
   -4.4320    1.2480   -5.3660 O   0  0  0  0  0  0  0  0  0  0  0  0
   -5.3110    2.2150   -4.8020 C   0  0  0  0  0  0  0  0  0  0  0  0
   -5.2470    1.8810   -3.4490 O   0  0  0  0  0  0  0  0  0  0  0  0
   -1.9810   -0.9160   -2.6080 N   0  0  0  0  0  0  0  0  0  0  0  0
   -1.0190   -1.7510   -1.9780 C   0  0  0  0  0  0  0  0  0  0  0  0
   -0.2600   -2.6180   -2.4860 O   0  0  0  0  0  0  0  0  0  0  0  0
   -1.0660   -1.4060   -0.5360 C   0  0  1  0  0  0  0  0  0  0  0  0
    0.0810   -0.4980   -0.1430 C   0  0  0  0  0  0  0  0  0  0  0  0
    1.1720   -1.4650   -0.0650 N   0  0  0  0  0  0  0  0  0  0  0  0
    2.5350   -1.2020   -0.4030 C   0  0  0  0  0  0  0  0  0  0  0  0
    3.2550   -0.7260    0.8000 C   0  0  0  0  0  0  0  0  0  0  0  0
    2.6290   -0.6200    1.8830 O   0  0  0  0  0  0  0  0  0  0  0  0
    4.6320   -0.4080    0.6690 N   0  0  0  0  0  0  0  0  0  0  0  0
    5.3460    0.0590    1.8300 C   0  0  0  0  0  0  0  0  0  0  0  0
    4.7660    1.3210    2.3870 C   0  0  0  0  0  0  0  0  0  0  0  0
    4.8510    2.6370    1.0530 P   0  0  0  0  0  0  0  0  0  0  0  0
    5.2650    1.9250   -0.4540 O   0  0  0  0  0  0  0  0  0  0  0  0
    3.3370    3.4890    0.9650 O   0  0  0  0  0  0  0  0  0  0  0  0
    0.5310   -2.6520    0.4060 C   0  0  0  0  0  0  0  0  0  0  0  0
    1.1820   -3.6470    0.8670 O   0  0  0  0  0  0  0  0  0  0  0  0
   -0.8480   -2.5340    0.2780 O   0  0  0  0  0  0  0  0  0  0  0  0
  1  2  2  0
  2  3  1  0
  3  4  2  3
  4  5  1  0
  5  6  2  3
  6  7  1  0
  6 17  1  0
  7  8  2  3
  7 14  1  0
  8  9  1  0
  9 10  2  0
  9 13  1  0
 10 11  1  0
 11 12  1  0
 12 13  1  0
 14 15  1  0
 15 16  2  0
 15 17  1  0
 17 18  1  6
 17 31  1  0
 18 19  1  0
 19 20  1  0
 19 29  1  0
 20 21  1  0
 21 22  2  0
 21 23  1  0
 23 24  1  0
 24 25  1  0
 25 26  1  0
 26 27  1  0
 26 28  1  0
 29 30  2  0
 29 31  1  0
M  END
