
     RDKit          3D

 34 34  0  0  0  0  0  0  0  0999 V2000
   -8.6660    0.1030    0.9700 C   0  0  0  0  0  0  0  0  0  0  0  0
   -7.2960   -0.2210    0.7640 O   0  0  0  0  0  0  0  0  0  0  0  0
   -6.5610   -0.6420    1.8570 C   0  0  0  0  0  0  0  0  0  0  0  0
   -7.0870   -0.7500    3.0760 N   0  0  0  0  0  0  0  0  0  0  0  0
   -6.3770   -1.1580    4.1340 C   0  0  0  0  0  0  0  0  0  0  0  0
   -5.0380   -1.4840    3.9640 C   0  0  0  0  0  0  0  0  0  0  0  0
   -4.4520   -1.3850    2.7080 C   0  0  0  0  0  0  0  0  0  0  0  0
   -5.2140   -0.9610    1.6460 C   0  0  0  0  0  0  0  0  0  0  0  0
   -4.7130   -0.8860    0.2680 C   0  0  0  0  0  0  0  0  0  0  0  0
   -3.3680   -1.1240    0.1640 O   0  0  0  0  0  0  0  0  0  0  0  0
   -2.6060   -0.0450    0.6860 C   0  0  0  0  0  0  0  0  0  0  0  0
   -1.2260   -0.4760    0.6180 C   0  0  0  0  0  0  0  0  0  0  0  0
   -0.9270   -1.6570    1.3570 O   0  0  0  0  0  0  0  0  0  0  0  0
   -0.2170    0.0960   -0.0480 C   0  0  0  0  0  0  0  0  0  0  0  0
   -0.4620    1.2770   -0.7980 C   0  0  0  0  0  0  0  0  0  0  0  0
    0.0550    2.1700   -1.5370 C   0  0  0  0  0  0  0  0  0  0  0  0
   -0.9680    3.1820   -1.9890 N   0  0  0  0  0  0  0  0  0  0  0  0
    1.3770    2.4260   -1.9810 C   0  0  0  0  0  0  0  0  0  0  0  0
    1.5270    3.5930   -2.8650 N   0  0  0  0  0  0  0  0  0  0  0  0
    2.4220    1.8360   -1.7520 O   0  0  0  0  0  0  0  0  0  0  0  0
    1.0300   -0.6410    0.0810 C   0  0  0  0  0  0  0  0  0  0  0  0
    1.0450   -1.7250    0.8000 O   0  0  0  0  0  0  0  0  0  0  0  0
    2.2320   -0.3820   -0.4440 O   0  0  0  0  0  0  0  0  0  0  0  0
    3.4300   -1.1070   -0.3180 C   0  0  1  0  0  0  0  0  0  0  0  0
    3.7540   -1.8470   -1.5970 C   0  0  0  0  0  0  0  0  0  0  0  0
    3.8640   -0.8670   -3.0580 S   0  0  0  0  0  0  0  0  0  0  0  0
    5.1140    0.3750   -3.1450 C   0  0  0  0  0  0  0  0  0  0  0  0
    4.5250   -0.4840    0.3880 C   0  0  0  0  0  0  0  0  0  0  0  0
    4.5680    0.7580    0.5720 O   0  0  0  0  0  0  0  0  0  0  0  0
    5.5930   -1.1970    0.9260 O   0  0  0  0  0  0  0  0  0  0  0  0
    6.6610   -0.6420    1.6230 C   0  0  0  0  0  0  0  0  0  0  0  0
    7.4960    0.1670    0.7260 C   0  0  0  0  0  0  0  0  0  0  0  0
    7.2550    0.1210   -0.6610 N   0  0  0  0  0  0  0  0  0  0  0  0
    8.4040    0.8750    1.1880 O   0  0  0  0  0  0  0  0  0  0  0  0
  1  2  1  0
  2  3  1  0
  3  4  2  0
  3  8  1  0
  4  5  1  0
  5  6  2  0
  6  7  1  0
  7  8  2  0
  8  9  1  0
  9 10  1  0
 10 11  1  0
 11 12  1  0
 12 13  1  0
 12 14  2  3
 14 15  1  0
 14 21  1  0
 15 16  2  3
 16 17  1  0
 16 18  1  0
 18 19  1  0
 18 20  2  0
 21 22  2  0
 21 23  1  0
 23 24  1  0
 24 25  1  6
 24 28  1  0
 25 26  1  0
 26 27  1  0
 28 29  2  0
 28 30  1  0
 30 31  1  0
 31 32  1  0
 32 33  1  0
 32 34  2  0
M  END
