
     RDKit          3D

 33 33  0  0  0  0  0  0  0  0999 V2000
    2.2120   -3.1320   -0.9240 C   0  0  0  0  0  0  0  0  0  0  0  0
    1.7320   -2.2530    0.0690 O   0  0  0  0  0  0  0  0  0  0  0  0
    0.8200   -1.3410   -0.4240 C   0  0  2  0  0  0  0  0  0  0  0  0
    1.0160    0.0820   -0.0780 C   0  0  0  0  0  0  0  0  0  0  0  0
    2.2860    0.7250   -0.5130 C   0  0  0  0  0  0  0  0  0  0  0  0
    3.5500    0.1740    0.0360 C   0  0  0  0  0  0  0  0  0  0  0  0
    4.6970    0.8750   -0.4960 N   0  0  0  0  0  0  0  0  0  0  0  0
    4.8530    2.2550   -0.2560 C   0  0  0  0  0  0  0  0  0  0  0  0
    4.0430    2.9560    0.4200 O   0  0  0  0  0  0  0  0  0  0  0  0
    6.0010    2.9120   -0.8100 N   0  0  0  0  0  0  0  0  0  0  0  0
    6.2250    4.2930   -0.6060 C   0  0  0  0  0  0  0  0  0  0  0  0
    7.3530    4.9180   -1.1580 N   0  0  0  0  0  0  0  0  0  0  0  0
    5.1660    5.1520    0.2680 S   0  0  0  0  0  0  0  0  0  0  0  0
   -0.6010   -1.7510    0.0290 C   0  0  0  0  0  0  0  0  0  0  0  0
   -1.5530   -0.8660   -0.4090 O   0  0  0  0  0  0  0  0  0  0  0  0
   -2.8400   -1.2560   -0.1720 C   0  0  0  0  0  0  0  0  0  0  0  0
   -3.2360   -1.4930    1.2020 C   0  0  0  0  0  0  0  0  0  0  0  0
   -3.6590   -2.7150    1.5510 C   0  0  0  0  0  0  0  0  0  0  0  0
   -3.7590   -3.8460    0.6720 C   0  0  0  0  0  0  0  0  0  0  0  0
   -4.8420   -4.7470    0.7070 C   0  0  0  0  0  0  0  0  0  0  0  0
   -4.5900   -5.6800   -0.2580 C   0  0  0  0  0  0  0  0  0  0  0  0
   -3.4070   -5.3450   -0.8430 C   0  0  0  0  0  0  0  0  0  0  0  0
   -2.9620   -4.2630   -0.2600 O   0  0  0  0  0  0  0  0  0  0  0  0
   -3.2200   -0.4530    2.2180 C   0  0  0  0  0  0  0  0  0  0  0  0
   -3.6500   -0.7860    3.5400 O   0  0  0  0  0  0  0  0  0  0  0  0
   -2.8500    0.7430    2.0250 C   0  0  0  0  0  0  0  0  0  0  0  0
   -2.8880    1.6530    3.1180 O   0  0  0  0  0  0  0  0  0  0  0  0
   -2.4040    1.2750    0.8450 O   0  0  0  0  0  0  0  0  0  0  0  0
   -3.1190    2.2860    0.1430 C   0  0  0  0  0  0  0  0  0  0  0  0
   -2.3580    2.7230   -1.0760 C   0  0  0  0  0  0  0  0  0  0  0  0
   -1.0470    3.2870   -0.6250 C   0  0  0  0  0  0  0  0  0  0  0  0
   -0.1520    3.8020   -1.5890 N   0  0  0  0  0  0  0  0  0  0  0  0
   -0.7650    3.2950    0.6020 O   0  0  0  0  0  0  0  0  0  0  0  0
  1  2  1  0
  2  3  1  0
  3  4  1  1
  3 14  1  0
  4  5  1  0
  5  6  1  0
  6  7  1  0
  7  8  1  0
  8  9  2  0
  8 10  1  0
 10 11  1  0
 11 12  1  0
 11 13  2  0
 14 15  1  0
 15 16  1  0
 16 17  1  0
 17 18  2  3
 17 24  1  0
 18 19  1  0
 19 20  2  0
 19 23  1  0
 20 21  1  0
 21 22  2  0
 22 23  1  0
 24 25  1  0
 24 26  2  3
 26 27  1  0
 26 28  1  0
 28 29  1  0
 29 30  1  0
 30 31  1  0
 31 32  1  0
 31 33  2  0
M  END
