
     RDKit          3D

 34 35  0  0  0  0  0  0  0  0999 V2000
   -6.7000    2.6230   -0.7400 N   0  0  0  0  0  0  0  0  0  0  0  0
   -5.2580    2.7400   -0.7320 C   0  0  0  0  0  0  0  0  0  0  0  0
   -4.7900    3.4660   -1.6330 O   0  0  0  0  0  0  0  0  0  0  0  0
   -4.4550    2.0410    0.2790 C   0  0  0  0  0  0  0  0  0  0  0  0
   -3.0110    2.4020    0.3640 C   0  0  1  0  0  0  0  0  0  0  0  0
   -2.8320    3.8360    0.7520 C   0  0  0  0  0  0  0  0  0  0  0  0
   -3.2960    4.7090   -0.1920 O   0  0  0  0  0  0  0  0  0  0  0  0
   -2.4690    1.6190    1.3860 O   0  0  0  0  0  0  0  0  0  0  0  0
   -1.5000    0.7380    0.9400 C   0  0  2  0  0  0  0  0  0  0  0  0
   -1.8480   -0.5560    1.1930 O   0  0  0  0  0  0  0  0  0  0  0  0
   -2.2840   -1.2900    0.1320 C   0  0  2  0  0  0  0  0  0  0  0  0
   -3.6740   -1.8180    0.3180 C   0  0  0  0  0  0  0  0  0  0  0  0
   -4.2810   -2.6010   -0.6950 N   0  0  0  0  0  0  0  0  0  0  0  0
   -4.2490   -1.5340    1.3900 O   0  0  0  0  0  0  0  0  0  0  0  0
   -1.3940   -2.4950   -0.0330 C   0  0  1  0  0  0  0  0  0  0  0  0
   -2.1300   -3.7390    0.3020 C   0  0  0  0  0  0  0  0  0  0  0  0
   -2.1930   -4.8190   -0.6220 N   0  0  0  0  0  0  0  0  0  0  0  0
   -2.7190   -3.8840    1.4030 O   0  0  0  0  0  0  0  0  0  0  0  0
   -0.8240   -2.5580   -1.3010 O   0  0  0  0  0  0  0  0  0  0  0  0
    0.3730   -3.2610   -1.1780 C   0  0  0  0  0  0  0  0  0  0  0  0
    1.3990   -2.3130   -1.0870 O   0  0  0  0  0  0  0  0  0  0  0  0
    2.5660   -2.8800   -0.5790 C   0  0  0  0  0  0  0  0  0  0  0  0
    3.8150   -2.2170   -1.0700 C   0  0  0  0  0  0  0  0  0  0  0  0
    4.4610   -1.3400   -0.0220 C   0  0  0  0  0  0  0  0  0  0  0  0
    4.0070    0.0730   -0.2170 C   0  0  2  0  0  0  0  0  0  0  0  0
    5.1290    1.0820   -0.1450 C   0  0  1  0  0  0  0  0  0  0  0  0
    5.7820    1.2780   -1.4100 N   0  0  0  0  0  0  0  0  0  0  0  0
    4.3470    2.3300    0.2910 C   0  0  0  0  0  0  0  0  0  0  0  0
    3.5220    1.7400    1.4130 C   0  0  0  0  0  0  0  0  0  0  0  0
    2.9860    0.5040    0.8480 C   0  0  1  0  0  0  0  0  0  0  0  0
    1.7770    0.4730    0.2900 O   0  0  0  0  0  0  0  0  0  0  0  0
    0.8580    1.4250    0.4720 C   0  0  0  0  0  0  0  0  0  0  0  0
   -0.1440    1.0070    1.5280 C   0  0  2  0  0  0  0  0  0  0  0  0
    0.3260   -0.1730    2.1070 O   0  0  0  0  0  0  0  0  0  0  0  0
  1  2  1  0
  2  3  2  0
  2  4  1  0
  5  4  1  1
  5  6  1  0
  5  8  1  0
  6  7  1  0
  9  8  1  1
  9 10  1  0
  9 33  1  0
 10 11  1  0
 11 12  1  1
 11 15  1  0
 12 13  1  0
 12 14  2  0
 15 16  1  6
 15 19  1  0
 16 17  1  0
 16 18  2  0
 19 20  1  0
 20 21  1  0
 21 22  1  0
 22 23  1  0
 23 24  1  0
 25 24  1  1
 25 26  1  0
 25 30  1  0
 26 27  1  6
 26 28  1  0
 28 29  1  0
 30 29  1  6
 30 31  1  0
 31 32  1  0
 32 33  1  0
 33 34  1  6
M  CHG  1  27   1
M  END
