
     RDKit          3D

 33 35  0  0  0  0  0  0  0  0999 V2000
   -2.3810   -2.6910   -2.4610 C   0  0  0  0  0  0  0  0  0  0  0  0
   -2.0530   -2.0480   -1.1330 C   0  0  1  0  0  0  0  0  0  0  0  0
   -1.8070   -3.1090   -0.2530 O   0  0  0  0  0  0  0  0  0  0  0  0
   -0.8720   -1.0900   -1.2190 C   0  0  0  0  0  0  0  0  0  0  0  0
   -1.4450    0.2740   -0.8850 C   0  0  1  0  0  0  0  0  0  0  0  0
   -0.6450    0.9350   -0.0840 O   0  0  0  0  0  0  0  0  0  0  0  0
    0.5570    1.3840   -0.1330 C   0  0  0  0  0  0  0  0  0  0  0  0
    1.7610    0.4890   -0.1900 C   0  0  2  0  0  0  0  0  0  0  0  0
    1.8090   -0.3450    1.0600 C   0  0  0  0  0  0  0  0  0  0  0  0
    3.0380    0.0650    1.8430 C   0  0  1  0  0  0  0  0  0  0  0  0
    3.7080   -1.1420    2.4630 C   0  0  0  0  0  0  0  0  0  0  0  0
    2.7760   -1.8000    3.3630 N   0  0  0  0  0  0  0  0  0  0  0  0
    3.9380    0.7790    0.8670 C   0  0  1  0  0  0  0  0  0  0  0  0
    4.7030    1.7710    1.4990 O   0  0  0  0  0  0  0  0  0  0  0  0
    4.8270   -0.1610    0.1270 C   0  0  0  0  0  0  0  0  0  0  0  0
    5.7210    0.5410   -0.8390 C   0  0  0  0  0  0  0  0  0  0  0  0
    6.5080   -0.4390   -1.4710 O   0  0  0  0  0  0  0  0  0  0  0  0
    2.9690    1.4320   -0.0600 C   0  0  0  0  0  0  0  0  0  0  0  0
   -1.7570    0.8560   -2.2110 C   0  0  2  0  0  0  0  0  0  0  0  0
   -2.3150    2.0910   -2.3120 O   0  0  0  0  0  0  0  0  0  0  0  0
   -2.8280    2.1020   -3.6370 C   0  0  0  0  0  0  0  0  0  0  0  0
   -2.7920    0.7110   -4.0450 N   0  0  0  0  0  0  0  0  0  0  0  0
   -2.7010    0.0640   -2.8600 O   0  0  0  0  0  0  0  0  0  0  0  0
   -2.6310   -0.1750   -0.0560 C   0  0  1  0  0  0  0  0  0  0  0  0
   -2.0850   -0.6700    1.2640 C   0  0  0  0  0  0  0  0  0  0  0  0
   -3.0260   -1.3200    2.1080 N   0  0  0  0  0  0  0  0  0  0  0  0
   -3.7010    0.8010    0.2130 C   0  0  2  0  0  0  0  0  0  0  0  0
   -4.7980    0.1010    1.0020 C   0  0  0  0  0  0  0  0  0  0  0  0
   -4.3500    1.2550   -0.9420 O   0  0  0  0  0  0  0  0  0  0  0  0
   -3.3260    2.0060    0.9670 C   0  0  0  0  0  0  0  0  0  0  0  0
   -2.7480    2.0560    2.2600 N   0  0  0  0  0  0  0  0  0  0  0  0
   -3.5230    3.1440    0.4440 O   0  0  0  0  0  0  0  0  0  0  0  0
   -3.1200   -1.2930   -0.7270 O   0  0  0  0  0  0  0  0  0  0  0  0
  2  1  1  6
  2  3  1  0
  2  4  1  0
  2 33  1  0
  4  5  1  0
  5  6  1  1
  5 19  1  0
  5 24  1  0
  6  7  1  0
  8  7  1  1
  8  9  1  0
  8 18  1  0
  9 10  1  0
 10 11  1  6
 10 13  1  0
 11 12  1  0
 13 14  1  1
 13 15  1  0
 13 18  1  0
 15 16  1  0
 16 17  1  0
 19 20  1  1
 19 23  1  0
 20 21  1  0
 21 22  1  0
 22 23  1  0
 24 25  1  1
 24 27  1  0
 24 33  1  0
 25 26  1  0
 27 28  1  1
 27 29  1  0
 27 30  1  0
 30 31  1  0
 30 32  2  0
M  CHG  1  12   1
M  END
