
     RDKit          3D

 34 35  0  0  0  0  0  0  0  0999 V2000
   -2.1670    4.5610    0.4000 N   0  0  0  0  0  0  0  0  0  0  0  0
   -3.0920    3.9000   -0.1940 C   0  0  0  0  0  0  0  0  0  0  0  0
   -3.6130    4.3970   -1.4150 N   0  0  0  0  0  0  0  0  0  0  0  0
   -3.5800    2.6360    0.4260 C   0  0  2  0  0  0  0  0  0  0  0  0
   -2.9030    2.4000    1.5950 O   0  0  0  0  0  0  0  0  0  0  0  0
   -3.4320    1.4960   -0.5620 C   0  0  2  0  0  0  0  0  0  0  0  0
   -3.9420    0.2160   -0.1500 C   0  0  0  0  0  0  0  0  0  0  0  0
   -5.2480   -0.0750    0.4250 C   0  0  0  0  0  0  0  0  0  0  0  0
   -6.1740    0.7230    0.6330 O   0  0  0  0  0  0  0  0  0  0  0  0
   -5.3770   -1.4600    0.7500 O   0  0  0  0  0  0  0  0  0  0  0  0
   -4.2330   -2.2870    1.0540 C   0  0  0  0  0  0  0  0  0  0  0  0
   -3.6810   -3.0580   -0.0710 C   0  0  2  0  0  0  0  0  0  0  0  0
   -4.0660   -4.4260    0.0950 O   0  0  0  0  0  0  0  0  0  0  0  0
   -2.3010   -3.0260   -0.5160 C   0  0  0  0  0  0  0  0  0  0  0  0
   -1.2400   -2.3390    0.2780 C   0  0  1  0  0  0  0  0  0  0  0  0
   -0.5600   -3.4230    1.1530 C   0  0  0  0  0  0  0  0  0  0  0  0
   -0.0070   -4.4010    0.3260 O   0  0  0  0  0  0  0  0  0  0  0  0
   -0.0880   -1.7890   -0.5690 C   0  0  0  0  0  0  0  0  0  0  0  0
   -0.1760   -0.2610   -0.7890 C   0  0  2  0  0  0  0  0  0  0  0  0
   -0.2100   -0.0310   -2.3070 C   0  0  0  0  0  0  0  0  0  0  0  0
   -0.3190    1.3130   -2.5920 O   0  0  0  0  0  0  0  0  0  0  0  0
    0.9360    0.4120   -0.2030 N   0  0  0  0  0  0  0  0  0  0  0  0
    2.2610    0.1520   -0.5850 C   0  0  0  0  0  0  0  0  0  0  0  0
    2.5520   -0.6840   -1.4620 O   0  0  0  0  0  0  0  0  0  0  0  0
    3.3090    0.8690    0.0520 N   0  0  0  0  0  0  0  0  0  0  0  0
    4.6770    0.5970   -0.3460 C   0  0  0  0  0  0  0  0  0  0  0  0
    5.5970    1.4820    0.4740 C   0  0  1  0  0  0  0  0  0  0  0  0
    5.4030    1.1760    1.7960 O   0  0  0  0  0  0  0  0  0  0  0  0
    6.6170    1.0790    2.4240 C   0  0  0  0  0  0  0  0  0  0  0  0
    7.6400    0.6760    1.3860 C   0  0  0  0  0  0  0  0  0  0  0  0
    7.0230    1.2260    0.1180 C   0  0  1  0  0  0  0  0  0  0  0  0
    7.1640    0.2420   -0.8660 O   0  0  0  0  0  0  0  0  0  0  0  0
   -1.4890    0.2390   -0.2730 C   0  0  0  0  0  0  0  0  0  0  0  0
   -2.0460    1.3510   -0.8490 O   0  0  0  0  0  0  0  0  0  0  0  0
  1  2  2  0
  2  3  1  0
  2  4  1  0
  4  5  1  1
  4  6  1  0
  6  7  1  1
  6 34  1  0
  7  8  1  0
  8  9  2  0
  8 10  1  0
 10 11  1  0
 11 12  1  0
 12 13  1  1
 12 14  1  0
 14 15  1  0
 15 16  1  1
 15 18  1  0
 16 17  1  0
 18 19  1  0
 19 20  1  6
 19 22  1  0
 19 33  1  0
 20 21  1  0
 22 23  1  0
 23 24  2  0
 23 25  1  0
 25 26  1  0
 27 26  1  6
 27 28  1  0
 27 31  1  0
 28 29  1  0
 29 30  1  0
 30 31  1  0
 31 32  1  6
 33 34  1  0
M  END
