
     RDKit          3D

 33 35  0  0  0  0  0  0  0  0999 V2000
    4.2390    4.0850    3.6620 N   0  0  0  0  0  0  0  0  0  0  0  0
    4.1800    2.8220    3.0260 C   0  0  0  0  0  0  0  0  0  0  0  0
    5.2730    2.3410    2.6040 O   0  0  0  0  0  0  0  0  0  0  0  0
    2.9080    2.1060    2.8720 C   0  0  0  0  0  0  0  0  0  0  0  0
    2.8950    1.0090    1.8640 C   0  0  0  0  0  0  0  0  0  0  0  0
    3.1440    1.4190    0.4480 C   0  0  1  0  0  0  0  0  0  0  0  0
    4.3780    2.0260    0.2640 O   0  0  0  0  0  0  0  0  0  0  0  0
    3.0520    0.2220   -0.4740 C   0  0  1  0  0  0  0  0  0  0  0  0
    1.7240   -0.4620   -0.2940 C   0  0  0  0  0  0  0  0  0  0  0  0
    1.1980   -1.1190   -1.5280 C   0  0  1  0  0  0  0  0  0  0  0  0
    0.3420   -0.2530   -2.3790 C   0  0  0  0  0  0  0  0  0  0  0  0
   -0.8860    0.3280   -1.7740 C   0  0  1  0  0  0  0  0  0  0  0  0
   -1.5010    1.0770   -2.7570 O   0  0  0  0  0  0  0  0  0  0  0  0
   -1.7350   -0.6730   -1.0630 C   0  0  2  0  0  0  0  0  0  0  0  0
   -2.3220   -1.6220   -2.0070 N   0  0  0  0  0  0  0  0  0  0  0  0
   -2.5820   -0.2540    0.0580 C   0  0  2  0  0  0  0  0  0  0  0  0
   -3.3100   -1.4690    0.6300 C   0  0  1  0  0  0  0  0  0  0  0  0
   -2.4900   -2.6120    0.9710 C   0  0  0  0  0  0  0  0  0  0  0  0
   -1.4410   -3.0740    0.5590 O   0  0  0  0  0  0  0  0  0  0  0  0
   -3.1800   -3.2490    2.0400 O   0  0  0  0  0  0  0  0  0  0  0  0
   -4.0920   -2.3290    2.5650 C   0  0  0  0  0  0  0  0  0  0  0  0
   -4.8670   -2.5630    3.5250 O   0  0  0  0  0  0  0  0  0  0  0  0
   -3.9880   -1.1040    1.8330 N   0  0  0  0  0  0  0  0  0  0  0  0
   -4.4330    0.1790    2.1700 C   0  0  1  0  0  0  0  0  0  0  0  0
   -4.1640    0.5170    3.5260 O   0  0  0  0  0  0  0  0  0  0  0  0
   -4.0510    1.2790    1.2530 C   0  0  0  0  0  0  0  0  0  0  0  0
   -3.6340    0.7540   -0.1240 C   0  0  1  0  0  0  0  0  0  0  0  0
   -3.4770    1.8950   -0.9280 N   0  0  0  0  0  0  0  0  0  0  0  0
    2.3910   -1.5170   -2.4240 C   0  0  2  0  0  0  0  0  0  0  0  0
    3.0110   -2.7760   -1.8960 C   0  0  0  0  0  0  0  0  0  0  0  0
    2.0510   -3.8070   -1.9090 O   0  0  0  0  0  0  0  0  0  0  0  0
    3.3270   -0.3970   -2.6570 C   0  0  0  0  0  0  0  0  0  0  0  0
    3.2020    0.6820   -1.7840 O   0  0  0  0  0  0  0  0  0  0  0  0
  1  2  1  0
  2  3  2  0
  2  4  1  0
  4  5  1  0
  5  6  1  0
  6  7  1  1
  6  8  1  0
  8  9  1  6
  8 33  1  0
  9 10  1  0
 10 11  1  6
 10 29  1  0
 11 12  1  0
 12 13  1  6
 12 14  1  0
 14 15  1  6
 14 16  1  0
 16 17  1  0
 16 27  1  6
 17 18  1  1
 17 23  1  0
 18 19  2  0
 18 20  1  0
 20 21  1  0
 21 22  2  0
 21 23  1  0
 23 24  1  0
 24 25  1  1
 24 26  1  0
 26 27  1  0
 27 28  1  6
 29 30  1  1
 29 32  1  0
 30 31  1  0
 32 33  1  0
M  CHG  2  15   1  28   1
M  END
