
     RDKit          3D

 33 34  0  0  0  0  0  0  0  0999 V2000
    1.1390   -3.4670   -0.1230 C   0  0  0  0  0  0  0  0  0  0  0  0
    0.4520   -2.3130    0.5770 C   0  0  1  0  0  0  0  0  0  0  0  0
    0.8520   -1.1540   -0.0960 O   0  0  0  0  0  0  0  0  0  0  0  0
    1.8050   -0.4080    0.5190 C   0  0  1  0  0  0  0  0  0  0  0  0
    3.0390   -0.2400   -0.3290 C   0  0  0  0  0  0  0  0  0  0  0  0
    3.1380   -0.7490   -1.4750 O   0  0  0  0  0  0  0  0  0  0  0  0
    4.1280    0.4900    0.1220 O   0  0  0  0  0  0  0  0  0  0  0  0
    5.3100    0.6770   -0.6370 C   0  0  0  0  0  0  0  0  0  0  0  0
    6.2490    1.5220    0.1960 C   0  0  1  0  0  0  0  0  0  0  0  0
    6.5110    0.8430    1.3690 O   0  0  0  0  0  0  0  0  0  0  0  0
    7.5220    1.8470   -0.5620 C   0  0  0  0  0  0  0  0  0  0  0  0
    7.1760    2.5270   -1.7260 O   0  0  0  0  0  0  0  0  0  0  0  0
    1.3900    0.9260    1.0530 C   0  0  0  0  0  0  0  0  0  0  0  0
    1.0070    1.9000    0.0730 N   0  0  0  0  0  0  0  0  0  0  0  0
    0.3800    1.7840   -1.1610 C   0  0  0  0  0  0  0  0  0  0  0  0
    1.0480    2.2670   -2.1670 O   0  0  0  0  0  0  0  0  0  0  0  0
   -0.8810    1.2190   -1.4930 N   0  0  0  0  0  0  0  0  0  0  0  0
   -2.1450    1.4450   -0.8550 C   0  0  2  0  0  0  0  0  0  0  0  0
   -2.0520    2.1670    0.4670 C   0  0  0  0  0  0  0  0  0  0  0  0
   -3.4050    2.8080    0.6950 C   0  0  0  0  0  0  0  0  0  0  0  0
   -4.5620    1.8920    0.5060 C   0  0  1  0  0  0  0  0  0  0  0  0
   -5.6980    2.7190    0.3200 O   0  0  0  0  0  0  0  0  0  0  0  0
   -4.5070    0.9890   -0.6750 C   0  0  0  0  0  0  0  0  0  0  0  0
   -3.1440    0.3630   -0.9070 C   0  0  2  0  0  0  0  0  0  0  0  0
   -2.9680   -0.8180    0.0140 C   0  0  1  0  0  0  0  0  0  0  0  0
   -3.1960   -0.4030    1.3790 N   0  0  0  0  0  0  0  0  0  0  0  0
   -4.0180   -1.8070   -0.3350 C   0  0  0  0  0  0  0  0  0  0  0  0
   -4.8970   -2.1590    0.4920 O   0  0  0  0  0  0  0  0  0  0  0  0
   -4.0940   -2.4060   -1.6010 O   0  0  0  0  0  0  0  0  0  0  0  0
   -1.5960   -1.2970   -0.1740 C   0  0  0  0  0  0  0  0  0  0  0  0
   -1.0830   -2.4790    0.5450 C   0  0  1  0  0  0  0  0  0  0  0  0
   -1.3620   -3.7130   -0.3260 C   0  0  0  0  0  0  0  0  0  0  0  0
   -1.5420   -2.6780    1.8250 O   0  0  0  0  0  0  0  0  0  0  0  0
  2  1  1  6
  2  3  1  0
  2 31  1  0
  3  4  1  0
  4  5  1  6
  4 13  1  0
  5  6  2  0
  5  7  1  0
  7  8  1  0
  8  9  1  0
  9 10  1  1
  9 11  1  0
 11 12  1  0
 13 14  1  0
 14 15  1  0
 15 16  2  0
 15 17  1  0
 17 18  1  0
 18 19  1  1
 18 24  1  0
 19 20  1  0
 20 21  1  0
 21 22  1  6
 21 23  1  0
 24 23  1  1
 24 25  1  0
 25 26  1  1
 25 27  1  0
 25 30  1  0
 27 28  2  0
 27 29  1  0
 30 31  1  0
 31 32  1  6
 31 33  1  0
M  END
