
     RDKit          3D

 33 34  0  0  0  0  0  0  0  0999 V2000
    1.6760   -1.9070    0.0950 C   0  0  0  0  0  0  0  0  0  0  0  0
    2.2030   -0.5020   -0.0230 C   0  0  1  0  0  0  0  0  0  0  0  0
    2.3080   -0.2860   -1.4330 O   0  0  0  0  0  0  0  0  0  0  0  0
    1.2430    0.4800    0.4840 C   0  0  0  0  0  0  0  0  0  0  0  0
    0.0630    0.5250    0.0140 O   0  0  0  0  0  0  0  0  0  0  0  0
   -1.0820    0.0580   -0.2320 C   0  0  1  0  0  0  0  0  0  0  0  0
   -1.1330   -1.1520   -1.1330 C   0  0  0  0  0  0  0  0  0  0  0  0
   -1.9670   -0.2670    0.9890 C   0  0  0  0  0  0  0  0  0  0  0  0
   -3.2650   -0.8130    0.5050 C   0  0  1  0  0  0  0  0  0  0  0  0
   -4.0640   -0.9830    1.6670 O   0  0  0  0  0  0  0  0  0  0  0  0
   -4.0340    0.1230   -0.3800 C   0  0  1  0  0  0  0  0  0  0  0  0
   -5.0600   -0.6850   -1.1430 C   0  0  0  0  0  0  0  0  0  0  0  0
   -6.0260   -1.4030   -0.3060 C   0  0  0  0  0  0  0  0  0  0  0  0
   -5.7000   -2.4800    0.3080 O   0  0  0  0  0  0  0  0  0  0  0  0
   -7.3460   -1.0180   -0.0930 O   0  0  0  0  0  0  0  0  0  0  0  0
   -8.1990   -1.7390    0.7040 N   0  0  0  0  0  0  0  0  0  0  0  0
   -4.7920    1.1150    0.4620 C   0  0  0  0  0  0  0  0  0  0  0  0
   -4.1550    1.9600    1.3790 N   0  0  0  0  0  0  0  0  0  0  0  0
   -6.0190    1.1830    0.3350 O   0  0  0  0  0  0  0  0  0  0  0  0
   -3.2120    0.8280   -1.4160 C   0  0  1  0  0  0  0  0  0  0  0  0
   -3.8710    2.0540   -1.6990 O   0  0  0  0  0  0  0  0  0  0  0  0
   -1.8690    1.1670   -0.9670 C   0  0  2  0  0  0  0  0  0  0  0  0
   -1.0820    1.4380   -2.1120 O   0  0  0  0  0  0  0  0  0  0  0  0
    3.6400   -0.4310    0.4600 C   0  0  2  0  0  0  0  0  0  0  0  0
    3.8790   -0.8410    1.8610 C   0  0  0  0  0  0  0  0  0  0  0  0
    3.3080   -0.1780    2.9490 N   0  0  0  0  0  0  0  0  0  0  0  0
    4.3140    0.8820    0.1030 C   0  0  2  0  0  0  0  0  0  0  0  0
    4.3820    1.2010   -1.3580 C   0  0  0  0  0  0  0  0  0  0  0  0
    5.1820    0.2040   -2.1610 C   0  0  0  0  0  0  0  0  0  0  0  0
    6.5520    0.3760   -1.7010 N   0  0  0  0  0  0  0  0  0  0  0  0
    6.7270    1.1650   -0.5370 C   0  0  0  0  0  0  0  0  0  0  0  0
    7.6920    1.9850   -0.4690 O   0  0  0  0  0  0  0  0  0  0  0  0
    5.7390    0.9950    0.5960 C   0  0  0  0  0  0  0  0  0  0  0  0
  2  1  1  6
  2  3  1  0
  2  4  1  0
  2 24  1  0
  4  5  1  0
  5  6  1  0
  6  7  1  6
  6  8  1  0
  6 22  1  0
  8  9  1  0
  9 10  1  1
  9 11  1  0
 11 12  1  6
 11 17  1  0
 11 20  1  0
 12 13  1  0
 13 14  2  0
 13 15  1  0
 15 16  1  0
 17 18  1  0
 17 19  2  0
 20 21  1  1
 20 22  1  0
 22 23  1  6
 24 25  1  1
 24 27  1  0
 25 26  1  0
 27 28  1  6
 27 33  1  0
 28 29  1  0
 29 30  1  0
 30 31  1  0
 31 32  2  0
 31 33  1  0
M  CHG  1  26   1
M  END
