
     RDKit          3D

 27 29  0  0  0  0  0  0  0  0999 V2000
    2.8060   -3.1130    1.5870 C   0  0  0  0  0  0  0  0  0  0  0  0
    2.0970   -2.0070    1.0920 O   0  0  0  0  0  0  0  0  0  0  0  0
    2.7000   -0.8340    0.6430 C   0  0  0  0  0  0  0  0  0  0  0  0
    4.0540   -0.6610    0.6470 C   0  0  0  0  0  0  0  0  0  0  0  0
    4.6520    0.5070    0.2000 C   0  0  0  0  0  0  0  0  0  0  0  0
    6.1100    0.6590    0.2040 C   0  0  0  0  0  0  0  0  0  0  0  0
    6.7820    0.4630   -1.1140 C   0  0  0  0  0  0  0  0  0  0  0  0
    6.3610    1.3470   -2.0910 O   0  0  0  0  0  0  0  0  0  0  0  0
    3.8150    1.4880   -0.2500 C   0  0  0  0  0  0  0  0  0  0  0  0
    4.4890    2.9910   -0.8130 Cl  0  0  0  0  0  0  0  0  0  0  0  0
    2.4230    1.3350   -0.2660 C   0  0  0  0  0  0  0  0  0  0  0  0
    1.8480    0.1730    0.1800 C   0  0  0  0  0  0  0  0  0  0  0  0
    0.4400   -0.0590    0.1970 N   0  0  0  0  0  0  0  0  0  0  0  0
   -0.5490    0.8460   -0.2320 C   0  0  0  0  0  0  0  0  0  0  0  0
   -0.2680    1.9740   -0.6810 O   0  0  0  0  0  0  0  0  0  0  0  0
   -1.9740    0.4250   -0.1380 C   0  0  0  0  0  0  0  0  0  0  0  0
   -2.3860   -0.7820    0.3370 C   0  0  0  0  0  0  0  0  0  0  0  0
   -3.7890   -0.7220    0.2340 C   0  0  0  0  0  0  0  0  0  0  0  0
   -4.1560    0.4830   -0.2830 C   0  0  0  0  0  0  0  0  0  0  0  0
   -5.4430    1.0570   -0.5910 C   0  0  0  0  0  0  0  0  0  0  0  0
   -5.3790    2.2640   -1.0840 O   0  0  0  0  0  0  0  0  0  0  0  0
   -6.7540    0.4580   -0.4160 C   0  0  0  0  0  0  0  0  0  0  0  0
   -7.0220   -0.7420    0.0460 C   0  0  0  0  0  0  0  0  0  0  0  0
   -8.8510   -0.8580    0.0120 S   0  0  0  0  0  0  0  0  0  0  0  0
   -9.0080    0.9900    0.0530 C   0  0  0  0  0  0  0  0  0  0  0  0
   -7.8810    1.2130   -0.7670 O   0  0  0  0  0  0  0  0  0  0  0  0
   -2.9980    1.1310   -0.4860 O   0  0  0  0  0  0  0  0  0  0  0  0
  1  2  1  0
  2  3  1  0
  3  4  2  0
  3 12  1  0
  4  5  1  0
  5  6  1  0
  5  9  2  0
  6  7  1  0
  7  8  1  0
  9 10  1  0
  9 11  1  0
 11 12  2  0
 12 13  1  0
 13 14  1  0
 14 15  2  0
 14 16  1  0
 16 17  2  0
 16 27  1  0
 17 18  1  0
 18 19  2  0
 19 20  1  0
 19 27  1  0
 20 21  2  0
 20 22  1  0
 22 23  2  0
 22 26  1  0
 23 24  1  0
 24 25  1  0
 25 26  1  0
M  END
