
     RDKit          3D

 28 30  0  0  0  0  0  0  0  0999 V2000
    7.4390    2.2120    0.7370 C   0  0  0  0  0  0  0  0  0  0  0  0
    7.3510    0.7680    0.4120 C   0  0  0  0  0  0  0  0  0  0  0  0
    8.3920    0.0360    0.4180 O   0  0  0  0  0  0  0  0  0  0  0  0
    6.0800    0.1640    0.0820 C   0  0  0  0  0  0  0  0  0  0  0  0
    6.0010   -1.1830   -0.2190 C   0  0  0  0  0  0  0  0  0  0  0  0
    4.7880   -1.7330   -0.5270 C   0  0  0  0  0  0  0  0  0  0  0  0
    3.5920   -0.9930   -0.5570 C   0  0  0  0  0  0  0  0  0  0  0  0
    2.4340   -1.6320   -0.8800 O   0  0  0  0  0  0  0  0  0  0  0  0
    1.1520   -1.1670   -0.9530 C   0  0  0  0  0  0  0  0  0  0  0  0
    0.5970   -0.7260    0.3540 C   0  0  0  0  0  0  0  0  0  0  0  0
   -0.7320   -0.2470    0.2670 O   0  0  0  0  0  0  0  0  0  0  0  0
   -1.7700   -1.0500   -0.1530 C   0  0  0  0  0  0  0  0  0  0  0  0
   -1.5160   -2.2370   -0.4590 O   0  0  0  0  0  0  0  0  0  0  0  0
   -3.1070   -0.4930   -0.2240 C   0  0  0  0  0  0  0  0  0  0  0  0
   -4.1340   -1.0880    0.4690 C   0  0  0  0  0  0  0  0  0  0  0  0
   -5.4400   -0.6310    0.4550 C   0  0  0  0  0  0  0  0  0  0  0  0
   -5.7470    0.4770   -0.2840 C   0  0  0  0  0  0  0  0  0  0  0  0
   -4.7320    1.0920   -0.9880 C   0  0  0  0  0  0  0  0  0  0  0  0
   -3.4490    0.6250   -0.9620 C   0  0  0  0  0  0  0  0  0  0  0  0
   -2.1830    1.4490   -1.8820 Cl  0  0  0  0  0  0  0  0  0  0  0  0
   -7.0780    0.9940   -0.3460 N   0  0  0  0  0  0  0  0  0  0  0  0
   -8.1970    0.4750    0.3010 C   0  0  0  0  0  0  0  0  0  0  0  0
   -9.1940    1.2010    0.5480 O   0  0  0  0  0  0  0  0  0  0  0  0
   -8.3060   -0.9520    0.7450 C   0  0  0  0  0  0  0  0  0  0  0  0
   -6.7000   -1.4940    1.4110 S   0  0  0  0  0  0  0  0  0  0  0  0
    3.7140    0.3390   -0.2540 C   0  0  0  0  0  0  0  0  0  0  0  0
    4.9280    0.9390    0.0660 C   0  0  0  0  0  0  0  0  0  0  0  0
    4.9600    2.2960    0.3610 O   0  0  0  0  0  0  0  0  0  0  0  0
  1  2  1  0
  2  3  2  0
  2  4  1  0
  4  5  2  0
  4 27  1  0
  5  6  1  0
  6  7  2  0
  7  8  1  0
  7 26  1  0
  8  9  1  0
  9 10  1  0
 10 11  1  0
 11 12  1  0
 12 13  2  0
 12 14  1  0
 14 15  2  0
 14 19  1  0
 15 16  1  0
 16 17  2  0
 16 25  1  0
 17 18  1  0
 17 21  1  0
 18 19  2  0
 19 20  1  0
 21 22  1  0
 22 23  2  0
 22 24  1  0
 24 25  1  0
 26 27  2  0
 27 28  1  0
M  END
