
     RDKit          3D

  9  9  0  0  0  0  0  0  0  0999 V2000
    2.5810   -1.5270   -0.2420 O   0  0  0  0  0  0  0  0  0  0  0  0
    2.0370   -0.4080   -0.0690 C   0  0  0  0  0  0  0  0  0  0  0  0
    2.9050    0.6700    0.1210 O   0  0  0  0  0  0  0  0  0  0  0  0
    0.5940   -0.2610   -0.0680 C   0  0  0  0  0  0  0  0  0  0  0  0
   -0.0230    0.9530    0.1200 C   0  0  0  0  0  0  0  0  0  0  0  0
   -1.4180    1.0650    0.1160 C   0  0  0  0  0  0  0  0  0  0  0  0
   -2.1780   -0.0780   -0.0830 C   0  0  0  0  0  0  0  0  0  0  0  0
   -1.5260   -1.2660   -0.2660 C   0  0  0  0  0  0  0  0  0  0  0  0
   -0.1650   -1.3530   -0.2580 N   0  0  0  0  0  0  0  0  0  0  0  0
  1  2  2  0
  2  3  1  0
  2  4  1  0
  4  5  2  0
  4  9  1  0
  5  6  1  0
  6  7  2  0
  7  8  1  0
  8  9  2  0
M  END
