
     RDKit          3D

 28 30  0  0  0  0  0  0  0  0999 V2000
    7.7770   -0.5240   -1.9840 C   0  0  0  0  0  0  0  0  0  0  0  0
    7.1150   -0.0060   -0.8580 O   0  0  0  0  0  0  0  0  0  0  0  0
    7.7410    0.7880    0.0760 C   0  0  0  0  0  0  0  0  0  0  0  0
    8.9460    1.0620   -0.0770 O   0  0  0  0  0  0  0  0  0  0  0  0
    7.0540    1.3420    1.2690 C   0  0  0  0  0  0  0  0  0  0  0  0
    5.6780    0.9330    1.2950 O   0  0  0  0  0  0  0  0  0  0  0  0
    4.8040    1.2490    0.2890 C   0  0  0  0  0  0  0  0  0  0  0  0
    5.1930    1.9120   -0.6880 O   0  0  0  0  0  0  0  0  0  0  0  0
    3.4170    0.8190    0.3460 C   0  0  0  0  0  0  0  0  0  0  0  0
    2.7490    0.1030    1.2770 C   0  0  0  0  0  0  0  0  0  0  0  0
    1.4370   -0.1640    1.0830 C   0  0  0  0  0  0  0  0  0  0  0  0
    0.4260   -0.8230    1.7380 N   0  0  0  0  0  0  0  0  0  0  0  0
   -0.7290   -0.7730    1.0620 C   0  0  0  0  0  0  0  0  0  0  0  0
   -2.0310   -1.3850    1.4840 C   0  0  0  0  0  0  0  0  0  0  0  0
   -0.5010   -0.0510   -0.1030 C   0  0  0  0  0  0  0  0  0  0  0  0
   -1.4550    0.2800   -1.1740 C   0  0  2  0  0  0  0  0  0  0  0  0
   -0.7360    1.4890   -2.2680 Cl  0  0  0  0  0  0  0  0  0  0  0  0
   -2.6480    0.7170   -0.6140 O   0  0  0  0  0  0  0  0  0  0  0  0
   -3.8950    0.1860   -0.7120 C   0  0  0  0  0  0  0  0  0  0  0  0
   -4.1800   -0.9470   -1.4370 C   0  0  0  0  0  0  0  0  0  0  0  0
   -5.4710   -1.4360   -1.4960 C   0  0  0  0  0  0  0  0  0  0  0  0
   -6.5260   -0.8180   -0.8390 C   0  0  0  0  0  0  0  0  0  0  0  0
   -7.8260   -1.3010   -0.8930 O   0  0  0  0  0  0  0  0  0  0  0  0
   -6.1960    0.3170   -0.1230 C   0  0  0  0  0  0  0  0  0  0  0  0
   -7.3350    0.9920    0.5910 C   0  0  0  0  0  0  0  0  0  0  0  0
   -4.9280    0.8140   -0.0530 C   0  0  0  0  0  0  0  0  0  0  0  0
    0.8650    0.3140   -0.0560 C   0  0  0  0  0  0  0  0  0  0  0  0
    2.1850    1.1530   -0.8730 S   0  0  0  0  0  0  0  0  0  0  0  0
  1  2  1  0
  2  3  1  0
  3  4  2  0
  3  5  1  0
  5  6  1  0
  6  7  1  0
  7  8  2  0
  7  9  1  0
  9 10  2  0
  9 28  1  0
 10 11  1  0
 11 12  1  0
 11 27  2  0
 12 13  1  0
 13 14  1  0
 13 15  2  0
 15 16  1  0
 15 27  1  0
 16 17  1  6
 16 18  1  0
 18 19  1  0
 19 20  2  0
 19 26  1  0
 20 21  1  0
 21 22  2  0
 22 23  1  0
 22 24  1  0
 24 25  1  0
 24 26  2  0
 27 28  1  0
M  END
