
     RDKit          3D

 28 30  0  0  0  0  0  0  0  0999 V2000
   -5.1710   -3.0030    0.8280 C   0  0  0  0  0  0  0  0  0  0  0  0
   -4.7310   -2.1430   -0.3070 C   0  0  0  0  0  0  0  0  0  0  0  0
   -3.2690   -1.9870   -0.4080 C   0  0  0  0  0  0  0  0  0  0  0  0
   -2.7070   -0.7790    0.0360 C   0  0  0  0  0  0  0  0  0  0  0  0
   -1.3430   -0.5880   -0.0350 C   0  0  0  0  0  0  0  0  0  0  0  0
   -0.5450    0.5090    0.3380 C   0  0  0  0  0  0  0  0  0  0  0  0
   -1.0460    1.7340    0.9130 C   0  0  0  0  0  0  0  0  0  0  0  0
   -0.3090    2.6810    1.2260 O   0  0  0  0  0  0  0  0  0  0  0  0
   -2.4080    1.9350    1.1580 O   0  0  0  0  0  0  0  0  0  0  0  0
   -2.9190    3.1320    1.7220 C   0  0  0  0  0  0  0  0  0  0  0  0
   -2.6250    4.3210    0.8970 C   0  0  0  0  0  0  0  0  0  0  0  0
   -1.9850    4.2330   -0.1860 O   0  0  0  0  0  0  0  0  0  0  0  0
   -3.0820    5.5420    1.3610 O   0  0  0  0  0  0  0  0  0  0  0  0
    0.7400    0.1410    0.0410 C   0  0  0  0  0  0  0  0  0  0  0  0
    1.9600    0.9110    0.2270 C   0  0  0  0  0  0  0  0  0  0  0  0
    1.9910    2.0560    0.7060 O   0  0  0  0  0  0  0  0  0  0  0  0
    3.2060    0.3750   -0.1390 O   0  0  0  0  0  0  0  0  0  0  0  0
    4.3900    1.1590    0.0570 C   0  0  0  0  0  0  0  0  0  0  0  0
    5.5820    0.3980   -0.3970 C   0  0  0  0  0  0  0  0  0  0  0  0
    6.4010   -0.4410    0.3220 C   0  0  0  0  0  0  0  0  0  0  0  0
    7.4270   -1.0330   -0.2840 C   0  0  0  0  0  0  0  0  0  0  0  0
    7.6140   -0.7560   -1.6540 C   0  0  0  0  0  0  0  0  0  0  0  0
    6.2660    0.3630   -1.9800 S   0  0  0  0  0  0  0  0  0  0  0  0
    0.7040   -1.1260   -0.4880 N   0  0  0  0  0  0  0  0  0  0  0  0
   -0.5460   -1.5840   -0.5410 C   0  0  0  0  0  0  0  0  0  0  0  0
   -1.1360   -2.7620   -0.9710 C   0  0  0  0  0  0  0  0  0  0  0  0
   -2.4830   -2.9830   -0.9140 C   0  0  0  0  0  0  0  0  0  0  0  0
   -3.2350   -4.4590   -1.4520 Cl  0  0  0  0  0  0  0  0  0  0  0  0
  1  2  1  0
  2  3  1  0
  3  4  2  0
  3 27  1  0
  4  5  1  0
  5  6  1  0
  5 25  2  0
  6  7  1  0
  6 14  2  0
  7  8  2  0
  7  9  1  0
  9 10  1  0
 10 11  1  0
 11 12  2  0
 11 13  1  0
 14 15  1  0
 14 24  1  0
 15 16  2  0
 15 17  1  0
 17 18  1  0
 18 19  1  0
 19 20  2  0
 19 23  1  0
 20 21  1  0
 21 22  2  0
 22 23  1  0
 24 25  1  0
 25 26  1  0
 26 27  2  0
 27 28  1  0
M  END
