
     RDKit          3D

 28 29  0  0  0  0  0  0  0  0999 V2000
    1.1500   -0.8650    1.0430 C   0  0  0  0  0  0  0  0  0  0  0  0
    0.9320   -0.0770   -0.1680 O   0  0  0  0  0  0  0  0  0  0  0  0
    0.8940    1.3120   -0.0130 C   0  0  0  0  0  0  0  0  0  0  0  0
   -0.3540    2.0430    0.2200 C   0  0  0  0  0  0  0  0  0  0  0  0
   -1.5640    1.6240    0.2790 C   0  0  0  0  0  0  0  0  0  0  0  0
   -2.1960    0.3510    0.1460 C   0  0  0  0  0  0  0  0  0  0  0  0
   -1.6020   -0.7130   -0.1080 O   0  0  0  0  0  0  0  0  0  0  0  0
   -3.6110    0.2460    0.3090 O   0  0  0  0  0  0  0  0  0  0  0  0
   -4.1920   -1.0350    0.1680 C   0  0  0  0  0  0  0  0  0  0  0  0
   -5.6740   -0.8660    0.3850 C   0  0  0  0  0  0  0  0  0  0  0  0
   -6.5230   -1.1860   -0.5630 C   0  0  0  0  0  0  0  0  0  0  0  0
   -7.9780   -1.0380   -0.3980 C   0  0  0  0  0  0  0  0  0  0  0  0
   -8.3360   -0.5360    0.8430 O   0  0  0  0  0  0  0  0  0  0  0  0
   -7.4400   -0.2080    1.8180 C   0  0  0  0  0  0  0  0  0  0  0  0
   -6.1350   -0.3440    1.6590 C   0  0  0  0  0  0  0  0  0  0  0  0
   -5.2450    0.0030    2.6840 O   0  0  0  0  0  0  0  0  0  0  0  0
    1.9850    2.0040   -0.0710 C   0  0  0  0  0  0  0  0  0  0  0  0
    3.3380    1.5960   -0.2920 C   0  0  0  0  0  0  0  0  0  0  0  0
    4.2420    2.5510   -0.2130 O   0  0  0  0  0  0  0  0  0  0  0  0
    3.8140    0.3180   -0.5860 N   0  0  0  0  0  0  0  0  0  0  0  0
    5.1490   -0.0620   -0.7830 C   0  0  0  0  0  0  0  0  0  0  0  0
    6.2220    0.7690   -0.7180 C   0  0  0  0  0  0  0  0  0  0  0  0
    7.5360    0.2940   -0.9310 C   0  0  0  0  0  0  0  0  0  0  0  0
    8.9030    1.4240   -0.8340 S   0  0  0  0  0  0  0  0  0  0  0  0
    7.7870   -1.0190   -1.2120 C   0  0  0  0  0  0  0  0  0  0  0  0
    6.7120   -1.8710   -1.2820 C   0  0  0  0  0  0  0  0  0  0  0  0
    5.4390   -1.4050   -1.0740 C   0  0  0  0  0  0  0  0  0  0  0  0
    4.0930   -2.5140   -1.1680 Cl  0  0  0  0  0  0  0  0  0  0  0  0
  1  2  1  0
  2  3  1  0
  3  4  1  0
  3 17  2  3
  4  5  2  3
  5  6  1  0
  6  7  2  0
  6  8  1  0
  8  9  1  0
  9 10  1  0
 10 11  2  0
 10 15  1  0
 11 12  1  0
 12 13  1  0
 13 14  1  0
 14 15  2  0
 15 16  1  0
 17 18  1  0
 18 19  2  0
 18 20  1  0
 20 21  1  0
 21 22  2  0
 21 27  1  0
 22 23  1  0
 23 24  1  0
 23 25  2  0
 25 26  1  0
 26 27  2  0
 27 28  1  0
M  END
