
     RDKit          3D

 28 30  0  0  0  0  0  0  0  0999 V2000
   -1.6590    6.1610    1.8310 C   0  0  0  0  0  0  0  0  0  0  0  0
   -1.4040    4.7950    1.6040 O   0  0  0  0  0  0  0  0  0  0  0  0
   -0.9300    3.8930    2.5550 C   0  0  0  0  0  0  0  0  0  0  0  0
   -0.7560    4.2710    3.7080 O   0  0  0  0  0  0  0  0  0  0  0  0
   -0.6180    2.5010    2.0650 C   0  0  0  0  0  0  0  0  0  0  0  0
   -0.9800    1.8200    0.9570 C   0  0  0  0  0  0  0  0  0  0  0  0
   -0.1210    0.8060    0.5410 C   0  0  0  0  0  0  0  0  0  0  0  0
   -0.5430    0.0410   -0.7600 C   0  0  0  0  0  0  0  0  0  0  0  0
   -1.6860   -0.4320   -0.5600 O   0  0  0  0  0  0  0  0  0  0  0  0
   -2.8130   -0.8910   -0.8650 C   0  0  2  0  0  0  0  0  0  0  0  0
   -3.8390   -1.0250    0.2630 C   0  0  0  0  0  0  0  0  0  0  0  0
   -5.1670   -1.4280   -0.2740 C   0  0  0  0  0  0  0  0  0  0  0  0
   -5.0480   -2.7390   -0.7760 O   0  0  0  0  0  0  0  0  0  0  0  0
   -4.0620   -2.7790   -1.7630 C   0  0  0  0  0  0  0  0  0  0  0  0
   -2.6810   -2.4690   -1.2620 C   0  0  0  0  0  0  0  0  0  0  0  0
    0.9470    0.5650    1.2310 C   0  0  0  0  0  0  0  0  0  0  0  0
    2.0780   -0.4200    1.2040 C   0  0  0  0  0  0  0  0  0  0  0  0
    2.4450   -1.0900    2.1240 O   0  0  0  0  0  0  0  0  0  0  0  0
    2.7740   -0.4160   -0.0770 N   0  0  0  0  0  0  0  0  0  0  0  0
    3.9330   -1.1730   -0.4150 C   0  0  0  0  0  0  0  0  0  0  0  0
    3.9790   -2.4890   -0.6120 C   0  0  0  0  0  0  0  0  0  0  0  0
    5.2330   -3.0880   -0.9800 C   0  0  0  0  0  0  0  0  0  0  0  0
    5.3600   -4.7790   -1.3150 Cl  0  0  0  0  0  0  0  0  0  0  0  0
    6.2760   -2.2600   -1.1100 C   0  0  0  0  0  0  0  0  0  0  0  0
    6.2760   -0.9120   -0.9200 C   0  0  0  0  0  0  0  0  0  0  0  0
    5.0480   -0.3660   -0.5560 C   0  0  0  0  0  0  0  0  0  0  0  0
    5.0050    1.0430   -0.3250 O   0  0  0  0  0  0  0  0  0  0  0  0
    0.8980    1.7040    2.5710 S   0  0  0  0  0  0  0  0  0  0  0  0
  1  2  1  0
  2  3  1  0
  3  4  2  0
  3  5  1  0
  5  6  2  0
  5 28  1  0
  6  7  1  0
  7  8  1  0
  7 16  2  0
  8  9  1  0
 10  9  1  1
 10 11  1  0
 10 15  1  0
 11 12  1  0
 12 13  1  0
 13 14  1  0
 14 15  1  0
 16 17  1  0
 16 28  1  0
 17 18  2  0
 17 19  1  0
 19 20  1  0
 20 21  2  0
 20 26  1  0
 21 22  1  0
 22 23  1  0
 22 24  2  0
 24 25  1  0
 25 26  2  0
 26 27  1  0
M  END
