
     RDKit          3D

 22 23  0  0  0  0  0  0  0  0999 V2000
   -3.9840   -0.3040    2.2130 N   0  0  0  0  0  0  0  0  0  0  0  0
   -2.7640   -0.9490    1.6960 C   0  0  1  0  0  0  0  0  0  0  0  0
   -2.8240   -1.0450    0.2070 C   0  0  0  0  0  0  0  0  0  0  0  0
   -4.1380   -0.5330   -0.3290 C   0  0  0  0  0  0  0  0  0  0  0  0
   -4.2780    0.7030   -0.7940 C   0  0  0  0  0  0  0  0  0  0  0  0
   -3.1380    1.6830   -0.8200 C   0  0  0  0  0  0  0  0  0  0  0  0
   -2.4660    1.6510   -2.1350 C   0  0  0  0  0  0  0  0  0  0  0  0
   -0.9990    1.4810   -2.1440 C   0  0  0  0  0  0  0  0  0  0  0  0
   -0.2380    1.9890   -0.9810 C   0  0  0  0  0  0  0  0  0  0  0  0
    0.6120    0.8880   -0.3140 C   0  0  1  0  0  0  0  0  0  0  0  0
    1.9700    1.1480   -0.4850 O   0  0  0  0  0  0  0  0  0  0  0  0
    2.6290    0.2340   -1.2580 C   0  0  1  0  0  0  0  0  0  0  0  0
    3.1410    0.8380   -2.4330 O   0  0  0  0  0  0  0  0  0  0  0  0
    3.8360   -0.2760   -0.5170 C   0  0  1  0  0  0  0  0  0  0  0  0
    3.4530   -0.7830    0.8290 C   0  0  0  0  0  0  0  0  0  0  0  0
    4.3520   -1.6590    1.4110 O   0  0  0  0  0  0  0  0  0  0  0  0
    4.9380   -2.5470    0.5440 C   0  0  0  0  0  0  0  0  0  0  0  0
    5.5890   -1.6930   -0.5520 C   0  0  0  0  0  0  0  0  0  0  0  0
    4.5230   -1.2030   -1.3020 O   0  0  0  0  0  0  0  0  0  0  0  0
    0.3480    0.8050    1.1510 C   0  0  0  0  0  0  0  0  0  0  0  0
   -0.2700   -0.5220    1.5600 C   0  0  0  0  0  0  0  0  0  0  0  0
   -1.5320   -0.3970    2.2910 C   0  0  0  0  0  0  0  0  0  0  0  0
  2  1  1  6
  2  3  1  0
  2 22  1  0
  3  4  1  0
  4  5  2  0
  5  6  1  0
  6  7  1  0
  7  8  1  0
  8  9  1  0
  9 10  1  0
 10 11  1  1
 10 20  1  0
 11 12  1  0
 12 13  1  6
 12 14  1  0
 14 15  1  1
 14 19  1  0
 15 16  1  0
 16 17  1  0
 17 18  1  0
 18 19  1  0
 20 21  1  0
 21 22  1  0
M  CHG  1   1   1
M  END
