
     RDKit          3D

 20 19  0  0  0  0  0  0  0  0999 V2000
   -4.5160   -1.1960   -1.5290 O   0  0  0  0  0  0  0  0  0  0  0  0
   -4.4550   -1.5280   -0.3190 C   0  0  0  0  0  0  0  0  0  0  0  0
   -5.4000   -2.4820    0.1120 O   0  0  0  0  0  0  0  0  0  0  0  0
   -3.4610   -0.9670    0.6080 C   0  0  0  0  0  0  0  0  0  0  0  0
   -2.5480    0.0640   -0.0130 C   0  0  2  0  0  0  0  0  0  0  0  0
   -3.3280    1.2490   -0.5390 C   0  0  0  0  0  0  0  0  0  0  0  0
   -4.1160    1.9460    0.5580 C   0  0  0  0  0  0  0  0  0  0  0  0
   -2.9650    2.5270    1.8200 S   0  0  0  0  0  0  0  0  0  0  0  0
   -1.9290   -0.5330   -1.0890 O   0  0  0  0  0  0  0  0  0  0  0  0
   -0.5900   -0.6160   -1.0660 C   0  0  0  0  0  0  0  0  0  0  0  0
    0.0270   -1.3730    0.0700 C   0  0  0  0  0  0  0  0  0  0  0  0
    1.8270   -1.3100   -0.1930 S   0  0  0  0  0  0  0  0  0  0  0  0
    2.3380    0.4250   -0.0090 C   0  0  0  0  0  0  0  0  0  0  0  0
    3.8070    0.5100   -0.2300 C   0  0  0  0  0  0  0  0  0  0  0  0
    4.3590    1.6180   -0.1570 O   0  0  0  0  0  0  0  0  0  0  0  0
    4.5830   -0.6500   -0.5200 N   0  0  0  0  0  0  0  0  0  0  0  0
    5.9550   -0.6270   -0.7330 N   0  0  0  0  0  0  0  0  0  0  0  0
    6.8130   -0.0040    0.1940 C   0  0  0  0  0  0  0  0  0  0  0  0
    6.3240    0.5290    1.2130 O   0  0  0  0  0  0  0  0  0  0  0  0
    8.1940    0.0520    0.0370 O   0  0  0  0  0  0  0  0  0  0  0  0
  1  2  2  0
  2  3  1  0
  2  4  1  0
  5  4  1  6
  5  6  1  0
  5  9  1  0
  6  7  1  0
  7  8  1  0
  9 10  1  0
 10 11  1  0
 11 12  1  0
 12 13  1  0
 13 14  1  0
 14 15  2  0
 14 16  1  0
 16 17  1  0
 17 18  1  0
 18 19  2  0
 18 20  1  0
M  END
