
     RDKit          3D

 19 18  0  0  0  0  0  0  0  0999 V2000
   -3.0210    4.7930    1.3120 C   0  0  0  0  0  0  0  0  0  0  0  0
   -2.9790    3.3770    1.2650 O   0  0  0  0  0  0  0  0  0  0  0  0
   -1.8220    3.0660    0.6040 C   0  0  0  0  0  0  0  0  0  0  0  0
   -1.5910    1.6020    0.4250 C   0  0  0  0  0  0  0  0  0  0  0  0
   -2.3720    0.7350    0.8570 O   0  0  0  0  0  0  0  0  0  0  0  0
   -0.4200    1.2470   -0.2740 N   0  0  0  0  0  0  0  0  0  0  0  0
   -0.0830   -0.2190   -0.5290 C   0  0  1  0  0  0  0  0  0  0  0  0
   -1.1760   -0.7680   -1.3740 C   0  0  0  0  0  0  0  0  0  0  0  0
   -1.0710   -2.4560   -1.8660 S   0  0  0  0  0  0  0  0  0  0  0  0
   -1.3930   -3.7180   -0.6710 C   0  0  0  0  0  0  0  0  0  0  0  0
    1.1170   -0.0640   -1.4320 C   0  0  0  0  0  0  0  0  0  0  0  0
    1.9790   -1.4030   -2.0930 S   0  0  0  0  0  0  0  0  0  0  0  0
    3.0600   -2.3210   -1.0260 C   0  0  0  0  0  0  0  0  0  0  0  0
    4.1380   -1.3650   -0.5480 C   0  0  0  0  0  0  0  0  0  0  0  0
    4.1100   -0.9460    0.6460 O   0  0  0  0  0  0  0  0  0  0  0  0
    5.1390   -0.9400   -1.3750 O   0  0  0  0  0  0  0  0  0  0  0  0
    0.0910   -0.7470    0.7900 C   0  0  0  0  0  0  0  0  0  0  0  0
    0.3310   -2.0210    1.2950 N   0  0  0  0  0  0  0  0  0  0  0  0
    0.0110    0.1410    1.7780 O   0  0  0  0  0  0  0  0  0  0  0  0
  1  2  1  0
  2  3  1  0
  3  4  1  0
  4  5  2  0
  4  6  1  0
  6  7  1  0
  7  8  1  6
  7 11  1  0
  7 17  1  0
  8  9  1  0
  9 10  1  0
 11 12  1  0
 12 13  1  0
 13 14  1  0
 14 15  2  0
 14 16  1  0
 17 18  1  0
 17 19  2  0
M  END
