
     RDKit          3D

 22 23  0  0  0  0  0  0  0  0999 V2000
   -2.7770    3.5040    0.8100 C   0  0  0  0  0  0  0  0  0  0  0  0
   -2.4310    2.0890    0.2270 C   0  0  1  0  0  0  0  0  0  0  0  0
   -2.3200    2.3360   -1.1870 N   0  0  0  0  0  0  0  0  0  0  0  0
   -1.2600    1.6750    0.9490 C   0  0  0  0  0  0  0  0  0  0  0  0
   -0.4640    0.4770    0.8470 C   0  0  1  0  0  0  0  0  0  0  0  0
   -0.9180   -0.8850    1.0870 C   0  0  1  0  0  0  0  0  0  0  0  0
   -1.3670   -0.9460    2.4960 O   0  0  0  0  0  0  0  0  0  0  0  0
   -1.9550   -1.6600    0.4470 C   0  0  2  0  0  0  0  0  0  0  0  0
   -3.3890   -1.1830    0.5240 C   0  0  0  0  0  0  0  0  0  0  0  0
   -2.0630   -2.9370    1.3460 C   0  0  0  0  0  0  0  0  0  0  0  0
   -1.6810   -2.2950   -0.8980 C   0  0  0  0  0  0  0  0  0  0  0  0
    0.6620    0.5590   -0.2150 C   0  0  1  0  0  0  0  0  0  0  0  0
    0.1910    0.7460   -1.4840 O   0  0  0  0  0  0  0  0  0  0  0  0
    1.6820    1.6350    0.1590 C   0  0  0  0  0  0  0  0  0  0  0  0
    2.6440    1.7160   -1.0100 C   0  0  0  0  0  0  0  0  0  0  0  0
    2.6900    0.5750   -1.7670 O   0  0  0  0  0  0  0  0  0  0  0  0
    2.7880   -0.5320   -0.9660 C   0  0  2  0  0  0  0  0  0  0  0  0
    3.9960   -0.5670   -0.0970 C   0  0  0  0  0  0  0  0  0  0  0  0
    4.7430   -1.8290   -0.5000 C   0  0  0  0  0  0  0  0  0  0  0  0
    4.3230   -2.0850   -1.8030 O   0  0  0  0  0  0  0  0  0  0  0  0
    2.9880   -1.7340   -1.8690 C   0  0  0  0  0  0  0  0  0  0  0  0
    1.4790   -0.7050   -0.2200 C   0  0  0  0  0  0  0  0  0  0  0  0
  2  1  1  1
  2  3  1  0
  2  4  1  0
  5  4  1  6
  5  6  1  0
  5 12  1  0
  6  7  1  1
  6  8  1  0
  8  9  1  6
  8 10  1  0
  8 11  1  0
 12 13  1  6
 12 14  1  0
 12 22  1  0
 14 15  1  0
 15 16  1  0
 16 17  1  0
 17 18  1  1
 17 21  1  0
 17 22  1  0
 18 19  1  0
 19 20  1  0
 20 21  1  0
M  CHG  1   3   1
M  END
