
     RDKit          3D

 20 19  0  0  0  0  0  0  0  0999 V2000
   -2.0150   -1.9170    0.3940 C   0  0  0  0  0  0  0  0  0  0  0  0
   -2.6720   -0.9340   -0.1540 C   0  0  0  0  0  0  0  0  0  0  0  0
   -3.3980   -1.3280   -1.2920 O   0  0  0  0  0  0  0  0  0  0  0  0
   -2.6760    0.4280    0.3310 C   0  0  0  0  0  0  0  0  0  0  0  0
   -3.3350    1.4150   -0.2270 C   0  0  0  0  0  0  0  0  0  0  0  0
   -4.1940    1.4410   -1.4060 C   0  0  0  0  0  0  0  0  0  0  0  0
   -5.8540    2.0250   -0.8390 S   0  0  0  0  0  0  0  0  0  0  0  0
   -1.7700    0.8690    1.7900 S   0  0  1  0  0  0  0  0  0  0  0  0
   -2.4800    2.0720    2.4150 O   0  0  0  0  0  0  0  0  0  0  0  0
   -1.7470   -0.2360    2.7960 O   0  0  0  0  0  0  0  0  0  0  0  0
   -0.1680    1.2980    1.3730 N   0  0  0  0  0  0  0  0  0  0  0  0
    0.5960    0.2500    0.7560 C   0  0  0  0  0  0  0  0  0  0  0  0
    2.0050    0.7550    0.4300 C   0  0  0  0  0  0  0  0  0  0  0  0
    2.7430   -0.3670   -0.1970 C   0  0  0  0  0  0  0  0  0  0  0  0
    3.1620   -1.2630    0.5770 O   0  0  0  0  0  0  0  0  0  0  0  0
    2.9620   -0.4320   -1.5570 O   0  0  0  0  0  0  0  0  0  0  0  0
    3.7000   -1.5720   -2.0230 C   0  0  0  0  0  0  0  0  0  0  0  0
    5.0450   -1.4770   -1.3650 C   0  0  0  0  0  0  0  0  0  0  0  0
    5.4100   -0.3940   -0.5100 N   0  0  0  0  0  0  0  0  0  0  0  0
    5.8920   -2.3790   -1.5690 O   0  0  0  0  0  0  0  0  0  0  0  0
  1  2  2  0
  2  3  1  0
  2  4  1  0
  4  5  2  3
  4  8  1  0
  5  6  1  0
  6  7  1  0
  8  9  2  0
  8 10  2  0
  8 11  1  6
 11 12  1  0
 12 13  1  0
 13 14  1  0
 14 15  2  0
 14 16  1  0
 16 17  1  0
 17 18  1  0
 18 19  1  0
 18 20  2  0
M  END
