
     RDKit          3D

 22 24  0  0  0  0  0  0  0  0999 V2000
    5.7410    1.3840    0.7370 C   0  0  0  0  0  0  0  0  0  0  0  0
    4.7900    0.2220    0.8190 C   0  0  1  0  0  0  0  0  0  0  0  0
    3.9670    0.2830    2.0860 C   0  0  0  0  0  0  0  0  0  0  0  0
    2.6740   -0.4750    1.8760 C   0  0  0  0  0  0  0  0  0  0  0  0
    1.7650    0.2450    0.8850 C   0  0  2  0  0  0  0  0  0  0  0  0
    0.8200   -0.7530    0.2110 C   0  0  2  0  0  0  0  0  0  0  0  0
    1.4690   -1.7130   -0.4800 O   0  0  0  0  0  0  0  0  0  0  0  0
    1.2320   -1.9340   -1.7790 C   0  0  0  0  0  0  0  0  0  0  0  0
    0.5700   -0.8560   -2.5570 C   0  0  0  0  0  0  0  0  0  0  0  0
   -0.6490   -0.4130   -1.8290 C   0  0  0  0  0  0  0  0  0  0  0  0
   -0.3200   -0.0520   -0.4310 C   0  0  2  0  0  0  0  0  0  0  0  0
   -0.0650    1.3410   -0.4110 O   0  0  0  0  0  0  0  0  0  0  0  0
   -1.6230   -0.1880    0.3760 C   0  0  0  0  0  0  0  0  0  0  0  0
   -2.6740    0.5660   -0.2530 N   0  0  0  0  0  0  0  0  0  0  0  0
   -3.7010   -0.2430   -0.8320 C   0  0  0  0  0  0  0  0  0  0  0  0
   -5.0590   -0.0050   -0.2100 C   0  0  2  0  0  0  0  0  0  0  0  0
   -5.4530    1.4520   -0.2600 C   0  0  0  0  0  0  0  0  0  0  0  0
   -5.8660    1.7250    1.0420 O   0  0  0  0  0  0  0  0  0  0  0  0
   -6.1740    0.4560    1.5830 C   0  0  0  0  0  0  0  0  0  0  0  0
   -5.0740   -0.2790    1.1440 O   0  0  0  0  0  0  0  0  0  0  0  0
    2.6440    0.9790   -0.0620 C   0  0  0  0  0  0  0  0  0  0  0  0
    3.9090    0.2310   -0.4120 C   0  0  0  0  0  0  0  0  0  0  0  0
  2  1  1  6
  2  3  1  0
  2 22  1  0
  3  4  1  0
  5  4  1  1
  5  6  1  0
  5 21  1  0
  6  7  1  6
  6 11  1  0
  7  8  1  0
  8  9  1  0
  9 10  1  0
 10 11  1  0
 11 12  1  6
 11 13  1  0
 13 14  1  0
 14 15  1  0
 16 15  1  1
 16 17  1  0
 16 20  1  0
 17 18  1  0
 18 19  1  0
 19 20  1  0
 21 22  1  0
M  CHG  1  14   1
M  END
