
     RDKit          3D

 12 12  0  0  0  0  0  0  0  0999 V2000
    2.4220    0.2080   -0.9070 C   0  0  0  0  0  0  0  0  0  0  0  0
    1.1520   -0.4500   -0.4870 C   0  0  2  0  0  0  0  0  0  0  0  0
    1.2070   -1.8180   -0.6260 O   0  0  0  0  0  0  0  0  0  0  0  0
   -0.0720    0.1250   -1.1790 C   0  0  0  0  0  0  0  0  0  0  0  0
   -1.0180    0.3400   -0.0200 C   0  0  1  0  0  0  0  0  0  0  0  0
   -1.0330    1.6770    0.3870 O   0  0  0  0  0  0  0  0  0  0  0  0
   -2.4220   -0.1080   -0.3320 C   0  0  2  0  0  0  0  0  0  0  0  0
   -2.4480   -1.4230   -0.7380 O   0  0  0  0  0  0  0  0  0  0  0  0
   -2.9280    0.7360   -1.3050 O   0  0  0  0  0  0  0  0  0  0  0  0
   -0.4720   -0.3790    1.0640 O   0  0  0  0  0  0  0  0  0  0  0  0
    0.8660   -0.0240    0.9550 C   0  0  1  0  0  0  0  0  0  0  0  0
    1.6900   -0.6270    1.8590 O   0  0  0  0  0  0  0  0  0  0  0  0
  2  1  1  6
  2  3  1  0
  2  4  1  0
  2 11  1  0
  4  5  1  0
  5  6  1  1
  5  7  1  0
  5 10  1  0
  7  8  1  6
  7  9  1  0
 10 11  1  0
 11 12  1  1
M  END
