
     RDKit          3D

 18 20  0  0  0  0  0  0  0  0999 V2000
   -2.4760    2.1700   -0.4500 N   0  0  0  0  0  0  0  0  0  0  0  0
   -2.8260    0.9280    0.1710 C   0  0  1  0  0  0  0  0  0  0  0  0
   -3.8100    0.1320   -0.6590 C   0  0  0  0  0  0  0  0  0  0  0  0
   -4.2160   -1.1250    0.0380 C   0  0  0  0  0  0  0  0  0  0  0  0
   -3.3320   -1.5490    1.1670 C   0  0  0  0  0  0  0  0  0  0  0  0
   -1.9100   -1.2140    0.8980 C   0  0  0  0  0  0  0  0  0  0  0  0
   -0.9360   -2.0960    1.1380 N   0  0  0  0  0  0  0  0  0  0  0  0
    0.3680   -1.7480    0.8770 C   0  0  0  0  0  0  0  0  0  0  0  0
    1.2460   -2.6060    1.1180 O   0  0  0  0  0  0  0  0  0  0  0  0
    0.6740   -0.5220    0.3790 C   0  0  0  0  0  0  0  0  0  0  0  0
    2.0260   -0.1250    0.0840 C   0  0  0  0  0  0  0  0  0  0  0  0
    2.3520    1.1100   -0.3760 C   0  0  0  0  0  0  0  0  0  0  0  0
    3.7950    1.4170   -0.6520 C   0  0  0  0  0  0  0  0  0  0  0  0
    4.7170    0.9580    0.4260 C   0  0  0  0  0  0  0  0  0  0  0  0
    4.1340   -0.1940    1.2120 C   0  0  0  0  0  0  0  0  0  0  0  0
    3.2420   -0.9740    0.2250 C   0  0  0  0  0  0  0  0  0  0  0  0
   -0.3540    0.3980    0.1300 C   0  0  0  0  0  0  0  0  0  0  0  0
   -1.6590    0.0430    0.3940 C   0  0  0  0  0  0  0  0  0  0  0  0
  2  1  1  6
  2  3  1  0
  2 18  1  0
  3  4  1  0
  4  5  1  0
  5  6  1  0
  6  7  1  0
  6 18  2  0
  7  8  1  0
  8  9  2  0
  8 10  1  0
 10 11  1  0
 10 17  2  0
 11 12  2  0
 11 16  1  0
 12 13  1  0
 13 14  1  0
 14 15  1  0
 15 16  1  0
 17 18  1  0
M  CHG  1   1   1
M  END
