
     RDKit          3D

 11 11  0  0  0  0  0  0  0  0999 V2000
    3.0400   -0.4850    0.0520 C   0  0  0  0  0  0  0  0  0  0  0  0
    1.7680   -0.3150    0.5590 O   0  0  0  0  0  0  0  0  0  0  0  0
    0.7930   -0.1790   -0.4100 C   0  0  1  0  0  0  0  0  0  0  0  0
   -0.3020   -1.1400   -0.3000 C   0  0  0  0  0  0  0  0  0  0  0  0
   -1.4960   -0.7250    0.0680 C   0  0  0  0  0  0  0  0  0  0  0  0
   -2.5200   -1.6890    0.1600 O   0  0  0  0  0  0  0  0  0  0  0  0
   -1.8420    0.6760    0.3920 C   0  0  1  0  0  0  0  0  0  0  0  0
   -2.7710    0.6310    1.4450 O   0  0  0  0  0  0  0  0  0  0  0  0
   -0.6680    1.3100    0.7900 O   0  0  0  0  0  0  0  0  0  0  0  0
    0.2210    1.2140   -0.2910 C   0  0  2  0  0  0  0  0  0  0  0  0
   -0.4870    1.5700   -1.4470 O   0  0  0  0  0  0  0  0  0  0  0  0
  1  2  1  0
  3  2  1  1
  3  4  1  0
  3 10  1  0
  4  5  2  0
  5  6  1  0
  5  7  1  0
  7  8  1  1
  7  9  1  0
  9 10  1  0
 10 11  1  6
M  END
