
     RDKit          3D

 18 20  0  0  0  0  0  0  0  0999 V2000
    1.5660   -2.4160   -0.7090 C   0  0  0  0  0  0  0  0  0  0  0  0
    1.2990   -0.9940   -0.2810 C   0  0  0  0  0  0  0  0  0  0  0  0
    2.3100   -0.2220    0.1060 C   0  0  0  0  0  0  0  0  0  0  0  0
    3.7030   -0.7410    0.1250 C   0  0  0  0  0  0  0  0  0  0  0  0
    4.5930   -0.0140   -0.7270 N   0  0  0  0  0  0  0  0  0  0  0  0
    2.0950    1.1610    0.4990 C   0  0  0  0  0  0  0  0  0  0  0  0
    3.0940    1.8900    0.8730 O   0  0  0  0  0  0  0  0  0  0  0  0
    0.7900    1.6980    0.4710 N   0  0  0  0  0  0  0  0  0  0  0  0
    0.2290    2.9060    0.9990 C   0  0  0  0  0  0  0  0  0  0  0  0
   -1.2360    2.5520    1.2610 C   0  0  0  0  0  0  0  0  0  0  0  0
   -1.3750    1.1210    0.8890 C   0  0  1  0  0  0  0  0  0  0  0  0
   -2.6260    0.7000    0.2210 C   0  0  0  0  0  0  0  0  0  0  0  0
   -2.4990   -0.7070   -0.2860 C   0  0  2  0  0  0  0  0  0  0  0  0
   -3.0950   -0.8810   -1.6510 C   0  0  0  0  0  0  0  0  0  0  0  0
   -3.2810   -1.5980    0.6770 C   0  0  0  0  0  0  0  0  0  0  0  0
   -1.0990   -1.2200   -0.3020 C   0  0  0  0  0  0  0  0  0  0  0  0
   -0.0420   -0.4540   -0.2640 C   0  0  0  0  0  0  0  0  0  0  0  0
   -0.2710    1.0120   -0.1800 C   0  0  2  0  0  0  0  0  0  0  0  0
  1  2  1  0
  2  3  2  0
  2 17  1  0
  3  4  1  0
  3  6  1  0
  4  5  1  0
  6  7  2  0
  6  8  1  0
  8  9  1  0
 18  8  1  1
  9 10  1  0
 11 10  1  6
 11 12  1  0
 11 18  1  0
 12 13  1  0
 13 14  1  6
 13 15  1  0
 13 16  1  0
 16 17  2  0
 17 18  1  0
M  CHG  1   5   1
M  END
