
     RDKit          3D

 12 12  0  0  0  0  0  0  0  0999 V2000
    1.0990   -0.4500   -1.6580 C   0  0  0  0  0  0  0  0  0  0  0  0
    0.6000   -0.4490   -0.2250 C   0  0  2  0  0  0  0  0  0  0  0  0
    1.6490   -0.9970    0.6570 C   0  0  0  0  0  0  0  0  0  0  0  0
    2.7920   -0.4930    0.7860 O   0  0  0  0  0  0  0  0  0  0  0  0
    1.3590   -2.1370    1.3910 O   0  0  0  0  0  0  0  0  0  0  0  0
   -0.5340   -1.1970   -0.1640 O   0  0  0  0  0  0  0  0  0  0  0  0
   -1.5160   -0.5210    0.5000 C   0  0  2  0  0  0  0  0  0  0  0  0
   -2.7450   -0.7870   -0.1370 O   0  0  0  0  0  0  0  0  0  0  0  0
   -1.2030    0.9430    0.4610 C   0  0  2  0  0  0  0  0  0  0  0  0
   -1.8770    1.6020   -0.5660 O   0  0  0  0  0  0  0  0  0  0  0  0
    0.2830    0.9560    0.2120 C   0  0  2  0  0  0  0  0  0  0  0  0
    0.6620    1.8880   -0.7490 O   0  0  0  0  0  0  0  0  0  0  0  0
  2  1  1  6
  2  3  1  0
  2  6  1  0
  2 11  1  0
  3  4  2  0
  3  5  1  0
  6  7  1  0
  7  8  1  6
  7  9  1  0
  9 10  1  6
  9 11  1  0
 11 12  1  6
M  END
