
     RDKit          3D

 11 11  0  0  0  0  0  0  0  0999 V2000
    3.0930    0.4160   -1.4640 O   0  0  0  0  0  0  0  0  0  0  0  0
    2.6180   -0.0230   -0.2310 C   0  0  0  0  0  0  0  0  0  0  0  0
    1.2860    0.6340    0.0710 C   0  0  2  0  0  0  0  0  0  0  0  0
    0.8530    0.1760    1.2920 O   0  0  0  0  0  0  0  0  0  0  0  0
   -0.1580   -0.7480    1.0750 C   0  0  0  0  0  0  0  0  0  0  0  0
   -0.7210   -0.2970   -0.2490 C   0  0  1  0  0  0  0  0  0  0  0  0
   -1.1900   -1.3640   -0.9980 O   0  0  0  0  0  0  0  0  0  0  0  0
   -1.8430    0.6620    0.0320 C   0  0  1  0  0  0  0  0  0  0  0  0
   -2.4130    1.1830   -1.1300 O   0  0  0  0  0  0  0  0  0  0  0  0
   -2.8040   -0.0190    0.7790 O   0  0  0  0  0  0  0  0  0  0  0  0
    0.3570    0.2640   -0.8840 O   0  0  0  0  0  0  0  0  0  0  0  0
  1  2  1  0
  3  2  1  6
  3  4  1  0
  3 11  1  0
  4  5  1  0
  5  6  1  0
  6  7  1  6
  6  8  1  0
  6 11  1  0
  8  9  1  6
  8 10  1  0
M  END
