
     RDKit          3D

 30 32  0  0  0  0  0  0  0  0999 V2000
    7.9090    1.8880   -1.6010 C   0  0  0  0  0  0  0  0  0  0  0  0
    6.5780    1.4420   -1.6170 O   0  0  0  0  0  0  0  0  0  0  0  0
    6.2050    0.1060   -1.6790 C   0  0  0  0  0  0  0  0  0  0  0  0
    7.1310   -0.7450   -1.7230 O   0  0  0  0  0  0  0  0  0  0  0  0
    4.8510   -0.2950   -1.6920 N   0  0  0  0  0  0  0  0  0  0  0  0
    4.5070   -1.6950   -1.7570 C   0  0  0  0  0  0  0  0  0  0  0  0
    3.2910   -2.0010   -0.8970 C   0  0  0  0  0  0  0  0  0  0  0  0
    3.1160   -0.9350    0.0070 O   0  0  0  0  0  0  0  0  0  0  0  0
    2.7140    0.1610   -0.7180 C   0  0  1  0  0  0  0  0  0  0  0  0
    2.1620    1.2700    0.1610 C   0  0  0  0  0  0  0  0  0  0  0  0
    1.0140    0.7790    0.8990 N   0  0  0  0  0  0  0  0  0  0  0  0
    0.2820    1.5870    1.8060 C   0  0  0  0  0  0  0  0  0  0  0  0
    0.6510    2.7730    1.9690 O   0  0  0  0  0  0  0  0  0  0  0  0
   -0.9020    1.0580    2.5570 C   0  0  2  0  0  0  0  0  0  0  0  0
   -0.3880   -0.0960    3.3700 C   0  0  0  0  0  0  0  0  0  0  0  0
   -1.5430   -1.0030    3.7460 C   0  0  0  0  0  0  0  0  0  0  0  0
   -1.9940   -1.6290    2.4430 C   0  0  0  0  0  0  0  0  0  0  0  0
   -2.5380   -0.5600    1.6290 N   0  0  0  0  0  0  0  0  0  0  0  0
   -3.6920   -0.9010    0.8100 C   0  0  0  0  0  0  0  0  0  0  0  0
   -4.1610   -2.0420    0.8260 O   0  0  0  0  0  0  0  0  0  0  0  0
   -4.2570    0.0940    0.0020 N   0  0  0  0  0  0  0  0  0  0  0  0
   -5.3990   -0.0640   -0.8720 C   0  0  0  0  0  0  0  0  0  0  0  0
   -6.0640   -1.1550   -1.0350 C   0  0  0  0  0  0  0  0  0  0  0  0
   -7.2300   -1.4800   -1.8710 C   0  0  0  0  0  0  0  0  0  0  0  0
   -7.7970   -0.0820   -2.8160 S   0  0  0  0  0  0  0  0  0  0  0  0
   -6.7470    1.2820   -2.4350 C   0  0  0  0  0  0  0  0  0  0  0  0
   -5.7560    1.1760   -1.5920 C   0  0  0  0  0  0  0  0  0  0  0  0
   -4.8110    2.6750   -1.3440 Cl  0  0  0  0  0  0  0  0  0  0  0  0
   -2.0010    0.7530    1.6120 C   0  0  0  0  0  0  0  0  0  0  0  0
    3.7920    0.6840   -1.6420 C   0  0  0  0  0  0  0  0  0  0  0  0
  1  2  1  0
  2  3  1  0
  3  4  2  0
  3  5  1  0
  5  6  1  0
  5 30  1  0
  6  7  1  0
  7  8  1  0
  8  9  1  0
  9 10  1  1
  9 30  1  0
 10 11  1  0
 11 12  1  0
 12 13  2  0
 14 12  1  6
 14 15  1  0
 14 29  1  0
 15 16  1  0
 16 17  1  0
 17 18  1  0
 18 19  1  0
 18 29  1  0
 19 20  2  0
 19 21  1  0
 21 22  1  0
 22 23  2  0
 22 27  1  0
 23 24  1  0
 24 25  1  0
 25 26  1  0
 26 27  2  0
 27 28  1  0
M  END
