
     RDKit          3D

 30 32  0  0  0  0  0  0  0  0999 V2000
    5.5610   -1.1570    0.6480 C   0  0  0  0  0  0  0  0  0  0  0  0
    5.4460   -1.8760   -0.6370 C   0  0  0  0  0  0  0  0  0  0  0  0
    5.9150   -3.5480   -0.7450 Cl  0  0  0  0  0  0  0  0  0  0  0  0
    4.9890   -1.2580   -1.7090 C   0  0  0  0  0  0  0  0  0  0  0  0
    4.6040    0.0830   -1.6650 N   0  0  0  0  0  0  0  0  0  0  0  0
    3.4540    0.5630   -1.8280 C   0  0  0  0  0  0  0  0  0  0  0  0
    2.9220    1.8790   -1.8120 N   0  0  0  0  0  0  0  0  0  0  0  0
    1.5820    1.9760   -1.4200 C   0  0  0  0  0  0  0  0  0  0  0  0
    0.9500    3.0800   -1.3650 O   0  0  0  0  0  0  0  0  0  0  0  0
    0.9280    0.7440   -1.0820 C   0  0  0  0  0  0  0  0  0  0  0  0
    0.0170    0.3010   -0.2780 C   0  0  0  0  0  0  0  0  0  0  0  0
   -0.7370    1.0690    0.7050 C   0  0  0  0  0  0  0  0  0  0  0  0
   -0.3210    2.4430    0.9710 C   0  0  0  0  0  0  0  0  0  0  0  0
    0.8630    2.5630    1.4810 O   0  0  0  0  0  0  0  0  0  0  0  0
   -1.0910    3.6060    0.7270 N   0  0  0  0  0  0  0  0  0  0  0  0
   -2.3980    3.6320    0.1700 C   0  0  0  0  0  0  0  0  0  0  0  0
   -2.3990    4.4320   -1.1290 C   0  0  0  0  0  0  0  0  0  0  0  0
   -1.9040    5.7180   -0.8510 O   0  0  0  0  0  0  0  0  0  0  0  0
   -1.2280    5.9810    0.3340 C   0  0  0  0  0  0  0  0  0  0  0  0
   -1.2260    7.1360    0.7850 O   0  0  0  0  0  0  0  0  0  0  0  0
   -0.5030    4.9090    1.0770 C   0  0  0  0  0  0  0  0  0  0  0  0
   -0.2890   -1.1350   -0.4060 N   0  0  0  0  0  0  0  0  0  0  0  0
   -1.2480   -1.7860    0.3680 C   0  0  0  0  0  0  0  0  0  0  0  0
   -1.9130   -1.1750    1.2220 O   0  0  0  0  0  0  0  0  0  0  0  0
   -1.4670   -3.2340    0.1540 C   0  0  0  0  0  0  0  0  0  0  0  0
   -2.3690   -3.8450    0.8840 C   0  0  0  0  0  0  0  0  0  0  0  0
   -2.6150   -5.3010    0.6960 C   0  0  1  0  0  0  0  0  0  0  0  0
   -3.4730   -6.0550    1.6310 C   0  0  0  0  0  0  0  0  0  0  0  0
   -4.0360   -5.6230    0.2970 C   0  0  0  0  0  0  0  0  0  0  0  0
    1.9340   -0.4070   -2.1770 S   0  0  0  0  0  0  0  0  0  0  0  0
  1  2  1  0
  2  3  1  0
  2  4  2  3
  4  5  1  0
  5  6  2  3
  6  7  1  0
  6 30  1  0
  7  8  1  0
  8  9  2  0
  8 10  1  0
 10 11  2  3
 10 30  1  0
 11 12  1  0
 11 22  1  0
 12 13  1  0
 13 14  2  0
 13 15  1  0
 15 16  1  0
 15 21  1  0
 16 17  1  0
 17 18  1  0
 18 19  1  0
 19 20  2  0
 19 21  1  0
 22 23  1  0
 23 24  2  0
 23 25  1  0
 25 26  2  3
 27 26  1  1
 27 28  1  0
 27 29  1  0
 28 29  1  0
M  END
