
     RDKit          3D

 30 32  0  0  0  0  0  0  0  0999 V2000
   -6.6850    1.8690   -1.3050 C   0  0  0  0  0  0  0  0  0  0  0  0
   -6.4930    0.4100   -0.9690 C   0  0  0  0  0  0  0  0  0  0  0  0
   -5.2590   -0.0290   -0.8890 C   0  0  0  0  0  0  0  0  0  0  0  0
   -4.2340    0.8700   -1.1190 N   0  0  0  0  0  0  0  0  0  0  0  0
   -2.9670    0.5160   -1.0590 C   0  0  0  0  0  0  0  0  0  0  0  0
   -1.5990    1.6280   -1.3380 S   0  0  0  0  0  0  0  0  0  0  0  0
   -1.1060    2.4550    0.1940 C   0  0  1  0  0  0  0  0  0  0  0  0
   -2.2620    3.3550    0.6090 C   0  0  0  0  0  0  0  0  0  0  0  0
   -0.8920    1.4540    1.2820 C   0  0  0  0  0  0  0  0  0  0  0  0
    0.1180    0.4770    1.0290 N   0  0  0  0  0  0  0  0  0  0  0  0
    1.4840    0.7860    0.7830 C   0  0  0  0  0  0  0  0  0  0  0  0
    1.8380    1.9930    0.7840 O   0  0  0  0  0  0  0  0  0  0  0  0
    2.4290   -0.3030    0.5370 C   0  0  1  0  0  0  0  0  0  0  0  0
    1.9890   -1.2520   -0.5680 C   0  0  0  0  0  0  0  0  0  0  0  0
    2.8970   -2.3610   -0.4940 O   0  0  0  0  0  0  0  0  0  0  0  0
    4.2590   -2.1670   -0.2890 C   0  0  0  0  0  0  0  0  0  0  0  0
    5.1850   -3.1710   -0.4750 C   0  0  0  0  0  0  0  0  0  0  0  0
    6.5320   -2.9660   -0.2680 C   0  0  0  0  0  0  0  0  0  0  0  0
    6.9270   -1.7440    0.1270 N   0  0  0  0  0  0  0  0  0  0  0  0
    6.0340   -0.7550    0.3120 C   0  0  0  0  0  0  0  0  0  0  0  0
    6.4600    0.5150    0.7240 O   0  0  0  0  0  0  0  0  0  0  0  0
    7.8340    0.7790    0.9510 C   0  0  0  0  0  0  0  0  0  0  0  0
    4.6860   -0.9130    0.1190 C   0  0  0  0  0  0  0  0  0  0  0  0
    3.7460    0.1130    0.3100 O   0  0  0  0  0  0  0  0  0  0  0  0
   -2.6910   -0.7600   -0.7650 N   0  0  0  0  0  0  0  0  0  0  0  0
   -3.6260   -1.6700   -0.5350 C   0  0  0  0  0  0  0  0  0  0  0  0
   -3.2820   -2.8500   -0.2650 O   0  0  0  0  0  0  0  0  0  0  0  0
   -5.0030   -1.3300   -0.5900 C   0  0  0  0  0  0  0  0  0  0  0  0
   -5.8430   -2.2970   -0.3470 C   0  0  0  0  0  0  0  0  0  0  0  0
   -7.5690   -2.2300   -0.3310 Cl  0  0  0  0  0  0  0  0  0  0  0  0
  1  2  1  0
  2  3  2  3
  3  4  1  0
  3 28  1  0
  4  5  2  0
  5  6  1  0
  5 25  1  0
  6  7  1  0
  7  8  1  1
  7  9  1  0
  9 10  1  0
 10 11  1  0
 11 12  2  0
 13 11  1  6
 13 14  1  0
 13 24  1  0
 14 15  1  0
 15 16  1  0
 16 17  2  0
 16 23  1  0
 17 18  1  0
 18 19  2  0
 19 20  1  0
 20 21  1  0
 20 23  2  0
 21 22  1  0
 23 24  1  0
 25 26  1  0
 26 27  2  0
 26 28  1  0
 28 29  2  3
 29 30  1  0
M  END
