
     RDKit          3D

 31 34  0  0  0  0  0  0  0  0999 V2000
    0.7000    1.6270    1.0920 C   0  0  0  0  0  0  0  0  0  0  0  0
    1.9110    0.8780    0.7450 C   0  0  0  0  0  0  0  0  0  0  0  0
    3.0960    1.5420    0.5740 C   0  0  0  0  0  0  0  0  0  0  0  0
    4.1970    0.8710    0.2600 N   0  0  0  0  0  0  0  0  0  0  0  0
    4.2010   -0.4280    0.1040 C   0  0  0  0  0  0  0  0  0  0  0  0
    5.3620   -1.1480   -0.2290 N   0  0  0  0  0  0  0  0  0  0  0  0
    6.6120   -0.5630   -0.4390 C   0  0  0  0  0  0  0  0  0  0  0  0
    7.7450   -1.3950   -0.3570 C   0  0  0  0  0  0  0  0  0  0  0  0
    9.0010   -0.9010   -0.5730 C   0  0  0  0  0  0  0  0  0  0  0  0
    9.1930    0.4170   -0.8760 C   0  0  0  0  0  0  0  0  0  0  0  0
    8.0920    1.2260   -0.9550 C   0  0  0  0  0  0  0  0  0  0  0  0
    6.7860    0.7570   -0.7400 C   0  0  0  0  0  0  0  0  0  0  0  0
    3.0110   -1.1040    0.2750 N   0  0  0  0  0  0  0  0  0  0  0  0
    1.8690   -0.4780    0.5910 C   0  0  0  0  0  0  0  0  0  0  0  0
    0.6250   -1.1860    0.7710 C   0  0  0  0  0  0  0  0  0  0  0  0
    0.4290   -2.3710    1.4920 C   0  0  0  0  0  0  0  0  0  0  0  0
   -0.8710   -2.7060    1.4150 N   0  0  0  0  0  0  0  0  0  0  0  0
   -1.5220   -1.7890    0.6760 C   0  0  0  0  0  0  0  0  0  0  0  0
   -2.9570   -1.7880    0.3510 C   0  0  0  0  0  0  0  0  0  0  0  0
   -3.7080   -2.7030    0.7770 O   0  0  0  0  0  0  0  0  0  0  0  0
   -3.5240   -0.7610   -0.4460 N   0  0  0  0  0  0  0  0  0  0  0  0
   -4.9290   -0.7780   -0.7510 C   0  0  2  0  0  0  0  0  0  0  0  0
   -5.1850   -0.9550   -2.2370 C   0  0  0  0  0  0  0  0  0  0  0  0
   -4.6410    0.0430   -3.0060 O   0  0  0  0  0  0  0  0  0  0  0  0
   -5.6420    0.4030   -0.2100 C   0  0  0  0  0  0  0  0  0  0  0  0
   -6.8530    0.2790    0.4420 C   0  0  0  0  0  0  0  0  0  0  0  0
   -7.5380    1.3480    0.9530 C   0  0  0  0  0  0  0  0  0  0  0  0
   -7.0250    2.6170    0.8280 C   0  0  0  0  0  0  0  0  0  0  0  0
   -5.8170    2.7850    0.1820 C   0  0  0  0  0  0  0  0  0  0  0  0
   -5.1350    1.6790   -0.3320 C   0  0  0  0  0  0  0  0  0  0  0  0
   -0.6140   -0.8360    0.2650 C   0  0  0  0  0  0  0  0  0  0  0  0
  1  2  1  0
  2  3  2  0
  2 14  1  0
  3  4  1  0
  4  5  2  0
  5  6  1  0
  5 13  1  0
  6  7  1  0
  7  8  2  0
  7 12  1  0
  8  9  1  0
  9 10  2  0
 10 11  1  0
 11 12  2  0
 13 14  2  0
 14 15  1  0
 15 16  2  0
 15 31  1  0
 16 17  1  0
 17 18  1  0
 18 19  1  0
 18 31  2  0
 19 20  2  0
 19 21  1  0
 21 22  1  0
 22 23  1  6
 22 25  1  0
 23 24  1  0
 25 26  2  0
 25 30  1  0
 26 27  1  0
 27 28  2  0
 28 29  1  0
 29 30  2  0
M  END
