
     RDKit          3D

 30 33  0  0  0  0  0  0  0  0999 V2000
   -1.0320    3.2440   -0.8570 C   0  0  0  0  0  0  0  0  0  0  0  0
   -2.1050    2.1700   -0.5290 C   0  0  0  0  0  0  0  0  0  0  0  0
   -1.5540    0.9370   -0.5060 O   0  0  0  0  0  0  0  0  0  0  0  0
   -2.3810   -0.1130   -0.2730 C   0  0  2  0  0  0  0  0  0  0  0  0
   -3.5040   -0.2600   -1.3150 C   0  0  0  0  0  0  0  0  0  0  0  0
   -3.0960    0.0570    1.0380 C   0  0  0  0  0  0  0  0  0  0  0  0
   -2.4110   -0.6340    2.2070 C   0  0  0  0  0  0  0  0  0  0  0  0
   -2.6170   -2.1440    1.9130 C   0  0  0  0  0  0  0  0  0  0  0  0
   -1.7660   -2.3500    0.6970 C   0  0  0  0  0  0  0  0  0  0  0  0
   -1.0860   -3.5780    0.6510 C   0  0  0  0  0  0  0  0  0  0  0  0
   -0.2480   -3.8440   -0.4030 C   0  0  0  0  0  0  0  0  0  0  0  0
   -0.1250   -2.8770   -1.3610 C   0  0  0  0  0  0  0  0  0  0  0  0
    0.6450   -3.0960   -2.3470 O   0  0  0  0  0  0  0  0  0  0  0  0
   -0.7920   -1.6710   -1.3170 N   0  0  0  0  0  0  0  0  0  0  0  0
   -0.5630   -0.7280   -2.3600 C   0  0  0  0  0  0  0  0  0  0  0  0
    0.6230    0.1620   -2.0450 C   0  0  0  0  0  0  0  0  0  0  0  0
    0.8670    1.0310   -2.8760 O   0  0  0  0  0  0  0  0  0  0  0  0
    1.3750   -0.0090   -0.8870 N   0  0  0  0  0  0  0  0  0  0  0  0
    2.5210    0.7930   -0.5110 C   0  0  0  0  0  0  0  0  0  0  0  0
    3.1920    0.5960    0.5820 C   0  0  0  0  0  0  0  0  0  0  0  0
    3.2080   -0.2720    1.7380 N   0  0  0  0  0  0  0  0  0  0  0  0
    4.2780    0.0860    2.6010 C   0  0  0  0  0  0  0  0  0  0  0  0
    4.9320    1.2110    1.9400 C   0  0  0  0  0  0  0  0  0  0  0  0
    6.3280    2.0710    2.5520 Cl  0  0  0  0  0  0  0  0  0  0  0  0
    4.3080    1.4820    0.8100 C   0  0  0  0  0  0  0  0  0  0  0  0
    4.3280    2.5500   -0.5660 S   0  0  2  0  0  0  0  0  0  0  0  0
    5.5670    2.4190   -1.3840 O   0  0  0  0  0  0  0  0  0  0  0  0
    4.0730    3.9310   -0.0830 O   0  0  0  0  0  0  0  0  0  0  0  0
    2.9560    1.8450   -1.3440 N   0  0  0  0  0  0  0  0  0  0  0  0
   -1.6140   -1.4100   -0.2870 C   0  0  0  0  0  0  0  0  0  0  0  0
  1  2  1  0
  2  3  1  0
  3  4  1  0
  4  5  1  6
  4  6  1  0
  4 30  1  0
  6  7  1  0
  7  8  1  0
  8  9  1  0
  9 10  1  0
  9 30  2  0
 10 11  2  0
 11 12  1  0
 12 13  2  0
 12 14  1  0
 14 15  1  0
 14 30  1  0
 15 16  1  0
 16 17  2  0
 16 18  1  0
 18 19  1  0
 19 20  2  0
 19 29  1  0
 20 21  1  0
 20 25  1  0
 21 22  1  0
 22 23  1  0
 23 24  1  0
 23 25  2  0
 25 26  1  0
 26 27  2  0
 26 28  2  0
 26 29  1  6
M  END
