
     RDKit          3D

 30 33  0  0  0  0  0  0  0  0999 V2000
   -6.0140    1.6880    0.1390 C   0  0  0  0  0  0  0  0  0  0  0  0
   -6.1470    0.2640    0.6410 C   0  0  1  0  0  0  0  0  0  0  0  0
   -7.5080   -0.2920    0.4020 C   0  0  0  0  0  0  0  0  0  0  0  0
   -7.2740   -1.6350   -0.2280 C   0  0  0  0  0  0  0  0  0  0  0  0
   -5.9100   -1.5110   -0.8480 C   0  0  0  0  0  0  0  0  0  0  0  0
   -5.1790   -0.6170    0.0180 N   0  0  0  0  0  0  0  0  0  0  0  0
   -3.7860   -0.6130    0.2030 C   0  0  0  0  0  0  0  0  0  0  0  0
   -3.0810   -1.4320   -0.4160 O   0  0  0  0  0  0  0  0  0  0  0  0
   -3.1670    0.3430    1.1150 C   0  0  0  0  0  0  0  0  0  0  0  0
   -1.7530    0.2350    1.1620 O   0  0  0  0  0  0  0  0  0  0  0  0
   -0.9490    0.4240    0.0610 C   0  0  0  0  0  0  0  0  0  0  0  0
   -1.5650    0.7070   -1.0230 O   0  0  0  0  0  0  0  0  0  0  0  0
    0.4940    0.3310    0.0300 C   0  0  0  0  0  0  0  0  0  0  0  0
    1.2150    0.5490   -1.1210 C   0  0  0  0  0  0  0  0  0  0  0  0
    2.5850    0.4580   -1.1710 C   0  0  0  0  0  0  0  0  0  0  0  0
    3.2890    0.1350   -0.0330 C   0  0  0  0  0  0  0  0  0  0  0  0
    4.7270    0.0300   -0.0510 N   0  0  0  0  0  0  0  0  0  0  0  0
    5.5760    0.5740    0.9460 C   0  0  0  0  0  0  0  0  0  0  0  0
    5.3090    1.2190    1.9870 O   0  0  0  0  0  0  0  0  0  0  0  0
    6.9800    0.2680    0.5890 C   0  0  0  0  0  0  0  0  0  0  0  0
    8.1190    0.3970    1.2510 C   0  0  0  0  0  0  0  0  0  0  0  0
    9.6150   -0.1130    0.4010 S   0  0  0  0  0  0  0  0  0  0  0  0
    9.1500   -0.9780   -1.0670 N   0  0  0  0  0  0  0  0  0  0  0  0
    7.8220   -1.4410   -0.9510 N   0  0  0  0  0  0  0  0  0  0  0  0
    6.9900   -0.2800   -0.7900 C   0  0  2  0  0  0  0  0  0  0  0  0
    7.3940    1.0000   -1.9850 Cl  0  0  0  0  0  0  0  0  0  0  0  0
    5.5450   -0.5960   -1.0010 C   0  0  0  0  0  0  0  0  0  0  0  0
    5.0810   -1.3360   -1.9150 O   0  0  0  0  0  0  0  0  0  0  0  0
    2.6010   -0.0870    1.1270 C   0  0  0  0  0  0  0  0  0  0  0  0
    1.2010    0.0090    1.1630 C   0  0  0  0  0  0  0  0  0  0  0  0
  2  1  1  6
  2  3  1  0
  2  6  1  0
  3  4  1  0
  4  5  1  0
  5  6  1  0
  6  7  1  0
  7  8  2  0
  7  9  1  0
  9 10  1  0
 10 11  1  0
 11 12  2  0
 11 13  1  0
 13 14  2  0
 13 30  1  0
 14 15  1  0
 15 16  2  0
 16 17  1  0
 16 29  1  0
 17 18  1  0
 17 27  1  0
 18 19  2  0
 18 20  1  0
 20 21  2  0
 20 25  1  0
 21 22  1  0
 22 23  1  0
 23 24  1  0
 24 25  1  0
 25 26  1  6
 25 27  1  0
 27 28  2  0
 29 30  2  0
M  END
