
     RDKit          3D

 28 31  0  0  0  0  0  0  0  0999 V2000
   -8.4580    1.2320   -0.2850 C   0  0  0  0  0  0  0  0  0  0  0  0
   -7.4580    1.9600   -1.1820 C   0  0  0  0  0  0  0  0  0  0  0  0
   -6.1210    1.2790   -1.0300 C   0  0  0  0  0  0  0  0  0  0  0  0
   -5.5440    0.7520   -2.0480 N   0  0  0  0  0  0  0  0  0  0  0  0
   -4.2770    0.0730   -2.0610 C   0  0  0  0  0  0  0  0  0  0  0  0
   -3.6610    0.0310   -0.7140 C   0  0  0  0  0  0  0  0  0  0  0  0
   -2.4150   -0.6040   -0.5720 C   0  0  0  0  0  0  0  0  0  0  0  0
   -1.7900   -0.6820    0.6250 C   0  0  0  0  0  0  0  0  0  0  0  0
   -0.4880   -1.3460    0.7760 C   0  0  0  0  0  0  0  0  0  0  0  0
    0.2250   -1.4870    1.9000 N   0  0  0  0  0  0  0  0  0  0  0  0
    1.3800   -2.1610    1.6350 C   0  0  0  0  0  0  0  0  0  0  0  0
    2.4570   -2.5330    2.5870 C   0  0  0  0  0  0  0  0  0  0  0  0
    3.4540   -1.5340    2.6900 O   0  0  0  0  0  0  0  0  0  0  0  0
    4.2060   -1.1180    1.5990 C   0  0  0  0  0  0  0  0  0  0  0  0
    4.4710   -1.7790    0.5010 C   0  0  0  0  0  0  0  0  0  0  0  0
    5.3090   -1.0090   -0.4460 C   0  0  0  0  0  0  0  0  0  0  0  0
    5.5250    0.2420    0.2380 N   0  0  0  0  0  0  0  0  0  0  0  0
    6.3120    1.3390   -0.3220 C   0  0  2  0  0  0  0  0  0  0  0  0
    5.6900    1.8380   -1.5970 C   0  0  0  0  0  0  0  0  0  0  0  0
    7.7390    0.8970   -0.5160 C   0  0  0  0  0  0  0  0  0  0  0  0
    4.8590    0.1770    1.4730 C   0  0  0  0  0  0  0  0  0  0  0  0
    4.8630    1.1310    2.3070 O   0  0  0  0  0  0  0  0  0  0  0  0
    1.3200   -2.4110    0.3150 N   0  0  0  0  0  0  0  0  0  0  0  0
    0.2070   -1.9210   -0.1730 O   0  0  0  0  0  0  0  0  0  0  0  0
   -2.4130   -0.1160    1.7170 C   0  0  0  0  0  0  0  0  0  0  0  0
   -3.6320    0.5170    1.6310 C   0  0  0  0  0  0  0  0  0  0  0  0
   -4.2530    0.5860    0.3990 C   0  0  0  0  0  0  0  0  0  0  0  0
   -5.5140    1.2260    0.2420 N   0  0  0  0  0  0  0  0  0  0  0  0
  1  2  1  0
  2  3  1  0
  3  4  2  0
  3 28  1  0
  4  5  1  0
  5  6  1  0
  6  7  2  0
  6 27  1  0
  7  8  1  0
  8  9  1  0
  8 25  2  0
  9 10  2  0
  9 24  1  0
 10 11  1  0
 11 12  1  0
 11 23  2  0
 12 13  1  0
 13 14  1  0
 14 15  2  0
 14 21  1  0
 15 16  1  0
 16 17  1  0
 17 18  1  0
 17 21  1  0
 18 19  1  6
 18 20  1  0
 21 22  2  0
 23 24  1  0
 25 26  1  0
 26 27  2  0
 27 28  1  0
M  CHG  1   4   1
M  END
