
     RDKit          3D

 28 31  0  0  0  0  0  0  0  0999 V2000
   -6.2540   -1.6010   -0.1750 C   0  0  0  0  0  0  0  0  0  0  0  0
   -5.3010   -1.1700    0.9180 C   0  0  0  0  0  0  0  0  0  0  0  0
   -4.7180    0.1150    0.6970 N   0  0  0  0  0  0  0  0  0  0  0  0
   -5.3720    1.3020    1.2050 C   0  0  0  0  0  0  0  0  0  0  0  0
   -6.1560    1.1500    2.1790 O   0  0  0  0  0  0  0  0  0  0  0  0
   -5.1310    2.6500    0.6010 C   0  0  0  0  0  0  0  0  0  0  0  0
   -4.5400    2.4990   -0.7040 N   0  0  0  0  0  0  0  0  0  0  0  0
   -3.8530    1.3200   -1.1170 C   0  0  0  0  0  0  0  0  0  0  0  0
   -3.5820    1.0950   -2.3250 O   0  0  0  0  0  0  0  0  0  0  0  0
   -3.4840    0.3840   -0.0170 C   0  0  1  0  0  0  0  0  0  0  0  0
   -2.4820    1.1440    0.8610 C   0  0  0  0  0  0  0  0  0  0  0  0
   -1.4250    0.2100    1.3990 C   0  0  0  0  0  0  0  0  0  0  0  0
   -0.6910   -0.5060    0.4120 N   0  0  2  0  0  0  0  0  0  0  0  0
    0.7050   -0.1300    0.3450 C   0  0  0  0  0  0  0  0  0  0  0  0
    1.5280   -1.0830   -0.3990 C   0  0  0  0  0  0  0  0  0  0  0  0
    1.1120   -2.1790   -0.9690 O   0  0  0  0  0  0  0  0  0  0  0  0
    2.0540   -2.8250   -1.5540 N   0  0  0  0  0  0  0  0  0  0  0  0
    3.2040   -2.1330   -1.3810 C   0  0  0  0  0  0  0  0  0  0  0  0
    2.8740   -1.0010   -0.6320 C   0  0  0  0  0  0  0  0  0  0  0  0
    3.7830    0.0010   -0.2110 N   0  0  0  0  0  0  0  0  0  0  0  0
    4.0250    0.1460    1.2150 C   0  0  0  0  0  0  0  0  0  0  0  0
    5.4350   -0.1320    1.6200 C   0  0  0  0  0  0  0  0  0  0  0  0
    6.4780    0.3440    0.6570 C   0  0  0  0  0  0  0  0  0  0  0  0
    6.4270   -0.5000   -0.5980 C   0  0  0  0  0  0  0  0  0  0  0  0
    5.6580    0.1900   -1.7000 C   0  0  0  0  0  0  0  0  0  0  0  0
    4.3690    0.7920   -1.2610 C   0  0  0  0  0  0  0  0  0  0  0  0
   -1.3600   -0.4520   -0.8450 C   0  0  0  0  0  0  0  0  0  0  0  0
   -2.8230   -0.8530   -0.5760 C   0  0  0  0  0  0  0  0  0  0  0  0
  1  2  1  0
  2  3  1  0
  3  4  1  0
  3 10  1  0
  4  5  2  0
  4  6  1  0
  6  7  1  0
  7  8  1  0
  8  9  2  0
  8 10  1  0
 10 11  1  1
 10 28  1  0
 11 12  1  0
 12 13  1  0
 13 14  1  6
 13 27  1  0
 14 15  1  0
 15 16  1  0
 15 19  2  0
 16 17  1  0
 17 18  2  0
 18 19  1  0
 19 20  1  0
 20 21  1  0
 20 26  1  0
 21 22  1  0
 22 23  1  0
 23 24  1  0
 24 25  1  0
 25 26  1  0
 27 28  1  0
M  CHG  1  13   1
M  END
