
     RDKit          3D

 28 30  0  0  0  0  0  0  0  0999 V2000
   -0.9090    1.8060   -0.1040 C   0  0  0  0  0  0  0  0  0  0  0  0
   -1.8250    1.2550   -1.1500 C   0  0  0  0  0  0  0  0  0  0  0  0
   -2.7070    0.2750   -0.5400 N   0  0  0  0  0  0  0  0  0  0  0  0
   -2.1780   -0.9830   -0.1110 C   0  0  0  0  0  0  0  0  0  0  0  0
   -0.7820   -1.3090   -0.0640 N   0  0  0  0  0  0  0  0  0  0  0  0
   -0.3060   -2.2760    0.8000 C   0  0  0  0  0  0  0  0  0  0  0  0
    1.0290   -2.4690    0.6280 C   0  0  0  0  0  0  0  0  0  0  0  0
    1.4470   -1.6310   -0.3510 C   0  0  0  0  0  0  0  0  0  0  0  0
    2.8050   -1.4310   -0.9220 C   0  0  0  0  0  0  0  0  0  0  0  0
    3.3040   -0.1840   -0.4200 N   0  0  0  0  0  0  0  0  0  0  0  0
    3.4140   -0.0510    0.9760 C   0  0  0  0  0  0  0  0  0  0  0  0
    4.7360    0.3250    1.5330 C   0  0  0  0  0  0  0  0  0  0  0  0
    5.4890    1.2210    0.6750 N   0  0  1  0  0  0  0  0  0  0  0  0
    6.7490    1.5510    1.2740 C   0  0  0  0  0  0  0  0  0  0  0  0
    5.6680    0.4980   -0.5880 C   0  0  0  0  0  0  0  0  0  0  0  0
    4.3060    0.4220   -1.2220 C   0  0  0  0  0  0  0  0  0  0  0  0
    0.2830   -0.9360   -0.7450 C   0  0  0  0  0  0  0  0  0  0  0  0
   -3.0360   -1.8690    0.3900 C   0  0  0  0  0  0  0  0  0  0  0  0
   -4.4600   -1.6140    0.5210 C   0  0  0  0  0  0  0  0  0  0  0  0
   -5.2330   -2.7210    1.0410 C   0  0  0  0  0  0  0  0  0  0  0  0
   -6.4510   -2.6780    1.2040 O   0  0  0  0  0  0  0  0  0  0  0  0
   -4.6200   -3.9410    1.3990 O   0  0  0  0  0  0  0  0  0  0  0  0
   -4.9170   -0.4560    0.1290 C   0  0  0  0  0  0  0  0  0  0  0  0
   -6.3570   -0.1780    0.2670 C   0  0  0  0  0  0  0  0  0  0  0  0
   -4.0690    0.5880   -0.4400 N   0  0  0  0  0  0  0  0  0  0  0  0
   -4.6930    1.7500   -0.8950 C   0  0  0  0  0  0  0  0  0  0  0  0
   -4.2230    3.0860   -1.2250 C   0  0  0  0  0  0  0  0  0  0  0  0
   -5.9920    1.6600   -1.0630 O   0  0  0  0  0  0  0  0  0  0  0  0
  1  2  1  0
  2  3  1  0
  3  4  1  0
  3 25  1  0
  4  5  1  0
  4 18  2  0
  5  6  1  0
  5 17  1  0
  6  7  2  0
  7  8  1  0
  8  9  1  0
  8 17  2  0
  9 10  1  0
 10 11  1  0
 10 16  1  0
 11 12  1  0
 12 13  1  0
 13 14  1  1
 13 15  1  0
 15 16  1  0
 18 19  1  0
 19 20  1  0
 19 23  2  0
 20 21  2  0
 20 22  1  0
 23 24  1  0
 23 25  1  0
 25 26  1  0
 26 27  1  0
 26 28  2  0
M  CHG  1  13   1
M  END
