
     RDKit          3D

 28 30  0  0  0  0  0  0  0  0999 V2000
   -6.6230    0.0910   -0.3020 C   0  0  0  0  0  0  0  0  0  0  0  0
   -5.3750    0.4150   -0.4500 C   0  0  0  0  0  0  0  0  0  0  0  0
   -5.1720    1.6350   -1.3360 C   0  0  0  0  0  0  0  0  0  0  0  0
   -3.7810    1.9830   -1.5480 C   0  0  0  0  0  0  0  0  0  0  0  0
   -2.7720    1.3520   -1.0350 C   0  0  0  0  0  0  0  0  0  0  0  0
   -2.9410    0.2080   -0.1820 N   0  0  0  0  0  0  0  0  0  0  0  0
   -1.7470   -0.4030    0.3180 C   0  0  0  0  0  0  0  0  0  0  0  0
   -1.0220    0.4200    1.3640 C   0  0  0  0  0  0  0  0  0  0  0  0
    0.2250   -0.2550    1.8560 C   0  0  0  0  0  0  0  0  0  0  0  0
    1.2320   -0.4870    0.8730 N   0  0  0  0  0  0  0  0  0  0  0  0
    1.2800   -1.6070    0.1290 C   0  0  0  0  0  0  0  0  0  0  0  0
    0.5270   -2.7070    0.0560 N   0  0  0  0  0  0  0  0  0  0  0  0
    0.9750   -3.5590   -0.8450 N   0  0  0  0  0  0  0  0  0  0  0  0
    2.0900   -3.0430   -1.4330 C   0  0  0  0  0  0  0  0  0  0  0  0
    2.7620   -3.6020   -2.3340 O   0  0  0  0  0  0  0  0  0  0  0  0
    2.3440   -1.8130   -0.8690 C   0  0  0  0  0  0  0  0  0  0  0  0
    3.2870   -0.8330   -1.0220 C   0  0  0  0  0  0  0  0  0  0  0  0
    4.3540   -1.0200   -2.0030 C   0  0  0  0  0  0  0  0  0  0  0  0
    3.1960    0.2710   -0.2530 N   0  0  0  0  0  0  0  0  0  0  0  0
    4.2000    1.3220   -0.3980 C   0  0  0  0  0  0  0  0  0  0  0  0
    5.3420    1.0270    0.5410 C   0  0  0  0  0  0  0  0  0  0  0  0
    6.3710    1.9320    0.4890 O   0  0  0  0  0  0  0  0  0  0  0  0
    6.0170    3.2360    0.8120 C   0  0  0  0  0  0  0  0  0  0  0  0
    2.2170    0.4250    0.6420 C   0  0  0  0  0  0  0  0  0  0  0  0
    2.1820    1.4880    1.3400 O   0  0  0  0  0  0  0  0  0  0  0  0
   -4.2570   -0.2970    0.1440 C   0  0  0  0  0  0  0  0  0  0  0  0
   -4.3630   -1.3050    0.9640 C   0  0  0  0  0  0  0  0  0  0  0  0
   -5.5160   -1.9980    1.5170 C   0  0  0  0  0  0  0  0  0  0  0  0
  1  2  2  0
  2  3  1  0
  2 26  1  0
  3  4  1  0
  4  5  2  0
  5  6  1  0
  6  7  1  0
  6 26  1  0
  7  8  1  0
  8  9  1  0
  9 10  1  0
 10 11  1  0
 10 24  1  0
 11 12  2  0
 11 16  1  0
 12 13  1  0
 13 14  1  0
 14 15  2  0
 14 16  1  0
 16 17  2  0
 17 18  1  0
 17 19  1  0
 19 20  1  0
 19 24  1  0
 20 21  1  0
 21 22  1  0
 22 23  1  0
 24 25  2  0
 26 27  2  3
 27 28  1  0
M  END
