
     RDKit          3D

 28 30  0  0  0  0  0  0  0  0999 V2000
    5.2080   -0.5350    2.2490 C   0  0  0  0  0  0  0  0  0  0  0  0
    4.7710    0.4020    1.1780 C   0  0  0  0  0  0  0  0  0  0  0  0
    4.6990   -0.1460   -0.1460 N   0  0  0  0  0  0  0  0  0  0  0  0
    5.8700   -0.0690   -1.0330 C   0  0  0  0  0  0  0  0  0  0  0  0
    3.5240   -0.7570   -0.6100 C   0  0  0  0  0  0  0  0  0  0  0  0
    3.4680   -1.1810   -1.7820 O   0  0  0  0  0  0  0  0  0  0  0  0
    2.3630   -0.9210    0.2140 N   0  0  0  0  0  0  0  0  0  0  0  0
    1.2200   -1.4940   -0.2190 N   0  0  0  0  0  0  0  0  0  0  0  0
    0.0880   -1.0190   -0.4630 C   0  0  0  0  0  0  0  0  0  0  0  0
   -0.9730   -1.9660   -0.9430 C   0  0  0  0  0  0  0  0  0  0  0  0
   -0.6480   -3.1720   -1.0540 O   0  0  0  0  0  0  0  0  0  0  0  0
   -2.2820   -1.5770   -1.2660 N   0  0  0  0  0  0  0  0  0  0  0  0
   -3.2900   -2.5250   -1.7460 C   0  0  0  0  0  0  0  0  0  0  0  0
   -4.0560   -3.1410   -0.6190 C   0  0  0  0  0  0  0  0  0  0  0  0
   -4.0860   -4.4360   -0.3820 C   0  0  0  0  0  0  0  0  0  0  0  0
   -4.9310   -4.6960    0.7980 C   0  0  0  0  0  0  0  0  0  0  0  0
   -5.3830   -3.3440    1.2020 C   0  0  0  0  0  0  0  0  0  0  0  0
   -4.8650   -2.4670    0.3700 C   0  0  0  0  0  0  0  0  0  0  0  0
   -2.5900   -0.2000   -1.1200 C   0  0  0  0  0  0  0  0  0  0  0  0
   -3.7330    0.1870   -1.3950 O   0  0  0  0  0  0  0  0  0  0  0  0
   -1.5530    0.7510   -0.6460 C   0  0  0  0  0  0  0  0  0  0  0  0
   -0.3250    0.3850   -0.3430 C   0  0  0  0  0  0  0  0  0  0  0  0
    0.6480    1.3650    0.1250 C   0  0  0  0  0  0  0  0  0  0  0  0
    0.2800    2.7310    0.2310 N   0  0  2  0  0  0  0  0  0  0  0  0
   -0.6950    3.0920    1.1920 C   0  0  0  0  0  0  0  0  0  0  0  0
   -1.4120    4.2810    0.6570 C   0  0  0  0  0  0  0  0  0  0  0  0
   -0.9860    4.4530   -0.7550 C   0  0  0  0  0  0  0  0  0  0  0  0
    0.0040    3.3720   -1.0140 C   0  0  0  0  0  0  0  0  0  0  0  0
  1  2  1  0
  2  3  1  0
  3  4  1  0
  3  5  1  0
  5  6  2  0
  5  7  1  0
  7  8  1  0
  8  9  2  3
  9 10  1  0
  9 22  1  0
 10 11  2  0
 10 12  1  0
 12 13  1  0
 12 19  1  0
 13 14  1  0
 14 15  2  0
 14 18  1  0
 15 16  1  0
 16 17  1  0
 17 18  2  0
 19 20  2  0
 19 21  1  0
 21 22  2  0
 22 23  1  0
 24 23  1  6
 24 25  1  0
 24 28  1  0
 25 26  1  0
 26 27  1  0
 27 28  1  0
M  CHG  1  24   1
M  END
