
     RDKit          3D

 28 31  0  0  0  0  0  0  0  0999 V2000
   -3.3940    3.2400    3.1380 C   0  0  0  0  0  0  0  0  0  0  0  0
   -3.3390    2.4600    1.8740 C   0  0  0  0  0  0  0  0  0  0  0  0
   -2.6410    1.3120    1.6430 N   0  0  0  0  0  0  0  0  0  0  0  0
   -2.8410    0.9180    0.4080 N   0  0  0  0  0  0  0  0  0  0  0  0
   -2.3490   -0.2020   -0.3180 C   0  0  0  0  0  0  0  0  0  0  0  0
   -1.2400    0.0210   -1.1080 C   0  0  0  0  0  0  0  0  0  0  0  0
   -0.6050    1.3500   -1.1970 C   0  0  0  0  0  0  0  0  0  0  0  0
    0.5220    1.4460   -2.0340 N   0  0  0  0  0  0  0  0  0  0  0  0
    1.7630    0.9170   -1.6770 C   0  0  0  0  0  0  0  0  0  0  0  0
    1.9420    0.3320   -0.3560 C   0  0  0  0  0  0  0  0  0  0  0  0
    1.0350    0.2240    0.6240 N   0  0  0  0  0  0  0  0  0  0  0  0
    1.2540   -0.3120    1.7950 N   0  0  0  0  0  0  0  0  0  0  0  0
    2.4400   -0.8180    2.1360 C   0  0  0  0  0  0  0  0  0  0  0  0
    3.4520   -0.7570    1.1920 C   0  0  0  0  0  0  0  0  0  0  0  0
    3.1960   -0.1910   -0.0260 C   0  0  0  0  0  0  0  0  0  0  0  0
    4.4430   -0.2640   -0.8170 C   0  0  0  0  0  0  0  0  0  0  0  0
    5.4710   -0.6150    0.2390 C   0  0  1  0  0  0  0  0  0  0  0  0
    6.1900    0.5860    0.7770 C   0  0  0  0  0  0  0  0  0  0  0  0
    4.7570   -1.2080    1.3010 O   0  0  0  0  0  0  0  0  0  0  0  0
   -0.7540   -1.0510   -1.8140 C   0  0  0  0  0  0  0  0  0  0  0  0
   -1.3520   -2.3120   -1.7390 C   0  0  0  0  0  0  0  0  0  0  0  0
   -2.4520   -2.4810   -0.9380 C   0  0  0  0  0  0  0  0  0  0  0  0
   -3.1130   -3.8090   -0.8350 C   0  0  0  0  0  0  0  0  0  0  0  0
   -2.9600   -1.4390   -0.2250 C   0  0  0  0  0  0  0  0  0  0  0  0
   -4.1510   -1.5920    0.6510 C   0  0  0  0  0  0  0  0  0  0  0  0
   -3.6710    1.8220   -0.1440 C   0  0  0  0  0  0  0  0  0  0  0  0
   -4.1340    1.8450   -1.3190 O   0  0  0  0  0  0  0  0  0  0  0  0
   -3.9550    2.7360    0.7550 O   0  0  0  0  0  0  0  0  0  0  0  0
  1  2  1  0
  2  3  2  0
  2 28  1  0
  3  4  1  0
  4  5  1  0
  4 26  1  0
  5  6  1  0
  5 24  2  0
  6  7  1  0
  6 20  2  0
  7  8  1  0
  8  9  1  0
  9 10  1  0
 10 11  2  0
 10 15  1  0
 11 12  1  0
 12 13  2  0
 13 14  1  0
 14 15  2  0
 14 19  1  0
 15 16  1  0
 16 17  1  0
 17 18  1  1
 17 19  1  0
 20 21  1  0
 21 22  2  0
 22 23  1  0
 22 24  1  0
 24 25  1  0
 26 27  2  0
 26 28  1  0
M  CHG  1   8   1
M  END
