
     RDKit          3D

  9  8  0  0  0  0  0  0  0  0999 V2000
    2.5930   -0.9080    0.4420 C   0  0  0  0  0  0  0  0  0  0  0  0
    1.5190    0.1430    0.2980 C   0  0  0  0  0  0  0  0  0  0  0  0
    0.2260   -0.3800    0.5090 O   0  0  0  0  0  0  0  0  0  0  0  0
   -0.8500    0.4750    0.4080 C   0  0  0  0  0  0  0  0  0  0  0  0
   -1.9930    0.0080   -0.0360 C   0  0  0  0  0  0  0  0  0  0  0  0
   -2.1430   -1.4050   -0.4260 C   0  0  0  0  0  0  0  0  0  0  0  0
   -0.7000   -2.3800   -0.2480 Cl  0  0  0  0  0  0  0  0  0  0  0  0
   -0.7190    1.9010    0.7950 C   0  0  0  0  0  0  0  0  0  0  0  0
    0.4910    2.7710   -0.1340 Cl  0  0  0  0  0  0  0  0  0  0  0  0
  1  2  1  0
  2  3  1  0
  3  4  1  0
  4  5  2  3
  4  8  1  0
  5  6  1  0
  6  7  1  0
  8  9  1  0
M  END
