
     RDKit          3D

 28 30  0  0  0  0  0  0  0  0999 V2000
    5.8630    2.3000    1.0150 C   0  0  0  0  0  0  0  0  0  0  0  0
    5.9240    0.9850    0.3400 C   0  0  0  0  0  0  0  0  0  0  0  0
    6.9850    0.4910   -0.2620 C   0  0  0  0  0  0  0  0  0  0  0  0
    6.6370   -0.8350   -0.8050 C   0  0  0  0  0  0  0  0  0  0  0  0
    5.2210   -0.9940   -0.4080 C   0  0  0  0  0  0  0  0  0  0  0  0
    4.7960    0.0540    0.2560 C   0  0  0  0  0  0  0  0  0  0  0  0
    3.4850    0.2900    0.8140 N   0  0  0  0  0  0  0  0  0  0  0  0
    2.4110   -0.5990    0.7330 C   0  0  0  0  0  0  0  0  0  0  0  0
    2.5530   -1.6940    0.1410 O   0  0  0  0  0  0  0  0  0  0  0  0
    1.1270   -0.3410    1.2940 N   0  0  0  0  0  0  0  0  0  0  0  0
    0.0160   -1.2420    1.2150 C   0  0  0  0  0  0  0  0  0  0  0  0
   -0.3480   -1.5570   -0.1720 C   0  0  1  0  0  0  0  0  0  0  0  0
   -1.5200   -2.5680   -0.2330 C   0  0  0  0  0  0  0  0  0  0  0  0
   -1.6870   -2.6240   -1.7130 C   0  0  0  0  0  0  0  0  0  0  0  0
   -2.0020   -3.6100   -2.3880 O   0  0  0  0  0  0  0  0  0  0  0  0
   -1.4040   -1.2960   -2.1760 N   0  0  0  0  0  0  0  0  0  0  0  0
   -1.5360   -0.7680   -3.5180 C   0  0  0  0  0  0  0  0  0  0  0  0
   -0.9430   -0.5070   -1.0200 C   0  0  0  0  0  0  0  0  0  0  0  0
   -1.1270    0.7410   -0.9490 N   0  0  0  0  0  0  0  0  0  0  0  0
   -0.7820    1.6260    0.0900 C   0  0  0  0  0  0  0  0  0  0  0  0
   -1.6560    1.9480    1.0130 C   0  0  0  0  0  0  0  0  0  0  0  0
   -2.9870    1.4490    1.0450 N   0  0  0  0  0  0  0  0  0  0  0  0
   -3.4660    0.6760    2.1860 C   0  0  0  0  0  0  0  0  0  0  0  0
   -4.9780    0.6910    2.2560 C   0  0  0  0  0  0  0  0  0  0  0  0
   -5.5070    0.0540    0.9880 C   0  0  0  0  0  0  0  0  0  0  0  0
   -5.0830    0.8010   -0.2550 C   0  0  0  0  0  0  0  0  0  0  0  0
   -3.9140    1.6680   -0.0110 C   0  0  0  0  0  0  0  0  0  0  0  0
   -3.7260    2.6440   -0.7670 O   0  0  0  0  0  0  0  0  0  0  0  0
  1  2  1  0
  2  3  2  0
  2  6  1  0
  3  4  1  0
  4  5  1  0
  5  6  2  0
  6  7  1  0
  7  8  1  0
  8  9  2  0
  8 10  1  0
 10 11  1  0
 12 11  1  1
 12 13  1  0
 12 18  1  0
 13 14  1  0
 14 15  2  0
 14 16  1  0
 16 17  1  0
 16 18  1  0
 18 19  2  3
 19 20  1  0
 20 21  2  3
 21 22  1  0
 22 23  1  0
 22 27  1  0
 23 24  1  0
 24 25  1  0
 25 26  1  0
 26 27  1  0
 27 28  2  0
M  CHG  1  19   1
M  END
