
     RDKit          3D

 18 18  0  0  0  0  0  0  0  0999 V2000
    6.2680    0.9310    0.0460 C   0  0  0  0  0  0  0  0  0  0  0  0
    5.0640    1.1580   -0.8660 C   0  0  0  0  0  0  0  0  0  0  0  0
    4.1070    2.0850   -0.2860 C   0  0  0  0  0  0  0  0  0  0  0  0
    2.8870    1.9630    0.1200 C   0  0  0  0  0  0  0  0  0  0  0  0
    1.9930    0.8340    0.1580 C   0  0  0  0  0  0  0  0  0  0  0  0
    2.2510   -0.4610   -0.1720 C   0  0  0  0  0  0  0  0  0  0  0  0
    1.0730   -1.1750    0.0260 C   0  0  0  0  0  0  0  0  0  0  0  0
    0.1540   -0.2570    0.4730 C   0  0  0  0  0  0  0  0  0  0  0  0
   -1.2610   -0.6410    0.8050 C   0  0  2  0  0  0  0  0  0  0  0  0
   -1.5380   -2.0400    0.3750 C   0  0  0  0  0  0  0  0  0  0  0  0
   -2.9560   -2.4040    0.7150 C   0  0  0  0  0  0  0  0  0  0  0  0
   -3.3180   -3.7950    0.3170 C   0  0  0  0  0  0  0  0  0  0  0  0
   -2.1730    0.2970    0.2730 O   0  0  0  0  0  0  0  0  0  0  0  0
   -2.9830    1.1030    1.0240 C   0  0  0  0  0  0  0  0  0  0  0  0
   -2.9470    1.0390    2.2610 O   0  0  0  0  0  0  0  0  0  0  0  0
   -3.9030    2.0520    0.3460 C   0  0  0  0  0  0  0  0  0  0  0  0
   -3.7990    1.9800   -1.1480 C   0  0  0  0  0  0  0  0  0  0  0  0
    0.7100    0.9000    0.5410 O   0  0  0  0  0  0  0  0  0  0  0  0
  1  2  1  0
  2  3  1  0
  3  4  2  3
  4  5  1  0
  5  6  2  0
  5 18  1  0
  6  7  1  0
  7  8  2  0
  8  9  1  0
  8 18  1  0
  9 10  1  6
  9 13  1  0
 10 11  1  0
 11 12  1  0
 13 14  1  0
 14 15  2  0
 14 16  1  0
 16 17  1  0
M  END
