
     RDKit          3D

 10 10  0  0  0  0  0  0  0  0999 V2000
   -2.2250    0.8620   -0.2050 O   0  0  0  0  0  0  0  0  0  0  0  0
   -0.9030    0.4640   -0.1360 C   0  0  0  0  0  0  0  0  0  0  0  0
    0.1050    1.2790   -0.6070 C   0  0  0  0  0  0  0  0  0  0  0  0
    1.4290    0.9190   -0.5570 C   0  0  0  0  0  0  0  0  0  0  0  0
    2.6940    1.9830   -1.1670 Cl  0  0  0  0  0  0  0  0  0  0  0  0
    1.7250   -0.3090   -0.0090 C   0  0  0  0  0  0  0  0  0  0  0  0
    3.4180   -0.7930    0.0660 Cl  0  0  0  0  0  0  0  0  0  0  0  0
    0.7370   -1.1350    0.4650 C   0  0  0  0  0  0  0  0  0  0  0  0
   -0.6120   -0.7630    0.4110 C   0  0  0  0  0  0  0  0  0  0  0  0
   -1.5830   -1.6440    0.9090 O   0  0  0  0  0  0  0  0  0  0  0  0
  1  2  1  0
  2  3  2  0
  2  9  1  0
  3  4  1  0
  4  5  1  0
  4  6  2  0
  6  7  1  0
  6  8  1  0
  8  9  2  0
  9 10  1  0
M  END
