
     RDKit          3D

 17 16  0  0  0  0  0  0  0  0999 V2000
    4.8620   -1.1940   -0.8530 C   0  0  0  0  0  0  0  0  0  0  0  0
    4.4950    0.1800   -1.3330 C   0  0  2  0  0  0  0  0  0  0  0  0
    5.3210    1.0960   -0.6530 O   0  0  0  0  0  0  0  0  0  0  0  0
    3.1680    0.5290   -1.0470 O   0  0  0  0  0  0  0  0  0  0  0  0
    2.7100    0.5760    0.2140 C   0  0  0  0  0  0  0  0  0  0  0  0
    3.4570    0.3810    1.7240 Cl  0  0  0  0  0  0  0  0  0  0  0  0
    1.4200    0.8240    0.2630 C   0  0  0  0  0  0  0  0  0  0  0  0
    0.1370    1.0900    0.4180 C   0  0  0  0  0  0  0  0  0  0  0  0
   -0.1990    2.7460    0.5450 Cl  0  0  0  0  0  0  0  0  0  0  0  0
   -0.6730   -0.0690    0.4480 C   0  0  0  0  0  0  0  0  0  0  0  0
   -0.4640   -1.1210    1.2120 C   0  0  0  0  0  0  0  0  0  0  0  0
    0.0830   -2.0990    1.7540 O   0  0  0  0  0  0  0  0  0  0  0  0
   -1.7880   -0.1430   -0.3780 O   0  0  0  0  0  0  0  0  0  0  0  0
   -3.1080   -0.0060    0.1030 C   0  0  2  0  0  0  0  0  0  0  0  0
   -4.0430   -0.1410   -1.0630 C   0  0  0  0  0  0  0  0  0  0  0  0
   -3.2930    1.3600    0.7050 C   0  0  0  0  0  0  0  0  0  0  0  0
   -3.4290   -1.0540    1.1390 C   0  0  0  0  0  0  0  0  0  0  0  0
  2  1  1  1
  2  3  1  0
  2  4  1  0
  4  5  1  0
  5  6  1  0
  5  7  2  0
  7  8  2  0
  8  9  1  0
  8 10  1  0
 10 11  2  0
 10 13  1  0
 11 12  2  0
 13 14  1  0
 14 15  1  6
 14 16  1  0
 14 17  1  0
M  END
