
     RDKit          3D

 17 17  0  0  0  0  0  0  0  0999 V2000
    5.1380    1.1020    0.5090 C   0  0  0  0  0  0  0  0  0  0  0  0
    4.4400   -0.1960    0.8360 C   0  0  0  0  0  0  0  0  0  0  0  0
    3.1360   -0.2650    0.0290 C   0  0  0  0  0  0  0  0  0  0  0  0
    3.4510   -0.2100   -1.4060 C   0  0  0  0  0  0  0  0  0  0  0  0
    4.6750   -0.1180   -1.7450 O   0  0  0  0  0  0  0  0  0  0  0  0
    2.4740   -0.2530   -2.4670 C   0  0  0  0  0  0  0  0  0  0  0  0
    1.1990   -0.3490   -2.1810 C   0  0  0  0  0  0  0  0  0  0  0  0
    0.8160   -0.4090   -0.8620 O   0  0  0  0  0  0  0  0  0  0  0  0
   -0.4720   -0.2700   -0.3770 C   0  0  0  0  0  0  0  0  0  0  0  0
   -0.5880    0.1630    1.0310 C   0  0  0  0  0  0  0  0  0  0  0  0
   -1.5210   -0.5080   -1.1180 C   0  0  0  0  0  0  0  0  0  0  0  0
   -2.8950   -0.3790   -0.6620 C   0  0  0  0  0  0  0  0  0  0  0  0
   -3.9110   -1.2640   -1.0410 C   0  0  0  0  0  0  0  0  0  0  0  0
   -5.0650   -0.8670   -0.4480 C   0  0  0  0  0  0  0  0  0  0  0  0
   -4.7460    0.2550    0.2860 C   0  0  0  0  0  0  0  0  0  0  0  0
   -5.6860    1.0620    1.1210 C   0  0  0  0  0  0  0  0  0  0  0  0
   -3.4670    0.4800    0.1140 O   0  0  0  0  0  0  0  0  0  0  0  0
  1  2  1  0
  2  3  1  0
  3  4  1  0
  4  5  2  0
  4  6  1  0
  6  7  2  3
  7  8  1  0
  8  9  1  0
  9 10  1  0
  9 11  2  3
 11 12  1  0
 12 13  2  0
 12 17  1  0
 13 14  1  0
 14 15  2  0
 15 16  1  0
 15 17  1  0
M  END
