
     RDKit          3D

 18 18  0  0  0  0  0  0  0  0999 V2000
   -0.3340   -2.5560    0.3180 C   0  0  0  0  0  0  0  0  0  0  0  0
   -1.6200   -1.8120    0.4090 C   0  0  1  0  0  0  0  0  0  0  0  0
   -1.8750   -1.4210    1.8570 C   0  0  0  0  0  0  0  0  0  0  0  0
   -1.7410   -0.6230   -0.5100 C   0  0  0  0  0  0  0  0  0  0  0  0
   -0.7430    0.4300   -0.2990 C   0  0  2  0  0  0  0  0  0  0  0  0
   -0.8360    1.6210   -1.1910 C   0  0  0  0  0  0  0  0  0  0  0  0
   -2.0720    2.4200   -1.1750 C   0  0  2  0  0  0  0  0  0  0  0  0
   -2.4110    3.0110    0.1750 C   0  0  0  0  0  0  0  0  0  0  0  0
   -3.2410    1.7830   -1.8740 C   0  0  0  0  0  0  0  0  0  0  0  0
    0.5860   -0.0390   -0.3990 O   0  0  0  0  0  0  0  0  0  0  0  0
    1.5160    0.0570    0.6280 C   0  0  0  0  0  0  0  0  0  0  0  0
    1.1220    0.5970    1.6910 O   0  0  0  0  0  0  0  0  0  0  0  0
    2.8880   -0.4460    0.4780 C   0  0  0  0  0  0  0  0  0  0  0  0
    3.8240   -0.3900    1.4060 C   0  0  0  0  0  0  0  0  0  0  0  0
    3.6710    0.1510    2.6740 O   0  0  0  0  0  0  0  0  0  0  0  0
    5.0800   -1.0050    0.8710 C   0  0  0  0  0  0  0  0  0  0  0  0
    4.7100   -1.4160   -0.5000 C   0  0  0  0  0  0  0  0  0  0  0  0
    3.4400   -1.0790   -0.6940 C   0  0  0  0  0  0  0  0  0  0  0  0
  2  1  1  1
  2  3  1  0
  2  4  1  0
  5  4  1  6
  5  6  1  0
  5 10  1  0
  6  7  1  0
  7  8  1  1
  7  9  1  0
 10 11  1  0
 11 12  2  0
 11 13  1  0
 13 14  2  0
 13 18  1  0
 14 15  1  0
 14 16  1  0
 16 17  1  0
 17 18  2  0
M  END
