
     RDKit          3D

 18 19  0  0  0  0  0  0  0  0999 V2000
   -1.1940    1.0750   -0.2410 C   0  0  0  0  0  0  0  0  0  0  0  0
   -1.9790   -0.1120    0.2040 C   0  0  2  0  0  0  0  0  0  0  0  0
   -1.1980   -1.3780    0.3390 C   0  0  0  0  0  0  0  0  0  0  0  0
   -0.5840   -1.8880   -0.7450 O   0  0  0  0  0  0  0  0  0  0  0  0
    0.4310   -1.2620   -1.3690 C   0  0  0  0  0  0  0  0  0  0  0  0
    1.6620   -1.0780   -0.4640 C   0  0  0  0  0  0  0  0  0  0  0  0
    2.6740   -0.4240   -1.1620 O   0  0  0  0  0  0  0  0  0  0  0  0
    3.9120   -0.1030   -0.6390 C   0  0  0  0  0  0  0  0  0  0  0  0
    4.5180   -0.7630    0.3310 C   0  0  0  0  0  0  0  0  0  0  0  0
    5.8450   -0.3910    0.8670 C   0  0  0  0  0  0  0  0  0  0  0  0
    6.4080    0.7250    0.2570 O   0  0  0  0  0  0  0  0  0  0  0  0
    5.8060    1.4340   -0.7530 C   0  0  0  0  0  0  0  0  0  0  0  0
    4.6180    1.0470   -1.1860 C   0  0  0  0  0  0  0  0  0  0  0  0
   -3.1050   -0.4000   -0.7830 C   0  0  0  0  0  0  0  0  0  0  0  0
   -3.9650    0.8120   -1.0210 C   0  0  0  0  0  0  0  0  0  0  0  0
   -4.5340    1.2500    0.3080 C   0  0  0  0  0  0  0  0  0  0  0  0
   -4.1280    0.3230    1.4330 C   0  0  0  0  0  0  0  0  0  0  0  0
   -2.6480    0.1630    1.5490 C   0  0  0  0  0  0  0  0  0  0  0  0
  2  1  1  6
  2  3  1  0
  2 14  1  0
  2 18  1  0
  3  4  1  0
  4  5  1  0
  5  6  1  0
  6  7  1  0
  7  8  1  0
  8  9  2  0
  8 13  1  0
  9 10  1  0
 10 11  1  0
 11 12  1  0
 12 13  2  0
 14 15  1  0
 15 16  1  0
 16 17  1  0
 17 18  1  0
M  END
