
     RDKit          3D

 18 18  0  0  0  0  0  0  0  0999 V2000
    6.1520    0.2920   -1.8310 C   0  0  0  0  0  0  0  0  0  0  0  0
    5.1030   -0.2230   -1.0320 O   0  0  0  0  0  0  0  0  0  0  0  0
    4.6330    0.5020    0.0660 C   0  0  0  0  0  0  0  0  0  0  0  0
    5.1600    1.5960    0.3120 O   0  0  0  0  0  0  0  0  0  0  0  0
    3.5370   -0.0020    0.9280 C   0  0  1  0  0  0  0  0  0  0  0  0
    3.2460    0.9780    2.0180 C   0  0  0  0  0  0  0  0  0  0  0  0
    2.3220   -0.1800    0.0120 C   0  0  0  0  0  0  0  0  0  0  0  0
    1.1970   -0.6870    0.8460 C   0  0  0  0  0  0  0  0  0  0  0  0
   -0.0830   -0.9230    0.0540 C   0  0  0  0  0  0  0  0  0  0  0  0
   -0.5350    0.3750   -0.5730 C   0  0  0  0  0  0  0  0  0  0  0  0
   -1.7680    0.3350   -1.3440 C   0  0  0  0  0  0  0  0  0  0  0  0
   -3.0630    0.0650   -0.8060 C   0  0  0  0  0  0  0  0  0  0  0  0
   -3.4630    0.0400    0.4270 C   0  0  0  0  0  0  0  0  0  0  0  0
   -2.5170    0.3190    1.3960 O   0  0  0  0  0  0  0  0  0  0  0  0
   -4.8200   -0.2530    0.9180 C   0  0  0  0  0  0  0  0  0  0  0  0
   -5.8410   -0.5340   -0.1150 C   0  0  0  0  0  0  0  0  0  0  0  0
   -5.3450   -0.4950   -1.4880 C   0  0  0  0  0  0  0  0  0  0  0  0
   -4.1140   -0.2310   -1.8180 C   0  0  0  0  0  0  0  0  0  0  0  0
  1  2  1  0
  2  3  1  0
  3  4  2  0
  3  5  1  0
  5  6  1  1
  5  7  1  0
  7  8  1  0
  8  9  1  0
  9 10  1  0
 10 11  1  0
 11 12  1  0
 12 13  2  0
 12 18  1  0
 13 14  1  0
 13 15  1  0
 15 16  1  0
 16 17  1  0
 17 18  2  0
M  END
