
     RDKit          3D

 31 34  0  0  0  0  0  0  0  0999 V2000
   -0.5870   -3.4960   -0.5610 C   0  0  0  0  0  0  0  0  0  0  0  0
   -1.8540   -2.8790   -0.1250 C   0  0  0  0  0  0  0  0  0  0  0  0
   -2.8090   -3.6570    0.5190 C   0  0  0  0  0  0  0  0  0  0  0  0
   -3.9660   -3.1180    0.9230 N   0  0  0  0  0  0  0  0  0  0  0  0
   -4.2260   -1.7930    0.7090 C   0  0  0  0  0  0  0  0  0  0  0  0
   -5.4560   -1.2740    1.1520 N   0  0  0  0  0  0  0  0  0  0  0  0
   -5.9370    0.0420    1.0440 C   0  0  0  0  0  0  0  0  0  0  0  0
   -5.2460    1.0710    0.4600 C   0  0  0  0  0  0  0  0  0  0  0  0
   -5.7600    2.3600    0.3740 C   0  0  0  0  0  0  0  0  0  0  0  0
   -7.0150    2.6110    0.8970 C   0  0  0  0  0  0  0  0  0  0  0  0
   -7.7450    1.6080    1.4930 C   0  0  0  0  0  0  0  0  0  0  0  0
   -7.1910    0.3560    1.5510 C   0  0  0  0  0  0  0  0  0  0  0  0
   -3.2830   -1.0760    0.0860 N   0  0  0  0  0  0  0  0  0  0  0  0
   -2.1070   -1.5450   -0.3450 C   0  0  0  0  0  0  0  0  0  0  0  0
   -1.1450   -0.6980   -1.0090 C   0  0  0  0  0  0  0  0  0  0  0  0
   -1.4300    0.2200   -2.0110 C   0  0  0  0  0  0  0  0  0  0  0  0
   -0.2710    0.8280   -2.3880 N   0  0  0  0  0  0  0  0  0  0  0  0
    0.7470    0.3410   -1.6710 C   0  0  0  0  0  0  0  0  0  0  0  0
    2.1290    0.7530   -1.7990 C   0  0  0  0  0  0  0  0  0  0  0  0
    2.4730    1.6330   -2.6280 O   0  0  0  0  0  0  0  0  0  0  0  0
    3.1790    0.1970   -1.0050 N   0  0  0  0  0  0  0  0  0  0  0  0
    4.5540    0.5840   -1.1080 C   0  0  2  0  0  0  0  0  0  0  0  0
    5.4440   -0.5470   -1.5850 C   0  0  0  0  0  0  0  0  0  0  0  0
    5.4020   -1.6350   -0.7250 O   0  0  0  0  0  0  0  0  0  0  0  0
    5.0840    1.1830    0.1460 C   0  0  0  0  0  0  0  0  0  0  0  0
    5.8530    2.3300    0.1520 C   0  0  0  0  0  0  0  0  0  0  0  0
    6.3410    2.8810    1.3220 C   0  0  0  0  0  0  0  0  0  0  0  0
    6.0770    2.3010    2.5450 C   0  0  0  0  0  0  0  0  0  0  0  0
    5.3100    1.1560    2.5540 C   0  0  0  0  0  0  0  0  0  0  0  0
    4.8220    0.6050    1.3790 C   0  0  0  0  0  0  0  0  0  0  0  0
    0.2290   -0.6000   -0.8160 C   0  0  0  0  0  0  0  0  0  0  0  0
  1  2  1  0
  2  3  2  0
  2 14  1  0
  3  4  1  0
  4  5  2  0
  5  6  1  0
  5 13  1  0
  6  7  1  0
  7  8  2  0
  7 12  1  0
  8  9  1  0
  9 10  2  0
 10 11  1  0
 11 12  2  0
 13 14  2  0
 14 15  1  0
 15 16  2  0
 15 31  1  0
 16 17  1  0
 17 18  1  0
 18 19  1  0
 18 31  2  0
 19 20  2  0
 19 21  1  0
 21 22  1  0
 22 23  1  1
 22 25  1  0
 23 24  1  0
 25 26  2  0
 25 30  1  0
 26 27  1  0
 27 28  2  0
 28 29  1  0
 29 30  2  0
M  END
