
     RDKit          3D

 30 32  0  0  0  0  0  0  0  0999 V2000
    7.2030    0.0850    1.6700 C   0  0  0  0  0  0  0  0  0  0  0  0
    6.0550   -0.0130    0.8510 O   0  0  0  0  0  0  0  0  0  0  0  0
    6.1820   -0.3780   -0.4830 C   0  0  0  0  0  0  0  0  0  0  0  0
    7.3670   -0.6080   -0.8970 O   0  0  0  0  0  0  0  0  0  0  0  0
    5.0910   -0.4980   -1.3640 N   0  0  0  0  0  0  0  0  0  0  0  0
    5.3000   -0.8800   -2.7310 C   0  0  0  0  0  0  0  0  0  0  0  0
    4.2800   -0.1410   -3.5750 C   0  0  0  0  0  0  0  0  0  0  0  0
    3.8370    1.0180   -2.9510 O   0  0  0  0  0  0  0  0  0  0  0  0
    3.1270    0.7780   -1.7910 C   0  0  1  0  0  0  0  0  0  0  0  0
    1.7160    0.4020   -2.1890 C   0  0  0  0  0  0  0  0  0  0  0  0
    0.8650    0.1240   -1.0770 N   0  0  0  0  0  0  0  0  0  0  0  0
    0.5710    1.0790   -0.0520 C   0  0  0  0  0  0  0  0  0  0  0  0
    1.0810    2.2140   -0.1250 O   0  0  0  0  0  0  0  0  0  0  0  0
   -0.3180    0.7290    1.0710 C   0  0  2  0  0  0  0  0  0  0  0  0
    0.1760   -0.4260    1.8920 C   0  0  0  0  0  0  0  0  0  0  0  0
   -0.5960   -0.4330    3.1890 C   0  0  0  0  0  0  0  0  0  0  0  0
   -1.9580    0.1640    3.0980 C   0  0  0  0  0  0  0  0  0  0  0  0
   -2.5210    0.1700    1.7680 N   0  0  0  0  0  0  0  0  0  0  0  0
   -3.9480   -0.0070    1.6140 C   0  0  0  0  0  0  0  0  0  0  0  0
   -4.6180   -0.1550    2.6490 O   0  0  0  0  0  0  0  0  0  0  0  0
   -4.5400   -0.0080    0.3430 N   0  0  0  0  0  0  0  0  0  0  0  0
   -5.9450   -0.1740    0.0500 C   0  0  0  0  0  0  0  0  0  0  0  0
   -6.8460   -0.3450    0.9670 C   0  0  0  0  0  0  0  0  0  0  0  0
   -8.3040   -0.5280    0.8650 C   0  0  0  0  0  0  0  0  0  0  0  0
   -8.8690   -0.5010   -0.8330 S   0  0  0  0  0  0  0  0  0  0  0  0
   -7.4480   -0.2560   -1.8740 C   0  0  0  0  0  0  0  0  0  0  0  0
   -6.2370   -0.1260   -1.3960 C   0  0  0  0  0  0  0  0  0  0  0  0
   -4.9340    0.1130   -2.5880 Cl  0  0  0  0  0  0  0  0  0  0  0  0
   -1.7160    0.3450    0.5770 C   0  0  0  0  0  0  0  0  0  0  0  0
    3.7590   -0.2400   -0.8960 C   0  0  0  0  0  0  0  0  0  0  0  0
  1  2  1  0
  2  3  1  0
  3  4  2  0
  3  5  1  0
  5  6  1  0
  5 30  1  0
  6  7  1  0
  7  8  1  0
  8  9  1  0
  9 10  1  6
  9 30  1  0
 10 11  1  0
 11 12  1  0
 12 13  2  0
 14 12  1  6
 14 15  1  0
 14 29  1  0
 15 16  1  0
 16 17  1  0
 17 18  1  0
 18 19  1  0
 18 29  1  0
 19 20  2  0
 19 21  1  0
 21 22  1  0
 22 23  2  0
 22 27  1  0
 23 24  1  0
 24 25  1  0
 25 26  1  0
 26 27  2  0
 27 28  1  0
M  END
