
     RDKit          3D

 30 32  0  0  0  0  0  0  0  0999 V2000
    6.9760   -3.0050    0.2920 C   0  0  0  0  0  0  0  0  0  0  0  0
    6.1690   -1.8520    0.7690 C   0  0  0  0  0  0  0  0  0  0  0  0
    6.4120   -1.2080    2.3940 Cl  0  0  0  0  0  0  0  0  0  0  0  0
    5.2770   -1.3320   -0.0490 C   0  0  0  0  0  0  0  0  0  0  0  0
    4.4910   -0.2170    0.4000 N   0  0  0  0  0  0  0  0  0  0  0  0
    3.3120   -0.4720    0.8540 C   0  0  0  0  0  0  0  0  0  0  0  0
    2.6370   -1.7050    0.9900 N   0  0  0  0  0  0  0  0  0  0  0  0
    1.2500   -1.6460    1.0850 C   0  0  0  0  0  0  0  0  0  0  0  0
    0.5200   -2.7000    1.2150 O   0  0  0  0  0  0  0  0  0  0  0  0
    0.6650   -0.3230    1.0320 C   0  0  0  0  0  0  0  0  0  0  0  0
   -0.5350    0.1390    0.7430 C   0  0  0  0  0  0  0  0  0  0  0  0
   -0.7730    1.5910    0.7960 C   0  0  0  0  0  0  0  0  0  0  0  0
   -0.9730    2.2500   -0.4980 C   0  0  0  0  0  0  0  0  0  0  0  0
   -0.8440    1.6540   -1.6270 O   0  0  0  0  0  0  0  0  0  0  0  0
   -1.3270    3.6130   -0.5140 N   0  0  0  0  0  0  0  0  0  0  0  0
   -1.5460    4.3680   -1.7300 C   0  0  0  0  0  0  0  0  0  0  0  0
   -0.6240    5.5790   -1.7870 C   0  0  0  0  0  0  0  0  0  0  0  0
   -0.2410    6.0260   -0.5150 O   0  0  0  0  0  0  0  0  0  0  0  0
   -0.9320    5.6800    0.6280 C   0  0  0  0  0  0  0  0  0  0  0  0
   -1.1080    6.4740    1.5830 O   0  0  0  0  0  0  0  0  0  0  0  0
   -1.4890    4.3170    0.7320 C   0  0  0  0  0  0  0  0  0  0  0  0
   -1.5710   -0.7350    0.3820 N   0  0  0  0  0  0  0  0  0  0  0  0
   -2.9100   -0.4270    0.0580 C   0  0  0  0  0  0  0  0  0  0  0  0
   -3.1560    0.8460    0.1140 O   0  0  0  0  0  0  0  0  0  0  0  0
   -3.9690   -1.3310   -0.3010 C   0  0  0  0  0  0  0  0  0  0  0  0
   -4.0020   -2.5930   -0.3740 C   0  0  0  0  0  0  0  0  0  0  0  0
   -2.9450   -3.5600   -0.0970 C   0  0  1  0  0  0  0  0  0  0  0  0
   -3.4310   -5.0030   -0.2390 C   0  0  0  0  0  0  0  0  0  0  0  0
   -2.3680   -4.4590   -1.1200 C   0  0  0  0  0  0  0  0  0  0  0  0
    2.0990    0.7210    1.4860 S   0  0  0  0  0  0  0  0  0  0  0  0
  1  2  1  0
  2  3  1  0
  2  4  2  3
  4  5  1  0
  5  6  2  3
  6  7  1  0
  6 30  1  0
  7  8  1  0
  8  9  2  0
  8 10  1  0
 10 11  2  3
 10 30  1  0
 11 12  1  0
 11 22  1  0
 12 13  1  0
 13 14  2  0
 13 15  1  0
 15 16  1  0
 15 21  1  0
 16 17  1  0
 17 18  1  0
 18 19  1  0
 19 20  2  0
 19 21  1  0
 22 23  1  0
 23 24  2  0
 23 25  1  0
 25 26  2  3
 27 26  1  6
 27 28  1  0
 27 29  1  0
 28 29  1  0
M  END
