
     RDKit          3D

 30 33  0  0  0  0  0  0  0  0999 V2000
   -2.4690    2.3440    2.0270 C   0  0  0  0  0  0  0  0  0  0  0  0
   -2.4610    0.8560    1.9990 C   0  0  0  0  0  0  0  0  0  0  0  0
   -1.8520    0.2030    1.0090 O   0  0  0  0  0  0  0  0  0  0  0  0
   -2.1950    0.2800   -0.2930 C   0  0  2  0  0  0  0  0  0  0  0  0
   -2.0980    1.6350   -0.9370 C   0  0  0  0  0  0  0  0  0  0  0  0
   -3.7390    0.0260   -0.4650 C   0  0  0  0  0  0  0  0  0  0  0  0
   -4.2190   -1.2010    0.1710 C   0  0  0  0  0  0  0  0  0  0  0  0
   -3.1470   -2.1760    0.5220 C   0  0  0  0  0  0  0  0  0  0  0  0
   -2.1380   -2.1040   -0.5750 C   0  0  0  0  0  0  0  0  0  0  0  0
   -1.7700   -3.3080   -1.1180 C   0  0  0  0  0  0  0  0  0  0  0  0
   -0.8110   -3.2850   -2.0870 C   0  0  0  0  0  0  0  0  0  0  0  0
   -0.2850   -2.0950   -2.4500 C   0  0  0  0  0  0  0  0  0  0  0  0
    0.6090   -2.0630   -3.3510 O   0  0  0  0  0  0  0  0  0  0  0  0
   -0.6440   -0.8650   -1.9120 N   0  0  0  0  0  0  0  0  0  0  0  0
    0.0870    0.2560   -2.4570 C   0  0  0  0  0  0  0  0  0  0  0  0
    1.4460    0.2850   -1.7280 C   0  0  0  0  0  0  0  0  0  0  0  0
    2.4600   -0.0230   -2.3430 O   0  0  0  0  0  0  0  0  0  0  0  0
    1.5170    0.6540   -0.3830 N   0  0  0  0  0  0  0  0  0  0  0  0
    2.6290    0.7550    0.5030 C   0  0  0  0  0  0  0  0  0  0  0  0
    3.8890    0.5320    0.2820 C   0  0  0  0  0  0  0  0  0  0  0  0
    4.7970    0.1280   -0.7760 N   0  0  0  0  0  0  0  0  0  0  0  0
    6.1720    0.0640   -0.2820 C   0  0  0  0  0  0  0  0  0  0  0  0
    6.0580    0.4410    1.1010 C   0  0  0  0  0  0  0  0  0  0  0  0
    7.3820    0.5570    2.2620 Cl  0  0  0  0  0  0  0  0  0  0  0  0
    4.7960    0.6980    1.4060 C   0  0  0  0  0  0  0  0  0  0  0  0
    3.7780    1.1800    2.7390 S   0  0  1  0  0  0  0  0  0  0  0  0
    3.8030    0.1810    3.8530 O   0  0  0  0  0  0  0  0  0  0  0  0
    4.2100    2.5390    3.1760 O   0  0  0  0  0  0  0  0  0  0  0  0
    2.3160    1.1670    1.8600 N   0  0  0  0  0  0  0  0  0  0  0  0
   -1.5770   -0.8690   -0.9750 C   0  0  0  0  0  0  0  0  0  0  0  0
  1  2  1  0
  2  3  1  0
  3  4  1  0
  4  5  1  6
  4  6  1  0
  4 30  1  0
  6  7  1  0
  7  8  1  0
  8  9  1  0
  9 10  1  0
  9 30  2  0
 10 11  2  0
 11 12  1  0
 12 13  2  0
 12 14  1  0
 14 15  1  0
 14 30  1  0
 15 16  1  0
 16 17  2  0
 16 18  1  0
 18 19  1  0
 19 20  2  0
 19 29  1  0
 20 21  1  0
 20 25  1  0
 21 22  1  0
 22 23  1  0
 23 24  1  0
 23 25  2  0
 25 26  1  0
 26 27  2  0
 26 28  2  0
 26 29  1  6
M  END
