
     RDKit          3D

 29 32  0  0  0  0  0  0  0  0999 V2000
    3.9050    1.8200   -0.2350 C   0  0  0  0  0  0  0  0  0  0  0  0
    3.6280    0.5020    0.2750 N   0  0  0  0  0  0  0  0  0  0  0  0
    4.6900   -0.3750    0.6790 C   0  0  0  0  0  0  0  0  0  0  0  0
    5.2160   -1.2610   -0.4040 C   0  0  1  0  0  0  0  0  0  0  0  0
    4.1880   -2.0880   -0.9010 O   0  0  0  0  0  0  0  0  0  0  0  0
    5.7970   -0.5300   -1.5710 C   0  0  0  0  0  0  0  0  0  0  0  0
    7.1330    0.0910   -1.3100 C   0  0  0  0  0  0  0  0  0  0  0  0
    7.7860   -0.3960   -0.0850 C   0  0  0  0  0  0  0  0  0  0  0  0
    8.8100    0.2550    0.3070 O   0  0  0  0  0  0  0  0  0  0  0  0
    7.3780   -1.4850    0.6560 O   0  0  0  0  0  0  0  0  0  0  0  0
    6.2400   -2.1950    0.2120 C   0  0  0  0  0  0  0  0  0  0  0  0
    2.2490    0.0660    0.3780 C   0  0  0  0  0  0  0  0  0  0  0  0
    1.9760   -1.0690    0.8120 O   0  0  0  0  0  0  0  0  0  0  0  0
    1.1990    0.9310   -0.0150 N   0  0  0  0  0  0  0  0  0  0  0  0
   -0.1830    0.6560    0.0190 C   0  0  0  0  0  0  0  0  0  0  0  0
   -1.0710    1.7270   -0.1530 C   0  0  0  0  0  0  0  0  0  0  0  0
   -2.4000    1.4900   -0.1390 C   0  0  0  0  0  0  0  0  0  0  0  0
   -2.9490    0.2310    0.0380 C   0  0  0  0  0  0  0  0  0  0  0  0
   -4.3580    0.0480    0.0460 N   0  0  0  0  0  0  0  0  0  0  0  0
   -4.8810   -1.2880    0.1610 C   0  0  0  0  0  0  0  0  0  0  0  0
   -6.0890   -1.4290    1.0320 C   0  0  0  0  0  0  0  0  0  0  0  0
   -6.7460   -0.1290    1.3180 C   0  0  2  0  0  0  0  0  0  0  0  0
   -8.5860   -0.2590    1.3020 S   0  0  0  0  0  0  0  0  0  0  0  0
   -8.8290    1.0800    0.0540 C   0  0  0  0  0  0  0  0  0  0  0  0
   -7.5760    1.7230    0.1710 O   0  0  0  0  0  0  0  0  0  0  0  0
   -6.6370    0.7050    0.0280 C   0  0  1  0  0  0  0  0  0  0  0  0
   -5.2440    1.1790   -0.0590 C   0  0  0  0  0  0  0  0  0  0  0  0
   -2.0900   -0.7900    0.2010 N   0  0  0  0  0  0  0  0  0  0  0  0
   -0.7340   -0.6060    0.1950 C   0  0  0  0  0  0  0  0  0  0  0  0
  1  2  1  0
  2  3  1  0
  2 12  1  0
  3  4  1  0
  4  5  1  6
  4  6  1  0
  4 11  1  0
  6  7  1  0
  7  8  1  0
  8  9  2  0
  8 10  1  0
 10 11  1  0
 12 13  2  0
 12 14  1  0
 14 15  1  0
 15 16  2  0
 15 29  1  0
 16 17  1  0
 17 18  2  0
 18 19  1  0
 18 28  1  0
 19 20  1  0
 19 27  1  0
 20 21  1  0
 22 21  1  6
 22 23  1  0
 22 26  1  0
 23 24  1  0
 24 25  1  0
 25 26  1  0
 26 27  1  1
 28 29  2  0
M  END
