
     RDKit          3D

 30 33  0  0  0  0  0  0  0  0999 V2000
   -6.0980    0.8120   -1.5570 C   0  0  0  0  0  0  0  0  0  0  0  0
   -6.1720    0.4790   -0.0930 C   0  0  1  0  0  0  0  0  0  0  0  0
   -7.4940   -0.1680    0.2650 C   0  0  0  0  0  0  0  0  0  0  0  0
   -7.1850   -0.9660    1.4980 C   0  0  0  0  0  0  0  0  0  0  0  0
   -5.8190   -1.5190    1.1520 C   0  0  0  0  0  0  0  0  0  0  0  0
   -5.1920   -0.4670    0.3530 N   0  0  0  0  0  0  0  0  0  0  0  0
   -3.8110   -0.4440    0.1100 C   0  0  0  0  0  0  0  0  0  0  0  0
   -3.0510   -1.3570    0.6150 O   0  0  0  0  0  0  0  0  0  0  0  0
   -3.1200    0.5600   -0.6860 C   0  0  0  0  0  0  0  0  0  0  0  0
   -1.7080    0.4020   -0.7440 O   0  0  0  0  0  0  0  0  0  0  0  0
   -0.8910    0.4560    0.3810 C   0  0  0  0  0  0  0  0  0  0  0  0
   -1.4390    0.6470    1.4820 O   0  0  0  0  0  0  0  0  0  0  0  0
    0.5480    0.2960    0.2630 C   0  0  0  0  0  0  0  0  0  0  0  0
    1.1310    0.0400   -0.9520 C   0  0  0  0  0  0  0  0  0  0  0  0
    2.4910   -0.0660   -1.0380 C   0  0  0  0  0  0  0  0  0  0  0  0
    3.2930    0.0830    0.0770 C   0  0  0  0  0  0  0  0  0  0  0  0
    4.6880   -0.0380   -0.1230 N   0  0  0  0  0  0  0  0  0  0  0  0
    5.4280    0.5360   -1.2250 C   0  0  0  0  0  0  0  0  0  0  0  0
    4.9340    1.2270   -2.1700 O   0  0  0  0  0  0  0  0  0  0  0  0
    6.8210    0.2040   -1.0820 C   0  0  0  0  0  0  0  0  0  0  0  0
    7.9440    0.4580   -1.7570 C   0  0  0  0  0  0  0  0  0  0  0  0
    9.4140   -0.2690   -1.0310 S   0  0  0  0  0  0  0  0  0  0  0  0
    9.2120    0.0210    0.7180 N   0  0  0  0  0  0  0  0  0  0  0  0
    7.8790   -0.0860    1.1050 N   0  0  0  0  0  0  0  0  0  0  0  0
    6.9990   -0.6360    0.1400 C   0  0  2  0  0  0  0  0  0  0  0  0
    7.5110   -2.2890   -0.3260 Cl  0  0  0  0  0  0  0  0  0  0  0  0
    5.6290   -0.7160    0.6880 C   0  0  0  0  0  0  0  0  0  0  0  0
    5.3470   -1.3250    1.7600 O   0  0  0  0  0  0  0  0  0  0  0  0
    2.6890    0.3390    1.2860 C   0  0  0  0  0  0  0  0  0  0  0  0
    1.3220    0.4520    1.4180 C   0  0  0  0  0  0  0  0  0  0  0  0
  2  1  1  6
  2  3  1  0
  2  6  1  0
  3  4  1  0
  4  5  1  0
  5  6  1  0
  6  7  1  0
  7  8  2  0
  7  9  1  0
  9 10  1  0
 10 11  1  0
 11 12  2  0
 11 13  1  0
 13 14  2  0
 13 30  1  0
 14 15  1  0
 15 16  2  0
 16 17  1  0
 16 29  1  0
 17 18  1  0
 17 27  1  0
 18 19  2  0
 18 20  1  0
 20 21  2  0
 20 25  1  0
 21 22  1  0
 22 23  1  0
 23 24  1  0
 24 25  1  0
 25 26  1  6
 25 27  1  0
 27 28  2  0
 29 30  2  0
M  END
