
     RDKit          3D

 30 32  0  0  0  0  0  0  0  0999 V2000
   -7.1040    0.9580    1.1280 C   0  0  0  0  0  0  0  0  0  0  0  0
   -5.8740    0.2010    1.2600 C   0  0  0  0  0  0  0  0  0  0  0  0
   -4.6250    0.4410    1.0140 C   0  0  0  0  0  0  0  0  0  0  0  0
   -3.7160   -0.5670    1.2810 N   0  0  0  0  0  0  0  0  0  0  0  0
   -2.4140   -0.4620    1.0780 C   0  0  0  0  0  0  0  0  0  0  0  0
   -1.2850   -1.8180    1.4490 S   0  0  0  0  0  0  0  0  0  0  0  0
   -1.1490   -2.8420   -0.0390 C   0  0  1  0  0  0  0  0  0  0  0  0
   -2.5130   -3.4690   -0.2620 C   0  0  0  0  0  0  0  0  0  0  0  0
   -0.6960   -2.0490   -1.2310 C   0  0  0  0  0  0  0  0  0  0  0  0
    0.5980   -1.4580   -0.9910 N   0  0  0  0  0  0  0  0  0  0  0  0
    1.7340   -2.2240   -0.7210 C   0  0  0  0  0  0  0  0  0  0  0  0
    1.6750   -3.4780   -0.6760 O   0  0  0  0  0  0  0  0  0  0  0  0
    3.0540   -1.6110   -0.4750 C   0  0  1  0  0  0  0  0  0  0  0  0
    4.1390   -2.0880   -1.3910 C   0  0  0  0  0  0  0  0  0  0  0  0
    5.3790   -1.6660   -0.8010 O   0  0  0  0  0  0  0  0  0  0  0  0
    5.4110   -0.3040   -0.4410 C   0  0  0  0  0  0  0  0  0  0  0  0
    6.6260    0.3260   -0.2050 C   0  0  0  0  0  0  0  0  0  0  0  0
    6.6190    1.6620    0.1470 C   0  0  0  0  0  0  0  0  0  0  0  0
    5.4890    2.3810    0.2710 N   0  0  0  0  0  0  0  0  0  0  0  0
    4.3040    1.7830    0.0460 C   0  0  0  0  0  0  0  0  0  0  0  0
    3.0860    2.4430    0.1490 O   0  0  0  0  0  0  0  0  0  0  0  0
    3.1220    3.8110    0.5110 C   0  0  0  0  0  0  0  0  0  0  0  0
    4.2520    0.4390   -0.3120 C   0  0  0  0  0  0  0  0  0  0  0  0
    3.0170   -0.1970   -0.5500 O   0  0  0  0  0  0  0  0  0  0  0  0
   -1.8720    0.6610    0.5850 N   0  0  0  0  0  0  0  0  0  0  0  0
   -2.7000    1.6750    0.3050 C   0  0  0  0  0  0  0  0  0  0  0  0
   -2.2440    2.7520   -0.1590 O   0  0  0  0  0  0  0  0  0  0  0  0
   -4.0800    1.5880    0.5120 C   0  0  0  0  0  0  0  0  0  0  0  0
   -4.8080    2.6380    0.2050 C   0  0  0  0  0  0  0  0  0  0  0  0
   -3.9740    4.0810   -0.4450 Cl  0  0  0  0  0  0  0  0  0  0  0  0
  1  2  1  0
  2  3  2  3
  3  4  1  0
  3 28  1  0
  4  5  2  0
  5  6  1  0
  5 25  1  0
  6  7  1  0
  7  8  1  6
  7  9  1  0
  9 10  1  0
 10 11  1  0
 11 12  2  0
 13 11  1  6
 13 14  1  0
 13 24  1  0
 14 15  1  0
 15 16  1  0
 16 17  2  0
 16 23  1  0
 17 18  1  0
 18 19  2  0
 19 20  1  0
 20 21  1  0
 20 23  2  0
 21 22  1  0
 23 24  1  0
 25 26  1  0
 26 27  2  0
 26 28  1  0
 28 29  2  3
 29 30  1  0
M  END
