
     RDKit          3D

 32 33  0  0  0  0  0  0  0  0999 V2000
   -0.1910   -3.1320    1.8320 C   0  0  0  0  0  0  0  0  0  0  0  0
   -0.3790   -2.2220    0.6730 C   0  0  0  0  0  0  0  0  0  0  0  0
   -0.6380   -0.7890    1.0420 C   0  0  1  0  0  0  0  0  0  0  0  0
   -1.8010   -0.5890    1.8330 N   0  0  0  0  0  0  0  0  0  0  0  0
   -2.8480    0.1650    1.1820 C   0  0  0  0  0  0  0  0  0  0  0  0
   -4.2000   -0.5030    1.3110 C   0  0  2  0  0  0  0  0  0  0  0  0
   -4.2790   -1.8610    0.7150 C   0  0  0  0  0  0  0  0  0  0  0  0
   -4.2650   -1.7960   -0.7710 C   0  0  0  0  0  0  0  0  0  0  0  0
   -5.0790   -0.7300   -1.4000 C   0  0  0  0  0  0  0  0  0  0  0  0
   -5.9020    0.0970   -0.4790 C   0  0  2  0  0  0  0  0  0  0  0  0
   -7.2520   -0.6180   -0.2980 C   0  0  0  0  0  0  0  0  0  0  0  0
   -6.2290    1.3360   -0.9970 O   0  0  0  0  0  0  0  0  0  0  0  0
   -6.9310    1.3850   -2.1380 C   0  0  0  0  0  0  0  0  0  0  0  0
   -7.1550    2.8650   -2.4830 C   0  0  0  0  0  0  0  0  0  0  0  0
   -7.8650    3.5110   -1.4610 O   0  0  0  0  0  0  0  0  0  0  0  0
   -5.3270    0.3440    0.8810 C   0  0  0  0  0  0  0  0  0  0  0  0
    0.5400   -0.1510    1.6780 C   0  0  0  0  0  0  0  0  0  0  0  0
    0.4500    0.4630    2.7950 O   0  0  0  0  0  0  0  0  0  0  0  0
    1.7900   -0.2300    1.0260 N   0  0  0  0  0  0  0  0  0  0  0  0
    2.9930    0.3840    1.6100 C   0  0  0  0  0  0  0  0  0  0  0  0
    4.1540    0.1540    0.7210 C   0  0  0  0  0  0  0  0  0  0  0  0
    5.4610    0.5150    0.7890 C   0  0  0  0  0  0  0  0  0  0  0  0
    6.3060    0.1490   -0.2030 C   0  0  0  0  0  0  0  0  0  0  0  0
    7.7380    0.6010   -0.1450 C   0  0  0  0  0  0  0  0  0  0  0  0
    8.2950    0.7480    0.9730 O   0  0  0  0  0  0  0  0  0  0  0  0
    8.4120    0.8500   -1.3440 N   0  0  0  0  0  0  0  0  0  0  0  0
    9.8100    1.2870   -1.2950 C   0  0  0  0  0  0  0  0  0  0  0  0
    9.8910    2.5860   -0.5800 C   0  0  0  0  0  0  0  0  0  0  0  0
    9.1130    3.5240   -1.2670 O   0  0  0  0  0  0  0  0  0  0  0  0
    5.8260   -0.5630   -1.2270 C   0  0  0  0  0  0  0  0  0  0  0  0
    6.3970   -1.1740   -2.4500 C   0  0  0  0  0  0  0  0  0  0  0  0
    4.0900   -0.7640   -0.8390 S   0  0  0  0  0  0  0  0  0  0  0  0
  1  2  1  0
  3  2  1  1
  3  4  1  0
  3 17  1  0
  4  5  1  0
  6  5  1  6
  6  7  1  0
  6 16  1  0
  7  8  1  0
  8  9  1  0
  9 10  1  0
 10 11  1  1
 10 12  1  0
 10 16  1  0
 12 13  1  0
 13 14  1  0
 14 15  1  0
 17 18  2  0
 17 19  1  0
 19 20  1  0
 20 21  1  0
 21 22  2  0
 21 32  1  0
 22 23  1  0
 23 24  1  0
 23 30  2  0
 24 25  2  0
 24 26  1  0
 26 27  1  0
 27 28  1  0
 28 29  1  0
 30 31  1  0
 30 32  1  0
M  CHG  1   4   1
M  END
