
     RDKit          3D

 33 36  0  0  0  0  0  0  0  0999 V2000
   -1.0440    5.3960    0.7510 C   0  0  0  0  0  0  0  0  0  0  0  0
   -1.7950    4.3870    0.0250 C   0  0  0  0  0  0  0  0  0  0  0  0
   -1.5090    3.0700    0.0010 C   0  0  0  0  0  0  0  0  0  0  0  0
   -2.3710    2.1580   -0.7870 C   0  0  0  0  0  0  0  0  0  0  0  0
   -2.6900    0.9220   -0.6010 C   0  0  0  0  0  0  0  0  0  0  0  0
   -3.6050    0.3970   -1.6590 N   0  0  0  0  0  0  0  0  0  0  0  0
   -3.9210   -0.9460   -1.4530 C   0  0  0  0  0  0  0  0  0  0  0  0
   -2.9120   -1.9440   -1.0200 C   0  0  0  0  0  0  0  0  0  0  0  0
   -1.6730   -1.2940   -0.3420 C   0  0  2  0  0  0  0  0  0  0  0  0
   -0.8220   -0.8680   -1.4970 C   0  0  0  0  0  0  0  0  0  0  0  0
   -0.0260   -1.9900   -2.1020 C   0  0  0  0  0  0  0  0  0  0  0  0
    0.1240   -3.1830   -1.2440 C   0  0  0  0  0  0  0  0  0  0  0  0
    0.1770   -2.8990    0.1260 N   0  0  1  0  0  0  0  0  0  0  0  0
    1.2460   -2.0970    0.6230 C   0  0  0  0  0  0  0  0  0  0  0  0
    2.5920   -2.3000    0.0350 C   0  0  1  0  0  0  0  0  0  0  0  0
    3.1070   -1.0070   -0.5780 C   0  0  0  0  0  0  0  0  0  0  0  0
    3.8800   -0.1930    0.2810 N   0  0  0  0  0  0  0  0  0  0  0  0
    4.7910   -0.8670    1.1380 C   0  0  0  0  0  0  0  0  0  0  0  0
    4.7520   -2.3710    0.8300 C   0  0  0  0  0  0  0  0  0  0  0  0
    3.4470   -2.7670    1.0240 O   0  0  0  0  0  0  0  0  0  0  0  0
    3.2820    0.9990    0.7720 C   0  0  0  0  0  0  0  0  0  0  0  0
    3.0580    1.9470   -0.3610 C   0  0  1  0  0  0  0  0  0  0  0  0
    3.7380    1.5630   -1.5210 O   0  0  0  0  0  0  0  0  0  0  0  0
    1.6270    2.2360   -0.6820 C   0  0  0  0  0  0  0  0  0  0  0  0
    0.7290    1.9070    0.3290 O   0  0  0  0  0  0  0  0  0  0  0  0
   -0.3580    2.6590    0.7940 C   0  0  0  0  0  0  0  0  0  0  0  0
   -0.3740    3.0430    2.0380 O   0  0  0  0  0  0  0  0  0  0  0  0
   -1.0800   -2.2930    0.5440 C   0  0  0  0  0  0  0  0  0  0  0  0
   -2.3850   -0.1300    0.3450 C   0  0  0  0  0  0  0  0  0  0  0  0
   -2.6500   -0.3000    1.6180 C   0  0  0  0  0  0  0  0  0  0  0  0
   -3.3870    0.6170    2.4840 C   0  0  0  0  0  0  0  0  0  0  0  0
   -3.6150    0.3440    3.8240 N   0  0  0  0  0  0  0  0  0  0  0  0
   -3.8160    1.6760    1.9760 O   0  0  0  0  0  0  0  0  0  0  0  0
  1  2  1  0
  2  3  2  3
  3  4  1  0
  3 26  1  0
  4  5  2  0
  5  6  1  0
  5 29  1  0
  6  7  1  0
  7  8  1  0
  9  8  1  6
  9 10  1  0
  9 28  1  0
  9 29  1  0
 10 11  1  0
 11 12  1  0
 13 12  1  6
 13 14  1  0
 13 28  1  0
 15 14  1  1
 15 16  1  0
 15 20  1  0
 16 17  1  0
 17 18  1  0
 17 21  1  0
 18 19  1  0
 19 20  1  0
 21 22  1  0
 22 23  1  6
 22 24  1  0
 24 25  1  0
 25 26  1  0
 26 27  2  0
 29 30  2  3
 30 31  1  0
 31 32  1  0
 31 33  2  0
M  CHG  2   6   1  13   1
M  END
