
     RDKit          3D

 33 34  0  0  0  0  0  0  0  0999 V2000
   -5.1160    2.8070    1.9690 C   0  0  0  0  0  0  0  0  0  0  0  0
   -4.2490    1.9230    2.8320 C   0  0  0  0  0  0  0  0  0  0  0  0
   -3.6110    0.9150    2.0490 O   0  0  0  0  0  0  0  0  0  0  0  0
   -2.8010    1.2190    0.9940 C   0  0  0  0  0  0  0  0  0  0  0  0
   -2.1090    2.7250    1.0450 S   0  0  0  0  0  0  0  0  0  0  0  0
   -2.5010    0.3650   -0.1330 C   0  0  2  0  0  0  0  0  0  0  0  0
   -2.3220    1.2670   -1.3670 C   0  0  0  0  0  0  0  0  0  0  0  0
   -3.5220    2.0580   -1.7380 C   0  0  0  0  0  0  0  0  0  0  0  0
   -3.1500    2.8300   -2.8750 O   0  0  0  0  0  0  0  0  0  0  0  0
   -3.6800   -0.5520   -0.4610 C   0  0  0  0  0  0  0  0  0  0  0  0
   -4.1400   -1.4620    0.5990 C   0  0  2  0  0  0  0  0  0  0  0  0
   -3.2760   -2.4720    1.2110 C   0  0  0  0  0  0  0  0  0  0  0  0
   -4.0420   -3.8000    0.9860 C   0  0  0  0  0  0  0  0  0  0  0  0
   -4.7640   -3.4360   -0.2940 C   0  0  0  0  0  0  0  0  0  0  0  0
   -5.2380   -2.1840    0.0060 O   0  0  0  0  0  0  0  0  0  0  0  0
   -1.2860   -0.4100   -0.1130 N   0  0  0  0  0  0  0  0  0  0  0  0
    0.0010   -0.0050    0.3050 C   0  0  0  0  0  0  0  0  0  0  0  0
    0.1340    1.1480    0.7450 O   0  0  0  0  0  0  0  0  0  0  0  0
    1.0910   -0.9750    0.1830 C   0  0  0  0  0  0  0  0  0  0  0  0
    2.3820   -0.5680    0.5950 N   0  0  0  0  0  0  0  0  0  0  0  0
    3.2110   -0.0320   -0.5660 C   0  0  1  0  0  0  0  0  0  0  0  0
    2.8350    1.4060   -0.6980 C   0  0  0  0  0  0  0  0  0  0  0  0
    3.0390    2.4130    0.3300 C   0  0  0  0  0  0  0  0  0  0  0  0
    4.4030    2.6650    0.5510 O   0  0  0  0  0  0  0  0  0  0  0  0
    4.6120   -0.2870   -0.1690 C   0  0  0  0  0  0  0  0  0  0  0  0
    5.1220    0.0910    1.0560 C   0  0  0  0  0  0  0  0  0  0  0  0
    6.3810   -0.2420    1.5020 C   0  0  0  0  0  0  0  0  0  0  0  0
    7.1820   -1.0070    0.6630 C   0  0  0  0  0  0  0  0  0  0  0  0
    6.7170   -1.4070   -0.5590 C   0  0  0  0  0  0  0  0  0  0  0  0
    5.4250   -1.0400   -0.9670 C   0  0  0  0  0  0  0  0  0  0  0  0
    5.0680   -1.5440   -2.2890 C   0  0  0  0  0  0  0  0  0  0  0  0
    6.0310   -1.4480   -3.3560 N   0  0  0  0  0  0  0  0  0  0  0  0
    3.9670   -2.0380   -2.5190 O   0  0  0  0  0  0  0  0  0  0  0  0
  1  2  1  0
  2  3  1  0
  3  4  1  0
  4  5  2  0
  4  6  1  0
  6  7  1  6
  6 10  1  0
  6 16  1  0
  7  8  1  0
  8  9  1  0
 11 10  1  6
 11 12  1  0
 11 15  1  0
 12 13  1  0
 13 14  1  0
 14 15  1  0
 16 17  1  0
 17 18  2  0
 17 19  1  0
 19 20  1  0
 20 21  1  0
 21 22  1  1
 21 25  1  0
 22 23  1  0
 23 24  1  0
 25 26  2  0
 25 30  1  0
 26 27  1  0
 27 28  2  0
 28 29  1  0
 29 30  2  0
 30 31  1  0
 31 32  1  0
 31 33  2  0
M  CHG  1  20   1
M  END
