
     RDKit          3D

 33 37  0  0  0  0  0  0  0  0999 V2000
   -1.2200   -3.7610    2.3230 C   0  0  0  0  0  0  0  0  0  0  0  0
   -2.0340   -3.8960    1.0420 C   0  0  0  0  0  0  0  0  0  0  0  0
   -1.6980   -2.7920    0.2230 O   0  0  0  0  0  0  0  0  0  0  0  0
   -0.4160   -2.5410   -0.2240 C   0  0  0  0  0  0  0  0  0  0  0  0
    0.0090   -1.3960   -0.7050 C   0  0  0  0  0  0  0  0  0  0  0  0
   -0.8090   -0.1550   -0.8590 C   0  0  0  0  0  0  0  0  0  0  0  0
   -2.1630   -0.3020   -0.4240 N   0  0  0  0  0  0  0  0  0  0  0  0
   -2.8550    0.9640   -0.6020 C   0  0  2  0  0  0  0  0  0  0  0  0
   -3.0910    1.5420    0.7340 C   0  0  0  0  0  0  0  0  0  0  0  0
   -2.3450    2.3100    1.5860 C   0  0  0  0  0  0  0  0  0  0  0  0
   -2.8480    2.7210    2.8260 C   0  0  0  0  0  0  0  0  0  0  0  0
   -2.0940    3.5020    3.6970 O   0  0  0  0  0  0  0  0  0  0  0  0
   -4.0770    2.3480    3.1670 N   0  0  0  0  0  0  0  0  0  0  0  0
   -4.8080    1.6010    2.3410 C   0  0  0  0  0  0  0  0  0  0  0  0
   -4.3590    1.1710    1.1120 C   0  0  0  0  0  0  0  0  0  0  0  0
   -4.9660    0.3790    0.0960 N   0  0  0  0  0  0  0  0  0  0  0  0
   -4.2730    0.7750   -1.0920 C   0  0  2  0  0  0  0  0  0  0  0  0
   -4.3620   -0.2300   -2.2110 C   0  0  0  0  0  0  0  0  0  0  0  0
    1.4570   -1.5330   -1.0740 C   0  0  1  0  0  0  0  0  0  0  0  0
    1.5900   -2.9990   -1.3350 C   0  0  0  0  0  0  0  0  0  0  0  0
    0.6940   -3.5610   -0.2250 C   0  0  0  0  0  0  0  0  0  0  0  0
    1.7890   -0.7250   -2.3160 C   0  0  0  0  0  0  0  0  0  0  0  0
    3.2240   -0.4160   -2.0820 C   0  0  0  0  0  0  0  0  0  0  0  0
    4.1520   -0.1990   -2.9020 O   0  0  0  0  0  0  0  0  0  0  0  0
    3.4500   -0.3910   -0.6640 N   0  0  0  0  0  0  0  0  0  0  0  0
    4.5790    0.1720    0.0090 C   0  0  0  0  0  0  0  0  0  0  0  0
    4.4240    1.6120    0.3840 C   0  0  2  0  0  0  0  0  0  0  0  0
    4.3310    2.4720   -0.8820 C   0  0  0  0  0  0  0  0  0  0  0  0
    4.8340    3.8040   -0.3080 C   0  0  0  0  0  0  0  0  0  0  0  0
    5.7970    3.3450    0.7290 C   0  0  0  0  0  0  0  0  0  0  0  0
    5.5750    2.0330    1.0230 O   0  0  0  0  0  0  0  0  0  0  0  0
    2.3520   -1.0300   -0.0090 C   0  0  0  0  0  0  0  0  0  0  0  0
    2.1370   -1.1670    1.2210 O   0  0  0  0  0  0  0  0  0  0  0  0
  1  2  1  0
  2  3  1  0
  3  4  1  0
  4  5  2  0
  4 21  1  0
  5  6  1  0
  5 19  1  0
  6  7  1  0
  8  7  1  1
  8  9  1  0
  8 17  1  0
  9 10  2  0
  9 15  1  0
 10 11  1  0
 11 12  1  0
 11 13  2  0
 13 14  1  0
 14 15  2  0
 15 16  1  0
 16 17  1  0
 17 18  1  6
 19 20  1  6
 19 22  1  0
 19 32  1  0
 20 21  1  0
 22 23  1  0
 23 24  2  0
 23 25  1  0
 25 26  1  0
 25 32  1  0
 27 26  1  6
 27 28  1  0
 27 31  1  0
 28 29  1  0
 29 30  1  0
 30 31  1  0
 32 33  2  0
M  CHG  2   7   1  16   1
M  END
