
     RDKit          3D

 33 36  0  0  0  0  0  0  0  0999 V2000
   -1.2650    5.8020    2.0300 C   0  0  0  0  0  0  0  0  0  0  0  0
   -1.6120    4.6270    1.1290 C   0  0  1  0  0  0  0  0  0  0  0  0
   -0.6090    3.5500    1.3810 C   0  0  0  0  0  0  0  0  0  0  0  0
   -1.0580    2.3000    0.7220 C   0  0  0  0  0  0  0  0  0  0  0  0
   -0.1410    1.2850    0.5200 C   0  0  0  0  0  0  0  0  0  0  0  0
   -0.5220    0.1160   -0.0890 C   0  0  0  0  0  0  0  0  0  0  0  0
   -1.8400   -0.0440   -0.5000 C   0  0  0  0  0  0  0  0  0  0  0  0
   -2.7440    0.9850   -0.2880 C   0  0  0  0  0  0  0  0  0  0  0  0
   -2.3680    2.1840    0.3300 C   0  0  0  0  0  0  0  0  0  0  0  0
   -3.3550    3.2770    0.5480 C   0  0  0  0  0  0  0  0  0  0  0  0
   -2.8800    4.1620    1.4890 O   0  0  0  0  0  0  0  0  0  0  0  0
   -2.4980   -1.1810   -1.1510 C   0  0  2  0  0  0  0  0  0  0  0  0
   -3.8750   -1.4720   -0.6740 C   0  0  0  0  0  0  0  0  0  0  0  0
   -4.0310   -1.7790    0.7780 C   0  0  0  0  0  0  0  0  0  0  0  0
   -5.5310   -2.0320    1.0030 C   0  0  0  0  0  0  0  0  0  0  0  0
   -6.2620   -0.8530    0.6390 N   0  0  0  0  0  0  0  0  0  0  0  0
   -1.6250   -2.4110   -1.2250 C   0  0  1  0  0  0  0  0  0  0  0  0
   -0.7390   -2.2840   -2.3620 N   0  0  0  0  0  0  0  0  0  0  0  0
   -0.8680   -2.6950    0.0150 C   0  0  0  0  0  0  0  0  0  0  0  0
    0.5970   -2.2440   -0.0890 C   0  0  0  0  0  0  0  0  0  0  0  0
    0.5500   -0.7960   -0.2270 N   0  0  0  0  0  0  0  0  0  0  0  0
    1.8110   -0.2240   -0.5950 C   0  0  0  0  0  0  0  0  0  0  0  0
    1.8480    0.9740   -0.9680 O   0  0  0  0  0  0  0  0  0  0  0  0
    3.0680   -0.9680   -0.5570 C   0  0  0  0  0  0  0  0  0  0  0  0
    3.1240   -2.1440   -0.1820 O   0  0  0  0  0  0  0  0  0  0  0  0
    4.2840   -0.3450   -0.9590 N   0  0  0  0  0  0  0  0  0  0  0  0
    5.5180   -1.0820   -0.9200 C   0  0  1  0  0  0  0  0  0  0  0  0
    6.1930   -1.1230   -2.2400 C   0  0  0  0  0  0  0  0  0  0  0  0
    5.6300   -1.2050   -3.3540 O   0  0  0  0  0  0  0  0  0  0  0  0
    7.5570   -1.0550   -2.0340 O   0  0  0  0  0  0  0  0  0  0  0  0
    7.8450   -1.0190   -0.6460 C   0  0  0  0  0  0  0  0  0  0  0  0
    6.5790   -0.3910   -0.0700 C   0  0  2  0  0  0  0  0  0  0  0  0
    6.4160   -0.6470    1.3880 C   0  0  0  0  0  0  0  0  0  0  0  0
  2  1  1  1
  2  3  1  0
  2 11  1  0
  3  4  1  0
  4  5  2  0
  4  9  1  0
  5  6  1  0
  6  7  2  0
  6 21  1  0
  7  8  1  0
  7 12  1  0
  8  9  2  0
  9 10  1  0
 10 11  1  0
 12 13  1  1
 12 17  1  0
 13 14  1  0
 14 15  1  0
 15 16  1  0
 17 18  1  6
 17 19  1  0
 19 20  1  0
 20 21  1  0
 21 22  1  0
 22 23  2  0
 22 24  1  0
 24 25  2  0
 24 26  1  0
 27 26  1  6
 27 28  1  0
 27 32  1  0
 28 29  2  0
 28 30  1  0
 30 31  1  0
 31 32  1  0
 32 33  1  1
M  CHG  2  16   1  18   1
M  END
