
     RDKit          3D

 32 35  0  0  0  0  0  0  0  0999 V2000
   -1.7530   -3.7830   -2.0320 C   0  0  0  0  0  0  0  0  0  0  0  0
   -2.8560   -2.9500   -1.5590 C   0  0  0  0  0  0  0  0  0  0  0  0
   -4.1790   -3.2460   -1.9100 C   0  0  0  0  0  0  0  0  0  0  0  0
   -5.2020   -2.5070   -1.4960 N   0  0  0  0  0  0  0  0  0  0  0  0
   -4.9490   -1.4210   -0.7000 C   0  0  0  0  0  0  0  0  0  0  0  0
   -6.0480   -0.6510   -0.2720 N   0  0  0  0  0  0  0  0  0  0  0  0
   -5.9660    0.4850    0.5410 C   0  0  0  0  0  0  0  0  0  0  0  0
   -4.8430    1.0530    1.0620 C   0  0  0  0  0  0  0  0  0  0  0  0
   -4.8290    2.1860    1.8650 C   0  0  0  0  0  0  0  0  0  0  0  0
   -5.9990    2.8010    2.1760 C   0  0  0  0  0  0  0  0  0  0  0  0
   -7.1700    2.2610    1.6700 C   0  0  0  0  0  0  0  0  0  0  0  0
   -7.1700    1.1420    0.8780 C   0  0  0  0  0  0  0  0  0  0  0  0
   -8.7190    0.5650    0.3040 Cl  0  0  0  0  0  0  0  0  0  0  0  0
   -3.6850   -1.1590   -0.3800 N   0  0  0  0  0  0  0  0  0  0  0  0
   -2.6080   -1.8550   -0.7580 C   0  0  0  0  0  0  0  0  0  0  0  0
   -1.2920   -1.4430   -0.3260 C   0  0  0  0  0  0  0  0  0  0  0  0
   -0.8990   -1.0480    0.9600 C   0  0  0  0  0  0  0  0  0  0  0  0
    0.4130   -0.7390    0.9530 N   0  0  0  0  0  0  0  0  0  0  0  0
    0.9240   -0.9060   -0.2790 C   0  0  0  0  0  0  0  0  0  0  0  0
    2.3220   -0.6720   -0.6910 C   0  0  0  0  0  0  0  0  0  0  0  0
    2.6420   -0.8770   -1.8910 O   0  0  0  0  0  0  0  0  0  0  0  0
    3.3000   -0.2230    0.2350 N   0  0  0  0  0  0  0  0  0  0  0  0
    4.6330   -0.0140   -0.2190 C   0  0  2  0  0  0  0  0  0  0  0  0
    5.6130   -0.9950    0.4430 C   0  0  0  0  0  0  0  0  0  0  0  0
    6.8960   -0.7400   -0.0400 O   0  0  0  0  0  0  0  0  0  0  0  0
    5.1690    1.3200    0.0010 C   0  0  0  0  0  0  0  0  0  0  0  0
    5.0350    2.0260    1.1840 C   0  0  0  0  0  0  0  0  0  0  0  0
    5.5740    3.2890    1.3170 C   0  0  0  0  0  0  0  0  0  0  0  0
    6.2640    3.8900    0.2790 C   0  0  0  0  0  0  0  0  0  0  0  0
    6.4000    3.2020   -0.8870 C   0  0  0  0  0  0  0  0  0  0  0  0
    5.8600    1.9440   -1.0130 C   0  0  0  0  0  0  0  0  0  0  0  0
   -0.1190   -1.3380   -1.0660 C   0  0  0  0  0  0  0  0  0  0  0  0
  1  2  1  0
  2  3  2  0
  2 15  1  0
  3  4  1  0
  4  5  2  0
  5  6  1  0
  5 14  1  0
  6  7  1  0
  7  8  2  0
  7 12  1  0
  8  9  1  0
  9 10  2  0
 10 11  1  0
 11 12  2  0
 12 13  1  0
 14 15  2  0
 15 16  1  0
 16 17  2  0
 16 32  1  0
 17 18  1  0
 18 19  1  0
 19 20  1  0
 19 32  2  0
 20 21  2  0
 20 22  1  0
 22 23  1  0
 23 24  1  1
 23 26  1  0
 24 25  1  0
 26 27  2  0
 26 31  1  0
 27 28  1  0
 28 29  2  0
 29 30  1  0
 30 31  2  0
M  END
