
     RDKit          3D

 33 35  0  0  0  0  0  0  0  0999 V2000
    1.6940   -3.2340    3.0040 C   0  0  0  0  0  0  0  0  0  0  0  0
    1.9330   -1.7510    2.9510 C   0  0  0  0  0  0  0  0  0  0  0  0
    2.5500   -1.4590    1.5990 C   0  0  0  0  0  0  0  0  0  0  0  0
    3.8200   -1.2030    1.4000 N   0  0  0  0  0  0  0  0  0  0  0  0
    4.4120   -0.9690    0.4410 C   0  0  0  0  0  0  0  0  0  0  0  0
    5.7770   -0.6450   -0.1370 C   0  0  0  0  0  0  0  0  0  0  0  0
    5.9920    0.8490   -0.1510 C   0  0  0  0  0  0  0  0  0  0  0  0
    4.9570    1.5620   -0.9820 C   0  0  0  0  0  0  0  0  0  0  0  0
    5.2960    3.0570   -0.9070 C   0  0  0  0  0  0  0  0  0  0  0  0
    6.5690    3.2490   -1.4140 O   0  0  0  0  0  0  0  0  0  0  0  0
    2.9810   -1.0580   -0.8400 S   0  0  0  0  0  0  0  0  0  0  0  0
    1.7790   -1.4500    0.4830 C   0  0  0  0  0  0  0  0  0  0  0  0
    0.3260   -1.6740    0.2240 C   0  0  0  0  0  0  0  0  0  0  0  0
   -0.4900   -0.5330    0.6080 C   0  0  0  0  0  0  0  0  0  0  0  0
    0.0420    0.5090    1.0700 O   0  0  0  0  0  0  0  0  0  0  0  0
   -1.9020   -0.5660    0.4770 N   0  0  0  0  0  0  0  0  0  0  0  0
   -2.5930   -1.6860   -0.0680 C   0  0  0  0  0  0  0  0  0  0  0  0
   -2.9590   -1.7110   -1.5010 C   0  0  1  0  0  0  0  0  0  0  0  0
   -1.9550   -1.5680   -2.4160 O   0  0  0  0  0  0  0  0  0  0  0  0
   -3.5100   -3.1630   -1.8270 C   0  0  0  0  0  0  0  0  0  0  0  0
   -4.2950   -2.8550   -3.0580 C   0  0  0  0  0  0  0  0  0  0  0  0
   -4.4880   -1.4810   -3.1310 O   0  0  0  0  0  0  0  0  0  0  0  0
   -4.2210   -0.9720   -1.8620 C   0  0  0  0  0  0  0  0  0  0  0  0
   -2.7050    0.5510    0.9950 C   0  0  1  0  0  0  0  0  0  0  0  0
   -2.7980    0.4010    2.5180 C   0  0  0  0  0  0  0  0  0  0  0  0
   -1.9210    1.3660    3.0180 O   0  0  0  0  0  0  0  0  0  0  0  0
   -2.0630    2.4710    2.1590 C   0  0  0  0  0  0  0  0  0  0  0  0
   -2.1070    3.7570    2.4280 C   0  0  0  0  0  0  0  0  0  0  0  0
   -2.0100    4.2310    3.7220 O   0  0  0  0  0  0  0  0  0  0  0  0
   -2.1570    1.8700    0.7970 C   0  0  0  0  0  0  0  0  0  0  0  0
   -1.7470    2.5520   -0.2410 C   0  0  0  0  0  0  0  0  0  0  0  0
   -1.7530    2.0440   -1.6270 C   0  0  0  0  0  0  0  0  0  0  0  0
   -2.5840    2.8370   -2.4920 N   0  0  0  0  0  0  0  0  0  0  0  0
  1  2  1  0
  2  3  1  0
  3  4  1  0
  3 12  2  0
  4  5  2  0
  5  6  1  0
  5 11  1  0
  6  7  1  0
  7  8  1  0
  8  9  1  0
  9 10  1  0
 11 12  1  0
 12 13  1  0
 13 14  1  0
 14 15  2  0
 14 16  1  0
 16 17  1  0
 24 16  1  1
 17 18  1  0
 18 19  1  6
 18 20  1  0
 18 23  1  0
 20 21  1  0
 21 22  1  0
 22 23  1  0
 24 25  1  0
 24 30  1  0
 25 26  1  0
 26 27  1  0
 27 28  2  3
 27 30  1  0
 28 29  1  0
 30 31  2  3
 31 32  1  0
 32 33  1  0
M  CHG  1  33   1
M  END
