
     RDKit          3D

 44 47  0  0  0  0  0  0  0  0999 V2000
    5.4720   -2.1160   -3.3740 C   0  0  0  0  0  0  0  0  0  0  0  0
    4.0890   -1.7900   -2.8120 C   0  0  2  0  0  0  0  0  0  0  0  0
    3.3350   -0.8660   -3.7190 C   0  0  0  0  0  0  0  0  0  0  0  0
    4.1980   -1.3020   -1.3830 C   0  0  1  0  0  0  0  0  0  0  0  0
    4.9820   -0.1340   -1.2240 N   0  0  0  0  0  0  0  0  0  0  0  0
    6.3250   -0.1320   -0.7050 C   0  0  0  0  0  0  0  0  0  0  0  0
    6.8080   -1.2450   -0.3940 O   0  0  0  0  0  0  0  0  0  0  0  0
    7.0970    1.0400   -0.5370 N   0  0  0  0  0  0  0  0  0  0  0  0
    8.4270    1.1040   -0.0550 C   0  0  0  0  0  0  0  0  0  0  0  0
    8.7280    0.6090    1.3030 C   0  0  1  0  0  0  0  0  0  0  0  0
    8.4200   -0.7270    1.4600 O   0  0  0  0  0  0  0  0  0  0  0  0
   10.2490    0.7110    1.5060 C   0  0  0  0  0  0  0  0  0  0  0  0
   10.7600    2.1080    1.3830 C   0  0  0  0  0  0  0  0  0  0  0  0
   12.5460    2.1110    1.6540 S   0  0  0  0  0  0  0  0  0  0  0  0
   13.1830    3.2300    0.8390 O   0  0  0  0  0  0  0  0  0  0  0  0
    2.8410   -1.0560   -0.8510 C   0  0  0  0  0  0  0  0  0  0  0  0
    2.1800   -1.9730   -0.0510 C   0  0  0  0  0  0  0  0  0  0  0  0
    0.8960   -1.7440    0.4260 C   0  0  0  0  0  0  0  0  0  0  0  0
    0.2090   -0.5930    0.1270 C   0  0  0  0  0  0  0  0  0  0  0  0
   -1.1670   -0.2910    0.5660 C   0  0  0  0  0  0  0  0  0  0  0  0
   -1.4570   -0.7980    1.8280 O   0  0  0  0  0  0  0  0  0  0  0  0
   -2.7510   -0.5560    2.2070 C   0  0  2  0  0  0  0  0  0  0  0  0
   -2.9220    0.4560    3.3210 C   0  0  0  0  0  0  0  0  0  0  0  0
   -4.3700    0.8530    3.2640 C   0  0  0  0  0  0  0  0  0  0  0  0
   -4.7400    2.0280    3.3830 O   0  0  0  0  0  0  0  0  0  0  0  0
   -5.3100   -0.1900    3.0660 N   0  0  0  0  0  0  0  0  0  0  0  0
   -4.9910   -1.2850    2.2740 N   0  0  0  0  0  0  0  0  0  0  0  0
   -5.7760   -1.9220    1.3250 C   0  0  0  0  0  0  0  0  0  0  0  0
   -5.3000   -3.0510    0.8310 O   0  0  0  0  0  0  0  0  0  0  0  0
   -7.0520   -1.5580    0.7690 C   0  0  0  0  0  0  0  0  0  0  0  0
   -7.6860   -0.4510    1.0550 C   0  0  0  0  0  0  0  0  0  0  0  0
   -9.0020   -0.0470    0.5050 C   0  0  1  0  0  0  0  0  0  0  0  0
   -8.8530    1.3440   -0.0460 C   0  0  0  0  0  0  0  0  0  0  0  0
   -9.2670    2.4620    0.6010 C   0  0  0  0  0  0  0  0  0  0  0  0
   -9.1140    3.7160    0.0230 C   0  0  0  0  0  0  0  0  0  0  0  0
   -8.5440    3.8700   -1.2090 C   0  0  0  0  0  0  0  0  0  0  0  0
   -8.1160    2.7260   -1.8820 C   0  0  0  0  0  0  0  0  0  0  0  0
   -8.2760    1.4680   -1.2880 C   0  0  0  0  0  0  0  0  0  0  0  0
   -9.6700   -0.9510   -0.4310 C   0  0  0  0  0  0  0  0  0  0  0  0
   -8.8940   -2.1680   -0.7020 C   0  0  0  0  0  0  0  0  0  0  0  0
   -7.7260   -2.4860   -0.1950 C   0  0  0  0  0  0  0  0  0  0  0  0
   -3.5780   -1.8070    2.4280 C   0  0  0  0  0  0  0  0  0  0  0  0
    0.8750    0.3380   -0.6820 C   0  0  0  0  0  0  0  0  0  0  0  0
    2.1480    0.0990   -1.1470 C   0  0  0  0  0  0  0  0  0  0  0  0
  2  1  1  6
  2  3  1  0
  2  4  1  0
  4  5  1  6
  4 16  1  0
  5  6  1  0
  6  7  2  0
  6  8  1  0
  8  9  1  0
  9 10  1  0
 10 11  1  6
 10 12  1  0
 12 13  1  0
 13 14  1  0
 14 15  2  0
 16 17  2  0
 16 44  1  0
 17 18  1  0
 18 19  2  0
 19 20  1  0
 19 43  1  0
 20 21  1  0
 22 21  1  1
 22 23  1  0
 22 42  1  0
 23 24  1  0
 24 25  2  0
 24 26  1  0
 26 27  1  0
 27 28  1  0
 27 42  1  0
 28 29  2  0
 28 30  1  0
 30 31  2  0
 30 41  1  0
 31 32  1  0
 32 33  1  6
 32 39  1  0
 33 34  2  0
 33 38  1  0
 34 35  1  0
 35 36  2  0
 36 37  1  0
 37 38  2  0
 39 40  1  0
 40 41  2  0
 43 44  2  0
M  END
