
     RDKit          3D

 44 47  0  0  0  0  0  0  0  0999 V2000
    7.5750    4.2050    1.8820 C   0  0  0  0  0  0  0  0  0  0  0  0
    8.5740    2.9630    1.1140 S   0  0  0  0  0  0  0  0  0  0  0  0
    8.8440    1.8370    2.0660 O   0  0  0  0  0  0  0  0  0  0  0  0
    8.0730    2.4720   -0.4940 C   0  0  0  0  0  0  0  0  0  0  0  0
    6.7180    1.8780   -0.6500 C   0  0  1  0  0  0  0  0  0  0  0  0
    6.5860    1.5400   -2.1500 C   0  0  0  0  0  0  0  0  0  0  0  0
    7.5360    0.6490   -2.5770 O   0  0  0  0  0  0  0  0  0  0  0  0
    6.6060    0.5520    0.0800 C   0  0  0  0  0  0  0  0  0  0  0  0
    5.2570   -0.0610   -0.2180 C   0  0  0  0  0  0  0  0  0  0  0  0
    4.2330    0.8470    0.2630 N   0  0  0  0  0  0  0  0  0  0  0  0
    2.8590    0.4100    0.3810 C   0  0  0  0  0  0  0  0  0  0  0  0
    2.0280    1.2220    0.8020 O   0  0  0  0  0  0  0  0  0  0  0  0
    2.4850   -0.9060    0.0230 N   0  0  0  0  0  0  0  0  0  0  0  0
    1.1790   -1.4650    0.0970 C   0  0  0  0  0  0  0  0  0  0  0  0
    0.1670   -0.8530    0.7760 C   0  0  0  0  0  0  0  0  0  0  0  0
   -1.1060   -1.4310    0.8980 C   0  0  0  0  0  0  0  0  0  0  0  0
   -1.4040   -2.6340    0.3460 C   0  0  0  0  0  0  0  0  0  0  0  0
   -2.6700   -3.2700    0.4160 C   0  0  0  0  0  0  0  0  0  0  0  0
   -2.6960   -4.4760   -0.1910 O   0  0  0  0  0  0  0  0  0  0  0  0
   -3.9150   -2.9940    0.9480 N   0  0  0  0  0  0  0  0  0  0  0  0
   -4.9310   -4.0710    0.7490 C   0  0  0  0  0  0  0  0  0  0  0  0
   -5.6720   -3.8920   -0.5550 C   0  0  0  0  0  0  0  0  0  0  0  0
   -6.6130   -4.9150   -0.7200 O   0  0  0  0  0  0  0  0  0  0  0  0
   -4.3090   -1.8200    1.6490 C   0  0  1  0  0  0  0  0  0  0  0  0
   -3.7780   -1.8500    3.0620 C   0  0  0  0  0  0  0  0  0  0  0  0
   -4.2110   -0.7380    3.9210 C   0  0  0  0  0  0  0  0  0  0  0  0
   -4.4330    0.5650    3.1930 C   0  0  0  0  0  0  0  0  0  0  0  0
   -5.3510    0.3250    2.0270 C   0  0  0  0  0  0  0  0  0  0  0  0
   -4.6410   -0.5850    0.9920 C   0  0  1  0  0  0  0  0  0  0  0  0
   -3.9220    0.2640    0.0860 C   0  0  0  0  0  0  0  0  0  0  0  0
   -3.4580   -0.1570   -1.2420 C   0  0  0  0  0  0  0  0  0  0  0  0
   -2.7010    0.9750   -1.9630 C   0  0  0  0  0  0  0  0  0  0  0  0
   -3.5540    2.1690   -2.1430 C   0  0  0  0  0  0  0  0  0  0  0  0
   -3.2820    3.3680   -1.6500 C   0  0  0  0  0  0  0  0  0  0  0  0
   -4.3420    4.3390   -2.0150 C   0  0  0  0  0  0  0  0  0  0  0  0
   -5.2830    3.5310   -2.8000 C   0  0  0  0  0  0  0  0  0  0  0  0
   -4.8020    2.3010   -2.8520 C   0  0  0  0  0  0  0  0  0  0  0  0
   -0.3770   -3.2480   -0.3400 C   0  0  0  0  0  0  0  0  0  0  0  0
    0.9170   -2.6820   -0.4770 C   0  0  0  0  0  0  0  0  0  0  0  0
    1.8860   -3.4080   -1.2580 C   0  0  0  0  0  0  0  0  0  0  0  0
    1.5080   -4.6960   -1.7910 N   0  0  0  0  0  0  0  0  0  0  0  0
    3.0150   -3.0350   -1.5200 O   0  0  0  0  0  0  0  0  0  0  0  0
    4.5940    2.1810    0.6210 C   0  0  0  0  0  0  0  0  0  0  0  0
    5.6120    2.8150   -0.3100 C   0  0  0  0  0  0  0  0  0  0  0  0
  2  1  1  1
  2  3  2  0
  2  4  1  0
  5  4  1  6
  5  6  1  0
  5  8  1  0
  5 44  1  0
  6  7  1  0
  8  9  1  0
  9 10  1  0
 10 11  1  0
 10 43  1  0
 11 12  2  0
 11 13  1  0
 13 14  1  0
 14 15  2  0
 14 39  1  0
 15 16  1  0
 16 17  2  0
 17 18  1  0
 17 38  1  0
 18 19  2  0
 18 20  1  0
 20 21  1  0
 24 20  1  6
 21 22  1  0
 22 23  1  0
 24 25  1  0
 24 29  1  0
 25 26  1  0
 26 27  1  0
 27 28  1  0
 28 29  1  0
 29 30  1  1
 30 31  1  0
 31 32  1  0
 32 33  1  0
 33 34  2  0
 33 37  1  0
 34 35  1  0
 35 36  1  0
 36 37  2  0
 38 39  2  0
 39 40  1  0
 40 41  1  0
 40 42  2  0
 43 44  1  0
M  END
