
     RDKit          3D

 44 47  0  0  0  0  0  0  0  0999 V2000
   -7.0190   -3.1050    2.7910 C   0  0  0  0  0  0  0  0  0  0  0  0
   -6.4800   -2.7210    1.3900 C   0  0  0  0  0  0  0  0  0  0  0  0
   -5.7460   -3.7980    0.7490 C   0  0  0  0  0  0  0  0  0  0  0  0
   -6.8320   -1.5380    1.0170 C   0  0  0  0  0  0  0  0  0  0  0  0
   -6.5580   -0.7830   -0.1830 C   0  0  0  0  0  0  0  0  0  0  0  0
   -7.1390    0.4140   -0.2650 C   0  0  0  0  0  0  0  0  0  0  0  0
   -7.0700    1.4090   -1.3270 C   0  0  2  0  0  0  0  0  0  0  0  0
   -6.6520    2.7540   -0.6950 C   0  0  0  0  0  0  0  0  0  0  0  0
   -8.4960    1.5900   -1.8240 C   0  0  0  0  0  0  0  0  0  0  0  0
   -9.4630    2.0560   -0.9170 N   0  0  0  0  0  0  0  0  0  0  0  0
   -8.8070    1.3360   -2.9960 O   0  0  0  0  0  0  0  0  0  0  0  0
   -5.5960   -1.2630   -1.1920 C   0  0  1  0  0  0  0  0  0  0  0  0
   -5.8160   -0.8230   -2.4720 O   0  0  0  0  0  0  0  0  0  0  0  0
   -4.2230   -1.0250   -0.6470 C   0  0  1  0  0  0  0  0  0  0  0  0
   -3.1760   -1.5250   -1.6170 C   0  0  0  0  0  0  0  0  0  0  0  0
   -1.8560   -1.4170   -0.8400 C   0  0  0  0  0  0  0  0  0  0  0  0
   -1.5610   -0.0720   -0.5140 N   0  0  0  0  0  0  0  0  0  0  0  0
   -0.3450    0.6940   -1.4060 S   0  0  2  0  0  0  0  0  0  0  0  0
   -0.8540    2.0520   -1.8630 O   0  0  0  0  0  0  0  0  0  0  0  0
    0.0180   -0.1590   -2.5830 O   0  0  0  0  0  0  0  0  0  0  0  0
    1.0430    1.0020   -0.3830 C   0  0  0  0  0  0  0  0  0  0  0  0
    1.0950    2.1890    0.3420 C   0  0  0  0  0  0  0  0  0  0  0  0
    2.1850    2.4580    1.1490 C   0  0  0  0  0  0  0  0  0  0  0  0
    3.2420    1.5810    1.2670 C   0  0  0  0  0  0  0  0  0  0  0  0
    3.2040    0.4000    0.5540 C   0  0  0  0  0  0  0  0  0  0  0  0
    2.1100    0.1390   -0.2510 C   0  0  0  0  0  0  0  0  0  0  0  0
    4.3280   -0.5850    0.6310 C   0  0  2  0  0  0  0  0  0  0  0  0
    5.0220   -0.3220    1.9490 C   0  0  0  0  0  0  0  0  0  0  0  0
    5.5350    1.0820    1.6790 C   0  0  2  0  0  0  0  0  0  0  0  0
    4.3650    1.9750    2.1600 C   0  0  0  0  0  0  0  0  0  0  0  0
    5.6350    1.2120    0.1990 C   0  0  1  0  0  0  0  0  0  0  0  0
    6.7550    2.0380   -0.3150 C   0  0  0  0  0  0  0  0  0  0  0  0
    6.7520    2.1010   -1.8300 C   0  0  0  0  0  0  0  0  0  0  0  0
    7.8100    2.9070   -2.3740 C   0  0  0  0  0  0  0  0  0  0  0  0
    8.6810    3.5520   -2.8020 N   0  0  0  0  0  0  0  0  0  0  0  0
    5.4570   -0.1590   -0.3130 C   0  0  1  0  0  0  0  0  0  0  0  0
    6.4780   -1.1580   -0.1540 C   0  0  0  0  0  0  0  0  0  0  0  0
    6.3380   -2.2150   -0.8840 O   0  0  0  0  0  0  0  0  0  0  0  0
    7.6120   -1.1720    0.6750 N   0  0  0  0  0  0  0  0  0  0  0  0
    8.5470   -2.2740    0.7260 C   0  0  0  0  0  0  0  0  0  0  0  0
    9.6320   -1.9400    1.7230 C   0  0  0  0  0  0  0  0  0  0  0  0
   10.3260   -0.7790    1.3690 O   0  0  0  0  0  0  0  0  0  0  0  0
   -2.5850    0.7430    0.0060 C   0  0  0  0  0  0  0  0  0  0  0  0
   -3.9770    0.4780   -0.5240 C   0  0  0  0  0  0  0  0  0  0  0  0
  1  2  1  0
  2  3  1  0
  2  4  2  3
  4  5  1  0
  5  6  2  3
  5 12  1  0
  6  7  1  0
  7  8  1  1
  7  9  1  0
  9 10  1  0
  9 11  2  0
 12 13  1  6
 12 14  1  0
 14 15  1  6
 14 44  1  0
 15 16  1  0
 16 17  1  0
 18 17  1  1
 17 43  1  0
 18 19  2  0
 18 20  2  0
 18 21  1  0
 21 22  2  0
 21 26  1  0
 22 23  1  0
 23 24  2  0
 24 25  1  0
 24 30  1  0
 25 26  2  0
 27 25  1  6
 27 28  1  0
 27 36  1  0
 28 29  1  0
 29 30  1  6
 29 31  1  0
 31 32  1  1
 31 36  1  0
 32 33  1  0
 33 34  1  0
 34 35  3  0
 36 37  1  1
 37 38  2  0
 37 39  1  0
 39 40  1  0
 40 41  1  0
 41 42  1  0
 43 44  1  0
M  END
