
     RDKit          3D

 44 47  0  0  0  0  0  0  0  0999 V2000
   -7.3260   -2.6420    2.4910 C   0  0  0  0  0  0  0  0  0  0  0  0
   -6.8570   -1.3340    1.9420 C   0  0  0  0  0  0  0  0  0  0  0  0
   -5.6270   -1.5240    1.0320 C   0  0  0  0  0  0  0  0  0  0  0  0
   -4.5020   -2.1320    1.7810 C   0  0  0  0  0  0  0  0  0  0  0  0
   -3.2750   -2.3300    1.0290 N   0  0  0  0  0  0  0  0  0  0  0  0
   -3.1600   -3.5580    0.2930 C   0  0  0  0  0  0  0  0  0  0  0  0
   -3.7440   -3.4620   -1.0640 C   0  0  0  0  0  0  0  0  0  0  0  0
   -4.1290   -4.4290   -1.9500 C   0  0  0  0  0  0  0  0  0  0  0  0
   -4.6290   -4.0700   -3.1330 C   0  0  0  0  0  0  0  0  0  0  0  0
   -4.7710   -2.7900   -3.4930 C   0  0  0  0  0  0  0  0  0  0  0  0
   -4.1070   -1.9530   -1.9490 S   0  0  0  0  0  0  0  0  0  0  0  0
   -2.2660   -1.3470    0.9820 C   0  0  0  0  0  0  0  0  0  0  0  0
   -2.4780   -0.2120    1.5330 O   0  0  0  0  0  0  0  0  0  0  0  0
   -0.9810   -1.6380    0.3020 C   0  0  2  0  0  0  0  0  0  0  0  0
   -0.1650   -2.4120    1.3160 C   0  0  0  0  0  0  0  0  0  0  0  0
    0.3240   -1.4860    2.3890 C   0  0  0  0  0  0  0  0  0  0  0  0
    0.8720   -0.1870    1.9030 C   0  0  0  0  0  0  0  0  0  0  0  0
    0.9190   -0.0830    0.4080 C   0  0  1  0  0  0  0  0  0  0  0  0
    2.1860   -0.6900   -0.1740 C   0  0  1  0  0  0  0  0  0  0  0  0
    2.3080   -0.3850   -1.5460 O   0  0  0  0  0  0  0  0  0  0  0  0
    3.4420   -0.0820    0.4480 C   0  0  0  0  0  0  0  0  0  0  0  0
    4.6260   -0.7470   -0.2050 C   0  0  0  0  0  0  0  0  0  0  0  0
    4.4610   -1.6360   -1.0570 O   0  0  0  0  0  0  0  0  0  0  0  0
    5.9160   -0.2920    0.2160 N   0  0  0  0  0  0  0  0  0  0  0  0
    7.0850   -0.8820   -0.3640 C   0  0  1  0  0  0  0  0  0  0  0  0
    7.0930   -2.3680   -0.0650 C   0  0  0  0  0  0  0  0  0  0  0  0
    7.0640   -0.7250   -1.8720 C   0  0  0  0  0  0  0  0  0  0  0  0
    8.5100   -0.4740   -2.2050 C   0  0  0  0  0  0  0  0  0  0  0  0
    8.9500    0.4310   -1.0900 C   0  0  0  0  0  0  0  0  0  0  0  0
    8.3040   -0.1690    0.1260 C   0  0  0  0  0  0  0  0  0  0  0  0
   -0.2810   -0.4950   -0.1650 N   0  0  0  0  0  0  0  0  0  0  0  0
   -0.6740    0.0360   -1.3870 C   0  0  0  0  0  0  0  0  0  0  0  0
   -1.1100    1.4500   -1.3950 C   0  0  0  0  0  0  0  0  0  0  0  0
   -1.4300    1.9660   -2.5380 O   0  0  0  0  0  0  0  0  0  0  0  0
   -1.2170    2.2940   -0.2830 N   0  0  0  0  0  0  0  0  0  0  0  0
   -1.6130    3.6480   -0.2460 C   0  0  0  0  0  0  0  0  0  0  0  0
   -1.5990    4.4300   -1.3620 C   0  0  0  0  0  0  0  0  0  0  0  0
   -2.0200    5.7680   -1.3010 C   0  0  0  0  0  0  0  0  0  0  0  0
   -2.4500    6.3080   -0.1180 C   0  0  0  0  0  0  0  0  0  0  0  0
   -2.8890    7.7310   -0.0930 C   0  0  0  0  0  0  0  0  0  0  0  0
   -2.7720    8.2780   -1.3490 O   0  0  0  0  0  0  0  0  0  0  0  0
   -2.4710    5.5330    1.0260 C   0  0  0  0  0  0  0  0  0  0  0  0
   -2.9050    6.0750    2.2230 O   0  0  0  0  0  0  0  0  0  0  0  0
   -2.0560    4.2340    0.9370 C   0  0  0  0  0  0  0  0  0  0  0  0
  1  2  1  0
  2  3  1  0
  3  4  1  0
  4  5  1  0
  5  6  1  0
  5 12  1  0
  6  7  1  0
  7  8  2  0
  7 11  1  0
  8  9  1  0
  9 10  2  0
 10 11  1  0
 12 13  2  0
 14 12  1  1
 14 15  1  0
 14 31  1  0
 15 16  1  0
 16 17  1  0
 18 17  1  1
 18 19  1  0
 18 31  1  0
 19 20  1  6
 19 21  1  0
 21 22  1  0
 22 23  2  0
 22 24  1  0
 24 25  1  0
 25 26  1  6
 25 27  1  0
 25 30  1  0
 27 28  1  0
 28 29  1  0
 29 30  1  0
 31 32  1  0
 32 33  1  0
 33 34  2  0
 33 35  1  0
 35 36  1  0
 36 37  2  0
 36 44  1  0
 37 38  1  0
 38 39  2  0
 39 40  1  0
 39 42  1  0
 40 41  1  0
 42 43  1  0
 42 44  2  0
M  END
