
     RDKit          3D

 44 47  0  0  0  0  0  0  0  0999 V2000
   -9.7470    0.1120   -0.8880 C   0  0  0  0  0  0  0  0  0  0  0  0
   -8.7930    1.2160   -0.4600 C   0  0  1  0  0  0  0  0  0  0  0  0
   -9.5910    2.3140    0.1460 C   0  0  0  0  0  0  0  0  0  0  0  0
  -10.5560    1.7290    1.5870 S   0  0  0  0  0  0  0  0  0  0  0  0
   -7.7400    0.7390    0.4130 N   0  0  0  0  0  0  0  0  0  0  0  0
   -6.4670    0.5440   -0.1110 C   0  0  0  0  0  0  0  0  0  0  0  0
   -6.3570    0.7780   -1.3820 O   0  0  0  0  0  0  0  0  0  0  0  0
   -5.2280    0.1310    0.5490 C   0  0  0  0  0  0  0  0  0  0  0  0
   -4.3450   -0.5670   -0.3300 C   0  0  0  0  0  0  0  0  0  0  0  0
   -3.3220   -1.3360    0.2070 C   0  0  0  0  0  0  0  0  0  0  0  0
   -2.5150   -1.9850   -0.6720 O   0  0  0  0  0  0  0  0  0  0  0  0
   -1.4090   -2.7510   -0.5280 C   0  0  0  0  0  0  0  0  0  0  0  0
   -0.1530   -2.0270   -0.0500 C   0  0  0  0  0  0  0  0  0  0  0  0
    0.2310   -0.9680   -1.0850 C   0  0  2  0  0  0  0  0  0  0  0  0
   -0.8070    0.0970   -1.2530 C   0  0  0  0  0  0  0  0  0  0  0  0
    0.2300   -1.7760   -2.3980 C   0  0  0  0  0  0  0  0  0  0  0  0
    0.8870   -1.0360   -3.5060 C   0  0  0  0  0  0  0  0  0  0  0  0
    1.7870   -0.0850   -3.0600 O   0  0  0  0  0  0  0  0  0  0  0  0
    2.4590   -0.6430   -1.9440 C   0  0  1  0  0  0  0  0  0  0  0  0
    3.8360   -0.1270   -1.9050 C   0  0  0  0  0  0  0  0  0  0  0  0
    4.2430    0.6490   -2.8670 O   0  0  0  0  0  0  0  0  0  0  0  0
    4.8080   -0.3840   -0.9140 N   0  0  0  0  0  0  0  0  0  0  0  0
    6.1300    0.1590   -0.9570 C   0  0  0  0  0  0  0  0  0  0  0  0
    6.5000    1.3190   -1.5710 C   0  0  0  0  0  0  0  0  0  0  0  0
    7.8230    1.7460   -1.6420 C   0  0  0  0  0  0  0  0  0  0  0  0
    8.8270    0.9870   -1.0740 C   0  0  0  0  0  0  0  0  0  0  0  0
    8.4900   -0.2010   -0.4360 C   0  0  0  0  0  0  0  0  0  0  0  0
    9.5380   -1.0570    0.1660 C   0  0  1  0  0  0  0  0  0  0  0  0
   10.5890   -1.1210   -0.7580 O   0  0  0  0  0  0  0  0  0  0  0  0
    9.9860   -0.4580    1.4330 C   0  0  0  0  0  0  0  0  0  0  0  0
    9.7030   -0.9400    2.6890 C   0  0  0  0  0  0  0  0  0  0  0  0
   10.2920   -0.1460    3.6380 C   0  0  0  0  0  0  0  0  0  0  0  0
   10.9410    0.8320    2.9740 N   0  0  0  0  0  0  0  0  0  0  0  0
   10.7670    0.6580    1.6290 C   0  0  0  0  0  0  0  0  0  0  0  0
    7.1650   -0.5920   -0.3860 C   0  0  0  0  0  0  0  0  0  0  0  0
    1.6010   -0.4340   -0.7530 C   0  0  0  0  0  0  0  0  0  0  0  0
   -3.1640   -1.4220    1.5620 C   0  0  0  0  0  0  0  0  0  0  0  0
   -3.9990   -0.7580    2.3990 C   0  0  0  0  0  0  0  0  0  0  0  0
   -5.0660    0.0570    1.8740 C   0  0  0  0  0  0  0  0  0  0  0  0
   -5.7900    0.6710    2.8370 O   0  0  0  0  0  0  0  0  0  0  0  0
   -6.2700    1.9400    2.8990 C   0  0  2  0  0  0  0  0  0  0  0  0
   -7.5890    2.2880    3.4080 C   0  0  0  0  0  0  0  0  0  0  0  0
   -5.8410    2.7750    1.7440 C   0  0  0  0  0  0  0  0  0  0  0  0
   -5.5170    3.4410    0.8120 N   0  0  0  0  0  0  0  0  0  0  0  0
  2  1  1  1
  2  3  1  0
  2  5  1  0
  3  4  1  0
  5  6  1  0
  6  7  2  0
  6  8  1  0
  8  9  2  0
  8 39  1  0
  9 10  1  0
 10 11  1  0
 10 37  2  0
 11 12  1  0
 12 13  1  0
 13 14  1  0
 14 15  1  6
 14 16  1  0
 14 36  1  0
 16 17  1  0
 17 18  1  0
 18 19  1  0
 19 20  1  1
 19 36  1  0
 20 21  2  0
 20 22  1  0
 22 23  1  0
 23 24  2  0
 23 35  1  0
 24 25  1  0
 25 26  2  0
 26 27  1  0
 27 28  1  0
 27 35  2  0
 28 29  1  6
 28 30  1  0
 30 31  1  0
 30 34  2  0
 31 32  2  0
 32 33  1  0
 33 34  1  0
 37 38  1  0
 38 39  2  0
 39 40  1  0
 40 41  1  0
 41 42  1  6
 41 43  1  0
 43 44  3  0
M  END
