
     RDKit          3D

 44 47  0  0  0  0  0  0  0  0999 V2000
   -4.5070    2.7840   -1.0240 C   0  0  0  0  0  0  0  0  0  0  0  0
   -4.1540    1.9020    0.1080 C   0  0  1  0  0  0  0  0  0  0  0  0
   -4.2990    2.5250    1.4630 C   0  0  1  0  0  0  0  0  0  0  0  0
   -3.4210    3.7460    1.6680 C   0  0  0  0  0  0  0  0  0  0  0  0
   -4.9130    3.8460    1.7060 C   0  0  0  0  0  0  0  0  0  0  0  0
   -4.7560    0.5960    0.0070 N   0  0  0  0  0  0  0  0  0  0  0  0
   -6.0950    0.3860    0.4520 C   0  0  0  0  0  0  0  0  0  0  0  0
   -7.2470    0.0020   -0.3030 C   0  0  0  0  0  0  0  0  0  0  0  0
   -7.9240   -1.1780    0.1950 C   0  0  0  0  0  0  0  0  0  0  0  0
   -9.1430   -1.5870   -0.2550 C   0  0  0  0  0  0  0  0  0  0  0  0
   -9.7860   -2.7210    0.2460 O   0  0  0  0  0  0  0  0  0  0  0  0
   -9.7720   -0.8540   -1.2350 C   0  0  0  0  0  0  0  0  0  0  0  0
   -9.1410    0.2770   -1.7300 C   0  0  0  0  0  0  0  0  0  0  0  0
   -7.9200    0.6820   -1.2690 C   0  0  0  0  0  0  0  0  0  0  0  0
   -7.3120    1.8190   -1.7870 O   0  0  0  0  0  0  0  0  0  0  0  0
   -3.9220   -0.5280   -0.1980 C   0  0  0  0  0  0  0  0  0  0  0  0
   -4.4880   -1.6420   -0.5280 O   0  0  0  0  0  0  0  0  0  0  0  0
   -2.4870   -0.5610   -0.0750 C   0  0  0  0  0  0  0  0  0  0  0  0
   -1.8390    0.0660    0.9960 C   0  0  0  0  0  0  0  0  0  0  0  0
   -0.4830    0.0630    1.1320 C   0  0  0  0  0  0  0  0  0  0  0  0
    0.3920   -0.5720    0.2050 C   0  0  0  0  0  0  0  0  0  0  0  0
    1.7700   -0.5480    0.5160 N   0  0  0  0  0  0  0  0  0  0  0  0
    2.2930    0.7610    0.8820 C   0  0  0  0  0  0  0  0  0  0  0  0
    1.6260    1.7720    0.7690 O   0  0  0  0  0  0  0  0  0  0  0  0
    3.7000    0.8570    1.4120 C   0  0  0  0  0  0  0  0  0  0  0  0
    3.9710    2.3440    1.7490 C   0  0  0  0  0  0  0  0  0  0  0  0
    3.9050    3.3410    0.2630 S   0  0  0  0  0  0  0  0  0  0  0  0
    5.3720    3.3170   -0.7480 C   0  0  0  0  0  0  0  0  0  0  0  0
    6.2200    2.1240   -0.6320 C   0  0  0  0  0  0  0  0  0  0  0  0
    6.0590    1.1840   -1.4190 O   0  0  0  0  0  0  0  0  0  0  0  0
    7.2250    2.0280    0.3600 N   0  0  0  0  0  0  0  0  0  0  0  0
    8.1340    0.9410    0.5770 C   0  0  0  0  0  0  0  0  0  0  0  0
    9.0090    0.7510   -0.5770 C   0  0  0  0  0  0  0  0  0  0  0  0
   10.0400   -0.2200   -0.5490 N   0  0  0  0  0  0  0  0  0  0  0  0
    8.8840    1.4340   -1.6100 O   0  0  0  0  0  0  0  0  0  0  0  0
    2.6000   -1.7050    0.5950 C   0  0  1  0  0  0  0  0  0  0  0  0
    1.9420   -2.8030    1.3440 C   0  0  0  0  0  0  0  0  0  0  0  0
    1.8090   -4.1120    0.6070 C   0  0  0  0  0  0  0  0  0  0  0  0
    3.0900   -4.5910   -0.0080 C   0  0  0  0  0  0  0  0  0  0  0  0
    4.0190   -3.4190   -0.3200 C   0  0  1  0  0  0  0  0  0  0  0  0
    5.0790   -3.7290   -1.3240 C   0  0  0  0  0  0  0  0  0  0  0  0
    3.1200   -2.2340   -0.7380 C   0  0  0  0  0  0  0  0  0  0  0  0
   -0.2370   -1.1690   -0.8290 C   0  0  0  0  0  0  0  0  0  0  0  0
   -1.6350   -1.1700   -0.9720 C   0  0  0  0  0  0  0  0  0  0  0  0
  2  1  1  6
  2  3  1  0
  2  6  1  0
  3  4  1  6
  3  5  1  0
  4  5  1  0
  6  7  1  0
  6 16  1  0
  7  8  1  0
  8  9  2  0
  8 14  1  0
  9 10  1  0
 10 11  1  0
 10 12  2  0
 12 13  1  0
 13 14  2  0
 14 15  1  0
 16 17  2  0
 16 18  1  0
 18 19  2  0
 18 44  1  0
 19 20  1  0
 20 21  2  0
 21 22  1  0
 21 43  1  0
 22 23  1  0
 36 22  1  6
 23 24  2  0
 23 25  1  0
 25 26  1  0
 26 27  1  0
 27 28  1  0
 28 29  1  0
 29 30  2  0
 29 31  1  0
 31 32  1  0
 32 33  1  0
 33 34  1  0
 33 35  2  0
 36 37  1  0
 36 42  1  0
 37 38  1  0
 38 39  1  0
 39 40  1  0
 40 41  1  6
 40 42  1  0
 43 44  2  0
M  END
