
     RDKit          3D

 46 50  0  0  0  0  0  0  0  0999 V2000
    5.6940    5.6680    0.8480 C   0  0  0  0  0  0  0  0  0  0  0  0
    5.1730    4.5580    1.3460 C   0  0  0  0  0  0  0  0  0  0  0  0
    6.0430    3.5540    1.9610 C   0  0  0  0  0  0  0  0  0  0  0  0
    6.0070    2.2520    1.3370 N   0  0  2  0  0  0  0  0  0  0  0  0
    7.1120    2.1490    0.4300 C   0  0  0  0  0  0  0  0  0  0  0  0
    6.5740    2.4790   -0.9250 C   0  0  0  0  0  0  0  0  0  0  0  0
    5.0840    2.5770   -0.7580 C   0  0  0  0  0  0  0  0  0  0  0  0
    4.8120    1.9900    0.6010 C   0  0  1  0  0  0  0  0  0  0  0  0
    4.7200    0.4850    0.3850 C   0  0  0  0  0  0  0  0  0  0  0  0
    5.6170   -0.2570    0.8420 O   0  0  0  0  0  0  0  0  0  0  0  0
    3.6360   -0.0480   -0.3210 N   0  0  0  0  0  0  0  0  0  0  0  0
    3.4410   -1.4290   -0.5970 C   0  0  0  0  0  0  0  0  0  0  0  0
    4.4500   -2.4350   -0.2080 C   0  0  0  0  0  0  0  0  0  0  0  0
    2.3540   -1.8040   -1.2740 C   0  0  0  0  0  0  0  0  0  0  0  0
    1.9520   -3.1460   -1.6580 C   0  0  0  0  0  0  0  0  0  0  0  0
    2.1710   -4.3890   -1.1240 C   0  0  0  0  0  0  0  0  0  0  0  0
    1.6470   -5.5160   -1.7440 C   0  0  0  0  0  0  0  0  0  0  0  0
    1.8530   -6.7850   -1.2270 O   0  0  0  0  0  0  0  0  0  0  0  0
    2.6140   -6.9100   -0.0420 C   0  0  0  0  0  0  0  0  0  0  0  0
    0.9070   -5.4060   -2.8930 C   0  0  0  0  0  0  0  0  0  0  0  0
    0.6810   -4.1430   -3.4380 C   0  0  0  0  0  0  0  0  0  0  0  0
    1.1920   -3.0380   -2.8320 C   0  0  0  0  0  0  0  0  0  0  0  0
    1.1390   -1.6900   -3.1210 O   0  0  0  0  0  0  0  0  0  0  0  0
    1.2820   -0.9490   -1.8810 C   0  0  1  0  0  0  0  0  0  0  0  0
   -0.0090   -1.0590   -1.1710 C   0  0  0  0  0  0  0  0  0  0  0  0
   -0.9350   -1.6980   -1.7170 O   0  0  0  0  0  0  0  0  0  0  0  0
   -0.2630   -0.4840    0.0880 N   0  0  0  0  0  0  0  0  0  0  0  0
   -1.4390   -0.5180    0.8530 C   0  0  0  0  0  0  0  0  0  0  0  0
   -1.4240    0.0010    2.1550 C   0  0  0  0  0  0  0  0  0  0  0  0
   -2.5460    0.0020    2.9460 C   0  0  0  0  0  0  0  0  0  0  0  0
   -3.7500   -0.5050    2.5070 C   0  0  0  0  0  0  0  0  0  0  0  0
   -4.9470   -0.4870    3.3910 C   0  0  0  0  0  0  0  0  0  0  0  0
   -3.7930   -1.0200    1.2330 C   0  0  0  0  0  0  0  0  0  0  0  0
   -5.2890   -1.6870    0.6150 S   0  0  2  0  0  0  0  0  0  0  0  0
   -5.7260   -2.8840    1.4500 O   0  0  0  0  0  0  0  0  0  0  0  0
   -5.0360   -2.2630   -0.7630 O   0  0  0  0  0  0  0  0  0  0  0  0
   -6.5330   -0.5250    0.6120 N   0  0  0  0  0  0  0  0  0  0  0  0
   -6.4370    0.6460   -0.1480 C   0  0  0  0  0  0  0  0  0  0  0  0
   -5.4440    0.7750   -1.0860 C   0  0  0  0  0  0  0  0  0  0  0  0
   -5.3120    1.9050   -1.8650 C   0  0  0  0  0  0  0  0  0  0  0  0
   -6.1990    2.9420   -1.7050 C   0  0  0  0  0  0  0  0  0  0  0  0
   -7.2060    2.8320   -0.7660 C   0  0  0  0  0  0  0  0  0  0  0  0
   -8.1880    3.9390   -0.5650 C   0  0  0  0  0  0  0  0  0  0  0  0
   -7.3230    1.7060   -0.0020 C   0  0  0  0  0  0  0  0  0  0  0  0
   -8.4180    1.6300    0.9950 C   0  0  0  0  0  0  0  0  0  0  0  0
   -2.6350   -1.0140    0.4350 C   0  0  0  0  0  0  0  0  0  0  0  0
  1  2  2  0
  2  3  1  0
  4  3  1  6
  4  5  1  0
  4  8  1  0
  5  6  1  0
  6  7  1  0
  7  8  1  0
  8  9  1  6
  9 10  2  0
  9 11  1  0
 11 12  1  0
 12 13  1  0
 12 14  2  3
 14 15  1  0
 14 24  1  0
 15 16  2  0
 15 22  1  0
 16 17  1  0
 17 18  1  0
 17 20  2  0
 18 19  1  0
 20 21  1  0
 21 22  2  0
 22 23  1  0
 23 24  1  0
 24 25  1  1
 25 26  2  0
 25 27  1  0
 27 28  1  0
 28 29  2  0
 28 46  1  0
 29 30  1  0
 30 31  2  0
 31 32  1  0
 31 33  1  0
 33 34  1  0
 33 46  2  0
 34 35  2  0
 34 36  2  0
 34 37  1  6
 37 38  1  0
 38 39  2  0
 38 44  1  0
 39 40  1  0
 40 41  2  0
 41 42  1  0
 42 43  1  0
 42 44  2  0
 44 45  1  0
M  CHG  1   4   1
M  END
