
     RDKit          3D

 20 21  0  0  0  0  0  0  0  0999 V2000
   -3.7600   -0.6960    0.5800 N   0  0  0  0  0  0  0  0  0  0  0  0
   -2.6280    0.1030    0.0220 C   0  0  2  0  0  0  0  0  0  0  0  0
   -1.5200   -0.8140   -0.1540 C   0  0  0  0  0  0  0  0  0  0  0  0
   -0.2350   -0.7900    0.0290 C   0  0  0  0  0  0  0  0  0  0  0  0
    0.5650    0.3230    0.5210 C   0  0  0  0  0  0  0  0  0  0  0  0
    0.2240    1.4530    0.8510 O   0  0  0  0  0  0  0  0  0  0  0  0
    1.9870    0.0770    0.6490 N   0  0  0  0  0  0  0  0  0  0  0  0
    2.8410    1.1680    1.1420 C   0  0  0  0  0  0  0  0  0  0  0  0
    4.1290    0.6970    1.1750 O   0  0  0  0  0  0  0  0  0  0  0  0
    4.7060    0.1990   -0.3630 P   0  0  0  0  0  0  0  0  0  0  0  0
    4.0680    1.1660   -1.6510 O   0  0  0  0  0  0  0  0  0  0  0  0
    4.3870   -1.4600   -0.6900 O   0  0  0  0  0  0  0  0  0  0  0  0
    0.3160   -2.1460   -0.3090 C   0  0  0  0  0  0  0  0  0  0  0  0
   -0.6770   -2.7880   -0.9970 O   0  0  0  0  0  0  0  0  0  0  0  0
   -1.8490   -2.1280   -0.8300 C   0  0  0  0  0  0  0  0  0  0  0  0
   -2.9920   -2.5320   -1.1730 O   0  0  0  0  0  0  0  0  0  0  0  0
   -2.5980    1.3300    0.7860 C   0  0  0  0  0  0  0  0  0  0  0  0
   -2.3910    2.3200   -0.1910 O   0  0  0  0  0  0  0  0  0  0  0  0
   -2.5820    1.7450   -1.4230 C   0  0  0  0  0  0  0  0  0  0  0  0
   -3.1070    0.4780   -1.2760 O   0  0  0  0  0  0  0  0  0  0  0  0
  2  1  1  1
  2  3  1  0
  2 17  1  0
  2 20  1  0
  3  4  2  0
  3 15  1  0
  4  5  1  0
  4 13  1  0
  5  6  2  0
  5  7  1  0
  7  8  1  0
  8  9  1  0
  9 10  1  0
 10 11  1  0
 10 12  1  0
 13 14  1  0
 14 15  1  0
 15 16  2  0
 17 18  1  0
 18 19  1  0
 19 20  1  0
M  END
