
     RDKit          3D

 20 21  0  0  0  0  0  0  0  0999 V2000
   -6.5790   -0.3900    0.2900 O   0  0  0  0  0  0  0  0  0  0  0  0
   -5.4590    0.1460    0.2190 C   0  0  0  0  0  0  0  0  0  0  0  0
   -4.2700   -0.3390   -0.5780 C   0  0  0  0  0  0  0  0  0  0  0  0
   -3.1480    0.2880    0.1820 C   0  0  2  0  0  0  0  0  0  0  0  0
   -3.7290    1.6160    0.5500 C   0  0  0  0  0  0  0  0  0  0  0  0
   -5.0740    1.3140    0.8890 O   0  0  0  0  0  0  0  0  0  0  0  0
   -1.8880    0.3460   -0.4010 O   0  0  0  0  0  0  0  0  0  0  0  0
   -1.2280   -0.7390   -0.0960 C   0  0  1  0  0  0  0  0  0  0  0  0
    0.2190   -0.9730   -0.0600 C   0  0  0  0  0  0  0  0  0  0  0  0
    0.6970   -2.0420   -0.4950 O   0  0  0  0  0  0  0  0  0  0  0  0
    1.1220   -0.0130    0.5140 N   0  0  0  0  0  0  0  0  0  0  0  0
    2.4840   -0.1650    0.6870 C   0  0  0  0  0  0  0  0  0  0  0  0
    3.6480   -0.1700   -0.1660 C   0  0  0  0  0  0  0  0  0  0  0  0
    3.9080    1.0490   -0.8480 O   0  0  0  0  0  0  0  0  0  0  0  0
    5.5400    0.9280   -1.5200 P   0  0  0  0  0  0  0  0  0  0  0  0
    6.2350   -0.5650   -0.8910 O   0  0  0  0  0  0  0  0  0  0  0  0
    6.4800    2.1920   -0.7440 O   0  0  0  0  0  0  0  0  0  0  0  0
   -1.7430   -1.2160    1.2680 N   0  0  0  0  0  0  0  0  0  0  0  0
   -2.9280   -0.4960    1.4470 C   0  0  0  0  0  0  0  0  0  0  0  0
   -3.6740   -0.4930    2.4290 O   0  0  0  0  0  0  0  0  0  0  0  0
  1  2  2  0
  2  3  1  0
  2  6  1  0
  4  3  1  6
  4  5  1  0
  4  7  1  0
  4 19  1  0
  5  6  1  0
  7  8  1  0
  8  9  1  1
  8 18  1  0
  9 10  2  0
  9 11  1  0
 11 12  1  0
 12 13  1  0
 13 14  1  0
 14 15  1  0
 15 16  1  0
 15 17  1  0
 18 19  1  0
 19 20  2  0
M  END
