
     RDKit          3D

 20 20  0  0  0  0  0  0  0  0999 V2000
   -2.8670   -1.2070   -1.0620 N   0  0  0  0  0  0  0  0  0  0  0  0
   -2.5070   -1.0960    0.3230 C   0  0  2  0  0  0  0  0  0  0  0  0
   -3.7780   -0.7540    1.0920 C   0  0  0  0  0  0  0  0  0  0  0  0
   -4.3890    0.2950    0.3680 O   0  0  0  0  0  0  0  0  0  0  0  0
   -3.7650    1.8300    0.8450 P   0  0  0  0  0  0  0  0  0  0  0  0
   -4.9730    3.0270    0.4930 O   0  0  0  0  0  0  0  0  0  0  0  0
   -2.3210    2.2500    0.0070 O   0  0  0  0  0  0  0  0  0  0  0  0
   -1.7860    1.1090   -0.5720 C   0  0  0  0  0  0  0  0  0  0  0  0
   -1.5410    0.0520    0.5010 C   0  0  1  0  0  0  0  0  0  0  0  0
   -1.8070    0.6140    1.7450 O   0  0  0  0  0  0  0  0  0  0  0  0
   -0.1360   -0.3760    0.4690 C   0  0  0  0  0  0  0  0  0  0  0  0
    0.5820   -0.1980    1.4760 O   0  0  0  0  0  0  0  0  0  0  0  0
    0.4740   -0.9950   -0.6590 N   0  0  0  0  0  0  0  0  0  0  0  0
    1.8390   -1.4150   -0.7000 C   0  0  0  0  0  0  0  0  0  0  0  0
    2.8290   -0.2850   -0.4890 C   0  0  0  0  0  0  0  0  0  0  0  0
    4.2280   -0.8510   -0.5540 C   0  0  0  0  0  0  0  0  0  0  0  0
    5.1490    0.1950   -0.3650 O   0  0  0  0  0  0  0  0  0  0  0  0
    5.2540    0.9790    0.7650 C   0  0  0  0  0  0  0  0  0  0  0  0
    4.4900    0.7820    1.7350 O   0  0  0  0  0  0  0  0  0  0  0  0
    6.2090    2.0050    0.8550 O   0  0  0  0  0  0  0  0  0  0  0  0
  2  1  1  6
  2  3  1  0
  2  9  1  0
  3  4  1  0
  4  5  1  0
  5  6  1  0
  5  7  1  0
  7  8  1  0
  8  9  1  0
  9 10  1  1
  9 11  1  0
 11 12  2  0
 11 13  1  0
 13 14  1  0
 14 15  1  0
 15 16  1  0
 16 17  1  0
 17 18  1  0
 18 19  2  0
 18 20  1  0
M  END
