
     RDKit          3D

 20 21  0  0  0  0  0  0  0  0999 V2000
   -1.9490    1.7450   -1.4990 O   0  0  0  0  0  0  0  0  0  0  0  0
   -2.5930    0.9500   -0.7780 C   0  0  0  0  0  0  0  0  0  0  0  0
   -3.7590    1.3650   -0.0610 N   0  0  0  0  0  0  0  0  0  0  0  0
   -4.8360    0.4110    0.0510 C   0  0  0  0  0  0  0  0  0  0  0  0
   -4.2750   -0.9170    0.4760 C   0  0  2  0  0  0  0  0  0  0  0  0
   -3.4520   -0.7610    1.5960 O   0  0  0  0  0  0  0  0  0  0  0  0
   -3.3470   -1.4060   -0.6470 C   0  0  0  0  0  0  0  0  0  0  0  0
   -2.2300   -0.4120   -0.6190 N   0  0  0  0  0  0  0  0  0  0  0  0
   -0.9420   -0.9020   -0.5220 C   0  0  0  0  0  0  0  0  0  0  0  0
   -0.8720   -2.2110   -0.6450 O   0  0  0  0  0  0  0  0  0  0  0  0
    0.2860   -0.1950   -0.3070 C   0  0  0  0  0  0  0  0  0  0  0  0
    0.5640    1.0550   -0.0820 C   0  0  0  0  0  0  0  0  0  0  0  0
    1.9680    1.2510    0.0590 O   0  0  0  0  0  0  0  0  0  0  0  0
    2.5140    0.0940   -0.5130 C   0  0  1  0  0  0  0  0  0  0  0  0
    3.7360   -0.3000    0.2860 C   0  0  0  0  0  0  0  0  0  0  0  0
    4.6250    0.7850    0.2060 O   0  0  0  0  0  0  0  0  0  0  0  0
    6.0680    0.4330    1.0950 P   0  0  0  0  0  0  0  0  0  0  0  0
    7.2430    1.6570    0.8350 O   0  0  0  0  0  0  0  0  0  0  0  0
    6.7400   -1.1010    0.6880 O   0  0  0  0  0  0  0  0  0  0  0  0
    1.5300   -0.8880   -0.3170 O   0  0  0  0  0  0  0  0  0  0  0  0
  1  2  2  0
  2  3  1  0
  2  8  1  0
  3  4  1  0
  4  5  1  0
  5  6  1  1
  5  7  1  0
  7  8  1  0
  8  9  1  0
  9 10  2  0
  9 11  1  0
 11 12  2  0
 11 20  1  0
 12 13  1  0
 13 14  1  0
 14 15  1  1
 14 20  1  0
 15 16  1  0
 16 17  1  0
 17 18  1  0
 17 19  1  0
M  END
