
     RDKit          3D

 21 22  0  0  0  0  0  0  0  0999 V2000
    6.9010    0.7410   -1.2980 O   0  0  0  0  0  0  0  0  0  0  0  0
    5.9870    0.0410   -0.4740 P   0  0  0  0  0  0  0  0  0  0  0  0
    4.6880   -0.2730    0.4290 O   0  0  0  0  0  0  0  0  0  0  0  0
    3.6230    0.6170    0.5730 C   0  0  0  0  0  0  0  0  0  0  0  0
    2.5110   -0.3690    0.1320 C   0  0  0  0  0  0  0  0  0  0  0  0
    1.1850    0.0840    0.3160 N   0  0  0  0  0  0  0  0  0  0  0  0
    0.7540   -0.1390    1.7190 C   0  0  0  0  0  0  0  0  0  0  0  0
    1.5500   -0.6900    2.4910 O   0  0  0  0  0  0  0  0  0  0  0  0
   -0.5200    0.2920    2.0590 O   0  0  0  0  0  0  0  0  0  0  0  0
   -1.3000    0.9050    1.0320 C   0  0  0  0  0  0  0  0  0  0  0  0
   -2.0200    1.8140    1.4390 O   0  0  0  0  0  0  0  0  0  0  0  0
   -1.1490    0.3750   -0.3190 C   0  0  2  0  0  0  0  0  0  0  0  0
   -2.0580    0.7490   -1.3950 C   0  0  0  0  0  0  0  0  0  0  0  0
   -2.7430   -0.4450   -1.8270 O   0  0  0  0  0  0  0  0  0  0  0  0
   -2.8020   -1.2460   -0.6680 C   0  0  2  0  0  0  0  0  0  0  0  0
   -3.9160   -0.7930    0.1890 C   0  0  0  0  0  0  0  0  0  0  0  0
   -3.9170    0.3160    0.7790 O   0  0  0  0  0  0  0  0  0  0  0  0
   -5.1270   -1.5870    0.4120 O   0  0  0  0  0  0  0  0  0  0  0  0
   -1.4670   -1.0720   -0.1710 N   0  0  0  0  0  0  0  0  0  0  0  0
    0.3130    0.6690   -0.5930 C   0  0  0  0  0  0  0  0  0  0  0  0
    0.6750    1.3470   -1.5250 O   0  0  0  0  0  0  0  0  0  0  0  0
  1  2  2  0
  2  3  1  0
  3  4  1  0
  4  5  1  0
  5  6  1  0
  6  7  1  0
  6 20  1  0
  7  8  2  0
  7  9  1  0
  9 10  1  0
 10 11  2  0
 10 12  1  0
 12 13  1  6
 12 19  1  0
 12 20  1  0
 13 14  1  0
 14 15  1  0
 15 16  1  1
 15 19  1  0
 16 17  2  0
 16 18  1  0
 20 21  2  0
M  END
