
     RDKit          3D

 20 20  0  0  0  0  0  0  0  0999 V2000
    5.9700    0.6740    0.1160 C   0  0  0  0  0  0  0  0  0  0  0  0
    4.6020    0.9900    0.1430 O   0  0  0  0  0  0  0  0  0  0  0  0
    3.6570    0.0260   -0.1210 C   0  0  0  0  0  0  0  0  0  0  0  0
    3.9660   -1.1720   -0.3960 O   0  0  0  0  0  0  0  0  0  0  0  0
    2.3220    0.3990   -0.0790 O   0  0  0  0  0  0  0  0  0  0  0  0
    1.3690   -0.5680   -0.3440 C   0  0  0  0  0  0  0  0  0  0  0  0
    1.7180   -1.7270   -0.6090 O   0  0  0  0  0  0  0  0  0  0  0  0
    0.0020   -0.1840   -0.3020 N   0  0  0  0  0  0  0  0  0  0  0  0
   -0.5630    1.1120   -0.0120 C   0  0  0  0  0  0  0  0  0  0  0  0
   -1.7700    0.7610    0.8120 C   0  0  1  0  0  0  0  0  0  0  0  0
   -3.2410    1.8000    0.4060 P   0  0  0  0  0  0  0  0  0  0  0  0
   -2.8070    3.2930   -0.3470 O   0  0  0  0  0  0  0  0  0  0  0  0
   -4.4030    0.9190   -0.5460 O   0  0  0  0  0  0  0  0  0  0  0  0
   -2.0990   -0.6750    0.5030 C   0  0  2  0  0  0  0  0  0  0  0  0
   -1.8500   -1.4860    1.7720 C   0  0  0  0  0  0  0  0  0  0  0  0
   -0.4700   -1.3740    2.1810 N   0  0  0  0  0  0  0  0  0  0  0  0
   -1.1060   -1.0630   -0.5510 C   0  0  1  0  0  0  0  0  0  0  0  0
   -1.6060   -0.8810   -1.9240 C   0  0  0  0  0  0  0  0  0  0  0  0
   -2.5810   -1.5780   -2.3110 O   0  0  0  0  0  0  0  0  0  0  0  0
   -1.0760    0.0100   -2.8290 O   0  0  0  0  0  0  0  0  0  0  0  0
  1  2  1  0
  2  3  1  0
  3  4  2  0
  3  5  1  0
  5  6  1  0
  6  7  2  0
  6  8  1  0
  8  9  1  0
  8 17  1  0
  9 10  1  0
 10 11  1  6
 10 14  1  0
 11 12  1  0
 11 13  1  0
 14 15  1  1
 14 17  1  0
 15 16  1  0
 17 18  1  6
 18 19  2  0
 18 20  1  0
M  END
