
     RDKit          3D

 21 21  0  0  0  0  0  0  0  0999 V2000
    1.3840   -0.2770    1.0990 O   0  0  0  0  0  0  0  0  0  0  0  0
    1.0680    0.5380    0.2350 C   0  0  0  0  0  0  0  0  0  0  0  0
    2.0190    1.0080   -0.7330 N   0  0  0  0  0  0  0  0  0  0  0  0
    3.3550    0.6510   -0.8070 C   0  0  0  0  0  0  0  0  0  0  0  0
    3.7460   -0.8510   -0.7680 C   0  0  0  0  0  0  0  0  0  0  0  0
    5.1570   -0.7030   -0.9470 O   0  0  0  0  0  0  0  0  0  0  0  0
    5.9280   -1.2120    0.5120 P   0  0  0  0  0  0  0  0  0  0  0  0
    7.2270   -2.3060    0.2580 O   0  0  0  0  0  0  0  0  0  0  0  0
    6.6580    0.3370    1.1350 O   0  0  0  0  0  0  0  0  0  0  0  0
   -0.2800    1.0580    0.1460 N   0  0  0  0  0  0  0  0  0  0  0  0
   -1.3280    0.5760    1.0690 C   0  0  2  0  0  0  0  0  0  0  0  0
   -1.6370   -0.8130    0.4720 C   0  0  0  0  0  0  0  0  0  0  0  0
   -2.5900   -1.5630    1.0250 O   0  0  0  0  0  0  0  0  0  0  0  0
   -3.8630   -1.0550    0.9870 C   0  0  0  0  0  0  0  0  0  0  0  0
   -4.1620   -0.2540   -0.2380 C   0  0  1  0  0  0  0  0  0  0  0  0
   -3.9060   -0.8570   -1.4480 O   0  0  0  0  0  0  0  0  0  0  0  0
   -5.5740   -0.0640   -0.2410 O   0  0  0  0  0  0  0  0  0  0  0  0
   -5.8990    0.6330   -1.3430 O   0  0  0  0  0  0  0  0  0  0  0  0
   -3.5270    1.0790   -0.0220 C   0  0  0  0  0  0  0  0  0  0  0  0
   -3.9500    1.9650   -0.7430 O   0  0  0  0  0  0  0  0  0  0  0  0
   -2.4490    1.5250    0.9480 C   0  0  0  0  0  0  0  0  0  0  0  0
  1  2  2  0
  2  3  1  0
  2 10  1  0
  3  4  1  0
  4  5  1  0
  5  6  1  0
  6  7  1  0
  7  8  1  0
  7  9  1  0
 11 10  1  6
 11 12  1  0
 11 21  1  0
 12 13  1  0
 13 14  1  0
 14 15  1  0
 15 16  1  6
 15 17  1  0
 15 19  1  0
 17 18  1  0
 19 20  2  0
 19 21  1  0
M  END
