
     RDKit          3D

 39 42  0  0  0  0  0  0  0  0999 V2000
   -5.5620   -3.4030   -2.8390 C   0  0  0  0  0  0  0  0  0  0  0  0
   -5.1660   -3.4060   -1.5710 C   0  0  0  0  0  0  0  0  0  0  0  0
   -5.1610   -4.5930   -0.8510 O   0  0  0  0  0  0  0  0  0  0  0  0
   -4.7590   -4.6550    0.4730 C   0  0  0  0  0  0  0  0  0  0  0  0
   -4.3690   -3.5410    1.0580 C   0  0  0  0  0  0  0  0  0  0  0  0
   -4.3610   -2.2580    0.3250 C   0  0  0  0  0  0  0  0  0  0  0  0
   -4.7320   -2.1590   -0.9220 C   0  0  0  0  0  0  0  0  0  0  0  0
   -4.7430   -0.9480   -1.7160 C   0  0  0  0  0  0  0  0  0  0  0  0
   -4.2850    0.2620   -1.1320 N   0  0  0  0  0  0  0  0  0  0  0  0
   -2.9730    0.5130   -0.6460 C   0  0  0  0  0  0  0  0  0  0  0  0
   -2.1220   -0.4050   -0.7280 O   0  0  0  0  0  0  0  0  0  0  0  0
   -2.5570    1.8020   -0.0510 C   0  0  1  0  0  0  0  0  0  0  0  0
   -3.6200    2.5140    0.7210 C   0  0  0  0  0  0  0  0  0  0  0  0
   -4.1960    1.7940    1.8850 C   0  0  0  0  0  0  0  0  0  0  0  0
   -1.2660    1.8220    0.5290 N   0  0  0  0  0  0  0  0  0  0  0  0
   -0.8160    3.0900    1.0400 C   0  0  0  0  0  0  0  0  0  0  0  0
   -0.1710    3.9520    0.1450 C   0  0  0  0  0  0  0  0  0  0  0  0
    0.3010    5.1820    0.5330 C   0  0  0  0  0  0  0  0  0  0  0  0
    0.1540    5.6150    1.8370 C   0  0  0  0  0  0  0  0  0  0  0  0
    0.6310    6.8750    2.2670 N   0  0  0  0  0  0  0  0  0  0  0  0
   -0.4900    4.7360    2.6980 C   0  0  0  0  0  0  0  0  0  0  0  0
   -0.9680    3.5020    2.3220 C   0  0  0  0  0  0  0  0  0  0  0  0
   -0.3470    0.7450    0.6820 C   0  0  0  0  0  0  0  0  0  0  0  0
    0.8290    0.7010   -0.0360 C   0  0  0  0  0  0  0  0  0  0  0  0
    1.7740   -0.3280    0.0570 C   0  0  0  0  0  0  0  0  0  0  0  0
    2.9430   -0.2640   -0.7500 N   0  0  0  0  0  0  0  0  0  0  0  0
    4.0930   -1.0590   -0.6260 C   0  0  0  0  0  0  0  0  0  0  0  0
    4.1620   -1.9270    0.2680 O   0  0  0  0  0  0  0  0  0  0  0  0
    5.2710   -0.9110   -1.5400 C   0  0  1  0  0  0  0  0  0  0  0  0
    6.6440   -0.9900   -0.9510 C   0  0  2  0  0  0  0  0  0  0  0  0
    7.7750   -0.2150   -1.5890 C   0  0  0  0  0  0  0  0  0  0  0  0
    6.0890   -2.0970   -1.8190 C   0  0  2  0  0  0  0  0  0  0  0  0
    6.6840   -2.2860   -3.2060 C   0  0  0  0  0  0  0  0  0  0  0  0
    5.8900   -3.3930   -1.0560 C   0  0  0  0  0  0  0  0  0  0  0  0
    1.4670   -1.3360    0.9330 C   0  0  0  0  0  0  0  0  0  0  0  0
    0.2720   -1.3010    1.6710 C   0  0  0  0  0  0  0  0  0  0  0  0
   -0.6370   -0.2780    1.5580 C   0  0  0  0  0  0  0  0  0  0  0  0
   -1.7880   -0.3300    2.3280 O   0  0  0  0  0  0  0  0  0  0  0  0
   -2.0310   -1.4080    3.2100 C   0  0  0  0  0  0  0  0  0  0  0  0
  1  2  2  0
  2  3  1  0
  2  7  1  0
  3  4  1  0
  4  5  2  0
  5  6  1  0
  6  7  2  0
  7  8  1  0
  8  9  1  0
  9 10  1  0
 10 11  2  0
 10 12  1  0
 12 13  1  1
 12 15  1  0
 13 14  1  0
 15 16  1  0
 15 23  1  0
 16 17  2  0
 16 22  1  0
 17 18  1  0
 18 19  2  0
 19 20  1  0
 19 21  1  0
 21 22  2  0
 23 24  2  0
 23 37  1  0
 24 25  1  0
 25 26  1  0
 25 35  2  0
 26 27  1  0
 27 28  2  0
 29 27  1  1
 29 30  1  0
 29 32  1  0
 30 31  1  6
 30 32  1  0
 32 33  1  6
 32 34  1  0
 35 36  1  0
 36 37  2  0
 37 38  1  0
 38 39  1  0
M  END
