
     RDKit          3D

 39 41  0  0  0  0  0  0  0  0999 V2000
   -7.1240   -1.4640    3.6360 C   0  0  0  0  0  0  0  0  0  0  0  0
   -5.8860   -1.9630    2.9240 C   0  0  0  0  0  0  0  0  0  0  0  0
   -5.8460   -1.5000    1.4850 C   0  0  2  0  0  0  0  0  0  0  0  0
   -4.7270   -1.9570    0.8530 O   0  0  0  0  0  0  0  0  0  0  0  0
   -6.0100    0.0080    1.4930 C   0  0  0  0  0  0  0  0  0  0  0  0
   -5.9810    0.6160    0.1550 C   0  0  2  0  0  0  0  0  0  0  0  0
   -7.0970    0.0500   -0.7290 C   0  0  0  0  0  0  0  0  0  0  0  0
   -4.7210    0.7840   -0.5850 C   0  0  0  0  0  0  0  0  0  0  0  0
   -3.6390    1.6520   -0.0580 C   0  0  1  0  0  0  0  0  0  0  0  0
   -3.1060    1.2300    1.2420 C   0  0  0  0  0  0  0  0  0  0  0  0
   -1.6260    1.5570    1.5140 C   0  0  0  0  0  0  0  0  0  0  0  0
   -0.9130    1.0010    0.3420 N   0  0  0  0  0  0  0  0  0  0  0  0
   -0.0300   -0.0640    0.4700 C   0  0  0  0  0  0  0  0  0  0  0  0
    0.4050   -0.2980    1.6640 O   0  0  0  0  0  0  0  0  0  0  0  0
    0.4580   -0.9570   -0.5730 C   0  0  0  0  0  0  0  0  0  0  0  0
    1.3410   -1.9690   -0.0140 N   0  0  0  0  0  0  0  0  0  0  0  0
    0.8680   -3.2330    0.4620 C   0  0  0  0  0  0  0  0  0  0  0  0
    2.7560   -1.6780    0.0620 C   0  0  0  0  0  0  0  0  0  0  0  0
    3.0780   -0.5760   -0.3650 O   0  0  0  0  0  0  0  0  0  0  0  0
    3.6120   -2.6650    0.6060 C   0  0  0  0  0  0  0  0  0  0  0  0
    4.8380   -2.8060    0.8580 C   0  0  0  0  0  0  0  0  0  0  0  0
    6.0160   -2.0200    0.7250 C   0  0  0  0  0  0  0  0  0  0  0  0
    6.1020   -0.6900    0.4330 C   0  0  0  0  0  0  0  0  0  0  0  0
    7.2980    0.0130    0.2570 C   0  0  0  0  0  0  0  0  0  0  0  0
    8.4830   -0.6240    0.3750 C   0  0  0  0  0  0  0  0  0  0  0  0
    9.7440   -0.0190    0.2330 N   0  0  0  0  0  0  0  0  0  0  0  0
    9.9320    1.3740    0.1950 C   0  0  0  0  0  0  0  0  0  0  0  0
   11.3540    1.8870    0.0310 C   0  0  0  0  0  0  0  0  0  0  0  0
    8.9950    2.1810    0.2870 O   0  0  0  0  0  0  0  0  0  0  0  0
    8.4640   -1.9960    0.6760 C   0  0  0  0  0  0  0  0  0  0  0  0
    7.2880   -2.6510    0.8410 C   0  0  0  0  0  0  0  0  0  0  0  0
   -1.2830    1.5880   -0.9070 C   0  0  0  0  0  0  0  0  0  0  0  0
   -0.3210    1.8210   -1.8610 C   0  0  0  0  0  0  0  0  0  0  0  0
   -0.6590    2.3800   -3.0870 C   0  0  0  0  0  0  0  0  0  0  0  0
    0.3380    2.6130   -4.0690 N   0  0  0  0  0  0  0  0  0  0  0  0
   -1.9860    2.6940   -3.3160 C   0  0  0  0  0  0  0  0  0  0  0  0
   -2.3770    3.2920   -4.6160 C   0  0  0  0  0  0  0  0  0  0  0  0
   -2.9470    2.4480   -2.3210 C   0  0  0  0  0  0  0  0  0  0  0  0
   -2.6050    1.9010   -1.1270 C   0  0  0  0  0  0  0  0  0  0  0  0
  1  2  1  0
  2  3  1  0
  3  4  1  1
  3  5  1  0
  5  6  1  0
  6  7  1  6
  6  8  1  0
  9  8  1  6
  9 10  1  0
  9 39  1  0
 10 11  1  0
 11 12  1  0
 12 13  1  0
 12 32  1  0
 13 14  2  0
 13 15  1  0
 15 16  1  0
 16 17  1  0
 16 18  1  0
 18 19  2  0
 18 20  1  0
 20 21  2  3
 21 22  1  0
 22 23  2  0
 22 31  1  0
 23 24  1  0
 24 25  2  0
 25 26  1  0
 25 30  1  0
 26 27  1  0
 27 28  1  0
 27 29  2  0
 30 31  2  0
 32 33  2  0
 32 39  1  0
 33 34  1  0
 34 35  1  0
 34 36  2  0
 36 37  1  0
 36 38  1  0
 38 39  2  0
M  END
