
     RDKit          3D

 39 41  0  0  0  0  0  0  0  0999 V2000
   -7.5100    4.2760   -0.1800 C   0  0  0  0  0  0  0  0  0  0  0  0
   -6.7810    2.9210    0.1120 C   0  0  0  0  0  0  0  0  0  0  0  0
   -7.5390    1.8660   -0.4260 N   0  0  0  0  0  0  0  0  0  0  0  0
   -7.5670    0.6390   -0.2490 C   0  0  0  0  0  0  0  0  0  0  0  0
   -8.5980   -0.1100   -1.0830 C   0  0  0  0  0  0  0  0  0  0  0  0
   -6.6590   -0.1810    0.5850 C   0  0  0  0  0  0  0  0  0  0  0  0
   -5.5080    0.2870    1.1350 C   0  0  0  0  0  0  0  0  0  0  0  0
   -4.6730   -0.5040    1.8280 C   0  0  0  0  0  0  0  0  0  0  0  0
   -3.3770   -0.2040    2.4880 C   0  0  0  0  0  0  0  0  0  0  0  0
   -2.3750   -1.1160    1.9050 N   0  0  0  0  0  0  0  0  0  0  0  0
   -2.5900   -1.3610    0.5280 C   0  0  0  0  0  0  0  0  0  0  0  0
   -1.6170   -0.8480   -0.4390 C   0  0  0  0  0  0  0  0  0  0  0  0
   -0.4800   -0.1680   -0.0960 C   0  0  0  0  0  0  0  0  0  0  0  0
    0.4210    0.3040   -1.0250 C   0  0  0  0  0  0  0  0  0  0  0  0
    1.6540    1.0340   -0.6750 C   0  0  0  0  0  0  0  0  0  0  0  0
    2.3420    0.5090    0.4660 N   0  0  0  0  0  0  0  0  0  0  0  0
    2.1500    0.8250    1.8120 C   0  0  0  0  0  0  0  0  0  0  0  0
    1.2580    1.6800    2.1250 O   0  0  0  0  0  0  0  0  0  0  0  0
    2.9370    0.2050    2.8900 C   0  0  0  0  0  0  0  0  0  0  0  0
    3.9700   -0.6420    2.3490 N   0  0  0  0  0  0  0  0  0  0  0  0
    5.0370   -0.1280    1.5490 C   0  0  0  0  0  0  0  0  0  0  0  0
    5.0330    1.1240    1.3400 O   0  0  0  0  0  0  0  0  0  0  0  0
    6.0690   -0.8970    0.9890 N   0  0  0  0  0  0  0  0  0  0  0  0
    7.1210   -0.4260    0.1670 C   0  0  0  0  0  0  0  0  0  0  0  0
    7.0220    0.7100   -0.5900 C   0  0  0  0  0  0  0  0  0  0  0  0
    8.0640    1.2160   -1.3780 C   0  0  0  0  0  0  0  0  0  0  0  0
    9.2690    0.5500   -1.4110 C   0  0  0  0  0  0  0  0  0  0  0  0
   10.3630    1.0240   -2.2000 N   0  0  0  0  0  0  0  0  0  0  0  0
    9.3750   -0.5980   -0.6490 C   0  0  0  0  0  0  0  0  0  0  0  0
   10.5950   -1.2450   -0.6990 O   0  0  0  0  0  0  0  0  0  0  0  0
   11.6590   -1.8120   -0.7400 C   0  0  0  0  0  0  0  0  0  0  0  0
    8.3540   -1.1020    0.1290 C   0  0  0  0  0  0  0  0  0  0  0  0
    0.1580    0.0740   -2.3950 C   0  0  0  0  0  0  0  0  0  0  0  0
   -0.9890   -0.6130   -2.7050 C   0  0  0  0  0  0  0  0  0  0  0  0
   -1.8770   -1.0770   -1.7790 C   0  0  0  0  0  0  0  0  0  0  0  0
   -3.0640   -1.7910   -2.1530 N   0  0  0  0  0  0  0  0  0  0  0  0
   -5.4700   -2.0760    1.7710 S   0  0  0  0  0  0  0  0  0  0  0  0
   -6.8990   -1.5440    0.8000 C   0  0  0  0  0  0  0  0  0  0  0  0
   -7.9870   -2.4790    0.4390 C   0  0  0  0  0  0  0  0  0  0  0  0
  1  2  1  0
  2  3  1  0
  3  4  2  3
  4  5  1  0
  4  6  1  0
  6  7  1  0
  6 38  2  0
  7  8  2  0
  8  9  1  0
  8 37  1  0
  9 10  1  0
 10 11  1  0
 11 12  1  0
 12 13  2  0
 12 35  1  0
 13 14  1  0
 14 15  1  0
 14 33  2  0
 15 16  1  0
 16 17  1  0
 17 18  2  0
 17 19  1  0
 19 20  1  0
 20 21  1  0
 21 22  2  0
 21 23  1  0
 23 24  1  0
 24 25  2  0
 24 32  1  0
 25 26  1  0
 26 27  2  0
 27 28  1  0
 27 29  1  0
 29 30  1  0
 29 32  2  0
 30 31  1  0
 33 34  1  0
 34 35  2  0
 35 36  1  0
 37 38  1  0
 38 39  1  0
M  CHG  2   3   1  10   1
M  END
