
     RDKit          3D

 39 41  0  0  0  0  0  0  0  0999 V2000
    8.9830    0.3750   -2.3360 C   0  0  0  0  0  0  0  0  0  0  0  0
    7.6900   -0.4290   -2.5300 C   0  0  0  0  0  0  0  0  0  0  0  0
    6.6730    0.2440   -1.8180 O   0  0  0  0  0  0  0  0  0  0  0  0
    5.3600   -0.2090   -1.7780 C   0  0  0  0  0  0  0  0  0  0  0  0
    5.0550   -1.2670   -2.4020 O   0  0  0  0  0  0  0  0  0  0  0  0
    4.2980    0.5010   -1.0300 C   0  0  0  0  0  0  0  0  0  0  0  0
    2.9760   -0.2030   -1.1710 C   0  0  0  0  0  0  0  0  0  0  0  0
    1.8810    0.5420   -0.3940 C   0  0  0  0  0  0  0  0  0  0  0  0
    2.1630    0.6260    0.9860 N   0  0  0  0  0  0  0  0  0  0  0  0
    2.8460    1.9610    1.3710 C   0  0  0  0  0  0  0  0  0  0  0  0
    1.9650   -0.2100    2.0750 C   0  0  0  0  0  0  0  0  0  0  0  0
    2.4810    0.3230    3.1910 O   0  0  0  0  0  0  0  0  0  0  0  0
    1.3880   -1.4680    2.3070 C   0  0  0  0  0  0  0  0  0  0  0  0
    1.7550   -2.1710    3.5070 C   0  0  0  0  0  0  0  0  0  0  0  0
    2.7030   -1.5240    4.3390 N   0  0  0  0  0  0  0  0  0  0  0  0
    1.2540   -3.3850    3.8420 C   0  0  0  0  0  0  0  0  0  0  0  0
    0.3720   -3.9930    3.0460 N   0  0  0  0  0  0  0  0  0  0  0  0
    0.0030   -3.3810    1.9350 C   0  0  0  0  0  0  0  0  0  0  0  0
    0.4950   -2.1040    1.5370 C   0  0  0  0  0  0  0  0  0  0  0  0
   -0.2770   -1.5690    0.4250 C   0  0  0  0  0  0  0  0  0  0  0  0
   -0.0850   -1.9850   -0.7240 O   0  0  0  0  0  0  0  0  0  0  0  0
   -1.3000   -0.5500    0.6270 N   0  0  0  0  0  0  0  0  0  0  0  0
   -2.0690   -0.0170   -0.4380 C   0  0  0  0  0  0  0  0  0  0  0  0
   -1.9130    1.2410   -0.9210 C   0  0  0  0  0  0  0  0  0  0  0  0
   -1.1850    2.3170   -0.2410 C   0  0  0  0  0  0  0  0  0  0  0  0
   -2.1340    3.0240    0.7140 C   0  0  1  0  0  0  0  0  0  0  0  0
   -3.3550    3.5780    0.0270 C   0  0  0  0  0  0  0  0  0  0  0  0
   -2.4560    2.3540    1.9790 C   0  0  0  0  0  0  0  0  0  0  0  0
   -1.2460    2.1340    2.8720 C   0  0  0  0  0  0  0  0  0  0  0  0
   -2.5960    1.6510   -2.0990 C   0  0  0  0  0  0  0  0  0  0  0  0
   -3.4160    0.7710   -2.7410 C   0  0  0  0  0  0  0  0  0  0  0  0
   -4.1480    1.1560   -3.9740 C   0  0  0  0  0  0  0  0  0  0  0  0
   -3.5720   -0.5220   -2.2290 C   0  0  0  0  0  0  0  0  0  0  0  0
   -2.9200   -0.9340   -1.0920 C   0  0  0  0  0  0  0  0  0  0  0  0
   -3.2800   -2.2940   -0.7280 C   0  0  1  0  0  0  0  0  0  0  0  0
   -3.6920   -2.4460    0.7330 C   0  0  0  0  0  0  0  0  0  0  0  0
   -4.8930   -1.5830    1.0520 C   0  0  0  0  0  0  0  0  0  0  0  0
   -4.5010   -2.5800   -1.6020 C   0  0  0  0  0  0  0  0  0  0  0  0
   -4.3570   -1.6400   -2.7460 C   0  0  0  0  0  0  0  0  0  0  0  0
  1  2  1  0
  2  3  1  0
  3  4  1  0
  4  5  2  0
  4  6  1  0
  6  7  1  0
  7  8  1  0
  8  9  1  0
  9 10  1  0
  9 11  1  0
 11 12  2  0
 11 13  1  0
 13 14  2  0
 13 19  1  0
 14 15  1  0
 14 16  1  0
 16 17  2  0
 17 18  1  0
 18 19  2  0
 19 20  1  0
 20 21  2  0
 20 22  1  0
 22 23  1  0
 23 24  2  0
 23 34  1  0
 24 25  1  0
 24 30  1  0
 25 26  1  0
 26 27  1  6
 26 28  1  0
 28 29  1  0
 30 31  2  0
 31 32  1  0
 31 33  1  0
 33 34  2  0
 33 39  1  0
 34 35  1  0
 35 36  1  1
 35 38  1  0
 36 37  1  0
 38 39  1  0
M  END
