
     RDKit          3D

 39 41  0  0  0  0  0  0  0  0999 V2000
   -4.9770    4.8340   -1.4460 C   0  0  0  0  0  0  0  0  0  0  0  0
   -5.8690    3.6300   -1.6790 C   0  0  0  0  0  0  0  0  0  0  0  0
   -4.9950    2.4100   -2.0430 C   0  0  2  0  0  0  0  0  0  0  0  0
   -5.9940    1.2780   -2.2780 C   0  0  0  0  0  0  0  0  0  0  0  0
   -4.1710    2.1140   -0.8910 N   0  0  0  0  0  0  0  0  0  0  0  0
   -3.0130    1.3030   -0.8940 C   0  0  0  0  0  0  0  0  0  0  0  0
   -2.4370    0.9410   -2.1160 C   0  0  0  0  0  0  0  0  0  0  0  0
   -1.2590    0.2250   -2.1020 C   0  0  0  0  0  0  0  0  0  0  0  0
   -0.6170   -0.1460   -0.9210 C   0  0  0  0  0  0  0  0  0  0  0  0
    0.6290   -0.8730   -1.0090 C   0  0  0  0  0  0  0  0  0  0  0  0
    1.0290   -1.2950   -2.1460 O   0  0  0  0  0  0  0  0  0  0  0  0
    1.5240   -1.1770    0.1440 C   0  0  0  0  0  0  0  0  0  0  0  0
    2.7470   -1.8210   -0.3580 N   0  0  0  0  0  0  0  0  0  0  0  0
    3.8870   -1.1840   -0.7990 C   0  0  0  0  0  0  0  0  0  0  0  0
    4.6250   -1.4350   -1.6550 O   0  0  0  0  0  0  0  0  0  0  0  0
    4.2870    0.2370    0.1120 N   0  0  0  0  0  0  0  0  0  0  0  0
    5.3220    0.6710   -0.7060 C   0  0  0  0  0  0  0  0  0  0  0  0
    5.7570    0.4410   -1.7990 O   0  0  0  0  0  0  0  0  0  0  0  0
    6.0750    1.7330    0.0540 N   0  0  0  0  0  0  0  0  0  0  0  0
    7.2050    2.3780   -0.5140 C   0  0  2  0  0  0  0  0  0  0  0  0
    8.1240    3.0270    0.5210 C   0  0  0  0  0  0  0  0  0  0  0  0
    7.2850    3.8690   -0.3700 C   0  0  2  0  0  0  0  0  0  0  0  0
    6.1130    4.5810    0.3000 C   0  0  0  0  0  0  0  0  0  0  0  0
    6.3960    5.9300    0.3320 O   0  0  0  0  0  0  0  0  0  0  0  0
    2.7400   -3.2700   -0.4450 C   0  0  0  0  0  0  0  0  0  0  0  0
    2.5210   -3.9880    0.7330 C   0  0  0  0  0  0  0  0  0  0  0  0
    2.6030   -5.3520    0.6640 C   0  0  0  0  0  0  0  0  0  0  0  0
    2.8830   -6.0390   -0.4940 C   0  0  0  0  0  0  0  0  0  0  0  0
    2.9820   -7.5340   -0.4790 C   0  0  0  0  0  0  0  0  0  0  0  0
    3.0930   -5.3170   -1.6500 C   0  0  0  0  0  0  0  0  0  0  0  0
    3.0150   -3.9190   -1.6010 C   0  0  0  0  0  0  0  0  0  0  0  0
   -1.1870    0.2090    0.2700 C   0  0  0  0  0  0  0  0  0  0  0  0
   -2.3940    0.9370    0.2770 C   0  0  0  0  0  0  0  0  0  0  0  0
   -3.0330    1.2970    1.5680 C   0  0  0  0  0  0  0  0  0  0  0  0
   -4.2390    0.5120    1.8620 C   0  0  0  0  0  0  0  0  0  0  0  0
   -4.1800   -0.9540    1.9790 C   0  0  2  0  0  0  0  0  0  0  0  0
   -3.7200   -1.7350    0.7980 C   0  0  0  0  0  0  0  0  0  0  0  0
   -5.6530   -1.4110    2.2150 C   0  0  0  0  0  0  0  0  0  0  0  0
   -3.4280   -1.4360    3.1990 C   0  0  0  0  0  0  0  0  0  0  0  0
  1  2  1  0
  2  3  1  0
  3  4  1  1
  3  5  1  0
  5  6  1  0
  6  7  2  0
  6 33  1  0
  7  8  1  0
  8  9  2  0
  9 10  1  0
  9 32  1  0
 10 11  2  0
 10 12  1  0
 12 13  1  0
 13 14  1  0
 13 25  1  0
 14 15  2  0
 14 16  1  0
 16 17  1  0
 17 18  2  0
 17 19  1  0
 20 19  1  1
 20 21  1  0
 20 22  1  0
 21 22  1  0
 22 23  1  1
 23 24  1  0
 25 26  2  0
 25 31  1  0
 26 27  1  0
 27 28  2  0
 28 29  1  0
 28 30  1  0
 30 31  2  0
 32 33  2  0
 33 34  1  0
 34 35  1  0
 35 36  1  0
 36 37  1  6
 36 38  1  0
 36 39  1  0
M  END
