
     RDKit          3D

 39 42  0  0  0  0  0  0  0  0999 V2000
    8.5730   -3.1390   -2.0340 C   0  0  0  0  0  0  0  0  0  0  0  0
    7.2550   -3.5450   -2.1050 O   0  0  0  0  0  0  0  0  0  0  0  0
    6.1400   -2.7300   -2.1300 C   0  0  0  0  0  0  0  0  0  0  0  0
    4.8760   -3.3120   -2.2000 C   0  0  0  0  0  0  0  0  0  0  0  0
    3.7330   -2.5650   -2.2280 C   0  0  0  0  0  0  0  0  0  0  0  0
    3.7720   -1.1750   -2.1860 C   0  0  0  0  0  0  0  0  0  0  0  0
    2.3500   -0.1900   -2.2480 S   0  0  2  0  0  0  0  0  0  0  0  0
    1.3730   -0.8310   -3.2190 O   0  0  0  0  0  0  0  0  0  0  0  0
    2.7310    1.1230   -2.9030 O   0  0  0  0  0  0  0  0  0  0  0  0
    1.6430    0.0820   -0.7460 N   0  0  0  0  0  0  0  0  0  0  0  0
    2.3920    0.7510    0.2270 C   0  0  0  0  0  0  0  0  0  0  0  0
    2.7880   -0.0820    1.4150 C   0  0  2  0  0  0  0  0  0  0  0  0
    3.6170   -1.2840    1.1290 C   0  0  0  0  0  0  0  0  0  0  0  0
    1.5440   -0.5540    2.1760 C   0  0  0  0  0  0  0  0  0  0  0  0
    0.2420    0.2630   -0.8040 C   0  0  0  0  0  0  0  0  0  0  0  0
   -0.2340    1.6770   -0.9730 C   0  0  1  0  0  0  0  0  0  0  0  0
    0.2990    2.1740   -2.1630 O   0  0  0  0  0  0  0  0  0  0  0  0
   -1.7340    1.7690   -1.1250 C   0  0  2  0  0  0  0  0  0  0  0  0
   -2.0990    3.1630   -1.4680 C   0  0  0  0  0  0  0  0  0  0  0  0
   -1.7510    4.2040   -0.5090 C   0  0  0  0  0  0  0  0  0  0  0  0
   -0.5640    4.8900   -0.6320 C   0  0  0  0  0  0  0  0  0  0  0  0
   -0.1930    5.8850    0.2790 C   0  0  0  0  0  0  0  0  0  0  0  0
   -1.0350    6.1920    1.3280 C   0  0  0  0  0  0  0  0  0  0  0  0
   -2.2300    5.5250    1.4800 C   0  0  0  0  0  0  0  0  0  0  0  0
   -2.5420    4.5670    0.5680 C   0  0  0  0  0  0  0  0  0  0  0  0
   -2.4280    1.2420    0.0270 N   0  0  0  0  0  0  0  0  0  0  0  0
   -3.0670    0.0040    0.0010 C   0  0  0  0  0  0  0  0  0  0  0  0
   -3.0210   -0.6570   -1.0660 O   0  0  0  0  0  0  0  0  0  0  0  0
   -3.7650   -0.5830    1.0720 O   0  0  0  0  0  0  0  0  0  0  0  0
   -4.3570   -1.8580    0.8990 C   0  0  1  0  0  0  0  0  0  0  0  0
   -3.8540   -2.8770    1.8960 C   0  0  0  0  0  0  0  0  0  0  0  0
   -4.8350   -3.8160    2.0600 O   0  0  0  0  0  0  0  0  0  0  0  0
   -5.9910   -3.4020    1.4250 C   0  0  1  0  0  0  0  0  0  0  0  0
   -7.0970   -3.4910    2.2610 O   0  0  0  0  0  0  0  0  0  0  0  0
   -6.8290   -2.5000    3.2030 C   0  0  0  0  0  0  0  0  0  0  0  0
   -6.2870   -1.3110    2.4300 C   0  0  0  0  0  0  0  0  0  0  0  0
   -5.8260   -1.9130    1.1480 C   0  0  1  0  0  0  0  0  0  0  0  0
    5.0190   -0.6010   -2.1190 C   0  0  0  0  0  0  0  0  0  0  0  0
    6.1880   -1.3580   -2.0900 C   0  0  0  0  0  0  0  0  0  0  0  0
  1  2  1  0
  2  3  1  0
  3  4  2  0
  3 39  1  0
  4  5  1  0
  5  6  2  0
  6  7  1  0
  6 38  1  0
  7  8  2  0
  7  9  2  0
  7 10  1  1
 10 11  1  0
 10 15  1  0
 11 12  1  0
 12 13  1  6
 12 14  1  0
 15 16  1  0
 16 17  1  6
 16 18  1  0
 18 19  1  1
 18 26  1  0
 19 20  1  0
 20 21  2  0
 20 25  1  0
 21 22  1  0
 22 23  2  0
 23 24  1  0
 24 25  2  0
 26 27  1  0
 27 28  2  0
 27 29  1  0
 30 29  1  1
 30 31  1  0
 30 37  1  0
 31 32  1  0
 33 32  1  1
 33 34  1  0
 33 37  1  0
 34 35  1  0
 35 36  1  0
 37 36  1  1
 38 39  2  0
M  END
