
     RDKit          3D

 20 20  0  0  0  0  0  0  0  0999 V2000
    7.3360    1.0030    0.0320 C   0  0  0  0  0  0  0  0  0  0  0  0
    6.1910    1.6330    0.8140 C   0  0  0  0  0  0  0  0  0  0  0  0
    4.9650    1.0030    0.5590 O   0  0  0  0  0  0  0  0  0  0  0  0
    4.3630    0.8980   -0.6640 C   0  0  0  0  0  0  0  0  0  0  0  0
    4.9580    1.4120   -1.6550 O   0  0  0  0  0  0  0  0  0  0  0  0
    3.0580    0.2110   -0.8620 C   0  0  0  0  0  0  0  0  0  0  0  0
    2.5780   -0.2740    0.4820 C   0  0  0  0  0  0  0  0  0  0  0  0
    1.3420   -0.9590    0.4400 N   0  0  2  0  0  0  0  0  0  0  0  0
    1.0030   -1.4660   -0.8740 C   0  0  0  0  0  0  0  0  0  0  0  0
   -0.3290   -2.0810   -0.9630 C   0  0  0  0  0  0  0  0  0  0  0  0
   -1.3570   -1.5760   -0.0680 N   0  0  0  0  0  0  0  0  0  0  0  0
   -2.2840   -0.7450   -0.7340 C   0  0  0  0  0  0  0  0  0  0  0  0
   -3.4570   -0.3680    0.0720 C   0  0  0  0  0  0  0  0  0  0  0  0
   -3.6420   -0.5890    1.2920 O   0  0  0  0  0  0  0  0  0  0  0  0
   -4.5440    0.3210   -0.5300 O   0  0  0  0  0  0  0  0  0  0  0  0
   -5.6850    0.7090    0.1860 C   0  0  1  0  0  0  0  0  0  0  0  0
   -6.0930    2.1360    0.0320 C   0  0  0  0  0  0  0  0  0  0  0  0
   -6.8220   -0.1730   -0.3730 C   0  0  0  0  0  0  0  0  0  0  0  0
   -0.8670   -1.2220    1.2040 C   0  0  0  0  0  0  0  0  0  0  0  0
    0.2560   -0.1860    1.0060 C   0  0  0  0  0  0  0  0  0  0  0  0
  1  2  1  0
  2  3  1  0
  3  4  1  0
  4  5  2  0
  4  6  1  0
  6  7  1  0
  8  7  1  6
  8  9  1  0
  8 20  1  0
  9 10  1  0
 10 11  1  0
 11 12  1  0
 11 19  1  0
 12 13  1  0
 13 14  2  0
 13 15  1  0
 15 16  1  0
 16 17  1  6
 16 18  1  0
 19 20  1  0
M  CHG  1   8   1
M  END
