
     RDKit          3D

 20 20  0  0  0  0  0  0  0  0999 V2000
   -6.3140    0.6440    1.2930 C   0  0  0  0  0  0  0  0  0  0  0  0
   -5.2950    0.6190    0.3770 O   0  0  0  0  0  0  0  0  0  0  0  0
   -5.3870   -0.3400   -0.6010 C   0  0  0  0  0  0  0  0  0  0  0  0
   -4.1700   -0.2000   -1.5160 C   0  0  0  0  0  0  0  0  0  0  0  0
   -2.9990   -0.3910   -0.7300 N   0  0  1  0  0  0  0  0  0  0  0  0
   -1.8970   -1.0340   -1.4530 C   0  0  0  0  0  0  0  0  0  0  0  0
   -0.9740   -1.5820   -0.3870 C   0  0  0  0  0  0  0  0  0  0  0  0
   -0.6110   -0.5700    0.4910 N   0  0  0  0  0  0  0  0  0  0  0  0
    0.6800   -0.5490    1.0530 C   0  0  0  0  0  0  0  0  0  0  0  0
    1.7520   -0.2580    0.0300 C   0  0  0  0  0  0  0  0  0  0  0  0
    3.0560   -0.2580    0.7240 C   0  0  0  0  0  0  0  0  0  0  0  0
    3.1060   -0.4950    1.9490 O   0  0  0  0  0  0  0  0  0  0  0  0
    4.2010    0.0000    0.0230 O   0  0  0  0  0  0  0  0  0  0  0  0
    5.5000    0.0260    0.5920 C   0  0  1  0  0  0  0  0  0  0  0  0
    6.3970   -1.0430    0.0050 C   0  0  0  0  0  0  0  0  0  0  0  0
    6.0350    1.3900    0.4330 C   0  0  0  0  0  0  0  0  0  0  0  0
    5.2270    2.4410   -0.2040 C   0  0  0  0  0  0  0  0  0  0  0  0
    7.1460    1.6440    0.8310 O   0  0  0  0  0  0  0  0  0  0  0  0
   -1.5800    0.3010    1.0300 C   0  0  0  0  0  0  0  0  0  0  0  0
   -2.4430    0.7950   -0.1410 C   0  0  0  0  0  0  0  0  0  0  0  0
  1  2  1  0
  2  3  1  0
  3  4  1  0
  5  4  1  6
  5  6  1  0
  5 20  1  0
  6  7  1  0
  7  8  1  0
  8  9  1  0
  8 19  1  0
  9 10  1  0
 10 11  1  0
 11 12  2  0
 11 13  1  0
 13 14  1  0
 14 15  1  6
 14 16  1  0
 16 17  1  0
 16 18  2  0
 19 20  1  0
M  CHG  1   5   1
M  END
