
     RDKit          3D

 20 19  0  0  0  0  0  0  0  0999 V2000
   -5.0550   -1.4780    1.2280 C   0  0  0  0  0  0  0  0  0  0  0  0
   -4.4230   -0.2250    1.5180 O   0  0  0  0  0  0  0  0  0  0  0  0
   -4.4060    0.7890    0.6120 C   0  0  0  0  0  0  0  0  0  0  0  0
   -3.4490    1.3910   -0.0090 C   0  0  0  0  0  0  0  0  0  0  0  0
   -3.9630    2.4330   -0.8960 O   0  0  0  0  0  0  0  0  0  0  0  0
   -4.0880    2.0700   -2.2800 C   0  0  0  0  0  0  0  0  0  0  0  0
   -2.0310    1.2570   -0.0110 C   0  0  0  0  0  0  0  0  0  0  0  0
   -1.4460    2.1210   -0.8390 O   0  0  0  0  0  0  0  0  0  0  0  0
   -1.1380    0.4190    0.6650 N   0  0  0  0  0  0  0  0  0  0  0  0
   -1.5750   -0.5460    1.6390 C   0  0  0  0  0  0  0  0  0  0  0  0
    0.2940    0.5170    0.3470 C   0  0  0  0  0  0  0  0  0  0  0  0
    0.7670   -0.4200   -0.6980 C   0  0  1  0  0  0  0  0  0  0  0  0
    0.5420   -1.8700   -0.2980 C   0  0  0  0  0  0  0  0  0  0  0  0
    0.1670   -0.1160   -2.0350 C   0  0  0  0  0  0  0  0  0  0  0  0
    2.2610   -0.2900   -0.8420 C   0  0  0  0  0  0  0  0  0  0  0  0
    2.7710    0.0370   -1.8950 O   0  0  0  0  0  0  0  0  0  0  0  0
    3.1740   -0.5580    0.3030 C   0  0  0  0  0  0  0  0  0  0  0  0
    4.5540   -0.3760   -0.0460 N   0  0  1  0  0  0  0  0  0  0  0  0
    4.7800    0.8930   -0.6730 C   0  0  0  0  0  0  0  0  0  0  0  0
    5.3260   -0.4210    1.1900 C   0  0  0  0  0  0  0  0  0  0  0  0
  1  2  1  0
  2  3  1  0
  3  4  2  3
  4  5  1  0
  4  7  1  0
  5  6  1  0
  7  8  2  0
  7  9  1  0
  9 10  1  0
  9 11  1  0
 11 12  1  0
 12 13  1  1
 12 14  1  0
 12 15  1  0
 15 16  2  0
 15 17  1  0
 17 18  1  0
 18 19  1  1
 18 20  1  0
M  CHG  1  18   1
M  END
