
     RDKit          3D

 19 19  0  0  0  0  0  0  0  0999 V2000
    6.1570    0.7530    1.2900 C   0  0  0  0  0  0  0  0  0  0  0  0
    6.3840   -0.2650    0.2030 C   0  0  0  0  0  0  0  0  0  0  0  0
    5.4540   -0.0590   -0.8240 O   0  0  0  0  0  0  0  0  0  0  0  0
    4.0830   -0.1600   -0.7250 C   0  0  0  0  0  0  0  0  0  0  0  0
    3.5880   -0.4700    0.3880 O   0  0  0  0  0  0  0  0  0  0  0  0
    3.1950    0.0950   -1.9190 C   0  0  0  0  0  0  0  0  0  0  0  0
    1.8650   -0.0750   -1.5020 O   0  0  0  0  0  0  0  0  0  0  0  0
    1.3540   -1.2300   -0.9780 C   0  0  0  0  0  0  0  0  0  0  0  0
    2.0660   -2.2340   -0.8320 O   0  0  0  0  0  0  0  0  0  0  0  0
   -0.1020   -1.3430   -0.5500 C   0  0  0  0  0  0  0  0  0  0  0  0
   -0.8180   -0.0970   -0.8360 C   0  0  0  0  0  0  0  0  0  0  0  0
   -2.1720    0.0970   -0.5240 N   0  0  0  0  0  0  0  0  0  0  0  0
   -2.7770    1.3220   -1.0500 C   0  0  0  0  0  0  0  0  0  0  0  0
   -3.9820    1.6480   -0.8450 N   0  0  0  0  0  0  0  0  0  0  0  0
   -4.9010    0.8700   -0.0820 C   0  0  2  0  0  0  0  0  0  0  0  0
   -5.3980    1.7360    1.1010 C   0  0  0  0  0  0  0  0  0  0  0  0
   -4.3030   -0.3470    0.4430 C   0  0  0  0  0  0  0  0  0  0  0  0
   -3.0470   -0.6930    0.2350 C   0  0  0  0  0  0  0  0  0  0  0  0
   -2.5660   -1.9480    0.8630 C   0  0  0  0  0  0  0  0  0  0  0  0
  1  2  1  0
  2  3  1  0
  3  4  1  0
  4  5  2  0
  4  6  1  0
  6  7  1  0
  7  8  1  0
  8  9  2  0
  8 10  1  0
 10 11  1  0
 11 12  1  0
 12 13  1  0
 12 18  1  0
 13 14  2  0
 14 15  1  0
 15 16  1  1
 15 17  1  0
 17 18  2  0
 18 19  1  0
M  CHG  1  14   1
M  END
