
     RDKit          3D

 20 19  0  0  0  0  0  0  0  0999 V2000
    6.2330    1.2390   -1.0660 C   0  0  0  0  0  0  0  0  0  0  0  0
    6.5600    0.0400   -0.2120 C   0  0  0  0  0  0  0  0  0  0  0  0
    5.6270   -0.9890   -0.3850 O   0  0  0  0  0  0  0  0  0  0  0  0
    4.2850   -0.7180   -0.0780 C   0  0  0  0  0  0  0  0  0  0  0  0
    3.9980    0.4240    0.3310 O   0  0  0  0  0  0  0  0  0  0  0  0
    3.2510   -1.7610   -0.2390 C   0  0  0  0  0  0  0  0  0  0  0  0
    1.9620   -1.1310    0.1730 N   0  0  0  0  0  0  0  0  0  0  0  0
    1.6470   -1.2580    1.5560 C   0  0  0  0  0  0  0  0  0  0  0  0
    1.1870   -0.4870   -0.8000 C   0  0  0  0  0  0  0  0  0  0  0  0
    1.7580   -0.5470   -1.9910 O   0  0  0  0  0  0  0  0  0  0  0  0
   -0.0590    0.2150   -0.8240 C   0  0  0  0  0  0  0  0  0  0  0  0
   -0.8520    0.4110    0.3320 N   0  0  2  0  0  0  0  0  0  0  0  0
   -1.3830   -0.7700    0.9350 C   0  0  0  0  0  0  0  0  0  0  0  0
   -1.9660    1.3580    0.0180 C   0  0  0  0  0  0  0  0  0  0  0  0
   -3.0520    0.6500   -0.6780 C   0  0  0  0  0  0  0  0  0  0  0  0
   -4.2550    0.5940   -0.1810 C   0  0  0  0  0  0  0  0  0  0  0  0
   -4.5520    1.2490    1.1060 C   0  0  0  0  0  0  0  0  0  0  0  0
   -5.3230   -0.1040   -0.8710 C   0  0  0  0  0  0  0  0  0  0  0  0
   -6.7040   -0.1870   -0.3310 C   0  0  0  0  0  0  0  0  0  0  0  0
   -5.1030   -0.6830   -1.9900 O   0  0  0  0  0  0  0  0  0  0  0  0
  1  2  1  0
  2  3  1  0
  3  4  1  0
  4  5  2  0
  4  6  1  0
  6  7  1  0
  7  8  1  0
  7  9  1  0
  9 10  2  0
  9 11  1  0
 11 12  1  0
 12 13  1  6
 12 14  1  0
 14 15  1  0
 15 16  2  3
 16 17  1  0
 16 18  1  0
 18 19  1  0
 18 20  2  0
M  CHG  1  12   1
M  END
