
     RDKit          3D

 20 19  0  0  0  0  0  0  0  0999 V2000
    7.5190    1.8240    0.1350 C   0  0  0  0  0  0  0  0  0  0  0  0
    6.3070    0.9200    0.4050 C   0  0  0  0  0  0  0  0  0  0  0  0
    5.8150    0.5780   -0.8400 O   0  0  0  0  0  0  0  0  0  0  0  0
    4.7300   -0.2620   -0.7470 C   0  0  0  0  0  0  0  0  0  0  0  0
    3.5540    0.2990   -0.0100 C   0  0  0  0  0  0  0  0  0  0  0  0
    2.5120   -0.6280    0.0190 O   0  0  0  0  0  0  0  0  0  0  0  0
    2.5330   -1.8790    0.5870 C   0  0  0  0  0  0  0  0  0  0  0  0
    3.5780   -2.2720    1.1540 O   0  0  0  0  0  0  0  0  0  0  0  0
    1.3380   -2.7420    0.5260 C   0  0  0  0  0  0  0  0  0  0  0  0
    0.2390   -2.1040   -0.1710 N   0  0  0  0  0  0  0  0  0  0  0  0
    0.0510   -2.2390   -1.5990 C   0  0  0  0  0  0  0  0  0  0  0  0
   -0.6820   -1.3250    0.5600 C   0  0  0  0  0  0  0  0  0  0  0  0
   -0.5180   -1.2070    1.8020 O   0  0  0  0  0  0  0  0  0  0  0  0
   -1.8060   -0.6720   -0.1530 C   0  0  0  0  0  0  0  0  0  0  0  0
   -2.6200    0.0870    0.8630 C   0  0  0  0  0  0  0  0  0  0  0  0
   -3.7720    0.7480    0.0930 C   0  0  1  0  0  0  0  0  0  0  0  0
   -4.5500   -0.3790   -0.5450 C   0  0  0  0  0  0  0  0  0  0  0  0
   -4.5320    1.5000    1.0370 N   0  0  1  0  0  0  0  0  0  0  0  0
   -4.8100    2.8150    0.4600 C   0  0  0  0  0  0  0  0  0  0  0  0
   -5.8140    0.9110    1.3520 C   0  0  0  0  0  0  0  0  0  0  0  0
  1  2  1  0
  2  3  1  0
  3  4  1  0
  4  5  1  0
  5  6  1  0
  6  7  1  0
  7  8  2  0
  7  9  1  0
  9 10  1  0
 10 11  1  0
 10 12  1  0
 12 13  2  0
 12 14  1  0
 14 15  1  0
 15 16  1  0
 16 17  1  1
 16 18  1  0
 18 19  1  6
 18 20  1  0
M  CHG  1  18   1
M  END
