
     RDKit          3D

 22 24  0  0  0  0  0  0  0  0999 V2000
    4.7760    1.8270    1.4600 O   0  0  0  0  0  0  0  0  0  0  0  0
    3.8780    1.0800    0.9940 C   0  0  0  0  0  0  0  0  0  0  0  0
    3.4530   -0.0870    1.6160 O   0  0  0  0  0  0  0  0  0  0  0  0
    2.1170   -0.4910    1.5970 C   0  0  2  0  0  0  0  0  0  0  0  0
    2.0150   -1.8520    1.8990 O   0  0  0  0  0  0  0  0  0  0  0  0
    1.4010   -0.1410    0.3100 C   0  0  1  0  0  0  0  0  0  0  0  0
    0.7830   -1.4130   -0.2170 C   0  0  2  0  0  0  0  0  0  0  0  0
    1.7010   -2.2530   -0.7980 O   0  0  0  0  0  0  0  0  0  0  0  0
   -0.2960   -0.9830   -1.2170 C   0  0  1  0  0  0  0  0  0  0  0  0
   -0.6680   -2.1110   -1.9300 O   0  0  0  0  0  0  0  0  0  0  0  0
   -1.4440   -0.4880   -0.3260 C   0  0  2  0  0  0  0  0  0  0  0  0
   -2.6040   -0.2140   -1.2050 C   0  0  0  0  0  0  0  0  0  0  0  0
   -3.6210    0.7280   -0.6430 C   0  0  0  0  0  0  0  0  0  0  0  0
   -3.0670    1.6190    0.4440 C   0  0  0  0  0  0  0  0  0  0  0  0
   -1.7210    1.7860    0.2050 O   0  0  0  0  0  0  0  0  0  0  0  0
   -0.9960    0.6160    0.5370 C   0  0  1  0  0  0  0  0  0  0  0  0
   -1.3570    0.3460    1.8770 O   0  0  0  0  0  0  0  0  0  0  0  0
    0.4400    0.9740    0.4870 C   0  0  2  0  0  0  0  0  0  0  0  0
    0.6280    1.9920   -0.4790 O   0  0  0  0  0  0  0  0  0  0  0  0
    2.4320    0.2980   -0.7350 C   0  0  2  0  0  0  0  0  0  0  0  0
    3.2180   -0.7400   -1.1660 O   0  0  0  0  0  0  0  0  0  0  0  0
    3.2270    1.3780   -0.2180 O   0  0  0  0  0  0  0  0  0  0  0  0
  1  2  2  0
  2  3  1  0
  2 22  1  0
  3  4  1  0
  4  5  1  6
  6  4  1  1
  6  7  1  0
  6 18  1  0
  6 20  1  0
  7  8  1  6
  7  9  1  0
  9 10  1  1
  9 11  1  0
 11 12  1  6
 11 16  1  0
 12 13  1  0
 13 14  1  0
 14 15  1  0
 15 16  1  0
 16 17  1  1
 16 18  1  0
 18 19  1  6
 20 21  1  1
 20 22  1  0
M  END
