
     RDKit          3D

 22 22  0  0  0  0  0  0  0  0999 V2000
   -5.1140   -0.5670    1.1780 O   0  0  0  0  0  0  0  0  0  0  0  0
   -4.0040   -1.3610    1.0370 C   0  0  0  0  0  0  0  0  0  0  0  0
   -2.8170   -0.6100    0.4640 C   0  0  1  0  0  0  0  0  0  0  0  0
   -1.7250   -1.4550    0.3430 O   0  0  0  0  0  0  0  0  0  0  0  0
   -0.6660   -0.9390    1.1180 C   0  0  0  0  0  0  0  0  0  0  0  0
    0.4890   -1.9370    0.9210 C   0  0  1  0  0  0  0  0  0  0  0  0
   -0.0040   -3.1740    1.3730 O   0  0  0  0  0  0  0  0  0  0  0  0
    0.8300   -2.0950   -0.5140 C   0  0  0  0  0  0  0  0  0  0  0  0
    1.3530   -0.9660   -1.0490 O   0  0  0  0  0  0  0  0  0  0  0  0
    2.5530   -0.5080   -0.5230 C   0  0  1  0  0  0  0  0  0  0  0  0
    3.6740   -0.6690   -1.5430 C   0  0  0  0  0  0  0  0  0  0  0  0
    4.8720   -0.6640   -0.8580 O   0  0  0  0  0  0  0  0  0  0  0  0
    5.0200    0.3810    0.0110 C   0  0  0  0  0  0  0  0  0  0  0  0
    3.9680    1.4460   -0.1230 C   0  0  1  0  0  0  0  0  0  0  0  0
    4.2080    2.1610   -1.2930 O   0  0  0  0  0  0  0  0  0  0  0  0
    2.5540    0.9050   -0.0580 C   0  0  2  0  0  0  0  0  0  0  0  0
    2.0790    0.9460    1.2590 O   0  0  0  0  0  0  0  0  0  0  0  0
   -3.0920   -0.1120   -0.8030 O   0  0  0  0  0  0  0  0  0  0  0  0
   -2.9480    1.2620   -0.8110 C   0  0  1  0  0  0  0  0  0  0  0  0
   -1.9180    1.6390   -1.6980 O   0  0  0  0  0  0  0  0  0  0  0  0
   -4.2570    1.8890   -1.2030 C   0  0  0  0  0  0  0  0  0  0  0  0
   -4.1210    3.2860   -1.2150 O   0  0  0  0  0  0  0  0  0  0  0  0
  1  2  1  0
  3  2  1  6
  3  4  1  0
  3 18  1  0
  4  5  1  0
  5  6  1  0
  6  7  1  6
  6  8  1  0
  8  9  1  0
 10  9  1  6
 10 11  1  0
 10 16  1  0
 11 12  1  0
 12 13  1  0
 13 14  1  0
 14 15  1  6
 14 16  1  0
 16 17  1  1
 18 19  1  0
 19 20  1  6
 19 21  1  0
 21 22  1  0
M  END
