
     RDKit          3D

 22 22  0  0  0  0  0  0  0  0999 V2000
    4.9910    1.2840   -0.6900 O   0  0  0  0  0  0  0  0  0  0  0  0
    5.2330    0.3170   -1.4520 C   0  0  0  0  0  0  0  0  0  0  0  0
    6.3600    0.3170   -2.2710 O   0  0  0  0  0  0  0  0  0  0  0  0
    4.3550   -0.7490   -1.4580 O   0  0  0  0  0  0  0  0  0  0  0  0
    3.1950   -0.8560   -0.6800 C   0  0  0  0  0  0  0  0  0  0  0  0
    3.4690   -0.8150    0.7960 C   0  0  2  0  0  0  0  0  0  0  0  0
    4.2970   -1.8210    1.2270 O   0  0  0  0  0  0  0  0  0  0  0  0
    2.1850   -0.9210    1.5890 C   0  0  1  0  0  0  0  0  0  0  0  0
    2.4340   -0.7740    2.9560 O   0  0  0  0  0  0  0  0  0  0  0  0
    1.2980    0.0180    1.1150 O   0  0  0  0  0  0  0  0  0  0  0  0
    0.1930   -0.6090    0.5940 C   0  0  0  0  0  0  0  0  0  0  0  0
   -0.7960    0.4370    0.0620 C   0  0  2  0  0  0  0  0  0  0  0  0
   -0.0710    1.1350   -0.9330 O   0  0  0  0  0  0  0  0  0  0  0  0
   -1.1090    1.4620    1.1310 C   0  0  0  0  0  0  0  0  0  0  0  0
   -2.3410    2.2200    0.6160 C   0  0  0  0  0  0  0  0  0  0  0  0
   -3.5070    1.2680    0.8350 C   0  0  0  0  0  0  0  0  0  0  0  0
   -3.2530   -0.0850    0.2630 C   0  0  1  0  0  0  0  0  0  0  0  0
   -4.4220   -0.4590   -0.6260 C   0  0  1  0  0  0  0  0  0  0  0  0
   -4.6100    0.4270   -1.6770 O   0  0  0  0  0  0  0  0  0  0  0  0
   -4.2160   -1.7300   -1.2070 O   0  0  0  0  0  0  0  0  0  0  0  0
   -2.0010   -0.1960   -0.5500 C   0  0  1  0  0  0  0  0  0  0  0  0
   -2.1510    0.2500   -1.8600 O   0  0  0  0  0  0  0  0  0  0  0  0
  1  2  2  0
  2  3  1  0
  2  4  1  0
  4  5  1  0
  5  6  1  0
  6  7  1  1
  6  8  1  0
  8  9  1  1
  8 10  1  0
 10 11  1  0
 11 12  1  0
 12 13  1  6
 12 14  1  0
 12 21  1  0
 14 15  1  0
 15 16  1  0
 17 16  1  6
 17 18  1  0
 17 21  1  0
 18 19  1  6
 18 20  1  0
 21 22  1  6
M  END
