
     RDKit          3D

 23 23  0  0  0  0  0  0  0  0999 V2000
    2.7590    0.8660   -0.9330 O   0  0  0  0  0  0  0  0  0  0  0  0
    2.6080   -0.1970   -0.2850 C   0  0  0  0  0  0  0  0  0  0  0  0
    3.6870   -0.6760    0.3950 O   0  0  0  0  0  0  0  0  0  0  0  0
    4.9710   -0.1890    0.5140 C   0  0  0  0  0  0  0  0  0  0  0  0
    5.1530    1.1450    1.1380 C   0  0  1  0  0  0  0  0  0  0  0  0
    6.5360    1.4600    1.1840 O   0  0  0  0  0  0  0  0  0  0  0  0
    4.5730    2.1450    0.3660 O   0  0  0  0  0  0  0  0  0  0  0  0
    1.3010   -0.8660   -0.2870 C   0  0  1  0  0  0  0  0  0  0  0  0
    1.3540   -2.0180    0.4880 O   0  0  0  0  0  0  0  0  0  0  0  0
    0.2140    0.0210    0.3710 C   0  0  0  0  0  0  0  0  0  0  0  0
   -0.9560   -0.7040   -0.2040 C   0  0  1  0  0  0  0  0  0  0  0  0
   -0.8550   -2.0310    0.3440 O   0  0  0  0  0  0  0  0  0  0  0  0
   -2.3060   -0.2160    0.0650 C   0  0  1  0  0  0  0  0  0  0  0  0
   -3.2590   -1.2300   -0.6480 C   0  0  0  0  0  0  0  0  0  0  0  0
   -4.5800   -0.8370   -0.4170 O   0  0  0  0  0  0  0  0  0  0  0  0
   -2.6700   -0.4290    1.5350 C   0  0  0  0  0  0  0  0  0  0  0  0
   -3.9570    0.0400    1.7970 O   0  0  0  0  0  0  0  0  0  0  0  0
   -2.7710    1.0790   -0.4550 C   0  0  0  0  0  0  0  0  0  0  0  0
   -2.1230    2.3400   -0.1090 C   0  0  0  0  0  0  0  0  0  0  0  0
   -2.8670    3.3940   -0.7420 O   0  0  0  0  0  0  0  0  0  0  0  0
   -0.5280   -0.8610   -1.6240 C   0  0  2  0  0  0  0  0  0  0  0  0
   -1.1160   -1.9550   -2.2760 O   0  0  0  0  0  0  0  0  0  0  0  0
    0.8470   -1.0820   -1.5560 O   0  0  0  0  0  0  0  0  0  0  0  0
  1  2  2  0
  2  3  1  0
  2  8  1  0
  3  4  1  0
  4  5  1  0
  5  6  1  6
  5  7  1  0
  8  9  1  1
  8 10  1  0
  8 23  1  0
 10 11  1  0
 11 12  1  1
 11 13  1  0
 11 21  1  0
 13 14  1  6
 13 16  1  0
 13 18  1  0
 14 15  1  0
 16 17  1  0
 18 19  1  0
 19 20  1  0
 21 22  1  1
 21 23  1  0
M  END
