
     RDKit          3D

 13 12  0  0  0  0  0  0  0  0999 V2000
   -0.6590   -2.4630    2.0820 C   0  0  0  0  0  0  0  0  0  0  0  0
   -1.4510   -1.3560    1.6570 O   0  0  0  0  0  0  0  0  0  0  0  0
   -1.4090   -0.8920    0.3520 C   0  0  0  0  0  0  0  0  0  0  0  0
   -2.0580   -1.5440   -0.5790 C   0  0  0  0  0  0  0  0  0  0  0  0
   -2.7720   -2.6770   -0.2570 O   0  0  0  0  0  0  0  0  0  0  0  0
   -0.6420    0.3090    0.0540 C   0  0  0  0  0  0  0  0  0  0  0  0
   -0.0050    0.9380    1.0340 C   0  0  0  0  0  0  0  0  0  0  0  0
    0.7990    2.1510    0.8850 C   0  0  0  0  0  0  0  0  0  0  0  0
    0.1770    3.1700    1.7510 N   0  0  0  0  0  0  0  0  0  0  0  0
   -0.5150    0.8660   -1.2030 O   0  0  0  0  0  0  0  0  0  0  0  0
    0.3010    0.3690   -2.2360 C   0  0  0  0  0  0  0  0  0  0  0  0
    1.7640    0.3180   -1.8650 C   0  0  0  0  0  0  0  0  0  0  0  0
    2.4540   -0.1920   -2.9680 O   0  0  0  0  0  0  0  0  0  0  0  0
  1  2  1  0
  2  3  1  0
  3  4  2  3
  3  6  1  0
  4  5  1  0
  6  7  2  3
  6 10  1  0
  7  8  1  0
  8  9  1  0
 10 11  1  0
 11 12  1  0
 12 13  1  0
M  END
