
     RDKit          3D

 22 23  0  0  0  0  0  0  0  0999 V2000
   -5.1080   -0.0460   -0.5800 O   0  0  0  0  0  0  0  0  0  0  0  0
   -4.2410    0.6100    0.0240 C   0  0  0  0  0  0  0  0  0  0  0  0
   -4.2400    1.1960    1.2790 O   0  0  0  0  0  0  0  0  0  0  0  0
   -3.3920    2.3490    1.2640 C   0  0  0  0  0  0  0  0  0  0  0  0
   -2.6920    2.3420   -0.0530 C   0  0  0  0  0  0  0  0  0  0  0  0
   -2.8820    0.9290   -0.5430 C   0  0  1  0  0  0  0  0  0  0  0  0
   -2.0000    0.0330    0.0100 O   0  0  0  0  0  0  0  0  0  0  0  0
   -1.3790   -0.6760   -1.0160 C   0  0  1  0  0  0  0  0  0  0  0  0
   -0.0280   -0.2910   -0.9980 O   0  0  0  0  0  0  0  0  0  0  0  0
    0.5570   -0.8510    0.1350 C   0  0  2  0  0  0  0  0  0  0  0  0
   -0.2850   -0.7210    1.2430 O   0  0  0  0  0  0  0  0  0  0  0  0
    1.8250   -0.0840    0.4970 C   0  0  0  0  0  0  0  0  0  0  0  0
    2.7510   -0.1060   -0.5000 O   0  0  0  0  0  0  0  0  0  0  0  0
    3.9210    0.5300   -0.2280 C   0  0  0  0  0  0  0  0  0  0  0  0
    3.8670    1.9870    0.0780 C   0  0  2  0  0  0  0  0  0  0  0  0
    3.1450    2.3550    1.1780 O   0  0  0  0  0  0  0  0  0  0  0  0
    3.4970    2.7070   -1.0600 O   0  0  0  0  0  0  0  0  0  0  0  0
    0.8530   -2.2900   -0.1830 C   0  0  1  0  0  0  0  0  0  0  0  0
    1.1880   -2.9860    0.9720 O   0  0  0  0  0  0  0  0  0  0  0  0
   -0.2720   -2.9240   -0.9140 C   0  0  0  0  0  0  0  0  0  0  0  0
   -1.5540   -2.1550   -0.8900 C   0  0  1  0  0  0  0  0  0  0  0  0
   -2.3360   -2.4940    0.2400 O   0  0  0  0  0  0  0  0  0  0  0  0
  1  2  2  0
  2  3  1  0
  2  6  1  0
  3  4  1  0
  4  5  1  0
  5  6  1  0
  6  7  1  1
  8  7  1  1
  8  9  1  0
  8 21  1  0
  9 10  1  0
 10 11  1  1
 10 12  1  0
 10 18  1  0
 12 13  1  0
 13 14  1  0
 14 15  1  0
 15 16  1  1
 15 17  1  0
 18 19  1  1
 18 20  1  0
 20 21  1  0
 21 22  1  1
M  END
