
     RDKit          3D

 23 24  0  0  0  0  0  0  0  0999 V2000
    3.9460    2.7640    0.7490 O   0  0  0  0  0  0  0  0  0  0  0  0
    3.2790    2.5060   -0.4190 C   0  0  0  0  0  0  0  0  0  0  0  0
    2.6470    1.1400   -0.4680 C   0  0  2  0  0  0  0  0  0  0  0  0
    1.7210    1.0280    0.5830 O   0  0  0  0  0  0  0  0  0  0  0  0
    0.9300   -0.0750    0.2740 C   0  0  2  0  0  0  0  0  0  0  0  0
   -0.2600   -0.1030    0.9580 O   0  0  0  0  0  0  0  0  0  0  0  0
   -1.3750   -0.0800    0.1560 C   0  0  1  0  0  0  0  0  0  0  0  0
   -2.1840   -1.3330    0.4070 C   0  0  2  0  0  0  0  0  0  0  0  0
   -2.2040   -2.1430   -0.8770 C   0  0  0  0  0  0  0  0  0  0  0  0
   -2.9240   -1.5450   -1.8940 O   0  0  0  0  0  0  0  0  0  0  0  0
   -3.4200   -1.1080    0.9490 O   0  0  0  0  0  0  0  0  0  0  0  0
   -4.2590   -0.2790    0.2600 C   0  0  1  0  0  0  0  0  0  0  0  0
   -5.3470   -0.0040    1.1230 O   0  0  0  0  0  0  0  0  0  0  0  0
   -3.6020    0.9830   -0.1960 C   0  0  1  0  0  0  0  0  0  0  0  0
   -4.3810    2.0610    0.2530 O   0  0  0  0  0  0  0  0  0  0  0  0
   -2.2060    1.1490    0.3600 C   0  0  1  0  0  0  0  0  0  0  0  0
   -2.2880    1.4840    1.7210 O   0  0  0  0  0  0  0  0  0  0  0  0
    1.7430   -1.3070    0.5680 C   0  0  2  0  0  0  0  0  0  0  0  0
    1.8470   -1.4090    1.9650 O   0  0  0  0  0  0  0  0  0  0  0  0
    3.1170   -1.2790    0.0100 C   0  0  2  0  0  0  0  0  0  0  0  0
    4.0240   -1.8960    0.8940 O   0  0  0  0  0  0  0  0  0  0  0  0
    3.6460    0.0400   -0.3830 C   0  0  2  0  0  0  0  0  0  0  0  0
    4.6470    0.4540    0.5260 O   0  0  0  0  0  0  0  0  0  0  0  0
  1  2  1  0
  3  2  1  1
  3  4  1  0
  3 22  1  0
  4  5  1  0
  5  6  1  1
  5 18  1  0
  7  6  1  1
  7  8  1  0
  7 16  1  0
  8  9  1  6
  8 11  1  0
  9 10  1  0
 11 12  1  0
 12 13  1  1
 12 14  1  0
 14 15  1  1
 14 16  1  0
 16 17  1  1
 18 19  1  1
 18 20  1  0
 20 21  1  1
 20 22  1  0
 22 23  1  1
M  END
