
     RDKit          3D

 22 22  0  0  0  0  0  0  0  0999 V2000
   -2.6590    2.5380   -2.0390 O   0  0  0  0  0  0  0  0  0  0  0  0
   -2.1960    1.4040   -1.7960 C   0  0  0  0  0  0  0  0  0  0  0  0
   -2.2630    0.4560   -2.8160 O   0  0  0  0  0  0  0  0  0  0  0  0
   -1.6090    1.1220   -0.4660 C   0  0  2  0  0  0  0  0  0  0  0  0
   -1.7280    2.3120    0.2660 O   0  0  0  0  0  0  0  0  0  0  0  0
   -0.1580    0.7730   -0.5810 C   0  0  0  0  0  0  0  0  0  0  0  0
    0.4470    0.1550    0.6300 C   0  0  2  0  0  0  0  0  0  0  0  0
    1.2170   -0.9580    0.3030 O   0  0  0  0  0  0  0  0  0  0  0  0
    2.5400   -0.8370    0.6960 C   0  0  1  0  0  0  0  0  0  0  0  0
    2.8920   -1.9470    1.4720 O   0  0  0  0  0  0  0  0  0  0  0  0
    3.3230   -0.8870   -0.4570 O   0  0  0  0  0  0  0  0  0  0  0  0
    4.1060    0.2610   -0.5890 C   0  0  0  0  0  0  0  0  0  0  0  0
    4.9250    0.1570   -1.8390 C   0  0  0  0  0  0  0  0  0  0  0  0
    5.6930    1.3330   -1.9270 O   0  0  0  0  0  0  0  0  0  0  0  0
   -0.5500   -0.2590    1.6720 C   0  0  0  0  0  0  0  0  0  0  0  0
   -1.8310   -0.8070    1.1720 C   0  0  2  0  0  0  0  0  0  0  0  0
   -2.6760   -0.9020    2.3120 O   0  0  0  0  0  0  0  0  0  0  0  0
   -1.6990   -2.2340    0.6870 C   0  0  0  0  0  0  0  0  0  0  0  0
   -0.9070   -2.3130   -0.4270 O   0  0  0  0  0  0  0  0  0  0  0  0
   -2.4550    0.1060    0.2090 C   0  0  1  0  0  0  0  0  0  0  0  0
   -3.6190    0.8490    0.8770 C   0  0  0  0  0  0  0  0  0  0  0  0
   -4.4790    0.0080    1.5380 O   0  0  0  0  0  0  0  0  0  0  0  0
  1  2  2  0
  2  3  1  0
  2  4  1  0
  4  5  1  1
  4  6  1  0
  4 20  1  0
  6  7  1  0
  7  8  1  6
  7 15  1  0
  8  9  1  0
  9 10  1  1
  9 11  1  0
 11 12  1  0
 12 13  1  0
 13 14  1  0
 15 16  1  0
 16 17  1  1
 16 18  1  0
 16 20  1  0
 18 19  1  0
 20 21  1  1
 21 22  1  0
M  END
