
     RDKit          3D

 22 22  0  0  0  0  0  0  0  0999 V2000
   -5.4190    1.7790    0.6360 C   0  0  0  0  0  0  0  0  0  0  0  0
   -4.5610    1.3140   -0.5070 C   0  0  2  0  0  0  0  0  0  0  0  0
   -4.8850    0.0260   -0.9180 O   0  0  0  0  0  0  0  0  0  0  0  0
   -3.1230    1.3140   -0.1300 C   0  0  0  0  0  0  0  0  0  0  0  0
   -2.6520    2.4280    0.2750 O   0  0  0  0  0  0  0  0  0  0  0  0
   -2.3190    0.1410   -0.2150 N   0  0  0  0  0  0  0  0  0  0  0  0
   -0.9550    0.2610    0.1740 C   0  0  0  0  0  0  0  0  0  0  0  0
   -0.1600   -1.0090    0.0610 C   0  0  2  0  0  0  0  0  0  0  0  0
    1.2250   -0.6980    0.5040 C   0  0  0  0  0  0  0  0  0  0  0  0
    1.6750   -1.3350    1.4890 O   0  0  0  0  0  0  0  0  0  0  0  0
    2.0200    0.2330   -0.1010 O   0  0  0  0  0  0  0  0  0  0  0  0
    3.3380    0.5510    0.2940 C   0  0  0  0  0  0  0  0  0  0  0  0
    3.8470    1.6270   -0.6410 C   0  0  0  0  0  0  0  0  0  0  0  0
    5.5870    2.1270   -0.2100 P   0  0  0  0  0  0  0  0  0  0  0  0
    6.1890    0.9730    0.9310 O   0  0  0  0  0  0  0  0  0  0  0  0
    5.6830    3.7400    0.3660 O   0  0  0  0  0  0  0  0  0  0  0  0
   -0.0770   -1.4160   -1.3930 C   0  0  0  0  0  0  0  0  0  0  0  0
    0.0270   -2.8830   -1.6030 C   0  0  0  0  0  0  0  0  0  0  0  0
    0.5410   -3.6540   -0.4310 C   0  0  0  0  0  0  0  0  0  0  0  0
   -0.1400   -3.3600    0.7660 O   0  0  0  0  0  0  0  0  0  0  0  0
   -0.7480   -2.0980    0.8420 C   0  0  0  0  0  0  0  0  0  0  0  0
   -1.7670   -1.8930    1.5550 O   0  0  0  0  0  0  0  0  0  0  0  0
  2  1  1  1
  2  3  1  0
  2  4  1  0
  4  5  2  0
  4  6  1  0
  6  7  1  0
  8  7  1  6
  8  9  1  0
  8 17  1  0
  8 21  1  0
  9 10  2  0
  9 11  1  0
 11 12  1  0
 12 13  1  0
 13 14  1  0
 14 15  1  0
 14 16  1  0
 17 18  1  0
 18 19  1  0
 19 20  1  0
 20 21  1  0
 21 22  2  0
M  END
