
     RDKit          3D

 23 24  0  0  0  0  0  0  0  0999 V2000
   -3.6460    3.4250   -0.3920 C   0  0  0  0  0  0  0  0  0  0  0  0
   -2.9820    2.3020    0.2650 O   0  0  0  0  0  0  0  0  0  0  0  0
   -3.1240    1.0260   -0.2220 C   0  0  0  0  0  0  0  0  0  0  0  0
   -3.9560    0.9470   -1.2190 O   0  0  0  0  0  0  0  0  0  0  0  0
   -2.3900   -0.1220    0.2990 C   0  0  2  0  0  0  0  0  0  0  0  0
   -1.3550    0.3590    1.1520 O   0  0  0  0  0  0  0  0  0  0  0  0
   -0.1280   -0.3270    1.0150 C   0  0  0  0  0  0  0  0  0  0  0  0
    0.7440    0.2990    0.2170 C   0  0  0  0  0  0  0  0  0  0  0  0
    2.0550   -0.2010   -0.0450 C   0  0  0  0  0  0  0  0  0  0  0  0
    2.7470    0.7080   -0.8820 O   0  0  0  0  0  0  0  0  0  0  0  0
    3.9820    0.8280   -1.3380 C   0  0  0  0  0  0  0  0  0  0  0  0
    4.7910    1.1050    0.1950 C   0  0  0  0  0  0  0  0  0  0  0  0
    5.9440    1.3280   -0.4310 O   0  0  0  0  0  0  0  0  0  0  0  0
    7.0210    0.8040   -0.4260 O   0  0  0  0  0  0  0  0  0  0  0  0
    7.2010   -0.4400   -0.3040 O   0  0  0  0  0  0  0  0  0  0  0  0
    2.3410   -1.3450    0.5370 C   0  0  0  0  0  0  0  0  0  0  0  0
    1.4130   -2.0390    1.3610 C   0  0  0  0  0  0  0  0  0  0  0  0
    0.2090   -1.5360    1.6070 N   0  0  0  0  0  0  0  0  0  0  0  0
   -2.0610   -1.2930   -0.4820 C   0  0  0  0  0  0  0  0  0  0  0  0
   -2.8130   -2.4430   -0.1160 O   0  0  0  0  0  0  0  0  0  0  0  0
   -4.1830   -2.1960    0.0500 C   0  0  0  0  0  0  0  0  0  0  0  0
   -4.4180   -0.9590    0.9110 C   0  0  0  0  0  0  0  0  0  0  0  0
   -3.2430   -0.6060    1.4620 O   0  0  0  0  0  0  0  0  0  0  0  0
  1  2  1  0
  2  3  1  0
  3  4  2  0
  3  5  1  0
  5  6  1  1
  5 19  1  0
  5 23  1  0
  6  7  1  0
  7  8  2  0
  7 18  1  0
  8  9  1  0
  9 10  1  0
  9 16  2  0
 10 11  1  0
 11 12  1  0
 12 13  1  0
 13 14  1  0
 14 15  1  0
 16 17  1  0
 17 18  2  0
 19 20  1  0
 20 21  1  0
 21 22  1  0
 22 23  1  0
M  END
