
     RDKit          3D

 23 24  0  0  0  0  0  0  0  0999 V2000
   -3.1500    1.5990    1.5260 C   0  0  0  0  0  0  0  0  0  0  0  0
   -3.4460    0.6390    0.3900 C   0  0  1  0  0  0  0  0  0  0  0  0
   -2.2410   -0.0810   -0.0580 C   0  0  0  0  0  0  0  0  0  0  0  0
   -1.8100    0.0030   -1.2390 O   0  0  0  0  0  0  0  0  0  0  0  0
   -1.4960   -0.9050    0.7990 O   0  0  0  0  0  0  0  0  0  0  0  0
   -0.4070   -1.5420    0.3560 O   0  0  0  0  0  0  0  0  0  0  0  0
    0.6790   -0.6970    0.5430 C   0  0  2  0  0  0  0  0  0  0  0  0
    1.3970   -0.4780   -0.7130 N   0  0  0  0  0  0  0  0  0  0  0  0
    2.1540   -1.7370   -0.7940 C   0  0  0  0  0  0  0  0  0  0  0  0
    2.5780   -1.8760    0.6710 C   0  0  1  0  0  0  0  0  0  0  0  0
    3.8890   -1.1510    0.8120 C   0  0  0  0  0  0  0  0  0  0  0  0
    4.0040   -0.1370    1.5340 O   0  0  0  0  0  0  0  0  0  0  0  0
    4.9930   -1.6060    0.1360 O   0  0  0  0  0  0  0  0  0  0  0  0
    6.2640   -0.9990    0.2010 C   0  0  0  0  0  0  0  0  0  0  0  0
    6.2420    0.4320   -0.2760 C   0  0  0  0  0  0  0  0  0  0  0  0
    5.8200    0.5390   -1.5980 O   0  0  0  0  0  0  0  0  0  0  0  0
    5.8470    1.8390   -1.8860 O   0  0  0  0  0  0  0  0  0  0  0  0
    1.5880   -1.2850    1.4140 O   0  0  0  0  0  0  0  0  0  0  0  0
   -4.5450   -0.2930    0.8330 C   0  0  0  0  0  0  0  0  0  0  0  0
   -5.8970    0.3770    0.7660 C   0  0  0  0  0  0  0  0  0  0  0  0
   -6.2070    0.8470   -0.4860 O   0  0  0  0  0  0  0  0  0  0  0  0
   -5.1440    0.7110   -1.3610 C   0  0  0  0  0  0  0  0  0  0  0  0
   -3.9640    1.4570   -0.7730 C   0  0  0  0  0  0  0  0  0  0  0  0
  2  1  1  1
  2  3  1  0
  2 19  1  0
  2 23  1  0
  3  4  2  0
  3  5  1  0
  5  6  1  0
  7  6  1  6
  7  8  1  0
  7 18  1  0
  8  9  1  0
  9 10  1  0
 10 11  1  6
 10 18  1  0
 11 12  2  0
 11 13  1  0
 13 14  1  0
 14 15  1  0
 15 16  1  0
 16 17  1  0
 19 20  1  0
 20 21  1  0
 21 22  1  0
 22 23  1  0
M  END
