
     RDKit          3D

 23 23  0  0  0  0  0  0  0  0999 V2000
   -6.4700   -0.8160    0.1170 O   0  0  0  0  0  0  0  0  0  0  0  0
   -5.2050   -0.5510    0.1750 C   0  0  0  0  0  0  0  0  0  0  0  0
   -4.5540   -0.0490   -0.9970 N   0  0  0  0  0  0  0  0  0  0  0  0
   -3.7600    1.1350   -1.0880 C   0  0  0  0  0  0  0  0  0  0  0  0
   -2.3970    0.9580   -1.6810 C   0  0  0  0  0  0  0  0  0  0  0  0
   -1.8410   -0.4240   -1.5490 C   0  0  0  0  0  0  0  0  0  0  0  0
   -1.0050   -0.6740   -0.5250 O   0  0  0  0  0  0  0  0  0  0  0  0
   -0.3340    0.3270    0.0880 C   0  0  2  0  0  0  0  0  0  0  0  0
    0.9260   -0.2430    0.6980 C   0  0  0  0  0  0  0  0  0  0  0  0
    1.1610   -1.4210    0.5750 O   0  0  0  0  0  0  0  0  0  0  0  0
    1.8760    0.6140    1.4420 C   0  0  0  0  0  0  0  0  0  0  0  0
    2.9930   -0.0070    1.9030 O   0  0  0  0  0  0  0  0  0  0  0  0
    3.8470   -0.5500    0.9870 C   0  0  0  0  0  0  0  0  0  0  0  0
    4.3820    0.4910    0.0160 C   0  0  0  0  0  0  0  0  0  0  0  0
    5.3180   -0.1310   -0.9810 C   0  0  0  0  0  0  0  0  0  0  0  0
    5.7710    0.8660   -1.8360 O   0  0  0  0  0  0  0  0  0  0  0  0
    6.6000    0.4130   -2.7470 O   0  0  0  0  0  0  0  0  0  0  0  0
   -1.1010    1.0860    1.0970 C   0  0  0  0  0  0  0  0  0  0  0  0
   -0.7880    2.2820    1.2930 O   0  0  0  0  0  0  0  0  0  0  0  0
   -2.1090    0.5090    1.7870 O   0  0  0  0  0  0  0  0  0  0  0  0
   -2.2810   -0.7860    2.2300 C   0  0  0  0  0  0  0  0  0  0  0  0
   -3.4210   -1.5540    1.6090 C   0  0  0  0  0  0  0  0  0  0  0  0
   -4.5780   -0.7780    1.3880 O   0  0  0  0  0  0  0  0  0  0  0  0
  1  2  2  0
  2  3  1  0
  2 23  1  0
  3  4  1  0
  4  5  1  0
  5  6  1  0
  6  7  1  0
  7  8  1  0
  8  9  1  1
  8 18  1  0
  9 10  2  0
  9 11  1  0
 11 12  1  0
 12 13  1  0
 13 14  1  0
 14 15  1  0
 15 16  1  0
 16 17  1  0
 18 19  2  0
 18 20  1  0
 20 21  1  0
 21 22  1  0
 22 23  1  0
M  END
