
     RDKit          3D

 23 22  0  0  0  0  0  0  0  0999 V2000
   -1.7150    1.5320    2.8940 C   0  0  0  0  0  0  0  0  0  0  0  0
   -1.6700    1.7070    1.3690 C   0  0  0  0  0  0  0  0  0  0  0  0
   -1.6870    0.4270    0.7060 N   0  0  0  0  0  0  0  0  0  0  0  0
   -0.5070   -0.2780    0.3770 C   0  0  0  0  0  0  0  0  0  0  0  0
    0.1290   -0.0070   -0.9320 C   0  0  2  0  0  0  0  0  0  0  0  0
    0.6480    1.4020   -1.0920 C   0  0  0  0  0  0  0  0  0  0  0  0
   -0.7490   -0.3440   -2.0860 C   0  0  0  0  0  0  0  0  0  0  0  0
   -0.1000   -0.0690   -3.4250 C   0  0  0  0  0  0  0  0  0  0  0  0
    1.0720   -0.8220   -3.5670 O   0  0  0  0  0  0  0  0  0  0  0  0
    1.2760   -0.8360   -1.0070 O   0  0  0  0  0  0  0  0  0  0  0  0
    2.0490   -0.4740    0.0240 O   0  0  0  0  0  0  0  0  0  0  0  0
    3.4240   -0.3810   -0.0460 C   0  0  0  0  0  0  0  0  0  0  0  0
    3.9600   -0.6580   -1.1560 O   0  0  0  0  0  0  0  0  0  0  0  0
    4.2070   -0.0010    1.0450 O   0  0  0  0  0  0  0  0  0  0  0  0
    5.6130    0.0780    0.9190 C   0  0  0  0  0  0  0  0  0  0  0  0
    6.2140   -1.2100    0.5450 C   0  0  0  0  0  0  0  0  0  0  0  0
    5.5120   -2.2160    0.3730 O   0  0  0  0  0  0  0  0  0  0  0  0
    7.5770   -1.2910    0.3840 O   0  0  0  0  0  0  0  0  0  0  0  0
   -2.9660   -0.1000    0.3860 C   0  0  0  0  0  0  0  0  0  0  0  0
   -2.9940   -1.2230   -0.1850 O   0  0  0  0  0  0  0  0  0  0  0  0
   -4.2250    0.5800    0.6800 C   0  0  0  0  0  0  0  0  0  0  0  0
   -5.3100   -0.1670    0.3380 O   0  0  0  0  0  0  0  0  0  0  0  0
   -5.4940   -1.3540    0.9930 C   0  0  0  0  0  0  0  0  0  0  0  0
  1  2  1  0
  2  3  1  0
  3  4  1  0
  3 19  1  0
  4  5  1  0
  5  6  1  1
  5  7  1  0
  5 10  1  0
  7  8  1  0
  8  9  1  0
 10 11  1  0
 11 12  1  0
 12 13  2  0
 12 14  1  0
 14 15  1  0
 15 16  1  0
 16 17  2  0
 16 18  1  0
 19 20  2  0
 19 21  1  0
 21 22  1  0
 22 23  1  0
M  END
