
     RDKit          3D

 23 24  0  0  0  0  0  0  0  0999 V2000
   -2.8600   -2.5820    0.2440 O   0  0  0  0  0  0  0  0  0  0  0  0
   -1.6550   -2.3710   -0.0320 C   0  0  0  0  0  0  0  0  0  0  0  0
   -0.9590   -3.3090   -0.8700 N   0  0  0  0  0  0  0  0  0  0  0  0
    0.3890   -3.0430   -1.1610 C   0  0  0  0  0  0  0  0  0  0  0  0
    1.0000   -3.8790   -1.9180 O   0  0  0  0  0  0  0  0  0  0  0  0
    1.0830   -1.8690   -0.6330 C   0  0  2  0  0  0  0  0  0  0  0  0
    2.2350   -2.2310    0.0820 O   0  0  0  0  0  0  0  0  0  0  0  0
    3.4050   -1.7770   -0.4460 C   0  0  0  0  0  0  0  0  0  0  0  0
    3.5720   -0.2940   -0.4640 C   0  0  0  0  0  0  0  0  0  0  0  0
    3.5890    0.2850    0.9250 C   0  0  0  0  0  0  0  0  0  0  0  0
    3.7250    1.6680    0.8840 O   0  0  0  0  0  0  0  0  0  0  0  0
    3.7450    2.2160    2.0570 O   0  0  0  0  0  0  0  0  0  0  0  0
    4.5060    3.2690    2.1350 O   0  0  0  0  0  0  0  0  0  0  0  0
    0.2870   -0.9820    0.1990 C   0  0  0  0  0  0  0  0  0  0  0  0
   -0.9660   -1.1980    0.4840 C   0  0  0  0  0  0  0  0  0  0  0  0
   -1.6440   -0.2980    1.2890 O   0  0  0  0  0  0  0  0  0  0  0  0
   -2.1660    0.8540    0.6580 C   0  0  1  0  0  0  0  0  0  0  0  0
   -3.1600    0.4970   -0.4260 C   0  0  0  0  0  0  0  0  0  0  0  0
   -3.5800    1.8250   -1.0660 C   0  0  0  0  0  0  0  0  0  0  0  0
   -4.5110    2.4860   -0.0590 C   0  0  0  0  0  0  0  0  0  0  0  0
   -4.0990    2.2260    1.2700 O   0  0  0  0  0  0  0  0  0  0  0  0
   -2.8330    1.7700    1.5910 C   0  0  0  0  0  0  0  0  0  0  0  0
   -2.2980    2.1430    2.6510 O   0  0  0  0  0  0  0  0  0  0  0  0
  1  2  2  0
  2  3  1  0
  2 15  1  0
  3  4  1  0
  4  5  2  0
  4  6  1  0
  6  7  1  1
  6 14  1  0
  7  8  1  0
  8  9  1  0
  9 10  1  0
 10 11  1  0
 11 12  1  0
 12 13  1  0
 14 15  2  0
 15 16  1  0
 17 16  1  1
 17 18  1  0
 17 22  1  0
 18 19  1  0
 19 20  1  0
 20 21  1  0
 21 22  1  0
 22 23  2  0
M  END
