
     RDKit          3D

 25 24  0  0  0  0  0  0  0  0999 V2000
   -8.9090    1.5630    0.1430 C   0  0  0  0  0  0  0  0  0  0  0  0
   -7.3840    1.4660    0.2060 C   0  0  0  0  0  0  0  0  0  0  0  0
   -6.8920    0.4110   -0.7470 C   0  0  0  0  0  0  0  0  0  0  0  0
   -5.3950    0.2810   -0.6940 C   0  0  0  0  0  0  0  0  0  0  0  0
   -4.7450    1.5660   -1.0680 C   0  0  0  0  0  0  0  0  0  0  0  0
   -3.2250    1.4780   -1.0400 C   0  0  0  0  0  0  0  0  0  0  0  0
   -2.6960    0.4540   -1.9850 C   0  0  0  0  0  0  0  0  0  0  0  0
   -1.1860    0.4380   -1.9210 C   0  0  0  0  0  0  0  0  0  0  0  0
   -0.6670    0.1060   -0.5600 C   0  0  0  0  0  0  0  0  0  0  0  0
    0.8230    0.1030   -0.5530 C   0  0  0  0  0  0  0  0  0  0  0  0
    1.4040   -0.8960   -1.4890 C   0  0  0  0  0  0  0  0  0  0  0  0
    0.9850   -2.3110   -1.1900 C   0  0  0  0  0  0  0  0  0  0  0  0
    1.3770   -2.7850    0.1700 C   0  0  0  0  0  0  0  0  0  0  0  0
    2.8260   -2.7870    0.4350 C   0  0  0  0  0  0  0  0  0  0  0  0
    3.4090   -2.0740    1.4210 C   0  0  0  0  0  0  0  0  0  0  0  0
    4.8580   -2.0780    1.6850 C   0  0  1  0  0  0  0  0  0  0  0  0
    5.4100   -3.3540    1.6460 O   0  0  0  0  0  0  0  0  0  0  0  0
    5.6520   -1.1210    0.8400 C   0  0  1  0  0  0  0  0  0  0  0  0
    5.6700   -1.5600   -0.5210 N   0  0  0  0  0  0  0  0  0  0  0  0
    5.0880    0.2810    0.9110 C   0  0  0  0  0  0  0  0  0  0  0  0
    5.0570    0.7380    2.2010 O   0  0  0  0  0  0  0  0  0  0  0  0
    4.4130    2.2890    2.1330 P   0  0  0  0  0  0  0  0  0  0  0  0
    3.7370    2.9080    3.5340 O   0  0  0  0  0  0  0  0  0  0  0  0
    3.0640    1.6740    1.7510 O   0  0  0  0  0  0  0  0  0  0  0  0
    4.6340    3.2160    0.8460 O   0  0  0  0  0  0  0  0  0  0  0  0
  1  2  1  0
  2  3  1  0
  3  4  1  0
  4  5  1  0
  5  6  1  0
  6  7  1  0
  7  8  1  0
  8  9  1  0
  9 10  1  0
 10 11  1  0
 11 12  1  0
 12 13  1  0
 13 14  1  0
 14 15  2  3
 15 16  1  0
 16 17  1  6
 16 18  1  0
 18 19  1  6
 18 20  1  0
 20 21  1  0
 21 22  1  0
 22 23  1  0
 22 24  1  0
 22 25  1  0
M  CHG  1  19   1
M  END
