
     RDKit          3D

 22 23  0  0  0  0  0  0  0  0999 V2000
    5.8270    1.3980    1.3020 O   0  0  0  0  0  0  0  0  0  0  0  0
    4.9940    2.2120    0.8430 C   0  0  0  0  0  0  0  0  0  0  0  0
    5.2590    3.5670    0.9010 O   0  0  0  0  0  0  0  0  0  0  0  0
    3.7520    1.6870    0.2550 C   0  0  0  0  0  0  0  0  0  0  0  0
    2.8020    2.5430   -0.2650 C   0  0  0  0  0  0  0  0  0  0  0  0
    1.6610    2.0860   -0.8070 N   0  0  0  0  0  0  0  0  0  0  0  0
    1.3720    0.7750   -0.8790 C   0  0  0  0  0  0  0  0  0  0  0  0
    2.2820   -0.1310   -0.3760 C   0  0  0  0  0  0  0  0  0  0  0  0
    2.0930   -1.4450   -0.3940 O   0  0  0  0  0  0  0  0  0  0  0  0
    1.2480   -2.4370   -0.7320 C   0  0  0  0  0  0  0  0  0  0  0  0
   -0.0330   -2.4380    0.0150 C   0  0  2  0  0  0  0  0  0  0  0  0
   -0.8630   -3.5300   -0.3800 O   0  0  0  0  0  0  0  0  0  0  0  0
   -1.8950   -3.3370    0.5690 C   0  0  0  0  0  0  0  0  0  0  0  0
   -2.0420   -1.8310    0.5110 C   0  0  2  0  0  0  0  0  0  0  0  0
   -3.1480   -1.4260   -0.1860 O   0  0  0  0  0  0  0  0  0  0  0  0
   -3.9650   -0.5520    0.4900 C   0  0  0  0  0  0  0  0  0  0  0  0
   -3.2830    0.7340    0.8870 C   0  0  0  0  0  0  0  0  0  0  0  0
   -2.6470    1.6770   -0.5510 P   0  0  0  0  0  0  0  0  0  0  0  0
   -1.3510    2.7350   -0.1540 O   0  0  0  0  0  0  0  0  0  0  0  0
   -3.8720    2.4230   -1.4830 O   0  0  0  0  0  0  0  0  0  0  0  0
   -0.9000   -1.4080   -0.1720 O   0  0  0  0  0  0  0  0  0  0  0  0
    3.4880    0.3560    0.1960 C   0  0  0  0  0  0  0  0  0  0  0  0
  1  2  2  0
  2  3  1  0
  2  4  1  0
  4  5  2  0
  4 22  1  0
  5  6  1  0
  6  7  2  0
  7  8  1  0
  8  9  1  0
  8 22  2  0
  9 10  1  0
 11 10  1  6
 11 12  1  0
 11 21  1  0
 12 13  1  0
 13 14  1  0
 14 15  1  6
 14 21  1  0
 15 16  1  0
 16 17  1  0
 17 18  1  0
 18 19  1  0
 18 20  1  0
M  END
