
     RDKit          3D

 23 23  0  0  0  0  0  0  0  0999 V2000
    3.4330   -1.2450   -1.0170 C   0  0  0  0  0  0  0  0  0  0  0  0
    3.2260   -1.4810    0.2680 C   0  0  0  0  0  0  0  0  0  0  0  0
    4.1030   -2.3500    1.0780 C   0  0  0  0  0  0  0  0  0  0  0  0
    5.1470   -2.8680    0.3070 O   0  0  0  0  0  0  0  0  0  0  0  0
    2.0760   -0.8570    0.9270 C   0  0  0  0  0  0  0  0  0  0  0  0
    1.8540   -1.0600    2.1280 O   0  0  0  0  0  0  0  0  0  0  0  0
    1.2500   -0.0420    0.1850 O   0  0  0  0  0  0  0  0  0  0  0  0
    0.1190    0.5800    0.7970 C   0  0  0  0  0  0  0  0  0  0  0  0
   -0.5970    1.3670   -0.2330 C   0  0  0  0  0  0  0  0  0  0  0  0
   -1.8440    1.0890   -0.5160 C   0  0  0  0  0  0  0  0  0  0  0  0
   -2.5550    0.0190    0.1640 C   0  0  0  0  0  0  0  0  0  0  0  0
   -2.7080   -0.2750    1.4580 N   0  0  0  0  0  0  0  0  0  0  0  0
   -3.4560   -1.3770    1.5890 C   0  0  0  0  0  0  0  0  0  0  0  0
   -3.7630   -1.7580    0.3060 C   0  0  0  0  0  0  0  0  0  0  0  0
   -4.5530   -2.9000   -0.0880 C   0  0  0  0  0  0  0  0  0  0  0  0
   -4.7320   -3.1050   -1.3340 O   0  0  0  0  0  0  0  0  0  0  0  0
   -5.1210   -3.7740    0.8350 O   0  0  0  0  0  0  0  0  0  0  0  0
   -3.2110   -0.9060   -0.5080 O   0  0  0  0  0  0  0  0  0  0  0  0
    0.1240    2.4340   -0.9190 C   0  0  0  0  0  0  0  0  0  0  0  0
    1.3090    2.7150   -0.6630 O   0  0  0  0  0  0  0  0  0  0  0  0
   -0.4780    3.2050   -1.9130 O   0  0  0  0  0  0  0  0  0  0  0  0
    0.1800    4.1820   -2.5470 O   0  0  0  0  0  0  0  0  0  0  0  0
    0.3220    5.2330   -1.6440 C   0  0  0  0  0  0  0  0  0  0  0  0
  1  2  2  0
  2  3  1  0
  2  5  1  0
  3  4  1  0
  5  6  2  0
  5  7  1  0
  7  8  1  0
  8  9  1  0
  9 10  2  3
  9 19  1  0
 10 11  1  0
 11 12  2  0
 11 18  1  0
 12 13  1  0
 13 14  2  0
 14 15  1  0
 14 18  1  0
 15 16  2  0
 15 17  1  0
 19 20  2  0
 19 21  1  0
 21 22  1  0
 22 23  1  0
M  END
