
     RDKit          3D

 23 23  0  0  0  0  0  0  0  0999 V2000
   -2.9170    3.9530    0.7550 C   0  0  0  0  0  0  0  0  0  0  0  0
   -1.8750    3.4530   -0.2400 C   0  0  0  0  0  0  0  0  0  0  0  0
   -1.5330    2.1230   -0.1100 O   0  0  0  0  0  0  0  0  0  0  0  0
   -0.6140    1.4670   -0.9690 C   0  0  0  0  0  0  0  0  0  0  0  0
   -0.1070    2.1180   -1.8590 O   0  0  0  0  0  0  0  0  0  0  0  0
   -0.3380    0.0440   -0.7100 C   0  0  2  0  0  0  0  0  0  0  0  0
   -1.2010   -0.3970    0.5120 C   0  0  0  0  0  0  0  0  0  0  0  0
   -2.6660   -0.4590    0.2950 C   0  0  2  0  0  0  0  0  0  0  0  0
   -3.2490   -0.5850    1.6940 C   0  0  0  0  0  0  0  0  0  0  0  0
   -2.7680    0.0680    2.7020 O   0  0  0  0  0  0  0  0  0  0  0  0
   -4.2820   -1.4540    1.7180 O   0  0  0  0  0  0  0  0  0  0  0  0
   -4.1730   -2.2790    0.5970 C   0  0  0  0  0  0  0  0  0  0  0  0
   -4.9920   -3.2070    0.3110 O   0  0  0  0  0  0  0  0  0  0  0  0
   -2.9940   -1.8620   -0.0930 N   0  0  0  0  0  0  0  0  0  0  0  0
   -2.3040   -2.7550   -0.9880 C   0  0  0  0  0  0  0  0  0  0  0  0
    0.9500   -0.4910   -0.5270 C   0  0  0  0  0  0  0  0  0  0  0  0
    1.3420   -0.7870    0.6740 O   0  0  0  0  0  0  0  0  0  0  0  0
    1.9520   -0.8000   -1.4440 O   0  0  0  0  0  0  0  0  0  0  0  0
    3.0930   -1.4350   -1.0790 C   0  0  0  0  0  0  0  0  0  0  0  0
    4.0560   -0.9980   -0.1530 C   0  0  0  0  0  0  0  0  0  0  0  0
    4.8870    0.2260   -0.3190 C   0  0  0  0  0  0  0  0  0  0  0  0
    5.8220    0.2070    0.7890 O   0  0  0  0  0  0  0  0  0  0  0  0
    7.0850    0.3420    0.2310 O   0  0  0  0  0  0  0  0  0  0  0  0
  1  2  1  0
  2  3  1  0
  3  4  1  0
  4  5  2  0
  4  6  1  0
  6  7  1  1
  6 16  1  0
  8  7  1  1
  8  9  1  0
  8 14  1  0
  9 10  2  0
  9 11  1  0
 11 12  1  0
 12 13  2  0
 12 14  1  0
 14 15  1  0
 16 17  2  0
 16 18  1  0
 18 19  1  0
 19 20  1  0
 20 21  1  0
 21 22  1  0
 22 23  1  0
M  END
