
     RDKit          3D

 39 41  0  0  0  0  0  0  0  0999 V2000
   -2.3720   -3.2580    2.6000 C   0  0  0  0  0  0  0  0  0  0  0  0
   -1.9300   -2.4920    1.5450 O   0  0  0  0  0  0  0  0  0  0  0  0
   -0.9810   -3.0840    0.4510 P   0  0  0  0  0  0  0  0  0  0  0  0
   -2.1650   -4.1910    0.1710 O   0  0  0  0  0  0  0  0  0  0  0  0
    0.0210   -4.0120   -0.2820 O   0  0  0  0  0  0  0  0  0  0  0  0
   -0.9370   -1.6650   -0.5800 C   0  0  1  0  0  0  0  0  0  0  0  0
   -0.0230   -1.7480   -1.6620 O   0  0  0  0  0  0  0  0  0  0  0  0
   -2.2660   -1.4570   -1.2200 C   0  0  2  0  0  0  0  0  0  0  0  0
   -3.4230   -1.2510   -0.3080 C   0  0  0  0  0  0  0  0  0  0  0  0
   -4.6070   -0.8120   -1.1650 C   0  0  0  0  0  0  0  0  0  0  0  0
   -5.0160   -1.9330   -2.0970 C   0  0  0  0  0  0  0  0  0  0  0  0
   -3.9820   -2.9930   -2.2650 C   0  0  0  0  0  0  0  0  0  0  0  0
   -2.5660   -2.5380   -2.2220 C   0  0  0  0  0  0  0  0  0  0  0  0
   -0.5200   -0.5220    0.2510 C   0  0  1  0  0  0  0  0  0  0  0  0
    1.1540   -0.7630    0.9700 S   0  0  0  0  0  0  0  0  0  0  0  0
    1.9090    0.7160    0.1720 C   0  0  1  0  0  0  0  0  0  0  0  0
    3.1640    0.2250   -0.5330 C   0  0  0  0  0  0  0  0  0  0  0  0
    4.0670   -0.3750    0.5110 C   0  0  0  0  0  0  0  0  0  0  0  0
    5.1990   -0.8170   -0.1260 O   0  0  0  0  0  0  0  0  0  0  0  0
    6.2010   -1.4820    1.0070 P   0  0  0  0  0  0  0  0  0  0  0  0
    6.8560   -0.1410    1.2960 O   0  0  0  0  0  0  0  0  0  0  0  0
    5.6670   -1.5780    2.6000 O   0  0  0  0  0  0  0  0  0  0  0  0
    7.5660   -2.2450    0.5940 O   0  0  0  0  0  0  0  0  0  0  0  0
    8.8300   -1.4210    0.0090 P   0  0  0  0  0  0  0  0  0  0  0  0
    9.7260   -0.3930    0.9810 O   0  0  0  0  0  0  0  0  0  0  0  0
    8.0230   -0.2340   -0.5070 O   0  0  0  0  0  0  0  0  0  0  0  0
    9.3960   -1.7420   -1.5170 O   0  0  0  0  0  0  0  0  0  0  0  0
    0.8640    0.9840   -0.8560 C   0  0  2  0  0  0  0  0  0  0  0  0
    1.0520    2.3440   -1.4220 C   0  0  0  0  0  0  0  0  0  0  0  0
   -0.4460    0.7840   -0.2790 N   0  0  2  0  0  0  0  0  0  0  0  0
   -0.6300    1.6980    0.8260 C   0  0  0  0  0  0  0  0  0  0  0  0
   -1.8430    2.4820    0.8730 C   0  0  0  0  0  0  0  0  0  0  0  0
   -2.7200    2.3830    1.8940 C   0  0  0  0  0  0  0  0  0  0  0  0
   -3.8700    3.2070    1.8270 N   0  0  0  0  0  0  0  0  0  0  0  0
   -3.7460    4.5650    1.3540 C   0  0  2  0  0  0  0  0  0  0  0  0
   -4.9300    5.0900    0.6210 C   0  0  0  0  0  0  0  0  0  0  0  0
   -2.5700    4.7310    0.5110 N   0  0  0  0  0  0  0  0  0  0  0  0
   -2.2290    3.4680   -0.1560 C   0  0  2  0  0  0  0  0  0  0  0  0
   -3.3220    3.0040   -0.9590 N   0  0  0  0  0  0  0  0  0  0  0  0
  1  2  1  0
  2  3  1  0
  3  4  1  0
  3  5  1  0
  3  6  1  0
  6  7  1  6
  6  8  1  0
  6 14  1  0
  8  9  1  1
  8 13  1  0
  9 10  1  0
 10 11  1  0
 11 12  1  0
 12 13  1  0
 14 15  1  6
 14 30  1  0
 15 16  1  0
 16 17  1  6
 16 28  1  0
 17 18  1  0
 18 19  1  0
 19 20  1  0
 20 21  1  0
 20 22  1  0
 20 23  1  0
 23 24  1  0
 24 25  1  0
 24 26  1  0
 24 27  1  0
 28 29  1  1
 28 30  1  0
 30 31  1  1
 31 32  1  0
 32 33  2  0
 32 38  1  0
 33 34  1  0
 34 35  1  0
 35 36  1  6
 35 37  1  0
 37 38  1  0
 38 39  1  1
M  CHG  3  30   1  37   1  39   1
M  END
