
     RDKit          3D

 35 37  0  0  0  0  0  0  0  0999 V2000
   10.3270   -0.9690    0.2630 C   0  0  0  0  0  0  0  0  0  0  0  0
    8.9080   -0.4540    0.0020 C   0  0  0  0  0  0  0  0  0  0  0  0
    7.9530   -1.6110    0.1320 C   0  0  0  0  0  0  0  0  0  0  0  0
    6.5200   -1.1400   -0.1080 C   0  0  0  0  0  0  0  0  0  0  0  0
    6.1200   -0.1610    0.8480 N   0  0  0  0  0  0  0  0  0  0  0  0
    4.7930    0.3140    0.5930 C   0  0  0  0  0  0  0  0  0  0  0  0
    3.7710   -0.7600    0.8040 C   0  0  0  0  0  0  0  0  0  0  0  0
    2.3790   -0.2100    0.5710 C   0  0  0  0  0  0  0  0  0  0  0  0
    2.0360    1.0730    0.2620 C   0  0  0  0  0  0  0  0  0  0  0  0
    0.6230    1.1350    0.1320 C   0  0  0  0  0  0  0  0  0  0  0  0
   -0.0330    2.3510   -0.3040 C   0  0  0  0  0  0  0  0  0  0  0  0
    0.4460    3.4350    0.2010 O   0  0  0  0  0  0  0  0  0  0  0  0
   -1.0910    2.5150   -1.1880 N   0  0  0  0  0  0  0  0  0  0  0  0
   -1.6590    3.8200   -1.5370 C   0  0  0  0  0  0  0  0  0  0  0  0
   -2.7730    3.6480   -2.5120 C   0  0  0  0  0  0  0  0  0  0  0  0
   -3.4220    4.9260   -2.9230 C   0  0  0  0  0  0  0  0  0  0  0  0
   -4.1760    5.8480   -1.5110 P   0  0  0  0  0  0  0  0  0  0  0  0
   -4.9240    4.8030   -0.3670 O   0  0  0  0  0  0  0  0  0  0  0  0
   -3.1610    7.0320   -0.8200 O   0  0  0  0  0  0  0  0  0  0  0  0
    0.2080   -0.1230    0.3780 C   0  0  0  0  0  0  0  0  0  0  0  0
   -1.1650   -0.6500    0.3850 C   0  0  0  0  0  0  0  0  0  0  0  0
   -1.3450   -2.0220    0.2830 C   0  0  0  0  0  0  0  0  0  0  0  0
   -2.5780   -2.6120    0.3570 C   0  0  0  0  0  0  0  0  0  0  0  0
   -3.7460   -1.8570    0.5430 C   0  0  0  0  0  0  0  0  0  0  0  0
   -4.9950   -2.5080    0.6130 N   0  0  0  0  0  0  0  0  0  0  0  0
   -5.0230   -3.9480    0.7670 C   0  0  0  0  0  0  0  0  0  0  0  0
   -6.4010   -4.4950    1.0400 C   0  0  2  0  0  0  0  0  0  0  0  0
   -7.0360   -4.7210   -0.1830 O   0  0  0  0  0  0  0  0  0  0  0  0
   -7.2680   -3.5840    1.8640 C   0  0  0  0  0  0  0  0  0  0  0  0
   -7.3700   -2.3570    1.1450 O   0  0  0  0  0  0  0  0  0  0  0  0
   -6.2270   -1.8110    0.5320 C   0  0  0  0  0  0  0  0  0  0  0  0
   -6.3610   -0.7200   -0.0610 O   0  0  0  0  0  0  0  0  0  0  0  0
   -3.5600   -0.4980    0.6440 C   0  0  0  0  0  0  0  0  0  0  0  0
   -2.2860    0.0910    0.5660 C   0  0  0  0  0  0  0  0  0  0  0  0
    1.2760   -0.8850    0.6300 O   0  0  0  0  0  0  0  0  0  0  0  0
  1  2  1  0
  2  3  1  0
  3  4  1  0
  4  5  1  0
  5  6  1  0
  6  7  1  0
  7  8  1  0
  8  9  2  0
  8 35  1  0
  9 10  1  0
 10 11  1  0
 10 20  2  0
 11 12  2  0
 11 13  1  0
 13 14  1  0
 14 15  1  0
 15 16  1  0
 16 17  1  0
 17 18  1  0
 17 19  1  0
 20 21  1  0
 20 35  1  0
 21 22  2  0
 21 34  1  0
 22 23  1  0
 23 24  2  0
 24 25  1  0
 24 33  1  0
 25 26  1  0
 25 31  1  0
 26 27  1  0
 27 28  1  6
 27 29  1  0
 29 30  1  0
 30 31  1  0
 31 32  2  0
 33 34  2  0
M  END
