
     RDKit          3D

 35 34  0  0  0  0  0  0  0  0999 V2000
    2.6910   -4.7360    0.5220 C   0  0  0  0  0  0  0  0  0  0  0  0
    3.5170   -3.9810   -0.1790 C   0  0  0  0  0  0  0  0  0  0  0  0
    4.8800   -4.9710   -1.0020 P   0  0  0  0  0  0  0  0  0  0  0  0
    5.8020   -5.8150   -0.1140 O   0  0  0  0  0  0  0  0  0  0  0  0
    3.4270   -2.5510   -0.3320 C   0  0  0  0  0  0  0  0  0  0  0  0
    4.2830   -1.8670   -1.0420 C   0  0  0  0  0  0  0  0  0  0  0  0
    5.4270   -2.4360   -1.7680 C   0  0  0  0  0  0  0  0  0  0  0  0
    2.3560   -1.8050    0.3140 C   0  0  0  0  0  0  0  0  0  0  0  0
    1.5070   -2.4190    1.0090 O   0  0  0  0  0  0  0  0  0  0  0  0
    2.1760   -0.3740    0.2230 N   0  0  0  0  0  0  0  0  0  0  0  0
    1.0920    0.2620    0.8770 C   0  0  0  0  0  0  0  0  0  0  0  0
    1.3410    1.0040    1.9140 C   0  0  0  0  0  0  0  0  0  0  0  0
    2.6980    1.2170    2.4330 C   0  0  0  0  0  0  0  0  0  0  0  0
    2.9410    1.9690    3.4820 C   0  0  0  0  0  0  0  0  0  0  0  0
    4.2730    2.1950    4.0140 C   0  0  0  0  0  0  0  0  0  0  0  0
    4.5010    2.9130    5.0140 O   0  0  0  0  0  0  0  0  0  0  0  0
    5.3550    1.5890    3.3890 O   0  0  0  0  0  0  0  0  0  0  0  0
   -0.2800    0.1410    0.3680 C   0  0  0  0  0  0  0  0  0  0  0  0
   -0.4760   -0.6290   -0.6550 C   0  0  0  0  0  0  0  0  0  0  0  0
   -1.5540   -1.0670   -1.4560 C   0  0  0  0  0  0  0  0  0  0  0  0
   -1.0490   -1.8580   -2.4610 O   0  0  0  0  0  0  0  0  0  0  0  0
   -2.9220   -1.0010   -1.5900 N   0  0  0  0  0  0  0  0  0  0  0  0
   -3.4510   -1.8340   -2.7590 C   0  0  0  0  0  0  0  0  0  0  0  0
   -3.4700   -0.9350   -3.9650 C   0  0  0  0  0  0  0  0  0  0  0  0
   -3.9790   -0.3200   -0.9250 C   0  0  2  0  0  0  0  0  0  0  0  0
   -4.1570    1.1390   -1.3260 C   0  0  0  0  0  0  0  0  0  0  0  0
   -4.1370   -0.5740    0.4990 C   0  0  0  0  0  0  0  0  0  0  0  0
   -4.9630    0.0690    1.1930 O   0  0  0  0  0  0  0  0  0  0  0  0
   -3.3780   -1.5490    1.1680 O   0  0  0  0  0  0  0  0  0  0  0  0
   -3.5680   -1.7630    2.5560 C   0  0  0  0  0  0  0  0  0  0  0  0
   -1.2930    0.9740    0.9470 N   0  0  0  0  0  0  0  0  0  0  0  0
   -1.5500    2.2970    0.4560 C   0  0  0  0  0  0  0  0  0  0  0  0
   -0.4710    3.3220    0.7240 C   0  0  0  0  0  0  0  0  0  0  0  0
   -0.9030    4.6800    0.1280 C   0  0  0  0  0  0  0  0  0  0  0  0
   -1.1040    4.5340   -1.3480 C   0  0  0  0  0  0  0  0  0  0  0  0
  1  2  2  0
  2  3  1  0
  2  5  1  0
  3  4  2  0
  5  6  2  3
  5  8  1  0
  6  7  1  0
  8  9  2  0
  8 10  1  0
 10 11  1  0
 11 12  2  3
 11 18  1  0
 12 13  1  0
 13 14  2  3
 14 15  1  0
 15 16  2  0
 15 17  1  0
 18 19  2  3
 18 31  1  0
 19 20  1  0
 20 21  2  0
 20 22  1  0
 22 23  1  0
 22 25  1  0
 23 24  1  0
 25 26  1  1
 25 27  1  0
 27 28  2  0
 27 29  1  0
 29 30  1  0
 31 32  1  0
 32 33  1  0
 33 34  1  0
 34 35  1  0
M  END
