
     RDKit          3D

 34 36  0  0  0  0  0  0  0  0999 V2000
   -5.8600    3.2770   -0.3900 C   0  0  0  0  0  0  0  0  0  0  0  0
   -5.5070    1.8560   -0.9380 C   0  0  2  0  0  0  0  0  0  0  0  0
   -4.6310    2.0880   -2.1350 C   0  0  0  0  0  0  0  0  0  0  0  0
   -6.8440    1.2590   -1.3460 C   0  0  0  0  0  0  0  0  0  0  0  0
   -4.8490    1.0910    0.1190 C   0  0  0  0  0  0  0  0  0  0  0  0
   -4.6950   -0.2430    0.1990 C   0  0  0  0  0  0  0  0  0  0  0  0
   -5.1730   -1.1520   -0.7920 C   0  0  0  0  0  0  0  0  0  0  0  0
   -5.3130   -2.4430   -0.4660 C   0  0  0  0  0  0  0  0  0  0  0  0
   -4.9540   -2.8230    0.8330 N   0  0  0  0  0  0  0  0  0  0  0  0
   -4.4840   -2.1300    1.7670 C   0  0  0  0  0  0  0  0  0  0  0  0
   -4.2160   -0.6630    1.5450 C   0  0  1  0  0  0  0  0  0  0  0  0
   -2.8660   -0.3770    1.7910 N   0  0  0  0  0  0  0  0  0  0  0  0
   -1.8220   -1.2310    1.5440 C   0  0  2  0  0  0  0  0  0  0  0  0
   -0.6380   -0.4890    0.9700 C   0  0  0  0  0  0  0  0  0  0  0  0
   -0.8640    0.2990    0.0370 O   0  0  0  0  0  0  0  0  0  0  0  0
    0.6570   -0.7160    1.5030 N   0  0  0  0  0  0  0  0  0  0  0  0
    1.8230   -0.0900    1.0210 C   0  0  0  0  0  0  0  0  0  0  0  0
    2.9910   -0.4280    1.7260 C   0  0  0  0  0  0  0  0  0  0  0  0
    4.2080    0.0780    1.3790 C   0  0  0  0  0  0  0  0  0  0  0  0
    4.3430    0.9460    0.3170 C   0  0  0  0  0  0  0  0  0  0  0  0
    5.6730    1.4670   -0.0890 C   0  0  0  0  0  0  0  0  0  0  0  0
    6.4350    0.6570   -1.5260 P   0  0  0  0  0  0  0  0  0  0  0  0
    6.4140   -1.0050   -1.6440 O   0  0  0  0  0  0  0  0  0  0  0  0
    6.4980   -1.7880   -0.5370 C   0  0  0  0  0  0  0  0  0  0  0  0
    7.6430   -1.5910    0.2380 O   0  0  0  0  0  0  0  0  0  0  0  0
    8.0070    1.2790   -1.8430 O   0  0  0  0  0  0  0  0  0  0  0  0
    8.6050    1.7320   -0.7020 C   0  0  0  0  0  0  0  0  0  0  0  0
    7.9530    2.7690   -0.0810 O   0  0  0  0  0  0  0  0  0  0  0  0
    7.9090    3.8080   -0.9210 O   0  0  0  0  0  0  0  0  0  0  0  0
    3.1940    1.2600   -0.3550 C   0  0  0  0  0  0  0  0  0  0  0  0
    1.9360    0.7630   -0.0310 C   0  0  0  0  0  0  0  0  0  0  0  0
   -1.9960   -2.4640    0.7100 C   0  0  1  0  0  0  0  0  0  0  0  0
   -0.7650   -3.3430    0.5530 C   0  0  0  0  0  0  0  0  0  0  0  0
   -1.9490   -3.8050    1.3530 C   0  0  0  0  0  0  0  0  0  0  0  0
  2  1  1  1
  2  3  1  0
  2  4  1  0
  2  5  1  0
  5  6  2  3
  6  7  1  0
  6 11  1  0
  7  8  2  0
  8  9  1  0
  9 10  2  0
 10 11  1  0
 11 12  1  6
 13 12  1  6
 13 14  1  0
 13 32  1  0
 14 15  2  0
 14 16  1  0
 16 17  1  0
 17 18  2  0
 17 31  1  0
 18 19  1  0
 19 20  2  0
 20 21  1  0
 20 30  1  0
 21 22  1  0
 22 23  1  0
 22 26  1  0
 23 24  1  0
 24 25  1  0
 26 27  1  0
 27 28  1  0
 28 29  1  0
 30 31  2  0
 32 33  1  6
 32 34  1  0
 33 34  1  0
M  END
