
     RDKit          3D

 35 36  0  0  0  0  0  0  0  0999 V2000
   -4.0110   -3.5180   -1.2340 C   0  0  0  0  0  0  0  0  0  0  0  0
   -2.9900   -2.6260   -0.5860 C   0  0  0  0  0  0  0  0  0  0  0  0
   -3.1780   -1.3210   -1.0750 O   0  0  0  0  0  0  0  0  0  0  0  0
   -2.0350   -0.2510   -0.3080 P   0  0  0  0  0  0  0  0  0  0  0  0
   -0.2920   -0.7770   -0.7400 C   0  0  0  0  0  0  0  0  0  0  0  0
    0.6380    0.2450   -0.1370 C   0  0  0  0  0  0  0  0  0  0  0  0
    0.5370    0.2630    1.2600 O   0  0  0  0  0  0  0  0  0  0  0  0
    1.4280    1.2110    1.7870 C   0  0  0  0  0  0  0  0  0  0  0  0
    2.8250    0.8990    1.3040 C   0  0  0  0  0  0  0  0  0  0  0  0
    3.4910    1.7980    0.5820 C   0  0  0  0  0  0  0  0  0  0  0  0
    4.8330    1.2720    0.2220 C   0  0  0  0  0  0  0  0  0  0  0  0
    4.8510   -0.0920    0.8160 C   0  0  0  0  0  0  0  0  0  0  0  0
    5.8150   -0.9240    0.7250 N   0  0  0  0  0  0  0  0  0  0  0  0
    6.9790   -0.4980   -0.0150 C   0  0  0  0  0  0  0  0  0  0  0  0
    8.1080    0.0300    0.5900 C   0  0  0  0  0  0  0  0  0  0  0  0
    9.1810    0.4430   -0.1710 C   0  0  0  0  0  0  0  0  0  0  0  0
    9.1970    0.3580   -1.5550 C   0  0  0  0  0  0  0  0  0  0  0  0
   10.3560    0.8660   -2.3460 C   0  0  0  0  0  0  0  0  0  0  0  0
    8.0640   -0.1740   -2.1620 C   0  0  0  0  0  0  0  0  0  0  0  0
    7.0050   -0.5790   -1.3820 C   0  0  0  0  0  0  0  0  0  0  0  0
    3.6110   -0.2500    1.4660 N   0  0  0  0  0  0  0  0  0  0  0  0
   -2.2720    1.4130   -0.6190 O   0  0  0  0  0  0  0  0  0  0  0  0
   -3.3430    2.1540   -0.3280 C   0  0  0  0  0  0  0  0  0  0  0  0
   -4.0800    1.8650    0.7260 N   0  0  0  0  0  0  0  0  0  0  0  0
   -3.6900    0.7620    1.5080 C   0  0  0  0  0  0  0  0  0  0  0  0
   -4.4080   -0.3330    1.6380 C   0  0  0  0  0  0  0  0  0  0  0  0
   -5.7380   -0.4800    0.9280 C   0  0  0  0  0  0  0  0  0  0  0  0
   -6.3990   -1.5450    1.0420 C   0  0  0  0  0  0  0  0  0  0  0  0
   -6.5650   -2.8740    1.5650 C   0  0  1  0  0  0  0  0  0  0  0  0
   -5.6590   -3.0510    2.6470 O   0  0  0  0  0  0  0  0  0  0  0  0
   -7.8450   -2.9830    2.1890 O   0  0  0  0  0  0  0  0  0  0  0  0
   -6.0890    0.6080    0.2060 O   0  0  0  0  0  0  0  0  0  0  0  0
   -7.3150    1.0680   -0.2230 C   0  0  0  0  0  0  0  0  0  0  0  0
   -3.7900    3.2600   -1.0550 O   0  0  0  0  0  0  0  0  0  0  0  0
   -4.3020    4.4360   -0.4610 C   0  0  0  0  0  0  0  0  0  0  0  0
  1  2  1  0
  2  3  1  0
  3  4  1  0
  4  5  1  0
  4 22  1  0
  5  6  1  0
  6  7  1  0
  7  8  1  0
  8  9  1  0
  9 10  2  0
  9 21  1  0
 10 11  1  0
 11 12  1  0
 12 13  2  3
 12 21  1  0
 13 14  1  0
 14 15  2  0
 14 20  1  0
 15 16  1  0
 16 17  2  0
 17 18  1  0
 17 19  1  0
 19 20  2  0
 22 23  1  0
 23 24  2  3
 23 34  1  0
 24 25  1  0
 25 26  2  3
 26 27  1  0
 27 28  2  3
 27 32  1  0
 28 29  1  0
 29 30  1  1
 29 31  1  0
 32 33  1  0
 34 35  1  0
M  END
