
     RDKit          3D

 35 36  0  0  0  0  0  0  0  0999 V2000
   -5.6250   -4.7020   -1.5680 C   0  0  0  0  0  0  0  0  0  0  0  0
   -4.7210   -3.4390   -1.5010 C   0  0  0  0  0  0  0  0  0  0  0  0
   -5.4640   -2.3010   -2.1230 C   0  0  0  0  0  0  0  0  0  0  0  0
   -4.9080   -1.1190   -2.2710 O   0  0  0  0  0  0  0  0  0  0  0  0
   -4.3810   -0.3610   -1.3110 C   0  0  0  0  0  0  0  0  0  0  0  0
   -3.1010   -0.8530   -0.7540 C   0  0  0  0  0  0  0  0  0  0  0  0
   -2.4770   -0.0130    0.3270 C   0  0  1  0  0  0  0  0  0  0  0  0
   -3.2560    0.1990    1.5580 C   0  0  0  0  0  0  0  0  0  0  0  0
   -4.5140    0.8550    1.4580 N   0  0  0  0  0  0  0  0  0  0  0  0
   -4.6640    2.1660    0.9580 C   0  0  0  0  0  0  0  0  0  0  0  0
   -3.5940    2.7480    0.5930 O   0  0  0  0  0  0  0  0  0  0  0  0
   -5.9610    2.8510    0.8510 C   0  0  0  0  0  0  0  0  0  0  0  0
   -7.0930    2.2960    1.2140 C   0  0  0  0  0  0  0  0  0  0  0  0
   -8.3320    3.0850    1.0580 C   0  0  0  0  0  0  0  0  0  0  0  0
   -7.9810    4.4870    1.5580 C   0  0  0  0  0  0  0  0  0  0  0  0
   -7.0010    5.0230    0.7810 O   0  0  0  0  0  0  0  0  0  0  0  0
   -6.0190    4.2160    0.3080 C   0  0  0  0  0  0  0  0  0  0  0  0
   -1.2520   -0.7340    0.7120 N   0  0  0  0  0  0  0  0  0  0  0  0
    0.0330   -0.1920    0.4420 C   0  0  0  0  0  0  0  0  0  0  0  0
    0.0760    0.9140   -0.1310 O   0  0  0  0  0  0  0  0  0  0  0  0
    1.2100   -0.8800    0.8090 N   0  0  0  0  0  0  0  0  0  0  0  0
    2.5410   -0.4380    0.6010 C   0  0  0  0  0  0  0  0  0  0  0  0
    2.9260    0.8040    0.1900 C   0  0  0  0  0  0  0  0  0  0  0  0
    4.2490    1.1640   -0.0100 C   0  0  0  0  0  0  0  0  0  0  0  0
    5.2880    0.2480    0.2050 C   0  0  0  0  0  0  0  0  0  0  0  0
    6.5880    0.6200    0.0060 O   0  0  0  0  0  0  0  0  0  0  0  0
    7.7790   -0.0330    0.1060 C   0  0  0  0  0  0  0  0  0  0  0  0
    8.0100   -1.1820   -0.8300 C   0  0  0  0  0  0  0  0  0  0  0  0
    9.3650   -1.8130   -0.6050 C   0  0  0  0  0  0  0  0  0  0  0  0
   10.7880   -0.7060   -0.8700 P   0  0  0  0  0  0  0  0  0  0  0  0
   10.4240    0.8370   -1.4980 O   0  0  0  0  0  0  0  0  0  0  0  0
   11.6970   -0.5470    0.5880 O   0  0  0  0  0  0  0  0  0  0  0  0
   10.9730    0.1620    1.5290 C   0  0  0  0  0  0  0  0  0  0  0  0
    4.8980   -1.0020    0.6200 C   0  0  0  0  0  0  0  0  0  0  0  0
    3.5810   -1.3520    0.8150 C   0  0  0  0  0  0  0  0  0  0  0  0
  1  2  1  0
  2  3  1  0
  3  4  1  0
  4  5  1  0
  5  6  1  0
  7  6  1  6
  7  8  1  0
  7 18  1  0
  8  9  1  0
  9 10  1  0
 10 11  2  0
 10 12  1  0
 12 13  2  0
 12 17  1  0
 13 14  1  0
 14 15  1  0
 15 16  1  0
 16 17  1  0
 18 19  1  0
 19 20  2  0
 19 21  1  0
 21 22  1  0
 22 23  2  0
 22 35  1  0
 23 24  1  0
 24 25  2  0
 25 26  1  0
 25 34  1  0
 26 27  1  0
 27 28  1  0
 28 29  1  0
 29 30  1  0
 30 31  1  0
 30 32  1  0
 32 33  1  0
 34 35  2  0
M  END
