
     RDKit          3D

 35 34  0  0  0  0  0  0  0  0999 V2000
    7.6980   -1.8400   -2.0040 C   0  0  0  0  0  0  0  0  0  0  0  0
    7.3010   -0.4240   -1.6500 C   0  0  0  0  0  0  0  0  0  0  0  0
    5.8980   -0.3070   -2.0860 O   0  0  0  0  0  0  0  0  0  0  0  0
    5.1710    0.2050   -0.4840 P   0  0  0  0  0  0  0  0  0  0  0  0
    5.9550   -0.9860    0.6100 O   0  0  0  0  0  0  0  0  0  0  0  0
    6.5110   -0.2060    1.6260 C   0  0  0  0  0  0  0  0  0  0  0  0
    7.4250   -0.9570    2.5260 C   0  0  0  0  0  0  0  0  0  0  0  0
    3.4210    0.2240   -0.5090 C   0  0  2  0  0  0  0  0  0  0  0  0
    2.9400    1.5830   -0.6710 O   0  0  0  0  0  0  0  0  0  0  0  0
    2.5860   -0.5070    0.5150 C   0  0  0  0  0  0  0  0  0  0  0  0
    1.2430   -0.6550   -0.0590 N   0  0  0  0  0  0  0  0  0  0  0  0
    0.4680    0.4960   -0.1900 C   0  0  0  0  0  0  0  0  0  0  0  0
   -0.8200    0.2320   -1.0450 C   0  0  2  0  0  0  0  0  0  0  0  0
   -1.5250    1.5230   -1.1220 C   0  0  0  0  0  0  0  0  0  0  0  0
   -1.8800    2.1100    0.2000 C   0  0  1  0  0  0  0  0  0  0  0  0
   -2.5060    3.4450   -0.0380 N   0  0  0  0  0  0  0  0  0  0  0  0
   -1.6950    4.5920    0.2050 C   0  0  0  0  0  0  0  0  0  0  0  0
   -0.5310    4.4030    0.5760 O   0  0  0  0  0  0  0  0  0  0  0  0
   -2.3070    5.9190    0.0040 C   0  0  2  0  0  0  0  0  0  0  0  0
   -1.3340    6.8950    0.6590 C   0  0  0  0  0  0  0  0  0  0  0  0
   -3.6070    5.9860    0.8000 C   0  0  0  0  0  0  0  0  0  0  0  0
   -2.5890    6.3650   -1.3900 C   0  0  0  0  0  0  0  0  0  0  0  0
   -2.8470    1.4100    1.0380 C   0  0  0  0  0  0  0  0  0  0  0  0
   -4.1000    1.7500    0.9300 O   0  0  0  0  0  0  0  0  0  0  0  0
   -2.6220    0.4330    1.9490 O   0  0  0  0  0  0  0  0  0  0  0  0
   -1.4180   -1.0530   -0.9900 C   0  0  0  0  0  0  0  0  0  0  0  0
   -0.6030   -2.0560   -1.1790 O   0  0  0  0  0  0  0  0  0  0  0  0
   -2.7160   -1.4160   -0.7630 N   0  0  0  0  0  0  0  0  0  0  0  0
   -3.4500   -2.6150   -0.6790 C   0  0  0  0  0  0  0  0  0  0  0  0
   -3.0230   -3.7790    0.1290 C   0  0  1  0  0  0  0  0  0  0  0  0
   -1.8340   -4.4890   -0.4290 C   0  0  0  0  0  0  0  0  0  0  0  0
   -2.4800   -3.1700    1.5180 C   0  0  0  0  0  0  0  0  0  0  0  0
   -4.1340   -4.6320    0.5410 C   0  0  1  0  0  0  0  0  0  0  0  0
   -4.8880   -5.1480   -0.6800 C   0  0  0  0  0  0  0  0  0  0  0  0
   -3.6980   -5.8770    1.3160 C   0  0  0  0  0  0  0  0  0  0  0  0
  1  2  1  0
  2  3  1  0
  3  4  1  0
  4  5  1  0
  4  8  1  0
  5  6  1  0
  6  7  1  0
  8  9  1  1
  8 10  1  0
 10 11  1  0
 11 12  1  0
 13 12  1  1
 13 14  1  0
 13 26  1  0
 15 14  1  6
 15 16  1  0
 15 23  1  0
 16 17  1  0
 17 18  2  0
 17 19  1  0
 19 20  1  1
 19 21  1  0
 19 22  1  0
 23 24  2  0
 23 25  1  0
 26 27  2  0
 26 28  1  0
 28 29  1  0
 29 30  1  0
 30 31  1  6
 30 32  1  0
 30 33  1  0
 33 34  1  6
 33 35  1  0
M  END
