
     RDKit          3D

 26 29  0  0  0  0  0  0  0  0999 V2000
   -3.9560    3.8610    0.7830 O   0  0  0  0  0  0  0  0  0  0  0  0
   -3.2850    2.8130    0.9660 C   0  0  0  0  0  0  0  0  0  0  0  0
   -2.2370    2.3580   -0.0230 C   0  0  0  0  0  0  0  0  0  0  0  0
   -2.2790    0.8490    0.3160 C   0  0  1  0  0  0  0  0  0  0  0  0
   -1.1350    0.2290   -0.3910 C   0  0  1  0  0  0  0  0  0  0  0  0
    0.0440    0.7880    0.0560 O   0  0  0  0  0  0  0  0  0  0  0  0
   -1.1010   -1.2430   -0.5400 C   0  0  2  0  0  0  0  0  0  0  0  0
    0.1520   -1.6280   -1.2990 C   0  0  2  0  0  0  0  0  0  0  0  0
    0.2320   -3.0170   -1.4660 O   0  0  0  0  0  0  0  0  0  0  0  0
    1.4130   -1.1950   -0.7040 C   0  0  0  0  0  0  0  0  0  0  0  0
    2.0810   -1.7330    0.3770 C   0  0  0  0  0  0  0  0  0  0  0  0
    3.2240   -0.9980    0.5720 C   0  0  0  0  0  0  0  0  0  0  0  0
    3.2240   -0.0290   -0.3980 C   0  0  0  0  0  0  0  0  0  0  0  0
    4.2790    0.9800   -0.5490 C   0  0  0  0  0  0  0  0  0  0  0  0
    4.2980    1.9270   -1.4810 C   0  0  0  0  0  0  0  0  0  0  0  0
    5.5160    2.7250   -1.2890 C   0  0  0  0  0  0  0  0  0  0  0  0
    5.9990    4.1070   -2.2870 S   0  0  0  0  0  0  0  0  0  0  0  0
    6.1050    2.1800   -0.2580 C   0  0  0  0  0  0  0  0  0  0  0  0
    5.4770    1.1410    0.2630 C   0  0  0  0  0  0  0  0  0  0  0  0
    2.1610   -0.1780   -1.1130 O   0  0  0  0  0  0  0  0  0  0  0  0
   -2.2750   -1.7030   -1.3920 C   0  0  0  0  0  0  0  0  0  0  0  0
   -3.1700   -2.5350   -0.5350 C   0  0  0  0  0  0  0  0  0  0  0  0
   -2.5920   -2.5580    0.8530 C   0  0  0  0  0  0  0  0  0  0  0  0
   -1.1730   -2.0510    0.7170 C   0  0  0  0  0  0  0  0  0  0  0  0
   -2.2080    0.9710    1.7920 C   0  0  0  0  0  0  0  0  0  0  0  0
   -3.3400    1.8860    2.0420 N   0  0  0  0  0  0  0  0  0  0  0  0
  1  2  2  0
  2  3  1  0
  2 26  1  0
  4  3  1  6
  4  5  1  0
  4 25  1  0
  5  6  1  1
  5  7  1  0
  7  8  1  0
  7 21  1  6
  7 24  1  0
  8  9  1  1
  8 10  1  0
 10 11  2  0
 10 20  1  0
 11 12  1  0
 12 13  2  0
 13 14  1  0
 13 20  1  0
 14 15  2  0
 14 19  1  0
 15 16  1  0
 16 17  1  0
 16 18  2  0
 18 19  2  0
 21 22  1  0
 22 23  1  0
 23 24  1  0
 25 26  1  0
M  END
