
     RDKit          3D

 26 28  0  0  0  0  0  0  0  0999 V2000
   -3.9970    1.8750    2.2220 C   0  0  0  0  0  0  0  0  0  0  0  0
   -4.5550    1.2600    0.9660 C   0  0  0  0  0  0  0  0  0  0  0  0
   -5.6630    1.8030    0.4710 C   0  0  0  0  0  0  0  0  0  0  0  0
   -6.2010    1.2670   -0.6750 O   0  0  0  0  0  0  0  0  0  0  0  0
   -5.6750    0.1850   -1.3510 C   0  0  0  0  0  0  0  0  0  0  0  0
   -4.4400   -0.3760   -0.7500 C   0  0  0  0  0  0  0  0  0  0  0  0
   -3.9020    0.1280    0.3490 C   0  0  0  0  0  0  0  0  0  0  0  0
   -2.6410   -0.5000    0.9180 C   0  0  2  0  0  0  0  0  0  0  0  0
   -1.5010    0.1440    0.2790 C   0  0  0  0  0  0  0  0  0  0  0  0
   -0.1170   -0.2640    0.6310 C   0  0  2  0  0  0  0  0  0  0  0  0
    0.1900   -1.7060    0.3050 C   0  0  0  0  0  0  0  0  0  0  0  0
    0.1190   -0.0190    2.0120 O   0  0  0  0  0  0  0  0  0  0  0  0
    0.8680    0.6560   -0.0770 C   0  0  0  0  0  0  0  0  0  0  0  0
    2.2610    0.3450    0.2280 C   0  0  0  0  0  0  0  0  0  0  0  0
    2.5840   -0.5500    1.0580 O   0  0  0  0  0  0  0  0  0  0  0  0
    3.3670    1.0200   -0.3790 N   0  0  0  0  0  0  0  0  0  0  0  0
    4.7280    0.7310   -0.0950 C   0  0  2  0  0  0  0  0  0  0  0  0
    5.6290    1.6380   -0.9120 C   0  0  0  0  0  0  0  0  0  0  0  0
    5.3850    1.4240   -2.2610 O   0  0  0  0  0  0  0  0  0  0  0  0
    5.0930   -0.7110   -0.3420 C   0  0  0  0  0  0  0  0  0  0  0  0
    6.5940   -0.7750   -0.1600 C   0  0  0  0  0  0  0  0  0  0  0  0
    6.7800    0.2370    1.3630 S   0  0  0  0  0  0  0  0  0  0  0  0
    5.1020    0.9940    1.3710 C   0  0  0  0  0  0  0  0  0  0  0  0
   -2.8120   -1.9690    0.8970 C   0  0  0  0  0  0  0  0  0  0  0  0
   -3.3660   -2.5260   -0.3850 C   0  0  0  0  0  0  0  0  0  0  0  0
   -3.7880   -1.5270   -1.4030 C   0  0  0  0  0  0  0  0  0  0  0  0
  1  2  1  0
  2  3  2  0
  2  7  1  0
  3  4  1  0
  4  5  1  0
  5  6  1  0
  6  7  2  0
  6 26  1  0
  7  8  1  0
  8  9  1  6
  8 24  1  0
  9 10  1  0
 10 11  1  1
 10 12  1  0
 10 13  1  0
 13 14  1  0
 14 15  2  0
 14 16  1  0
 16 17  1  0
 17 18  1  6
 17 20  1  0
 17 23  1  0
 18 19  1  0
 20 21  1  0
 21 22  1  0
 22 23  1  0
 24 25  1  0
 25 26  1  0
M  END
