
     RDKit          3D

 25 28  0  0  0  0  0  0  0  0999 V2000
    3.2560    1.5990   -0.8560 C   0  0  0  0  0  0  0  0  0  0  0  0
    3.7890    0.7320    0.2700 C   0  0  0  0  0  0  0  0  0  0  0  0
    3.0210   -0.0050    0.9940 C   0  0  0  0  0  0  0  0  0  0  0  0
    1.5860   -0.2770    1.0430 C   0  0  0  0  0  0  0  0  0  0  0  0
    1.1560   -1.1070    1.9400 O   0  0  0  0  0  0  0  0  0  0  0  0
    0.5770    0.2450    0.2350 N   0  0  0  0  0  0  0  0  0  0  0  0
   -0.8460   -0.1360    0.4150 C   0  0  1  0  0  0  0  0  0  0  0  0
   -1.5920    1.0830    0.7890 C   0  0  0  0  0  0  0  0  0  0  0  0
   -2.7480    1.4120   -0.1180 C   0  0  0  0  0  0  0  0  0  0  0  0
   -3.5950    0.1830   -0.2760 C   0  0  1  0  0  0  0  0  0  0  0  0
   -4.0610   -0.3820    1.0460 C   0  0  0  0  0  0  0  0  0  0  0  0
   -5.0440    0.6010    1.6490 C   0  0  0  0  0  0  0  0  0  0  0  0
   -6.2180    0.6490    0.9200 O   0  0  0  0  0  0  0  0  0  0  0  0
   -6.1130    0.1760   -0.3640 C   0  0  0  0  0  0  0  0  0  0  0  0
   -4.8400    0.5350   -1.0640 C   0  0  0  0  0  0  0  0  0  0  0  0
   -2.7950   -0.8020   -1.0720 C   0  0  2  0  0  0  0  0  0  0  0  0
   -3.3680   -2.2140   -0.9470 C   0  0  0  0  0  0  0  0  0  0  0  0
   -1.3490   -0.8470   -0.8070 C   0  0  1  0  0  0  0  0  0  0  0  0
   -0.6750   -0.2460   -1.8980 O   0  0  0  0  0  0  0  0  0  0  0  0
    4.1410   -0.8340    2.1860 S   0  0  0  0  0  0  0  0  0  0  0  0
    5.6620   -0.4070    1.3320 C   0  0  1  0  0  0  0  0  0  0  0  0
    6.1450   -1.4640    0.3730 C   0  0  0  0  0  0  0  0  0  0  0  0
    6.9160   -0.5750   -0.6120 C   0  0  0  0  0  0  0  0  0  0  0  0
    5.9700    0.5810   -0.7830 C   0  0  0  0  0  0  0  0  0  0  0  0
    5.2250    0.7480    0.5250 C   0  0  1  0  0  0  0  0  0  0  0  0
  1  2  1  0
  2  3  2  0
  2 25  1  0
  3  4  1  0
  3 20  1  0
  4  5  2  0
  4  6  1  0
  7  6  1  6
  7  8  1  0
  7 18  1  0
  8  9  1  0
 10  9  1  1
 10 11  1  0
 10 15  1  0
 10 16  1  0
 11 12  1  0
 12 13  1  0
 13 14  1  0
 14 15  1  0
 16 17  1  1
 16 18  1  0
 18 19  1  6
 20 21  1  0
 21 22  1  6
 21 25  1  0
 22 23  1  0
 23 24  1  0
 25 24  1  6
M  END
