
     RDKit          3D

 26 29  0  0  0  0  0  0  0  0999 V2000
    1.0960    2.9590   -1.1290 C   0  0  0  0  0  0  0  0  0  0  0  0
    0.7600    1.6720   -0.6750 O   0  0  0  0  0  0  0  0  0  0  0  0
    1.7480    0.7270   -0.4760 C   0  0  0  0  0  0  0  0  0  0  0  0
    3.0500    1.0060   -0.6970 C   0  0  0  0  0  0  0  0  0  0  0  0
    4.0570    0.0830   -0.5240 C   0  0  0  0  0  0  0  0  0  0  0  0
    5.4900    0.4750   -0.7300 C   0  0  0  0  0  0  0  0  0  0  0  0
    5.7640    1.6760    0.7200 S   0  0  0  0  0  0  0  0  0  0  0  0
    3.7150   -1.1700   -0.1140 C   0  0  0  0  0  0  0  0  0  0  0  0
    4.6810   -2.1290    0.0630 O   0  0  0  0  0  0  0  0  0  0  0  0
    2.3460   -1.4650    0.1280 C   0  0  0  0  0  0  0  0  0  0  0  0
    1.3530   -0.5540   -0.0330 C   0  0  0  0  0  0  0  0  0  0  0  0
   -0.0180   -0.6900    0.4290 C   0  0  0  0  0  0  0  0  0  0  0  0
   -1.1130   -1.0480   -0.4190 C   0  0  1  0  0  0  0  0  0  0  0  0
   -0.9500   -2.4580   -0.9040 C   0  0  0  0  0  0  0  0  0  0  0  0
   -0.9720   -3.3820    0.2950 C   0  0  0  0  0  0  0  0  0  0  0  0
   -1.8110   -3.0080    1.4520 C   0  0  0  0  0  0  0  0  0  0  0  0
   -2.1890   -1.5900    1.6560 C   0  0  0  0  0  0  0  0  0  0  0  0
   -2.4680   -1.0230    0.3200 C   0  0  1  0  0  0  0  0  0  0  0  0
   -3.0240    0.2910    0.1970 C   0  0  1  0  0  0  0  0  0  0  0  0
   -2.8870    1.3510    1.1910 C   0  0  0  0  0  0  0  0  0  0  0  0
   -3.3030    2.5780    0.3500 C   0  0  1  0  0  0  0  0  0  0  0  0
   -2.5970    3.7170    0.7330 O   0  0  0  0  0  0  0  0  0  0  0  0
   -2.9540    2.1950   -1.0770 C   0  0  0  0  0  0  0  0  0  0  0  0
   -2.3740    0.8530   -0.9720 N   0  0  0  0  0  0  0  0  0  0  0  0
   -1.4650   -0.1190   -1.5220 C   0  0  0  0  0  0  0  0  0  0  0  0
   -1.0810   -0.1250   -2.7150 O   0  0  0  0  0  0  0  0  0  0  0  0
  1  2  1  0
  2  3  1  0
  3  4  2  0
  3 11  1  0
  4  5  1  0
  5  6  1  0
  5  8  2  0
  6  7  1  0
  8  9  1  0
  8 10  1  0
 10 11  2  0
 11 12  1  0
 13 12  1  1
 13 14  1  0
 13 18  1  0
 13 25  1  0
 14 15  1  0
 15 16  1  0
 16 17  1  0
 18 17  1  1
 18 19  1  0
 19 20  1  1
 19 24  1  0
 20 21  1  0
 21 22  1  1
 21 23  1  0
 23 24  1  0
 24 25  1  0
 25 26  2  0
M  END
