
     RDKit          3D

 26 28  0  0  0  0  0  0  0  0999 V2000
    5.6160    2.1160    0.7000 C   0  0  0  0  0  0  0  0  0  0  0  0
    6.0010    0.7410    1.1860 C   0  0  0  0  0  0  0  0  0  0  0  0
    4.8340   -0.0830    1.0840 O   0  0  0  0  0  0  0  0  0  0  0  0
    4.2950   -0.2310   -0.1770 C   0  0  0  0  0  0  0  0  0  0  0  0
    4.7670    0.3090   -1.2070 O   0  0  0  0  0  0  0  0  0  0  0  0
    3.1090   -1.0600   -0.3270 C   0  0  0  0  0  0  0  0  0  0  0  0
    2.9980   -2.4120   -0.5800 C   0  0  0  0  0  0  0  0  0  0  0  0
    4.1660   -3.3060   -0.7510 C   0  0  0  0  0  0  0  0  0  0  0  0
    1.7050   -2.7020   -0.6320 N   0  0  0  0  0  0  0  0  0  0  0  0
    0.9410   -1.5920   -0.4220 C   0  0  0  0  0  0  0  0  0  0  0  0
    1.8140   -0.5590   -0.2290 C   0  0  0  0  0  0  0  0  0  0  0  0
    1.2620    0.7610    0.0280 C   0  0  0  0  0  0  0  0  0  0  0  0
    1.8840    1.7850   -0.3250 O   0  0  0  0  0  0  0  0  0  0  0  0
   -0.0380    0.8960    0.7090 C   0  0  0  0  0  0  0  0  0  0  0  0
   -0.9470   -0.2640    0.5180 C   0  0  1  0  0  0  0  0  0  0  0  0
   -1.1950   -0.8990    1.8950 C   0  0  0  0  0  0  0  0  0  0  0  0
   -2.2850    0.3280    0.0480 C   0  0  1  0  0  0  0  0  0  0  0  0
   -2.6660    1.2310    1.0380 O   0  0  0  0  0  0  0  0  0  0  0  0
   -2.1240    1.0340   -1.2450 C   0  0  0  0  0  0  0  0  0  0  0  0
   -3.1250    2.1530   -1.4410 C   0  0  2  0  0  0  0  0  0  0  0  0
   -2.8450    3.3670   -0.6180 C   0  0  0  0  0  0  0  0  0  0  0  0
   -4.7390    1.4720   -0.9010 S   0  0  0  0  0  0  0  0  0  0  0  0
   -4.5370   -0.3290   -0.8290 C   0  0  2  0  0  0  0  0  0  0  0  0
   -5.7840   -0.9050   -0.1930 C   0  0  0  0  0  0  0  0  0  0  0  0
   -3.3630   -0.7290    0.0250 C   0  0  0  0  0  0  0  0  0  0  0  0
   -0.5070   -1.3470   -0.3850 C   0  0  0  0  0  0  0  0  0  0  0  0
  1  2  1  0
  2  3  1  0
  3  4  1  0
  4  5  2  0
  4  6  1  0
  6  7  2  0
  6 11  1  0
  7  8  1  0
  7  9  1  0
  9 10  1  0
 10 11  2  0
 10 26  1  0
 11 12  1  0
 12 13  2  0
 12 14  1  0
 14 15  1  0
 15 16  1  1
 15 17  1  0
 15 26  1  0
 17 18  1  1
 17 19  1  0
 17 25  1  0
 19 20  1  0
 20 21  1  1
 20 22  1  0
 22 23  1  0
 23 24  1  1
 23 25  1  0
M  END
