
     RDKit          3D

 26 29  0  0  0  0  0  0  0  0999 V2000
    4.6200   -1.1980   -1.8780 C   0  0  0  0  0  0  0  0  0  0  0  0
    5.2150   -1.6360   -0.5810 C   0  0  1  0  0  0  0  0  0  0  0  0
    6.1370   -0.5560   -0.0120 C   0  0  0  0  0  0  0  0  0  0  0  0
    5.3990    0.7270    0.1700 C   0  0  0  0  0  0  0  0  0  0  0  0
    4.0080    0.5320    0.6490 C   0  0  0  0  0  0  0  0  0  0  0  0
    3.2580    1.6660    0.9590 C   0  0  0  0  0  0  0  0  0  0  0  0
    1.9590    1.5680    1.4100 C   0  0  0  0  0  0  0  0  0  0  0  0
    1.2040    2.7060    1.7210 O   0  0  0  0  0  0  0  0  0  0  0  0
    1.3720    0.3300    1.5630 C   0  0  0  0  0  0  0  0  0  0  0  0
   -0.2860    0.1650    2.1370 S   0  0  1  0  0  0  0  0  0  0  0  0
   -0.6470   -1.2830    2.1460 O   0  0  0  0  0  0  0  0  0  0  0  0
   -0.3820    0.7400    3.5180 O   0  0  0  0  0  0  0  0  0  0  0  0
   -1.3820    0.9670    1.0690 N   0  0  0  0  0  0  0  0  0  0  0  0
   -1.3600    0.4140   -0.2500 C   0  0  0  0  0  0  0  0  0  0  0  0
   -2.7870    0.3810   -0.7560 C   0  0  1  0  0  0  0  0  0  0  0  0
   -3.2560   -1.0210   -1.0350 C   0  0  0  0  0  0  0  0  0  0  0  0
   -4.7070   -0.8900   -1.4580 C   0  0  2  0  0  0  0  0  0  0  0  0
   -4.8500    0.0150   -2.6630 C   0  0  0  0  0  0  0  0  0  0  0  0
   -5.4960   -0.4450   -0.2790 C   0  0  0  0  0  0  0  0  0  0  0  0
   -4.9630    0.7010    0.4760 C   0  0  0  0  0  0  0  0  0  0  0  0
   -3.5510    1.0560    0.3170 C   0  0  2  0  0  0  0  0  0  0  0  0
   -3.3830    2.4510    0.1470 O   0  0  0  0  0  0  0  0  0  0  0  0
   -2.7230    0.7160    1.5640 C   0  0  0  0  0  0  0  0  0  0  0  0
    2.1200   -0.7880    1.2550 C   0  0  0  0  0  0  0  0  0  0  0  0
    3.4300   -0.7110    0.7990 C   0  0  0  0  0  0  0  0  0  0  0  0
    4.2080   -1.9480    0.4760 C   0  0  0  0  0  0  0  0  0  0  0  0
  2  1  1  6
  2  3  1  0
  2 26  1  0
  3  4  1  0
  4  5  1  0
  5  6  2  0
  5 25  1  0
  6  7  1  0
  7  8  1  0
  7  9  2  0
  9 10  1  0
  9 24  1  0
 10 11  2  0
 10 12  2  0
 10 13  1  6
 13 14  1  0
 13 23  1  0
 15 14  1  1
 15 16  1  0
 15 21  1  0
 16 17  1  0
 17 18  1  6
 17 19  1  0
 19 20  1  0
 20 21  1  0
 21 22  1  6
 21 23  1  0
 24 25  2  0
 25 26  1  0
M  END
