
     RDKit          3D

 26 29  0  0  0  0  0  0  0  0999 V2000
    0.7500   -3.1220   -0.0900 C   0  0  0  0  0  0  0  0  0  0  0  0
   -0.5170   -2.7570    0.5640 C   0  0  0  0  0  0  0  0  0  0  0  0
   -1.0520   -3.7290    1.4100 C   0  0  0  0  0  0  0  0  0  0  0  0
   -2.3040   -3.6010    1.9520 C   0  0  0  0  0  0  0  0  0  0  0  0
   -3.0160   -2.4850    1.6290 C   0  0  0  0  0  0  0  0  0  0  0  0
   -2.4700   -1.5280    0.7860 C   0  0  0  0  0  0  0  0  0  0  0  0
   -1.1870   -1.6140    0.2190 C   0  0  0  0  0  0  0  0  0  0  0  0
   -0.6380   -0.4960   -0.6170 C   0  0  2  0  0  0  0  0  0  0  0  0
    0.5520    0.2420   -0.2180 C   0  0  0  0  0  0  0  0  0  0  0  0
    1.9990    0.0190   -0.1090 C   0  0  0  0  0  0  0  0  0  0  0  0
    2.6500   -0.9960   -0.3290 O   0  0  0  0  0  0  0  0  0  0  0  0
    2.8670    1.0890    0.3080 O   0  0  0  0  0  0  0  0  0  0  0  0
    4.2360    0.9100    0.4210 C   0  0  2  0  0  0  0  0  0  0  0  0
    4.7570    1.1280    1.8270 C   0  0  0  0  0  0  0  0  0  0  0  0
    5.0210    1.8070   -0.4680 C   0  0  0  0  0  0  0  0  0  0  0  0
    6.4280    1.7110   -0.4370 N   0  0  0  0  0  0  0  0  0  0  0  0
    4.4900    2.6420   -1.2430 O   0  0  0  0  0  0  0  0  0  0  0  0
    0.1420    1.5220    0.0540 C   0  0  0  0  0  0  0  0  0  0  0  0
   -1.2690    1.6590   -0.1600 C   0  0  0  0  0  0  0  0  0  0  0  0
   -1.7040    0.5330   -0.5360 C   0  0  0  0  0  0  0  0  0  0  0  0
   -3.1050    0.1910   -0.7590 C   0  0  1  0  0  0  0  0  0  0  0  0
   -3.3700   -0.4590    0.5420 O   0  0  0  0  0  0  0  0  0  0  0  0
   -4.0550    1.2930   -0.9870 C   0  0  2  0  0  0  0  0  0  0  0  0
   -3.7360    2.0530   -2.2840 C   0  0  0  0  0  0  0  0  0  0  0  0
   -4.0460    2.2800    0.1440 C   0  0  0  0  0  0  0  0  0  0  0  0
   -2.3870    3.0930    0.0540 S   0  0  0  0  0  0  0  0  0  0  0  0
  1  2  1  0
  2  3  2  0
  2  7  1  0
  3  4  1  0
  4  5  2  0
  5  6  1  0
  6  7  2  0
  6 22  1  0
  7  8  1  0
  8  9  1  1
  8 20  1  0
  9 10  1  0
  9 18  2  0
 10 11  2  0
 10 12  1  0
 12 13  1  0
 13 14  1  1
 13 15  1  0
 15 16  1  0
 15 17  2  0
 18 19  1  0
 19 20  2  0
 19 26  1  0
 20 21  1  0
 21 22  1  1
 21 23  1  0
 23 24  1  6
 23 25  1  0
 25 26  1  0
M  END
