
     RDKit          3D

 13 12  0  0  0  0  0  0  0  0999 V2000
   -4.0490    1.2920   -0.5070 C   0  0  0  0  0  0  0  0  0  0  0  0
   -4.0160    0.1230    0.4320 C   0  0  0  0  0  0  0  0  0  0  0  0
   -2.5890   -0.2930    0.7030 C   0  0  0  0  0  0  0  0  0  0  0  0
   -1.9310   -0.6830   -0.5870 C   0  0  2  0  0  0  0  0  0  0  0  0
   -2.5500   -1.7280   -1.2250 O   0  0  0  0  0  0  0  0  0  0  0  0
   -0.4510   -0.9890   -0.3230 C   0  0  0  0  0  0  0  0  0  0  0  0
    0.0990    0.1500    0.3390 N   0  0  0  0  0  0  0  0  0  0  0  0
    1.7420    0.0310    0.7310 S   0  0  2  0  0  0  0  0  0  0  0  0
    1.9420   -1.1510    1.6510 O   0  0  0  0  0  0  0  0  0  0  0  0
    2.1330    1.2510    1.5240 O   0  0  0  0  0  0  0  0  0  0  0  0
    2.7380   -0.1550   -0.7130 C   0  0  0  0  0  0  0  0  0  0  0  0
    4.2020   -0.2620   -0.3750 C   0  0  0  0  0  0  0  0  0  0  0  0
    4.7320    0.9430    0.3490 C   0  0  0  0  0  0  0  0  0  0  0  0
  1  2  1  0
  2  3  1  0
  3  4  1  0
  4  5  1  1
  4  6  1  0
  6  7  1  0
  7  8  1  0
  8  9  2  0
  8 10  2  0
  8 11  1  6
 11 12  1  0
 12 13  1  0
M  END
