
     RDKit          3D

 13 12  0  0  0  0  0  0  0  0999 V2000
   -3.2630    1.6570    0.2880 C   0  0  0  0  0  0  0  0  0  0  0  0
   -3.0850    0.3080   -0.2990 C   0  0  0  0  0  0  0  0  0  0  0  0
   -2.1030   -0.4650    0.1840 C   0  0  0  0  0  0  0  0  0  0  0  0
   -1.9140   -1.8260   -0.3970 C   0  0  0  0  0  0  0  0  0  0  0  0
   -2.8270   -2.0980   -1.3980 O   0  0  0  0  0  0  0  0  0  0  0  0
   -1.0760    0.1010    1.4520 S   0  0  2  0  0  0  0  0  0  0  0  0
   -0.5490   -1.1310    2.1840 O   0  0  0  0  0  0  0  0  0  0  0  0
   -1.8470    0.9240    2.4670 O   0  0  0  0  0  0  0  0  0  0  0  0
    0.2860    0.9830    0.9400 N   0  0  0  0  0  0  0  0  0  0  0  0
    1.1450    0.1730    0.1100 C   0  0  0  0  0  0  0  0  0  0  0  0
    2.3150    1.0570   -0.2750 C   0  0  0  0  0  0  0  0  0  0  0  0
    3.3060    0.3350   -1.1520 C   0  0  0  0  0  0  0  0  0  0  0  0
    3.8940   -0.8750   -0.4990 C   0  0  0  0  0  0  0  0  0  0  0  0
  1  2  1  0
  2  3  2  3
  3  4  1  0
  3  6  1  0
  4  5  1  0
  6  7  2  0
  6  8  2  0
  6  9  1  6
  9 10  1  0
 10 11  1  0
 11 12  1  0
 12 13  1  0
M  END
