
     RDKit          3D

 13 12  0  0  0  0  0  0  0  0999 V2000
   -4.0570   -1.1320    1.4830 C   0  0  0  0  0  0  0  0  0  0  0  0
   -2.7460   -0.9550    0.8370 C   0  0  0  0  0  0  0  0  0  0  0  0
   -2.5060   -0.0220   -0.0680 C   0  0  0  0  0  0  0  0  0  0  0  0
   -3.6250    0.8800   -0.4350 C   0  0  0  0  0  0  0  0  0  0  0  0
   -3.1850    2.5990   -0.0680 S   0  0  0  0  0  0  0  0  0  0  0  0
   -1.2850    0.1630   -0.6890 O   0  0  0  0  0  0  0  0  0  0  0  0
   -0.1020   -0.1750   -0.0370 C   0  0  0  0  0  0  0  0  0  0  0  0
    1.1050    0.0970   -0.8620 C   0  0  0  0  0  0  0  0  0  0  0  0
    0.9650    0.5820   -2.0140 O   0  0  0  0  0  0  0  0  0  0  0  0
    2.4190   -0.1660   -0.4110 N   0  0  0  0  0  0  0  0  0  0  0  0
    3.6010    0.0910   -1.1960 C   0  0  0  0  0  0  0  0  0  0  0  0
    4.8200   -0.3190   -0.3760 C   0  0  0  0  0  0  0  0  0  0  0  0
    4.8740    0.4050    0.7900 O   0  0  0  0  0  0  0  0  0  0  0  0
  1  2  1  0
  2  3  2  3
  3  4  1  0
  3  6  1  0
  4  5  1  0
  6  7  1  0
  7  8  1  0
  8  9  2  0
  8 10  1  0
 10 11  1  0
 11 12  1  0
 12 13  1  0
M  END
