
     RDKit          3D

 13 12  0  0  0  0  0  0  0  0999 V2000
    4.7110    1.4100   -0.2830 C   0  0  0  0  0  0  0  0  0  0  0  0
    3.5070    0.7730    0.3940 C   0  0  0  0  0  0  0  0  0  0  0  0
    2.6430   -0.1630   -0.8310 S   0  0  1  0  0  0  0  0  0  0  0  0
    2.2140    0.7080   -1.9520 O   0  0  0  0  0  0  0  0  0  0  0  0
    3.5550   -1.2280   -1.3440 O   0  0  0  0  0  0  0  0  0  0  0  0
    1.2470   -0.9340   -0.1660 N   0  0  0  0  0  0  0  0  0  0  0  0
    0.3140    0.0880    0.3410 C   0  0  0  0  0  0  0  0  0  0  0  0
   -0.8640   -0.7000    0.8970 C   0  0  0  0  0  0  0  0  0  0  0  0
   -1.5440   -1.5250   -0.1240 C   0  0  0  0  0  0  0  0  0  0  0  0
   -2.2050   -0.8700   -1.2680 C   0  0  0  0  0  0  0  0  0  0  0  0
   -3.3920   -0.0070   -0.9860 C   0  0  2  0  0  0  0  0  0  0  0  0
   -3.1450    1.1430   -0.1010 C   0  0  0  0  0  0  0  0  0  0  0  0
   -4.4630   -0.7890   -0.5000 O   0  0  0  0  0  0  0  0  0  0  0  0
  1  2  1  0
  3  2  1  1
  3  4  2  0
  3  5  2  0
  3  6  1  0
  6  7  1  0
  7  8  1  0
  8  9  1  0
  9 10  1  0
 10 11  1  0
 11 12  1  1
 11 13  1  0
M  END
