
     RDKit          3D

 13 12  0  0  0  0  0  0  0  0999 V2000
   -4.0040    1.3040   -0.6240 C   0  0  0  0  0  0  0  0  0  0  0  0
   -3.8150   -0.1650   -0.8900 C   0  0  0  0  0  0  0  0  0  0  0  0
   -2.4570   -0.6620   -0.4620 C   0  0  0  0  0  0  0  0  0  0  0  0
   -2.2090   -0.4690    1.0060 C   0  0  0  0  0  0  0  0  0  0  0  0
   -0.8640   -0.9670    1.4130 C   0  0  0  0  0  0  0  0  0  0  0  0
    0.2740   -0.2940    0.7200 C   0  0  0  0  0  0  0  0  0  0  0  0
    1.5820   -0.8770    1.2130 C   0  0  0  0  0  0  0  0  0  0  0  0
    2.7640   -0.2110    0.5250 C   0  0  0  0  0  0  0  0  0  0  0  0
    2.7000   -0.3960   -0.8640 O   0  0  0  0  0  0  0  0  0  0  0  0
    4.0420    0.3730   -1.5200 S   0  0  1  0  0  0  0  0  0  0  0  0
    4.4360    1.7260   -0.5040 N   0  0  0  0  0  0  0  0  0  0  0  0
    5.2130   -0.5800   -1.4320 O   0  0  0  0  0  0  0  0  0  0  0  0
    3.8190    0.8000   -2.9300 O   0  0  0  0  0  0  0  0  0  0  0  0
  1  2  1  0
  2  3  1  0
  3  4  1  0
  4  5  1  0
  5  6  1  0
  6  7  1  0
  7  8  1  0
  8  9  1  0
  9 10  1  0
 10 11  1  1
 10 12  2  0
 10 13  2  0
M  END
