
     RDKit          3D

 20 22  0  0  0  0  0  0  0  0999 V2000
   -4.1450    2.3000    1.7130 C   0  0  0  0  0  0  0  0  0  0  0  0
   -3.3290    1.3910    0.8380 C   0  0  0  0  0  0  0  0  0  0  0  0
   -3.7350    0.6870   -0.2610 C   0  0  0  0  0  0  0  0  0  0  0  0
   -2.6260   -0.0330   -0.7640 C   0  0  0  0  0  0  0  0  0  0  0  0
   -2.7220   -0.9900   -1.8320 C   0  0  0  0  0  0  0  0  0  0  0  0
   -1.8410   -1.7940   -2.1320 O   0  0  0  0  0  0  0  0  0  0  0  0
   -3.8890   -1.0580   -2.6280 O   0  0  0  0  0  0  0  0  0  0  0  0
   -1.5830    0.2590    0.0380 C   0  0  0  0  0  0  0  0  0  0  0  0
   -0.1500   -0.0140   -0.0340 C   0  0  0  0  0  0  0  0  0  0  0  0
    0.4470   -0.2340   -1.1800 C   0  0  0  0  0  0  0  0  0  0  0  0
    1.8530   -0.5360   -1.5180 C   0  0  0  0  0  0  0  0  0  0  0  0
    2.8970   -0.6740   -0.7170 C   0  0  0  0  0  0  0  0  0  0  0  0
    4.0860   -0.9600   -1.3720 O   0  0  0  0  0  0  0  0  0  0  0  0
    5.3080   -1.1370   -0.6970 C   0  0  0  0  0  0  0  0  0  0  0  0
    5.2240   -1.0110    0.6910 O   0  0  0  0  0  0  0  0  0  0  0  0
    4.0820   -0.7300    1.4120 C   0  0  0  0  0  0  0  0  0  0  0  0
    2.9570   -0.5660    0.7370 C   0  0  0  0  0  0  0  0  0  0  0  0
    1.8110   -0.2770    1.5850 C   0  0  0  0  0  0  0  0  0  0  0  0
    0.5520   -0.0530    1.2730 C   0  0  0  0  0  0  0  0  0  0  0  0
   -2.0250    1.1240    1.0110 N   0  0  0  0  0  0  0  0  0  0  0  0
  1  2  1  0
  2  3  2  0
  2 20  1  0
  3  4  1  0
  4  5  1  0
  4  8  2  0
  5  6  2  0
  5  7  1  0
  8  9  1  0
  8 20  1  0
  9 10  2  0
  9 19  1  0
 10 11  1  0
 11 12  2  0
 12 13  1  0
 12 17  1  0
 13 14  1  0
 14 15  1  0
 15 16  1  0
 16 17  2  0
 17 18  1  0
 18 19  2  0
M  END
