
     RDKit          3D

 13 12  0  0  0  0  0  0  0  0999 V2000
   -4.4040   -0.6050    0.9460 C   0  0  0  0  0  0  0  0  0  0  0  0
   -3.6690   -0.1570   -0.2860 C   0  0  1  0  0  0  0  0  0  0  0  0
   -3.9180    1.2930   -0.6100 C   0  0  0  0  0  0  0  0  0  0  0  0
   -1.9600   -0.5800   -0.2240 S   0  0  1  0  0  0  0  0  0  0  0  0
   -1.7810   -1.5810    0.8940 O   0  0  0  0  0  0  0  0  0  0  0  0
   -1.5080   -1.2910   -1.4810 O   0  0  0  0  0  0  0  0  0  0  0  0
   -0.9360    0.7630    0.0740 N   0  0  0  0  0  0  0  0  0  0  0  0
    0.4000    0.2780    0.2970 C   0  0  0  0  0  0  0  0  0  0  0  0
    1.3410    0.5510   -0.8450 C   0  0  0  0  0  0  0  0  0  0  0  0
    2.5550   -0.3480   -0.6270 C   0  0  0  0  0  0  0  0  0  0  0  0
    3.2840    0.1110    0.6240 C   0  0  0  0  0  0  0  0  0  0  0  0
    4.7740    0.1560    0.3840 C   0  0  0  0  0  0  0  0  0  0  0  0
    5.1990    1.4520    0.6840 O   0  0  0  0  0  0  0  0  0  0  0  0
  2  1  1  1
  2  3  1  0
  2  4  1  0
  4  5  2  0
  4  6  2  0
  4  7  1  1
  7  8  1  0
  8  9  1  0
  9 10  1  0
 10 11  1  0
 11 12  1  0
 12 13  1  0
M  END
