
     RDKit          3D

 13 12  0  0  0  0  0  0  0  0999 V2000
    3.7370    1.2320   -0.5830 C   0  0  0  0  0  0  0  0  0  0  0  0
    3.0770   -0.0890   -0.8950 C   0  0  0  0  0  0  0  0  0  0  0  0
    2.9240   -0.9030    0.3550 C   0  0  0  0  0  0  0  0  0  0  0  0
    2.0910   -0.2420    1.4050 C   0  0  0  0  0  0  0  0  0  0  0  0
    0.6830    0.0650    0.9660 C   0  0  0  0  0  0  0  0  0  0  0  0
   -0.0630   -1.1640    0.5780 C   0  0  0  0  0  0  0  0  0  0  0  0
   -1.4780   -0.8800    0.1380 C   0  0  0  0  0  0  0  0  0  0  0  0
   -1.5170    0.0060   -1.0170 N   0  0  0  0  0  0  0  0  0  0  0  0
   -3.2150    0.2220   -1.3810 S   0  0  1  0  0  0  0  0  0  0  0  0
   -3.4070    0.4250   -2.8650 O   0  0  0  0  0  0  0  0  0  0  0  0
   -3.9880   -1.0270   -1.0010 O   0  0  0  0  0  0  0  0  0  0  0  0
   -3.7440    1.5380   -0.5200 O   0  0  0  0  0  0  0  0  0  0  0  0
   -4.7510    1.2620    0.3730 C   0  0  0  0  0  0  0  0  0  0  0  0
  1  2  1  0
  2  3  1  0
  3  4  1  0
  4  5  1  0
  5  6  1  0
  6  7  1  0
  7  8  1  0
  9  8  1  6
  9 10  2  0
  9 11  2  0
  9 12  1  0
 12 13  1  0
M  END
