
     RDKit          3D

 18 17  0  0  0  0  0  0  0  0999 V2000
   -1.7510   -1.6540   -2.2140 C   0  0  0  0  0  0  0  0  0  0  0  0
   -2.7490   -0.1580   -2.1000 S   0  0  0  0  0  0  0  0  0  0  0  0
   -3.1040    0.3480   -0.4160 C   0  0  0  0  0  0  0  0  0  0  0  0
   -1.9450    0.8360    0.3700 C   0  0  1  0  0  0  0  0  0  0  0  0
   -1.3810    1.9670   -0.2720 O   0  0  0  0  0  0  0  0  0  0  0  0
   -2.3350    1.2320    1.7730 C   0  0  0  0  0  0  0  0  0  0  0  0
   -3.3510    2.3310    1.7990 C   0  0  0  0  0  0  0  0  0  0  0  0
   -3.6650    2.6760    3.1310 O   0  0  0  0  0  0  0  0  0  0  0  0
   -0.8640   -0.1910    0.4020 C   0  0  0  0  0  0  0  0  0  0  0  0
   -1.0870   -1.3300    0.9130 O   0  0  0  0  0  0  0  0  0  0  0  0
    0.4340    0.0390   -0.1200 N   0  0  0  0  0  0  0  0  0  0  0  0
    1.4280   -0.9990   -0.0530 C   0  0  0  0  0  0  0  0  0  0  0  0
    2.7440   -0.5700   -0.6570 C   0  0  0  0  0  0  0  0  0  0  0  0
    3.6840   -1.6630   -0.5500 N   0  0  0  0  0  0  0  0  0  0  0  0
    5.2210   -1.2690   -1.2130 S   0  0  1  0  0  0  0  0  0  0  0  0
    5.8850   -2.5150   -1.6650 O   0  0  0  0  0  0  0  0  0  0  0  0
    5.1420   -0.2740   -2.3060 O   0  0  0  0  0  0  0  0  0  0  0  0
    6.1470   -0.6050    0.0420 O   0  0  0  0  0  0  0  0  0  0  0  0
  1  2  1  0
  2  3  1  0
  3  4  1  0
  4  5  1  6
  4  6  1  0
  4  9  1  0
  6  7  1  0
  7  8  1  0
  9 10  2  0
  9 11  1  0
 11 12  1  0
 12 13  1  0
 13 14  1  0
 14 15  1  0
 15 16  2  0
 15 17  2  0
 15 18  1  1
M  END
