
     RDKit          3D

 18 17  0  0  0  0  0  0  0  0999 V2000
   -6.0710    1.2760    0.1590 N   0  0  0  0  0  0  0  0  0  0  0  0
   -5.4100   -0.3270    0.2270 S   0  0  2  0  0  0  0  0  0  0  0  0
   -6.3260   -1.2060   -0.6030 O   0  0  0  0  0  0  0  0  0  0  0  0
   -5.3900   -0.8370    1.6260 O   0  0  0  0  0  0  0  0  0  0  0  0
   -3.9230   -0.3080   -0.4990 O   0  0  0  0  0  0  0  0  0  0  0  0
   -3.2050   -1.4690   -0.3770 C   0  0  0  0  0  0  0  0  0  0  0  0
   -1.8790   -1.2650   -1.1000 C   0  0  0  0  0  0  0  0  0  0  0  0
   -1.2070   -0.0800   -0.3820 C   0  0  0  0  0  0  0  0  0  0  0  0
    0.1110    0.1120   -1.1120 C   0  0  0  0  0  0  0  0  0  0  0  0
    0.8300    1.2600   -0.4880 C   0  0  0  0  0  0  0  0  0  0  0  0
    1.0960    0.9910    0.9550 C   0  0  0  0  0  0  0  0  0  0  0  0
    1.9070   -0.2230    1.1700 C   0  0  0  0  0  0  0  0  0  0  0  0
    3.2600   -0.1530    0.5410 C   0  0  0  0  0  0  0  0  0  0  0  0
    3.2330   -0.0120   -0.8300 O   0  0  0  0  0  0  0  0  0  0  0  0
    4.8360    0.0500   -1.3700 S   0  0  2  0  0  0  0  0  0  0  0  0
    5.8800    0.4120   -0.0270 N   0  0  0  0  0  0  0  0  0  0  0  0
    5.0210    1.0920   -2.4120 O   0  0  0  0  0  0  0  0  0  0  0  0
    5.2580   -1.2750   -1.9480 O   0  0  0  0  0  0  0  0  0  0  0  0
  2  1  1  1
  2  3  2  0
  2  4  2  0
  2  5  1  0
  5  6  1  0
  6  7  1  0
  7  8  1  0
  8  9  1  0
  9 10  1  0
 10 11  1  0
 11 12  1  0
 12 13  1  0
 13 14  1  0
 14 15  1  0
 15 16  1  1
 15 17  2  0
 15 18  2  0
M  END
