
     RDKit          3D

 17 16  0  0  0  0  0  0  0  0999 V2000
   -5.3060    1.1570   -0.6690 C   0  0  0  0  0  0  0  0  0  0  0  0
   -4.8760    1.4550    0.5490 C   0  0  0  0  0  0  0  0  0  0  0  0
   -3.5440    0.9560    0.9810 C   0  0  0  0  0  0  0  0  0  0  0  0
   -2.9200    0.2010   -0.0360 O   0  0  0  0  0  0  0  0  0  0  0  0
   -1.6680   -0.3270    0.2220 C   0  0  0  0  0  0  0  0  0  0  0  0
   -1.1350   -0.1170    1.3380 O   0  0  0  0  0  0  0  0  0  0  0  0
   -0.9670   -1.1030   -0.7500 N   0  0  0  0  0  0  0  0  0  0  0  0
    0.3480   -1.6030   -0.3600 C   0  0  1  0  0  0  0  0  0  0  0  0
    0.2830   -2.1970    0.9510 N   0  0  0  0  0  0  0  0  0  0  0  0
    0.9560   -2.7290   -1.6230 S   0  0  0  0  0  0  0  0  0  0  0  0
   -0.0260   -4.1490   -1.6910 O   0  0  0  0  0  0  0  0  0  0  0  0
    1.4360   -0.1530   -0.3200 S   0  0  0  0  0  0  0  0  0  0  0  0
    3.0900   -0.6340    0.1670 C   0  0  0  0  0  0  0  0  0  0  0  0
    3.9430    0.6080    0.1770 C   0  0  0  0  0  0  0  0  0  0  0  0
    5.1440    0.4590    0.5020 O   0  0  0  0  0  0  0  0  0  0  0  0
    3.4230    1.8460   -0.1580 O   0  0  0  0  0  0  0  0  0  0  0  0
    4.2290    3.0080   -0.1470 C   0  0  0  0  0  0  0  0  0  0  0  0
  1  2  2  0
  2  3  1  0
  3  4  1  0
  4  5  1  0
  5  6  2  0
  5  7  1  0
  7  8  1  0
  8  9  1  1
  8 10  1  0
  8 12  1  0
 10 11  1  0
 12 13  1  0
 13 14  1  0
 14 15  2  0
 14 16  1  0
 16 17  1  0
M  END
