
     RDKit          3D

 17 16  0  0  0  0  0  0  0  0999 V2000
   -6.4520   -1.0400   -1.4790 C   0  0  0  0  0  0  0  0  0  0  0  0
   -5.4590   -0.7970   -0.4740 O   0  0  0  0  0  0  0  0  0  0  0  0
   -4.7500    0.3920   -0.5730 C   0  0  0  0  0  0  0  0  0  0  0  0
   -4.9870    1.1940   -1.5050 O   0  0  0  0  0  0  0  0  0  0  0  0
   -3.7160    0.7190    0.4160 C   0  0  0  0  0  0  0  0  0  0  0  0
   -2.1050    0.5530   -0.4460 S   0  0  0  0  0  0  0  0  0  0  0  0
   -0.8460    0.9290    0.7830 C   0  0  0  0  0  0  0  0  0  0  0  0
    0.5030    0.9650    0.2540 C   0  0  0  0  0  0  0  0  0  0  0  0
    1.0490    2.1070   -0.0050 O   0  0  0  0  0  0  0  0  0  0  0  0
    1.3480   -0.1650   -0.0260 N   0  0  0  0  0  0  0  0  0  0  0  0
    2.6080    0.0870   -0.4940 O   0  0  0  0  0  0  0  0  0  0  0  0
    3.4990   -0.8640    0.0210 C   0  0  2  0  0  0  0  0  0  0  0  0
    3.7790   -0.4890    1.5010 C   0  0  0  0  0  0  0  0  0  0  0  0
    4.7820   -0.7630   -0.6880 C   0  0  0  0  0  0  0  0  0  0  0  0
    5.2430   -1.7290   -1.3660 N   0  0  0  0  0  0  0  0  0  0  0  0
    5.7070    0.7700   -0.5740 S   0  0  0  0  0  0  0  0  0  0  0  0
    4.9100    1.8420    0.4770 O   0  0  0  0  0  0  0  0  0  0  0  0
  1  2  1  0
  2  3  1  0
  3  4  2  0
  3  5  1  0
  5  6  1  0
  6  7  1  0
  7  8  1  0
  8  9  2  0
  8 10  1  0
 10 11  1  0
 11 12  1  0
 12 13  1  1
 12 14  1  0
 14 15  2  0
 14 16  1  0
 16 17  1  0
M  END
