
     RDKit          3D

 18 17  0  0  0  0  0  0  0  0999 V2000
   -4.9110    1.1710   -1.5880 C   0  0  0  0  0  0  0  0  0  0  0  0
   -5.0200    1.2910    0.2220 S   0  0  0  0  0  0  0  0  0  0  0  0
   -3.3340    1.2750    0.8730 C   0  0  0  0  0  0  0  0  0  0  0  0
   -2.7620   -0.1190    0.5600 C   0  0  1  0  0  0  0  0  0  0  0  0
   -1.4200   -0.1060    1.0880 N   0  0  0  0  0  0  0  0  0  0  0  0
   -0.3260   -0.2400    0.2000 C   0  0  0  0  0  0  0  0  0  0  0  0
   -0.5860   -0.3640   -1.0200 O   0  0  0  0  0  0  0  0  0  0  0  0
    1.0830   -0.2370    0.6550 C   0  0  0  0  0  0  0  0  0  0  0  0
    1.9180   -0.3850   -0.4450 O   0  0  0  0  0  0  0  0  0  0  0  0
    3.5170   -0.3750    0.1330 S   0  0  0  0  0  0  0  0  0  0  0  0
    3.8720    0.9410    0.7960 O   0  0  0  0  0  0  0  0  0  0  0  0
    4.6810   -0.7840   -1.1930 C   0  0  0  0  0  0  0  0  0  0  0  0
    6.0300   -0.7520   -0.6070 C   0  0  0  0  0  0  0  0  0  0  0  0
    6.7670    0.4450   -0.6080 N   0  0  0  0  0  0  0  0  0  0  0  0
    6.5140   -1.7830   -0.1110 O   0  0  0  0  0  0  0  0  0  0  0  0
   -3.6200   -1.1240    1.2180 C   0  0  0  0  0  0  0  0  0  0  0  0
   -3.1430   -1.8400    2.1250 O   0  0  0  0  0  0  0  0  0  0  0  0
   -4.9300   -1.2800    0.8460 O   0  0  0  0  0  0  0  0  0  0  0  0
  1  2  1  0
  2  3  1  0
  4  3  1  1
  4  5  1  0
  4 16  1  0
  5  6  1  0
  6  7  2  0
  6  8  1  0
  8  9  1  0
  9 10  1  0
 10 11  2  0
 10 12  1  6
 12 13  1  0
 13 14  1  0
 13 15  2  0
 16 17  2  0
 16 18  1  0
M  END
