
     RDKit          3D

 17 16  0  0  0  0  0  0  0  0999 V2000
    5.0130   -0.7000   -0.2280 C   0  0  0  0  0  0  0  0  0  0  0  0
    3.9580   -0.0920   -0.9470 O   0  0  0  0  0  0  0  0  0  0  0  0
    2.6340   -0.3630   -0.7470 C   0  0  0  0  0  0  0  0  0  0  0  0
    2.3250   -1.2020    0.1270 O   0  0  0  0  0  0  0  0  0  0  0  0
    1.6260    0.3620   -1.5880 C   0  0  0  0  0  0  0  0  0  0  0  0
   -0.0570   -0.0870   -1.1940 S   0  0  0  0  0  0  0  0  0  0  0  0
   -0.5790    0.4200    0.4320 C   0  0  1  0  0  0  0  0  0  0  0  0
    0.1970   -0.2890    1.4330 N   0  0  0  0  0  0  0  0  0  0  0  0
   -0.5290    2.1930    0.6440 S   0  0  0  0  0  0  0  0  0  0  0  0
    1.1580    2.7920    0.6520 C   0  0  0  0  0  0  0  0  0  0  0  0
   -2.0060   -0.0370    0.5990 C   0  0  0  0  0  0  0  0  0  0  0  0
   -2.2690   -0.8610    1.4780 O   0  0  0  0  0  0  0  0  0  0  0  0
   -3.0060    0.4500   -0.2090 O   0  0  0  0  0  0  0  0  0  0  0  0
   -4.3230    0.0140   -0.0390 C   0  0  0  0  0  0  0  0  0  0  0  0
   -4.4330   -1.4450   -0.2330 C   0  0  0  0  0  0  0  0  0  0  0  0
   -3.3160   -2.2560   -0.5480 N   0  0  0  0  0  0  0  0  0  0  0  0
   -5.5740   -2.0040   -0.1140 O   0  0  0  0  0  0  0  0  0  0  0  0
  1  2  1  0
  2  3  1  0
  3  4  2  0
  3  5  1  0
  5  6  1  0
  6  7  1  0
  7  8  1  1
  7  9  1  0
  7 11  1  0
  9 10  1  0
 11 12  2  0
 11 13  1  0
 13 14  1  0
 14 15  1  0
 15 16  1  0
 15 17  2  0
M  END
