
     RDKit          3D

 12 12  0  0  0  0  0  0  0  0999 V2000
   -1.1340    2.3250    0.2450 C   0  0  0  0  0  0  0  0  0  0  0  0
   -1.4840    0.8750    0.0730 C   0  0  0  0  0  0  0  0  0  0  0  0
   -0.6980   -0.1180   -0.3110 C   0  0  0  0  0  0  0  0  0  0  0  0
    0.7140    0.0640   -0.6450 C   0  0  0  0  0  0  0  0  0  0  0  0
    1.6180   -0.6970    0.1710 N   0  0  0  0  0  0  0  0  0  0  0  0
    3.0080   -0.5560   -0.1140 C   0  0  0  0  0  0  0  0  0  0  0  0
    3.4150    0.2040   -1.0400 O   0  0  0  0  0  0  0  0  0  0  0  0
    3.9830   -1.2390    0.6050 O   0  0  0  0  0  0  0  0  0  0  0  0
   -1.5000   -1.3400   -0.3240 C   0  0  0  0  0  0  0  0  0  0  0  0
   -1.2070   -2.4120   -0.8580 O   0  0  0  0  0  0  0  0  0  0  0  0
   -2.7290   -1.0140    0.4360 C   0  0  0  0  0  0  0  0  0  0  0  0
   -2.7590    0.3980    0.3190 O   0  0  0  0  0  0  0  0  0  0  0  0
  1  2  1  0
  2  3  2  0
  2 12  1  0
  3  4  1  0
  3  9  1  0
  4  5  1  0
  5  6  1  0
  6  7  2  0
  6  8  1  0
  9 10  2  0
  9 11  1  0
 11 12  1  0
M  END
