
     RDKit          3D

 18 17  0  0  0  0  0  0  0  0999 V2000
   -5.6300    0.1520   -0.6700 C   0  0  0  0  0  0  0  0  0  0  0  0
   -4.9140   -0.6970    0.3080 C   0  0  0  0  0  0  0  0  0  0  0  0
   -4.3800    0.0230    1.3340 O   0  0  0  0  0  0  0  0  0  0  0  0
   -3.3580    0.9120    0.9400 C   0  0  0  0  0  0  0  0  0  0  0  0
   -2.2610    0.1360    0.2860 C   0  0  2  0  0  0  0  0  0  0  0  0
   -1.7910   -0.7810    1.2830 O   0  0  0  0  0  0  0  0  0  0  0  0
   -1.0780    1.0780    0.0210 C   0  0  0  0  0  0  0  0  0  0  0  0
   -0.0400    0.0860   -0.3780 N   0  0  0  0  0  0  0  0  0  0  0  0
    1.3920    0.5800   -0.3060 C   0  0  0  0  0  0  0  0  0  0  0  0
    1.4480    1.6900   -0.0020 O   0  0  0  0  0  0  0  0  0  0  0  0
    2.1560   -0.5680   -0.5940 N   0  0  0  0  0  0  0  0  0  0  0  0
    3.5600   -0.0300    0.3600 C   0  0  0  0  0  0  0  0  0  0  0  0
    3.5090    1.0960    0.6500 O   0  0  0  0  0  0  0  0  0  0  0  0
    4.4260   -1.2190    0.5280 C   0  0  0  0  0  0  0  0  0  0  0  0
    6.0220   -0.8430    1.1710 S   0  0  0  0  0  0  0  0  0  0  0  0
    7.1670    0.0120   -0.3860 S   0  0  2  0  0  0  0  0  0  0  0  0
    7.6650   -0.9850   -1.3890 O   0  0  0  0  0  0  0  0  0  0  0  0
    8.3330    0.3710    0.4810 O   0  0  0  0  0  0  0  0  0  0  0  0
  1  2  1  0
  2  3  1  0
  3  4  1  0
  4  5  1  0
  5  6  1  1
  5  7  1  0
  7  8  1  0
  8  9  1  0
  9 10  2  0
  9 11  1  0
 11 12  1  0
 12 13  2  0
 12 14  1  0
 14 15  1  0
 16 15  1  1
 16 17  2  0
 16 18  2  0
M  END
