
     RDKit          3D

 13 13  0  0  0  0  0  0  0  0999 V2000
    3.4970    0.4240    0.8390 C   0  0  0  0  0  0  0  0  0  0  0  0
    2.0260    0.1220    0.6730 C   0  0  0  0  0  0  0  0  0  0  0  0
    1.5330   -0.1710   -0.4820 C   0  0  0  0  0  0  0  0  0  0  0  0
    0.1710   -0.4820   -0.8300 C   0  0  0  0  0  0  0  0  0  0  0  0
   -0.0510   -0.8900   -2.0950 O   0  0  0  0  0  0  0  0  0  0  0  0
   -1.2450   -1.1990   -2.5120 C   0  0  0  0  0  0  0  0  0  0  0  0
   -1.4580   -1.5860   -3.7110 O   0  0  0  0  0  0  0  0  0  0  0  0
   -2.3630   -1.1360   -1.7120 C   0  0  0  0  0  0  0  0  0  0  0  0
   -2.1750   -0.7240   -0.4210 C   0  0  0  0  0  0  0  0  0  0  0  0
   -3.2360   -0.6280    0.4600 O   0  0  0  0  0  0  0  0  0  0  0  0
   -0.8740   -0.3900    0.0200 C   0  0  0  0  0  0  0  0  0  0  0  0
   -0.7440    0.0240    1.3110 O   0  0  0  0  0  0  0  0  0  0  0  0
   -0.9590    1.4350    1.5330 C   0  0  0  0  0  0  0  0  0  0  0  0
  1  2  1  0
  2  3  2  3
  3  4  1  0
  4  5  1  0
  4 11  2  0
  5  6  1  0
  6  7  2  0
  6  8  1  0
  8  9  2  0
  9 10  1  0
  9 11  1  0
 11 12  1  0
 12 13  1  0
M  END
