
     RDKit          3D

  9  9  0  0  0  0  0  0  0  0999 V2000
    1.7670    0.1560    1.0380 N   0  0  0  0  0  0  0  0  0  0  0  0
    1.2340    0.9370   -0.0370 C   0  0  0  0  0  0  0  0  0  0  0  0
    0.3970    0.1540   -0.9660 C   0  0  1  0  0  0  0  0  0  0  0  0
    1.1960   -0.8880   -1.4900 O   0  0  0  0  0  0  0  0  0  0  0  0
   -0.8960   -0.3570   -0.5470 C   0  0  1  0  0  0  0  0  0  0  0  0
   -1.0120   -1.2920    0.5910 C   0  0  0  0  0  0  0  0  0  0  0  0
   -2.3830   -1.2120    0.8770 O   0  0  0  0  0  0  0  0  0  0  0  0
   -2.8500   -0.1000    0.4650 O   0  0  0  0  0  0  0  0  0  0  0  0
   -1.8370    0.7280    0.0060 C   0  0  0  0  0  0  0  0  0  0  0  0
  1  2  1  0
  2  3  1  0
  3  4  1  1
  3  5  1  0
  5  6  1  1
  5  9  1  0
  6  7  1  0
  7  8  1  0
  8  9  1  0
M  CHG  1   1   1
M  END
