
     RDKit          3D

 13 13  0  0  0  0  0  0  0  0999 V2000
    4.2230    0.2130   -0.8040 C   0  0  0  0  0  0  0  0  0  0  0  0
    3.8470   -1.1050   -0.7660 O   0  0  0  0  0  0  0  0  0  0  0  0
    2.8890   -1.4280    0.1690 C   0  0  0  0  0  0  0  0  0  0  0  0
    1.5910   -0.7580   -0.0300 C   0  0  0  0  0  0  0  0  0  0  0  0
    1.3370    0.0180   -0.9800 O   0  0  0  0  0  0  0  0  0  0  0  0
    0.5230   -0.9530    0.8640 O   0  0  0  0  0  0  0  0  0  0  0  0
   -0.6990   -0.3280    0.6870 C   0  0  1  0  0  0  0  0  0  0  0  0
   -1.5380   -0.7380    1.7520 O   0  0  0  0  0  0  0  0  0  0  0  0
   -0.6640    1.1610    0.7050 C   0  0  0  0  0  0  0  0  0  0  0  0
   -1.7880    1.7330   -0.1610 C   0  0  0  0  0  0  0  0  0  0  0  0
   -3.0470    0.9360    0.1800 C   0  0  0  0  0  0  0  0  0  0  0  0
   -2.8990   -0.4610   -0.3230 C   0  0  0  0  0  0  0  0  0  0  0  0
   -1.4210   -0.7820   -0.5800 C   0  0  0  0  0  0  0  0  0  0  0  0
  1  2  1  0
  2  3  1  0
  3  4  1  0
  4  5  2  0
  4  6  1  0
  6  7  1  0
  7  8  1  1
  7  9  1  0
  7 13  1  0
  9 10  1  0
 10 11  1  0
 11 12  1  0
 12 13  1  0
M  END
