
     RDKit          3D

  9  9  0  0  0  0  0  0  0  0999 V2000
    1.9700    0.7530   -0.2240 N   0  0  0  0  0  0  0  0  0  0  0  0
    0.8680    0.1030   -0.8510 C   0  0  0  0  0  0  0  0  0  0  0  0
   -0.2600   -0.2530    0.0580 C   0  0  1  0  0  0  0  0  0  0  0  0
   -0.8490    0.9530    0.7250 C   0  0  0  0  0  0  0  0  0  0  0  0
   -1.3180    1.7950   -0.3100 O   0  0  0  0  0  0  0  0  0  0  0  0
   -1.3640   -0.9090   -0.7520 C   0  0  0  0  0  0  0  0  0  0  0  0
   -1.0000   -2.2680   -0.5970 O   0  0  0  0  0  0  0  0  0  0  0  0
   -0.8710   -2.3200    0.7120 O   0  0  0  0  0  0  0  0  0  0  0  0
    0.0840   -1.3540    1.0360 C   0  0  0  0  0  0  0  0  0  0  0  0
  1  2  1  0
  3  2  1  6
  3  4  1  0
  3  6  1  0
  3  9  1  0
  4  5  1  0
  6  7  1  0
  7  8  1  0
  8  9  1  0
M  CHG  1   1   1
M  END
