
     RDKit          3D

 15 14  0  0  0  0  0  0  0  0999 V2000
   -3.7780    0.5280    1.2990 C   0  0  0  0  0  0  0  0  0  0  0  0
   -3.4720    0.6230    0.0150 C   0  0  0  0  0  0  0  0  0  0  0  0
   -4.7200    1.1550   -1.1380 S   0  0  0  0  0  0  0  0  0  0  0  0
   -6.2530    1.4800   -0.2700 C   0  0  0  0  0  0  0  0  0  0  0  0
   -2.1160    0.2990   -0.4980 C   0  0  2  0  0  0  0  0  0  0  0  0
   -2.1890   -0.7510   -1.4360 O   0  0  0  0  0  0  0  0  0  0  0  0
   -1.2460   -0.1710    0.6650 C   0  0  0  0  0  0  0  0  0  0  0  0
    0.1400   -0.4940    0.0910 C   0  0  0  0  0  0  0  0  0  0  0  0
    0.9830   -0.9590    1.2690 C   0  0  0  0  0  0  0  0  0  0  0  0
    2.3740   -1.3110    0.8550 C   0  0  0  0  0  0  0  0  0  0  0  0
    3.0700   -0.1750    0.2580 N   0  0  0  0  0  0  0  0  0  0  0  0
    4.4070   -0.3450   -0.1900 C   0  0  0  0  0  0  0  0  0  0  0  0
    4.9780   -1.4550   -0.0730 O   0  0  0  0  0  0  0  0  0  0  0  0
    5.1060    0.7230   -0.7680 O   0  0  0  0  0  0  0  0  0  0  0  0
    6.4390    0.5640   -1.2180 C   0  0  0  0  0  0  0  0  0  0  0  0
  1  2  2  0
  2  3  1  0
  2  5  1  0
  3  4  1  0
  5  6  1  6
  5  7  1  0
  7  8  1  0
  8  9  1  0
  9 10  1  0
 10 11  1  0
 11 12  1  0
 12 13  2  0
 12 14  1  0
 14 15  1  0
M  END
