
     RDKit          3D

 15 14  0  0  0  0  0  0  0  0999 V2000
   -4.0850    1.8410    2.0990 C   0  0  0  0  0  0  0  0  0  0  0  0
   -3.9000    0.9720    1.0360 O   0  0  0  0  0  0  0  0  0  0  0  0
   -2.5600    0.9580    0.7130 C   0  0  0  0  0  0  0  0  0  0  0  0
   -2.2520    0.0390   -0.4370 C   0  0  1  0  0  0  0  0  0  0  0  0
   -0.7310    0.1050   -0.7060 C   0  0  0  0  0  0  0  0  0  0  0  0
   -0.3960   -0.7940   -1.8430 C   0  0  0  0  0  0  0  0  0  0  0  0
    0.8470   -0.8670   -2.2550 O   0  0  0  0  0  0  0  0  0  0  0  0
    1.9450   -1.2810   -1.6710 C   0  0  0  0  0  0  0  0  0  0  0  0
    2.4800   -0.5790   -0.4530 C   0  0  0  0  0  0  0  0  0  0  0  0
    2.7500    0.8600   -0.7930 C   0  0  0  0  0  0  0  0  0  0  0  0
    3.3960    1.7700    0.6520 S   0  0  0  0  0  0  0  0  0  0  0  0
    5.0280    1.0720    1.0310 C   0  0  0  0  0  0  0  0  0  0  0  0
   -2.6420   -1.3460   -0.1470 C   0  0  0  0  0  0  0  0  0  0  0  0
   -2.0870   -2.0740    0.9530 N   0  0  0  0  0  0  0  0  0  0  0  0
   -3.4850   -1.9690   -0.8510 O   0  0  0  0  0  0  0  0  0  0  0  0
  1  2  1  0
  2  3  1  0
  4  3  1  1
  4  5  1  0
  4 13  1  0
  5  6  1  0
  6  7  1  0
  7  8  1  0
  8  9  1  0
  9 10  1  0
 10 11  1  0
 11 12  1  0
 13 14  1  0
 13 15  2  0
M  END
