
     RDKit          3D

 15 14  0  0  0  0  0  0  0  0999 V2000
   -3.2640    1.7650    0.1480 C   0  0  0  0  0  0  0  0  0  0  0  0
   -4.0040    0.4590   -0.0450 C   0  0  2  0  0  0  0  0  0  0  0  0
   -4.5740    0.0130    1.2580 C   0  0  0  0  0  0  0  0  0  0  0  0
   -2.9200   -0.7090   -0.7790 S   0  0  1  0  0  0  0  0  0  0  0  0
   -3.7600   -1.9090   -1.2060 O   0  0  0  0  0  0  0  0  0  0  0  0
   -2.3590   -0.1720   -2.0920 O   0  0  0  0  0  0  0  0  0  0  0  0
   -1.6280   -1.2280    0.1710 N   0  0  0  0  0  0  0  0  0  0  0  0
   -0.7150   -0.2210    0.5680 C   0  0  0  0  0  0  0  0  0  0  0  0
    0.4260   -0.7610    1.4180 C   0  0  0  0  0  0  0  0  0  0  0  0
    1.2340   -1.7970    0.6960 C   0  0  0  0  0  0  0  0  0  0  0  0
    1.8710   -1.2830   -0.5730 C   0  0  0  0  0  0  0  0  0  0  0  0
    2.8070   -0.1270   -0.2660 C   0  0  0  0  0  0  0  0  0  0  0  0
    3.4320    0.3700   -1.5440 C   0  0  0  0  0  0  0  0  0  0  0  0
    4.3550    1.5180   -1.2030 C   0  0  0  0  0  0  0  0  0  0  0  0
    5.3230    0.9940   -0.3180 O   0  0  0  0  0  0  0  0  0  0  0  0
  2  1  1  1
  2  3  1  0
  2  4  1  0
  4  5  2  0
  4  6  2  0
  4  7  1  1
  7  8  1  0
  8  9  1  0
  9 10  1  0
 10 11  1  0
 11 12  1  0
 12 13  1  0
 13 14  1  0
 14 15  1  0
M  END
