
     RDKit          3D

 15 14  0  0  0  0  0  0  0  0999 V2000
   -2.3910    2.0790    1.1120 C   0  0  0  0  0  0  0  0  0  0  0  0
   -3.0110    0.9960    0.7060 C   0  0  0  0  0  0  0  0  0  0  0  0
   -2.4230    0.0020   -0.1700 C   0  0  0  0  0  0  0  0  0  0  0  0
   -1.1170    0.2170   -0.5890 O   0  0  0  0  0  0  0  0  0  0  0  0
    0.0330   -0.0410    0.1600 C   0  0  0  0  0  0  0  0  0  0  0  0
    1.2200    0.3310   -0.6740 C   0  0  0  0  0  0  0  0  0  0  0  0
    1.0860    0.7880   -1.8350 O   0  0  0  0  0  0  0  0  0  0  0  0
    2.5420    0.1670   -0.1470 N   0  0  0  0  0  0  0  0  0  0  0  0
    3.7230    0.5090   -0.9040 C   0  0  0  0  0  0  0  0  0  0  0  0
    4.9330    0.2030   -0.0280 C   0  0  0  0  0  0  0  0  0  0  0  0
    6.1220    0.5080   -0.6930 O   0  0  0  0  0  0  0  0  0  0  0  0
   -3.1250   -1.0530   -0.5340 C   0  0  0  0  0  0  0  0  0  0  0  0
   -4.5270   -1.1830   -0.0150 C   0  0  0  0  0  0  0  0  0  0  0  0
   -2.6380   -2.0850   -1.4230 C   0  0  0  0  0  0  0  0  0  0  0  0
   -1.1570   -2.0920   -2.1110 S   0  0  0  0  0  0  0  0  0  0  0  0
  1  2  2  0
  2  3  1  0
  3  4  1  0
  3 12  2  3
  4  5  1  0
  5  6  1  0
  6  7  2  0
  6  8  1  0
  8  9  1  0
  9 10  1  0
 10 11  1  0
 12 13  1  0
 12 14  1  0
 14 15  2  0
M  END
