
     RDKit          3D

 15 14  0  0  0  0  0  0  0  0999 V2000
    4.8380    1.8190   -0.1960 C   0  0  0  0  0  0  0  0  0  0  0  0
    3.6170    1.4930    0.1600 C   0  0  0  0  0  0  0  0  0  0  0  0
    2.4730    2.3440   -0.1950 C   0  0  0  0  0  0  0  0  0  0  0  0
    1.4990    1.6370   -1.0130 N   0  0  0  0  0  0  0  0  0  0  0  0
    0.8560    0.4680   -0.5240 C   0  0  0  0  0  0  0  0  0  0  0  0
    1.1600    0.0800    0.6240 O   0  0  0  0  0  0  0  0  0  0  0  0
   -0.1230   -0.2350   -1.3550 C   0  0  0  0  0  0  0  0  0  0  0  0
   -0.9350   -1.2980   -0.6890 C   0  0  1  0  0  0  0  0  0  0  0  0
   -1.8080   -1.8840   -1.8620 C   0  0  0  0  0  0  0  0  0  0  0  0
   -0.1680   -2.4500   -0.1460 C   0  0  0  0  0  0  0  0  0  0  0  0
   -1.9960   -0.7830    0.2330 C   0  0  0  0  0  0  0  0  0  0  0  0
   -1.6100    0.0490    1.3840 C   0  0  0  0  0  0  0  0  0  0  0  0
   -3.1700    0.4290    2.2410 S   0  0  2  0  0  0  0  0  0  0  0  0
   -2.8970    1.3150    3.4030 O   0  0  0  0  0  0  0  0  0  0  0  0
   -3.7910   -0.8650    2.6780 O   0  0  0  0  0  0  0  0  0  0  0  0
  1  2  2  0
  2  3  1  0
  3  4  1  0
  4  5  1  0
  5  6  2  0
  5  7  1  0
  7  8  1  0
  8  9  1  6
  8 10  1  0
  8 11  1  0
 11 12  1  0
 13 12  1  1
 13 14  2  0
 13 15  2  0
M  END
