
     RDKit          3D

 15 14  0  0  0  0  0  0  0  0999 V2000
   -2.3380   -2.3510    0.6240 C   0  0  0  0  0  0  0  0  0  0  0  0
   -1.9170   -1.0100    1.2160 C   0  0  0  0  0  0  0  0  0  0  0  0
   -1.5230   -0.0430    0.1500 C   0  0  2  0  0  0  0  0  0  0  0  0
   -1.3210    1.3100    0.8550 C   0  0  0  0  0  0  0  0  0  0  0  0
   -2.6280    0.1620   -0.8390 C   0  0  0  0  0  0  0  0  0  0  0  0
   -3.7870    0.9240   -0.2720 C   0  0  0  0  0  0  0  0  0  0  0  0
   -4.3260    1.7190   -1.3070 O   0  0  0  0  0  0  0  0  0  0  0  0
   -0.2210   -0.4060   -0.5570 C   0  0  0  0  0  0  0  0  0  0  0  0
    0.9560   -0.1690    0.2290 C   0  0  0  0  0  0  0  0  0  0  0  0
    2.2160   -1.0100    0.0510 C   0  0  0  0  0  0  0  0  0  0  0  0
    3.0470   -0.2500   -0.7920 N   0  0  0  0  0  0  0  0  0  0  0  0
    4.4170    0.3220    0.0680 S   0  0  1  0  0  0  0  0  0  0  0  0
    5.4260    1.2600   -1.0360 C   0  0  0  0  0  0  0  0  0  0  0  0
    3.7500    1.4200    1.0000 O   0  0  0  0  0  0  0  0  0  0  0  0
    5.1880   -0.5470    0.9060 O   0  0  0  0  0  0  0  0  0  0  0  0
  1  2  1  0
  2  3  1  0
  3  4  1  1
  3  5  1  0
  3  8  1  0
  5  6  1  0
  6  7  1  0
  8  9  1  0
  9 10  1  0
 10 11  1  0
 11 12  1  0
 12 13  1  6
 12 14  2  0
 12 15  2  0
M  END
