
     RDKit          3D

 43 48  0  0  0  0  0  0  0  0999 V2000
    3.6690    3.2190   -1.2510 C   0  0  0  0  0  0  0  0  0  0  0  0
    2.9610    1.9690   -0.9250 N   0  0  0  0  0  0  0  0  0  0  0  0
    2.3420    1.2160   -1.9460 C   0  0  0  0  0  0  0  0  0  0  0  0
    3.1190    0.0830   -2.5010 C   0  0  0  0  0  0  0  0  0  0  0  0
    4.3340    0.3380   -3.0720 O   0  0  0  0  0  0  0  0  0  0  0  0
    5.4680    0.6880   -2.4280 C   0  0  0  0  0  0  0  0  0  0  0  0
    5.5470    0.8050   -1.1890 O   0  0  0  0  0  0  0  0  0  0  0  0
    6.5880    0.9280   -3.1760 F   0  0  0  0  0  0  0  0  0  0  0  0
    2.8780    1.5990    0.4310 C   0  0  0  0  0  0  0  0  0  0  0  0
    3.3790    2.3030    1.3140 O   0  0  0  0  0  0  0  0  0  0  0  0
    2.2190    0.4190    0.7850 O   0  0  0  0  0  0  0  0  0  0  0  0
    2.1020   -0.0050    2.1300 C   0  0  1  0  0  0  0  0  0  0  0  0
    0.7510   -0.1690    2.6240 C   0  0  0  0  0  0  0  0  0  0  0  0
    0.5920   -0.4530    3.8500 O   0  0  0  0  0  0  0  0  0  0  0  0
   -0.4260   -0.0360    1.8360 N   0  0  0  0  0  0  0  0  0  0  0  0
   -0.6440    0.2730    0.4690 C   0  0  0  0  0  0  0  0  0  0  0  0
   -2.0660    0.1460    0.7700 C   0  0  0  0  0  0  0  0  0  0  0  0
   -1.8060   -0.1470    2.0570 C   0  0  0  0  0  0  0  0  0  0  0  0
   -2.8950   -0.3940    2.9140 C   0  0  0  0  0  0  0  0  0  0  0  0
   -4.1790   -0.3440    2.4720 C   0  0  0  0  0  0  0  0  0  0  0  0
   -5.3580   -0.5080    3.0750 N   0  0  0  0  0  0  0  0  0  0  0  0
   -6.3180   -0.3290    2.2000 N   0  0  0  0  0  0  0  0  0  0  0  0
   -5.7580   -0.0350    0.9590 C   0  0  0  0  0  0  0  0  0  0  0  0
   -6.5750    0.2360   -0.1480 N   0  0  0  0  0  0  0  0  0  0  0  0
   -6.2410    0.2770   -1.5130 C   0  0  0  0  0  0  0  0  0  0  0  0
   -5.7910   -0.8720   -1.9750 N   0  0  0  0  0  0  0  0  0  0  0  0
   -6.3950    1.3910   -2.4320 C   0  0  1  0  0  0  0  0  0  0  0  0
   -5.7440    2.6860   -2.0140 C   0  0  0  0  0  0  0  0  0  0  0  0
   -4.5470    2.8560   -2.6330 O   0  0  0  0  0  0  0  0  0  0  0  0
   -4.6590    2.7370   -3.9330 O   0  0  0  0  0  0  0  0  0  0  0  0
   -5.3570    1.1110   -3.9850 P   0  0  0  0  0  0  0  0  0  0  0  0
   -6.4410    1.0760   -5.3390 O   0  0  0  0  0  0  0  0  0  0  0  0
   -4.4400   -0.0510    1.1720 N   0  0  0  0  0  0  0  0  0  0  0  0
   -3.4090    0.1870    0.3550 C   0  0  0  0  0  0  0  0  0  0  0  0
   -3.6000    0.4980   -0.9590 O   0  0  0  0  0  0  0  0  0  0  0  0
    2.9070   -1.2580    2.3440 C   0  0  0  0  0  0  0  0  0  0  0  0
    2.3730   -2.4060    2.8780 C   0  0  0  0  0  0  0  0  0  0  0  0
    3.1080   -3.5470    3.0900 C   0  0  0  0  0  0  0  0  0  0  0  0
    4.4620   -3.5310    2.7420 C   0  0  0  0  0  0  0  0  0  0  0  0
    5.0390   -2.4210    2.2090 C   0  0  0  0  0  0  0  0  0  0  0  0
    4.2430   -1.2830    2.0140 C   0  0  0  0  0  0  0  0  0  0  0  0
    6.3740   -3.0600    2.0950 C   0  0  0  0  0  0  0  0  0  0  0  0
    5.7450   -4.2640    2.6730 C   0  0  0  0  0  0  0  0  0  0  0  0
  1  2  1  0
  2  3  1  0
  2  9  1  0
  3  4  1  0
  4  5  1  0
  5  6  1  0
  6  7  2  0
  6  8  1  0
  9 10  2  0
  9 11  1  0
 12 11  1  6
 12 13  1  0
 12 36  1  0
 13 14  2  0
 13 15  1  0
 15 16  1  0
 15 18  1  0
 16 17  1  0
 17 18  1  0
 17 34  2  0
 18 19  2  0
 19 20  1  0
 20 21  2  0
 20 33  1  0
 21 22  1  0
 22 23  2  0
 23 24  1  0
 23 33  1  0
 24 25  1  0
 25 26  2  0
 27 25  1  1
 27 28  1  0
 27 31  1  0
 28 29  1  0
 29 30  1  0
 30 31  1  0
 31 32  1  0
 33 34  1  0
 34 35  1  0
 36 37  2  0
 36 41  1  0
 37 38  1  0
 38 39  2  0
 39 40  1  0
 39 43  1  0
 40 41  2  0
 40 42  1  0
 42 43  1  0
M  END
