
     RDKit          3D

 43 47  0  0  0  0  0  0  0  0999 V2000
    1.3630   -2.9570   -3.9170 N   0  0  0  0  0  0  0  0  0  0  0  0
    2.3460   -1.9450   -3.8060 C   0  0  0  0  0  0  0  0  0  0  0  0
    3.3550   -1.9970   -4.5360 O   0  0  0  0  0  0  0  0  0  0  0  0
    2.1930   -0.8390   -2.8460 C   0  0  2  0  0  0  0  0  0  0  0  0
    3.2730   -0.0000   -2.9310 F   0  0  0  0  0  0  0  0  0  0  0  0
    2.0230   -1.3580   -1.4240 C   0  0  1  0  0  0  0  0  0  0  0  0
    3.1950   -2.1610   -1.0060 C   0  0  0  0  0  0  0  0  0  0  0  0
    4.4760   -1.3770   -0.8070 C   0  0  0  0  0  0  0  0  0  0  0  0
    4.2150   -0.2230    0.0670 N   0  0  0  0  0  0  0  0  0  0  0  0
    5.1500    0.0900    1.0590 C   0  0  0  0  0  0  0  0  0  0  0  0
    6.2210   -0.6400    1.0790 O   0  0  0  0  0  0  0  0  0  0  0  0
    5.0740    1.1200    2.0690 C   0  0  0  0  0  0  0  0  0  0  0  0
    5.9030    1.5230    3.0470 C   0  0  0  0  0  0  0  0  0  0  0  0
    7.1670    1.1010    3.4670 O   0  0  0  0  0  0  0  0  0  0  0  0
    5.0200    2.5180    3.4820 N   0  0  0  0  0  0  0  0  0  0  0  0
    4.1960    2.1440    2.5410 C   0  0  0  0  0  0  0  0  0  0  0  0
    3.0540    0.5040   -0.1960 C   0  0  0  0  0  0  0  0  0  0  0  0
    2.9950    1.7580   -0.1070 O   0  0  0  0  0  0  0  0  0  0  0  0
    1.8690   -0.1860   -0.5880 N   0  0  0  0  0  0  0  0  0  0  0  0
    0.5510    0.2530   -0.1970 C   0  0  0  0  0  0  0  0  0  0  0  0
   -0.4260   -0.4530   -0.6080 N   0  0  0  0  0  0  0  0  0  0  0  0
   -1.7520   -0.1600   -0.3100 N   0  0  0  0  0  0  0  0  0  0  0  0
   -2.8600   -0.9300   -0.7630 C   0  0  0  0  0  0  0  0  0  0  0  0
   -3.8300   -0.3780   -1.5920 C   0  0  0  0  0  0  0  0  0  0  0  0
   -4.9180   -1.0900   -2.0520 C   0  0  0  0  0  0  0  0  0  0  0  0
   -5.0810   -2.4130   -1.6930 C   0  0  0  0  0  0  0  0  0  0  0  0
   -6.5130   -3.4040   -2.2800 P   0  0  0  0  0  0  0  0  0  0  0  0
   -5.9780   -4.8090   -3.1440 O   0  0  0  0  0  0  0  0  0  0  0  0
   -7.5440   -3.8710   -0.9640 O   0  0  0  0  0  0  0  0  0  0  0  0
   -4.1210   -2.9660   -0.8710 C   0  0  0  0  0  0  0  0  0  0  0  0
   -3.0340   -2.2530   -0.4110 C   0  0  0  0  0  0  0  0  0  0  0  0
   -1.9560    1.0170    0.5180 C   0  0  0  0  0  0  0  0  0  0  0  0
   -3.1350    1.2630    0.7640 O   0  0  0  0  0  0  0  0  0  0  0  0
   -0.9310    1.8270    1.0100 N   0  0  0  0  0  0  0  0  0  0  0  0
   -0.9530    2.9440    1.8420 C   0  0  0  0  0  0  0  0  0  0  0  0
    0.2840    3.4110    2.0080 O   0  0  0  0  0  0  0  0  0  0  0  0
   -1.9620    3.6810    2.5370 C   0  0  0  0  0  0  0  0  0  0  0  0
   -3.2670    3.5660    2.6580 C   0  0  0  0  0  0  0  0  0  0  0  0
   -3.8360    4.6360    3.5250 C   0  0  0  0  0  0  0  0  0  0  0  0
   -5.0420    4.7980    3.8320 O   0  0  0  0  0  0  0  0  0  0  0  0
   -2.6830    5.4050    3.9050 C   0  0  0  0  0  0  0  0  0  0  0  0
   -1.6350    4.8750    3.3560 C   0  0  0  0  0  0  0  0  0  0  0  0
    0.4380    1.4500    0.5770 C   0  0  0  0  0  0  0  0  0  0  0  0
  1  2  1  0
  2  3  2  0
  2  4  1  0
  4  5  1  1
  4  6  1  0
  6  7  1  1
  6 19  1  0
  7  8  1  0
  8  9  1  0
  9 10  1  0
  9 17  1  0
 10 11  2  0
 10 12  1  0
 12 13  2  0
 12 16  1  0
 13 14  1  0
 13 15  1  0
 15 16  2  0
 17 18  2  0
 17 19  1  0
 19 20  1  0
 20 21  2  0
 20 43  1  0
 21 22  1  0
 22 23  1  0
 22 32  1  0
 23 24  2  0
 23 31  1  0
 24 25  1  0
 25 26  2  0
 26 27  1  0
 26 30  1  0
 27 28  1  0
 27 29  1  0
 30 31  2  0
 32 33  2  0
 32 34  1  0
 34 35  1  0
 34 43  1  0
 35 36  2  0
 35 37  1  0
 37 38  2  0
 37 42  1  0
 38 39  1  0
 39 40  2  0
 39 41  1  0
 41 42  2  0
M  END
