
     RDKit          3D

 42 46  0  0  0  0  0  0  0  0999 V2000
   10.7980   -1.6120   -0.4940 C   0  0  0  0  0  0  0  0  0  0  0  0
    9.5960   -2.0840   -1.0570 O   0  0  0  0  0  0  0  0  0  0  0  0
    8.3900   -1.4690   -0.7280 C   0  0  0  0  0  0  0  0  0  0  0  0
    8.3030   -0.2570   -0.2010 C   0  0  0  0  0  0  0  0  0  0  0  0
    7.0530    0.3900    0.1440 C   0  0  0  0  0  0  0  0  0  0  0  0
    6.7160    1.5560    0.6630 C   0  0  0  0  0  0  0  0  0  0  0  0
    5.3530    1.6520    0.7770 O   0  0  0  0  0  0  0  0  0  0  0  0
    4.7370    0.4500    0.2920 C   0  0  0  0  0  0  0  0  0  0  0  0
    3.4520    0.2630    0.2790 C   0  0  0  0  0  0  0  0  0  0  0  0
    2.6480   -0.8190   -0.1450 C   0  0  0  0  0  0  0  0  0  0  0  0
    1.3780   -0.9540   -0.1140 C   0  0  0  0  0  0  0  0  0  0  0  0
    0.2890   -0.1360    0.3370 C   0  0  0  0  0  0  0  0  0  0  0  0
    0.3450    0.9160    1.2120 C   0  0  0  0  0  0  0  0  0  0  0  0
   -0.8060    1.6480    1.4670 C   0  0  0  0  0  0  0  0  0  0  0  0
   -1.9790    1.3710    0.8960 N   0  0  0  0  0  0  0  0  0  0  0  0
   -2.1070    0.3500    0.0290 C   0  0  0  0  0  0  0  0  0  0  0  0
   -3.2800    0.0020   -0.6010 O   0  0  0  0  0  0  0  0  0  0  0  0
   -4.5140    0.5790   -0.4880 C   0  0  0  0  0  0  0  0  0  0  0  0
   -5.5550   -0.2360   -0.4170 C   0  0  0  0  0  0  0  0  0  0  0  0
   -5.3040   -1.6720   -0.4670 C   0  0  0  0  0  0  0  0  0  0  0  0
   -6.0680   -2.5350   -1.1380 N   0  0  0  0  0  0  0  0  0  0  0  0
   -5.5670   -3.7010   -0.9810 O   0  0  0  0  0  0  0  0  0  0  0  0
   -4.4830   -3.6650   -0.2200 C   0  0  0  0  0  0  0  0  0  0  0  0
   -3.7060   -4.7750    0.1400 N   0  0  0  0  0  0  0  0  0  0  0  0
   -4.2290   -5.8180    1.4910 P   0  0  0  0  0  0  0  0  0  0  0  0
   -5.4320   -4.9650    2.4130 O   0  0  0  0  0  0  0  0  0  0  0  0
   -5.0230   -7.2050    0.7520 O   0  0  0  0  0  0  0  0  0  0  0  0
   -4.3190   -2.3750    0.1050 N   0  0  0  0  0  0  0  0  0  0  0  0
   -4.6640    2.0190   -0.4510 C   0  0  0  0  0  0  0  0  0  0  0  0
   -5.9040    2.5930   -0.3330 C   0  0  0  0  0  0  0  0  0  0  0  0
   -6.0610    3.9910   -0.3030 C   0  0  0  0  0  0  0  0  0  0  0  0
   -4.9630    4.8020   -0.3920 C   0  0  0  0  0  0  0  0  0  0  0  0
   -5.0700    6.1840   -0.3660 O   0  0  0  0  0  0  0  0  0  0  0  0
   -6.2700    6.8340   -0.2490 N   0  0  0  0  0  0  0  0  0  0  0  0
   -3.7160    4.2010   -0.5100 C   0  0  0  0  0  0  0  0  0  0  0  0
   -2.5950    5.0330   -0.5990 O   0  0  0  0  0  0  0  0  0  0  0  0
   -3.6220    2.8690   -0.5340 N   0  0  0  0  0  0  0  0  0  0  0  0
   -0.9800   -0.3890   -0.2400 C   0  0  0  0  0  0  0  0  0  0  0  0
    5.8230   -0.3380   -0.1040 N   0  0  0  0  0  0  0  0  0  0  0  0
    5.9680   -1.6220   -0.6640 C   0  0  0  0  0  0  0  0  0  0  0  0
    7.1380   -2.1710   -0.9640 C   0  0  0  0  0  0  0  0  0  0  0  0
    7.1930   -3.4230   -1.5030 F   0  0  0  0  0  0  0  0  0  0  0  0
  1  2  1  0
  2  3  1  0
  3  4  2  0
  3 41  1  0
  4  5  1  0
  5  6  2  0
  5 39  1  0
  6  7  1  0
  7  8  1  0
  8  9  2  3
  8 39  1  0
  9 10  1  0
 10 11  2  3
 11 12  1  0
 12 13  2  0
 12 38  1  0
 13 14  1  0
 14 15  2  0
 15 16  1  0
 16 17  1  0
 16 38  2  0
 17 18  1  0
 18 19  2  3
 18 29  1  0
 19 20  1  0
 20 21  2  0
 20 28  1  0
 21 22  1  0
 22 23  1  0
 23 24  1  0
 23 28  2  0
 24 25  1  0
 25 26  1  0
 25 27  1  0
 29 30  2  0
 29 37  1  0
 30 31  1  0
 31 32  2  0
 32 33  1  0
 32 35  1  0
 33 34  1  0
 35 36  1  0
 35 37  2  0
 39 40  1  0
 40 41  2  0
 41 42  1  0
M  END
