
     RDKit          3D

 43 47  0  0  0  0  0  0  0  0999 V2000
    9.6530    3.2480    0.1330 N   0  0  0  0  0  0  0  0  0  0  0  0
    8.5470    2.4620    0.6040 C   0  0  0  0  0  0  0  0  0  0  0  0
    8.1960    1.3090   -0.0620 C   0  0  0  0  0  0  0  0  0  0  0  0
    7.1200    0.5310    0.3880 C   0  0  0  0  0  0  0  0  0  0  0  0
    6.3980    0.9040    1.4990 C   0  0  0  0  0  0  0  0  0  0  0  0
    5.2740    0.1210    2.0030 C   0  0  0  0  0  0  0  0  0  0  0  0
    4.6850    0.4960    3.0710 O   0  0  0  0  0  0  0  0  0  0  0  0
    4.7680   -1.0500    1.3940 N   0  0  0  0  0  0  0  0  0  0  0  0
    3.6650   -1.8260    1.8800 C   0  0  0  0  0  0  0  0  0  0  0  0
    2.3550   -1.1410    1.9620 C   0  0  0  0  0  0  0  0  0  0  0  0
    1.8290   -0.6380    0.7050 N   0  0  0  0  0  0  0  0  0  0  0  0
    0.9940   -1.4310   -0.1530 C   0  0  0  0  0  0  0  0  0  0  0  0
    1.1810   -1.1800   -1.6070 C   0  0  1  0  0  0  0  0  0  0  0  0
    2.0220    0.0120   -1.9640 C   0  0  0  0  0  0  0  0  0  0  0  0
    2.0780    1.0240   -1.0040 O   0  0  0  0  0  0  0  0  0  0  0  0
    2.1480    0.6900    0.3340 C   0  0  0  0  0  0  0  0  0  0  0  0
    2.4900    1.5600    1.2070 O   0  0  0  0  0  0  0  0  0  0  0  0
    1.9770   -2.3730   -2.1820 C   0  0  1  0  0  0  0  0  0  0  0  0
    3.0210   -2.7540   -1.3950 O   0  0  0  0  0  0  0  0  0  0  0  0
    0.9450   -3.4440   -2.2430 C   0  0  0  0  0  0  0  0  0  0  0  0
   -0.2310   -2.7190   -2.8530 C   0  0  0  0  0  0  0  0  0  0  0  0
   -0.1060   -1.2520   -2.3700 C   0  0  1  0  0  0  0  0  0  0  0  0
   -1.2930   -1.1250   -1.5080 N   0  0  0  0  0  0  0  0  0  0  0  0
   -2.1290   -0.1840   -1.5360 C   0  0  0  0  0  0  0  0  0  0  0  0
   -3.3250    0.2890   -0.9390 N   0  0  0  0  0  0  0  0  0  0  0  0
   -3.9520   -0.3990    0.1350 C   0  0  0  0  0  0  0  0  0  0  0  0
   -3.4670   -1.4580    0.5930 O   0  0  0  0  0  0  0  0  0  0  0  0
   -5.1220    0.0600    0.7250 O   0  0  0  0  0  0  0  0  0  0  0  0
   -5.7390   -0.6560    1.8060 C   0  0  0  0  0  0  0  0  0  0  0  0
   -6.9680    0.1360    2.1870 C   0  0  0  0  0  0  0  0  0  0  0  0
   -6.5800    1.5390    2.6320 C   0  0  0  0  0  0  0  0  0  0  0  0
   -7.8140    2.3310    3.0140 C   0  0  0  0  0  0  0  0  0  0  0  0
   -8.9480    2.4560    1.5440 P   0  0  0  0  0  0  0  0  0  0  0  0
   -7.9500    2.6500    0.1120 O   0  0  0  0  0  0  0  0  0  0  0  0
   -9.9150    1.0160    1.3840 O   0  0  0  0  0  0  0  0  0  0  0  0
   -3.7250    1.4860   -1.5900 C   0  0  0  0  0  0  0  0  0  0  0  0
   -2.8580    1.7610   -2.4900 N   0  0  0  0  0  0  0  0  0  0  0  0
   -1.8020    0.8740   -2.5620 C   0  0  1  0  0  0  0  0  0  0  0  0
   -0.7230    1.5710   -1.8760 F   0  0  0  0  0  0  0  0  0  0  0  0
   -1.2370    0.2840   -3.7690 C   0  0  0  0  0  0  0  0  0  0  0  0
   -0.1350   -0.5240   -3.5190 O   0  0  0  0  0  0  0  0  0  0  0  0
    6.7850    2.0650    2.1330 C   0  0  0  0  0  0  0  0  0  0  0  0
    7.8270    2.8050    1.6850 N   0  0  0  0  0  0  0  0  0  0  0  0
  1  2  1  0
  2  3  2  0
  2 43  1  0
  3  4  1  0
  4  5  2  0
  5  6  1  0
  5 42  1  0
  6  7  2  0
  6  8  1  0
  8  9  1  0
  9 10  1  0
 10 11  1  0
 11 12  1  0
 11 16  1  0
 13 12  1  1
 13 14  1  0
 13 18  1  0
 13 22  1  0
 14 15  1  0
 15 16  1  0
 16 17  2  0
 18 19  1  1
 18 20  1  0
 20 21  1  0
 22 21  1  6
 22 23  1  0
 22 41  1  0
 23 24  2  0
 24 25  1  0
 24 38  1  0
 25 26  1  0
 25 36  1  0
 26 27  2  0
 26 28  1  0
 28 29  1  0
 29 30  1  0
 30 31  1  0
 31 32  1  0
 32 33  1  0
 33 34  1  0
 33 35  1  0
 36 37  2  0
 37 38  1  0
 38 39  1  1
 38 40  1  0
 40 41  1  0
 42 43  2  0
M  END
