
     RDKit          3D

 42 45  0  0  0  0  0  0  0  0999 V2000
   -1.8210   -0.6470    3.2570 C   0  0  0  0  0  0  0  0  0  0  0  0
   -1.3280   -1.9490    2.8790 C   0  0  2  0  0  0  0  0  0  0  0  0
    0.0840   -2.1280    3.4680 C   0  0  0  0  0  0  0  0  0  0  0  0
    1.1810   -1.6570    2.5570 C   0  0  0  0  0  0  0  0  0  0  0  0
    1.0750   -2.3260    1.2820 N   0  0  0  0  0  0  0  0  0  0  0  0
    2.0950   -2.0530    0.3590 C   0  0  0  0  0  0  0  0  0  0  0  0
    1.8100   -1.3790   -0.9340 C   0  0  2  0  0  0  0  0  0  0  0  0
    1.4910   -2.1550   -2.1390 C   0  0  0  0  0  0  0  0  0  0  0  0
    2.5720   -1.5630   -2.8640 N   0  0  0  0  0  0  0  0  0  0  0  0
    2.3320   -0.3600   -3.5980 C   0  0  0  0  0  0  0  0  0  0  0  0
    3.5420   -0.0110   -4.4210 C   0  0  0  0  0  0  0  0  0  0  0  0
    5.0820    0.2890   -3.4930 P   0  0  0  0  0  0  0  0  0  0  0  0
    5.6470    1.9150   -3.6360 O   0  0  0  0  0  0  0  0  0  0  0  0
    6.3720   -0.7920   -3.9030 O   0  0  0  0  0  0  0  0  0  0  0  0
    3.2350   -1.3120   -1.6210 C   0  0  0  0  0  0  0  0  0  0  0  0
    1.2780   -0.1030   -0.7950 O   0  0  0  0  0  0  0  0  0  0  0  0
    0.7980    0.7450    0.1270 C   0  0  0  0  0  0  0  0  0  0  0  0
    1.6880    1.6300    0.7960 C   0  0  0  0  0  0  0  0  0  0  0  0
    1.3170    2.4980    1.7320 N   0  0  0  0  0  0  0  0  0  0  0  0
    0.0180    2.5630    2.0860 C   0  0  0  0  0  0  0  0  0  0  0  0
   -0.3940    3.4430    3.0590 O   0  0  0  0  0  0  0  0  0  0  0  0
   -1.6790    3.6510    3.5550 C   0  0  0  0  0  0  0  0  0  0  0  0
   -1.6580    4.6890    4.6500 C   0  0  0  0  0  0  0  0  0  0  0  0
   -2.7490    4.9690    5.1910 O   0  0  0  0  0  0  0  0  0  0  0  0
   -0.4770    5.2860    5.0160 O   0  0  0  0  0  0  0  0  0  0  0  0
   -0.7920    1.7550    1.4660 N   0  0  0  0  0  0  0  0  0  0  0  0
   -0.5500    0.8360    0.5050 C   0  0  0  0  0  0  0  0  0  0  0  0
   -1.6840    0.1820   -0.0480 N   0  0  0  0  0  0  0  0  0  0  0  0
   -2.9090    1.0150   -0.2880 C   0  0  0  0  0  0  0  0  0  0  0  0
   -2.7830    2.4430    0.0300 C   0  0  0  0  0  0  0  0  0  0  0  0
   -1.7250    3.0810   -0.7270 N   0  0  0  0  0  0  0  0  0  0  0  0
   -1.4260    4.4720   -0.5910 C   0  0  0  0  0  0  0  0  0  0  0  0
   -2.0890    5.1790    0.2010 O   0  0  0  0  0  0  0  0  0  0  0  0
   -1.9210   -1.1860   -0.4630 C   0  0  0  0  0  0  0  0  0  0  0  0
   -1.7610   -2.2770    0.3050 C   0  0  0  0  0  0  0  0  0  0  0  0
   -2.1080   -3.5580   -0.4780 C   0  0  0  0  0  0  0  0  0  0  0  0
   -1.4380   -3.4660   -1.7010 O   0  0  0  0  0  0  0  0  0  0  0  0
   -2.2210   -2.6520   -2.4880 C   0  0  0  0  0  0  0  0  0  0  0  0
   -2.4630   -1.3420   -1.8610 C   0  0  2  0  0  0  0  0  0  0  0  0
   -1.9290   -0.3150   -2.8440 C   0  0  0  0  0  0  0  0  0  0  0  0
   -3.8710   -1.2060   -1.7880 F   0  0  0  0  0  0  0  0  0  0  0  0
   -1.3880   -2.5160    1.6030 N   0  0  0  0  0  0  0  0  0  0  0  0
  2  1  1  6
  2  3  1  0
  2 42  1  0
  3  4  1  0
  4  5  1  0
  5  6  1  0
  7  6  1  1
  7  8  1  0
  7 15  1  0
  7 16  1  0
  8  9  1  0
  9 10  1  0
  9 15  1  0
 10 11  1  0
 11 12  1  0
 12 13  1  0
 12 14  1  0
 16 17  1  0
 17 18  2  0
 17 27  1  0
 18 19  1  0
 19 20  2  0
 20 21  1  0
 20 26  1  0
 21 22  1  0
 22 23  1  0
 23 24  2  0
 23 25  1  0
 26 27  2  0
 27 28  1  0
 28 29  1  0
 28 34  1  0
 29 30  1  0
 30 31  1  0
 31 32  1  0
 32 33  2  0
 34 35  2  0
 34 39  1  0
 35 36  1  0
 35 42  1  0
 36 37  1  0
 37 38  1  0
 38 39  1  0
 39 40  1  6
 39 41  1  0
M  END
