
     RDKit          3D

 43 47  0  0  0  0  0  0  0  0999 V2000
   -7.6980    4.0730    1.6010 C   0  0  0  0  0  0  0  0  0  0  0  0
   -6.4170    4.2780    0.9440 N   0  0  0  0  0  0  0  0  0  0  0  0
   -5.5810    3.1350    1.2670 C   0  0  1  0  0  0  0  0  0  0  0  0
   -6.1970    1.8790    0.7200 C   0  0  0  0  0  0  0  0  0  0  0  0
   -5.1140    0.8040    0.7160 C   0  0  0  0  0  0  0  0  0  0  0  0
   -4.2000    1.1250   -0.4470 C   0  0  2  0  0  0  0  0  0  0  0  0
   -5.0090    0.8240   -1.7080 C   0  0  0  0  0  0  0  0  0  0  0  0
   -3.1100    0.2530   -0.4330 O   0  0  0  0  0  0  0  0  0  0  0  0
   -3.2350   -1.0770   -0.5480 C   0  0  0  0  0  0  0  0  0  0  0  0
   -4.4360   -1.5680   -0.6890 O   0  0  0  0  0  0  0  0  0  0  0  0
   -2.2450   -2.1070   -0.5360 N   0  0  0  0  0  0  0  0  0  0  0  0
   -2.6870   -3.4740   -0.3120 C   0  0  0  0  0  0  0  0  0  0  0  0
   -1.6090   -4.4250   -0.0620 C   0  0  0  0  0  0  0  0  0  0  0  0
   -1.8930   -5.8050    0.2750 N   0  0  0  0  0  0  0  0  0  0  0  0
   -0.8600   -6.7710    0.2720 C   0  0  0  0  0  0  0  0  0  0  0  0
   -0.9630   -8.0710    0.5600 N   0  0  0  0  0  0  0  0  0  0  0  0
    0.2540   -8.6310    0.4370 C   0  0  0  0  0  0  0  0  0  0  0  0
    1.0970   -7.6080    0.0600 C   0  0  0  0  0  0  0  0  0  0  0  0
    0.3850   -6.5350   -0.0210 O   0  0  0  0  0  0  0  0  0  0  0  0
   -0.3770   -4.1240   -0.1170 N   0  0  0  0  0  0  0  0  0  0  0  0
    0.0890   -2.8220   -0.4130 C   0  0  0  0  0  0  0  0  0  0  0  0
    1.2640   -2.2850   -0.5500 O   0  0  0  0  0  0  0  0  0  0  0  0
    1.1760   -1.0250   -0.8430 C   0  0  0  0  0  0  0  0  0  0  0  0
    1.9290    0.1160   -1.1220 C   0  0  0  0  0  0  0  0  0  0  0  0
    3.4420    0.1960   -1.1620 C   0  0  1  0  0  0  0  0  0  0  0  0
    3.8750   -0.7040   -2.1570 O   0  0  0  0  0  0  0  0  0  0  0  0
    3.7920    1.4480   -1.5050 F   0  0  0  0  0  0  0  0  0  0  0  0
    3.9120   -0.2120    0.1890 C   0  0  0  0  0  0  0  0  0  0  0  0
    5.2900   -0.2970    0.2650 O   0  0  0  0  0  0  0  0  0  0  0  0
    6.1550    0.7400    0.1280 C   0  0  0  0  0  0  0  0  0  0  0  0
    5.7380    1.8970   -0.0740 O   0  0  0  0  0  0  0  0  0  0  0  0
    7.5780    0.5580    0.2090 N   0  0  0  0  0  0  0  0  0  0  0  0
    8.4530    1.6740    0.0650 C   0  0  0  0  0  0  0  0  0  0  0  0
    8.2420    2.7100    1.1220 C   0  0  0  0  0  0  0  0  0  0  0  0
    9.4710    4.0850    0.7750 P   0  0  0  0  0  0  0  0  0  0  0  0
   10.9150    3.8030    1.6670 O   0  0  0  0  0  0  0  0  0  0  0  0
    9.8200    4.0970   -0.9280 O   0  0  0  0  0  0  0  0  0  0  0  0
    1.0340    1.1200   -1.3510 C   0  0  0  0  0  0  0  0  0  0  0  0
   -0.2580    0.5780   -1.2080 C   0  0  0  0  0  0  0  0  0  0  0  0
   -0.1330   -0.7040   -0.9020 N   0  0  0  0  0  0  0  0  0  0  0  0
   -0.8680   -1.8230   -0.6300 C   0  0  0  0  0  0  0  0  0  0  0  0
   -3.8390    2.5780   -0.4790 C   0  0  0  0  0  0  0  0  0  0  0  0
   -4.1770    3.2900    0.8110 C   0  0  0  0  0  0  0  0  0  0  0  0
  1  2  1  0
  3  2  1  6
  3  4  1  0
  3 43  1  0
  4  5  1  0
  5  6  1  0
  6  7  1  6
  6  8  1  0
  6 42  1  0
  8  9  1  0
  9 10  2  0
  9 11  1  0
 11 12  1  0
 11 41  1  0
 12 13  1  0
 13 14  1  0
 13 20  2  0
 14 15  1  0
 15 16  2  0
 15 19  1  0
 16 17  1  0
 17 18  2  0
 18 19  1  0
 20 21  1  0
 21 22  1  0
 21 41  2  0
 22 23  1  0
 23 24  2  0
 23 40  1  0
 24 25  1  0
 24 38  1  0
 25 26  1  6
 25 27  1  0
 25 28  1  0
 28 29  1  0
 29 30  1  0
 30 31  2  0
 30 32  1  0
 32 33  1  0
 33 34  1  0
 34 35  1  0
 35 36  1  0
 35 37  1  0
 38 39  2  0
 39 40  1  0
 40 41  1  0
 42 43  1  0
M  END
