
     RDKit          3D

 43 49  0  0  0  0  0  0  0  0999 V2000
    6.9320   -0.1210    2.7200 O   0  0  0  0  0  0  0  0  0  0  0  0
    5.8770   -0.5760    2.1250 C   0  0  0  0  0  0  0  0  0  0  0  0
    5.0760   -1.3470    2.8930 O   0  0  0  0  0  0  0  0  0  0  0  0
    5.7230   -0.1850    0.7380 C   0  0  0  0  0  0  0  0  0  0  0  0
    6.5670    0.6090    0.0750 O   0  0  0  0  0  0  0  0  0  0  0  0
    6.1800    0.7920   -1.1560 C   0  0  0  0  0  0  0  0  0  0  0  0
    6.8070    1.5690   -2.1760 N   0  0  0  0  0  0  0  0  0  0  0  0
    8.0250    0.8650   -3.2820 P   0  0  0  0  0  0  0  0  0  0  0  0
    8.2520   -0.8240   -2.9300 O   0  0  0  0  0  0  0  0  0  0  0  0
    5.0060    0.0810   -1.3370 C   0  0  0  0  0  0  0  0  0  0  0  0
    4.7320   -0.5400   -0.1070 C   0  0  0  0  0  0  0  0  0  0  0  0
    3.5900   -1.4180    0.1580 C   0  0  0  0  0  0  0  0  0  0  0  0
    3.6900   -2.1170    1.1680 O   0  0  0  0  0  0  0  0  0  0  0  0
    2.4210   -1.5060   -0.6540 N   0  0  0  0  0  0  0  0  0  0  0  0
    1.2340   -2.1930   -0.1080 C   0  0  0  0  0  0  0  0  0  0  0  0
    0.0930   -1.8630   -1.0820 C   0  0  0  0  0  0  0  0  0  0  0  0
    0.6450   -0.5620   -1.6690 C   0  0  1  0  0  0  0  0  0  0  0  0
    0.7370    0.3550   -0.5770 N   0  0  0  0  0  0  0  0  0  0  0  0
   -0.3810    0.8150    0.1680 C   0  0  0  0  0  0  0  0  0  0  0  0
   -1.6840    0.4550   -0.0550 N   0  0  0  0  0  0  0  0  0  0  0  0
   -2.4280    1.1130    0.8700 C   0  0  0  0  0  0  0  0  0  0  0  0
   -3.7870    1.1900    1.1870 C   0  0  0  0  0  0  0  0  0  0  0  0
   -4.6910    0.4530    0.4390 O   0  0  0  0  0  0  0  0  0  0  0  0
   -6.0600    0.5500    0.7840 C   0  0  0  0  0  0  0  0  0  0  0  0
   -6.8950   -0.2960   -0.1080 C   0  0  0  0  0  0  0  0  0  0  0  0
   -7.1280   -1.5980    0.2770 C   0  0  0  0  0  0  0  0  0  0  0  0
   -7.9110   -2.3710   -0.5720 C   0  0  0  0  0  0  0  0  0  0  0  0
   -8.4220   -1.8310   -1.7470 C   0  0  0  0  0  0  0  0  0  0  0  0
   -9.2040   -2.6330   -2.5770 O   0  0  0  0  0  0  0  0  0  0  0  0
   -8.1520   -0.5610   -2.0510 N   0  0  0  0  0  0  0  0  0  0  0  0
   -7.3980    0.2400   -1.2680 C   0  0  0  0  0  0  0  0  0  0  0  0
   -4.1900    1.9850    2.2220 N   0  0  0  0  0  0  0  0  0  0  0  0
   -3.3400    2.7120    2.9680 C   0  0  0  0  0  0  0  0  0  0  0  0
   -3.7620    3.4920    3.9870 F   0  0  0  0  0  0  0  0  0  0  0  0
   -1.9850    2.6430    2.6600 C   0  0  0  0  0  0  0  0  0  0  0  0
   -1.5790    1.8550    1.6330 C   0  0  0  0  0  0  0  0  0  0  0  0
   -0.3310    1.6740    1.2050 N   0  0  0  0  0  0  0  0  0  0  0  0
    0.7280    2.4050    1.9190 C   0  0  0  0  0  0  0  0  0  0  0  0
    0.3150    2.7960    3.3020 C   0  0  0  0  0  0  0  0  0  0  0  0
   -1.0040    3.3610    3.3720 O   0  0  0  0  0  0  0  0  0  0  0  0
    2.0660   -1.0730   -1.9740 C   0  0  1  0  0  0  0  0  0  0  0  0
    2.8230    0.0480   -2.5670 C   0  0  0  0  0  0  0  0  0  0  0  0
    4.2300   -0.0220   -2.4780 O   0  0  0  0  0  0  0  0  0  0  0  0
  1  2  2  0
  2  3  1  0
  2  4  1  0
  4  5  1  0
  4 11  2  0
  5  6  1  0
  6  7  1  0
  6 10  2  0
  7  8  1  0
  8  9  1  0
 10 11  1  0
 10 43  1  0
 11 12  1  0
 12 13  2  0
 12 14  1  0
 14 15  1  0
 14 41  1  0
 15 16  1  0
 16 17  1  0
 17 18  1  1
 17 41  1  0
 18 19  1  0
 19 20  2  0
 19 37  1  0
 20 21  1  0
 21 22  2  0
 21 36  1  0
 22 23  1  0
 22 32  1  0
 23 24  1  0
 24 25  1  0
 25 26  2  0
 25 31  1  0
 26 27  1  0
 27 28  2  0
 28 29  1  0
 28 30  1  0
 30 31  2  0
 32 33  2  0
 33 34  1  0
 33 35  1  0
 35 36  2  0
 35 40  1  0
 36 37  1  0
 37 38  1  0
 38 39  1  0
 39 40  1  0
 41 42  1  1
 42 43  1  0
M  END
