
     RDKit          3D

 43 48  0  0  0  0  0  0  0  0999 V2000
  -10.1970    2.4710   -1.7090 N   0  0  0  0  0  0  0  0  0  0  0  0
   -9.4370    1.8940   -0.6660 C   0  0  0  0  0  0  0  0  0  0  0  0
  -10.0130    1.7370    0.5440 N   0  0  0  0  0  0  0  0  0  0  0  0
   -9.3330    1.1900    1.5770 C   0  0  0  0  0  0  0  0  0  0  0  0
   -8.0620    0.7890    1.4250 N   0  0  0  0  0  0  0  0  0  0  0  0
   -7.4110    0.9120    0.2420 C   0  0  0  0  0  0  0  0  0  0  0  0
   -8.1300    1.4740   -0.8000 C   0  0  0  0  0  0  0  0  0  0  0  0
   -7.2990    1.4950   -1.8520 N   0  0  0  0  0  0  0  0  0  0  0  0
   -6.1090    0.9610   -1.4640 C   0  0  0  0  0  0  0  0  0  0  0  0
   -6.1700    0.5990   -0.1730 N   0  0  0  0  0  0  0  0  0  0  0  0
   -5.1290   -0.0070    0.6320 C   0  0  2  0  0  0  0  0  0  0  0  0
   -3.9060    0.0410   -0.0040 O   0  0  0  0  0  0  0  0  0  0  0  0
   -3.1010   -0.9010    0.5960 C   0  0  2  0  0  0  0  0  0  0  0  0
   -2.1910   -1.4930   -0.4830 C   0  0  0  0  0  0  0  0  0  0  0  0
   -1.4130   -0.5220   -1.0560 O   0  0  0  0  0  0  0  0  0  0  0  0
   -0.3900   -0.9660   -2.2270 P   0  0  0  0  0  0  0  0  0  0  0  0
   -0.2430   -0.0470   -3.6050 O   0  0  0  0  0  0  0  0  0  0  0  0
    0.3730   -2.4620   -2.2050 O   0  0  0  0  0  0  0  0  0  0  0  0
    0.8680   -0.2800   -1.6190 O   0  0  0  0  0  0  0  0  0  0  0  0
    0.9910    0.9820   -1.1530 C   0  0  0  0  0  0  0  0  0  0  0  0
   -0.0580    1.7120   -1.2160 O   0  0  0  0  0  0  0  0  0  0  0  0
    2.2200    1.4920   -0.6160 C   0  0  0  0  0  0  0  0  0  0  0  0
    2.3520    2.7780   -0.1300 C   0  0  0  0  0  0  0  0  0  0  0  0
    3.5680    3.1830    0.3620 C   0  0  0  0  0  0  0  0  0  0  0  0
    4.6690    2.3290    0.3810 C   0  0  0  0  0  0  0  0  0  0  0  0
    4.5410    1.0460   -0.1030 C   0  0  0  0  0  0  0  0  0  0  0  0
    5.6710    0.1270   -0.1020 C   0  0  0  0  0  0  0  0  0  0  0  0
    5.7230   -1.1460   -0.5310 N   0  0  0  0  0  0  0  0  0  0  0  0
    6.9380   -1.6110   -0.3510 O   0  0  0  0  0  0  0  0  0  0  0  0
    7.6960   -0.7000    0.1810 C   0  0  0  0  0  0  0  0  0  0  0  0
    9.1110   -0.8720    0.5190 C   0  0  0  0  0  0  0  0  0  0  0  0
    9.7600   -2.0660    0.2800 C   0  0  0  0  0  0  0  0  0  0  0  0
   11.1030   -2.2470    0.5960 C   0  0  0  0  0  0  0  0  0  0  0  0
   11.8320   -1.2240    1.1640 C   0  0  0  0  0  0  0  0  0  0  0  0
   11.1870   -0.0300    1.4050 C   0  0  0  0  0  0  0  0  0  0  0  0
    9.8550    0.1400    1.0880 C   0  0  0  0  0  0  0  0  0  0  0  0
    9.2200    1.3300    1.3290 F   0  0  0  0  0  0  0  0  0  0  0  0
    6.9270    0.3880    0.3430 N   0  0  0  0  0  0  0  0  0  0  0  0
    3.3280    0.6740   -0.5820 C   0  0  0  0  0  0  0  0  0  0  0  0
   -3.9690   -1.9510    1.2210 C   0  0  1  0  0  0  0  0  0  0  0  0
   -3.9070   -1.7940    2.6150 O   0  0  0  0  0  0  0  0  0  0  0  0
   -5.3740   -1.4880    0.8120 C   0  0  1  0  0  0  0  0  0  0  0  0
   -6.2710   -1.6900    1.8390 O   0  0  0  0  0  0  0  0  0  0  0  0
  1  2  1  0
  2  3  2  0
  2  7  1  0
  3  4  1  0
  4  5  2  0
  5  6  1  0
  6  7  2  0
  6 10  1  0
  7  8  1  0
  8  9  2  0
  9 10  1  0
 11 10  1  6
 11 12  1  0
 11 42  1  0
 12 13  1  0
 13 14  1  6
 13 40  1  0
 14 15  1  0
 15 16  1  0
 16 17  1  0
 16 18  1  0
 16 19  1  0
 19 20  1  0
 20 21  2  0
 20 22  1  0
 22 23  2  0
 22 39  1  0
 23 24  1  0
 24 25  2  0
 25 26  1  0
 26 27  1  0
 26 39  2  0
 27 28  2  0
 27 38  1  0
 28 29  1  0
 29 30  1  0
 30 31  1  0
 30 38  2  0
 31 32  2  0
 31 36  1  0
 32 33  1  0
 33 34  2  0
 34 35  1  0
 35 36  2  0
 36 37  1  0
 40 41  1  1
 40 42  1  0
 42 43  1  1
M  END
