
     RDKit          3D

 22 24  0  0  0  0  0  0  0  0999 V2000
    6.0760    0.0370    1.5710 C   0  0  0  0  0  0  0  0  0  0  0  0
    4.7860   -0.2490    2.1680 N   0  0  0  0  0  0  0  0  0  0  0  0
    3.6140   -0.0810    1.3580 C   0  0  0  0  0  0  0  0  0  0  0  0
    2.3540   -0.3350    1.8600 C   0  0  0  0  0  0  0  0  0  0  0  0
    1.2160   -0.1810    1.1040 C   0  0  0  0  0  0  0  0  0  0  0  0
    1.3110    0.2390   -0.2030 C   0  0  0  0  0  0  0  0  0  0  0  0
    0.0740    0.3980   -1.0010 C   0  0  0  0  0  0  0  0  0  0  0  0
   -1.1180    0.1250   -0.4220 N   0  0  0  0  0  0  0  0  0  0  0  0
   -2.3070    0.2270   -1.0280 C   0  0  0  0  0  0  0  0  0  0  0  0
   -3.5430   -0.0920   -0.3150 C   0  0  0  0  0  0  0  0  0  0  0  0
   -4.7590    0.0030   -0.9050 C   0  0  0  0  0  0  0  0  0  0  0  0
   -5.9520   -0.2990   -0.2350 C   0  0  0  0  0  0  0  0  0  0  0  0
   -5.8350   -0.7050    1.0740 C   0  0  0  0  0  0  0  0  0  0  0  0
   -6.9900   -0.9990    1.7300 F   0  0  0  0  0  0  0  0  0  0  0  0
   -4.6360   -0.8010    1.6650 N   0  0  0  0  0  0  0  0  0  0  0  0
   -3.5020   -0.5090    1.0120 C   0  0  0  0  0  0  0  0  0  0  0  0
   -2.2810    0.6440   -2.3400 C   0  0  0  0  0  0  0  0  0  0  0  0
   -1.0800    0.9270   -2.9460 C   0  0  0  0  0  0  0  0  0  0  0  0
   -1.0110    1.3140   -4.1550 O   0  0  0  0  0  0  0  0  0  0  0  0
    0.0740    0.8020   -2.2750 N   0  0  0  0  0  0  0  0  0  0  0  0
    2.5420    0.5000   -0.7340 C   0  0  0  0  0  0  0  0  0  0  0  0
    3.7010    0.3390    0.0500 C   0  0  0  0  0  0  0  0  0  0  0  0
  1  2  1  0
  2  3  1  0
  3  4  2  0
  3 22  1  0
  4  5  1  0
  5  6  2  0
  6  7  1  0
  6 21  1  0
  7  8  2  0
  7 20  1  0
  8  9  1  0
  9 10  1  0
  9 17  2  0
 10 11  2  0
 10 16  1  0
 11 12  1  0
 12 13  2  0
 13 14  1  0
 13 15  1  0
 15 16  2  0
 17 18  1  0
 18 19  2  0
 18 20  1  0
 21 22  2  0
M  END
