
     RDKit          3D

 26 28  0  0  0  0  0  0  0  0999 V2000
   -4.2540   -2.9290   -0.0450 C   0  0  0  0  0  0  0  0  0  0  0  0
   -4.5860   -1.4930    0.1330 C   0  0  0  0  0  0  0  0  0  0  0  0
   -5.7890   -0.9030    0.1580 N   0  0  0  0  0  0  0  0  0  0  0  0
   -5.6830    0.3880    0.3350 N   0  0  0  0  0  0  0  0  0  0  0  0
   -4.3850    0.6750    0.4320 C   0  0  0  0  0  0  0  0  0  0  0  0
   -3.7340    1.8650    0.6210 C   0  0  0  0  0  0  0  0  0  0  0  0
   -2.3430    1.8810    0.6870 C   0  0  0  0  0  0  0  0  0  0  0  0
   -1.5730    0.7630    0.5720 C   0  0  0  0  0  0  0  0  0  0  0  0
   -0.1510    0.7130    0.6360 N   0  0  0  0  0  0  0  0  0  0  0  0
    0.7190    1.7790    0.9150 C   0  0  0  0  0  0  0  0  0  0  0  0
    0.2390    2.9150    1.1470 O   0  0  0  0  0  0  0  0  0  0  0  0
    2.1970    1.7020    0.9670 C   0  0  1  0  0  0  0  0  0  0  0  0
    2.5720    1.7590    2.4590 C   0  0  0  0  0  0  0  0  0  0  0  0
    2.6250    0.4410    0.5240 O   0  0  0  0  0  0  0  0  0  0  0  0
    2.4150   -0.0510   -0.7550 C   0  0  0  0  0  0  0  0  0  0  0  0
    1.8130    0.6530   -1.5990 O   0  0  0  0  0  0  0  0  0  0  0  0
    2.8600   -1.3490   -1.1650 C   0  0  0  0  0  0  0  0  0  0  0  0
    2.8180   -2.0880   -2.2740 C   0  0  0  0  0  0  0  0  0  0  0  0
    3.3480   -3.3110   -2.3380 C   0  0  0  0  0  0  0  0  0  0  0  0
    3.9590   -3.8130   -1.1990 C   0  0  0  0  0  0  0  0  0  0  0  0
    3.7650   -2.4820   -0.0000 S   0  0  0  0  0  0  0  0  0  0  0  0
    2.8580    2.7590    0.2100 C   0  0  0  0  0  0  0  0  0  0  0  0
    3.7880    2.4310   -0.8060 N   0  0  0  0  0  0  0  0  0  0  0  0
    2.6260    3.9690    0.4320 O   0  0  0  0  0  0  0  0  0  0  0  0
   -2.2770   -0.4440    0.3780 C   0  0  0  0  0  0  0  0  0  0  0  0
   -3.6370   -0.4840    0.3110 C   0  0  0  0  0  0  0  0  0  0  0  0
  1  2  1  0
  2  3  2  0
  2 26  1  0
  3  4  1  0
  4  5  1  0
  5  6  2  0
  5 26  1  0
  6  7  1  0
  7  8  2  0
  8  9  1  0
  8 25  1  0
  9 10  1  0
 10 11  2  0
 10 12  1  0
 12 13  1  1
 12 14  1  0
 12 22  1  0
 14 15  1  0
 15 16  2  0
 15 17  1  0
 17 18  2  0
 17 21  1  0
 18 19  1  0
 19 20  2  0
 20 21  1  0
 22 23  1  0
 22 24  2  0
 25 26  2  0
M  END
