
     RDKit          3D

 22 24  0  0  0  0  0  0  0  0999 V2000
    4.0130   -1.3730    1.1110 N   0  0  0  0  0  0  0  0  0  0  0  0
    4.8390   -0.5510    0.2840 C   0  0  0  0  0  0  0  0  0  0  0  0
    5.9440   -1.1290   -0.2840 N   0  0  0  0  0  0  0  0  0  0  0  0
    6.7510   -0.4260   -1.0620 C   0  0  0  0  0  0  0  0  0  0  0  0
    6.4780    0.9030   -1.3040 C   0  0  0  0  0  0  0  0  0  0  0  0
    5.3790    1.4980   -0.7450 C   0  0  0  0  0  0  0  0  0  0  0  0
    4.5180    0.7670    0.0780 C   0  0  0  0  0  0  0  0  0  0  0  0
    3.4140    1.3450    0.6470 O   0  0  0  0  0  0  0  0  0  0  0  0
    2.0980    0.9920    0.4920 C   0  0  0  0  0  0  0  0  0  0  0  0
    1.4090    1.4210   -0.6460 C   0  0  0  0  0  0  0  0  0  0  0  0
    0.1060    1.0730   -0.7980 C   0  0  0  0  0  0  0  0  0  0  0  0
   -0.5980    0.3060    0.1200 C   0  0  0  0  0  0  0  0  0  0  0  0
   -1.9660   -0.0330   -0.0860 N   0  0  0  0  0  0  0  0  0  0  0  0
   -2.5990    0.4460   -1.2710 C   0  0  0  0  0  0  0  0  0  0  0  0
   -4.0380    0.1630   -1.4210 C   0  0  0  0  0  0  0  0  0  0  0  0
   -4.5930   -0.9300   -0.5870 C   0  0  2  0  0  0  0  0  0  0  0  0
   -6.0970   -0.7520   -0.5010 C   0  0  0  0  0  0  0  0  0  0  0  0
   -6.3220    0.4860    0.0780 F   0  0  0  0  0  0  0  0  0  0  0  0
   -4.0740   -0.9360    0.8300 C   0  0  0  0  0  0  0  0  0  0  0  0
   -2.5990   -0.8370    0.9300 C   0  0  0  0  0  0  0  0  0  0  0  0
    0.0920   -0.0900    1.2020 N   0  0  0  0  0  0  0  0  0  0  0  0
    1.4030    0.2320    1.4040 C   0  0  0  0  0  0  0  0  0  0  0  0
  1  2  1  0
  2  3  2  0
  2  7  1  0
  3  4  1  0
  4  5  2  0
  5  6  1  0
  6  7  2  0
  7  8  1  0
  8  9  1  0
  9 10  2  0
  9 22  1  0
 10 11  1  0
 11 12  2  0
 12 13  1  0
 12 21  1  0
 13 14  1  0
 13 20  1  0
 14 15  1  0
 15 16  1  0
 16 17  1  1
 16 19  1  0
 17 18  1  0
 19 20  1  0
 21 22  2  0
M  END
