
     RDKit          3D

 25 27  0  0  0  0  0  0  0  0999 V2000
    1.8860   -0.2130    1.3530 O   0  0  0  0  0  0  0  0  0  0  0  0
    1.6720    0.1870    0.1980 C   0  0  0  0  0  0  0  0  0  0  0  0
    2.7670    0.4100   -0.6900 N   0  0  0  0  0  0  0  0  0  0  0  0
    4.1140    0.1860   -0.3010 C   0  0  0  0  0  0  0  0  0  0  0  0
    4.5380    0.2490    0.9980 C   0  0  0  0  0  0  0  0  0  0  0  0
    5.8520   -0.0370    1.3700 C   0  0  0  0  0  0  0  0  0  0  0  0
    6.7940   -0.4060    0.4230 C   0  0  0  0  0  0  0  0  0  0  0  0
    8.0990   -0.7010    0.7410 O   0  0  0  0  0  0  0  0  0  0  0  0
    6.3760   -0.4730   -0.9030 C   0  0  0  0  0  0  0  0  0  0  0  0
    5.0900   -0.1870   -1.2430 C   0  0  0  0  0  0  0  0  0  0  0  0
    0.3210    0.4440   -0.3150 C   0  0  0  0  0  0  0  0  0  0  0  0
    0.1270    0.8970   -1.4410 O   0  0  0  0  0  0  0  0  0  0  0  0
   -0.8300    0.1180    0.6060 C   0  0  1  0  0  0  0  0  0  0  0  0
   -1.1090    1.3380    1.4090 C   0  0  0  0  0  0  0  0  0  0  0  0
   -2.7170    1.0390    2.2520 S   0  0  0  0  0  0  0  0  0  0  0  0
   -3.1670   -0.6660    1.7900 C   0  0  0  0  0  0  0  0  0  0  0  0
   -3.0790   -0.7630    0.3130 C   0  0  1  0  0  0  0  0  0  0  0  0
   -3.1340   -2.1280   -0.0110 O   0  0  0  0  0  0  0  0  0  0  0  0
   -4.3060   -0.1570   -0.2800 C   0  0  0  0  0  0  0  0  0  0  0  0
   -4.3320    0.2720   -1.5980 C   0  0  0  0  0  0  0  0  0  0  0  0
   -5.4580    0.8200   -2.0950 N   0  0  0  0  0  0  0  0  0  0  0  0
   -6.5670    0.9630   -1.3480 C   0  0  0  0  0  0  0  0  0  0  0  0
   -6.5130    0.5260   -0.0350 C   0  0  0  0  0  0  0  0  0  0  0  0
   -5.3930   -0.0170    0.4570 N   0  0  0  0  0  0  0  0  0  0  0  0
   -1.8960   -0.2480   -0.2890 N   0  0  0  0  0  0  0  0  0  0  0  0
  1  2  2  0
  2  3  1  0
  2 11  1  0
  3  4  1  0
  4  5  2  0
  4 10  1  0
  5  6  1  0
  6  7  2  0
  7  8  1  0
  7  9  1  0
  9 10  2  0
 11 12  2  0
 13 11  1  6
 13 14  1  0
 13 25  1  0
 14 15  1  0
 15 16  1  0
 16 17  1  0
 17 18  1  1
 17 19  1  0
 17 25  1  0
 19 20  2  0
 19 24  1  0
 20 21  1  0
 21 22  2  0
 22 23  1  0
 23 24  2  0
M  END
