
     RDKit          3D

 26 28  0  0  0  0  0  0  0  0999 V2000
    7.9580   -0.7560    1.5430 N   0  0  0  0  0  0  0  0  0  0  0  0
    6.9400   -0.0050    0.9120 C   0  0  0  0  0  0  0  0  0  0  0  0
    7.2480    1.2200    0.4550 N   0  0  0  0  0  0  0  0  0  0  0  0
    6.3260    1.9710   -0.1480 C   0  0  0  0  0  0  0  0  0  0  0  0
    5.0100    1.5080   -0.3240 C   0  0  0  0  0  0  0  0  0  0  0  0
    4.6570    0.2690    0.1270 C   0  0  0  0  0  0  0  0  0  0  0  0
    3.3080   -0.2960   -0.0130 C   0  0  0  0  0  0  0  0  0  0  0  0
    2.3460    0.5330   -0.6620 N   0  0  0  0  0  0  0  0  0  0  0  0
    0.9840    0.0720   -0.8520 C   0  0  0  0  0  0  0  0  0  0  0  0
    0.6850   -1.0670   -0.4310 O   0  0  0  0  0  0  0  0  0  0  0  0
    0.0190    0.9710   -1.5340 C   0  0  0  0  0  0  0  0  0  0  0  0
   -1.3390    0.3270   -1.6300 C   0  0  0  0  0  0  0  0  0  0  0  0
   -1.9170    0.0040   -0.3290 C   0  0  0  0  0  0  0  0  0  0  0  0
   -1.2320    0.3310    0.7020 O   0  0  0  0  0  0  0  0  0  0  0  0
   -3.1640   -0.6380   -0.1280 N   0  0  0  0  0  0  0  0  0  0  0  0
   -3.6830   -0.9380    1.1550 C   0  0  0  0  0  0  0  0  0  0  0  0
   -5.1150   -0.4070    1.2420 C   0  0  0  0  0  0  0  0  0  0  0  0
   -5.8100   -0.2910    2.4000 C   0  0  0  0  0  0  0  0  0  0  0  0
   -7.0740    0.1930    2.3410 C   0  0  0  0  0  0  0  0  0  0  0  0
   -7.3630    0.5250    0.5770 S   0  0  0  0  0  0  0  0  0  0  0  0
   -5.6790   -0.0510    0.1070 C   0  0  0  0  0  0  0  0  0  0  0  0
   -5.1310   -0.0790   -1.2850 C   0  0  1  0  0  0  0  0  0  0  0  0
   -4.6590    1.2060   -1.5930 O   0  0  0  0  0  0  0  0  0  0  0  0
   -3.9520   -1.0140   -1.2800 C   0  0  0  0  0  0  0  0  0  0  0  0
    5.6640   -0.4680    0.7490 C   0  0  0  0  0  0  0  0  0  0  0  0
    5.3450   -1.7250    1.2170 O   0  0  0  0  0  0  0  0  0  0  0  0
  1  2  1  0
  2  3  2  0
  2 25  1  0
  3  4  1  0
  4  5  2  0
  5  6  1  0
  6  7  1  0
  6 25  2  0
  7  8  1  0
  8  9  1  0
  9 10  2  0
  9 11  1  0
 11 12  1  0
 12 13  1  0
 13 14  2  0
 13 15  1  0
 15 16  1  0
 15 24  1  0
 16 17  1  0
 17 18  1  0
 17 21  2  0
 18 19  2  0
 19 20  1  0
 20 21  1  0
 21 22  1  0
 22 23  1  1
 22 24  1  0
 25 26  1  0
M  END
