
     RDKit          3D

 22 24  0  0  0  0  0  0  0  0999 V2000
   -2.7450   -2.3950    2.1120 C   0  0  0  0  0  0  0  0  0  0  0  0
   -3.5200   -1.5040    1.5810 C   0  0  0  0  0  0  0  0  0  0  0  0
   -3.3260   -0.6220    0.4560 C   0  0  0  0  0  0  0  0  0  0  0  0
   -4.2740    0.2550    0.1200 C   0  0  0  0  0  0  0  0  0  0  0  0
   -5.5640    0.4640    0.7790 C   0  0  0  0  0  0  0  0  0  0  0  0
   -6.6060    0.2200   -0.1410 F   0  0  0  0  0  0  0  0  0  0  0  0
   -2.0910   -0.5800   -0.3220 C   0  0  0  0  0  0  0  0  0  0  0  0
   -1.2310   -1.6210   -0.5120 C   0  0  0  0  0  0  0  0  0  0  0  0
   -0.0140   -1.4520   -1.1830 C   0  0  0  0  0  0  0  0  0  0  0  0
    0.3750   -0.2330   -1.6860 C   0  0  0  0  0  0  0  0  0  0  0  0
    1.6740   -0.1050   -2.3900 C   0  0  0  0  0  0  0  0  0  0  0  0
    2.7430    0.2280   -1.4800 N   0  0  0  0  0  0  0  0  0  0  0  0
    3.0900    1.4920   -1.1830 C   0  0  0  0  0  0  0  0  0  0  0  0
    4.1430    1.4570   -0.2880 C   0  0  0  0  0  0  0  0  0  0  0  0
    5.0030    2.1950    0.4440 N   0  0  0  0  0  0  0  0  0  0  0  0
    5.7940    1.3560    1.1160 C   0  0  0  0  0  0  0  0  0  0  0  0
    6.7160    1.6730    1.9000 O   0  0  0  0  0  0  0  0  0  0  0  0
    5.4390    0.1030    0.8130 N   0  0  0  0  0  0  0  0  0  0  0  0
    4.4010    0.1330   -0.0710 C   0  0  0  0  0  0  0  0  0  0  0  0
    3.5330   -0.5970   -0.8090 N   0  0  0  0  0  0  0  0  0  0  0  0
   -0.5040    0.8050   -1.4890 C   0  0  0  0  0  0  0  0  0  0  0  0
   -1.7010    0.6700   -0.8340 C   0  0  0  0  0  0  0  0  0  0  0  0
  1  2  2  0
  2  3  1  0
  3  4  2  3
  3  7  1  0
  4  5  1  0
  5  6  1  0
  7  8  2  0
  7 22  1  0
  8  9  1  0
  9 10  2  0
 10 11  1  0
 10 21  1  0
 11 12  1  0
 12 13  1  0
 12 20  1  0
 13 14  2  0
 14 15  1  0
 14 19  1  0
 15 16  1  0
 16 17  2  0
 16 18  1  0
 18 19  1  0
 19 20  2  0
 21 22  2  0
M  END
