
     RDKit          3D

 22 24  0  0  0  0  0  0  0  0999 V2000
   -1.9690    1.8000    0.9580 C   0  0  0  0  0  0  0  0  0  0  0  0
   -2.9420    0.7800    0.4890 C   0  0  0  0  0  0  0  0  0  0  0  0
   -4.2360    1.0180    0.7860 C   0  0  0  0  0  0  0  0  0  0  0  0
   -4.5620    2.1450    1.4730 F   0  0  0  0  0  0  0  0  0  0  0  0
   -5.3400    0.1200    0.4300 C   0  0  0  0  0  0  0  0  0  0  0  0
   -4.9930   -0.9700   -0.5010 C   0  0  0  0  0  0  0  0  0  0  0  0
   -3.5710   -1.1400   -0.7470 C   0  0  0  0  0  0  0  0  0  0  0  0
   -2.5730   -0.3590   -0.3140 C   0  0  0  0  0  0  0  0  0  0  0  0
   -1.2000   -0.7010   -0.7350 C   0  0  0  0  0  0  0  0  0  0  0  0
   -0.0520   -0.2400   -0.1890 C   0  0  0  0  0  0  0  0  0  0  0  0
    1.2450   -0.5380   -0.6770 C   0  0  0  0  0  0  0  0  0  0  0  0
    2.3620    0.0320   -0.0190 N   0  0  0  0  0  0  0  0  0  0  0  0
    3.6750   -0.3900   -0.1780 C   0  0  0  0  0  0  0  0  0  0  0  0
    3.9590   -1.3390   -0.9380 O   0  0  0  0  0  0  0  0  0  0  0  0
    4.8020    0.2610    0.5420 C   0  0  0  0  0  0  0  0  0  0  0  0
    6.1180   -0.0970    0.4380 C   0  0  0  0  0  0  0  0  0  0  0  0
    6.8330    0.7450    1.2580 C   0  0  0  0  0  0  0  0  0  0  0  0
    5.9520    1.5610    1.8150 N   0  0  0  0  0  0  0  0  0  0  0  0
    4.7320    1.2780    1.3920 N   0  0  0  0  0  0  0  0  0  0  0  0
    1.3000   -1.3540   -1.7790 C   0  0  0  0  0  0  0  0  0  0  0  0
    0.1210   -1.8370   -2.3490 C   0  0  0  0  0  0  0  0  0  0  0  0
   -1.0530   -1.5100   -1.8300 N   0  0  0  0  0  0  0  0  0  0  0  0
  1  2  1  0
  2  3  2  0
  2  8  1  0
  3  4  1  0
  3  5  1  0
  5  6  1  0
  6  7  1  0
  7  8  2  0
  8  9  1  0
  9 10  2  0
  9 22  1  0
 10 11  1  0
 11 12  1  0
 11 20  2  0
 12 13  1  0
 13 14  2  0
 13 15  1  0
 15 16  2  0
 15 19  1  0
 16 17  1  0
 17 18  2  0
 18 19  1  0
 20 21  1  0
 21 22  2  0
M  END
