
     RDKit          3D

 18 19  0  0  0  0  0  0  0  0999 V2000
   -4.4760   -1.8150   -0.1330 C   0  0  0  0  0  0  0  0  0  0  0  0
   -3.8800   -0.5450   -0.1250 O   0  0  0  0  0  0  0  0  0  0  0  0
   -2.5360   -0.3050   -0.0540 C   0  0  0  0  0  0  0  0  0  0  0  0
   -1.5700   -1.2850    0.0200 C   0  0  0  0  0  0  0  0  0  0  0  0
   -0.2340   -0.9470    0.0890 C   0  0  0  0  0  0  0  0  0  0  0  0
    0.1770    0.3410    0.0870 C   0  0  0  0  0  0  0  0  0  0  0  0
   -0.7510    1.3410    0.0140 C   0  0  0  0  0  0  0  0  0  0  0  0
   -2.1060    1.0140   -0.0560 C   0  0  0  0  0  0  0  0  0  0  0  0
   -3.0480    2.0310   -0.1290 O   0  0  0  0  0  0  0  0  0  0  0  0
   -2.6470    3.3730   -0.1330 C   0  0  0  0  0  0  0  0  0  0  0  0
    1.6020    0.6870    0.1600 C   0  0  0  0  0  0  0  0  0  0  0  0
    2.4720   -0.3810    0.5270 N   0  0  0  0  0  0  0  0  0  0  0  0
    4.1010    0.0600    0.3180 S   0  0  2  0  0  0  0  0  0  0  0  0
    4.5160    0.4390   -1.2960 N   0  0  0  0  0  0  0  0  0  0  0  0
    4.9600   -1.1030    0.7950 O   0  0  0  0  0  0  0  0  0  0  0  0
    4.4360    1.2390    1.1820 O   0  0  0  0  0  0  0  0  0  0  0  0
    2.1590   -1.6370   -0.1060 C   0  0  0  0  0  0  0  0  0  0  0  0
    0.7530   -2.0450    0.1660 C   0  0  0  0  0  0  0  0  0  0  0  0
  1  2  1  0
  2  3  1  0
  3  4  2  0
  3  8  1  0
  4  5  1  0
  5  6  2  0
  5 18  1  0
  6  7  1  0
  6 11  1  0
  7  8  2  0
  8  9  1  0
  9 10  1  0
 11 12  1  0
 12 13  1  0
 12 17  1  0
 13 14  1  6
 13 15  2  0
 13 16  2  0
 17 18  1  0
M  END
