
     RDKit          3D

 22 24  0  0  0  0  0  0  0  0999 V2000
   -0.7470    2.1630   -0.9210 O   0  0  0  0  0  0  0  0  0  0  0  0
   -0.8630    1.1500   -0.1970 C   0  0  0  0  0  0  0  0  0  0  0  0
    0.2740    0.6240    0.4310 N   0  0  0  0  0  0  0  0  0  0  0  0
    1.6370    1.1650    0.3000 C   0  0  0  0  0  0  0  0  0  0  0  0
    2.1520    1.1220   -1.0550 C   0  0  0  0  0  0  0  0  0  0  0  0
    1.4680    1.8070   -2.0390 F   0  0  0  0  0  0  0  0  0  0  0  0
    3.2330    0.4820   -1.4270 C   0  0  0  0  0  0  0  0  0  0  0  0
    4.0630   -0.2690   -0.4950 C   0  0  0  0  0  0  0  0  0  0  0  0
    4.5880    0.2690    0.6590 C   0  0  0  0  0  0  0  0  0  0  0  0
    5.3470   -0.4870    1.5240 C   0  0  0  0  0  0  0  0  0  0  0  0
    5.5980   -1.8070    1.2470 C   0  0  0  0  0  0  0  0  0  0  0  0
    5.0740   -2.3400    0.0960 C   0  0  0  0  0  0  0  0  0  0  0  0
    4.3310   -1.5880   -0.7420 N   0  0  0  0  0  0  0  0  0  0  0  0
   -2.2030    0.5810   -0.0600 C   0  0  0  0  0  0  0  0  0  0  0  0
   -2.4970   -0.5320    0.6890 C   0  0  0  0  0  0  0  0  0  0  0  0
   -3.7890   -1.0600    0.7920 C   0  0  0  0  0  0  0  0  0  0  0  0
   -4.8100   -0.4290    0.1090 C   0  0  0  0  0  0  0  0  0  0  0  0
   -6.1660   -0.6610   -0.0160 C   0  0  0  0  0  0  0  0  0  0  0  0
   -6.6710    0.3210   -0.8420 C   0  0  0  0  0  0  0  0  0  0  0  0
   -5.6490    1.1340   -1.2130 N   0  0  0  0  0  0  0  0  0  0  0  0
   -4.5100    0.6880   -0.6400 C   0  0  0  0  0  0  0  0  0  0  0  0
   -3.2560    1.1440   -0.7000 N   0  0  0  0  0  0  0  0  0  0  0  0
  1  2  2  0
  2  3  1  0
  2 14  1  0
  3  4  1  0
  4  5  1  0
  5  6  1  0
  5  7  2  3
  7  8  1  0
  8  9  2  0
  8 13  1  0
  9 10  1  0
 10 11  2  0
 11 12  1  0
 12 13  2  0
 14 15  2  0
 14 22  1  0
 15 16  1  0
 16 17  2  0
 17 18  1  0
 17 21  1  0
 18 19  2  0
 19 20  1  0
 20 21  1  0
 21 22  2  0
M  END
