
     RDKit          3D

 17 19  0  0  0  0  0  0  0  0999 V2000
   -1.4120    2.2200    0.0090 C   0  0  0  0  0  0  0  0  0  0  0  0
   -0.1280    1.5180    0.0550 C   0  0  0  0  0  0  0  0  0  0  0  0
   -0.2160    0.2120   -0.0000 C   0  0  0  0  0  0  0  0  0  0  0  0
   -1.5280   -0.2800   -0.0930 N   0  0  0  0  0  0  0  0  0  0  0  0
   -2.2460   -0.6610   -1.2960 C   0  0  0  0  0  0  0  0  0  0  0  0
   -3.6810   -0.5770   -0.9040 C   0  0  0  0  0  0  0  0  0  0  0  0
   -3.7480   -0.1510    0.5440 C   0  0  0  0  0  0  0  0  0  0  0  0
   -2.3780   -0.5110    1.0550 C   0  0  0  0  0  0  0  0  0  0  0  0
    0.7610   -0.8680    0.0140 C   0  0  0  0  0  0  0  0  0  0  0  0
    2.0830   -0.9960   -0.1020 C   0  0  0  0  0  0  0  0  0  0  0  0
    2.6930   -2.3370   -0.0250 C   0  0  0  0  0  0  0  0  0  0  0  0
    4.1720   -2.0320   -0.0720 C   0  0  0  0  0  0  0  0  0  0  0  0
    4.2800   -0.7260   -0.6200 O   0  0  0  0  0  0  0  0  0  0  0  0
    3.1490   -0.0260   -0.3050 C   0  0  0  0  0  0  0  0  0  0  0  0
    3.1980    1.3160   -0.2400 C   0  0  0  0  0  0  0  0  0  0  0  0
    2.2980    2.4250    0.0420 C   0  0  0  0  0  0  0  0  0  0  0  0
    0.9870    2.4980    0.1570 C   0  0  0  0  0  0  0  0  0  0  0  0
  1  2  1  0
  2  3  2  0
  2 17  1  0
  3  4  1  0
  3  9  1  0
  4  5  1  0
  4  8  1  0
  5  6  1  0
  6  7  1  0
  7  8  1  0
  9 10  2  0
 10 11  1  0
 10 14  1  0
 11 12  1  0
 12 13  1  0
 13 14  1  0
 14 15  2  0
 15 16  1  0
 16 17  2  0
M  END
