
     RDKit          3D

 17 18  0  0  0  0  0  0  0  0999 V2000
    2.0050   -2.5570   -0.3020 C   0  0  0  0  0  0  0  0  0  0  0  0
    1.6050   -1.1290   -0.2620 C   0  0  0  0  0  0  0  0  0  0  0  0
    2.5460   -0.1240    0.1360 C   0  0  0  0  0  0  0  0  0  0  0  0
    3.8060   -0.3150    0.4650 C   0  0  0  0  0  0  0  0  0  0  0  0
    4.6000    0.8280    0.8400 N   0  0  0  0  0  0  0  0  0  0  0  0
    4.5180   -1.8950    0.4560 Cl  0  0  0  0  0  0  0  0  0  0  0  0
    0.3640   -0.8410   -0.5800 C   0  0  0  0  0  0  0  0  0  0  0  0
   -0.4790   -1.9630   -0.9320 N   0  0  0  0  0  0  0  0  0  0  0  0
   -1.7730   -2.0560   -0.7620 C   0  0  0  0  0  0  0  0  0  0  0  0
   -2.7020   -1.1350   -0.2080 N   0  0  0  0  0  0  0  0  0  0  0  0
   -2.5330    0.2590    0.0130 C   0  0  0  0  0  0  0  0  0  0  0  0
   -3.6960    0.8510    0.4240 C   0  0  0  0  0  0  0  0  0  0  0  0
   -3.6540    2.2120    0.6700 C   0  0  0  0  0  0  0  0  0  0  0  0
   -2.5100    2.9750    0.5190 C   0  0  0  0  0  0  0  0  0  0  0  0
   -1.3470    2.3370    0.0990 C   0  0  0  0  0  0  0  0  0  0  0  0
   -1.3550    0.9840   -0.1540 C   0  0  0  0  0  0  0  0  0  0  0  0
   -0.0730    0.5110   -0.5750 N   0  0  0  0  0  0  0  0  0  0  0  0
  1  2  1  0
  2  3  1  0
  2  7  2  3
  3  4  2  3
  4  5  1  0
  4  6  1  0
  7  8  1  0
  7 17  1  0
  8  9  2  0
  9 10  1  0
 10 11  1  0
 11 12  2  0
 11 16  1  0
 12 13  1  0
 13 14  2  0
 14 15  1  0
 15 16  2  0
 16 17  1  0
M  END
