
     RDKit          3D

 17 18  0  0  0  0  0  0  0  0999 V2000
    5.0990    2.1300    1.7840 C   0  0  0  0  0  0  0  0  0  0  0  0
    4.3280    1.9150    0.8910 C   0  0  0  0  0  0  0  0  0  0  0  0
    3.3870    1.6750   -0.2090 C   0  0  0  0  0  0  0  0  0  0  0  0
    3.4450    0.1950   -0.5110 C   0  0  0  0  0  0  0  0  0  0  0  0
    2.5160   -0.1760   -1.6350 C   0  0  0  0  0  0  0  0  0  0  0  0
    1.0970    0.1510   -1.3120 C   0  0  2  0  0  0  0  0  0  0  0  0
    0.6560   -0.6010   -0.0740 C   0  0  0  0  0  0  0  0  0  0  0  0
   -0.7950   -0.5830    0.0250 N   0  0  0  0  0  0  0  0  0  0  0  0
   -1.5200    0.1700   -0.9400 C   0  0  0  0  0  0  0  0  0  0  0  0
   -2.7490    0.6510   -0.8790 C   0  0  0  0  0  0  0  0  0  0  0  0
   -3.6730    0.4820    0.2990 C   0  0  0  0  0  0  0  0  0  0  0  0
   -2.8300    0.6100    1.5460 C   0  0  0  0  0  0  0  0  0  0  0  0
   -2.2360   -0.6690    2.0260 C   0  0  0  0  0  0  0  0  0  0  0  0
   -1.2930   -1.3550    1.1140 C   0  0  1  0  0  0  0  0  0  0  0  0
   -1.9470   -2.6570    0.6330 C   0  0  0  0  0  0  0  0  0  0  0  0
   -0.9040    0.5350   -2.2600 C   0  0  0  0  0  0  0  0  0  0  0  0
    0.2920   -0.2000   -2.4110 O   0  0  0  0  0  0  0  0  0  0  0  0
  1  2  3  0
  2  3  1  0
  3  4  1  0
  4  5  1  0
  6  5  1  6
  6  7  1  0
  6 17  1  0
  7  8  1  0
  8  9  1  0
  8 14  1  0
  9 10  2  0
  9 16  1  0
 10 11  1  0
 11 12  1  0
 12 13  1  0
 13 14  1  0
 14 15  1  6
 16 17  1  0
M  END
