
     RDKit          3D

 17 18  0  0  0  0  0  0  0  0999 V2000
    5.0950   -0.4190    0.5560 C   0  0  0  0  0  0  0  0  0  0  0  0
    4.1830    0.6760    0.2380 C   0  0  0  0  0  0  0  0  0  0  0  0
    2.9020    0.6110   -0.0610 C   0  0  0  0  0  0  0  0  0  0  0  0
    2.1870    1.8930   -0.3470 C   0  0  0  0  0  0  0  0  0  0  0  0
    0.8570    1.9390    0.3570 C   0  0  0  0  0  0  0  0  0  0  0  0
    0.1150    0.6610    0.3560 C   0  0  1  0  0  0  0  0  0  0  0  0
   -1.0230    0.8220   -0.6670 C   0  0  0  0  0  0  0  0  0  0  0  0
   -1.8640   -0.3550   -0.8010 C   0  0  0  0  0  0  0  0  0  0  0  0
   -1.4920   -1.3340   -1.4800 O   0  0  0  0  0  0  0  0  0  0  0  0
   -3.1250   -0.4090   -0.1600 N   0  0  0  0  0  0  0  0  0  0  0  0
   -3.7540    0.5680    0.6530 C   0  0  0  0  0  0  0  0  0  0  0  0
   -5.0520    0.3530    0.7550 C   0  0  0  0  0  0  0  0  0  0  0  0
   -5.4210   -0.8650   -0.0320 C   0  0  0  0  0  0  0  0  0  0  0  0
   -4.0800   -1.5260   -0.2050 C   0  0  0  0  0  0  0  0  0  0  0  0
    0.8290   -0.5560    0.0600 C   0  0  0  0  0  0  0  0  0  0  0  0
    2.1210   -0.6100   -0.1390 C   0  0  0  0  0  0  0  0  0  0  0  0
    2.8050   -1.8860   -0.4630 C   0  0  0  0  0  0  0  0  0  0  0  0
  1  2  1  0
  2  3  2  3
  3  4  1  0
  3 16  1  0
  4  5  1  0
  5  6  1  0
  6  7  1  6
  6 15  1  0
  7  8  1  0
  8  9  2  0
  8 10  1  0
 10 11  1  0
 10 14  1  0
 11 12  2  0
 12 13  1  0
 13 14  1  0
 15 16  2  0
 16 17  1  0
M  END
