
     RDKit          3D

 16 17  0  0  0  0  0  0  0  0999 V2000
    3.7220   -0.5760    2.2470 C   0  0  0  0  0  0  0  0  0  0  0  0
    3.4950   -0.0410    1.2040 C   0  0  0  0  0  0  0  0  0  0  0  0
    3.2400    0.6100   -0.0790 C   0  0  0  0  0  0  0  0  0  0  0  0
    1.9480    0.2650   -0.6180 N   0  0  0  0  0  0  0  0  0  0  0  0
    0.8010    1.0610   -0.2940 C   0  0  0  0  0  0  0  0  0  0  0  0
   -0.4810    0.3070   -0.1880 C   0  0  2  0  0  0  0  0  0  0  0  0
   -1.5550    1.0960   -0.8930 C   0  0  0  0  0  0  0  0  0  0  0  0
   -1.7710    2.4580   -0.3170 C   0  0  0  0  0  0  0  0  0  0  0  0
   -0.8040    0.0850    1.2740 C   0  0  0  0  0  0  0  0  0  0  0  0
   -2.1400   -0.5610    1.4730 C   0  0  0  0  0  0  0  0  0  0  0  0
   -2.1750   -1.8760    0.7610 C   0  0  0  0  0  0  0  0  0  0  0  0
   -1.2180   -1.9860   -0.3540 C   0  0  0  0  0  0  0  0  0  0  0  0
   -0.4360   -1.0430   -0.8200 C   0  0  0  0  0  0  0  0  0  0  0  0
    0.4930   -1.2800   -1.9600 C   0  0  0  0  0  0  0  0  0  0  0  0
    1.8560   -0.8730   -1.4660 C   0  0  0  0  0  0  0  0  0  0  0  0
    2.8870   -1.5220   -1.7940 O   0  0  0  0  0  0  0  0  0  0  0  0
  1  2  3  0
  2  3  1  0
  3  4  1  0
  4  5  1  0
  4 15  1  0
  5  6  1  0
  6  7  1  6
  6  9  1  0
  6 13  1  0
  7  8  1  0
  9 10  1  0
 10 11  1  0
 11 12  1  0
 12 13  2  0
 13 14  1  0
 14 15  1  0
 15 16  2  0
M  END
