
     RDKit          3D

 17 18  0  0  0  0  0  0  0  0999 V2000
    5.5400    0.6040    0.7380 C   0  0  0  0  0  0  0  0  0  0  0  0
    4.3950    0.0130    0.4400 C   0  0  0  0  0  0  0  0  0  0  0  0
    3.7540    0.2920   -0.8700 C   0  0  0  0  0  0  0  0  0  0  0  0
    2.4020    0.8820   -0.7010 C   0  0  0  0  0  0  0  0  0  0  0  0
    2.2800    2.1370   -0.9250 O   0  0  0  0  0  0  0  0  0  0  0  0
    1.2730    0.1010   -0.3090 N   0  0  0  0  0  0  0  0  0  0  0  0
    1.4520   -1.3020   -0.0220 C   0  0  0  0  0  0  0  0  0  0  0  0
    0.2790   -2.1410   -0.3490 C   0  0  0  0  0  0  0  0  0  0  0  0
   -1.0330   -1.4630   -0.1400 C   0  0  0  0  0  0  0  0  0  0  0  0
   -1.1630   -0.1460   -0.0850 C   0  0  0  0  0  0  0  0  0  0  0  0
   -0.0040    0.7690   -0.2260 C   0  0  0  0  0  0  0  0  0  0  0  0
   -2.4660    0.4820    0.0970 C   0  0  0  0  0  0  0  0  0  0  0  0
   -2.6050    1.7930    0.0640 C   0  0  0  0  0  0  0  0  0  0  0  0
   -3.9330    2.4540    0.2500 C   0  0  0  0  0  0  0  0  0  0  0  0
   -3.6870   -0.3250    0.3210 C   0  0  0  0  0  0  0  0  0  0  0  0
   -3.4440   -1.7800    0.2430 C   0  0  0  0  0  0  0  0  0  0  0  0
   -2.2350   -2.2660    0.0340 C   0  0  0  0  0  0  0  0  0  0  0  0
  1  2  2  0
  2  3  1  0
  3  4  1  0
  4  5  2  0
  4  6  1  0
  6  7  1  0
  6 11  1  0
  7  8  1  0
  8  9  1  0
  9 10  2  0
  9 17  1  0
 10 11  1  0
 10 12  1  0
 12 13  2  3
 12 15  1  0
 13 14  1  0
 15 16  1  0
 16 17  2  0
M  END
