
     RDKit          3D

 17 18  0  0  0  0  0  0  0  0999 V2000
   -0.2470    3.5420    1.5810 N   0  0  0  0  0  0  0  0  0  0  0  0
   -0.1150    2.2960    0.8470 C   0  0  0  0  0  0  0  0  0  0  0  0
   -1.1680    1.7140    0.3850 C   0  0  0  0  0  0  0  0  0  0  0  0
   -1.3140    0.5050   -0.3500 C   0  0  0  0  0  0  0  0  0  0  0  0
   -2.5400    0.2140   -1.0070 C   0  0  0  0  0  0  0  0  0  0  0  0
   -2.7230   -0.9050   -1.7050 N   0  0  0  0  0  0  0  0  0  0  0  0
   -1.7740   -1.8230   -1.8340 C   0  0  0  0  0  0  0  0  0  0  0  0
   -2.0260   -3.0210   -2.6070 N   0  0  0  0  0  0  0  0  0  0  0  0
   -0.5660   -1.6240   -1.2340 C   0  0  0  0  0  0  0  0  0  0  0  0
   -0.3550   -0.4420   -0.4870 C   0  0  0  0  0  0  0  0  0  0  0  0
    0.9220   -0.3970    0.2170 C   0  0  0  0  0  0  0  0  0  0  0  0
    2.1060   -0.3160   -0.4770 C   0  0  0  0  0  0  0  0  0  0  0  0
    3.3440   -0.3430    0.1480 C   0  0  0  0  0  0  0  0  0  0  0  0
    3.3980   -0.4540    1.4940 N   0  0  0  0  0  0  0  0  0  0  0  0
    2.2680   -0.5370    2.2180 C   0  0  0  0  0  0  0  0  0  0  0  0
    2.4260   -0.6780    3.9540 Cl  0  0  0  0  0  0  0  0  0  0  0  0
    1.0270   -0.5110    1.6070 C   0  0  0  0  0  0  0  0  0  0  0  0
  1  2  1  0
  2  3  2  3
  3  4  1  0
  4  5  2  0
  4 10  1  0
  5  6  1  0
  6  7  2  0
  7  8  1  0
  7  9  1  0
  9 10  2  0
 10 11  1  0
 11 12  2  0
 11 17  1  0
 12 13  1  0
 13 14  2  0
 14 15  1  0
 15 16  1  0
 15 17  2  0
M  END
