
     RDKit          3D

 24 24  0  0  0  0  0  0  0  0999 V2000
    1.1130   -0.5950    0.6640 N   0  0  0  0  0  0  0  0  0  0  0  0
    1.6050    0.3630   -0.2860 C   0  0  2  0  0  0  0  0  0  0  0  0
    3.1360    0.4020   -0.0190 C   0  0  0  0  0  0  0  0  0  0  0  0
    3.6570   -0.8530   -0.2240 O   0  0  0  0  0  0  0  0  0  0  0  0
    5.3550   -0.7920    0.0760 P   0  0  0  0  0  0  0  0  0  0  0  0
    5.6160   -1.2580    1.7320 O   0  0  0  0  0  0  0  0  0  0  0  0
    5.9790    0.8240   -0.1220 O   0  0  0  0  0  0  0  0  0  0  0  0
    1.0700    1.7170   -0.1370 C   0  0  0  0  0  0  0  0  0  0  0  0
    0.0470    2.1730    0.5380 C   0  0  0  0  0  0  0  0  0  0  0  0
   -0.9090    1.4960    1.3670 C   0  0  0  0  0  0  0  0  0  0  0  0
   -0.8830    1.7710    2.6350 O   0  0  0  0  0  0  0  0  0  0  0  0
   -1.9080    0.5550    1.0380 N   0  0  0  0  0  0  0  0  0  0  0  0
   -3.0000    0.2150    1.9840 C   0  0  0  0  0  0  0  0  0  0  0  0
   -4.3570    1.4520    1.5710 P   0  0  0  0  0  0  0  0  0  0  0  0
   -4.2010    2.0110   -0.0650 O   0  0  0  0  0  0  0  0  0  0  0  0
   -5.9140    0.8080    1.8930 O   0  0  0  0  0  0  0  0  0  0  0  0
   -1.9960   -0.1710   -0.2240 C   0  0  0  0  0  0  0  0  0  0  0  0
   -2.0690   -1.6390    0.0650 C   0  0  0  0  0  0  0  0  0  0  0  0
   -1.1200   -2.3130   -0.6380 O   0  0  0  0  0  0  0  0  0  0  0  0
   -1.2110   -2.0940   -1.9850 C   0  0  0  0  0  0  0  0  0  0  0  0
    0.1590   -2.0260   -2.6240 C   0  0  0  0  0  0  0  0  0  0  0  0
    0.2150   -2.5850   -3.7490 O   0  0  0  0  0  0  0  0  0  0  0  0
    1.1310   -1.3970   -1.9360 O   0  0  0  0  0  0  0  0  0  0  0  0
    1.4780   -0.0800   -1.7240 C   0  0  0  0  0  0  0  0  0  0  0  0
  2  1  1  1
  2  3  1  0
  2  8  1  0
  2 24  1  0
  3  4  1  0
  4  5  1  0
  5  6  1  0
  5  7  1  0
  8  9  2  0
  9 10  1  0
 10 11  2  0
 10 12  1  0
 12 13  1  0
 12 17  1  0
 13 14  1  0
 14 15  1  0
 14 16  1  0
 17 18  1  0
 18 19  1  0
 19 20  1  0
 20 21  1  0
 21 22  2  0
 21 23  1  0
 23 24  1  0
M  END
