
     RDKit          3D

 24 24  0  0  0  0  0  0  0  0999 V2000
   -6.0120   -1.1480   -0.6570 C   0  0  0  0  0  0  0  0  0  0  0  0
   -5.2260    0.1130   -0.8380 C   0  0  0  0  0  0  0  0  0  0  0  0
   -5.7600    1.0470   -1.4100 O   0  0  0  0  0  0  0  0  0  0  0  0
   -3.8420    0.2890   -0.3630 C   0  0  0  0  0  0  0  0  0  0  0  0
   -3.3430   -0.9610    0.3190 C   0  0  0  0  0  0  0  0  0  0  0  0
   -2.0310   -0.8100    0.7760 O   0  0  0  0  0  0  0  0  0  0  0  0
   -0.9440   -0.5290   -0.0300 C   0  0  0  0  0  0  0  0  0  0  0  0
   -1.1190   -0.3950   -1.2630 O   0  0  0  0  0  0  0  0  0  0  0  0
    0.4280   -0.3780    0.4990 C   0  0  2  0  0  0  0  0  0  0  0  0
    0.4800   -0.5520    1.8810 O   0  0  0  0  0  0  0  0  0  0  0  0
    0.9350    0.9990    0.1140 C   0  0  0  0  0  0  0  0  0  0  0  0
    0.0670    2.0990    0.6820 C   0  0  0  0  0  0  0  0  0  0  0  0
    0.8150    3.7190    0.1260 P   0  0  0  0  0  0  0  0  0  0  0  0
    2.4980    3.7350    0.5660 O   0  0  0  0  0  0  0  0  0  0  0  0
    0.0090    5.0700    0.8100 O   0  0  0  0  0  0  0  0  0  0  0  0
    1.2760   -1.3380   -0.1780 N   0  0  0  0  0  0  0  0  0  0  0  0
    2.6730   -1.4420    0.1150 C   0  0  0  0  0  0  0  0  0  0  0  0
    3.0560   -0.9890    1.2290 N   0  0  0  0  0  0  0  0  0  0  0  0
    4.3630   -0.9680    1.7560 C   0  0  0  0  0  0  0  0  0  0  0  0
    4.6000   -0.4700    2.9120 O   0  0  0  0  0  0  0  0  0  0  0  0
    5.4640   -1.4680    1.0940 O   0  0  0  0  0  0  0  0  0  0  0  0
    5.1730   -2.5160   -0.2890 P   0  0  0  0  0  0  0  0  0  0  0  0
    6.3290   -2.2000   -1.5560 O   0  0  0  0  0  0  0  0  0  0  0  0
    3.5030   -2.0760   -0.9380 C   0  0  0  0  0  0  0  0  0  0  0  0
  1  2  1  0
  2  3  2  0
  2  4  1  0
  4  5  1  0
  5  6  1  0
  6  7  1  0
  7  8  2  0
  7  9  1  0
  9 10  1  1
  9 11  1  0
  9 16  1  0
 11 12  1  0
 12 13  1  0
 13 14  1  0
 13 15  1  0
 16 17  1  0
 17 18  2  0
 17 24  1  0
 18 19  1  0
 19 20  2  0
 19 21  1  0
 21 22  1  0
 22 23  1  0
 22 24  1  0
M  END
