
     RDKit          3D

 24 24  0  0  0  0  0  0  0  0999 V2000
   -2.4500    1.7560    3.0730 O   0  0  0  0  0  0  0  0  0  0  0  0
   -2.0560    0.7140    2.4480 C   0  0  0  0  0  0  0  0  0  0  0  0
   -3.0760   -0.2500    1.9970 C   0  0  0  0  0  0  0  0  0  0  0  0
   -3.0220   -0.5640    0.6640 O   0  0  0  0  0  0  0  0  0  0  0  0
   -3.6710    0.3370   -0.1690 C   0  0  0  0  0  0  0  0  0  0  0  0
   -2.8290    1.4990   -0.5790 C   0  0  0  0  0  0  0  0  0  0  0  0
   -2.1480    1.3700   -1.7830 O   0  0  0  0  0  0  0  0  0  0  0  0
   -1.0440    0.6290   -2.0890 C   0  0  0  0  0  0  0  0  0  0  0  0
   -0.0250    1.1700   -2.5780 O   0  0  0  0  0  0  0  0  0  0  0  0
   -1.0080   -0.8280   -1.8580 C   0  0  1  0  0  0  0  0  0  0  0  0
   -0.3840   -1.5420   -3.0690 C   0  0  0  0  0  0  0  0  0  0  0  0
   -1.1100   -1.1180   -4.1910 O   0  0  0  0  0  0  0  0  0  0  0  0
   -0.2780   -1.2510   -0.7120 N   0  0  0  0  0  0  0  0  0  0  0  0
    0.2840   -0.2180    0.1020 C   0  0  2  0  0  0  0  0  0  0  0  0
    1.8090   -0.3250   -0.0500 C   0  0  0  0  0  0  0  0  0  0  0  0
    2.6620    0.9700    0.9650 P   0  0  0  0  0  0  0  0  0  0  0  0
    3.5990    0.1920    2.2000 O   0  0  0  0  0  0  0  0  0  0  0  0
    3.0500    0.3010    3.3880 O   0  0  0  0  0  0  0  0  0  0  0  0
    3.7260    1.9350    0.0150 O   0  0  0  0  0  0  0  0  0  0  0  0
    5.2130    1.1220   -0.3330 P   0  0  0  0  0  0  0  0  0  0  0  0
    5.1160    0.2150   -1.8070 O   0  0  0  0  0  0  0  0  0  0  0  0
    5.7390    0.1400    0.9910 O   0  0  0  0  0  0  0  0  0  0  0  0
   -0.0580   -0.5560    1.5600 C   0  0  0  0  0  0  0  0  0  0  0  0
   -0.6810    0.5580    2.2330 N   0  0  0  0  0  0  0  0  0  0  0  0
  1  2  2  0
  2  3  1  0
  2 24  1  0
  3  4  1  0
  4  5  1  0
  5  6  1  0
  6  7  1  0
  7  8  1  0
  8  9  2  0
  8 10  1  0
 10 11  1  6
 10 13  1  0
 11 12  1  0
 13 14  1  0
 14 15  1  1
 14 23  1  0
 15 16  1  0
 16 17  1  0
 16 19  1  0
 17 18  1  0
 19 20  1  0
 20 21  1  0
 20 22  1  0
 23 24  1  0
M  END
