
     RDKit          3D

 25 25  0  0  0  0  0  0  0  0999 V2000
   -2.8270   -1.5570    1.0450 O   0  0  0  0  0  0  0  0  0  0  0  0
   -2.9730   -0.5160    0.3380 C   0  0  0  0  0  0  0  0  0  0  0  0
   -4.2340    0.1350    0.4000 N   0  0  0  0  0  0  0  0  0  0  0  0
   -5.2850   -0.4060    1.2540 C   0  0  0  0  0  0  0  0  0  0  0  0
   -6.5380    0.4510    1.1610 C   0  0  0  0  0  0  0  0  0  0  0  0
   -7.1980    0.5280   -0.5490 P   0  0  0  0  0  0  0  0  0  0  0  0
   -7.3830    2.1560   -1.1140 O   0  0  0  0  0  0  0  0  0  0  0  0
   -6.2640   -0.4190   -1.6600 O   0  0  0  0  0  0  0  0  0  0  0  0
   -1.9180   -0.0310   -0.4770 N   0  0  0  0  0  0  0  0  0  0  0  0
   -0.6260   -0.7140   -0.5290 C   0  0  2  0  0  0  0  0  0  0  0  0
    0.4740    0.2010   -0.0630 C   0  0  0  0  0  0  0  0  0  0  0  0
    1.7130   -0.6710    0.2210 C   0  0  1  0  0  0  0  0  0  0  0  0
    2.7980    0.0940   -0.0810 O   0  0  0  0  0  0  0  0  0  0  0  0
    4.0430   -0.4210    0.0800 C   0  0  0  0  0  0  0  0  0  0  0  0
    5.1310    0.5870   -0.2860 C   0  0  0  0  0  0  0  0  0  0  0  0
    5.0190    1.7100    0.5260 O   0  0  0  0  0  0  0  0  0  0  0  0
    6.2620    2.8370    0.0920 P   0  0  0  0  0  0  0  0  0  0  0  0
    7.7920    2.0880    0.3790 O   0  0  0  0  0  0  0  0  0  0  0  0
    6.1350    3.1220   -1.6200 O   0  0  0  0  0  0  0  0  0  0  0  0
    1.6250   -1.0670    1.6520 C   0  0  0  0  0  0  0  0  0  0  0  0
    0.6670   -1.7970    2.0060 O   0  0  0  0  0  0  0  0  0  0  0  0
    2.5240   -0.6900    2.6330 O   0  0  0  0  0  0  0  0  0  0  0  0
    1.5880   -1.8730   -0.6650 C   0  0  0  0  0  0  0  0  0  0  0  0
    0.9410   -1.5420   -2.0020 C   0  0  0  0  0  0  0  0  0  0  0  0
   -0.3840   -1.1610   -1.8370 O   0  0  0  0  0  0  0  0  0  0  0  0
  1  2  2  0
  2  3  1  0
  2  9  1  0
  3  4  1  0
  4  5  1  0
  5  6  1  0
  6  7  1  0
  6  8  1  0
 10  9  1  6
 10 11  1  0
 10 25  1  0
 11 12  1  0
 12 13  1  1
 12 20  1  0
 12 23  1  0
 13 14  1  0
 14 15  1  0
 15 16  1  0
 16 17  1  0
 17 18  1  0
 17 19  1  0
 20 21  2  0
 20 22  1  0
 23 24  1  0
 24 25  1  0
M  END
