
     RDKit          3D

 24 25  0  0  0  0  0  0  0  0999 V2000
   -2.3130    0.7440    2.6720 O   0  0  0  0  0  0  0  0  0  0  0  0
   -1.8000    0.0660    1.7630 C   0  0  0  0  0  0  0  0  0  0  0  0
   -0.3890    0.1330    1.4600 N   0  0  0  0  0  0  0  0  0  0  0  0
   -0.3370    0.0390   -0.0030 C   0  0  1  0  0  0  0  0  0  0  0  0
    0.9810   -0.3770   -0.3740 N   0  0  0  0  0  0  0  0  0  0  0  0
    1.0900   -0.7240   -1.7740 C   0  0  0  0  0  0  0  0  0  0  0  0
    0.9420    0.4000   -2.7270 C   0  0  0  0  0  0  0  0  0  0  0  0
   -0.2640    1.0680   -2.6730 O   0  0  0  0  0  0  0  0  0  0  0  0
    1.9360    0.6440   -0.0060 C   0  0  0  0  0  0  0  0  0  0  0  0
    3.3650    0.2830   -0.3470 C   0  0  1  0  0  0  0  0  0  0  0  0
    4.3990    1.7480    0.2250 P   0  0  0  0  0  0  0  0  0  0  0  0
    3.4290    3.1920    0.2260 O   0  0  0  0  0  0  0  0  0  0  0  0
    4.8940    1.4250    1.8640 O   0  0  0  0  0  0  0  0  0  0  0  0
    3.9660   -1.1940    0.5810 P   0  0  0  0  0  0  0  0  0  0  0  0
    4.5980   -2.4280   -0.4540 O   0  0  0  0  0  0  0  0  0  0  0  0
    2.8560   -1.7820    1.7420 O   0  0  0  0  0  0  0  0  0  0  0  0
   -1.3810   -1.0360   -0.2300 C   0  0  0  0  0  0  0  0  0  0  0  0
   -2.4210   -0.8850    0.8520 C   0  0  2  0  0  0  0  0  0  0  0  0
   -3.7640   -0.5270    0.3340 C   0  0  1  0  0  0  0  0  0  0  0  0
   -4.2100   -1.5460   -0.5150 O   0  0  0  0  0  0  0  0  0  0  0  0
   -4.8020   -0.3480    1.4080 C   0  0  0  0  0  0  0  0  0  0  0  0
   -4.8400    1.0400    1.5250 O   0  0  0  0  0  0  0  0  0  0  0  0
   -4.9460    1.3880    0.2470 O   0  0  0  0  0  0  0  0  0  0  0  0
   -3.8410    0.7840   -0.3930 C   0  0  0  0  0  0  0  0  0  0  0  0
  1  2  2  0
  2  3  1  0
  2 18  1  0
  3  4  1  0
  4  5  1  1
  4 17  1  0
  5  6  1  0
  5  9  1  0
  6  7  1  0
  7  8  1  0
 10  9  1  1
 10 11  1  0
 10 14  1  0
 11 12  1  0
 11 13  1  0
 14 15  1  0
 14 16  1  0
 18 17  1  6
 18 19  1  0
 19 20  1  6
 19 21  1  0
 19 24  1  0
 21 22  1  0
 22 23  1  0
 23 24  1  0
M  END
