
     RDKit          3D

 25 25  0  0  0  0  0  0  0  0999 V2000
   -4.6570   -1.8670    0.5920 C   0  0  0  0  0  0  0  0  0  0  0  0
   -3.5760   -1.2050   -0.1040 N   0  0  0  0  0  0  0  0  0  0  0  0
   -3.8220   -0.6670   -1.4190 C   0  0  0  0  0  0  0  0  0  0  0  0
   -4.4010    1.0760   -1.4010 P   0  0  0  0  0  0  0  0  0  0  0  0
   -6.1250    1.1870   -1.3930 O   0  0  0  0  0  0  0  0  0  0  0  0
   -3.6450    2.0630   -0.2220 O   0  0  0  0  0  0  0  0  0  0  0  0
   -2.3180   -1.1180    0.5400 C   0  0  0  0  0  0  0  0  0  0  0  0
   -2.1590   -1.6130    1.6820 O   0  0  0  0  0  0  0  0  0  0  0  0
   -1.2100   -0.5020   -0.0250 O   0  0  0  0  0  0  0  0  0  0  0  0
    0.0430   -0.4190    0.6190 C   0  0  1  0  0  0  0  0  0  0  0  0
   -0.0700    0.3150    1.9130 C   0  0  0  0  0  0  0  0  0  0  0  0
    0.9400    0.4830    2.6400 O   0  0  0  0  0  0  0  0  0  0  0  0
   -1.3060    0.7990    2.2840 O   0  0  0  0  0  0  0  0  0  0  0  0
    0.7400   -1.7290    0.7420 C   0  0  0  0  0  0  0  0  0  0  0  0
    2.1460   -1.5670    0.1810 C   0  0  0  0  0  0  0  0  0  0  0  0
    2.2320   -0.1810    0.0190 N   0  0  0  0  0  0  0  0  0  0  0  0
    3.3860    0.4390   -0.4030 C   0  0  2  0  0  0  0  0  0  0  0  0
    3.7440   -0.0260   -1.8100 C   0  0  0  0  0  0  0  0  0  0  0  0
    4.5740    0.1530    0.4330 C   0  0  0  0  0  0  0  0  0  0  0  0
    4.5980   -0.5690    1.4370 O   0  0  0  0  0  0  0  0  0  0  0  0
    5.7710    0.7670    0.0320 O   0  0  0  0  0  0  0  0  0  0  0  0
    3.1860    2.2840   -0.4700 P   0  0  0  0  0  0  0  0  0  0  0  0
    2.7230    2.9250    1.0740 O   0  0  0  0  0  0  0  0  0  0  0  0
    1.9940    2.7020   -1.6780 O   0  0  0  0  0  0  0  0  0  0  0  0
    0.9750    0.3930   -0.2570 C   0  0  0  0  0  0  0  0  0  0  0  0
  1  2  1  0
  2  3  1  0
  2  7  1  0
  3  4  1  0
  4  5  1  0
  4  6  1  0
  7  8  2  0
  7  9  1  0
 10  9  1  6
 10 11  1  0
 10 14  1  0
 10 25  1  0
 11 12  2  0
 11 13  1  0
 14 15  1  0
 15 16  1  0
 16 17  1  0
 16 25  1  0
 17 18  1  6
 17 19  1  0
 17 22  1  0
 19 20  2  0
 19 21  1  0
 22 23  1  0
 22 24  1  0
M  END
