
     RDKit          3D

 25 25  0  0  0  0  0  0  0  0999 V2000
    2.6660   -0.6510    1.2480 O   0  0  0  0  0  0  0  0  0  0  0  0
    2.4240   -0.0030    0.1820 C   0  0  0  0  0  0  0  0  0  0  0  0
    1.1100    0.4380   -0.1160 N   0  0  0  0  0  0  0  0  0  0  0  0
    0.0320    0.1760    0.7540 C   0  0  0  0  0  0  0  0  0  0  0  0
   -1.3050    0.6700    0.3670 C   0  0  2  0  0  0  0  0  0  0  0  0
   -1.2320    2.0800    0.2450 O   0  0  0  0  0  0  0  0  0  0  0  0
   -2.2410    0.4180    1.5290 C   0  0  0  0  0  0  0  0  0  0  0  0
   -3.2330   -0.5090    1.0400 N   0  0  0  0  0  0  0  0  0  0  0  0
   -3.9930   -1.4040    1.8910 C   0  0  0  0  0  0  0  0  0  0  0  0
   -5.5600   -0.5890    2.4580 P   0  0  0  0  0  0  0  0  0  0  0  0
   -5.6320    1.0010    1.7960 O   0  0  0  0  0  0  0  0  0  0  0  0
   -6.9490   -1.5300    2.0480 O   0  0  0  0  0  0  0  0  0  0  0  0
   -3.2690   -0.3330   -0.3500 C   0  0  0  0  0  0  0  0  0  0  0  0
   -4.2590   -0.5460   -1.0880 O   0  0  0  0  0  0  0  0  0  0  0  0
   -1.9550    0.1440   -0.8200 C   0  0  1  0  0  0  0  0  0  0  0  0
   -2.2780    1.2070   -1.8540 C   0  0  0  0  0  0  0  0  0  0  0  0
   -1.2060    1.8940   -2.3390 O   0  0  0  0  0  0  0  0  0  0  0  0
   -1.2920   -1.0580   -1.4600 C   0  0  0  0  0  0  0  0  0  0  0  0
   -1.2270   -2.1360   -0.5820 O   0  0  0  0  0  0  0  0  0  0  0  0
    3.5070    0.2350   -0.6470 O   0  0  0  0  0  0  0  0  0  0  0  0
    4.8150   -0.1740   -0.4040 C   0  0  0  0  0  0  0  0  0  0  0  0
    5.4060    0.3780    0.8650 C   0  0  0  0  0  0  0  0  0  0  0  0
    7.1440   -0.2870    0.9970 P   0  0  0  0  0  0  0  0  0  0  0  0
    8.2980    1.0030    1.1170 O   0  0  0  0  0  0  0  0  0  0  0  0
    7.5540   -1.2760   -0.3530 O   0  0  0  0  0  0  0  0  0  0  0  0
  1  2  2  0
  2  3  1  0
  2 20  1  0
  3  4  1  0
  4  5  1  0
  5  6  1  6
  5  7  1  0
  5 15  1  0
  7  8  1  0
  8  9  1  0
  8 13  1  0
  9 10  1  0
 10 11  1  0
 10 12  1  0
 13 14  2  0
 13 15  1  0
 15 16  1  6
 15 18  1  0
 16 17  1  0
 18 19  1  0
 20 21  1  0
 21 22  1  0
 22 23  1  0
 23 24  1  0
 23 25  1  0
M  END
