
     RDKit          3D

 25 25  0  0  0  0  0  0  0  0999 V2000
    2.1510   -1.3560    1.7270 C   0  0  0  0  0  0  0  0  0  0  0  0
    2.4740   -0.5210    0.5230 C   0  0  1  0  0  0  0  0  0  0  0  0
    3.9220   -0.2030    0.4340 C   0  0  0  0  0  0  0  0  0  0  0  0
    4.2920    0.9770    0.4470 O   0  0  0  0  0  0  0  0  0  0  0  0
    4.8730   -1.2060    0.3380 O   0  0  0  0  0  0  0  0  0  0  0  0
    6.2680   -0.9270    0.2520 C   0  0  0  0  0  0  0  0  0  0  0  0
    6.5010   -0.1140   -0.9560 C   0  0  0  0  0  0  0  0  0  0  0  0
    7.6920    0.2420   -1.2100 O   0  0  0  0  0  0  0  0  0  0  0  0
    5.4720    0.2590   -1.7960 O   0  0  0  0  0  0  0  0  0  0  0  0
    2.0220   -1.2670   -0.7140 C   0  0  0  0  0  0  0  0  0  0  0  0
    0.5580   -0.9340   -0.7260 C   0  0  0  0  0  0  0  0  0  0  0  0
   -0.3050   -1.5580   -1.3750 O   0  0  0  0  0  0  0  0  0  0  0  0
    0.3280    0.1820    0.1040 N   0  0  0  0  0  0  0  0  0  0  0  0
   -0.9130    0.7190    0.5060 C   0  0  0  0  0  0  0  0  0  0  0  0
   -0.9260    1.7490    1.2700 O   0  0  0  0  0  0  0  0  0  0  0  0
   -2.1710    0.1960    0.1230 N   0  0  0  0  0  0  0  0  0  0  0  0
   -3.3640    0.8590    0.6180 C   0  0  0  0  0  0  0  0  0  0  0  0
   -4.6220    0.1880    0.1240 C   0  0  2  0  0  0  0  0  0  0  0  0
   -4.7370    0.1870   -1.7180 P   0  0  0  0  0  0  0  0  0  0  0  0
   -6.3540    0.4860   -2.2760 O   0  0  0  0  0  0  0  0  0  0  0  0
   -4.2890   -1.4000   -2.3060 O   0  0  0  0  0  0  0  0  0  0  0  0
   -6.0620    1.1110    0.8820 P   0  0  0  0  0  0  0  0  0  0  0  0
   -5.5500    1.6260    2.4610 O   0  0  0  0  0  0  0  0  0  0  0  0
   -6.3230    2.5360   -0.0920 O   0  0  0  0  0  0  0  0  0  0  0  0
    1.6180    0.7100    0.4910 C   0  0  0  0  0  0  0  0  0  0  0  0
  2  1  1  1
  2  3  1  0
  2 10  1  0
  2 25  1  0
  3  4  2  0
  3  5  1  0
  5  6  1  0
  6  7  1  0
  7  8  2  0
  7  9  1  0
 10 11  1  0
 11 12  2  0
 11 13  1  0
 13 14  1  0
 13 25  1  0
 14 15  2  0
 14 16  1  0
 16 17  1  0
 18 17  1  6
 18 19  1  0
 18 22  1  0
 19 20  1  0
 19 21  1  0
 22 23  1  0
 22 24  1  0
M  END
