
     RDKit          3D

 25 26  0  0  0  0  0  0  0  0999 V2000
    4.7880    0.5950    1.6290 C   0  0  0  0  0  0  0  0  0  0  0  0
    4.4570    0.8370    0.2640 N   0  0  0  0  0  0  0  0  0  0  0  0
    4.2140   -0.3760   -0.5160 C   0  0  0  0  0  0  0  0  0  0  0  0
    3.1580   -1.0880    0.3360 C   0  0  0  0  0  0  0  0  0  0  0  0
    1.8300   -0.5530    0.1530 N   0  0  0  0  0  0  0  0  0  0  0  0
    0.7510   -1.4510    0.4610 C   0  0  0  0  0  0  0  0  0  0  0  0
    0.8200   -2.1130    1.5930 O   0  0  0  0  0  0  0  0  0  0  0  0
   -0.3480   -1.7090   -0.2760 O   0  0  0  0  0  0  0  0  0  0  0  0
   -0.6990   -2.4970   -1.3370 C   0  0  0  0  0  0  0  0  0  0  0  0
   -2.0630   -3.1040   -0.9240 C   0  0  0  0  0  0  0  0  0  0  0  0
   -2.8810   -2.0970   -0.4860 O   0  0  0  0  0  0  0  0  0  0  0  0
   -2.7080   -1.6670    0.8030 C   0  0  0  0  0  0  0  0  0  0  0  0
   -2.5440   -0.1340    0.8800 C   0  0  0  0  0  0  0  0  0  0  0  0
   -2.7380    0.4760   -0.4850 C   0  0  0  0  0  0  0  0  0  0  0  0
   -1.9170    1.6830   -0.7420 C   0  0  0  0  0  0  0  0  0  0  0  0
   -2.4930    2.8260   -0.4750 C   0  0  0  0  0  0  0  0  0  0  0  0
   -3.8080    3.0950    0.0380 C   0  0  0  0  0  0  0  0  0  0  0  0
   -4.1670    4.3280    0.2130 O   0  0  0  0  0  0  0  0  0  0  0  0
   -4.7900    2.2020    0.3900 O   0  0  0  0  0  0  0  0  0  0  0  0
   -0.5650    1.6680   -1.2460 N   0  0  0  0  0  0  0  0  0  0  0  0
    0.5530    1.1510   -0.7330 N   0  0  0  0  0  0  0  0  0  0  0  0
    1.6150    0.8220   -0.2890 C   0  0  0  0  0  0  0  0  0  0  0  0
    3.1070    1.8080   -0.0180 S   0  0  1  0  0  0  0  0  0  0  0  0
    2.8930    2.7140    1.1560 O   0  0  0  0  0  0  0  0  0  0  0  0
    3.4270    2.6200   -1.2550 O   0  0  0  0  0  0  0  0  0  0  0  0
  1  2  1  0
  2  3  1  0
 23  2  1  1
  3  4  1  0
  4  5  1  0
  5  6  1  0
  5 22  1  0
  6  7  2  0
  6  8  1  0
  8  9  1  0
  9 10  1  0
 10 11  1  0
 11 12  1  0
 12 13  1  0
 13 14  1  0
 14 15  1  0
 15 16  2  3
 15 20  1  0
 16 17  1  0
 17 18  2  0
 17 19  1  0
 20 21  1  0
 21 22  2  0
 22 23  1  0
 23 24  2  0
 23 25  2  0
M  END
