
     RDKit          3D

 25 27  0  0  0  0  0  0  0  0999 V2000
    5.3880   -2.0640    0.2520 O   0  0  0  0  0  0  0  0  0  0  0  0
    5.4500   -0.9260   -0.1600 C   0  0  0  0  0  0  0  0  0  0  0  0
    6.7720   -0.4530   -0.6610 C   0  0  0  0  0  0  0  0  0  0  0  0
    6.6310    0.8670   -1.0850 O   0  0  0  0  0  0  0  0  0  0  0  0
    7.7670    1.3450   -1.5410 O   0  0  0  0  0  0  0  0  0  0  0  0
    4.2520   -0.0790   -0.1490 C   0  0  0  0  0  0  0  0  0  0  0  0
    3.1620   -0.7840    0.3730 O   0  0  0  0  0  0  0  0  0  0  0  0
    1.8980   -0.2620    0.5140 C   0  0  0  0  0  0  0  0  0  0  0  0
    0.9100   -1.0740    1.0480 C   0  0  0  0  0  0  0  0  0  0  0  0
   -0.3710   -0.5620    1.1970 C   0  0  0  0  0  0  0  0  0  0  0  0
   -0.7220    0.7150    0.8400 C   0  0  0  0  0  0  0  0  0  0  0  0
   -2.0020    1.1950    0.9810 N   0  0  0  0  0  0  0  0  0  0  0  0
   -3.0870    0.6540    0.5160 C   0  0  0  0  0  0  0  0  0  0  0  0
   -4.3340    1.2860    0.7600 N   0  0  0  0  0  0  0  0  0  0  0  0
   -5.4850    0.8810    0.3490 C   0  0  0  0  0  0  0  0  0  0  0  0
   -6.7510    1.4690    0.5570 O   0  0  0  0  0  0  0  0  0  0  0  0
   -7.6760    0.6770   -0.0690 C   0  0  0  0  0  0  0  0  0  0  0  0
   -7.1040   -0.3550   -0.6520 C   0  0  0  0  0  0  0  0  0  0  0  0
   -5.7140   -0.2750   -0.4170 N   0  0  0  0  0  0  0  0  0  0  0  0
   -4.3770   -1.2820   -0.8510 S   0  0  1  0  0  0  0  0  0  0  0  0
   -4.5330   -2.6070   -0.1400 O   0  0  0  0  0  0  0  0  0  0  0  0
   -4.3130   -1.4930   -2.3340 O   0  0  0  0  0  0  0  0  0  0  0  0
   -2.9660   -0.5300   -0.2390 N   0  0  0  0  0  0  0  0  0  0  0  0
    0.2920    1.5200    0.3020 C   0  0  0  0  0  0  0  0  0  0  0  0
    1.5660    1.0260    0.1500 C   0  0  0  0  0  0  0  0  0  0  0  0
  1  2  2  0
  2  3  1  0
  2  6  1  0
  3  4  1  0
  4  5  1  0
  6  7  1  0
  7  8  1  0
  8  9  2  0
  8 25  1  0
  9 10  1  0
 10 11  2  0
 11 12  1  0
 11 24  1  0
 12 13  2  3
 13 14  1  0
 13 23  1  0
 14 15  2  0
 15 16  1  0
 15 19  1  0
 16 17  1  0
 17 18  2  0
 18 19  1  0
 19 20  1  0
 20 21  2  0
 20 22  2  0
 20 23  1  1
 24 25  2  0
M  END
