
     RDKit          3D

 27 29  0  0  0  0  0  0  0  0999 V2000
   -6.0490   -0.6810   -0.7040 C   0  0  0  0  0  0  0  0  0  0  0  0
   -4.8620   -1.5750   -0.6160 C   0  0  0  0  0  0  0  0  0  0  0  0
   -4.9710   -2.9190   -0.3290 C   0  0  0  0  0  0  0  0  0  0  0  0
   -3.8310   -3.6790   -0.2650 C   0  0  0  0  0  0  0  0  0  0  0  0
   -2.5760   -3.1360   -0.4780 C   0  0  0  0  0  0  0  0  0  0  0  0
   -2.4470   -1.7830   -0.7680 C   0  0  0  0  0  0  0  0  0  0  0  0
   -1.1130   -1.2060   -0.9950 C   0  0  0  0  0  0  0  0  0  0  0  0
   -0.4820   -0.6990    0.2860 C   0  0  2  0  0  0  0  0  0  0  0  0
   -1.3290    0.3810    0.9300 C   0  0  0  0  0  0  0  0  0  0  0  0
   -1.4030    1.4760    0.1190 O   0  0  0  0  0  0  0  0  0  0  0  0
   -2.3630    2.6310    0.9080 P   0  0  0  0  0  0  0  0  0  0  0  0
   -3.0950    3.6840   -0.2460 O   0  0  0  0  0  0  0  0  0  0  0  0
   -1.3940    3.5880    1.9870 O   0  0  0  0  0  0  0  0  0  0  0  0
   -3.6320    1.8390    1.8170 O   0  0  0  0  0  0  0  0  0  0  0  0
    0.8480   -0.2140    0.0520 N   0  0  0  0  0  0  0  0  0  0  0  0
    1.9730   -0.8040    0.6770 C   0  0  0  0  0  0  0  0  0  0  0  0
    1.7200   -1.7850    1.4560 O   0  0  0  0  0  0  0  0  0  0  0  0
    3.3050   -0.3990    0.5090 C   0  0  0  0  0  0  0  0  0  0  0  0
    3.9470    0.6020   -0.2380 C   0  0  0  0  0  0  0  0  0  0  0  0
    5.2620    0.7440   -0.1920 C   0  0  0  0  0  0  0  0  0  0  0  0
    6.0260    1.7080   -0.8930 C   0  0  0  0  0  0  0  0  0  0  0  0
    7.3720    1.7720   -0.7790 C   0  0  0  0  0  0  0  0  0  0  0  0
    8.1080    0.9310    0.0060 C   0  0  0  0  0  0  0  0  0  0  0  0
    7.3900   -0.0280    0.7080 C   0  0  0  0  0  0  0  0  0  0  0  0
    6.0410   -0.0870    0.5900 C   0  0  0  0  0  0  0  0  0  0  0  0
    4.7680   -1.1680    1.3250 S   0  0  0  0  0  0  0  0  0  0  0  0
   -3.6130   -1.0280   -0.8290 C   0  0  0  0  0  0  0  0  0  0  0  0
  1  2  1  0
  2  3  2  0
  2 27  1  0
  3  4  1  0
  4  5  2  0
  5  6  1  0
  6  7  1  0
  6 27  2  0
  8  7  1  6
  8  9  1  0
  8 15  1  0
  9 10  1  0
 10 11  1  0
 11 12  1  0
 11 13  1  0
 11 14  1  0
 15 16  1  0
 16 17  2  0
 16 18  1  0
 18 19  2  0
 18 26  1  0
 19 20  1  0
 20 21  2  0
 20 25  1  0
 21 22  1  0
 22 23  2  0
 23 24  1  0
 24 25  2  0
 25 26  1  0
M  END
