
     RDKit          3D

 26 26  0  0  0  0  0  0  0  0999 V2000
    7.6410   -0.7690   -0.8750 C   0  0  0  0  0  0  0  0  0  0  0  0
    6.3470   -1.2040   -1.0530 O   0  0  0  0  0  0  0  0  0  0  0  0
    5.5580   -0.2480   -1.4960 O   0  0  0  0  0  0  0  0  0  0  0  0
    4.2520   -0.7510   -1.4150 C   0  0  0  0  0  0  0  0  0  0  0  0
    3.3030    0.1470   -1.8490 O   0  0  0  0  0  0  0  0  0  0  0  0
    3.3010    1.6160   -0.9360 P   0  0  0  0  0  0  0  0  0  0  0  0
    1.8990    1.9580   -0.0380 C   0  0  0  0  0  0  0  0  0  0  0  0
    1.9710    3.2290    0.7150 C   0  0  0  0  0  0  0  0  0  0  0  0
    0.7950    1.0530   -0.0610 C   0  0  0  0  0  0  0  0  0  0  0  0
    0.9430   -0.0040   -0.7880 O   0  0  0  0  0  0  0  0  0  0  0  0
   -0.4630    1.1520    0.6150 C   0  0  0  0  0  0  0  0  0  0  0  0
   -0.7720    2.1110    1.3580 N   0  0  0  0  0  0  0  0  0  0  0  0
   -1.5050    0.0800    0.4640 C   0  0  2  0  0  0  0  0  0  0  0  0
   -0.9170   -1.1420    0.9780 N   0  0  0  0  0  0  0  0  0  0  0  0
   -1.9020   -0.0070   -0.8460 O   0  0  0  0  0  0  0  0  0  0  0  0
   -2.8840   -0.8910   -1.1340 C   0  0  1  0  0  0  0  0  0  0  0  0
   -3.5980   -0.4490   -2.4210 C   0  0  0  0  0  0  0  0  0  0  0  0
   -2.2940   -2.6420   -1.3960 P   0  0  0  0  0  0  0  0  0  0  0  0
   -3.9360   -0.9750   -0.1640 O   0  0  0  0  0  0  0  0  0  0  0  0
   -3.6460   -0.6640    1.1840 C   0  0  0  0  0  0  0  0  0  0  0  0
   -4.1640   -1.3370    2.1670 C   0  0  0  0  0  0  0  0  0  0  0  0
   -5.0660   -2.4420    1.9590 N   0  0  0  0  0  0  0  0  0  0  0  0
   -4.7340   -3.5220    2.5290 O   0  0  0  0  0  0  0  0  0  0  0  0
   -2.7110    0.4850    1.2880 C   0  0  2  0  0  0  0  0  0  0  0  0
   -3.3260    1.5280    0.5570 O   0  0  0  0  0  0  0  0  0  0  0  0
   -2.3440    1.0600    2.9660 P   0  0  0  0  0  0  0  0  0  0  0  0
  1  2  1  0
  2  3  1  0
  3  4  1  0
  4  5  1  0
  5  6  1  0
  6  7  2  3
  7  8  1  0
  7  9  1  0
  9 10  2  0
  9 11  1  0
 11 12  2  0
 11 13  1  0
 13 14  1  1
 13 15  1  0
 13 24  1  0
 15 16  1  0
 16 17  1  6
 16 18  1  0
 16 19  1  0
 19 20  1  0
 20 21  2  3
 20 24  1  0
 21 22  1  0
 22 23  2  0
 24 25  1  6
 24 26  1  0
M  END
