
     RDKit          3D

 25 27  0  0  0  0  0  0  0  0999 V2000
    1.7880    2.9700    1.8380 C   0  0  0  0  0  0  0  0  0  0  0  0
    1.8460    1.7170    1.1410 O   0  0  0  0  0  0  0  0  0  0  0  0
    2.7570    0.7550    1.4700 C   0  0  0  0  0  0  0  0  0  0  0  0
    3.5330    1.0730    2.4490 O   0  0  0  0  0  0  0  0  0  0  0  0
    2.9700   -0.5400    0.8750 C   0  0  0  0  0  0  0  0  0  0  0  0
    4.1990   -1.2320    0.9490 C   0  0  0  0  0  0  0  0  0  0  0  0
    4.1010   -2.3500    0.2210 N   0  0  0  0  0  0  0  0  0  0  0  0
    2.8890   -2.4450   -0.3290 C   0  0  0  0  0  0  0  0  0  0  0  0
    2.1830   -1.3350    0.0700 C   0  0  0  0  0  0  0  0  0  0  0  0
    0.7740   -1.1540   -0.3860 C   0  0  0  0  0  0  0  0  0  0  0  0
    0.0880   -0.1850    0.0270 N   0  0  0  0  0  0  0  0  0  0  0  0
   -1.2620    0.1170   -0.3150 C   0  0  0  0  0  0  0  0  0  0  0  0
   -1.8470    1.2620    0.3890 C   0  0  0  0  0  0  0  0  0  0  0  0
   -1.0730    1.8150    1.2630 O   0  0  0  0  0  0  0  0  0  0  0  0
   -3.1560    1.8800    0.2660 C   0  0  0  0  0  0  0  0  0  0  0  0
   -3.2520    2.9210    1.2710 O   0  0  0  0  0  0  0  0  0  0  0  0
   -4.4460    3.4250    1.0980 O   0  0  0  0  0  0  0  0  0  0  0  0
   -2.0120   -0.5640   -1.1200 C   0  0  0  0  0  0  0  0  0  0  0  0
   -3.4010   -0.2690   -1.4880 C   0  0  0  0  0  0  0  0  0  0  0  0
   -1.3400   -2.0390   -1.8490 S   0  0  1  0  0  0  0  0  0  0  0  0
   -2.1920   -3.2140   -1.4710 O   0  0  0  0  0  0  0  0  0  0  0  0
   -1.3620   -1.8300   -3.3220 O   0  0  0  0  0  0  0  0  0  0  0  0
    0.2570   -2.1670   -1.2280 N   0  0  0  0  0  0  0  0  0  0  0  0
    1.0370   -3.2360   -1.5750 N   0  0  0  0  0  0  0  0  0  0  0  0
    2.2390   -3.4180   -1.1980 C   0  0  0  0  0  0  0  0  0  0  0  0
  1  2  1  0
  2  3  1  0
  3  4  2  0
  3  5  1  0
  5  6  2  0
  5  9  1  0
  6  7  1  0
  7  8  1  0
  8  9  2  0
  8 25  1  0
  9 10  1  0
 10 11  2  0
 10 23  1  0
 11 12  1  0
 12 13  1  0
 12 18  2  0
 13 14  2  0
 13 15  1  0
 15 16  1  0
 16 17  1  0
 18 19  1  0
 18 20  1  0
 20 21  2  0
 20 22  2  0
 20 23  1  1
 23 24  1  0
 24 25  2  0
M  END
