
     RDKit          3D

 25 25  0  0  0  0  0  0  0  0999 V2000
   -5.2690   -1.3150    0.6400 C   0  0  0  0  0  0  0  0  0  0  0  0
   -4.7170   -1.5400   -0.7020 C   0  0  0  0  0  0  0  0  0  0  0  0
   -3.5660   -1.1650   -1.1770 C   0  0  0  0  0  0  0  0  0  0  0  0
   -3.2690   -1.5340   -2.5900 C   0  0  0  0  0  0  0  0  0  0  0  0
   -4.1370   -2.1710   -3.2130 O   0  0  0  0  0  0  0  0  0  0  0  0
   -2.0790   -1.1880   -3.1980 O   0  0  0  0  0  0  0  0  0  0  0  0
   -2.5210   -0.4250   -0.4360 C   0  0  0  0  0  0  0  0  0  0  0  0
   -1.4530   -0.1150   -1.0670 N   0  0  0  0  0  0  0  0  0  0  0  0
   -0.3230    0.5720   -0.6140 C   0  0  0  0  0  0  0  0  0  0  0  0
   -0.0160    1.7410   -1.0390 O   0  0  0  0  0  0  0  0  0  0  0  0
    0.5230   -0.0420    0.3510 N   0  0  0  0  0  0  0  0  0  0  0  0
    1.7030    0.5660    0.8840 C   0  0  0  0  0  0  0  0  0  0  0  0
    2.7400    0.8910   -0.1550 C   0  0  2  0  0  0  0  0  0  0  0  0
    3.1980   -0.3540   -0.8800 C   0  0  0  0  0  0  0  0  0  0  0  0
    3.5330   -1.3900   -0.0620 O   0  0  0  0  0  0  0  0  0  0  0  0
    4.8670   -1.7120   -0.0170 C   0  0  0  0  0  0  0  0  0  0  0  0
    5.7870   -0.5970    0.3050 C   0  0  0  0  0  0  0  0  0  0  0  0
    4.9320    0.5860    1.3150 S   0  0  1  0  0  0  0  0  0  0  0  0
    4.3420   -0.1330    2.4670 O   0  0  0  0  0  0  0  0  0  0  0  0
    6.0060    1.5120    1.8750 O   0  0  0  0  0  0  0  0  0  0  0  0
    3.8420    1.5560    0.4530 N   0  0  0  0  0  0  0  0  0  0  0  0
   -2.6460   -0.0690    0.9270 N   0  0  0  0  0  0  0  0  0  0  0  0
   -2.4380    1.2740    1.4140 C   0  0  0  0  0  0  0  0  0  0  0  0
   -3.5230    2.2250    0.9290 C   0  0  0  0  0  0  0  0  0  0  0  0
   -3.5550    2.2860   -0.4540 O   0  0  0  0  0  0  0  0  0  0  0  0
  1  2  1  0
  2  3  2  3
  3  4  1  0
  3  7  1  0
  4  5  2  0
  4  6  1  0
  7  8  2  3
  7 22  1  0
  8  9  1  0
  9 10  2  0
  9 11  1  0
 11 12  1  0
 13 12  1  1
 13 14  1  0
 13 21  1  0
 14 15  1  0
 15 16  1  0
 16 17  1  0
 18 17  1  6
 18 19  2  0
 18 20  2  0
 18 21  1  0
 22 23  1  0
 23 24  1  0
 24 25  1  0
M  END
