
     RDKit          3D

 21 22  0  0  0  0  0  0  0  0999 V2000
   -5.0460    0.6370    0.6290 C   0  0  0  0  0  0  0  0  0  0  0  0
   -3.5510    0.8370    0.5690 C   0  0  1  0  0  0  0  0  0  0  0  0
   -3.2560    2.0960   -0.2370 C   0  0  0  0  0  0  0  0  0  0  0  0
   -3.1060    1.0210    1.8740 O   0  0  0  0  0  0  0  0  0  0  0  0
   -2.9350   -0.3540   -0.0490 C   0  0  0  0  0  0  0  0  0  0  0  0
   -3.6100   -1.4090   -0.4720 C   0  0  0  0  0  0  0  0  0  0  0  0
   -2.6820   -2.3990   -1.0280 C   0  0  0  0  0  0  0  0  0  0  0  0
   -1.3560   -1.7370   -0.8560 C   0  0  0  0  0  0  0  0  0  0  0  0
   -1.5030   -0.5600   -0.2920 C   0  0  0  0  0  0  0  0  0  0  0  0
   -0.5190    0.3400    0.0270 O   0  0  0  0  0  0  0  0  0  0  0  0
    0.2740    0.2950    1.1920 C   0  0  0  0  0  0  0  0  0  0  0  0
    1.0730   -0.9530    1.3200 C   0  0  0  0  0  0  0  0  0  0  0  0
    1.9670   -1.2140    0.3200 O   0  0  0  0  0  0  0  0  0  0  0  0
    3.0730   -0.6440   -0.1820 C   0  0  0  0  0  0  0  0  0  0  0  0
    3.6050    0.5090    0.3520 C   0  0  0  0  0  0  0  0  0  0  0  0
    4.7470    1.1110   -0.1600 C   0  0  0  0  0  0  0  0  0  0  0  0
    5.2770    2.3170    0.4210 N   0  0  0  0  0  0  0  0  0  0  0  0
    5.3540    0.5150   -1.2400 C   0  0  0  0  0  0  0  0  0  0  0  0
    4.8230   -0.6460   -1.7800 C   0  0  0  0  0  0  0  0  0  0  0  0
    3.7050   -1.2370   -1.2820 C   0  0  0  0  0  0  0  0  0  0  0  0
    3.1390   -2.3920   -1.7850 O   0  0  0  0  0  0  0  0  0  0  0  0
  2  1  1  1
  2  3  1  0
  2  4  1  0
  2  5  1  0
  5  6  2  0
  5  9  1  0
  6  7  1  0
  7  8  1  0
  8  9  2  0
  9 10  1  0
 10 11  1  0
 11 12  1  0
 12 13  1  0
 13 14  1  0
 14 15  2  0
 14 20  1  0
 15 16  1  0
 16 17  1  0
 16 18  2  0
 18 19  1  0
 19 20  2  0
 20 21  1  0
M  END
