
     RDKit          3D

 21 22  0  0  0  0  0  0  0  0999 V2000
   -5.7950    1.1220    0.2460 C   0  0  0  0  0  0  0  0  0  0  0  0
   -5.3040   -0.2410   -0.2520 C   0  0  2  0  0  0  0  0  0  0  0  0
   -6.3860   -0.8520   -0.8860 O   0  0  0  0  0  0  0  0  0  0  0  0
   -4.7990   -1.0500    0.9000 C   0  0  0  0  0  0  0  0  0  0  0  0
   -3.3300   -1.1260    0.9740 C   0  0  0  0  0  0  0  0  0  0  0  0
   -2.4970   -0.3620    0.3100 C   0  0  0  0  0  0  0  0  0  0  0  0
   -1.1150   -0.4380    0.3830 O   0  0  0  0  0  0  0  0  0  0  0  0
   -0.4000   -0.4180    1.5950 C   0  0  0  0  0  0  0  0  0  0  0  0
    1.0740   -0.5200    1.2630 C   0  0  0  0  0  0  0  0  0  0  0  0
    1.4250    0.5740    0.4600 O   0  0  0  0  0  0  0  0  0  0  0  0
    2.7240    0.7090    0.0220 C   0  0  0  0  0  0  0  0  0  0  0  0
    3.0930    1.7790   -0.7700 C   0  0  0  0  0  0  0  0  0  0  0  0
    4.3920    1.9130   -1.2080 C   0  0  0  0  0  0  0  0  0  0  0  0
    5.3580    1.0020   -0.8790 C   0  0  0  0  0  0  0  0  0  0  0  0
    6.6980    1.1020   -1.3050 N   0  0  0  0  0  0  0  0  0  0  0  0
    4.9940   -0.0840   -0.0780 C   0  0  0  0  0  0  0  0  0  0  0  0
    5.9840   -1.1100    0.3190 C   0  0  0  0  0  0  0  0  0  0  0  0
    5.3700   -2.0640    1.1030 O   0  0  0  0  0  0  0  0  0  0  0  0
    3.6910   -0.1980    0.3480 C   0  0  0  0  0  0  0  0  0  0  0  0
   -3.0730    0.6670   -0.5920 C   0  0  0  0  0  0  0  0  0  0  0  0
   -4.2430    0.0050   -1.3020 C   0  0  0  0  0  0  0  0  0  0  0  0
  2  1  1  1
  2  3  1  0
  2  4  1  0
  2 21  1  0
  4  5  1  0
  5  6  2  0
  6  7  1  0
  6 20  1  0
  7  8  1  0
  8  9  1  0
  9 10  1  0
 10 11  1  0
 11 12  2  0
 11 19  1  0
 12 13  1  0
 13 14  2  0
 14 15  1  0
 14 16  1  0
 16 17  1  0
 16 19  2  0
 17 18  1  0
 20 21  1  0
M  END
