
     RDKit          3D

 21 22  0  0  0  0  0  0  0  0999 V2000
   -4.9120    1.4600    0.1290 C   0  0  0  0  0  0  0  0  0  0  0  0
   -4.8450    0.3590   -0.8860 C   0  0  0  0  0  0  0  0  0  0  0  0
   -4.0830   -0.8320   -0.4600 C   0  0  0  0  0  0  0  0  0  0  0  0
   -4.7960   -1.9330   -0.3590 N   0  0  0  0  0  0  0  0  0  0  0  0
   -2.6630   -0.8460   -0.1520 C   0  0  0  0  0  0  0  0  0  0  0  0
   -1.7910    0.1580   -0.2030 C   0  0  0  0  0  0  0  0  0  0  0  0
   -2.1480    1.4300   -0.5800 O   0  0  0  0  0  0  0  0  0  0  0  0
   -0.4740   -0.3120    0.1910 C   0  0  0  0  0  0  0  0  0  0  0  0
    0.7230    0.0590   -0.1260 C   0  0  0  0  0  0  0  0  0  0  0  0
    1.0190    1.1300   -1.0370 C   0  0  0  0  0  0  0  0  0  0  0  0
    0.0080    1.8900   -1.6690 O   0  0  0  0  0  0  0  0  0  0  0  0
    2.2930    1.4340   -1.3100 C   0  0  0  0  0  0  0  0  0  0  0  0
    3.4120    0.7240   -0.7300 C   0  0  0  0  0  0  0  0  0  0  0  0
    3.6970   -0.6170   -0.6870 C   0  0  0  0  0  0  0  0  0  0  0  0
    4.8850   -0.7810   -0.0120 C   0  0  0  0  0  0  0  0  0  0  0  0
    5.2890    0.4740    0.3360 C   0  0  0  0  0  0  0  0  0  0  0  0
    6.5470    0.7630    1.0920 C   0  0  0  0  0  0  0  0  0  0  0  0
    4.4110    1.3220   -0.0970 O   0  0  0  0  0  0  0  0  0  0  0  0
   -0.8350   -1.4590    1.1450 C   0  0  2  0  0  0  0  0  0  0  0  0
    0.2290   -2.2940    1.3440 O   0  0  0  0  0  0  0  0  0  0  0  0
   -1.9320   -2.0710    0.2970 C   0  0  0  0  0  0  0  0  0  0  0  0
  1  2  1  0
  2  3  1  0
  3  4  2  0
  3  5  1  0
  5  6  2  0
  5 21  1  0
  6  7  1  0
  6  8  1  0
  8  9  2  3
  8 19  1  0
  9 10  1  0
 10 11  1  0
 10 12  2  3
 12 13  1  0
 13 14  2  0
 13 18  1  0
 14 15  1  0
 15 16  2  0
 16 17  1  0
 16 18  1  0
 19 20  1  6
 19 21  1  0
M  END
