
     RDKit          3D

 21 22  0  0  0  0  0  0  0  0999 V2000
    1.1490    0.3150    1.6740 O   0  0  0  0  0  0  0  0  0  0  0  0
    1.3570   -0.0870    0.5010 C   0  0  0  0  0  0  0  0  0  0  0  0
    0.3320   -0.8170   -0.1450 N   0  0  0  0  0  0  0  0  0  0  0  0
   -0.9490   -1.1200    0.4950 C   0  0  2  0  0  0  0  0  0  0  0  0
   -1.1010   -2.6200    0.6430 C   0  0  0  0  0  0  0  0  0  0  0  0
   -1.0720   -3.2780   -0.5790 O   0  0  0  0  0  0  0  0  0  0  0  0
   -2.0930   -0.5170   -0.2760 C   0  0  0  0  0  0  0  0  0  0  0  0
   -3.4300   -0.8080    0.3580 C   0  0  0  0  0  0  0  0  0  0  0  0
   -4.4580   -0.1620   -0.4870 C   0  0  0  0  0  0  0  0  0  0  0  0
   -5.4370   -0.7860   -1.0960 C   0  0  0  0  0  0  0  0  0  0  0  0
   -6.2850    0.1950   -1.8630 C   0  0  0  0  0  0  0  0  0  0  0  0
   -5.6060    1.4780   -1.5750 C   0  0  0  0  0  0  0  0  0  0  0  0
   -4.5600    1.2490   -0.7830 C   0  0  0  0  0  0  0  0  0  0  0  0
    2.6630    0.2400   -0.1100 C   0  0  2  0  0  0  0  0  0  0  0  0
    2.7750   -0.2580   -1.4080 O   0  0  0  0  0  0  0  0  0  0  0  0
    3.8280   -0.3360    0.6730 C   0  0  0  0  0  0  0  0  0  0  0  0
    5.0840    0.3150    0.2170 C   0  0  0  0  0  0  0  0  0  0  0  0
    5.5270    1.4750    1.0620 C   0  0  0  0  0  0  0  0  0  0  0  0
    4.7030    2.5660    1.0060 O   0  0  0  0  0  0  0  0  0  0  0  0
    3.3550    2.2740    1.0960 C   0  0  0  0  0  0  0  0  0  0  0  0
    2.8290    1.7510   -0.2170 C   0  0  0  0  0  0  0  0  0  0  0  0
  1  2  2  0
  2  3  1  0
  2 14  1  0
  3  4  1  0
  4  5  1  6
  4  7  1  0
  5  6  1  0
  7  8  1  0
  8  9  1  0
  9 10  2  0
  9 13  1  0
 10 11  1  0
 11 12  1  0
 12 13  2  0
 14 15  1  6
 14 16  1  0
 14 21  1  0
 16 17  1  0
 17 18  1  0
 18 19  1  0
 19 20  1  0
 20 21  1  0
M  END
