
     RDKit          3D

 21 22  0  0  0  0  0  0  0  0999 V2000
    5.3980    2.7250    1.5030 N   0  0  0  0  0  0  0  0  0  0  0  0
    4.6890    1.8570    0.6410 C   0  0  0  0  0  0  0  0  0  0  0  0
    4.6160    2.1880   -0.7040 C   0  0  0  0  0  0  0  0  0  0  0  0
    3.9430    1.3870   -1.5920 C   0  0  0  0  0  0  0  0  0  0  0  0
    3.3250    0.2370   -1.1650 C   0  0  0  0  0  0  0  0  0  0  0  0
    3.3720   -0.1220    0.1460 C   0  0  0  0  0  0  0  0  0  0  0  0
    2.7850   -1.2360    0.6380 O   0  0  0  0  0  0  0  0  0  0  0  0
    2.0320   -2.2360    0.0940 C   0  0  0  0  0  0  0  0  0  0  0  0
    0.7260   -1.7920   -0.4690 C   0  0  1  0  0  0  0  0  0  0  0  0
    0.0190   -2.8720   -1.0100 O   0  0  0  0  0  0  0  0  0  0  0  0
   -0.1920   -1.2390    0.6360 C   0  0  0  0  0  0  0  0  0  0  0  0
   -1.4810   -0.8270   -0.0900 C   0  0  1  0  0  0  0  0  0  0  0  0
   -1.9760   -1.9650   -0.6780 O   0  0  0  0  0  0  0  0  0  0  0  0
   -2.3840   -0.2430    0.9680 C   0  0  0  0  0  0  0  0  0  0  0  0
   -3.6750    0.2120    0.4690 C   0  0  0  0  0  0  0  0  0  0  0  0
   -4.0220    1.4720    0.6020 C   0  0  0  0  0  0  0  0  0  0  0  0
   -5.2950    2.0300    0.1350 C   0  0  0  0  0  0  0  0  0  0  0  0
   -6.0890    1.0500   -0.4660 O   0  0  0  0  0  0  0  0  0  0  0  0
   -5.7570   -0.2850   -0.6230 C   0  0  0  0  0  0  0  0  0  0  0  0
   -4.5760   -0.7200   -0.1710 C   0  0  0  0  0  0  0  0  0  0  0  0
    4.0600    0.7020    1.0340 C   0  0  0  0  0  0  0  0  0  0  0  0
  1  2  1  0
  2  3  2  0
  2 21  1  0
  3  4  1  0
  4  5  2  0
  5  6  1  0
  6  7  1  0
  6 21  2  0
  7  8  1  0
  8  9  1  0
  9 10  1  1
  9 11  1  0
 11 12  1  0
 12 13  1  1
 12 14  1  0
 14 15  1  0
 15 16  2  0
 15 20  1  0
 16 17  1  0
 17 18  1  0
 18 19  1  0
 19 20  2  0
M  END
