
     RDKit          3D

 21 22  0  0  0  0  0  0  0  0999 V2000
    5.8280   -0.4850    0.6060 C   0  0  0  0  0  0  0  0  0  0  0  0
    5.9760   -0.2340   -0.8750 C   0  0  0  0  0  0  0  0  0  0  0  0
    4.8200   -0.6270   -1.6210 N   0  0  0  0  0  0  0  0  0  0  0  0
    3.5270   -0.0650   -1.3960 C   0  0  0  0  0  0  0  0  0  0  0  0
    3.4350    0.8020   -0.5060 O   0  0  0  0  0  0  0  0  0  0  0  0
    2.4590   -0.4640   -2.1230 O   0  0  0  0  0  0  0  0  0  0  0  0
    1.1620    0.0510   -1.9390 C   0  0  0  0  0  0  0  0  0  0  0  0
    0.6900   -0.2780   -0.5800 C   0  0  0  0  0  0  0  0  0  0  0  0
   -0.7140    0.1900   -0.2340 C   0  0  2  0  0  0  0  0  0  0  0  0
   -0.8860    1.6680   -0.3220 C   0  0  0  0  0  0  0  0  0  0  0  0
   -0.6620    2.1990   -1.5590 O   0  0  0  0  0  0  0  0  0  0  0  0
   -0.8940   -0.2790    1.2230 C   0  0  0  0  0  0  0  0  0  0  0  0
   -2.1600    0.1830    1.7860 C   0  0  0  0  0  0  0  0  0  0  0  0
   -2.2080    0.7960    2.9540 C   0  0  0  0  0  0  0  0  0  0  0  0
   -3.6230    1.1340    3.2380 C   0  0  0  0  0  0  0  0  0  0  0  0
   -4.3550    0.6260    2.0680 C   0  0  0  0  0  0  0  0  0  0  0  0
   -3.4920    0.0660    1.2130 C   0  0  0  0  0  0  0  0  0  0  0  0
   -3.9790   -0.5260   -0.0530 C   0  0  0  0  0  0  0  0  0  0  0  0
   -3.0570   -0.0200   -1.1710 C   0  0  0  0  0  0  0  0  0  0  0  0
   -1.6990   -0.6030   -1.0360 C   0  0  2  0  0  0  0  0  0  0  0  0
   -1.8400   -1.8660   -0.4220 O   0  0  0  0  0  0  0  0  0  0  0  0
  1  2  1  0
  2  3  1  0
  3  4  1  0
  4  5  2  0
  4  6  1  0
  6  7  1  0
  7  8  1  0
  9  8  1  6
  9 10  1  0
  9 12  1  0
  9 20  1  0
 10 11  1  0
 12 13  1  0
 13 14  2  0
 13 17  1  0
 14 15  1  0
 15 16  1  0
 16 17  2  0
 17 18  1  0
 18 19  1  0
 19 20  1  0
 20 21  1  1
M  END
