
     RDKit          3D

 16 16  0  0  0  0  0  0  0  0999 V2000
    3.9430    2.2330    0.7670 C   0  0  0  0  0  0  0  0  0  0  0  0
    4.3160    0.7890    0.9130 C   0  0  0  0  0  0  0  0  0  0  0  0
    3.5110   -0.0940    0.2000 O   0  0  0  0  0  0  0  0  0  0  0  0
    2.1100   -0.1920    0.4360 C   0  0  0  0  0  0  0  0  0  0  0  0
    1.7090    0.5720    1.3160 O   0  0  0  0  0  0  0  0  0  0  0  0
    1.3100   -1.1070   -0.3110 C   0  0  0  0  0  0  0  0  0  0  0  0
   -0.1660   -1.1390   -0.2700 C   0  0  1  0  0  0  0  0  0  0  0  0
   -0.8690    0.0450   -0.7370 C   0  0  0  0  0  0  0  0  0  0  0  0
   -0.8320    1.3820   -0.1860 C   0  0  2  0  0  0  0  0  0  0  0  0
   -1.3460    1.5580    1.2180 C   0  0  0  0  0  0  0  0  0  0  0  0
   -1.7650    2.2860   -1.0530 C   0  0  0  0  0  0  0  0  0  0  0  0
   -3.1700    1.8150   -1.0590 C   0  0  0  0  0  0  0  0  0  0  0  0
   -0.5520   -2.2690   -1.2810 C   0  0  0  0  0  0  0  0  0  0  0  0
   -1.0010   -3.4320   -0.4730 C   0  0  0  0  0  0  0  0  0  0  0  0
   -1.7420   -2.7110    0.6650 C   0  0  0  0  0  0  0  0  0  0  0  0
   -0.6830   -1.7070    1.0380 C   0  0  0  0  0  0  0  0  0  0  0  0
  1  2  1  0
  2  3  1  0
  3  4  1  0
  4  5  2  0
  4  6  1  0
  7  6  1  1
  7  8  1  0
  7 13  1  0
  7 16  1  0
  8  9  1  0
  9 10  1  1
  9 11  1  0
 11 12  1  0
 13 14  1  0
 14 15  1  0
 15 16  1  0
M  END
