
     RDKit          3D

 16 16  0  0  0  0  0  0  0  0999 V2000
    0.5450    4.0470    0.3460 C   0  0  0  0  0  0  0  0  0  0  0  0
    0.7630    3.4180   -0.7980 C   0  0  0  0  0  0  0  0  0  0  0  0
    0.5390    1.9580   -0.8860 C   0  0  0  0  0  0  0  0  0  0  0  0
    0.0770    1.4350    0.4170 C   0  0  0  0  0  0  0  0  0  0  0  0
   -0.1790   -0.0470    0.4490 C   0  0  2  0  0  0  0  0  0  0  0  0
    1.0310   -0.8590    0.1180 C   0  0  0  0  0  0  0  0  0  0  0  0
    2.1160   -0.5690    1.1040 C   0  0  0  0  0  0  0  0  0  0  0  0
    3.3750   -1.3730    0.8300 C   0  0  0  0  0  0  0  0  0  0  0  0
    3.9510   -1.0910   -0.5300 C   0  0  0  0  0  0  0  0  0  0  0  0
   -1.4350   -0.4540   -0.2660 C   0  0  2  0  0  0  0  0  0  0  0  0
   -1.4550   -0.1230   -1.6140 O   0  0  0  0  0  0  0  0  0  0  0  0
   -2.5860    0.2410    0.4560 C   0  0  0  0  0  0  0  0  0  0  0  0
   -3.8770   -0.5310    0.3050 C   0  0  0  0  0  0  0  0  0  0  0  0
   -3.8270   -1.1430   -0.9480 O   0  0  0  0  0  0  0  0  0  0  0  0
   -2.9840   -2.2380   -0.8510 C   0  0  0  0  0  0  0  0  0  0  0  0
   -1.6730   -1.9220   -0.1590 C   0  0  0  0  0  0  0  0  0  0  0  0
  1  2  2  0
  2  3  1  0
  3  4  1  0
  5  4  1  6
  5  6  1  0
  5 10  1  0
  6  7  1  0
  7  8  1  0
  8  9  1  0
 10 11  1  6
 10 12  1  0
 10 16  1  0
 12 13  1  0
 13 14  1  0
 14 15  1  0
 15 16  1  0
M  END
