
     RDKit          3D

 16 16  0  0  0  0  0  0  0  0999 V2000
   -4.5120    0.4780   -2.2570 C   0  0  0  0  0  0  0  0  0  0  0  0
   -3.7020   -0.4360   -1.3580 C   0  0  1  0  0  0  0  0  0  0  0  0
   -3.3060   -1.6340   -2.1910 C   0  0  0  0  0  0  0  0  0  0  0  0
   -2.4960    0.3340   -0.9010 C   0  0  0  0  0  0  0  0  0  0  0  0
   -1.5990   -0.4640    0.0060 C   0  0  0  0  0  0  0  0  0  0  0  0
   -0.4270    0.3880    0.4070 C   0  0  0  0  0  0  0  0  0  0  0  0
    0.5430   -0.2990    1.3150 C   0  0  2  0  0  0  0  0  0  0  0  0
   -0.0410   -0.7580    2.6150 C   0  0  0  0  0  0  0  0  0  0  0  0
    1.0050   -0.3050    3.6460 C   0  0  0  0  0  0  0  0  0  0  0  0
    1.3360    1.0530    3.0620 C   0  0  0  0  0  0  0  0  0  0  0  0
    1.6650    0.6610    1.6180 C   0  0  1  0  0  0  0  0  0  0  0  0
    2.8890    0.0550    1.5210 O   0  0  0  0  0  0  0  0  0  0  0  0
    3.8020    0.6850    0.7210 C   0  0  0  0  0  0  0  0  0  0  0  0
    3.4240    0.8440   -0.7200 C   0  0  0  0  0  0  0  0  0  0  0  0
    3.1890   -0.4210   -1.4670 C   0  0  0  0  0  0  0  0  0  0  0  0
    2.8490   -0.0690   -2.7850 O   0  0  0  0  0  0  0  0  0  0  0  0
  2  1  1  6
  2  3  1  0
  2  4  1  0
  4  5  1  0
  5  6  1  0
  7  6  1  6
  7  8  1  0
  7 11  1  0
  8  9  1  0
  9 10  1  0
 10 11  1  0
 11 12  1  1
 12 13  1  0
 13 14  1  0
 14 15  1  0
 15 16  1  0
M  END
