
     RDKit          3D

 16 15  0  0  0  0  0  0  0  0999 V2000
    0.8950   -2.6130   -0.1300 C   0  0  0  0  0  0  0  0  0  0  0  0
    0.1670   -1.4860   -0.7490 C   0  0  2  0  0  0  0  0  0  0  0  0
    0.6130   -1.3670   -2.2140 C   0  0  0  0  0  0  0  0  0  0  0  0
    0.2120   -0.1590   -0.0710 C   0  0  2  0  0  0  0  0  0  0  0  0
    1.5300    0.4730    0.1250 C   0  0  0  0  0  0  0  0  0  0  0  0
    2.5550   -0.2230    0.9250 C   0  0  0  0  0  0  0  0  0  0  0  0
    3.8310    0.6360    1.0090 C   0  0  0  0  0  0  0  0  0  0  0  0
    4.4200    0.9140   -0.3400 C   0  0  0  0  0  0  0  0  0  0  0  0
    5.5730    1.7000   -0.1080 O   0  0  0  0  0  0  0  0  0  0  0  0
   -0.6660   -0.1040    1.1560 C   0  0  1  0  0  0  0  0  0  0  0  0
   -0.4970    1.1920    1.7180 O   0  0  0  0  0  0  0  0  0  0  0  0
   -2.0980   -0.3950    0.9710 C   0  0  0  0  0  0  0  0  0  0  0  0
   -2.9600    0.4450    0.1270 C   0  0  1  0  0  0  0  0  0  0  0  0
   -4.3610   -0.2380    0.2460 C   0  0  0  0  0  0  0  0  0  0  0  0
   -3.1940    1.8380    0.7050 C   0  0  0  0  0  0  0  0  0  0  0  0
   -2.7130    0.5590   -1.3210 C   0  0  0  0  0  0  0  0  0  0  0  0
  2  1  1  1
  2  3  1  0
  2  4  1  0
  4  5  1  1
  4 10  1  0
  5  6  1  0
  6  7  1  0
  7  8  1  0
  8  9  1  0
 10 11  1  6
 10 12  1  0
 12 13  1  0
 13 14  1  6
 13 15  1  0
 13 16  1  0
M  END
