
     RDKit          3D

 16 16  0  0  0  0  0  0  0  0999 V2000
   -2.8070    1.8860    2.1070 C   0  0  0  0  0  0  0  0  0  0  0  0
   -2.9010    1.2690    0.7380 C   0  0  0  0  0  0  0  0  0  0  0  0
   -3.4770    1.8090   -0.3190 C   0  0  0  0  0  0  0  0  0  0  0  0
   -3.3680    0.9010   -1.4880 C   0  0  0  0  0  0  0  0  0  0  0  0
   -2.6400   -0.2500   -0.9470 C   0  0  0  0  0  0  0  0  0  0  0  0
   -2.2810   -1.4560   -1.7660 C   0  0  0  0  0  0  0  0  0  0  0  0
   -3.5090   -1.9800   -2.2140 O   0  0  0  0  0  0  0  0  0  0  0  0
   -2.3830   -0.0230    0.3180 C   0  0  0  0  0  0  0  0  0  0  0  0
   -1.7020   -0.9180    1.1320 O   0  0  0  0  0  0  0  0  0  0  0  0
   -0.3900   -0.7090    1.5920 C   0  0  0  0  0  0  0  0  0  0  0  0
    0.5930   -0.5780    0.4320 C   0  0  0  0  0  0  0  0  0  0  0  0
    1.9480   -0.3600    1.0190 C   0  0  0  0  0  0  0  0  0  0  0  0
    3.0280   -0.2110   -0.0210 C   0  0  2  0  0  0  0  0  0  0  0  0
    3.1560   -1.4200   -0.9030 C   0  0  0  0  0  0  0  0  0  0  0  0
    4.3630   -0.0100    0.6680 C   0  0  0  0  0  0  0  0  0  0  0  0
    2.8040    0.9950   -0.9040 C   0  0  0  0  0  0  0  0  0  0  0  0
  1  2  1  0
  2  3  2  0
  2  8  1  0
  3  4  1  0
  4  5  1  0
  5  6  1  0
  5  8  2  0
  6  7  1  0
  8  9  1  0
  9 10  1  0
 10 11  1  0
 11 12  1  0
 12 13  1  0
 13 14  1  6
 13 15  1  0
 13 16  1  0
M  END
