
     RDKit          3D

 25 26  0  0  0  0  0  0  0  0999 V2000
   -1.9400    1.1690    2.0300 C   0  0  0  0  0  0  0  0  0  0  0  0
   -2.4890    0.4850    0.8030 C   0  0  0  0  0  0  0  0  0  0  0  0
   -3.6640    0.9570    0.2680 C   0  0  0  0  0  0  0  0  0  0  0  0
   -4.2420    0.4400   -0.8770 C   0  0  0  0  0  0  0  0  0  0  0  0
   -5.5210    1.0730   -1.3270 C   0  0  0  0  0  0  0  0  0  0  0  0
   -6.3750    1.2120   -0.0580 C   0  0  0  0  0  0  0  0  0  0  0  0
   -6.5280   -0.0540    0.7170 C   0  0  0  0  0  0  0  0  0  0  0  0
   -7.1780   -1.1200    0.0070 N   0  0  0  0  0  0  0  0  0  0  0  0
   -3.5870   -0.5800   -1.4950 C   0  0  0  0  0  0  0  0  0  0  0  0
   -2.4080   -1.0700   -0.9880 C   0  0  0  0  0  0  0  0  0  0  0  0
   -1.8400   -0.5390    0.1850 C   0  0  0  0  0  0  0  0  0  0  0  0
   -0.7060   -1.2690    0.8630 C   0  0  0  0  0  0  0  0  0  0  0  0
    0.5330   -0.8280    0.1700 N   0  0  0  0  0  0  0  0  0  0  0  0
    1.3510    0.0440    0.8980 C   0  0  0  0  0  0  0  0  0  0  0  0
    0.9240    0.2930    2.1490 O   0  0  0  0  0  0  0  0  0  0  0  0
    2.5540    0.7510    0.5720 C   0  0  0  0  0  0  0  0  0  0  0  0
    3.2030    0.6110   -0.6620 N   0  0  0  0  0  0  0  0  0  0  0  0
    4.5970    0.1870   -0.4700 C   0  0  2  0  0  0  0  0  0  0  0  0
    5.0830    0.5070    0.9020 C   0  0  0  0  0  0  0  0  0  0  0  0
    5.3470   -0.4450    1.9050 N   0  0  0  0  0  0  0  0  0  0  0  0
    5.2480    1.7650    1.1200 O   0  0  0  0  0  0  0  0  0  0  0  0
    5.5020    0.9380   -1.4300 C   0  0  0  0  0  0  0  0  0  0  0  0
    6.7920    0.1410   -1.2240 C   0  0  0  0  0  0  0  0  0  0  0  0
    6.2870   -1.2940   -1.2500 C   0  0  0  0  0  0  0  0  0  0  0  0
    4.8300   -1.2470   -0.8620 C   0  0  0  0  0  0  0  0  0  0  0  0
  1  2  1  0
  2  3  2  0
  2 11  1  0
  3  4  1  0
  4  5  1  0
  4  9  2  0
  5  6  1  0
  6  7  1  0
  7  8  1  0
  9 10  1  0
 10 11  2  0
 11 12  1  0
 12 13  1  0
 13 14  1  0
 14 15  2  0
 14 16  1  0
 16 17  1  0
 18 17  1  1
 18 19  1  0
 18 22  1  0
 18 25  1  0
 19 20  1  0
 19 21  2  0
 22 23  1  0
 23 24  1  0
 24 25  1  0
M  CHG  2   8   1  17   1
M  END
