
     RDKit          3D

 16 17  0  0  0  0  0  0  0  0999 V2000
    5.2310   -0.9340   -1.1690 C   0  0  0  0  0  0  0  0  0  0  0  0
    4.0380   -1.4260   -0.9720 C   0  0  0  0  0  0  0  0  0  0  0  0
    3.0820   -0.7490   -0.0600 C   0  0  0  0  0  0  0  0  0  0  0  0
    1.7550   -1.3390    0.0700 C   0  0  0  0  0  0  0  0  0  0  0  0
    0.7370   -0.6060    0.8530 C   0  0  0  0  0  0  0  0  0  0  0  0
    0.3470    0.6820    0.2000 C   0  0  0  0  0  0  0  0  0  0  0  0
   -0.6590    1.4630    0.9870 C   0  0  0  0  0  0  0  0  0  0  0  0
   -1.8540    0.8700    1.2300 O   0  0  0  0  0  0  0  0  0  0  0  0
   -2.5660    0.5910    0.1020 C   0  0  1  0  0  0  0  0  0  0  0  0
   -2.9000   -0.8900   -0.0200 C   0  0  0  0  0  0  0  0  0  0  0  0
   -4.3360   -0.9960   -0.4450 C   0  0  0  0  0  0  0  0  0  0  0  0
   -4.6350    0.3920   -0.9710 C   0  0  0  0  0  0  0  0  0  0  0  0
   -3.9430    1.2450    0.1000 C   0  0  0  0  0  0  0  0  0  0  0  0
    3.4750    0.3400    0.5290 C   0  0  0  0  0  0  0  0  0  0  0  0
    4.8380    0.9610    0.3390 C   0  0  0  0  0  0  0  0  0  0  0  0
    5.6380    0.2250   -0.5380 O   0  0  0  0  0  0  0  0  0  0  0  0
  1  2  2  0
  1 16  1  0
  2  3  1  0
  3  4  1  0
  3 14  2  0
  4  5  1  0
  5  6  1  0
  6  7  1  0
  7  8  1  0
  9  8  1  1
  9 10  1  0
  9 13  1  0
 10 11  1  0
 11 12  1  0
 12 13  1  0
 14 15  1  0
 15 16  1  0
M  END
