
     RDKit          3D

 28 31  0  0  0  0  0  0  0  0999 V2000
   -0.3260   -0.7950   -1.3470 C   0  0  0  0  0  0  0  0  0  0  0  0
   -0.7140   -1.1600   -0.0440 N   0  0  0  0  0  0  0  0  0  0  0  0
    0.2890   -1.7500    0.7680 C   0  0  0  0  0  0  0  0  0  0  0  0
    1.4800   -0.9250    1.0180 C   0  0  0  0  0  0  0  0  0  0  0  0
    2.6870   -0.8800    0.3130 C   0  0  0  0  0  0  0  0  0  0  0  0
    3.4930    0.0180    0.9020 N   0  0  0  0  0  0  0  0  0  0  0  0
    4.8020    0.3420    0.4800 C   0  0  0  0  0  0  0  0  0  0  0  0
    5.9290   -0.1590    1.1120 C   0  0  0  0  0  0  0  0  0  0  0  0
    7.1990    0.1580    0.6990 C   0  0  0  0  0  0  0  0  0  0  0  0
    7.3860    0.9980   -0.3750 C   0  0  0  0  0  0  0  0  0  0  0  0
    6.2790    1.5020   -1.0120 C   0  0  0  0  0  0  0  0  0  0  0  0
    5.0070    1.1800   -0.5920 C   0  0  0  0  0  0  0  0  0  0  0  0
    3.6310    1.8540   -1.4450 Cl  0  0  0  0  0  0  0  0  0  0  0  0
    2.8310    0.5160    1.9260 N   0  0  0  0  0  0  0  0  0  0  0  0
    1.6350   -0.0270    2.0150 N   0  0  0  0  0  0  0  0  0  0  0  0
   -1.7230   -0.4100    0.5900 C   0  0  1  0  0  0  0  0  0  0  0  0
   -1.4010    1.0360    0.8330 C   0  0  0  0  0  0  0  0  0  0  0  0
   -2.5850    1.8480    0.9270 N   0  0  0  0  0  0  0  0  0  0  0  0
   -3.3920    1.8520   -0.2750 C   0  0  0  0  0  0  0  0  0  0  0  0
   -3.8060    0.4570   -0.5490 C   0  0  0  0  0  0  0  0  0  0  0  0
   -4.9820    0.1970   -1.2130 C   0  0  0  0  0  0  0  0  0  0  0  0
   -5.8160    1.2230   -1.6510 O   0  0  0  0  0  0  0  0  0  0  0  0
   -5.4110   -1.1000   -1.4890 C   0  0  0  0  0  0  0  0  0  0  0  0
   -6.6200   -1.3330   -2.1700 O   0  0  0  0  0  0  0  0  0  0  0  0
   -4.6120   -2.1350   -1.0720 C   0  0  0  0  0  0  0  0  0  0  0  0
   -3.4360   -1.8770   -0.4080 C   0  0  0  0  0  0  0  0  0  0  0  0
   -2.4410   -3.2250    0.1100 Cl  0  0  0  0  0  0  0  0  0  0  0  0
   -3.0130   -0.5800   -0.1350 C   0  0  0  0  0  0  0  0  0  0  0  0
  1  2  1  0
  2  3  1  0
 16  2  1  6
  3  4  1  0
  4  5  2  0
  4 15  1  0
  5  6  1  0
  6  7  1  0
  6 14  1  0
  7  8  2  0
  7 12  1  0
  8  9  1  0
  9 10  2  0
 10 11  1  0
 11 12  2  0
 12 13  1  0
 14 15  2  0
 16 17  1  0
 16 28  1  0
 17 18  1  0
 18 19  1  0
 19 20  1  0
 20 21  2  0
 20 28  1  0
 21 22  1  0
 21 23  1  0
 23 24  1  0
 23 25  2  0
 25 26  1  0
 26 27  1  0
 26 28  2  0
M  CHG  1  18   1
M  END
