
     RDKit          3D

 28 30  0  0  0  0  0  0  0  0999 V2000
    2.3550    1.9870    2.9450 C   0  0  0  0  0  0  0  0  0  0  0  0
    3.6240    2.1170    2.2690 N   0  0  0  0  0  0  0  0  0  0  0  0
    3.8270    1.5230    0.9810 C   0  0  0  0  0  0  0  0  0  0  0  0
    2.8230    0.8270    0.3820 N   0  0  0  0  0  0  0  0  0  0  0  0
    2.9930    0.2640   -0.8230 C   0  0  0  0  0  0  0  0  0  0  0  0
    1.9270   -0.4870   -1.4820 C   0  0  0  0  0  0  0  0  0  0  0  0
    2.2150   -0.9800   -2.6380 O   0  0  0  0  0  0  0  0  0  0  0  0
    0.6720   -0.7040   -0.9830 N   0  0  0  0  0  0  0  0  0  0  0  0
    0.1090   -1.4460   -0.1500 C   0  0  0  0  0  0  0  0  0  0  0  0
   -1.4010   -1.2730    0.0400 C   0  0  0  0  0  0  0  0  0  0  0  0
   -1.9570   -0.3710   -0.6820 C   0  0  0  0  0  0  0  0  0  0  0  0
   -3.2200    0.2260   -0.9510 C   0  0  0  0  0  0  0  0  0  0  0  0
   -3.2920    1.2260   -1.8780 C   0  0  0  0  0  0  0  0  0  0  0  0
   -1.7680    1.6880   -2.6690 Cl  0  0  0  0  0  0  0  0  0  0  0  0
   -4.5140    1.9100   -2.2290 C   0  0  0  0  0  0  0  0  0  0  0  0
   -5.7110    1.5120   -1.6020 N   0  0  0  0  0  0  0  0  0  0  0  0
   -5.6120    0.4940   -0.6640 C   0  0  0  0  0  0  0  0  0  0  0  0
   -4.4680   -0.1360   -0.3280 C   0  0  0  0  0  0  0  0  0  0  0  0
   -1.9810   -2.1630    1.0180 C   0  0  0  0  0  0  0  0  0  0  0  0
   -3.2040   -2.1290    1.2730 O   0  0  0  0  0  0  0  0  0  0  0  0
   -1.1860   -3.1580    1.7730 C   0  0  0  0  0  0  0  0  0  0  0  0
    0.0930   -3.2520    1.5630 C   0  0  0  0  0  0  0  0  0  0  0  0
    0.7490   -2.4280    0.6290 N   0  0  0  0  0  0  0  0  0  0  0  0
    2.1870   -2.6400    0.4940 C   0  0  0  0  0  0  0  0  0  0  0  0
    4.2030    0.4060   -1.4330 C   0  0  0  0  0  0  0  0  0  0  0  0
    5.2590    1.1130   -0.8490 C   0  0  0  0  0  0  0  0  0  0  0  0
    5.0380    1.6660    0.3720 C   0  0  0  0  0  0  0  0  0  0  0  0
    6.3510    2.5560    1.1200 Cl  0  0  0  0  0  0  0  0  0  0  0  0
  1  2  1  0
  2  3  1  0
  3  4  2  0
  3 27  1  0
  4  5  1  0
  5  6  1  0
  5 25  2  0
  6  7  2  0
  6  8  1  0
  8  9  2  3
  9 10  1  0
  9 23  1  0
 10 11  2  3
 10 19  1  0
 11 12  1  0
 12 13  2  0
 12 18  1  0
 13 14  1  0
 13 15  1  0
 15 16  1  0
 16 17  1  0
 17 18  2  0
 19 20  2  0
 19 21  1  0
 21 22  2  0
 22 23  1  0
 23 24  1  0
 25 26  1  0
 26 27  2  0
 27 28  1  0
M  CHG  1  16   1
M  END
