
     RDKit          3D

 19 21  0  0  0  0  0  0  0  0999 V2000
    5.3260    0.3090    1.0760 N   0  0  0  0  0  0  0  0  0  0  0  0
    4.2270   -0.2140    0.3400 C   0  0  0  0  0  0  0  0  0  0  0  0
    4.3690   -1.2100   -0.5500 N   0  0  0  0  0  0  0  0  0  0  0  0
    3.3560   -1.7290   -1.2640 C   0  0  0  0  0  0  0  0  0  0  0  0
    2.1240   -1.2270   -1.0790 N   0  0  0  0  0  0  0  0  0  0  0  0
    1.8740   -0.2420   -0.2220 C   0  0  0  0  0  0  0  0  0  0  0  0
    2.9460    0.2780    0.5040 C   0  0  0  0  0  0  0  0  0  0  0  0
    2.4240    1.2320    1.2700 N   0  0  0  0  0  0  0  0  0  0  0  0
    1.0990    1.3070    1.0380 C   0  0  0  0  0  0  0  0  0  0  0  0
    0.7390    0.3980    0.1130 N   0  0  0  0  0  0  0  0  0  0  0  0
   -0.5980    0.1900   -0.3850 C   0  0  2  0  0  0  0  0  0  0  0  0
   -1.4300    1.2260   -0.0320 O   0  0  0  0  0  0  0  0  0  0  0  0
   -2.7020    0.8030   -0.3590 C   0  0  2  0  0  0  0  0  0  0  0  0
   -3.7420    1.6560    0.3400 C   0  0  0  0  0  0  0  0  0  0  0  0
   -3.4920    1.5020    2.1460 S   0  0  0  0  0  0  0  0  0  0  0  0
   -2.7370   -0.6260    0.1320 C   0  0  1  0  0  0  0  0  0  0  0  0
   -3.3670   -1.3790   -0.8590 O   0  0  0  0  0  0  0  0  0  0  0  0
   -1.2580   -1.0200    0.2330 C   0  0  1  0  0  0  0  0  0  0  0  0
   -1.0440   -2.0980   -0.6070 O   0  0  0  0  0  0  0  0  0  0  0  0
  1  2  1  0
  2  3  2  0
  2  7  1  0
  3  4  1  0
  4  5  2  0
  5  6  1  0
  6  7  2  0
  6 10  1  0
  7  8  1  0
  8  9  2  0
  9 10  1  0
 11 10  1  1
 11 12  1  0
 11 18  1  0
 12 13  1  0
 13 14  1  1
 13 16  1  0
 14 15  1  0
 16 17  1  6
 16 18  1  0
 18 19  1  6
M  END
