
     RDKit          3D

 28 30  0  0  0  0  0  0  0  0999 V2000
    5.3520    1.5230   -1.6830 C   0  0  0  0  0  0  0  0  0  0  0  0
    4.7910    1.8380   -0.5290 C   0  0  0  0  0  0  0  0  0  0  0  0
    5.6530    2.6180    0.4180 C   0  0  0  0  0  0  0  0  0  0  0  0
    3.5020    1.4520   -0.2660 N   0  0  0  0  0  0  0  0  0  0  0  0
    2.7610    0.4840   -0.4560 C   0  0  0  0  0  0  0  0  0  0  0  0
    1.3030    0.4320    0.0100 C   0  0  0  0  0  0  0  0  0  0  0  0
    0.6560   -0.3430   -1.0460 N   0  0  0  0  0  0  0  0  0  0  0  0
   -0.7290   -0.5810   -1.1300 C   0  0  0  0  0  0  0  0  0  0  0  0
   -1.2330   -1.2500   -2.0580 O   0  0  0  0  0  0  0  0  0  0  0  0
   -1.6400   -0.0280   -0.0900 C   0  0  0  0  0  0  0  0  0  0  0  0
   -1.1360    0.6410    0.8450 O   0  0  0  0  0  0  0  0  0  0  0  0
   -3.0250   -0.2920   -0.2200 N   0  0  0  0  0  0  0  0  0  0  0  0
   -3.9730    0.1740    0.6930 C   0  0  0  0  0  0  0  0  0  0  0  0
   -3.6710    0.9190    1.7870 C   0  0  0  0  0  0  0  0  0  0  0  0
   -4.7250    1.3200    2.6210 C   0  0  0  0  0  0  0  0  0  0  0  0
   -6.0360    0.9870    2.3680 C   0  0  0  0  0  0  0  0  0  0  0  0
   -6.3010    0.2460    1.2730 N   0  0  0  0  0  0  0  0  0  0  0  0
   -7.4600   -0.2170    0.7890 C   0  0  0  0  0  0  0  0  0  0  0  0
   -7.2100   -0.9270   -0.3620 C   0  0  0  0  0  0  0  0  0  0  0  0
   -5.8850   -0.8660   -0.5330 N   0  0  0  0  0  0  0  0  0  0  0  0
   -5.3150   -0.1520    0.4580 C   0  0  0  0  0  0  0  0  0  0  0  0
    1.6130   -0.8550   -2.0170 C   0  0  0  0  0  0  0  0  0  0  0  0
    2.8860   -0.7950   -1.1290 C   0  0  0  0  0  0  0  0  0  0  0  0
    3.7450   -1.7340   -1.0000 C   0  0  0  0  0  0  0  0  0  0  0  0
    4.9000   -1.9450   -0.1740 C   0  0  0  0  0  0  0  0  0  0  0  0
    5.4210   -0.8760    1.1000 Cl  0  0  0  0  0  0  0  0  0  0  0  0
    5.6380   -3.0670   -0.3020 C   0  0  0  0  0  0  0  0  0  0  0  0
    5.1640   -4.2470   -1.4830 Cl  0  0  0  0  0  0  0  0  0  0  0  0
  1  2  2  0
  2  3  1  0
  2  4  1  0
  4  5  2  3
  5  6  1  0
  5 23  1  0
  6  7  1  0
  7  8  1  0
  7 22  1  0
  8  9  2  0
  8 10  1  0
 10 11  2  0
 10 12  1  0
 12 13  1  0
 13 14  2  0
 13 21  1  0
 14 15  1  0
 15 16  2  0
 16 17  1  0
 17 18  1  0
 17 21  2  0
 18 19  2  0
 19 20  1  0
 20 21  1  0
 22 23  1  0
 23 24  2  3
 24 25  1  0
 25 26  1  0
 25 27  2  3
 27 28  1  0
M  CHG  1  17   1
M  END
