
     RDKit          3D

 27 30  0  0  0  0  0  0  0  0999 V2000
    0.5400   -0.1340   -2.9560 C   0  0  0  0  0  0  0  0  0  0  0  0
    1.1290   -0.0500   -1.6340 N   0  0  0  0  0  0  0  0  0  0  0  0
    0.5520    0.0170   -0.4420 C   0  0  0  0  0  0  0  0  0  0  0  0
   -0.8690    0.0260   -0.0700 C   0  0  0  0  0  0  0  0  0  0  0  0
   -1.1840   -0.0430    1.2960 C   0  0  0  0  0  0  0  0  0  0  0  0
   -2.4910   -0.0210    1.7070 C   0  0  0  0  0  0  0  0  0  0  0  0
   -3.5210    0.0670    0.8140 C   0  0  0  0  0  0  0  0  0  0  0  0
   -3.2120    0.1360   -0.5540 C   0  0  0  0  0  0  0  0  0  0  0  0
   -4.3160    0.2260   -1.4230 N   0  0  0  0  0  0  0  0  0  0  0  0
   -4.2090    0.2960   -2.8210 C   0  0  0  0  0  0  0  0  0  0  0  0
   -3.1670    0.2890   -3.4860 O   0  0  0  0  0  0  0  0  0  0  0  0
   -1.8880    0.1150   -0.9770 C   0  0  0  0  0  0  0  0  0  0  0  0
   -4.8030    0.0660    1.5860 C   0  0  0  0  0  0  0  0  0  0  0  0
   -4.4250   -0.6150    2.8080 N   0  0  0  0  0  0  0  0  0  0  0  0
   -3.1110   -0.0790    3.0630 C   0  0  0  0  0  0  0  0  0  0  0  0
    1.5610    0.0600    0.4950 N   0  0  0  0  0  0  0  0  0  0  0  0
    2.7150    0.0230   -0.0860 N   0  0  0  0  0  0  0  0  0  0  0  0
    4.0340    0.0430    0.4460 C   0  0  0  0  0  0  0  0  0  0  0  0
    4.5250   -1.0690    1.0890 C   0  0  0  0  0  0  0  0  0  0  0  0
    5.8180   -1.0870    1.6260 C   0  0  0  0  0  0  0  0  0  0  0  0
    6.6190    0.0430    1.5060 C   0  0  0  0  0  0  0  0  0  0  0  0
    8.2230   -0.0420    2.1980 Cl  0  0  0  0  0  0  0  0  0  0  0  0
    6.1350    1.1600    0.8650 C   0  0  0  0  0  0  0  0  0  0  0  0
    7.1480    2.5730    0.7200 Cl  0  0  0  0  0  0  0  0  0  0  0  0
    4.8590    1.1610    0.3420 C   0  0  0  0  0  0  0  0  0  0  0  0
    2.4790   -0.0460   -1.4030 C   0  0  0  0  0  0  0  0  0  0  0  0
    3.3550   -0.0990   -2.3190 O   0  0  0  0  0  0  0  0  0  0  0  0
  1  2  1  0
  2  3  1  0
  2 26  1  0
  3  4  1  0
  3 16  2  0
  4  5  2  0
  4 12  1  0
  5  6  1  0
  6  7  2  0
  6 15  1  0
  7  8  1  0
  7 13  1  0
  8  9  1  0
  8 12  2  0
  9 10  1  0
 10 11  2  0
 13 14  1  0
 14 15  1  0
 16 17  1  0
 17 18  1  0
 17 26  1  0
 18 19  2  0
 18 25  1  0
 19 20  1  0
 20 21  2  0
 21 22  1  0
 21 23  1  0
 23 24  1  0
 23 25  2  0
 26 27  2  0
M  CHG  1  14   1
M  END
