
     RDKit          3D

 11 12  0  0  0  0  0  0  0  0999 V2000
   -2.5950    1.1370    0.6950 C   0  0  0  0  0  0  0  0  0  0  0  0
   -1.1170    0.8420    0.5650 C   0  0  2  0  0  0  0  0  0  0  0  0
   -0.4730    1.9350    0.0860 O   0  0  0  0  0  0  0  0  0  0  0  0
    0.5710    1.7520   -0.7730 C   0  0  0  0  0  0  0  0  0  0  0  0
    1.3280    0.5140   -0.4990 C   0  0  0  0  0  0  0  0  0  0  0  0
    0.6280   -0.5700   -0.2200 C   0  0  0  0  0  0  0  0  0  0  0  0
    1.5250   -1.6870    0.0210 C   0  0  0  0  0  0  0  0  0  0  0  0
    2.7830   -1.3010   -0.1060 C   0  0  0  0  0  0  0  0  0  0  0  0
    2.7640    0.1430   -0.4510 C   0  0  0  0  0  0  0  0  0  0  0  0
   -0.8380   -0.3980   -0.2180 C   0  0  1  0  0  0  0  0  0  0  0  0
   -1.5460   -1.6110    0.3180 C   0  0  0  0  0  0  0  0  0  0  0  0
  2  1  1  6
  2  3  1  0
  2 10  1  0
  3  4  1  0
  4  5  1  0
  5  6  2  0
  5  9  1  0
  6  7  1  0
  6 10  1  0
  7  8  2  0
  8  9  1  0
 10 11  1  1
M  END
