
     RDKit          3D

 11 12  0  0  0  0  0  0  0  0999 V2000
   -3.1150    0.8480   -0.2870 C   0  0  0  0  0  0  0  0  0  0  0  0
   -2.3290   -0.2880    0.3420 C   0  0  0  0  0  0  0  0  0  0  0  0
   -1.1680   -0.6600   -0.5710 C   0  0  2  0  0  0  0  0  0  0  0  0
   -0.4340   -1.7560    0.0660 C   0  0  0  0  0  0  0  0  0  0  0  0
    0.8240   -1.7110    0.4070 C   0  0  0  0  0  0  0  0  0  0  0  0
    1.6160   -0.4970    0.1580 C   0  0  0  0  0  0  0  0  0  0  0  0
    2.8750   -0.2130    0.4060 C   0  0  0  0  0  0  0  0  0  0  0  0
    3.1230    1.1570   -0.0590 C   0  0  0  0  0  0  0  0  0  0  0  0
    1.8280    1.6000   -0.6010 C   0  0  0  0  0  0  0  0  0  0  0  0
    0.9410    0.6210   -0.4710 C   0  0  0  0  0  0  0  0  0  0  0  0
   -0.4030    0.4900   -0.8030 O   0  0  0  0  0  0  0  0  0  0  0  0
  1  2  1  0
  3  2  1  1
  3  4  1  0
  3 11  1  0
  4  5  2  0
  5  6  1  0
  6  7  2  0
  6 10  1  0
  7  8  1  0
  8  9  1  0
  9 10  2  0
 10 11  1  0
M  END
