
     RDKit          3D

 22 22  0  0  0  0  0  0  0  0999 V2000
   -3.4990    0.0390   -1.4520 O   0  0  0  0  0  0  0  0  0  0  0  0
   -3.8030    0.7860   -0.6250 C   0  0  0  0  0  0  0  0  0  0  0  0
   -4.6440    1.9680   -0.5610 C   0  0  0  0  0  0  0  0  0  0  0  0
   -5.2200    2.2070   -1.8530 N   0  0  0  0  0  0  0  0  0  0  0  0
   -6.4540    2.1840   -1.9850 O   0  0  0  0  0  0  0  0  0  0  0  0
   -4.4370    2.4420   -2.9370 O   0  0  0  0  0  0  0  0  0  0  0  0
   -3.1260    0.4660    0.9540 N   0  0  0  0  0  0  0  0  0  0  0  0
   -2.4850   -0.6760    0.6470 C   0  0  0  0  0  0  0  0  0  0  0  0
   -2.2100   -1.2510   -0.3720 O   0  0  0  0  0  0  0  0  0  0  0  0
   -2.0370   -1.3050    1.9570 N   0  0  0  0  0  0  0  0  0  0  0  0
   -1.2440   -2.4610    1.8620 C   0  0  0  0  0  0  0  0  0  0  0  0
    0.1180   -2.2100    1.2860 C   0  0  0  0  0  0  0  0  0  0  0  0
    0.8790   -3.2170    1.1690 O   0  0  0  0  0  0  0  0  0  0  0  0
    0.5820   -0.9470    0.8930 N   0  0  0  0  0  0  0  0  0  0  0  0
    1.8790   -0.6500    0.3970 C   0  0  0  0  0  0  0  0  0  0  0  0
    2.0820    0.5260   -0.3410 C   0  0  0  0  0  0  0  0  0  0  0  0
    3.3430    0.9000   -0.7840 C   0  0  0  0  0  0  0  0  0  0  0  0
    4.4560    0.1310   -0.5140 C   0  0  0  0  0  0  0  0  0  0  0  0
    5.7560    0.5020   -0.9430 N   0  0  0  0  0  0  0  0  0  0  0  0
    6.0050    2.0020   -1.7990 S   0  0  0  0  0  0  0  0  0  0  0  0
    4.2310   -1.0220    0.2120 C   0  0  0  0  0  0  0  0  0  0  0  0
    3.0010   -1.4100    0.6550 C   0  0  0  0  0  0  0  0  0  0  0  0
  1  2  2  0
  2  3  1  0
  2  7  1  0
  3  4  1  0
  4  5  2  0
  4  6  1  0
  7  8  1  0
  8  9  2  0
  8 10  1  0
 10 11  1  0
 11 12  1  0
 12 13  2  0
 12 14  1  0
 14 15  1  0
 15 16  2  0
 15 22  1  0
 16 17  1  0
 17 18  2  0
 18 19  1  0
 18 21  1  0
 19 20  1  0
 21 22  2  0
M  CHG  2   4   1   6  -1
M  END
