
     RDKit          3D

 21 22  0  0  0  0  0  0  0  0999 V2000
    0.8990   -0.8670    2.0100 O   0  0  0  0  0  0  0  0  0  0  0  0
    1.5220   -0.4550    1.2000 C   0  0  0  0  0  0  0  0  0  0  0  0
    2.8300    0.1150    0.9420 C   0  0  0  0  0  0  0  0  0  0  0  0
    3.6660   -0.3070   -0.5880 S   0  0  0  0  0  0  0  0  0  0  0  0
    5.3150    0.3030   -0.3580 C   0  0  0  0  0  0  0  0  0  0  0  0
    6.3410   -0.5040    0.0710 N   0  0  0  0  0  0  0  0  0  0  0  0
    7.4020    0.2930    0.3160 C   0  0  0  0  0  0  0  0  0  0  0  0
    6.9990    1.5570    0.0370 N   0  0  0  0  0  0  0  0  0  0  0  0
    5.8090    1.5090   -0.3600 N   0  0  0  0  0  0  0  0  0  0  0  0
    0.7110   -0.4090   -0.4040 N   0  0  0  0  0  0  0  0  0  0  0  0
   -0.5740   -0.6860    0.1480 C   0  0  0  0  0  0  0  0  0  0  0  0
   -0.9660   -0.9700    1.3030 O   0  0  0  0  0  0  0  0  0  0  0  0
   -1.5810   -0.5820   -0.9140 N   0  0  0  0  0  0  0  0  0  0  0  0
   -2.9600   -0.5990   -0.6790 C   0  0  0  0  0  0  0  0  0  0  0  0
   -3.7120    0.0090   -1.5900 C   0  0  0  0  0  0  0  0  0  0  0  0
   -5.0170    0.2750   -1.3940 C   0  0  0  0  0  0  0  0  0  0  0  0
   -5.8970    0.9230   -2.2840 O   0  0  0  0  0  0  0  0  0  0  0  0
   -5.5500   -0.1410   -0.1290 C   0  0  0  0  0  0  0  0  0  0  0  0
   -4.8770   -0.7660    0.7800 C   0  0  0  0  0  0  0  0  0  0  0  0
   -5.4150   -1.1900    1.9870 O   0  0  0  0  0  0  0  0  0  0  0  0
   -3.4720   -1.0480    0.5650 C   0  0  0  0  0  0  0  0  0  0  0  0
  1  2  2  0
  2  3  1  0
  2 10  1  0
  3  4  1  0
  4  5  1  0
  5  6  1  0
  5  9  2  0
  6  7  2  0
  7  8  1  0
  8  9  1  0
 10 11  1  0
 11 12  2  0
 11 13  1  0
 13 14  1  0
 14 15  2  0
 14 21  1  0
 15 16  1  0
 16 17  1  0
 16 18  2  0
 18 19  1  0
 19 20  1  0
 19 21  2  0
M  END
