
     RDKit          3D

 11 12  0  0  0  0  0  0  0  0999 V2000
   -1.9130   -1.6190    0.4730 C   0  0  0  0  0  0  0  0  0  0  0  0
   -0.9020   -0.5730    0.0460 C   0  0  2  0  0  0  0  0  0  0  0  0
    0.0580   -1.1930   -0.8900 C   0  0  0  0  0  0  0  0  0  0  0  0
    1.4170   -1.2830   -0.2560 C   0  0  0  0  0  0  0  0  0  0  0  0
    2.1760   -0.0190   -0.4030 C   0  0  0  0  0  0  0  0  0  0  0  0
    1.8380    1.1170    0.4600 C   0  0  0  0  0  0  0  0  0  0  0  0
    0.4950    1.2820    1.0130 C   0  0  2  0  0  0  0  0  0  0  0  0
   -0.3190    0.0520    1.2690 C   0  0  0  0  0  0  0  0  0  0  0  0
   -0.2850    2.2220    0.3510 O   0  0  0  0  0  0  0  0  0  0  0  0
   -0.8900    1.7900   -0.7930 C   0  0  0  0  0  0  0  0  0  0  0  0
   -1.7070    0.5350   -0.6410 C   0  0  0  0  0  0  0  0  0  0  0  0
  2  1  1  1
  2  3  1  0
  2  8  1  0
  2 11  1  0
  3  4  1  0
  4  5  1  0
  5  6  1  0
  7  6  1  6
  7  8  1  0
  7  9  1  0
  9 10  1  0
 10 11  1  0
M  END
