
     RDKit          3D

 11 12  0  0  0  0  0  0  0  0999 V2000
    3.4400    0.1140   -0.3180 C   0  0  0  0  0  0  0  0  0  0  0  0
    1.9870   -0.2130   -0.2190 C   0  0  0  0  0  0  0  0  0  0  0  0
    1.5690   -1.4130    0.1530 C   0  0  0  0  0  0  0  0  0  0  0  0
    0.1610   -1.8190    0.2770 C   0  0  0  0  0  0  0  0  0  0  0  0
   -0.7300   -0.7860   -0.3790 C   0  0  1  0  0  0  0  0  0  0  0  0
   -2.1840   -0.9460    0.0400 C   0  0  0  0  0  0  0  0  0  0  0  0
   -2.4470   -0.1510    1.1380 O   0  0  0  0  0  0  0  0  0  0  0  0
   -2.5400    1.1900    0.7340 C   0  0  0  0  0  0  0  0  0  0  0  0
   -1.3190    1.6200   -0.0530 C   0  0  0  0  0  0  0  0  0  0  0  0
   -0.2680    0.5680    0.1290 C   0  0  2  0  0  0  0  0  0  0  0  0
    1.0290    0.8960   -0.5670 C   0  0  0  0  0  0  0  0  0  0  0  0
  1  2  1  0
  2  3  2  0
  2 11  1  0
  3  4  1  0
  5  4  1  1
  5  6  1  0
  5 10  1  0
  6  7  1  0
  7  8  1  0
  8  9  1  0
 10  9  1  6
 10 11  1  0
M  END
