
     RDKit          3D

 31 34  0  0  0  0  0  0  0  0999 V2000
   -6.3540   -1.3970   -0.3270 C   0  0  0  0  0  0  0  0  0  0  0  0
   -5.0430   -2.0100   -0.3460 N   0  0  1  0  0  0  0  0  0  0  0  0
   -4.4550   -1.9210   -1.6630 C   0  0  0  0  0  0  0  0  0  0  0  0
   -2.9500   -1.9210   -1.6410 C   0  0  0  0  0  0  0  0  0  0  0  0
   -2.5190   -2.7060   -0.6030 O   0  0  0  0  0  0  0  0  0  0  0  0
   -2.9020   -2.2870    0.6550 C   0  0  1  0  0  0  0  0  0  0  0  0
   -1.7870   -1.6100    1.3460 C   0  0  0  0  0  0  0  0  0  0  0  0
   -1.5030   -0.2410    0.8590 N   0  0  0  0  0  0  0  0  0  0  0  0
   -0.1830    0.0260    0.4520 C   0  0  0  0  0  0  0  0  0  0  0  0
    0.4580   -1.1450    0.3530 O   0  0  0  0  0  0  0  0  0  0  0  0
    0.5900    1.2080    0.1350 C   0  0  0  0  0  0  0  0  0  0  0  0
    0.2420    2.4500    0.2490 C   0  0  0  0  0  0  0  0  0  0  0  0
   -0.8710    3.1860    0.6780 N   0  0  0  0  0  0  0  0  0  0  0  0
   -1.7310    3.8770   -0.0830 C   0  0  0  0  0  0  0  0  0  0  0  0
   -2.6570    4.5240    0.7310 C   0  0  0  0  0  0  0  0  0  0  0  0
   -2.3340    4.2040    2.0180 C   0  0  0  0  0  0  0  0  0  0  0  0
   -1.2310    3.3790    1.9570 C   0  0  0  0  0  0  0  0  0  0  0  0
    1.6640    3.4300   -0.4330 S   0  0  0  0  0  0  0  0  0  0  0  0
    2.2300    1.9530   -1.4380 C   0  0  0  0  0  0  0  0  0  0  0  0
    1.9750    1.0080   -0.3570 N   0  0  0  0  0  0  0  0  0  0  0  0
    2.7820    0.2040    0.1300 C   0  0  0  0  0  0  0  0  0  0  0  0
    4.1160   -0.1570   -0.1710 C   0  0  0  0  0  0  0  0  0  0  0  0
    4.9280    0.2130   -1.0970 C   0  0  0  0  0  0  0  0  0  0  0  0
    6.3410   -0.4040   -1.1150 C   0  0  0  0  0  0  0  0  0  0  0  0
    6.4390   -1.2730   -0.0700 O   0  0  0  0  0  0  0  0  0  0  0  0
    7.5590   -1.9960    0.1140 C   0  0  0  0  0  0  0  0  0  0  0  0
    8.8500   -1.3020    0.3320 C   0  0  0  0  0  0  0  0  0  0  0  0
    9.3520   -0.3120   -1.0270 Cl  0  0  0  0  0  0  0  0  0  0  0  0
   -2.6560    0.5920    0.7880 C   0  0  0  0  0  0  0  0  0  0  0  0
   -3.9620   -0.0340    0.4590 C   0  0  0  0  0  0  0  0  0  0  0  0
   -4.1710   -1.4700    0.6790 C   0  0  1  0  0  0  0  0  0  0  0  0
  2  1  1  6
  2  3  1  0
  2 31  1  0
  3  4  1  0
  4  5  1  0
  5  6  1  0
  6  7  1  6
  6 31  1  0
  7  8  1  0
  8  9  1  0
  8 29  1  0
  9 10  2  0
  9 11  1  0
 11 12  2  0
 11 20  1  0
 12 13  1  0
 12 18  1  0
 13 14  1  0
 13 17  1  0
 14 15  2  0
 15 16  1  0
 16 17  2  0
 18 19  1  0
 19 20  1  0
 20 21  2  3
 21 22  1  0
 22 23  2  3
 23 24  1  0
 24 25  1  0
 25 26  1  0
 26 27  1  0
 27 28  1  0
 29 30  1  0
 31 30  1  6
M  CHG  2   2   1  20   1
M  END
