
     RDKit          3D

 31 34  0  0  0  0  0  0  0  0999 V2000
    2.0950    0.1490   -1.7930 C   0  0  0  0  0  0  0  0  0  0  0  0
    2.0870   -0.3160   -0.4200 N   0  0  2  0  0  0  0  0  0  0  0  0
    1.6880    0.7360    0.4670 C   0  0  0  0  0  0  0  0  0  0  0  0
    0.3320    0.7420    1.0230 C   0  0  0  0  0  0  0  0  0  0  0  0
   -0.8110    0.7960    0.1880 N   0  0  0  0  0  0  0  0  0  0  0  0
   -1.2610   -0.3630   -0.5660 C   0  0  0  0  0  0  0  0  0  0  0  0
   -1.7530   -1.4510    0.3780 C   0  0  2  0  0  0  0  0  0  0  0  0
   -2.0750   -2.6910   -0.4230 C   0  0  0  0  0  0  0  0  0  0  0  0
   -3.4040   -3.1490   -0.1450 N   0  0  0  0  0  0  0  0  0  0  0  0
   -3.6740   -4.5230    0.0350 C   0  0  0  0  0  0  0  0  0  0  0  0
   -4.8620   -4.9030    0.2830 O   0  0  0  0  0  0  0  0  0  0  0  0
   -2.6330   -5.4340   -0.0630 O   0  0  0  0  0  0  0  0  0  0  0  0
   -3.0650   -7.0990    0.1770 Cl  0  0  0  0  0  0  0  0  0  0  0  0
   -4.4880   -2.2120   -0.0560 C   0  0  0  0  0  0  0  0  0  0  0  0
   -4.0250   -0.9590    0.5950 C   0  0  0  0  0  0  0  0  0  0  0  0
   -2.7770   -1.0320    1.1750 O   0  0  0  0  0  0  0  0  0  0  0  0
   -1.5110    2.0260    0.1000 C   0  0  0  0  0  0  0  0  0  0  0  0
   -1.4780    3.1780    0.7170 N   0  0  0  0  0  0  0  0  0  0  0  0
   -2.2490    4.1740    0.3710 C   0  0  0  0  0  0  0  0  0  0  0  0
   -2.2890    5.4760    0.9780 C   0  0  0  0  0  0  0  0  0  0  0  0
   -3.1550    6.4240    0.4960 C   0  0  0  0  0  0  0  0  0  0  0  0
   -4.0120    6.2240   -0.5520 C   0  0  0  0  0  0  0  0  0  0  0  0
   -3.9900    4.9710   -1.1540 C   0  0  0  0  0  0  0  0  0  0  0  0
   -3.1280    4.0630   -0.6560 C   0  0  0  0  0  0  0  0  0  0  0  0
   -2.8180    2.3450   -1.1810 S   0  0  0  0  0  0  0  0  0  0  0  0
    3.3970   -0.8570   -0.0580 C   0  0  1  0  0  0  0  0  0  0  0  0
    3.5140   -2.3210   -0.3520 C   0  0  0  0  0  0  0  0  0  0  0  0
    4.9580   -2.7510   -0.2140 C   0  0  0  0  0  0  0  0  0  0  0  0
    5.7700   -1.8160    0.6540 C   0  0  0  0  0  0  0  0  0  0  0  0
    5.7760   -0.4010    0.1300 C   0  0  0  0  0  0  0  0  0  0  0  0
    4.5390   -0.1550   -0.7550 C   0  0  0  0  0  0  0  0  0  0  0  0
  2  1  1  6
  2  3  1  0
  2 26  1  0
  3  4  1  0
  4  5  1  0
  5  6  1  0
  5 17  1  0
  7  6  1  6
  7  8  1  0
  7 16  1  0
  8  9  1  0
  9 10  1  0
  9 14  1  0
 10 11  2  0
 10 12  1  0
 12 13  1  0
 14 15  1  0
 15 16  1  0
 17 18  2  0
 17 25  1  0
 18 19  1  0
 19 20  2  0
 19 24  1  0
 20 21  1  0
 21 22  2  0
 22 23  1  0
 23 24  2  0
 24 25  1  0
 26 27  1  6
 26 31  1  0
 27 28  1  0
 28 29  1  0
 29 30  1  0
 30 31  1  0
M  CHG  2   2   1  18   1
M  END
