
     RDKit          3D

 29 30  0  0  0  0  0  0  0  0999 V2000
   -1.2440   -3.2690    0.7730 C   0  0  0  0  0  0  0  0  0  0  0  0
   -1.8940   -2.1920    1.6520 C   0  0  0  0  0  0  0  0  0  0  0  0
   -2.1230   -0.9820    0.8730 N   0  0  0  0  0  0  0  0  0  0  0  0
   -1.1080   -0.0190    0.8410 C   0  0  0  0  0  0  0  0  0  0  0  0
   -0.5100    0.2450    1.9210 O   0  0  0  0  0  0  0  0  0  0  0  0
   -0.6660    0.7310   -0.3740 C   0  0  2  0  0  0  0  0  0  0  0  0
    0.1480   -0.1650   -1.2900 C   0  0  0  0  0  0  0  0  0  0  0  0
    1.5900    0.1550   -1.0800 C   0  0  2  0  0  0  0  0  0  0  0  0
    2.6410   -1.2270   -0.8870 S   0  0  1  0  0  0  0  0  0  0  0  0
    2.2680   -2.0990    0.2770 O   0  0  0  0  0  0  0  0  0  0  0  0
    2.6640   -2.0470   -2.1480 O   0  0  0  0  0  0  0  0  0  0  0  0
    4.2420   -0.6510   -0.5790 N   0  0  0  0  0  0  0  0  0  0  0  0
    4.7760    0.1320   -1.6450 C   0  0  0  0  0  0  0  0  0  0  0  0
    5.0990   -1.6830   -0.0870 C   0  0  0  0  0  0  0  0  0  0  0  0
    5.0340   -1.6870    1.4240 C   0  0  0  0  0  0  0  0  0  0  0  0
    6.0910   -2.9630    2.0920 Cl  0  0  0  0  0  0  0  0  0  0  0  0
    1.5830    1.0690    0.1410 C   0  0  0  0  0  0  0  0  0  0  0  0
    0.3080    1.7950   -0.0980 C   0  0  0  0  0  0  0  0  0  0  0  0
    0.0720    3.0930   -0.0760 C   0  0  0  0  0  0  0  0  0  0  0  0
   -1.1800    3.7840   -0.3130 C   0  0  0  0  0  0  0  0  0  0  0  0
   -2.2640    3.7950    0.4280 C   0  0  0  0  0  0  0  0  0  0  0  0
   -2.4790    2.9320    1.9760 S   0  0  0  0  0  0  0  0  0  0  0  0
   -3.8490    1.7750    1.7670 C   0  0  0  0  0  0  0  0  0  0  0  0
   -4.0880    1.5000    0.3500 C   0  0  0  0  0  0  0  0  0  0  0  0
   -4.3900    2.5060   -0.3850 O   0  0  0  0  0  0  0  0  0  0  0  0
   -4.0160    0.2390   -0.2780 N   0  0  0  0  0  0  0  0  0  0  0  0
   -4.6670    0.1340   -1.5980 C   0  0  0  0  0  0  0  0  0  0  0  0
   -3.3920   -0.9310    0.2240 C   0  0  0  0  0  0  0  0  0  0  0  0
   -4.0790   -2.0120    0.0500 O   0  0  0  0  0  0  0  0  0  0  0  0
  1  2  1  0
  2  3  1  0
  3  4  1  0
  3 28  1  0
  4  5  2  0
  4  6  1  0
  6  7  1  6
  6 18  1  0
  8  7  1  1
  8  9  1  0
  8 17  1  0
  9 10  2  0
  9 11  2  0
  9 12  1  1
 12 13  1  0
 12 14  1  0
 14 15  1  0
 15 16  1  0
 17 18  1  0
 18 19  2  0
 19 20  1  0
 20 21  2  0
 21 22  1  0
 22 23  1  0
 23 24  1  0
 24 25  2  0
 24 26  1  0
 26 27  1  0
 26 28  1  0
 28 29  2  0
M  END
