
     RDKit          3D

 31 35  0  0  0  0  0  0  0  0999 V2000
    4.4230   -1.7500    0.3570 C   0  0  0  0  0  0  0  0  0  0  0  0
    4.0960   -0.6120    1.1560 O   0  0  0  0  0  0  0  0  0  0  0  0
    4.1680    0.6600    0.6480 C   0  0  0  0  0  0  0  0  0  0  0  0
    3.0880    1.2680    0.1040 C   0  0  0  0  0  0  0  0  0  0  0  0
    1.7130    0.8020    0.0320 C   0  0  1  0  0  0  0  0  0  0  0  0
    0.9690    1.5260   -1.0740 C   0  0  0  0  0  0  0  0  0  0  0  0
    1.4330   -0.5800    0.0980 N   0  0  0  0  0  0  0  0  0  0  0  0
    0.0250   -0.8590    0.2770 C   0  0  0  0  0  0  0  0  0  0  0  0
   -0.6210   -1.7420   -0.7130 C   0  0  1  0  0  0  0  0  0  0  0  0
   -0.0370   -3.1220   -0.8410 C   0  0  0  0  0  0  0  0  0  0  0  0
   -0.4010   -3.7930    0.4280 C   0  0  0  0  0  0  0  0  0  0  0  0
   -1.7620   -3.2620    0.7370 C   0  0  2  0  0  0  0  0  0  0  0  0
   -3.1060   -4.4100    0.3700 S   0  0  0  0  0  0  0  0  0  0  0  0
   -4.2860   -3.5920   -0.7150 C   0  0  0  0  0  0  0  0  0  0  0  0
   -4.2850   -2.1630   -0.5450 N   0  0  0  0  0  0  0  0  0  0  0  0
   -3.2010   -1.5080   -0.2930 C   0  0  0  0  0  0  0  0  0  0  0  0
   -3.3060   -0.0730   -0.1450 N   0  0  0  0  0  0  0  0  0  0  0  0
   -3.1130    0.8390   -1.2260 C   0  0  0  0  0  0  0  0  0  0  0  0
   -3.3990    2.2360   -0.6600 C   0  0  0  0  0  0  0  0  0  0  0  0
   -4.8450    2.1700   -0.1550 C   0  0  0  0  0  0  0  0  0  0  0  0
   -4.8440    1.3590    1.1180 C   0  0  0  0  0  0  0  0  0  0  0  0
   -3.6330    0.4420    1.1870 C   0  0  0  0  0  0  0  0  0  0  0  0
   -1.9350   -2.0950   -0.1360 N   0  0  0  0  0  0  0  0  0  0  0  0
    3.2980    2.5710   -0.3920 C   0  0  0  0  0  0  0  0  0  0  0  0
    4.4970    3.2150   -0.3450 C   0  0  0  0  0  0  0  0  0  0  0  0
    5.5820    2.5800    0.2150 C   0  0  0  0  0  0  0  0  0  0  0  0
    5.4090    1.3030    0.7090 C   0  0  0  0  0  0  0  0  0  0  0  0
    6.7850    0.4680    1.4330 Cl  0  0  0  0  0  0  0  0  0  0  0  0
    6.6670    3.4520    0.1350 O   0  0  0  0  0  0  0  0  0  0  0  0
    6.3790    4.4190   -0.8710 C   0  0  0  0  0  0  0  0  0  0  0  0
    4.9610    4.4780   -0.7590 O   0  0  0  0  0  0  0  0  0  0  0  0
  1  2  1  0
  2  3  1  0
  3  4  2  0
  3 27  1  0
  4  5  1  0
  4 24  1  0
  5  6  1  6
  5  7  1  0
  7  8  1  0
  9  8  1  1
  9 10  1  0
  9 23  1  0
 10 11  1  0
 12 11  1  6
 12 13  1  0
 12 23  1  0
 13 14  1  0
 14 15  1  0
 15 16  2  0
 16 17  1  0
 16 23  1  0
 17 18  1  0
 17 22  1  0
 18 19  1  0
 19 20  1  0
 20 21  1  0
 21 22  1  0
 24 25  2  0
 25 26  1  0
 25 31  1  0
 26 27  2  0
 26 29  1  0
 27 28  1  0
 29 30  1  0
 30 31  1  0
M  CHG  2   7   1  15   1
M  END
