
     RDKit          3D

 31 35  0  0  0  0  0  0  0  0999 V2000
    0.6240   -1.2000   -1.1990 C   0  0  0  0  0  0  0  0  0  0  0  0
   -0.2510   -0.0680   -0.9350 N   0  0  0  0  0  0  0  0  0  0  0  0
   -1.5360   -0.2140   -0.5280 C   0  0  0  0  0  0  0  0  0  0  0  0
   -2.0610    1.0530   -0.3820 C   0  0  0  0  0  0  0  0  0  0  0  0
   -3.4320    1.4410    0.0440 C   0  0  0  0  0  0  0  0  0  0  0  0
   -4.2640    0.2870    0.3200 N   0  0  1  0  0  0  0  0  0  0  0  0
   -4.4890   -0.4420   -0.8810 C   0  0  0  0  0  0  0  0  0  0  0  0
   -5.8700   -0.2990   -1.4460 C   0  0  2  0  0  0  0  0  0  0  0  0
   -6.2940    1.1240   -1.6880 C   0  0  0  0  0  0  0  0  0  0  0  0
   -7.6860    0.9250   -1.8730 O   0  0  0  0  0  0  0  0  0  0  0  0
   -7.9670    0.0830   -0.7980 C   0  0  0  0  0  0  0  0  0  0  0  0
   -6.8730   -0.7320   -0.5850 O   0  0  0  0  0  0  0  0  0  0  0  0
   -3.6500   -0.4890    1.3900 C   0  0  1  0  0  0  0  0  0  0  0  0
   -4.5280   -0.8490    2.5870 C   0  0  0  0  0  0  0  0  0  0  0  0
   -3.9920   -1.8880    1.6380 C   0  0  0  0  0  0  0  0  0  0  0  0
   -1.0840    1.9050   -0.7020 N   0  0  0  0  0  0  0  0  0  0  0  0
    0.0450    1.2370   -1.0480 C   0  0  0  0  0  0  0  0  0  0  0  0
    1.6020    1.9770   -1.5430 S   0  0  0  0  0  0  0  0  0  0  0  0
    2.5960    2.2460   -0.0590 C   0  0  0  0  0  0  0  0  0  0  0  0
    3.0350    0.9520    0.5830 C   0  0  0  0  0  0  0  0  0  0  0  0
    3.8750    0.2060   -0.4360 C   0  0  0  0  0  0  0  0  0  0  0  0
    4.3670   -1.0510    0.0440 N   0  0  1  0  0  0  0  0  0  0  0  0
    5.3110   -1.5790   -0.9060 C   0  0  0  0  0  0  0  0  0  0  0  0
    6.5580   -0.7730   -1.0640 C   0  0  0  0  0  0  0  0  0  0  0  0
    6.8400    0.0490    0.1380 C   0  0  0  0  0  0  0  0  0  0  0  0
    7.8110    0.9940    0.3740 C   0  0  0  0  0  0  0  0  0  0  0  0
    7.6500    1.4470    1.5920 O   0  0  0  0  0  0  0  0  0  0  0  0
    6.6540    0.8910    2.2010 C   0  0  0  0  0  0  0  0  0  0  0  0
    6.0570    1.1690    3.8260 Cl  0  0  0  0  0  0  0  0  0  0  0  0
    6.1010   -0.0210    1.2950 C   0  0  0  0  0  0  0  0  0  0  0  0
    4.9710   -0.9600    1.3510 C   0  0  0  0  0  0  0  0  0  0  0  0
  1  2  1  0
  2  3  1  0
  2 17  1  0
  3  4  2  0
  4  5  1  0
  4 16  1  0
  6  5  1  6
  6  7  1  0
  6 13  1  0
  8  7  1  1
  8  9  1  0
  8 12  1  0
  9 10  1  0
 10 11  1  0
 11 12  1  0
 13 14  1  1
 13 15  1  0
 14 15  1  0
 16 17  2  0
 17 18  1  0
 18 19  1  0
 19 20  1  0
 20 21  1  0
 22 21  1  6
 22 23  1  0
 22 31  1  0
 23 24  1  0
 24 25  1  0
 25 26  2  0
 25 30  1  0
 26 27  1  0
 27 28  1  0
 28 29  1  0
 28 30  2  0
 30 31  1  0
M  CHG  2   6   1  22   1
M  END
