
     RDKit          3D

 31 34  0  0  0  0  0  0  0  0999 V2000
   -3.9580    3.3790    0.5420 C   0  0  0  0  0  0  0  0  0  0  0  0
   -4.1770    1.9390    0.7880 N   0  0  2  0  0  0  0  0  0  0  0  0
   -3.0560    1.1450    0.4840 C   0  0  0  0  0  0  0  0  0  0  0  0
   -3.0800    0.2100   -0.6430 C   0  0  1  0  0  0  0  0  0  0  0  0
   -3.4320    0.7930   -1.9710 C   0  0  0  0  0  0  0  0  0  0  0  0
   -1.6210   -0.2720   -0.7640 C   0  0  0  0  0  0  0  0  0  0  0  0
   -1.1810   -1.0190    0.3680 N   0  0  2  0  0  0  0  0  0  0  0  0
   -0.0540   -1.8260   -0.0750 C   0  0  0  0  0  0  0  0  0  0  0  0
    1.2370   -1.3330    0.3560 C   0  0  0  0  0  0  0  0  0  0  0  0
    2.3740   -2.0200   -0.0040 C   0  0  0  0  0  0  0  0  0  0  0  0
    3.6260   -1.6040    0.3720 C   0  0  0  0  0  0  0  0  0  0  0  0
    3.7780   -0.4480    1.1470 C   0  0  0  0  0  0  0  0  0  0  0  0
    4.9180   -0.0230    1.5210 O   0  0  0  0  0  0  0  0  0  0  0  0
    6.0920    0.3910    1.8900 C   0  0  0  0  0  0  0  0  0  0  0  0
    6.9580    0.6950    0.6930 C   0  0  0  0  0  0  0  0  0  0  0  0
    6.5020    0.6260   -0.6060 C   0  0  0  0  0  0  0  0  0  0  0  0
    7.3170    0.9080   -1.6770 C   0  0  0  0  0  0  0  0  0  0  0  0
    8.6140    1.2660   -1.4440 C   0  0  0  0  0  0  0  0  0  0  0  0
    9.0670    1.3330   -0.1430 C   0  0  0  0  0  0  0  0  0  0  0  0
    8.2230    1.0450    0.8850 N   0  0  0  0  0  0  0  0  0  0  0  0
    2.5870    0.2080    1.4820 C   0  0  0  0  0  0  0  0  0  0  0  0
    2.6620    1.6730    2.4550 Cl  0  0  0  0  0  0  0  0  0  0  0  0
    1.3780   -0.2260    1.0980 N   0  0  0  0  0  0  0  0  0  0  0  0
   -2.1080   -1.7910    1.0830 C   0  0  0  0  0  0  0  0  0  0  0  0
   -3.5540   -1.5470    0.9140 C   0  0  0  0  0  0  0  0  0  0  0  0
   -3.9180   -1.0380   -0.4460 C   0  0  2  0  0  0  0  0  0  0  0  0
   -3.4760   -2.1290   -1.4370 C   0  0  0  0  0  0  0  0  0  0  0  0
   -5.2430   -0.8720   -0.6730 O   0  0  0  0  0  0  0  0  0  0  0  0
   -5.9960   -0.2210    0.2260 C   0  0  0  0  0  0  0  0  0  0  0  0
   -5.6780    1.5110    0.1210 S   0  0  0  0  0  0  0  0  0  0  0  0
   -6.0900    2.1830   -1.1290 O   0  0  0  0  0  0  0  0  0  0  0  0
  2  1  1  6
  2  3  1  0
  2 30  1  0
  3  4  1  0
  4  5  1  6
  4  6  1  0
  4 26  1  0
  6  7  1  0
  7  8  1  6
  7 24  1  0
  8  9  1  0
  9 10  2  0
  9 23  1  0
 10 11  1  0
 11 12  2  0
 12 13  1  0
 12 21  1  0
 13 14  1  0
 14 15  1  0
 15 16  2  0
 15 20  1  0
 16 17  1  0
 17 18  2  0
 18 19  1  0
 19 20  2  0
 21 22  1  0
 21 23  2  0
 24 25  1  0
 25 26  1  0
 26 27  1  6
 26 28  1  0
 28 29  1  0
 30 29  1  6
 30 31  2  0
M  CHG  2   2   1   7   1
M  END
