
     RDKit          3D

 29 31  0  0  0  0  0  0  0  0999 V2000
   -9.3500    0.2500    1.4150 C   0  0  0  0  0  0  0  0  0  0  0  0
   -8.7030   -0.5010    0.3780 O   0  0  0  0  0  0  0  0  0  0  0  0
   -7.4330   -0.1220    0.0360 C   0  0  0  0  0  0  0  0  0  0  0  0
   -6.4120   -0.5820    0.7270 C   0  0  0  0  0  0  0  0  0  0  0  0
   -5.0190   -0.2090    0.4060 C   0  0  0  0  0  0  0  0  0  0  0  0
   -4.0520   -0.6450    1.0600 O   0  0  0  0  0  0  0  0  0  0  0  0
   -4.8110    0.6950   -0.7110 C   0  0  0  0  0  0  0  0  0  0  0  0
   -3.6530    1.0960   -1.0920 N   0  0  0  0  0  0  0  0  0  0  0  0
   -2.5270    0.6440   -0.4000 N   0  0  0  0  0  0  0  0  0  0  0  0
   -1.7080   -0.4620   -0.8070 C   0  0  0  0  0  0  0  0  0  0  0  0
   -0.8460   -0.7220    0.4060 C   0  0  0  0  0  0  0  0  0  0  0  0
   -0.6570    0.6770    0.9520 C   0  0  1  0  0  0  0  0  0  0  0  0
    0.4380    1.5720   -0.1330 S   0  0  0  0  0  0  0  0  0  0  0  0
    2.0880    0.8970   -0.1160 C   0  0  0  0  0  0  0  0  0  0  0  0
    2.7810   -0.0830    0.4600 C   0  0  0  0  0  0  0  0  0  0  0  0
    4.0940   -0.2310    0.1570 C   0  0  0  0  0  0  0  0  0  0  0  0
    4.7030    0.5720   -0.6930 C   0  0  0  0  0  0  0  0  0  0  0  0
    5.9960    0.7100   -1.2190 N   0  0  0  0  0  0  0  0  0  0  0  0
    7.0320   -0.1450   -0.8500 C   0  0  0  0  0  0  0  0  0  0  0  0
    6.8160   -1.0640   -0.0270 O   0  0  0  0  0  0  0  0  0  0  0  0
    8.3290   -0.0490   -1.3420 O   0  0  0  0  0  0  0  0  0  0  0  0
    9.3710   -0.8880   -0.9820 C   0  0  0  0  0  0  0  0  0  0  0  0
    9.6550   -0.7880    0.4930 C   0  0  0  0  0  0  0  0  0  0  0  0
   11.0070   -1.8710    0.9410 Cl  0  0  0  0  0  0  0  0  0  0  0  0
    3.3360    1.6880   -1.1630 S   0  0  0  0  0  0  0  0  0  0  0  0
   -2.0390    1.2290    0.8060 C   0  0  0  0  0  0  0  0  0  0  0  0
   -2.5760    2.0220    1.6050 O   0  0  0  0  0  0  0  0  0  0  0  0
   -6.0020    1.1630   -1.4300 C   0  0  0  0  0  0  0  0  0  0  0  0
   -7.2270    0.7830   -1.0830 C   0  0  0  0  0  0  0  0  0  0  0  0
  1  2  1  0
  2  3  1  0
  3  4  2  0
  3 29  1  0
  4  5  1  0
  5  6  2  0
  5  7  1  0
  7  8  2  3
  7 28  1  0
  8  9  1  0
  9 10  1  0
  9 26  1  0
 10 11  1  0
 11 12  1  0
 12 13  1  6
 12 26  1  0
 13 14  1  0
 14 15  2  0
 14 25  1  0
 15 16  1  0
 16 17  2  0
 17 18  1  0
 17 25  1  0
 18 19  1  0
 19 20  2  0
 19 21  1  0
 21 22  1  0
 22 23  1  0
 23 24  1  0
 26 27  2  0
 28 29  2  0
M  END
