
     RDKit          3D

 31 34  0  0  0  0  0  0  0  0999 V2000
   -8.8150   -0.4100   -2.5690 C   0  0  0  0  0  0  0  0  0  0  0  0
   -8.0200    0.2700   -1.6190 O   0  0  0  0  0  0  0  0  0  0  0  0
   -6.9360   -0.3740   -1.0760 C   0  0  0  0  0  0  0  0  0  0  0  0
   -6.7000   -1.5610   -1.4590 O   0  0  0  0  0  0  0  0  0  0  0  0
   -6.0750    0.3110   -0.0710 C   0  0  1  0  0  0  0  0  0  0  0  0
   -6.8730    0.4230    1.1920 C   0  0  0  0  0  0  0  0  0  0  0  0
   -5.9590   -0.0140    2.3130 C   0  0  0  0  0  0  0  0  0  0  0  0
   -4.5840    0.0070    1.5700 C   0  0  0  0  0  0  0  0  0  0  0  0
   -4.9690   -0.5910    0.3500 N   0  0  2  0  0  0  0  0  0  0  0  0
   -4.1150   -0.9170   -0.6780 C   0  0  0  0  0  0  0  0  0  0  0  0
   -2.7120   -0.6080   -0.7910 C   0  0  0  0  0  0  0  0  0  0  0  0
   -2.1510   -1.0480   -1.8820 O   0  0  0  0  0  0  0  0  0  0  0  0
   -1.8740    0.0760    0.0670 N   0  0  0  0  0  0  0  0  0  0  0  0
   -0.4730    0.3590   -0.0920 C   0  0  0  0  0  0  0  0  0  0  0  0
    0.3050   -0.0030   -1.1430 C   0  0  0  0  0  0  0  0  0  0  0  0
    1.6640    0.3060   -1.2350 C   0  0  0  0  0  0  0  0  0  0  0  0
    2.2590    1.0130   -0.2150 C   0  0  0  0  0  0  0  0  0  0  0  0
    3.6340    1.3550   -0.2560 N   0  0  1  0  0  0  0  0  0  0  0  0
    4.0950    2.0850    0.8870 C   0  0  0  0  0  0  0  0  0  0  0  0
    5.5990    2.1020    0.6250 C   0  0  0  0  0  0  0  0  0  0  0  0
    5.7990    0.7440    0.1570 N   0  0  0  0  0  0  0  0  0  0  0  0
    7.0360    0.0020    0.0770 C   0  0  0  0  0  0  0  0  0  0  0  0
    7.0260   -1.2820    0.0660 C   0  0  0  0  0  0  0  0  0  0  0  0
    8.1140   -2.2590   -0.0070 C   0  0  0  0  0  0  0  0  0  0  0  0
    9.7080   -1.4420   -0.0930 S   0  0  0  0  0  0  0  0  0  0  0  0
    9.4310    0.3030   -0.0610 C   0  0  0  0  0  0  0  0  0  0  0  0
    8.2400    0.7990    0.0140 C   0  0  0  0  0  0  0  0  0  0  0  0
    4.4960    0.1950   -0.2490 C   0  0  0  0  0  0  0  0  0  0  0  0
    1.4970    1.3860    0.8490 C   0  0  0  0  0  0  0  0  0  0  0  0
    0.1680    1.0760    0.9220 C   0  0  0  0  0  0  0  0  0  0  0  0
   -0.7080    1.6190    2.3570 Cl  0  0  0  0  0  0  0  0  0  0  0  0
  1  2  1  0
  2  3  1  0
  3  4  2  0
  5  3  1  6
  5  6  1  0
  5  9  1  0
  6  7  1  0
  7  8  1  0
  8  9  1  0
  9 10  1  6
 10 11  1  0
 11 12  2  0
 11 13  1  0
 13 14  1  0
 14 15  2  0
 14 30  1  0
 15 16  1  0
 16 17  2  0
 18 17  1  1
 17 29  1  0
 18 19  1  0
 18 28  1  0
 19 20  1  0
 20 21  1  0
 21 22  1  0
 21 28  1  0
 22 23  2  0
 22 27  1  0
 23 24  1  0
 24 25  1  0
 25 26  1  0
 26 27  2  0
 29 30  2  0
 30 31  1  0
M  CHG  2   9   1  18   1
M  END
