
     RDKit          3D

 25 26  0  0  0  0  0  0  0  0999 V2000
    6.8830    1.4140   -0.0380 C   0  0  0  0  0  0  0  0  0  0  0  0
    7.0160   -0.0760    0.1020 C   0  0  2  0  0  0  0  0  0  0  0  0
    8.0470   -0.5860    1.1140 C   0  0  0  0  0  0  0  0  0  0  0  0
    6.8660   -0.8960   -1.1430 C   0  0  0  0  0  0  0  0  0  0  0  0
    5.8010   -0.8830   -0.0120 C   0  0  2  0  0  0  0  0  0  0  0  0
    4.5090   -0.2570   -0.4050 C   0  0  0  0  0  0  0  0  0  0  0  0
    4.3200    0.8990   -1.0660 N   0  0  0  0  0  0  0  0  0  0  0  0
    3.0350    1.0970   -1.2150 O   0  0  0  0  0  0  0  0  0  0  0  0
    2.3520    0.1150   -0.6780 C   0  0  0  0  0  0  0  0  0  0  0  0
    0.9210    0.0230   -0.6670 N   0  0  0  0  0  0  0  0  0  0  0  0
    0.2670   -1.0800   -0.0610 C   0  0  0  0  0  0  0  0  0  0  0  0
    1.0440   -1.9530    0.4570 O   0  0  0  0  0  0  0  0  0  0  0  0
   -1.1780   -1.2330   -0.0160 C   0  0  0  0  0  0  0  0  0  0  0  0
   -1.7910   -2.5540    0.7160 S   0  0  0  0  0  0  0  0  0  0  0  0
   -2.0270   -0.2570   -0.5930 N   0  0  0  0  0  0  0  0  0  0  0  0
   -3.4670   -0.4430   -0.5300 C   0  0  0  0  0  0  0  0  0  0  0  0
   -3.8350   -1.4770    0.0460 O   0  0  0  0  0  0  0  0  0  0  0  0
   -4.3410    0.4930   -1.0850 N   0  0  0  0  0  0  0  0  0  0  0  0
   -5.7580    0.4340   -1.0520 C   0  0  0  0  0  0  0  0  0  0  0  0
   -6.4940    0.5410    0.2080 C   0  0  1  0  0  0  0  0  0  0  0  0
   -6.2490    1.9510    0.7860 C   0  0  0  0  0  0  0  0  0  0  0  0
   -7.8790    0.4950   -0.1260 O   0  0  0  0  0  0  0  0  0  0  0  0
   -6.2720   -0.4120    1.3150 C   0  0  0  0  0  0  0  0  0  0  0  0
   -6.6090   -1.7360    1.0450 O   0  0  0  0  0  0  0  0  0  0  0  0
    3.2540   -0.7230   -0.1770 N   0  0  0  0  0  0  0  0  0  0  0  0
  2  1  1  6
  2  3  1  0
  2  4  1  0
  2  5  1  0
  4  5  1  0
  5  6  1  6
  6  7  2  0
  6 25  1  0
  7  8  1  0
  8  9  1  0
  9 10  1  0
  9 25  2  0
 10 11  1  0
 11 12  2  0
 11 13  1  0
 13 14  2  0
 13 15  1  0
 15 16  1  0
 16 17  2  0
 16 18  1  0
 18 19  1  0
 19 20  1  0
 20 21  1  1
 20 22  1  0
 20 23  1  0
 23 24  1  0
M  END
