
     RDKit          3D

 25 26  0  0  0  0  0  0  0  0999 V2000
   -0.6920    0.9180   -0.7700 O   0  0  0  0  0  0  0  0  0  0  0  0
   -0.7000    1.1620    0.4570 C   0  0  0  0  0  0  0  0  0  0  0  0
    0.5280    1.6580    1.0240 N   0  0  0  0  0  0  0  0  0  0  0  0
    1.6650    1.8560    0.2450 N   0  0  0  0  0  0  0  0  0  0  0  0
    2.9150    1.2530    0.4720 C   0  0  0  0  0  0  0  0  0  0  0  0
    3.0400    0.4720    1.4450 O   0  0  0  0  0  0  0  0  0  0  0  0
    4.0210    1.5420   -0.4140 C   0  0  0  0  0  0  0  0  0  0  0  0
    3.8660    2.3220   -1.3720 O   0  0  0  0  0  0  0  0  0  0  0  0
    5.2790    0.9370   -0.1880 N   0  0  0  0  0  0  0  0  0  0  0  0
    6.4140    1.1780   -1.0240 C   0  0  0  0  0  0  0  0  0  0  0  0
    7.5890    0.3830   -0.5120 C   0  0  0  0  0  0  0  0  0  0  0  0
    7.1560   -1.3340   -0.5530 S   0  0  1  0  0  0  0  0  0  0  0  0
    7.4780   -1.8430   -1.9300 O   0  0  0  0  0  0  0  0  0  0  0  0
    7.9830   -2.0990    0.4380 O   0  0  0  0  0  0  0  0  0  0  0  0
   -1.8500    0.9680    1.2790 N   0  0  0  0  0  0  0  0  0  0  0  0
   -3.0600    0.4720    0.6830 C   0  0  0  0  0  0  0  0  0  0  0  0
   -3.6100   -0.6690    1.0890 C   0  0  0  0  0  0  0  0  0  0  0  0
   -4.8060   -1.1900    0.5230 N   0  0  0  0  0  0  0  0  0  0  0  0
   -5.3510   -2.4380    1.0120 C   0  0  0  0  0  0  0  0  0  0  0  0
   -6.5800   -2.8210    0.3170 C   0  0  0  0  0  0  0  0  0  0  0  0
   -7.1710   -2.1600   -0.6420 C   0  0  0  0  0  0  0  0  0  0  0  0
   -6.5780   -0.9130   -1.0910 C   0  0  0  0  0  0  0  0  0  0  0  0
   -5.4620   -0.4830   -0.5210 C   0  0  0  0  0  0  0  0  0  0  0  0
   -4.8450    0.7710   -0.9570 C   0  0  0  0  0  0  0  0  0  0  0  0
   -3.7250    1.2060   -0.3880 C   0  0  0  0  0  0  0  0  0  0  0  0
  1  2  2  0
  2  3  1  0
  2 15  1  0
  3  4  1  0
  4  5  1  0
  5  6  2  0
  5  7  1  0
  7  8  2  0
  7  9  1  0
  9 10  1  0
 10 11  1  0
 12 11  1  6
 12 13  2  0
 12 14  2  0
 15 16  1  0
 16 17  2  0
 16 25  1  0
 17 18  1  0
 18 19  1  0
 18 23  1  0
 19 20  1  0
 20 21  2  0
 21 22  1  0
 22 23  2  0
 23 24  1  0
 24 25  2  0
M  END
