
     RDKit          3D

 25 27  0  0  0  0  0  0  0  0999 V2000
    3.9780    1.4800    1.7610 O   0  0  0  0  0  0  0  0  0  0  0  0
    5.0950    1.1580    1.2500 C   0  0  0  0  0  0  0  0  0  0  0  0
    6.3240    1.0710    2.0850 C   0  0  0  0  0  0  0  0  0  0  0  0
    7.4340    0.7380    1.3180 O   0  0  0  0  0  0  0  0  0  0  0  0
    5.1370    0.8920   -0.1280 N   0  0  0  0  0  0  0  0  0  0  0  0
    4.0520    0.9410   -1.0400 C   0  0  0  0  0  0  0  0  0  0  0  0
    2.9670   -0.0260   -0.8070 C   0  0  0  0  0  0  0  0  0  0  0  0
    1.6110    0.2490   -0.6590 C   0  0  0  0  0  0  0  0  0  0  0  0
    0.9170   -0.9320   -0.5350 C   0  0  0  0  0  0  0  0  0  0  0  0
   -0.5060   -1.1340   -0.3770 N   0  0  0  0  0  0  0  0  0  0  0  0
   -1.4030   -0.0890   -0.1680 C   0  0  0  0  0  0  0  0  0  0  0  0
   -1.0110    1.0750    0.0260 O   0  0  0  0  0  0  0  0  0  0  0  0
   -2.8700   -0.2790   -0.1610 C   0  0  0  0  0  0  0  0  0  0  0  0
   -3.6960    0.3080    0.7480 C   0  0  0  0  0  0  0  0  0  0  0  0
   -5.0970    0.0780    0.7320 C   0  0  0  0  0  0  0  0  0  0  0  0
   -5.6150   -0.7340   -0.1940 C   0  0  0  0  0  0  0  0  0  0  0  0
   -4.7610   -1.3180   -1.0980 N   0  0  0  0  0  0  0  0  0  0  0  0
   -3.4450   -1.1230   -1.1100 C   0  0  0  0  0  0  0  0  0  0  0  0
   -2.6880   -1.6680   -1.9450 O   0  0  0  0  0  0  0  0  0  0  0  0
   -6.9190   -0.9330   -0.1820 C   0  0  0  0  0  0  0  0  0  0  0  0
   -7.5140    0.0390    1.1790 S   0  0  0  0  0  0  0  0  0  0  0  0
   -8.4210    1.1820    0.7150 O   0  0  0  0  0  0  0  0  0  0  0  0
   -5.9040    0.6210    1.6190 C   0  0  0  0  0  0  0  0  0  0  0  0
    1.8530   -1.8990   -0.6040 N   0  0  0  0  0  0  0  0  0  0  0  0
    3.0530   -1.3530   -0.7650 N   0  0  0  0  0  0  0  0  0  0  0  0
  1  2  2  0
  2  3  1  0
  2  5  1  0
  3  4  1  0
  5  6  1  0
  6  7  1  0
  7  8  2  0
  7 25  1  0
  8  9  1  0
  9 10  1  0
  9 24  2  0
 10 11  1  0
 11 12  2  0
 11 13  1  0
 13 14  2  0
 13 18  1  0
 14 15  1  0
 15 16  1  0
 15 23  2  0
 16 17  1  0
 16 20  2  0
 17 18  1  0
 18 19  2  0
 21 20  1  6
 21 22  2  0
 21 23  1  0
 24 25  1  0
M  END
