
     RDKit          3D

 25 26  0  0  0  0  0  0  0  0999 V2000
    4.5870    0.1570   -2.8030 C   0  0  0  0  0  0  0  0  0  0  0  0
    4.9870   -0.1560   -1.3740 C   0  0  0  0  0  0  0  0  0  0  0  0
    4.1500    0.0580   -0.3690 C   0  0  0  0  0  0  0  0  0  0  0  0
    2.7920    0.5960   -0.4660 C   0  0  0  0  0  0  0  0  0  0  0  0
    1.9820    0.8030    0.5180 C   0  0  0  0  0  0  0  0  0  0  0  0
    2.3100    0.5290    1.8580 N   0  0  0  0  0  0  0  0  0  0  0  0
    0.6650    1.3440    0.2520 N   0  0  0  0  0  0  0  0  0  0  0  0
   -0.4950    0.5710    0.6310 C   0  0  0  0  0  0  0  0  0  0  0  0
   -0.2500   -0.5350    1.1750 O   0  0  0  0  0  0  0  0  0  0  0  0
   -1.8040    1.0490    0.3960 N   0  0  0  0  0  0  0  0  0  0  0  0
   -2.9750    0.2900    0.7690 C   0  0  2  0  0  0  0  0  0  0  0  0
   -2.9400    0.0690    2.2710 C   0  0  0  0  0  0  0  0  0  0  0  0
   -2.9330    1.2990    2.9440 O   0  0  0  0  0  0  0  0  0  0  0  0
   -2.9900   -0.9960    0.0180 C   0  0  0  0  0  0  0  0  0  0  0  0
   -3.4770   -0.8700   -1.3950 C   0  0  0  0  0  0  0  0  0  0  0  0
   -4.4630    0.0460   -1.5860 O   0  0  0  0  0  0  0  0  0  0  0  0
   -5.1640    0.3880   -0.4410 C   0  0  1  0  0  0  0  0  0  0  0  0
   -5.9550   -0.7340    0.1480 C   0  0  0  0  0  0  0  0  0  0  0  0
   -4.2450    1.0790    0.5050 C   0  0  0  0  0  0  0  0  0  0  0  0
    5.0450   -0.4470    1.0400 S   0  0  1  0  0  0  0  0  0  0  0  0
    5.3250    0.6930    1.9760 O   0  0  0  0  0  0  0  0  0  0  0  0
    4.4350   -1.6310    1.7350 O   0  0  0  0  0  0  0  0  0  0  0  0
    6.4890   -0.9150    0.2040 N   0  0  0  0  0  0  0  0  0  0  0  0
    6.2530   -0.6860   -1.0330 C   0  0  0  0  0  0  0  0  0  0  0  0
    7.3060   -0.9880   -1.9990 N   0  0  0  0  0  0  0  0  0  0  0  0
  1  2  1  0
  2  3  2  0
  2 24  1  0
  3  4  1  0
  3 20  1  0
  4  5  2  3
  5  6  1  0
  5  7  1  0
  7  8  1  0
  8  9  2  0
  8 10  1  0
 10 11  1  0
 11 12  1  1
 11 14  1  0
 11 19  1  0
 12 13  1  0
 14 15  1  0
 15 16  1  0
 16 17  1  0
 17 18  1  1
 17 19  1  0
 20 21  2  0
 20 22  2  0
 20 23  1  6
 23 24  2  0
 24 25  1  0
M  END
