
     RDKit          3D

 15 14  0  0  0  0  0  0  0  0999 V2000
    0.4320    3.6840   -1.7770 C   0  0  0  0  0  0  0  0  0  0  0  0
   -0.1210    2.7390   -0.8480 O   0  0  0  0  0  0  0  0  0  0  0  0
    0.4930    1.5410   -0.5720 C   0  0  0  0  0  0  0  0  0  0  0  0
    1.5680    1.2920   -1.1640 O   0  0  0  0  0  0  0  0  0  0  0  0
   -0.0740    0.5670    0.3830 C   0  0  1  0  0  0  0  0  0  0  0  0
   -1.4260    0.1070   -0.1920 C   0  0  0  0  0  0  0  0  0  0  0  0
   -2.0770   -0.7320    0.6860 O   0  0  0  0  0  0  0  0  0  0  0  0
   -3.2840   -1.0960    0.0820 C   0  0  1  0  0  0  0  0  0  0  0  0
   -3.2530   -2.5020   -0.0100 O   0  0  0  0  0  0  0  0  0  0  0  0
   -4.3010   -0.7590    0.9750 O   0  0  0  0  0  0  0  0  0  0  0  0
    0.6790   -0.6140    0.5930 N   0  0  0  0  0  0  0  0  0  0  0  0
    1.9700   -0.4880    1.1690 C   0  0  0  0  0  0  0  0  0  0  0  0
    2.7360   -2.1840    1.3430 P   0  0  0  0  0  0  0  0  0  0  0  0
    4.3660   -2.0420    1.9030 O   0  0  0  0  0  0  0  0  0  0  0  0
    2.6200   -3.0260   -0.1470 O   0  0  0  0  0  0  0  0  0  0  0  0
  1  2  1  0
  2  3  1  0
  3  4  2  0
  3  5  1  0
  5  6  1  6
  5 11  1  0
  6  7  1  0
  7  8  1  0
  8  9  1  1
  8 10  1  0
 11 12  1  0
 12 13  1  0
 13 14  1  0
 13 15  1  0
M  END
