
     RDKit          3D

 18 18  0  0  0  0  0  0  0  0999 V2000
    0.3420    3.2160   -1.6100 C   0  0  0  0  0  0  0  0  0  0  0  0
   -0.1900    2.4780   -0.4380 C   0  0  1  0  0  0  0  0  0  0  0  0
   -1.3010    3.3740    0.1440 C   0  0  0  0  0  0  0  0  0  0  0  0
   -0.6470    1.2240   -0.6990 O   0  0  0  0  0  0  0  0  0  0  0  0
   -0.4030    0.1850    0.6110 P   0  0  1  0  0  0  0  0  0  0  0  0
   -0.6520    1.2510    1.7660 O   0  0  0  0  0  0  0  0  0  0  0  0
   -1.6250   -0.8140    0.9310 O   0  0  0  0  0  0  0  0  0  0  0  0
   -2.1470   -1.7540    0.1790 C   0  0  2  0  0  0  0  0  0  0  0  0
   -2.7770   -1.3000   -1.1330 C   0  0  0  0  0  0  0  0  0  0  0  0
   -3.1700   -2.6130    0.8650 C   0  0  0  0  0  0  0  0  0  0  0  0
    1.2780   -0.2590    0.9270 C   0  0  0  0  0  0  0  0  0  0  0  0
    1.9860    0.2220    1.9990 C   0  0  0  0  0  0  0  0  0  0  0  0
    3.2950   -0.0680    2.2940 C   0  0  0  0  0  0  0  0  0  0  0  0
    3.9620   -0.9060    1.4480 C   0  0  0  0  0  0  0  0  0  0  0  0
    3.3050   -1.4110    0.3520 C   0  0  0  0  0  0  0  0  0  0  0  0
    2.0020   -1.0890    0.1100 C   0  0  0  0  0  0  0  0  0  0  0  0
    1.2640   -1.7220   -1.0180 C   0  0  0  0  0  0  0  0  0  0  0  0
    1.5660   -0.9360   -2.6360 S   0  0  0  0  0  0  0  0  0  0  0  0
  2  1  1  6
  2  3  1  0
  2  4  1  0
  5  4  1  6
  5  6  2  0
  5  7  1  0
  5 11  1  0
  7  8  1  0
  8  9  1  6
  8 10  1  0
 11 12  2  0
 11 16  1  0
 12 13  1  0
 13 14  2  0
 14 15  1  0
 15 16  2  0
 16 17  1  0
 17 18  1  0
M  END
