
     RDKit          3D

 15 14  0  0  0  0  0  0  0  0999 V2000
    4.8600   -0.6620    1.1850 C   0  0  0  0  0  0  0  0  0  0  0  0
    3.8750   -1.5890    1.4280 O   0  0  0  0  0  0  0  0  0  0  0  0
    2.7940   -1.5550    0.6030 C   0  0  0  0  0  0  0  0  0  0  0  0
    2.0120   -0.3070    0.6620 C   0  0  0  0  0  0  0  0  0  0  0  0
    2.3170    0.6020    1.4550 O   0  0  0  0  0  0  0  0  0  0  0  0
    0.9050   -0.0720   -0.1520 O   0  0  0  0  0  0  0  0  0  0  0  0
    0.1770    1.1260   -0.0780 C   0  0  0  0  0  0  0  0  0  0  0  0
    0.5760    1.9770    0.7610 O   0  0  0  0  0  0  0  0  0  0  0  0
   -1.0060    1.3630   -0.9570 C   0  0  2  0  0  0  0  0  0  0  0  0
   -1.4970    2.6280   -0.6460 O   0  0  0  0  0  0  0  0  0  0  0  0
   -2.0230    0.3400   -0.7780 N   0  0  0  0  0  0  0  0  0  0  0  0
   -2.5340    0.3600    0.5750 C   0  0  0  0  0  0  0  0  0  0  0  0
   -3.8250   -0.9380    0.7920 P   0  0  0  0  0  0  0  0  0  0  0  0
   -5.2290   -0.3290    1.6010 O   0  0  0  0  0  0  0  0  0  0  0  0
   -4.2280   -1.7400   -0.6850 O   0  0  0  0  0  0  0  0  0  0  0  0
  1  2  1  0
  2  3  1  0
  3  4  1  0
  4  5  2  0
  4  6  1  0
  6  7  1  0
  7  8  2  0
  7  9  1  0
  9 10  1  1
  9 11  1  0
 11 12  1  0
 12 13  1  0
 13 14  1  0
 13 15  1  0
M  END
