
     RDKit          3D

 16 15  0  0  0  0  0  0  0  0999 V2000
   -2.8620   -2.0510   -1.4190 O   0  0  0  0  0  0  0  0  0  0  0  0
   -3.0310   -1.7550   -0.2080 C   0  0  0  0  0  0  0  0  0  0  0  0
   -3.8740   -2.5480    0.5620 O   0  0  0  0  0  0  0  0  0  0  0  0
   -2.3450   -0.6240    0.2980 N   0  0  0  0  0  0  0  0  0  0  0  0
   -1.4780    0.1710   -0.5400 C   0  0  0  0  0  0  0  0  0  0  0  0
   -0.8670    1.3150    0.2280 C   0  0  2  0  0  0  0  0  0  0  0  0
   -0.1070    0.8980    1.2970 O   0  0  0  0  0  0  0  0  0  0  0  0
    1.5090    1.4450    1.0960 P   0  0  0  0  0  0  0  0  0  0  0  0
    1.6240    2.4720   -0.3190 O   0  0  0  0  0  0  0  0  0  0  0  0
    2.7260    0.0770    0.9280 C   0  0  0  0  0  0  0  0  0  0  0  0
    2.1160   -1.0630    0.3700 O   0  0  0  0  0  0  0  0  0  0  0  0
    3.1340   -2.0330    0.2910 C   0  0  0  0  0  0  0  0  0  0  0  0
    4.1830   -1.5950   -0.5110 O   0  0  0  0  0  0  0  0  0  0  0  0
   -1.9640    2.2220    0.7090 C   0  0  0  0  0  0  0  0  0  0  0  0
   -2.0560    2.4780    1.9400 O   0  0  0  0  0  0  0  0  0  0  0  0
   -2.8430    2.7510   -0.2170 O   0  0  0  0  0  0  0  0  0  0  0  0
  1  2  2  0
  2  3  1  0
  2  4  1  0
  4  5  1  0
  6  5  1  1
  6  7  1  0
  6 14  1  0
  7  8  1  0
  8  9  1  0
  8 10  1  0
 10 11  1  0
 11 12  1  0
 12 13  1  0
 14 15  2  0
 14 16  1  0
M  END
