
     RDKit          3D

 16 15  0  0  0  0  0  0  0  0999 V2000
   -4.7280    0.4610   -0.6510 C   0  0  0  0  0  0  0  0  0  0  0  0
   -3.9660    1.1900    0.2660 O   0  0  0  0  0  0  0  0  0  0  0  0
   -3.0410    0.4070    0.8990 C   0  0  1  0  0  0  0  0  0  0  0  0
   -2.3460    1.2190    1.8470 O   0  0  0  0  0  0  0  0  0  0  0  0
   -3.7420   -0.5630    1.6750 O   0  0  0  0  0  0  0  0  0  0  0  0
   -2.0440   -0.2410    0.0920 C   0  0  0  0  0  0  0  0  0  0  0  0
   -1.1200    0.6270   -0.7070 N   0  0  0  0  0  0  0  0  0  0  0  0
    0.1610    0.3750   -0.2090 C   0  0  0  0  0  0  0  0  0  0  0  0
    1.4800    0.4800   -0.7120 C   0  0  0  0  0  0  0  0  0  0  0  0
    1.8290   -0.3720   -1.8100 O   0  0  0  0  0  0  0  0  0  0  0  0
    3.3200   -1.1050   -1.2810 P   0  0  0  0  0  0  0  0  0  0  0  0
    2.9330   -1.8380    0.3100 O   0  0  0  0  0  0  0  0  0  0  0  0
    4.8080   -0.5160   -1.4010 O   0  0  0  0  0  0  0  0  0  0  0  0
    5.6440    0.1740   -0.5210 C   0  0  0  0  0  0  0  0  0  0  0  0
    5.2180    0.4600    0.5840 O   0  0  0  0  0  0  0  0  0  0  0  0
    6.9470    0.4880   -1.0060 O   0  0  0  0  0  0  0  0  0  0  0  0
  1  2  1  0
  2  3  1  0
  3  4  1  1
  3  5  1  0
  3  6  1  0
  6  7  1  0
  7  8  1  0
  8  9  1  0
  9 10  1  0
 10 11  1  0
 11 12  1  0
 11 13  1  0
 13 14  1  0
 14 15  2  0
 14 16  1  0
M  END
