
     RDKit          3D

 16 15  0  0  0  0  0  0  0  0999 V2000
   -2.6750   -1.0570    3.0110 O   0  0  0  0  0  0  0  0  0  0  0  0
   -2.8440   -0.7630    1.8010 C   0  0  0  0  0  0  0  0  0  0  0  0
   -3.8800   -1.3670    1.1230 O   0  0  0  0  0  0  0  0  0  0  0  0
   -1.9710    0.1830    1.1490 C   0  0  0  0  0  0  0  0  0  0  0  0
   -2.0930    0.5210   -0.0750 N   0  0  0  0  0  0  0  0  0  0  0  0
   -3.1290   -0.0310   -0.8980 C   0  0  0  0  0  0  0  0  0  0  0  0
   -3.0500    0.5660   -2.1860 O   0  0  0  0  0  0  0  0  0  0  0  0
   -0.9100    0.8050    1.8390 O   0  0  0  0  0  0  0  0  0  0  0  0
    0.1910    1.2140    1.0610 C   0  0  0  0  0  0  0  0  0  0  0  0
    0.7870    0.0030    0.3860 C   0  0  2  0  0  0  0  0  0  0  0  0
    1.2240   -0.9460    1.3130 O   0  0  0  0  0  0  0  0  0  0  0  0
    2.0350    0.4010   -0.4120 C   0  0  0  0  0  0  0  0  0  0  0  0
    2.4910   -0.7910   -1.0100 O   0  0  0  0  0  0  0  0  0  0  0  0
    3.9100   -0.3550   -1.9230 P   0  0  0  0  0  0  0  0  0  0  0  0
    4.9450   -1.7480   -1.9990 O   0  0  0  0  0  0  0  0  0  0  0  0
    4.7280    0.8830   -1.0130 O   0  0  0  0  0  0  0  0  0  0  0  0
  1  2  2  0
  2  3  1  0
  2  4  1  0
  4  5  2  3
  4  8  1  0
  5  6  1  0
  6  7  1  0
  8  9  1  0
  9 10  1  0
 10 11  1  1
 10 12  1  0
 12 13  1  0
 13 14  1  0
 14 15  1  0
 14 16  1  0
M  END
