
     RDKit          3D

 15 14  0  0  0  0  0  0  0  0999 V2000
   -2.7810    1.6420   -1.3740 O   0  0  0  0  0  0  0  0  0  0  0  0
   -3.4780    1.3730   -0.3860 C   0  0  0  0  0  0  0  0  0  0  0  0
   -4.8630    1.6570   -0.3140 O   0  0  0  0  0  0  0  0  0  0  0  0
   -2.9120    0.7430    0.7040 O   0  0  0  0  0  0  0  0  0  0  0  0
   -1.6320    0.3390    0.7780 C   0  0  0  0  0  0  0  0  0  0  0  0
   -1.0770   -0.5440   -0.3610 C   0  0  2  0  0  0  0  0  0  0  0  0
   -1.9190   -1.8100   -0.2660 C   0  0  0  0  0  0  0  0  0  0  0  0
   -1.1950   -2.8860   -0.8690 O   0  0  0  0  0  0  0  0  0  0  0  0
    0.2240   -0.9090    0.2320 N   0  0  0  0  0  0  0  0  0  0  0  0
    0.9280    0.1360    0.7940 C   0  0  0  0  0  0  0  0  0  0  0  0
    1.6050    1.2480   -0.0420 C   0  0  0  0  0  0  0  0  0  0  0  0
    2.4560    0.4950   -0.8130 O   0  0  0  0  0  0  0  0  0  0  0  0
    4.1270    0.6600   -0.7200 P   0  0  0  0  0  0  0  0  0  0  0  0
    4.7920    1.5510    0.5740 O   0  0  0  0  0  0  0  0  0  0  0  0
    4.8740   -0.9610   -0.8540 O   0  0  0  0  0  0  0  0  0  0  0  0
  1  2  2  0
  2  3  1  0
  2  4  1  0
  4  5  1  0
  6  5  1  1
  6  7  1  0
  6  9  1  0
  7  8  1  0
  9 10  1  0
 10 11  1  0
 11 12  1  0
 12 13  1  0
 13 14  1  0
 13 15  1  0
M  END
