
     RDKit          3D

 16 15  0  0  0  0  0  0  0  0999 V2000
   -2.3050   -0.4020    2.6670 O   0  0  0  0  0  0  0  0  0  0  0  0
   -2.0920    0.0700    1.5400 C   0  0  0  0  0  0  0  0  0  0  0  0
   -1.8940    1.4310    1.3570 O   0  0  0  0  0  0  0  0  0  0  0  0
   -2.0410   -0.8120    0.3460 C   0  0  1  0  0  0  0  0  0  0  0  0
   -2.2630   -2.1520    0.7250 O   0  0  0  0  0  0  0  0  0  0  0  0
   -3.1530   -0.3770   -0.5790 C   0  0  0  0  0  0  0  0  0  0  0  0
   -3.0320    0.9220   -1.0080 O   0  0  0  0  0  0  0  0  0  0  0  0
   -0.7290   -0.7550   -0.3520 C   0  0  0  0  0  0  0  0  0  0  0  0
   -0.0190   -1.7850   -0.5390 O   0  0  0  0  0  0  0  0  0  0  0  0
   -0.1850    0.4630   -0.8560 N   0  0  0  0  0  0  0  0  0  0  0  0
    1.0890    0.5130   -1.5340 C   0  0  0  0  0  0  0  0  0  0  0  0
    2.2290    0.0450   -0.6910 C   0  0  0  0  0  0  0  0  0  0  0  0
    2.3220    0.8510    0.4430 O   0  0  0  0  0  0  0  0  0  0  0  0
    3.6290    0.3630    1.4710 P   0  0  0  0  0  0  0  0  0  0  0  0
    5.0850    1.2280    1.1040 O   0  0  0  0  0  0  0  0  0  0  0  0
    3.9290   -1.3500    1.3540 O   0  0  0  0  0  0  0  0  0  0  0  0
  1  2  2  0
  2  3  1  0
  2  4  1  0
  4  5  1  1
  4  6  1  0
  4  8  1  0
  6  7  1  0
  8  9  2  0
  8 10  1  0
 10 11  1  0
 11 12  1  0
 12 13  1  0
 13 14  1  0
 14 15  1  0
 14 16  1  0
M  END
