
     RDKit          3D

 21 21  0  0  0  0  0  0  0  0999 V2000
   -3.8470    1.7460    1.2540 O   0  0  0  0  0  0  0  0  0  0  0  0
   -4.1370    2.0660    0.0630 C   0  0  0  0  0  0  0  0  0  0  0  0
   -5.1590    2.9840   -0.1530 O   0  0  0  0  0  0  0  0  0  0  0  0
   -3.4450    1.5100   -1.0430 N   0  0  0  0  0  0  0  0  0  0  0  0
   -2.3780    0.5440   -0.6900 C   0  0  0  0  0  0  0  0  0  0  0  0
   -1.1810    0.9440   -1.1200 C   0  0  0  0  0  0  0  0  0  0  0  0
   -0.0820    0.2430   -0.9230 O   0  0  0  0  0  0  0  0  0  0  0  0
    1.0940   -0.2100   -1.3600 C   0  0  0  0  0  0  0  0  0  0  0  0
    2.1400   -0.0630   -0.2440 C   0  0  2  0  0  0  0  0  0  0  0  0
    2.9290    1.2270   -0.4550 C   0  0  0  0  0  0  0  0  0  0  0  0
    3.8310    1.3970    0.5900 O   0  0  0  0  0  0  0  0  0  0  0  0
    4.4890    2.5110    0.3770 O   0  0  0  0  0  0  0  0  0  0  0  0
    3.0060   -1.1360   -0.2090 O   0  0  0  0  0  0  0  0  0  0  0  0
    2.3820   -2.2430    0.3620 C   0  0  0  0  0  0  0  0  0  0  0  0
    1.5600   -1.8860    1.5270 C   0  0  0  0  0  0  0  0  0  0  0  0
    2.1590   -1.8420    2.6580 O   0  0  0  0  0  0  0  0  0  0  0  0
    0.2370   -1.5990    1.5340 O   0  0  0  0  0  0  0  0  0  0  0  0
   -0.7910   -2.1590    0.7670 C   0  0  0  0  0  0  0  0  0  0  0  0
   -2.0770   -1.4260    0.9390 C   0  0  0  0  0  0  0  0  0  0  0  0
   -2.5650   -1.6370    2.1250 O   0  0  0  0  0  0  0  0  0  0  0  0
   -2.7380   -0.6090    0.0170 N   0  0  0  0  0  0  0  0  0  0  0  0
  1  2  2  0
  2  3  1  0
  2  4  1  0
  4  5  1  0
  5  6  2  0
  5 21  1  0
  6  7  1  0
  7  8  1  0
  8  9  1  0
  9 10  1  6
  9 13  1  0
 10 11  1  0
 11 12  1  0
 13 14  1  0
 14 15  1  0
 15 16  2  0
 15 17  1  0
 17 18  1  0
 18 19  1  0
 19 20  2  0
 19 21  1  0
M  END
