
     RDKit          3D

 27 29  0  0  0  0  0  0  0  0999 V2000
   -3.2940    3.3710   -1.2300 O   0  0  0  0  0  0  0  0  0  0  0  0
   -2.5870    2.6230   -0.5080 C   0  0  0  0  0  0  0  0  0  0  0  0
   -2.3330    1.2550   -1.0180 C   0  0  0  0  0  0  0  0  0  0  0  0
   -1.7630    0.5150   -0.0090 O   0  0  0  0  0  0  0  0  0  0  0  0
   -1.4560   -0.7880   -0.3860 C   0  0  2  0  0  0  0  0  0  0  0  0
   -2.4630   -1.6160    0.0590 O   0  0  0  0  0  0  0  0  0  0  0  0
   -1.9390   -2.3780    1.1000 C   0  0  1  0  0  0  0  0  0  0  0  0
   -2.8780   -2.7160    2.0450 O   0  0  0  0  0  0  0  0  0  0  0  0
   -1.2720   -3.5920    0.4710 C   0  0  0  0  0  0  0  0  0  0  0  0
   -0.4500   -3.1190   -0.5510 O   0  0  0  0  0  0  0  0  0  0  0  0
    0.4140   -2.2730   -0.0500 O   0  0  0  0  0  0  0  0  0  0  0  0
   -0.2600   -1.1840    0.4530 C   0  0  2  0  0  0  0  0  0  0  0  0
   -0.8940   -1.5990    1.6390 O   0  0  0  0  0  0  0  0  0  0  0  0
    0.4910   -0.0870    0.7110 O   0  0  0  0  0  0  0  0  0  0  0  0
    1.5940    0.0830   -0.1030 C   0  0  2  0  0  0  0  0  0  0  0  0
    1.2310   -0.2620   -1.3930 O   0  0  0  0  0  0  0  0  0  0  0  0
    2.1710   -0.1520   -2.2680 O   0  0  0  0  0  0  0  0  0  0  0  0
    2.5810   -0.7980    0.3880 O   0  0  0  0  0  0  0  0  0  0  0  0
    3.6850   -0.7180   -0.3200 O   0  0  0  0  0  0  0  0  0  0  0  0
    4.5760   -1.4700    0.2770 O   0  0  0  0  0  0  0  0  0  0  0  0
    5.7360   -1.2920   -0.3170 O   0  0  0  0  0  0  0  0  0  0  0  0
    2.1830    1.4370   -0.0130 C   0  0  0  0  0  0  0  0  0  0  0  0
    3.3560    1.5180   -0.4470 O   0  0  0  0  0  0  0  0  0  0  0  0
    1.4480    2.4410    0.5060 O   0  0  0  0  0  0  0  0  0  0  0  0
    0.2550    3.0090    0.1460 C   0  0  0  0  0  0  0  0  0  0  0  0
   -0.8210    2.9750    1.2140 C   0  0  0  0  0  0  0  0  0  0  0  0
   -2.1140    3.1340    0.6830 O   0  0  0  0  0  0  0  0  0  0  0  0
  1  2  2  0
  2  3  1  0
  2 27  1  0
  3  4  1  0
  5  4  1  1
  5  6  1  0
  5 12  1  0
  6  7  1  0
  7  8  1  1
  7  9  1  0
  7 13  1  0
  9 10  1  0
 10 11  1  0
 12 11  1  6
 12 13  1  0
 12 14  1  0
 14 15  1  0
 15 16  1  6
 15 18  1  0
 15 22  1  0
 16 17  1  0
 18 19  1  0
 19 20  1  0
 20 21  1  0
 22 23  2  0
 22 24  1  0
 24 25  1  0
 25 26  1  0
 26 27  1  0
M  END
