
     RDKit          3D

 21 21  0  0  0  0  0  0  0  0999 V2000
   -1.8630    1.6900    1.8960 C   0  0  0  0  0  0  0  0  0  0  0  0
   -2.4080    0.6430    1.1290 O   0  0  0  0  0  0  0  0  0  0  0  0
   -1.9760    0.2990   -0.1290 C   0  0  0  0  0  0  0  0  0  0  0  0
   -0.8740    0.7140   -0.5800 N   0  0  0  0  0  0  0  0  0  0  0  0
    0.0740    1.5170   -0.0160 N   0  0  0  0  0  0  0  0  0  0  0  0
    1.3590    0.9870    0.3910 C   0  0  0  0  0  0  0  0  0  0  0  0
    2.0090    0.4210   -0.8490 C   0  0  0  0  0  0  0  0  0  0  0  0
    3.2590   -0.1110   -0.5190 O   0  0  0  0  0  0  0  0  0  0  0  0
    4.3140    0.5990   -0.0140 C   0  0  0  0  0  0  0  0  0  0  0  0
    4.1770    1.8390    0.1740 O   0  0  0  0  0  0  0  0  0  0  0  0
    5.6290   -0.0650    0.3190 C   0  0  0  0  0  0  0  0  0  0  0  0
    5.4900   -1.4120    0.0130 O   0  0  0  0  0  0  0  0  0  0  0  0
    6.6090   -2.0480    0.2830 O   0  0  0  0  0  0  0  0  0  0  0  0
   -2.8270   -0.5800   -0.9740 C   0  0  2  0  0  0  0  0  0  0  0  0
   -4.0370    0.0320   -1.1770 O   0  0  0  0  0  0  0  0  0  0  0  0
   -5.1200   -0.8000   -1.2350 C   0  0  0  0  0  0  0  0  0  0  0  0
   -5.2530   -1.6770   -0.0380 C   0  0  0  0  0  0  0  0  0  0  0  0
   -6.3210   -1.8970    0.5520 O   0  0  0  0  0  0  0  0  0  0  0  0
   -4.0550   -2.2670    0.4120 O   0  0  0  0  0  0  0  0  0  0  0  0
   -2.9170   -1.8880   -0.2920 C   0  0  0  0  0  0  0  0  0  0  0  0
   -1.9210   -2.6670   -0.3640 O   0  0  0  0  0  0  0  0  0  0  0  0
  1  2  1  0
  2  3  1  0
  3  4  2  3
 14  3  1  1
  4  5  1  0
  5  6  1  0
  6  7  1  0
  7  8  1  0
  8  9  1  0
  9 10  2  0
  9 11  1  0
 11 12  1  0
 12 13  1  0
 14 15  1  0
 14 20  1  0
 15 16  1  0
 16 17  1  0
 17 18  2  0
 17 19  1  0
 19 20  1  0
 20 21  2  0
M  END
