
     RDKit          3D

 21 21  0  0  0  0  0  0  0  0999 V2000
   -3.9520    0.8170    1.3030 O   0  0  0  0  0  0  0  0  0  0  0  0
   -4.1980    0.4930    0.1130 C   0  0  0  0  0  0  0  0  0  0  0  0
   -3.1760   -0.1180   -0.6520 N   0  0  0  0  0  0  0  0  0  0  0  0
   -1.8400   -0.4020   -0.1530 C   0  0  1  0  0  0  0  0  0  0  0  0
   -1.5860   -1.8700   -0.1080 C   0  0  0  0  0  0  0  0  0  0  0  0
   -0.5720   -2.3320   -0.9290 O   0  0  0  0  0  0  0  0  0  0  0  0
    0.4740   -1.5820   -1.3710 C   0  0  0  0  0  0  0  0  0  0  0  0
    1.3510   -2.0480   -2.1170 O   0  0  0  0  0  0  0  0  0  0  0  0
    0.5470   -0.1750   -0.9390 C   0  0  2  0  0  0  0  0  0  0  0  0
    1.3250   -0.1130    0.1970 O   0  0  0  0  0  0  0  0  0  0  0  0
    2.5370    0.5080    0.2620 C   0  0  0  0  0  0  0  0  0  0  0  0
    2.9080    1.0350   -0.8090 O   0  0  0  0  0  0  0  0  0  0  0  0
    3.3310    0.5680    1.4300 N   0  0  0  0  0  0  0  0  0  0  0  0
    4.6030    1.2220    1.4880 C   0  0  0  0  0  0  0  0  0  0  0  0
    5.5540    0.5920    0.5200 C   0  0  0  0  0  0  0  0  0  0  0  0
    5.7330   -0.7650    0.8260 O   0  0  0  0  0  0  0  0  0  0  0  0
    6.5700   -1.2770   -0.0410 O   0  0  0  0  0  0  0  0  0  0  0  0
   -0.8130    0.4040   -0.8920 C   0  0  0  0  0  0  0  0  0  0  0  0
   -5.4710    0.7460   -0.4110 O   0  0  0  0  0  0  0  0  0  0  0  0
   -6.4600    1.3580    0.3880 C   0  0  0  0  0  0  0  0  0  0  0  0
   -7.6160    1.4960   -0.3580 O   0  0  0  0  0  0  0  0  0  0  0  0
  1  2  2  0
  2  3  1  0
  2 19  1  0
  4  3  1  6
  4  5  1  0
  4 18  1  0
  5  6  1  0
  6  7  1  0
  7  8  2  0
  7  9  1  0
  9 10  1  1
  9 18  1  0
 10 11  1  0
 11 12  2  0
 11 13  1  0
 13 14  1  0
 14 15  1  0
 15 16  1  0
 16 17  1  0
 19 20  1  0
 20 21  1  0
M  END
