
     RDKit          3D

 26 27  0  0  0  0  0  0  0  0999 V2000
    0.4700   -0.5920    2.2270 C   0  0  0  0  0  0  0  0  0  0  0  0
    1.4220   -1.2180    1.6000 C   0  0  0  0  0  0  0  0  0  0  0  0
    2.5170   -1.7570    2.3190 N   0  0  0  0  0  0  0  0  0  0  0  0
    2.7290   -1.7050    3.6960 C   0  0  0  0  0  0  0  0  0  0  0  0
    1.9120   -1.1400    4.4470 O   0  0  0  0  0  0  0  0  0  0  0  0
    3.8870   -2.2980    4.2750 O   0  0  0  0  0  0  0  0  0  0  0  0
    1.4860   -1.3500    0.1540 C   0  0  0  0  0  0  0  0  0  0  0  0
    2.4680   -2.1430   -0.2190 O   0  0  0  0  0  0  0  0  0  0  0  0
    0.7250   -0.8210   -0.8550 N   0  0  0  0  0  0  0  0  0  0  0  0
    0.8150   -1.5350   -2.1620 C   0  0  0  0  0  0  0  0  0  0  0  0
    1.4050   -2.1920   -3.0810 N   0  0  0  0  0  0  0  0  0  0  0  0
    0.2380   -2.2690   -3.8800 C   0  0  0  0  0  0  0  0  0  0  0  0
   -0.1100   -2.7710   -5.0310 N   0  0  0  0  0  0  0  0  0  0  0  0
   -0.4280   -1.5370   -2.8570 N   0  0  0  0  0  0  0  0  0  0  0  0
   -1.6460   -0.9370   -2.3630 C   0  0  0  0  0  0  0  0  0  0  0  0
   -1.5190   -0.1970   -1.0550 C   0  0  2  0  0  0  0  0  0  0  0  0
   -2.4200    0.8260   -0.9210 O   0  0  0  0  0  0  0  0  0  0  0  0
   -3.4270    0.6600    0.4810 P   0  0  0  0  0  0  0  0  0  0  0  0
   -3.1510   -0.8510    1.2900 O   0  0  0  0  0  0  0  0  0  0  0  0
   -3.2420    1.9600    1.5890 O   0  0  0  0  0  0  0  0  0  0  0  0
   -0.1060    0.3350   -0.9990 C   0  0  1  0  0  0  0  0  0  0  0  0
    0.1680    1.5850   -0.3050 C   0  0  0  0  0  0  0  0  0  0  0  0
   -0.8760    2.4870   -0.7070 O   0  0  0  0  0  0  0  0  0  0  0  0
   -0.6710    4.0100    0.0440 P   0  0  0  0  0  0  0  0  0  0  0  0
   -0.1360    5.1830   -1.1220 O   0  0  0  0  0  0  0  0  0  0  0  0
    0.5470    3.8660    1.2710 O   0  0  0  0  0  0  0  0  0  0  0  0
  1  2  2  0
  2  3  1  0
  2  7  1  0
  3  4  1  0
  4  5  2  0
  4  6  1  0
  7  8  2  0
  7  9  1  0
  9 10  1  0
  9 21  1  0
 10 11  2  0
 10 14  1  0
 11 12  1  0
 12 13  2  0
 12 14  1  0
 14 15  1  0
 15 16  1  0
 16 17  1  6
 16 21  1  0
 17 18  1  0
 18 19  1  0
 18 20  1  0
 21 22  1  1
 22 23  1  0
 23 24  1  0
 24 25  1  0
 24 26  1  0
M  END
