
     RDKit          3D

 26 28  0  0  0  0  0  0  0  0999 V2000
   -1.9940   -4.2760   -0.8940 O   0  0  0  0  0  0  0  0  0  0  0  0
   -1.7760   -3.9830    0.7020 P   0  0  0  0  0  0  0  0  0  0  0  0
   -2.0000   -2.2630    0.9930 O   0  0  0  0  0  0  0  0  0  0  0  0
   -0.7790   -1.6130    1.3110 C   0  0  0  0  0  0  0  0  0  0  0  0
   -0.4730   -0.8320    0.0350 C   0  0  2  0  0  0  0  0  0  0  0  0
    0.0880   -1.8420   -0.8340 O   0  0  0  0  0  0  0  0  0  0  0  0
    1.3460   -2.0620   -0.2240 N   0  0  0  0  0  0  0  0  0  0  0  0
    1.7330   -0.8950    0.3230 C   0  0  0  0  0  0  0  0  0  0  0  0
    2.9860   -0.6030    1.0580 C   0  0  0  0  0  0  0  0  0  0  0  0
    3.8290    0.3950    0.4890 N   0  0  0  0  0  0  0  0  0  0  0  0
    4.8210    0.2030   -0.5370 C   0  0  0  0  0  0  0  0  0  0  0  0
    5.2180    1.5870   -1.0140 C   0  0  0  0  0  0  0  0  0  0  0  0
    4.4370    2.4320   -0.2340 O   0  0  0  0  0  0  0  0  0  0  0  0
    3.8120    1.7480    0.8000 C   0  0  0  0  0  0  0  0  0  0  0  0
    3.3530    2.3930    1.7860 O   0  0  0  0  0  0  0  0  0  0  0  0
    0.6930   -0.0010    0.0610 N   0  0  0  0  0  0  0  0  0  0  0  0
    0.2220    1.2860   -0.2850 C   0  0  0  0  0  0  0  0  0  0  0  0
    0.9500    2.2970   -0.3070 O   0  0  0  0  0  0  0  0  0  0  0  0
   -1.1920    1.1830   -0.5900 N   0  0  0  0  0  0  0  0  0  0  0  0
   -1.5830   -0.0550   -0.4200 C   0  0  0  0  0  0  0  0  0  0  0  0
   -2.9160   -0.4320   -0.7220 N   0  0  0  0  0  0  0  0  0  0  0  0
   -3.9370    0.5650   -1.0990 C   0  0  1  0  0  0  0  0  0  0  0  0
   -4.9160   -0.0260   -1.8650 O   0  0  0  0  0  0  0  0  0  0  0  0
   -4.7270    1.0510    0.5570 P   0  0  0  0  0  0  0  0  0  0  0  0
   -5.0960    2.7330    0.5870 O   0  0  0  0  0  0  0  0  0  0  0  0
   -6.1750    0.1070    0.7890 O   0  0  0  0  0  0  0  0  0  0  0  0
  1  2  2  0
  2  3  1  0
  3  4  1  0
  5  4  1  1
  5  6  1  0
  5 16  1  0
  5 20  1  0
  6  7  1  0
  7  8  2  0
  8  9  1  0
  8 16  1  0
  9 10  1  0
 10 11  1  0
 10 14  1  0
 11 12  1  0
 12 13  1  0
 13 14  1  0
 14 15  2  0
 16 17  1  0
 17 18  2  0
 17 19  1  0
 19 20  2  0
 20 21  1  0
 21 22  1  0
 22 23  1  6
 22 24  1  0
 24 25  1  0
 24 26  1  0
M  END
