
     RDKit          3D

 27 28  0  0  0  0  0  0  0  0999 V2000
   -3.8390    0.2800    0.6150 N   0  0  0  0  0  0  0  0  0  0  0  0
   -3.0030    0.6830   -0.3210 C   0  0  0  0  0  0  0  0  0  0  0  0
   -3.4360    1.7710   -1.1020 N   0  0  0  0  0  0  0  0  0  0  0  0
   -4.7130    2.8970   -0.5320 P   0  0  0  0  0  0  0  0  0  0  0  0
   -4.1260    4.0180    0.6410 O   0  0  0  0  0  0  0  0  0  0  0  0
   -5.5250    3.7050   -1.8060 O   0  0  0  0  0  0  0  0  0  0  0  0
   -1.7910   -0.0050   -0.4230 N   0  0  0  0  0  0  0  0  0  0  0  0
   -0.7690    0.2840   -1.3660 C   0  0  0  0  0  0  0  0  0  0  0  0
   -0.7450    1.3880   -1.9550 O   0  0  0  0  0  0  0  0  0  0  0  0
    0.1990   -0.6690   -1.6170 O   0  0  0  0  0  0  0  0  0  0  0  0
    0.7350   -1.4420   -0.5770 C   0  0  1  0  0  0  0  0  0  0  0  0
    2.1550   -1.0570   -0.2260 C   0  0  0  0  0  0  0  0  0  0  0  0
    3.0570   -1.8040    0.4150 N   0  0  0  0  0  0  0  0  0  0  0  0
    4.1910   -1.1580    0.5620 N   0  0  0  0  0  0  0  0  0  0  0  0
    3.9860    0.0420   -0.0120 C   0  0  0  0  0  0  0  0  0  0  0  0
    4.9510    1.1160   -0.0960 C   0  0  0  0  0  0  0  0  0  0  0  0
    4.8460    1.9730   -1.0260 O   0  0  0  0  0  0  0  0  0  0  0  0
    6.0280    1.2540    0.8520 N   0  0  0  0  0  0  0  0  0  0  0  0
    6.8910    2.2860    0.7230 O   0  0  0  0  0  0  0  0  0  0  0  0
    8.1050    1.8010    0.8630 O   0  0  0  0  0  0  0  0  0  0  0  0
    2.7410    0.0680   -0.4820 O   0  0  0  0  0  0  0  0  0  0  0  0
   -0.0580   -1.3260    0.7210 C   0  0  0  0  0  0  0  0  0  0  0  0
   -1.5110   -1.1180    0.4700 C   0  0  2  0  0  0  0  0  0  0  0  0
   -2.1470   -2.4180    0.0540 C   0  0  0  0  0  0  0  0  0  0  0  0
   -1.7600   -2.8720   -1.1820 O   0  0  0  0  0  0  0  0  0  0  0  0
   -2.6170   -4.3780   -1.4490 P   0  0  0  0  0  0  0  0  0  0  0  0
   -2.7180   -5.4530   -0.3240 O   0  0  0  0  0  0  0  0  0  0  0  0
  1  2  2  0
  2  3  1  0
  2  7  1  0
  3  4  1  0
  4  5  1  0
  4  6  1  0
  7  8  1  0
  7 23  1  0
  8  9  2  0
  8 10  1  0
 10 11  1  0
 11 12  1  1
 11 22  1  0
 12 13  2  0
 12 21  1  0
 13 14  1  0
 14 15  2  0
 15 16  1  0
 15 21  1  0
 16 17  2  0
 16 18  1  0
 18 19  1  0
 19 20  1  0
 22 23  1  0
 23 24  1  6
 24 25  1  0
 25 26  1  0
 26 27  2  0
M  END
