
     RDKit          3D

 11 11  0  0  0  0  0  0  0  0999 V2000
   -2.9840   -1.2700   -0.7890 O   0  0  0  0  0  0  0  0  0  0  0  0
   -2.1520    0.1380   -0.4070 P   0  0  0  0  0  0  0  0  0  0  0  0
   -2.5620    1.5330   -1.2010 O   0  0  0  0  0  0  0  0  0  0  0  0
   -3.2970    0.4170    0.6000 O   0  0  0  0  0  0  0  0  0  0  0  0
   -0.8220    0.0820    0.6960 C   0  0  0  0  0  0  0  0  0  0  0  0
    0.5470   -0.0870    0.2060 C   0  0  0  0  0  0  0  0  0  0  0  0
    1.3020    1.0390   -0.1050 C   0  0  0  0  0  0  0  0  0  0  0  0
    2.5970    0.9450   -0.5700 C   0  0  0  0  0  0  0  0  0  0  0  0
    3.1590   -0.3040   -0.7320 C   0  0  0  0  0  0  0  0  0  0  0  0
    2.4400   -1.4540   -0.4330 C   0  0  0  0  0  0  0  0  0  0  0  0
    1.1620   -1.3090    0.0240 C   0  0  0  0  0  0  0  0  0  0  0  0
  1  2  1  0
  2  3  1  0
  2  4  1  0
  2  5  1  0
  5  6  1  0
  6  7  2  0
  6 11  1  0
  7  8  1  0
  8  9  2  0
  9 10  1  0
 10 11  2  0
M  END
