
     RDKit          3D

 26 27  0  0  0  0  0  0  0  0999 V2000
    5.8320    0.0030   -0.9360 C   0  0  0  0  0  0  0  0  0  0  0  0
    5.5930    0.0070    0.5060 N   0  0  0  0  0  0  0  0  0  0  0  0
    6.6700    0.3410    1.3690 C   0  0  0  0  0  0  0  0  0  0  0  0
    7.8070    0.6280    0.9170 O   0  0  0  0  0  0  0  0  0  0  0  0
    6.4540    0.3480    2.7540 O   0  0  0  0  0  0  0  0  0  0  0  0
    4.3220   -0.3130    1.0160 C   0  0  0  0  0  0  0  0  0  0  0  0
    4.1450   -0.3020    2.2620 O   0  0  0  0  0  0  0  0  0  0  0  0
    3.2190   -0.6530    0.1800 N   0  0  0  0  0  0  0  0  0  0  0  0
    2.0540   -0.1500    0.4660 C   0  0  0  0  0  0  0  0  0  0  0  0
    1.8470    0.6700    1.5070 N   0  0  0  0  0  0  0  0  0  0  0  0
    0.6730    1.1920    1.8150 N   0  0  0  0  0  0  0  0  0  0  0  0
   -0.4020    0.8980    1.0500 C   0  0  0  0  0  0  0  0  0  0  0  0
   -0.2360    0.0610   -0.0290 C   0  0  0  0  0  0  0  0  0  0  0  0
    0.9800   -0.4370   -0.2910 N   0  0  0  0  0  0  0  0  0  0  0  0
   -1.4500   -0.2150   -0.8160 C   0  0  1  0  0  0  0  0  0  0  0  0
   -1.3090   -1.2870   -1.8370 C   0  0  0  0  0  0  0  0  0  0  0  0
   -2.8930   -1.5570   -2.7740 P   0  0  0  0  0  0  0  0  0  0  0  0
   -3.7430   -2.8610   -2.0050 O   0  0  0  0  0  0  0  0  0  0  0  0
   -3.9050   -0.1260   -2.6690 O   0  0  0  0  0  0  0  0  0  0  0  0
   -2.5730   -0.4130    0.1460 C   0  0  0  0  0  0  0  0  0  0  0  0
   -2.8480    0.9520    0.7920 C   0  0  1  0  0  0  0  0  0  0  0  0
   -3.9030    0.8810    1.6650 O   0  0  0  0  0  0  0  0  0  0  0  0
   -5.1920    1.8730    1.0620 P   0  0  0  0  0  0  0  0  0  0  0  0
   -5.9260    1.2170   -0.3430 O   0  0  0  0  0  0  0  0  0  0  0  0
   -6.4270    2.1200    2.2600 O   0  0  0  0  0  0  0  0  0  0  0  0
   -1.6680    1.4450    1.3600 O   0  0  0  0  0  0  0  0  0  0  0  0
  1  2  1  0
  2  3  1  0
  2  6  1  0
  3  4  2  0
  3  5  1  0
  6  7  2  0
  6  8  1  0
  8  9  2  3
  9 10  1  0
  9 14  1  0
 10 11  2  0
 11 12  1  0
 12 13  2  0
 12 26  1  0
 13 14  1  0
 13 15  1  0
 15 16  1  1
 15 20  1  0
 16 17  1  0
 17 18  1  0
 17 19  1  0
 20 21  1  0
 21 22  1  1
 21 26  1  0
 22 23  1  0
 23 24  1  0
 23 25  1  0
M  END
