
     RDKit          3D

 27 28  0  0  0  0  0  0  0  0999 V2000
    3.1130   -1.2020    1.5730 N   0  0  0  0  0  0  0  0  0  0  0  0
    2.5800   -0.4980    0.6380 C   0  0  0  0  0  0  0  0  0  0  0  0
    3.4070    0.2430   -0.2470 N   0  0  0  0  0  0  0  0  0  0  0  0
    5.1810   -0.1060   -0.3930 P   0  0  0  0  0  0  0  0  0  0  0  0
    5.3890   -1.8340   -0.1800 O   0  0  0  0  0  0  0  0  0  0  0  0
    6.0590    0.6640    0.8870 O   0  0  0  0  0  0  0  0  0  0  0  0
    7.7520    0.5330    0.5010 P   0  0  0  0  0  0  0  0  0  0  0  0
    8.0800    1.7710   -0.6960 O   0  0  0  0  0  0  0  0  0  0  0  0
    7.9810   -1.0020   -0.2780 O   0  0  0  0  0  0  0  0  0  0  0  0
    1.1640   -0.4950    0.5300 N   0  0  0  0  0  0  0  0  0  0  0  0
    0.5390   -1.7070    0.0060 C   0  0  0  0  0  0  0  0  0  0  0  0
   -0.9290   -1.6570    0.4420 C   0  0  0  0  0  0  0  0  0  0  0  0
   -1.4780   -0.4540   -0.1900 N   0  0  0  0  0  0  0  0  0  0  0  0
   -2.7240   -0.4690   -0.8580 C   0  0  0  0  0  0  0  0  0  0  0  0
   -3.0920   -1.5400   -1.4110 O   0  0  0  0  0  0  0  0  0  0  0  0
   -3.5500    0.7630   -0.8860 C   0  0  1  0  0  0  0  0  0  0  0  0
   -4.6670    0.6620    0.0600 N   0  0  0  0  0  0  0  0  0  0  0  0
   -6.0220    0.6720   -0.3670 C   0  0  0  0  0  0  0  0  0  0  0  0
   -6.2490    0.7720   -1.6010 O   0  0  0  0  0  0  0  0  0  0  0  0
   -7.0840    0.5740    0.5420 O   0  0  0  0  0  0  0  0  0  0  0  0
   -8.4130    0.5850    0.1170 C   0  0  0  0  0  0  0  0  0  0  0  0
   -8.6040    0.6860   -1.1230 O   0  0  0  0  0  0  0  0  0  0  0  0
   -2.7390    1.9810   -0.6350 C   0  0  0  0  0  0  0  0  0  0  0  0
   -3.1730    3.0720   -1.1000 O   0  0  0  0  0  0  0  0  0  0  0  0
   -1.5600    1.8850    0.0850 O   0  0  0  0  0  0  0  0  0  0  0  0
   -0.7330    0.7850   -0.1350 C   0  0  1  0  0  0  0  0  0  0  0  0
    0.3470    0.6380    0.9120 C   0  0  0  0  0  0  0  0  0  0  0  0
  1  2  2  0
  2  3  1  0
  2 10  1  0
  3  4  1  0
  4  5  1  0
  4  6  1  0
  6  7  1  0
  7  8  1  0
  7  9  1  0
 10 11  1  0
 10 27  1  0
 11 12  1  0
 12 13  1  0
 13 14  1  0
 13 26  1  0
 14 15  2  0
 14 16  1  0
 16 17  1  1
 16 23  1  0
 17 18  1  0
 18 19  2  0
 18 20  1  0
 20 21  1  0
 21 22  2  0
 23 24  2  0
 23 25  1  0
 25 26  1  0
 26 27  1  1
M  END
