
     RDKit          3D

 27 28  0  0  0  0  0  0  0  0999 V2000
    1.3250   -0.1180   -2.2890 O   0  0  0  0  0  0  0  0  0  0  0  0
    0.6000    0.1020   -1.2610 C   0  0  0  0  0  0  0  0  0  0  0  0
    1.4030   -0.0140   -0.1310 N   0  0  0  0  0  0  0  0  0  0  0  0
    2.7490   -0.4500   -0.1750 C   0  0  0  0  0  0  0  0  0  0  0  0
    3.4880    0.2090    0.6330 N   0  0  0  0  0  0  0  0  0  0  0  0
    4.8030   -0.2750    0.5670 C   0  0  0  0  0  0  0  0  0  0  0  0
    6.1900    0.5290    1.4380 P   0  0  0  0  0  0  0  0  0  0  0  0
    6.0730    0.1980    3.1300 O   0  0  0  0  0  0  0  0  0  0  0  0
    7.6700   -0.0530    0.8270 O   0  0  0  0  0  0  0  0  0  0  0  0
    4.9070   -1.2570   -0.2400 N   0  0  0  0  0  0  0  0  0  0  0  0
    3.5650   -1.4430   -0.7680 C   0  0  0  0  0  0  0  0  0  0  0  0
    3.1920   -2.4120   -1.4640 N   0  0  0  0  0  0  0  0  0  0  0  0
    2.0120   -2.8440   -1.8710 O   0  0  0  0  0  0  0  0  0  0  0  0
    1.5100   -4.0720   -1.6430 O   0  0  0  0  0  0  0  0  0  0  0  0
   -0.8120    0.4200   -1.2690 C   0  0  2  0  0  0  0  0  0  0  0  0
   -1.0540    1.4250   -2.3040 C   0  0  0  0  0  0  0  0  0  0  0  0
   -1.0140    1.0730   -3.5100 O   0  0  0  0  0  0  0  0  0  0  0  0
   -1.3190    2.7250   -1.9620 O   0  0  0  0  0  0  0  0  0  0  0  0
   -2.0110    2.9690   -0.7630 C   0  0  0  0  0  0  0  0  0  0  0  0
   -1.4620    2.0940    0.3410 C   0  0  0  0  0  0  0  0  0  0  0  0
   -1.3950    0.7210    0.0020 N   0  0  0  0  0  0  0  0  0  0  0  0
   -2.7270    0.1640    0.0420 C   0  0  0  0  0  0  0  0  0  0  0  0
   -3.3490    0.0480    1.3820 C   0  0  2  0  0  0  0  0  0  0  0  0
   -2.6090   -0.7560    2.2540 O   0  0  0  0  0  0  0  0  0  0  0  0
   -5.0100   -0.8010    1.1210 P   0  0  0  0  0  0  0  0  0  0  0  0
   -5.9740    0.0790   -0.0120 O   0  0  0  0  0  0  0  0  0  0  0  0
   -4.8080   -2.4080    0.5430 O   0  0  0  0  0  0  0  0  0  0  0  0
  1  2  2  0
  2  3  1  0
 15  2  1  1
  3  4  1  0
  4  5  2  0
  4 11  1  0
  5  6  1  0
  6  7  1  0
  6 10  2  0
  7  8  1  0
  7  9  1  0
 10 11  1  0
 11 12  2  3
 12 13  1  0
 13 14  1  0
 15 16  1  0
 15 21  1  0
 16 17  2  0
 16 18  1  0
 18 19  1  0
 19 20  1  0
 20 21  1  0
 21 22  1  0
 22 23  1  0
 23 24  1  1
 23 25  1  0
 25 26  1  0
 25 27  1  0
M  END
