
     RDKit          3D

 26 27  0  0  0  0  0  0  0  0999 V2000
   -3.8440   -2.7240    1.0870 C   0  0  0  0  0  0  0  0  0  0  0  0
   -3.6720   -1.5390    0.2970 N   0  0  0  0  0  0  0  0  0  0  0  0
   -2.5260   -1.4240   -0.5510 C   0  0  0  0  0  0  0  0  0  0  0  0
   -1.2920   -1.5020    0.2670 C   0  0  0  0  0  0  0  0  0  0  0  0
   -0.0580   -1.4240   -0.2630 N   0  0  0  0  0  0  0  0  0  0  0  0
    0.8650   -1.5260    0.7280 C   0  0  0  0  0  0  0  0  0  0  0  0
    2.3370   -1.4860    0.5580 C   0  0  1  0  0  0  0  0  0  0  0  0
    2.7160   -0.4450   -0.4750 C   0  0  0  0  0  0  0  0  0  0  0  0
    2.5050    0.4200    0.7520 C   0  0  2  0  0  0  0  0  0  0  0  0
    3.3990    1.5790    0.7220 C   0  0  0  0  0  0  0  0  0  0  0  0
    3.0440    2.5820    0.0510 O   0  0  0  0  0  0  0  0  0  0  0  0
    4.6110    1.6220    1.3940 O   0  0  0  0  0  0  0  0  0  0  0  0
    5.3960    2.8120    1.2870 C   0  0  0  0  0  0  0  0  0  0  0  0
    5.6780    2.9760   -0.0730 O   0  0  0  0  0  0  0  0  0  0  0  0
    6.5610    1.5380   -0.5550 P   0  0  0  0  0  0  0  0  0  0  0  0
    8.2370    1.9440   -0.5490 O   0  0  0  0  0  0  0  0  0  0  0  0
    6.0010    0.9950   -2.0830 O   0  0  0  0  0  0  0  0  0  0  0  0
    2.9450   -0.6650    1.5090 O   0  0  0  0  0  0  0  0  0  0  0  0
    0.1400   -1.6660    1.8520 N   0  0  0  0  0  0  0  0  0  0  0  0
   -1.1310   -1.6480    1.5450 O   0  0  0  0  0  0  0  0  0  0  0  0
   -4.6110   -0.4720    0.3350 C   0  0  0  0  0  0  0  0  0  0  0  0
   -5.0060    0.0140    1.4660 N   0  0  0  0  0  0  0  0  0  0  0  0
   -5.0840    0.0260   -0.9070 N   0  0  0  0  0  0  0  0  0  0  0  0
   -6.5840    1.0100   -0.9150 P   0  0  0  0  0  0  0  0  0  0  0  0
   -7.9210   -0.1060   -1.0220 O   0  0  0  0  0  0  0  0  0  0  0  0
   -6.5750    1.9680   -2.3610 O   0  0  0  0  0  0  0  0  0  0  0  0
  1  2  1  0
  2  3  1  0
  2 21  1  0
  3  4  1  0
  4  5  2  0
  4 20  1  0
  5  6  1  0
  7  6  1  1
  6 19  2  0
  7  8  1  0
  7 18  1  0
  8  9  1  0
  9 10  1  6
  9 18  1  0
 10 11  2  0
 10 12  1  0
 12 13  1  0
 13 14  1  0
 14 15  1  0
 15 16  1  0
 15 17  1  0
 19 20  1  0
 21 22  2  0
 21 23  1  0
 23 24  1  0
 24 25  1  0
 24 26  1  0
M  END
