
     RDKit          3D

  7  6  0  0  0  0  0  0  0  0999 V2000
   -1.7450   -1.5000    0.1240 N   0  0  0  0  0  0  0  0  0  0  0  0
   -1.5490   -0.2470    0.3090 C   0  0  0  0  0  0  0  0  0  0  0  0
   -0.2150    0.2870    0.0710 C   0  0  0  0  0  0  0  0  0  0  0  0
    0.0030    1.5760    0.2580 C   0  0  0  0  0  0  0  0  0  0  0  0
    1.2660    2.0610    0.0280 O   0  0  0  0  0  0  0  0  0  0  0  0
    0.8810   -0.6170   -0.3780 C   0  0  0  0  0  0  0  0  0  0  0  0
    1.1250   -1.6350    0.5450 O   0  0  0  0  0  0  0  0  0  0  0  0
  1  2  2  0
  2  3  1  0
  3  4  2  3
  3  6  1  0
  4  5  1  0
  6  7  1  0
M  END
