
     RDKit          3D

  7  6  0  0  0  0  0  0  0  0999 V2000
    0.8620    1.4430   -1.7780 N   0  0  0  0  0  0  0  0  0  0  0  0
    0.9030    0.4590   -0.7740 C   0  0  0  0  0  0  0  0  0  0  0  0
    2.1010   -0.1020   -0.4040 O   0  0  0  0  0  0  0  0  0  0  0  0
   -0.1910    0.0650   -0.1820 C   0  0  0  0  0  0  0  0  0  0  0  0
   -0.1720   -0.9570    0.8650 C   0  0  0  0  0  0  0  0  0  0  0  0
   -1.2870   -1.3400    1.4500 C   0  0  0  0  0  0  0  0  0  0  0  0
   -2.5090   -0.7980    1.1040 O   0  0  0  0  0  0  0  0  0  0  0  0
  1  2  1  0
  2  3  1  0
  2  4  2  3
  4  5  1  0
  5  6  2  3
  6  7  1  0
M  END
