
     RDKit          3D

  7  6  0  0  0  0  0  0  0  0999 V2000
    2.1920    0.1990    0.2550 C   0  0  0  0  0  0  0  0  0  0  0  0
    0.9420    0.4050   -0.4840 N   0  0  0  0  0  0  0  0  0  0  0  0
   -0.1650   -0.1520    0.2680 C   0  0  1  0  0  0  0  0  0  0  0  0
   -1.2710    0.8750    0.3390 C   0  0  0  0  0  0  0  0  0  0  0  0
   -1.7170    1.2210   -0.9360 O   0  0  0  0  0  0  0  0  0  0  0  0
   -0.6180   -1.4400   -0.3780 C   0  0  0  0  0  0  0  0  0  0  0  0
   -1.6730   -2.0280    0.2870 O   0  0  0  0  0  0  0  0  0  0  0  0
  1  2  1  0
  2  3  1  0
  3  4  1  6
  3  6  1  0
  4  5  1  0
  6  7  1  0
M  CHG  1   2   1
M  END
