
     RDKit          3D

  7  6  0  0  0  0  0  0  0  0999 V2000
   -2.3140    0.4570   -0.1190 N   0  0  0  0  0  0  0  0  0  0  0  0
   -1.0050    0.1560   -0.6950 C   0  0  0  0  0  0  0  0  0  0  0  0
   -0.2110   -0.5500    0.3430 C   0  0  0  0  0  0  0  0  0  0  0  0
    1.1720   -0.9400   -0.0760 C   0  0  0  0  0  0  0  0  0  0  0  0
    2.0200    0.1880   -0.4620 C   0  0  0  0  0  0  0  0  0  0  0  0
    1.8820    0.7140   -1.5930 O   0  0  0  0  0  0  0  0  0  0  0  0
    2.9900    0.7170    0.3720 O   0  0  0  0  0  0  0  0  0  0  0  0
  1  2  1  0
  2  3  1  0
  3  4  1  0
  4  5  1  0
  5  6  2  0
  5  7  1  0
M  CHG  1   1   1
M  END
