
     RDKit          3D

  7  6  0  0  0  0  0  0  0  0999 V2000
    1.5080   -1.3940   -0.0150 N   0  0  0  0  0  0  0  0  0  0  0  0
    1.0590   -0.0630    0.2630 C   0  0  0  0  0  0  0  0  0  0  0  0
   -0.3680    0.1490   -0.0230 C   0  0  0  0  0  0  0  0  0  0  0  0
   -1.1720   -0.7900   -0.4910 C   0  0  0  0  0  0  0  0  0  0  0  0
   -0.6560   -2.0450   -0.7300 O   0  0  0  0  0  0  0  0  0  0  0  0
   -0.9340    1.5020    0.2320 C   0  0  0  0  0  0  0  0  0  0  0  0
   -0.2070    2.3850   -0.5880 O   0  0  0  0  0  0  0  0  0  0  0  0
  1  2  1  0
  2  3  1  0
  3  4  2  3
  3  6  1  0
  4  5  1  0
  6  7  1  0
M  END
