
     RDKit          3D

 22 23  0  0  0  0  0  0  0  0999 V2000
   -7.0660    1.5430   -0.7040 C   0  0  0  0  0  0  0  0  0  0  0  0
   -5.9550    1.0140   -0.2030 C   0  0  0  0  0  0  0  0  0  0  0  0
   -4.9640    1.8460    0.4590 C   0  0  0  0  0  0  0  0  0  0  0  0
   -3.8320    1.3590    0.9780 C   0  0  0  0  0  0  0  0  0  0  0  0
   -3.5960   -0.0480    0.8690 N   0  0  0  0  0  0  0  0  0  0  0  0
   -2.4020   -0.6110    1.3810 C   0  0  0  0  0  0  0  0  0  0  0  0
   -1.1440   -0.3430    0.5750 C   0  0  0  0  0  0  0  0  0  0  0  0
   -0.8320    1.0710    0.3340 C   0  0  0  0  0  0  0  0  0  0  0  0
    0.4050    1.3040   -0.4570 C   0  0  2  0  0  0  0  0  0  0  0  0
    0.2910    0.6270   -1.8310 C   0  0  0  0  0  0  0  0  0  0  0  0
    1.8870    0.7500    0.3160 S   0  0  0  0  0  0  0  0  0  0  0  0
    2.2770   -0.9850    0.2860 C   0  0  0  0  0  0  0  0  0  0  0  0
    3.5370   -1.1380    1.1230 C   0  0  0  0  0  0  0  0  0  0  0  0
    3.5100   -1.8010    2.1930 O   0  0  0  0  0  0  0  0  0  0  0  0
    4.7030   -0.5090    0.6440 N   0  0  0  0  0  0  0  0  0  0  0  0
    6.0150   -0.5270    1.3070 C   0  0  0  0  0  0  0  0  0  0  0  0
    6.9290   -0.5430    0.0960 C   0  0  0  0  0  0  0  0  0  0  0  0
    6.3100    0.5490   -0.7440 C   0  0  0  0  0  0  0  0  0  0  0  0
    4.8160    0.2680   -0.5670 C   0  0  0  0  0  0  0  0  0  0  0  0
   -4.5460   -0.9010    0.2240 C   0  0  0  0  0  0  0  0  0  0  0  0
   -4.2460   -2.3520    0.1450 C   0  0  0  0  0  0  0  0  0  0  0  0
   -5.6650   -0.4080   -0.2860 C   0  0  0  0  0  0  0  0  0  0  0  0
  1  2  2  0
  2  3  1  0
  2 22  1  0
  3  4  2  0
  4  5  1  0
  5  6  1  0
  5 20  1  0
  6  7  1  0
  7  8  1  0
  8  9  1  0
  9 10  1  6
  9 11  1  0
 11 12  1  0
 12 13  1  0
 13 14  2  0
 13 15  1  0
 15 16  1  0
 15 19  1  0
 16 17  1  0
 17 18  1  0
 18 19  1  0
 20 21  1  0
 20 22  2  0
M  END
