
     RDKit          3D

 21 22  0  0  0  0  0  0  0  0999 V2000
    7.3590   -0.9650   -0.9230 C   0  0  0  0  0  0  0  0  0  0  0  0
    6.4390    0.0760   -0.4200 C   0  0  0  0  0  0  0  0  0  0  0  0
    5.1460   -0.2320   -0.2740 C   0  0  0  0  0  0  0  0  0  0  0  0
    4.6990   -1.5860   -0.6190 C   0  0  0  0  0  0  0  0  0  0  0  0
    4.2520    0.7890    0.2120 C   0  0  0  0  0  0  0  0  0  0  0  0
    2.9620    0.6460    0.4110 C   0  0  0  0  0  0  0  0  0  0  0  0
    2.1830   -0.8780    0.0850 Cl  0  0  0  0  0  0  0  0  0  0  0  0
    2.2190    1.7890    0.9060 C   0  0  0  0  0  0  0  0  0  0  0  0
    0.9140    1.7520    1.1410 C   0  0  0  0  0  0  0  0  0  0  0  0
    0.0060    0.6030    0.9560 C   0  0  0  0  0  0  0  0  0  0  0  0
   -1.3200    1.1250    1.3780 C   0  0  0  0  0  0  0  0  0  0  0  0
   -2.5980    0.3240    1.3780 C   0  0  0  0  0  0  0  0  0  0  0  0
   -2.8380   -0.1010    0.0510 N   0  0  0  0  0  0  0  0  0  0  0  0
   -3.1660    0.9020   -0.8970 C   0  0  0  0  0  0  0  0  0  0  0  0
   -4.5460    0.5490   -1.4690 C   0  0  0  0  0  0  0  0  0  0  0  0
   -5.3300    0.1240   -0.4110 O   0  0  0  0  0  0  0  0  0  0  0  0
   -4.9890   -1.1090    0.0930 C   0  0  1  0  0  0  0  0  0  0  0  0
   -5.8180   -2.2480   -0.4190 C   0  0  0  0  0  0  0  0  0  0  0  0
   -3.4930   -1.3530   -0.1100 C   0  0  0  0  0  0  0  0  0  0  0  0
   -1.2150    2.3830    1.7490 C   0  0  0  0  0  0  0  0  0  0  0  0
    0.1140    2.8310    1.6310 N   0  0  0  0  0  0  0  0  0  0  0  0
  1  2  1  0
  2  3  2  3
  3  4  1  0
  3  5  1  0
  5  6  2  3
  6  7  1  0
  6  8  1  0
  8  9  2  3
  9 10  1  0
  9 21  1  0
 10 11  1  0
 11 12  1  0
 11 20  2  0
 12 13  1  0
 13 14  1  0
 13 19  1  0
 14 15  1  0
 15 16  1  0
 16 17  1  0
 17 18  1  6
 17 19  1  0
 20 21  1  0
M  END
