
     RDKit          3D

 26 29  0  0  0  0  0  0  0  0999 V2000
   -1.1720   -3.3930    0.3090 C   0  0  0  0  0  0  0  0  0  0  0  0
   -1.8440   -2.0760    0.2270 C   0  0  0  0  0  0  0  0  0  0  0  0
   -3.2520   -2.1010    0.1720 C   0  0  0  0  0  0  0  0  0  0  0  0
   -3.9520   -0.9300    0.0300 C   0  0  0  0  0  0  0  0  0  0  0  0
   -3.2760    0.2680   -0.0580 C   0  0  0  0  0  0  0  0  0  0  0  0
   -3.9710    1.5350   -0.2090 C   0  0  0  0  0  0  0  0  0  0  0  0
   -3.2970    2.6060   -0.3220 O   0  0  0  0  0  0  0  0  0  0  0  0
   -5.3650    1.6660   -0.2390 N   0  0  0  0  0  0  0  0  0  0  0  0
   -5.9850    2.9920   -0.3960 C   0  0  2  0  0  0  0  0  0  0  0  0
   -7.3430    3.1690    0.2370 C   0  0  0  0  0  0  0  0  0  0  0  0
   -7.2550    3.0150   -1.2750 C   0  0  0  0  0  0  0  0  0  0  0  0
   -1.8960    0.2620    0.0010 C   0  0  0  0  0  0  0  0  0  0  0  0
   -1.1430   -0.9270    0.1480 C   0  0  0  0  0  0  0  0  0  0  0  0
    0.2960   -0.7800    0.1520 C   0  0  0  0  0  0  0  0  0  0  0  0
    1.1320   -1.6390    0.7840 C   0  0  0  0  0  0  0  0  0  0  0  0
    2.5190   -1.3970    0.8020 C   0  0  0  0  0  0  0  0  0  0  0  0
    3.0240   -0.2890    0.1800 C   0  0  0  0  0  0  0  0  0  0  0  0
    4.4570   -0.0500    0.2110 C   0  0  0  0  0  0  0  0  0  0  0  0
    4.8970    0.8980   -0.5280 O   0  0  0  0  0  0  0  0  0  0  0  0
    5.4130   -0.7540    0.9700 N   0  0  0  0  0  0  0  0  0  0  0  0
    6.8350   -0.4970    0.9780 C   0  0  0  0  0  0  0  0  0  0  0  0
    7.5280   -0.6580   -0.3260 C   0  0  1  0  0  0  0  0  0  0  0  0
    7.2770    0.0480   -1.5300 C   0  0  0  0  0  0  0  0  0  0  0  0
    8.2900    0.5350   -0.7920 C   0  0  0  0  0  0  0  0  0  0  0  0
    2.1560    0.5750   -0.4570 C   0  0  0  0  0  0  0  0  0  0  0  0
    0.8560    0.3130   -0.4530 N   0  0  0  0  0  0  0  0  0  0  0  0
  1  2  1  0
  2  3  2  0
  2 13  1  0
  3  4  1  0
  4  5  2  0
  5  6  1  0
  5 12  1  0
  6  7  2  0
  6  8  1  0
  9  8  1  1
  9 10  1  0
  9 11  1  0
 10 11  1  0
 12 13  2  0
 13 14  1  0
 14 15  2  0
 14 26  1  0
 15 16  1  0
 16 17  2  0
 17 18  1  0
 17 25  1  0
 18 19  2  0
 18 20  1  0
 20 21  1  0
 22 21  1  1
 22 23  1  0
 22 24  1  0
 23 24  2  0
 25 26  2  0
M  END
