
     RDKit          3D

 21 22  0  0  0  0  0  0  0  0999 V2000
   -5.3300   -2.6320    0.7770 C   0  0  0  0  0  0  0  0  0  0  0  0
   -4.3830   -1.7330    0.5570 C   0  0  0  0  0  0  0  0  0  0  0  0
   -2.9880   -1.8940    0.6610 N   0  0  0  0  0  0  0  0  0  0  0  0
   -2.3090   -0.6670    0.3370 C   0  0  0  0  0  0  0  0  0  0  0  0
   -1.0600   -0.1430    0.1390 C   0  0  0  0  0  0  0  0  0  0  0  0
    0.1210   -0.9270    0.2280 C   0  0  0  0  0  0  0  0  0  0  0  0
    1.3500   -0.6930    0.0550 C   0  0  0  0  0  0  0  0  0  0  0  0
    2.0650    0.4660   -0.3120 C   0  0  0  0  0  0  0  0  0  0  0  0
    3.4130    0.5080   -0.4260 C   0  0  0  0  0  0  0  0  0  0  0  0
    3.9960    2.1160   -0.9050 Cl  0  0  0  0  0  0  0  0  0  0  0  0
    4.2980   -0.5810   -0.1810 C   0  0  0  0  0  0  0  0  0  0  0  0
    5.5800   -0.6670   -0.2600 C   0  0  0  0  0  0  0  0  0  0  0  0
    6.5060    0.3970   -0.6470 C   0  0  0  0  0  0  0  0  0  0  0  0
    7.4540    0.6740    0.5200 C   0  0  0  0  0  0  0  0  0  0  0  0
   -1.3170    1.2910    0.0390 C   0  0  0  0  0  0  0  0  0  0  0  0
   -0.5120    2.2030    0.2630 O   0  0  0  0  0  0  0  0  0  0  0  0
   -2.7480    1.5140   -0.3830 C   0  0  0  0  0  0  0  0  0  0  0  0
   -3.3170    0.2610    0.0250 N   0  0  0  0  0  0  0  0  0  0  0  0
   -4.6230   -0.3610    0.1520 C   0  0  0  0  0  0  0  0  0  0  0  0
   -5.7800    0.2390   -0.0680 C   0  0  0  0  0  0  0  0  0  0  0  0
   -5.8870    1.6520   -0.4800 C   0  0  0  0  0  0  0  0  0  0  0  0
  1  2  2  0
  2  3  1  0
  2 19  1  0
  3  4  1  0
  4  5  2  0
  4 18  1  0
  5  6  1  0
  5 15  1  0
  6  7  2  3
  7  8  1  0
  8  9  2  3
  9 10  1  0
  9 11  1  0
 11 12  2  3
 12 13  1  0
 13 14  1  0
 15 16  2  0
 15 17  1  0
 17 18  1  0
 18 19  1  0
 19 20  2  3
 20 21  1  0
M  END
