
     RDKit          3D

 21 23  0  0  0  0  0  0  0  0999 V2000
   -1.4820   -1.5450   -0.3570 O   0  0  0  0  0  0  0  0  0  0  0  0
   -1.3650   -0.7030    0.7140 C   0  0  1  0  0  0  0  0  0  0  0  0
   -0.5450    0.5240    0.5110 C   0  0  0  0  0  0  0  0  0  0  0  0
    0.8210    0.2910    0.1440 N   0  0  0  0  0  0  0  0  0  0  0  0
    1.5700    1.4920    0.0290 C   0  0  0  0  0  0  0  0  0  0  0  0
    3.0030    1.2480   -0.1530 C   0  0  0  0  0  0  0  0  0  0  0  0
    3.6120    0.0910    0.0330 C   0  0  0  0  0  0  0  0  0  0  0  0
    5.0430   -0.0790   -0.1680 C   0  0  0  0  0  0  0  0  0  0  0  0
    5.7500   -1.1830   -0.0180 C   0  0  0  0  0  0  0  0  0  0  0  0
    5.2190   -2.7700    0.4600 Cl  0  0  0  0  0  0  0  0  0  0  0  0
    7.1620   -0.8790   -0.3390 C   0  0  0  0  0  0  0  0  0  0  0  0
    7.1750    0.4330   -0.3960 C   0  0  0  0  0  0  0  0  0  0  0  0
    5.9900    0.9630   -0.5840 C   0  0  0  0  0  0  0  0  0  0  0  0
    2.8210   -1.0600    0.4720 C   0  0  0  0  0  0  0  0  0  0  0  0
    1.4080   -0.7890    0.8500 C   0  0  0  0  0  0  0  0  0  0  0  0
   -2.7490   -0.2820    1.1620 C   0  0  0  0  0  0  0  0  0  0  0  0
   -3.4640    0.3890    0.0890 N   0  0  0  0  0  0  0  0  0  0  0  0
   -4.7700    0.8480    0.5720 C   0  0  0  0  0  0  0  0  0  0  0  0
   -5.4560    1.1980   -0.7350 C   0  0  0  0  0  0  0  0  0  0  0  0
   -5.1640   -0.0560   -1.5340 C   0  0  0  0  0  0  0  0  0  0  0  0
   -3.8890   -0.5910   -0.9180 C   0  0  0  0  0  0  0  0  0  0  0  0
  2  1  1  6
  2  3  1  0
  2 16  1  0
  3  4  1  0
  4  5  1  0
  4 15  1  0
  5  6  1  0
  6  7  2  0
  7  8  1  0
  7 14  1  0
  8  9  2  0
  8 13  1  0
  9 10  1  0
  9 11  1  0
 11 12  2  0
 12 13  2  0
 14 15  1  0
 16 17  1  0
 17 18  1  0
 17 21  1  0
 18 19  1  0
 19 20  1  0
 20 21  1  0
M  END
