
     RDKit          3D

 41 42  0  0  0  0  0  0  0  0999 V2000
   -5.9410    4.6080    1.7890 C   0  0  0  0  0  0  0  0  0  0  0  0
   -4.6110    4.1140    1.4050 C   0  0  0  0  0  0  0  0  0  0  0  0
   -4.3920    2.8510    1.0650 C   0  0  0  0  0  0  0  0  0  0  0  0
   -3.0660    2.3240    0.6770 C   0  0  0  0  0  0  0  0  0  0  0  0
   -2.9240    1.8150   -0.6210 N   0  0  0  0  0  0  0  0  0  0  0  0
   -3.2010    0.4940   -0.9820 C   0  0  1  0  0  0  0  0  0  0  0  0
   -3.2890    0.5080   -2.5420 C   0  0  0  0  0  0  0  0  0  0  0  0
   -2.2720   -0.5980   -0.5790 C   0  0  0  0  0  0  0  0  0  0  0  0
   -0.9080   -0.5610   -0.9860 N   0  0  0  0  0  0  0  0  0  0  0  0
   -0.4170   -1.0080   -2.2450 C   0  0  0  0  0  0  0  0  0  0  0  0
    0.0860   -2.4060   -2.3520 C   0  0  0  0  0  0  0  0  0  0  0  0
   -0.8140   -3.5330   -2.0210 C   0  0  0  0  0  0  0  0  0  0  0  0
   -1.2340   -3.6150   -0.7040 O   0  0  0  0  0  0  0  0  0  0  0  0
    0.0320   -0.0080   -0.0690 C   0  0  0  0  0  0  0  0  0  0  0  0
   -0.4140    0.3740    1.0750 O   0  0  0  0  0  0  0  0  0  0  0  0
    1.4440    0.1200   -0.4010 C   0  0  0  0  0  0  0  0  0  0  0  0
    2.2420    0.6330    0.7050 N   0  0  0  0  0  0  0  0  0  0  0  0
    2.8530   -0.3500    1.5830 C   0  0  0  0  0  0  0  0  0  0  0  0
    4.0980   -0.9730    1.0040 C   0  0  2  0  0  0  0  0  0  0  0  0
    4.6910   -1.9830    1.9830 C   0  0  0  0  0  0  0  0  0  0  0  0
    5.0090   -0.1850    0.3340 N   0  0  0  0  0  0  0  0  0  0  0  0
    5.7370    0.8250    0.9500 C   0  0  0  0  0  0  0  0  0  0  0  0
    7.2220    0.7940    0.6550 C   0  0  1  0  0  0  0  0  0  0  0  0
    7.9130    0.0680    1.7850 C   0  0  0  0  0  0  0  0  0  0  0  0
    7.5620    0.2070   -0.5350 O   0  0  0  0  0  0  0  0  0  0  0  0
    6.9620   -1.0230   -0.6980 C   0  0  2  0  0  0  0  0  0  0  0  0
    7.5270   -1.7880   -1.8830 C   0  0  0  0  0  0  0  0  0  0  0  0
    5.4790   -0.7410   -0.8760 C   0  0  0  0  0  0  0  0  0  0  0  0
    2.4430    1.9920    0.8660 C   0  0  0  0  0  0  0  0  0  0  0  0
    3.1220    2.4610    1.8000 O   0  0  0  0  0  0  0  0  0  0  0  0
    1.8750    2.9450   -0.0300 N   0  0  0  0  0  0  0  0  0  0  0  0
    2.1100    4.3520    0.1940 C   0  0  0  0  0  0  0  0  0  0  0  0
   -4.5840    0.0340   -0.5960 C   0  0  0  0  0  0  0  0  0  0  0  0
   -5.7310    0.6270   -1.0830 C   0  0  0  0  0  0  0  0  0  0  0  0
   -6.9440    0.1310   -0.6570 C   0  0  0  0  0  0  0  0  0  0  0  0
   -7.0660   -0.9200    0.2230 C   0  0  0  0  0  0  0  0  0  0  0  0
   -8.2900   -1.4030    0.6360 O   0  0  0  0  0  0  0  0  0  0  0  0
   -5.9230   -1.5270    0.7220 C   0  0  0  0  0  0  0  0  0  0  0  0
   -5.9600   -2.6500    1.7020 C   0  0  0  0  0  0  0  0  0  0  0  0
   -4.6040   -3.2960    1.7960 C   0  0  0  0  0  0  0  0  0  0  0  0
   -4.7070   -1.0120    0.2820 C   0  0  0  0  0  0  0  0  0  0  0  0
  1  2  1  0
  2  3  2  3
  3  4  1  0
  4  5  1  0
  5  6  1  0
  6  7  1  6
  6  8  1  0
  6 33  1  0
  8  9  1  0
  9 10  1  0
  9 14  1  0
 10 11  1  0
 11 12  1  0
 12 13  1  0
 14 15  2  0
 14 16  1  0
 16 17  1  0
 17 18  1  0
 17 29  1  0
 18 19  1  0
 19 20  1  1
 19 21  1  0
 21 22  1  0
 21 28  1  0
 22 23  1  0
 23 24  1  1
 23 25  1  0
 25 26  1  0
 26 27  1  6
 26 28  1  0
 29 30  2  0
 29 31  1  0
 31 32  1  0
 33 34  2  0
 33 41  1  0
 34 35  1  0
 35 36  2  0
 36 37  1  0
 36 38  1  0
 38 39  1  0
 38 41  2  0
 39 40  1  0
M  CHG  1   5   1
M  END
