
     RDKit          3D

 41 44  0  0  0  0  0  0  0  0999 V2000
    6.0910   -1.8360    3.2100 C   0  0  0  0  0  0  0  0  0  0  0  0
    4.8840   -2.1670    2.3330 C   0  0  0  0  0  0  0  0  0  0  0  0
    4.3610   -1.0440    1.7140 O   0  0  0  0  0  0  0  0  0  0  0  0
    3.2530   -1.1160    0.8480 C   0  0  0  0  0  0  0  0  0  0  0  0
    2.6240   -2.2780    0.5430 C   0  0  0  0  0  0  0  0  0  0  0  0
    1.5220   -2.3640   -0.3130 C   0  0  0  0  0  0  0  0  0  0  0  0
    1.0450   -1.2010   -0.8770 C   0  0  0  0  0  0  0  0  0  0  0  0
   -0.0270   -1.3070   -1.8590 C   0  0  0  0  0  0  0  0  0  0  0  0
    0.2460   -0.9700   -3.2020 C   0  0  0  0  0  0  0  0  0  0  0  0
   -0.7590   -1.1610   -4.1690 C   0  0  0  0  0  0  0  0  0  0  0  0
   -0.5300   -0.8100   -5.4660 C   0  0  0  0  0  0  0  0  0  0  0  0
   -1.5370   -0.9670   -6.4190 C   0  0  0  0  0  0  0  0  0  0  0  0
   -2.7670   -1.4760   -6.0730 C   0  0  0  0  0  0  0  0  0  0  0  0
   -2.9760   -1.8260   -4.7600 C   0  0  0  0  0  0  0  0  0  0  0  0
   -1.9950   -1.6720   -3.8200 C   0  0  0  0  0  0  0  0  0  0  0  0
   -2.2600   -2.0010   -2.5040 C   0  0  0  0  0  0  0  0  0  0  0  0
   -1.2510   -1.7950   -1.5790 C   0  0  0  0  0  0  0  0  0  0  0  0
   -1.6930   -1.9570   -0.1450 C   0  0  0  0  0  0  0  0  0  0  0  0
   -2.2090   -0.5760    0.1750 C   0  0  0  0  0  0  0  0  0  0  0  0
   -2.0390    0.2870   -0.7630 O   0  0  0  0  0  0  0  0  0  0  0  0
   -2.8490   -0.1830    1.3700 N   0  0  0  0  0  0  0  0  0  0  0  0
   -2.9610   -1.0350    2.4770 C   0  0  0  0  0  0  0  0  0  0  0  0
   -3.7890   -0.6430    3.6410 C   0  0  0  0  0  0  0  0  0  0  0  0
   -3.5720    1.1120    4.0440 S   0  0  0  0  0  0  0  0  0  0  0  0
   -4.9070    1.7230    4.4570 O   0  0  0  0  0  0  0  0  0  0  0  0
   -3.0220    1.9380    2.5200 C   0  0  0  0  0  0  0  0  0  0  0  0
   -3.4610    1.1490    1.3230 C   0  0  2  0  0  0  0  0  0  0  0  0
   -4.9130    1.0350    1.1050 C   0  0  0  0  0  0  0  0  0  0  0  0
   -5.4260   -0.0990    1.0220 O   0  0  0  0  0  0  0  0  0  0  0  0
   -5.7230    2.1810    0.9880 N   0  0  0  0  0  0  0  0  0  0  0  0
   -7.1570    1.9970    0.7640 C   0  0  0  0  0  0  0  0  0  0  0  0
    1.6620   -0.0120   -0.5750 C   0  0  0  0  0  0  0  0  0  0  0  0
    2.7700    0.0480    0.2830 C   0  0  0  0  0  0  0  0  0  0  0  0
    3.5750    1.2780    0.3960 C   0  0  2  0  0  0  0  0  0  0  0  0
    2.6990    2.4270    0.9590 C   0  0  0  0  0  0  0  0  0  0  0  0
    2.3200    2.0020    2.3560 C   0  0  0  0  0  0  0  0  0  0  0  0
    0.9610    1.7080    2.7400 N   0  0  0  0  0  0  0  0  0  0  0  0
    3.1840    1.8730    3.2750 O   0  0  0  0  0  0  0  0  0  0  0  0
    3.9780    1.7660   -0.9930 C   0  0  1  0  0  0  0  0  0  0  0  0
    4.8270    2.9760   -0.9940 C   0  0  0  0  0  0  0  0  0  0  0  0
    4.5970    0.6600   -1.7930 C   0  0  0  0  0  0  0  0  0  0  0  0
  1  2  1  0
  2  3  1  0
  3  4  1  0
  4  5  2  0
  4 33  1  0
  5  6  1  0
  6  7  2  0
  7  8  1  0
  7 32  1  0
  8  9  2  0
  8 17  1  0
  9 10  1  0
 10 11  2  0
 10 15  1  0
 11 12  1  0
 12 13  2  0
 13 14  1  0
 14 15  2  0
 15 16  1  0
 16 17  2  0
 17 18  1  0
 18 19  1  0
 19 20  2  0
 19 21  1  0
 21 22  1  0
 21 27  1  0
 22 23  1  0
 24 23  1  6
 24 25  2  0
 24 26  1  0
 26 27  1  0
 27 28  1  1
 28 29  2  0
 28 30  1  0
 30 31  1  0
 32 33  2  0
 33 34  1  0
 34 35  1  6
 34 39  1  0
 35 36  1  0
 36 37  1  0
 36 38  2  0
 39 40  1  1
 39 41  1  0
M  END
