
     RDKit          3D

 41 44  0  0  0  0  0  0  0  0999 V2000
    9.6400    0.8000   -1.8460 O   0  0  0  0  0  0  0  0  0  0  0  0
    8.9010    1.1390   -0.8430 C   0  0  0  0  0  0  0  0  0  0  0  0
    9.3170    0.8740    0.4340 O   0  0  0  0  0  0  0  0  0  0  0  0
    7.6260    1.8000   -1.1700 C   0  0  0  0  0  0  0  0  0  0  0  0
    6.4840    1.0550   -0.5170 C   0  0  0  0  0  0  0  0  0  0  0  0
    6.4840   -0.2990   -0.2300 C   0  0  0  0  0  0  0  0  0  0  0  0
    5.3540   -0.9110    0.3350 C   0  0  0  0  0  0  0  0  0  0  0  0
    4.2510   -0.1610    0.6130 C   0  0  0  0  0  0  0  0  0  0  0  0
    4.2340    1.1940    0.3390 C   0  0  0  0  0  0  0  0  0  0  0  0
    3.0910    1.9610    0.6480 O   0  0  0  0  0  0  0  0  0  0  0  0
    1.9410    1.2900    1.1620 C   0  0  0  0  0  0  0  0  0  0  0  0
    1.2360    0.4640    0.1090 C   0  0  0  0  0  0  0  0  0  0  0  0
    0.1290   -0.2540    0.8430 C   0  0  0  0  0  0  0  0  0  0  0  0
   -0.8950   -0.7940    0.0890 N   0  0  2  0  0  0  0  0  0  0  0  0
   -0.9060   -1.8490   -0.8000 C   0  0  0  0  0  0  0  0  0  0  0  0
   -1.0810   -3.2200   -0.2360 C   0  0  0  0  0  0  0  0  0  0  0  0
   -0.3750   -3.8230    0.7420 C   0  0  0  0  0  0  0  0  0  0  0  0
   -0.5800   -5.1680    1.1010 C   0  0  0  0  0  0  0  0  0  0  0  0
   -1.5380   -5.8960    0.4400 C   0  0  0  0  0  0  0  0  0  0  0  0
   -2.2590   -5.2990   -0.5500 C   0  0  0  0  0  0  0  0  0  0  0  0
   -3.4500   -5.9730   -1.1550 C   0  0  2  0  0  0  0  0  0  0  0  0
   -4.5980   -5.2660   -0.6520 F   0  0  0  0  0  0  0  0  0  0  0  0
   -3.5570   -7.2900   -0.8980 F   0  0  0  0  0  0  0  0  0  0  0  0
   -3.4510   -5.6880   -2.4970 F   0  0  0  0  0  0  0  0  0  0  0  0
   -2.0460   -4.0060   -0.8940 C   0  0  0  0  0  0  0  0  0  0  0  0
   -3.0020   -3.2820   -2.1630 Cl  0  0  0  0  0  0  0  0  0  0  0  0
   -1.5350    0.3870   -0.6620 C   0  0  0  0  0  0  0  0  0  0  0  0
   -2.1440    1.3400    0.2220 C   0  0  1  0  0  0  0  0  0  0  0  0
   -2.4780    2.6920   -0.4270 C   0  0  0  0  0  0  0  0  0  0  0  0
   -1.6750    3.7700    0.0060 C   0  0  0  0  0  0  0  0  0  0  0  0
   -1.9370    5.0590   -0.3890 C   0  0  0  0  0  0  0  0  0  0  0  0
   -3.0200    5.2680   -1.2390 C   0  0  0  0  0  0  0  0  0  0  0  0
   -3.8190    4.2280   -1.6830 C   0  0  0  0  0  0  0  0  0  0  0  0
   -3.4990    2.9360   -1.2390 C   0  0  0  0  0  0  0  0  0  0  0  0
   -3.5570    1.0110    0.7340 C   0  0  0  0  0  0  0  0  0  0  0  0
   -3.9040    1.5630    1.9520 C   0  0  0  0  0  0  0  0  0  0  0  0
   -5.2270    1.5070    2.4100 C   0  0  0  0  0  0  0  0  0  0  0  0
   -6.2280    0.8870    1.6320 C   0  0  0  0  0  0  0  0  0  0  0  0
   -5.8490    0.3500    0.4310 C   0  0  0  0  0  0  0  0  0  0  0  0
   -4.5080    0.4150   -0.0110 C   0  0  0  0  0  0  0  0  0  0  0  0
    5.3380    1.7630   -0.2160 C   0  0  0  0  0  0  0  0  0  0  0  0
  1  2  2  0
  2  3  1  0
  2  4  1  0
  4  5  1  0
  5  6  2  0
  5 41  1  0
  6  7  1  0
  7  8  2  0
  8  9  1  0
  9 10  1  0
  9 41  2  0
 10 11  1  0
 11 12  1  0
 12 13  1  0
 14 13  1  6
 14 15  1  0
 14 27  1  0
 15 16  1  0
 16 17  2  0
 16 25  1  0
 17 18  1  0
 18 19  2  0
 19 20  1  0
 20 21  1  0
 20 25  2  0
 21 22  1  1
 21 23  1  0
 21 24  1  0
 25 26  1  0
 28 27  1  6
 28 29  1  0
 28 35  1  0
 29 30  2  0
 29 34  1  0
 30 31  1  0
 31 32  2  0
 32 33  1  0
 33 34  2  0
 35 36  2  0
 35 40  1  0
 36 37  1  0
 37 38  2  0
 38 39  1  0
 39 40  2  0
M  CHG  1  14   1
M  END
