
     RDKit          3D

 41 43  0  0  0  0  0  0  0  0999 V2000
   -9.9670   -2.4730   -1.1020 C   0  0  0  0  0  0  0  0  0  0  0  0
   -8.7290   -3.2410   -1.4200 C   0  0  0  0  0  0  0  0  0  0  0  0
   -7.4660   -2.3990   -1.4140 C   0  0  0  0  0  0  0  0  0  0  0  0
   -7.3050   -1.8070   -0.0450 C   0  0  0  0  0  0  0  0  0  0  0  0
   -6.0880   -0.9820    0.0480 N   0  0  0  0  0  0  0  0  0  0  0  0
   -4.9210   -1.6660    0.4240 C   0  0  0  0  0  0  0  0  0  0  0  0
   -5.0540   -2.9380    0.6580 O   0  0  0  0  0  0  0  0  0  0  0  0
   -3.5780   -1.1470    0.5880 C   0  0  0  0  0  0  0  0  0  0  0  0
   -3.3450    0.1990    0.3300 O   0  0  0  0  0  0  0  0  0  0  0  0
   -2.0300    0.6610    0.4930 C   0  0  0  0  0  0  0  0  0  0  0  0
   -1.0010   -0.1630    0.8890 C   0  0  0  0  0  0  0  0  0  0  0  0
    0.2900    0.3310    1.0400 C   0  0  0  0  0  0  0  0  0  0  0  0
    1.3680   -0.5730    1.4600 C   0  0  1  0  0  0  0  0  0  0  0  0
    0.7620   -1.9290    1.8550 C   0  0  0  0  0  0  0  0  0  0  0  0
    2.3000   -0.9050    0.3840 N   0  0  0  0  0  0  0  0  0  0  0  0
    3.6870   -0.6440    0.5250 C   0  0  0  0  0  0  0  0  0  0  0  0
    4.1680   -0.1090    1.5790 O   0  0  0  0  0  0  0  0  0  0  0  0
    4.6380   -0.9530   -0.4760 N   0  0  0  0  0  0  0  0  0  0  0  0
    6.0670   -0.6990   -0.3660 C   0  0  2  0  0  0  0  0  0  0  0  0
    6.4560    0.1250   -1.5700 C   0  0  0  0  0  0  0  0  0  0  0  0
    6.8580   -1.9580   -0.2930 C   0  0  0  0  0  0  0  0  0  0  0  0
    8.2540   -1.7460   -0.1930 N   0  0  0  0  0  0  0  0  0  0  0  0
    8.7170   -0.6650    0.6060 C   0  0  2  0  0  0  0  0  0  0  0  0
    9.3920    0.3910   -0.2170 C   0  0  0  0  0  0  0  0  0  0  0  0
   10.6050    0.8090    0.5830 C   0  0  2  0  0  0  0  0  0  0  0  0
   11.6280    1.3930   -0.2700 N   0  0  0  0  0  0  0  0  0  0  0  0
   11.0380   -0.4390    1.1630 N   0  0  0  0  0  0  0  0  0  0  0  0
    9.8630   -1.1750    1.4470 C   0  0  0  0  0  0  0  0  0  0  0  0
    9.7910   -2.1180    2.2830 O   0  0  0  0  0  0  0  0  0  0  0  0
    0.5890    1.6560    0.7990 C   0  0  0  0  0  0  0  0  0  0  0  0
    1.9570    2.2280    0.9490 C   0  0  0  0  0  0  0  0  0  0  0  0
   -0.4530    2.4700    0.4020 C   0  0  0  0  0  0  0  0  0  0  0  0
   -1.7430    1.9980    0.2470 C   0  0  0  0  0  0  0  0  0  0  0  0
   -2.7900    2.8090   -0.1490 O   0  0  0  0  0  0  0  0  0  0  0  0
   -2.6950    4.1710   -0.4370 C   0  0  0  0  0  0  0  0  0  0  0  0
   -6.2130    0.4170   -0.2160 C   0  0  1  0  0  0  0  0  0  0  0  0
   -6.7300    0.7340   -1.6160 C   0  0  0  0  0  0  0  0  0  0  0  0
   -6.5700    2.2310   -1.7640 C   0  0  0  0  0  0  0  0  0  0  0  0
   -6.7580    3.0120   -0.7140 C   0  0  0  0  0  0  0  0  0  0  0  0
   -7.1250    2.5390    0.6400 C   0  0  0  0  0  0  0  0  0  0  0  0
   -7.2580    1.0500    0.7240 C   0  0  0  0  0  0  0  0  0  0  0  0
  1  2  1  0
  2  3  1  0
  3  4  1  0
  4  5  1  0
  5  6  1  0
 36  5  1  6
  6  7  2  0
  6  8  1  0
  8  9  1  0
  9 10  1  0
 10 11  2  0
 10 33  1  0
 11 12  1  0
 12 13  1  0
 12 30  2  0
 13 14  1  6
 13 15  1  0
 15 16  1  0
 16 17  2  0
 16 18  1  0
 18 19  1  0
 19 20  1  6
 19 21  1  0
 21 22  1  0
 23 22  1  6
 23 24  1  0
 23 28  1  0
 24 25  1  0
 25 26  1  6
 25 27  1  0
 27 28  1  0
 28 29  2  0
 30 31  1  0
 30 32  1  0
 32 33  2  0
 33 34  1  0
 34 35  1  0
 36 37  1  0
 36 41  1  0
 37 38  1  0
 38 39  2  0
 39 40  1  0
 40 41  1  0
M  CHG  1  22   1
M  END
