
     RDKit          3D

 41 43  0  0  0  0  0  0  0  0999 V2000
   -6.2650    3.6620    2.4010 C   0  0  0  0  0  0  0  0  0  0  0  0
   -5.9380    4.6950    1.3480 C   0  0  0  0  0  0  0  0  0  0  0  0
   -5.4280    3.9230    0.1300 C   0  0  0  0  0  0  0  0  0  0  0  0
   -4.2700    3.2020    0.5610 N   0  0  0  0  0  0  0  0  0  0  0  0
   -3.8230    2.1800   -0.3340 C   0  0  1  0  0  0  0  0  0  0  0  0
   -4.0730    2.5310   -1.8070 C   0  0  0  0  0  0  0  0  0  0  0  0
   -3.4000    1.5080   -2.6630 C   0  0  0  0  0  0  0  0  0  0  0  0
   -2.6860    0.5430   -2.0010 O   0  0  0  0  0  0  0  0  0  0  0  0
   -1.7640    1.1330   -1.1780 C   0  0  2  0  0  0  0  0  0  0  0  0
   -0.6750    0.2260   -0.6380 C   0  0  0  0  0  0  0  0  0  0  0  0
   -1.0540   -0.9270    0.0520 N   0  0  0  0  0  0  0  0  0  0  0  0
   -1.6840   -0.6080    1.3070 C   0  0  0  0  0  0  0  0  0  0  0  0
   -2.0950   -1.6670    2.2360 C   0  0  0  0  0  0  0  0  0  0  0  0
   -1.5030   -2.8830    1.9900 O   0  0  0  0  0  0  0  0  0  0  0  0
   -0.2650   -2.5960    1.4670 C   0  0  0  0  0  0  0  0  0  0  0  0
   -0.2620   -2.1140    0.0370 C   0  0  1  0  0  0  0  0  0  0  0  0
   -0.9410   -3.1610   -0.8120 C   0  0  1  0  0  0  0  0  0  0  0  0
   -2.3420   -3.4450   -0.2780 C   0  0  0  0  0  0  0  0  0  0  0  0
   -1.1640   -2.6820   -2.2420 C   0  0  0  0  0  0  0  0  0  0  0  0
   -0.2230   -4.4590   -0.9660 C   0  0  0  0  0  0  0  0  0  0  0  0
   -0.8550   -5.5700   -1.7020 C   0  0  0  0  0  0  0  0  0  0  0  0
   -1.1530   -5.4920   -3.1520 C   0  0  0  0  0  0  0  0  0  0  0  0
    1.2170   -1.9750   -0.2070 C   0  0  2  0  0  0  0  0  0  0  0  0
    1.7610   -1.5580   -1.4750 C   0  0  0  0  0  0  0  0  0  0  0  0
    1.7040   -3.3140   -0.0050 O   0  0  0  0  0  0  0  0  0  0  0  0
    1.9140   -1.2260    0.9030 C   0  0  0  0  0  0  0  0  0  0  0  0
    3.3830   -1.0510    0.6790 C   0  0  0  0  0  0  0  0  0  0  0  0
    3.9970   -1.5230   -0.3070 O   0  0  0  0  0  0  0  0  0  0  0  0
    4.1880   -0.3170    1.5960 N   0  0  0  0  0  0  0  0  0  0  0  0
    3.6390    0.2460    2.8000 C   0  0  0  0  0  0  0  0  0  0  0  0
    3.8150   -0.7370    3.9330 C   0  0  0  0  0  0  0  0  0  0  0  0
    3.2890   -0.2210    5.1230 O   0  0  0  0  0  0  0  0  0  0  0  0
    5.5970   -0.1450    1.2670 C   0  0  0  0  0  0  0  0  0  0  0  0
    5.8370    1.0910    0.5080 C   0  0  0  0  0  0  0  0  0  0  0  0
    7.0090    1.4230   -0.1270 C   0  0  0  0  0  0  0  0  0  0  0  0
    6.8130    2.6410   -0.7010 N   0  0  0  0  0  0  0  0  0  0  0  0
    5.5670    3.0660   -0.4400 C   0  0  0  0  0  0  0  0  0  0  0  0
    4.9960    4.3560   -0.9050 C   0  0  0  0  0  0  0  0  0  0  0  0
    4.3420    4.1090   -2.2490 C   0  0  0  0  0  0  0  0  0  0  0  0
    4.9920    2.0940    0.3040 N   0  0  0  0  0  0  0  0  0  0  0  0
   -2.2930    2.1450   -0.2060 C   0  0  0  0  0  0  0  0  0  0  0  0
  1  2  1  0
  2  3  1  0
  3  4  1  0
  5  4  1  1
  5  6  1  0
  5 41  1  0
  6  7  1  0
  7  8  1  0
  8  9  1  0
  9 10  1  1
  9 41  1  0
 10 11  1  0
 11 12  1  0
 11 16  1  0
 12 13  1  0
 13 14  1  0
 14 15  1  0
 16 15  1  1
 16 17  1  0
 16 23  1  0
 17 18  1  1
 17 19  1  0
 17 20  1  0
 20 21  1  0
 21 22  1  0
 23 24  1  6
 23 25  1  0
 23 26  1  0
 26 27  1  0
 27 28  2  0
 27 29  1  0
 29 30  1  0
 29 33  1  0
 30 31  1  0
 31 32  1  0
 33 34  1  0
 34 35  2  0
 34 40  1  0
 35 36  1  0
 36 37  1  0
 37 38  1  0
 37 40  2  0
 38 39  1  0
M  CHG  1   4   1
M  END
