
     RDKit          3D

 41 42  0  0  0  0  0  0  0  0999 V2000
   -5.2280    2.5680    2.9140 C   0  0  0  0  0  0  0  0  0  0  0  0
   -4.2590    2.0800    1.9340 N   0  0  0  0  0  0  0  0  0  0  0  0
   -2.8670    2.2630    2.0730 C   0  0  0  0  0  0  0  0  0  0  0  0
   -2.5530    2.9040    3.1570 O   0  0  0  0  0  0  0  0  0  0  0  0
   -1.8540    1.8520    1.2220 N   0  0  0  0  0  0  0  0  0  0  0  0
   -0.4820    2.1950    1.6990 C   0  0  0  0  0  0  0  0  0  0  0  0
    0.5520    1.5130    0.8470 C   0  0  0  0  0  0  0  0  0  0  0  0
    0.2900    0.1210    0.4430 C   0  0  1  0  0  0  0  0  0  0  0  0
    0.9100   -0.7750    1.3830 N   0  0  0  0  0  0  0  0  0  0  0  0
    2.3290   -0.8490    1.4240 C   0  0  0  0  0  0  0  0  0  0  0  0
    3.1080   -0.1970    0.5070 C   0  0  0  0  0  0  0  0  0  0  0  0
    4.5180   -0.2830    0.5130 C   0  0  0  0  0  0  0  0  0  0  0  0
    5.2340    0.4170   -0.5210 C   0  0  0  0  0  0  0  0  0  0  0  0
    4.4480    0.9720   -1.4260 O   0  0  0  0  0  0  0  0  0  0  0  0
    6.6110    0.6150   -0.7420 C   0  0  0  0  0  0  0  0  0  0  0  0
    7.7070    0.2900   -0.1310 C   0  0  0  0  0  0  0  0  0  0  0  0
    9.0040    0.6740   -0.6660 N   0  0  0  0  0  0  0  0  0  0  0  0
    9.8520    1.5190    0.1270 C   0  0  0  0  0  0  0  0  0  0  0  0
    9.4210    0.2370   -1.9310 C   0  0  0  0  0  0  0  0  0  0  0  0
    8.6140   -0.6370   -2.8380 C   0  0  0  0  0  0  0  0  0  0  0  0
   10.5420    0.5760   -2.3740 O   0  0  0  0  0  0  0  0  0  0  0  0
    5.0630   -1.0600    1.4980 C   0  0  0  0  0  0  0  0  0  0  0  0
    4.2860   -1.7230    2.4320 C   0  0  0  0  0  0  0  0  0  0  0  0
    2.9340   -1.6170    2.3930 C   0  0  0  0  0  0  0  0  0  0  0  0
    2.0600   -2.3200    3.3930 C   0  0  0  0  0  0  0  0  0  0  0  0
   -1.2130   -0.1820    0.3010 C   0  0  2  0  0  0  0  0  0  0  0  0
   -1.4160   -1.2930   -0.6520 C   0  0  0  0  0  0  0  0  0  0  0  0
   -2.7760   -1.7130   -0.8280 N   0  0  0  0  0  0  0  0  0  0  0  0
   -2.8270   -3.2210   -0.8590 C   0  0  2  0  0  0  0  0  0  0  0  0
   -4.1410   -3.5090   -1.5180 C   0  0  0  0  0  0  0  0  0  0  0  0
   -4.4430   -4.8210   -1.7470 O   0  0  0  0  0  0  0  0  0  0  0  0
   -2.8190   -3.6650    0.5670 C   0  0  0  0  0  0  0  0  0  0  0  0
   -2.8430   -5.1100    0.8600 C   0  0  0  0  0  0  0  0  0  0  0  0
   -3.9680   -5.7840    0.4360 O   0  0  0  0  0  0  0  0  0  0  0  0
   -1.8230    1.1540   -0.0230 C   0  0  1  0  0  0  0  0  0  0  0  0
   -2.9980    1.2050   -0.8900 C   0  0  0  0  0  0  0  0  0  0  0  0
   -3.2600    2.6900   -1.2120 C   0  0  0  0  0  0  0  0  0  0  0  0
   -4.4620    2.8390   -2.0960 C   0  0  1  0  0  0  0  0  0  0  0  0
   -5.7330    2.3100   -1.5080 C   0  0  0  0  0  0  0  0  0  0  0  0
   -4.5920    4.3320   -2.4090 C   0  0  0  0  0  0  0  0  0  0  0  0
   -4.2170    2.1540   -3.4370 C   0  0  0  0  0  0  0  0  0  0  0  0
  1  2  1  0
  2  3  1  0
  3  4  2  0
  3  5  1  0
  5  6  1  0
  5 35  1  0
  6  7  1  0
  7  8  1  0
  8  9  1  1
  8 26  1  0
  9 10  1  0
 10 11  2  0
 10 24  1  0
 11 12  1  0
 12 13  1  0
 12 22  2  0
 13 14  2  0
 13 15  1  0
 15 16  2  3
 16 17  1  0
 17 18  1  0
 17 19  1  0
 19 20  1  0
 19 21  2  0
 22 23  1  0
 23 24  2  0
 24 25  1  0
 26 27  1  6
 26 35  1  0
 27 28  1  0
 28 29  1  0
 29 30  1  1
 29 32  1  0
 30 31  1  0
 32 33  1  0
 33 34  1  0
 35 36  1  1
 36 37  1  0
 37 38  1  0
 38 39  1  1
 38 40  1  0
 38 41  1  0
M  CHG  1  28   1
M  END
