
     RDKit          3D

 41 44  0  0  0  0  0  0  0  0999 V2000
   -0.8760    8.6140    0.6380 C   0  0  0  0  0  0  0  0  0  0  0  0
   -0.1960    7.8370   -0.4230 C   0  0  0  0  0  0  0  0  0  0  0  0
    0.2220    8.3670   -1.4840 O   0  0  0  0  0  0  0  0  0  0  0  0
   -0.0010    6.4020   -0.2360 C   0  0  0  0  0  0  0  0  0  0  0  0
   -0.4380    5.7790    0.9060 C   0  0  0  0  0  0  0  0  0  0  0  0
   -0.2480    4.4080    1.0740 C   0  0  0  0  0  0  0  0  0  0  0  0
    0.3700    3.6320    0.1310 C   0  0  0  0  0  0  0  0  0  0  0  0
    0.5450    2.2890    0.3170 O   0  0  0  0  0  0  0  0  0  0  0  0
    0.1870    1.4860    1.3750 C   0  0  2  0  0  0  0  0  0  0  0  0
    1.3790    0.8210    2.0210 C   0  0  0  0  0  0  0  0  0  0  0  0
    2.0900   -0.0220    1.0460 N   0  0  0  0  0  0  0  0  0  0  0  0
    3.2320   -0.7450    1.4050 C   0  0  0  0  0  0  0  0  0  0  0  0
    3.6130   -0.6100    2.6210 O   0  0  0  0  0  0  0  0  0  0  0  0
    4.0430   -1.6240    0.5760 C   0  0  0  0  0  0  0  0  0  0  0  0
    5.4050   -1.7840    0.9320 C   0  0  0  0  0  0  0  0  0  0  0  0
    6.2900   -2.5280    0.2320 C   0  0  0  0  0  0  0  0  0  0  0  0
    7.7250   -2.6890    0.6170 C   0  0  0  0  0  0  0  0  0  0  0  0
    5.8300   -3.1720   -0.9020 C   0  0  0  0  0  0  0  0  0  0  0  0
    4.5150   -3.0410   -1.2790 C   0  0  0  0  0  0  0  0  0  0  0  0
    4.0080   -3.7240   -2.4890 C   0  0  0  0  0  0  0  0  0  0  0  0
    3.6200   -2.2680   -0.5400 C   0  0  0  0  0  0  0  0  0  0  0  0
    2.1840   -2.2040   -0.9790 C   0  0  0  0  0  0  0  0  0  0  0  0
   -0.8590    0.4750    1.0030 C   0  0  0  0  0  0  0  0  0  0  0  0
   -1.2460    0.5010   -0.1740 O   0  0  0  0  0  0  0  0  0  0  0  0
   -1.3330   -0.4220    1.9740 N   0  0  0  0  0  0  0  0  0  0  0  0
   -2.3010   -1.4240    1.7760 C   0  0  0  0  0  0  0  0  0  0  0  0
   -2.0610   -2.5330    0.8410 C   0  0  1  0  0  0  0  0  0  0  0  0
   -0.8540   -3.3690    1.1410 C   0  0  0  0  0  0  0  0  0  0  0  0
   -3.4780   -3.7460    1.0060 S   0  0  0  0  0  0  0  0  0  0  0  0
   -4.8690   -2.9260    0.2210 C   0  0  0  0  0  0  0  0  0  0  0  0
   -6.1240   -3.3140    0.5960 C   0  0  0  0  0  0  0  0  0  0  0  0
   -7.2430   -2.7200    0.0330 C   0  0  0  0  0  0  0  0  0  0  0  0
   -7.0470   -1.7330   -0.9100 C   0  0  0  0  0  0  0  0  0  0  0  0
   -5.7720   -1.3560   -1.2740 C   0  0  0  0  0  0  0  0  0  0  0  0
   -5.5880   -0.2960   -2.2840 C   0  0  0  0  0  0  0  0  0  0  0  0
   -4.6390   -1.9520   -0.7090 C   0  0  0  0  0  0  0  0  0  0  0  0
   -3.3380   -1.5640   -1.0900 N   0  0  0  0  0  0  0  0  0  0  0  0
   -2.1340   -2.1240   -0.5670 C   0  0  0  0  0  0  0  0  0  0  0  0
   -1.1320   -2.2630   -1.3400 O   0  0  0  0  0  0  0  0  0  0  0  0
    0.8090    4.2840   -1.0270 C   0  0  0  0  0  0  0  0  0  0  0  0
    0.6250    5.6350   -1.1990 C   0  0  0  0  0  0  0  0  0  0  0  0
  1  2  1  0
  2  3  2  0
  2  4  1  0
  4  5  2  0
  4 41  1  0
  5  6  1  0
  6  7  2  0
  7  8  1  0
  7 40  1  0
  8  9  1  0
  9 10  1  6
  9 23  1  0
 10 11  1  0
 11 12  1  0
 12 13  2  0
 12 14  1  0
 14 15  2  0
 14 21  1  0
 15 16  1  0
 16 17  1  0
 16 18  2  0
 18 19  1  0
 19 20  1  0
 19 21  2  0
 21 22  1  0
 23 24  2  0
 23 25  1  0
 25 26  1  0
 26 27  1  0
 27 28  1  1
 27 29  1  0
 27 38  1  0
 29 30  1  0
 30 31  2  0
 30 36  1  0
 31 32  1  0
 32 33  2  0
 33 34  1  0
 34 35  1  0
 34 36  2  0
 36 37  1  0
 37 38  1  0
 38 39  2  0
 40 41  2  0
M  END
