
     RDKit          3D

 38 41  0  0  0  0  0  0  0  0999 V2000
    6.6260    4.2420   -1.1290 C   0  0  0  0  0  0  0  0  0  0  0  0
    5.5430    3.2510   -0.9420 C   0  0  0  0  0  0  0  0  0  0  0  0
    5.5970    2.3450    0.0190 C   0  0  0  0  0  0  0  0  0  0  0  0
    4.6180    1.3190    0.3230 C   0  0  0  0  0  0  0  0  0  0  0  0
    3.4120    0.9430   -0.4160 C   0  0  0  0  0  0  0  0  0  0  0  0
    3.1580    1.5650   -1.4940 O   0  0  0  0  0  0  0  0  0  0  0  0
    2.5280   -0.0710    0.0150 N   0  0  0  0  0  0  0  0  0  0  0  0
    1.3430   -0.4560   -0.7500 C   0  0  1  0  0  0  0  0  0  0  0  0
    1.2600   -1.9110   -0.6230 C   0  0  0  0  0  0  0  0  0  0  0  0
    1.4940   -2.7380   -1.6930 C   0  0  0  0  0  0  0  0  0  0  0  0
    1.4100   -4.1320   -1.5490 C   0  0  0  0  0  0  0  0  0  0  0  0
    1.0910   -4.6720   -0.3270 C   0  0  0  0  0  0  0  0  0  0  0  0
    0.9940   -6.1340   -0.1000 C   0  0  2  0  0  0  0  0  0  0  0  0
    1.8550   -6.5050    0.9250 F   0  0  0  0  0  0  0  0  0  0  0  0
    1.3960   -6.8110   -1.2240 F   0  0  0  0  0  0  0  0  0  0  0  0
   -0.2900   -6.5250    0.2320 F   0  0  0  0  0  0  0  0  0  0  0  0
    0.8590   -3.8240    0.7330 C   0  0  0  0  0  0  0  0  0  0  0  0
    0.9400   -2.4550    0.5950 C   0  0  0  0  0  0  0  0  0  0  0  0
    0.1500    0.2160   -0.1480 C   0  0  0  0  0  0  0  0  0  0  0  0
   -1.1260   -0.2830   -0.2420 C   0  0  0  0  0  0  0  0  0  0  0  0
   -2.2400    0.3580    0.3420 C   0  0  0  0  0  0  0  0  0  0  0  0
   -3.4440   -0.1720    0.2090 O   0  0  0  0  0  0  0  0  0  0  0  0
   -4.7290    0.1190    0.1860 C   0  0  0  0  0  0  0  0  0  0  0  0
   -5.6400   -0.9380    0.0270 C   0  0  0  0  0  0  0  0  0  0  0  0
   -6.9970   -0.7370   -0.0180 C   0  0  0  0  0  0  0  0  0  0  0  0
   -7.5370    0.5440    0.0960 C   0  0  0  0  0  0  0  0  0  0  0  0
   -8.9790    0.7180    0.0160 C   0  0  0  0  0  0  0  0  0  0  0  0
   -9.6750    1.3740    1.0430 N   0  0  0  0  0  0  0  0  0  0  0  0
   -9.5890    0.2720   -0.9810 O   0  0  0  0  0  0  0  0  0  0  0  0
   -6.6600    1.5790    0.2530 C   0  0  0  0  0  0  0  0  0  0  0  0
   -5.2770    1.3670    0.2960 C   0  0  0  0  0  0  0  0  0  0  0  0
   -1.9480    1.5120    1.0100 C   0  0  0  0  0  0  0  0  0  0  0  0
   -0.6430    2.0290    1.1120 C   0  0  0  0  0  0  0  0  0  0  0  0
    0.3600    1.3610    0.5270 N   0  0  0  0  0  0  0  0  0  0  0  0
    4.9740    0.6870    1.4490 C   0  0  0  0  0  0  0  0  0  0  0  0
    6.1890    1.2410    1.9470 N   0  0  0  0  0  0  0  0  0  0  0  0
    6.6990    2.2000    1.0150 C   0  0  2  0  0  0  0  0  0  0  0  0
    6.9390    3.3870    1.7060 F   0  0  0  0  0  0  0  0  0  0  0  0
  1  2  1  0
  2  3  2  3
  3  4  1  0
  3 37  1  0
  4  5  1  0
  4 35  2  0
  5  6  2  0
  5  7  1  0
  8  7  1  1
  8  9  1  0
  8 19  1  0
  9 10  2  0
  9 18  1  0
 10 11  1  0
 11 12  2  0
 12 13  1  0
 12 17  1  0
 13 14  1  1
 13 15  1  0
 13 16  1  0
 17 18  2  0
 19 20  2  0
 19 34  1  0
 20 21  1  0
 21 22  1  0
 21 32  2  0
 22 23  1  0
 23 24  2  0
 23 31  1  0
 24 25  1  0
 25 26  2  0
 26 27  1  0
 26 30  1  0
 27 28  1  0
 27 29  2  0
 30 31  2  0
 32 33  1  0
 33 34  2  0
 35 36  1  0
 36 37  1  0
 37 38  1  1
M  CHG  1  34   1
M  END
