
     RDKit          3D

 38 41  0  0  0  0  0  0  0  0999 V2000
   -5.4700    3.9350    1.4130 C   0  0  0  0  0  0  0  0  0  0  0  0
   -5.3530    2.7430    0.4600 C   0  0  2  0  0  0  0  0  0  0  0  0
   -6.6400    2.5840   -0.1550 N   0  0  0  0  0  0  0  0  0  0  0  0
   -4.9000    1.5110    1.1970 C   0  0  0  0  0  0  0  0  0  0  0  0
   -4.7770    0.3330    0.3000 C   0  0  1  0  0  0  0  0  0  0  0  0
   -3.7940    0.5940   -0.7640 N   0  0  0  0  0  0  0  0  0  0  0  0
   -3.2590   -0.4550   -1.5480 C   0  0  0  0  0  0  0  0  0  0  0  0
   -2.5340   -0.1760   -2.5230 O   0  0  0  0  0  0  0  0  0  0  0  0
   -3.5570   -1.8380   -1.2130 C   0  0  1  0  0  0  0  0  0  0  0  0
   -2.5860   -2.8520   -1.5520 C   0  0  0  0  0  0  0  0  0  0  0  0
   -3.0000   -3.9550   -2.2510 C   0  0  0  0  0  0  0  0  0  0  0  0
   -2.1110   -4.9350   -2.6490 C   0  0  0  0  0  0  0  0  0  0  0  0
   -2.5700   -6.0120   -3.3410 F   0  0  0  0  0  0  0  0  0  0  0  0
   -0.7750   -4.8140   -2.3440 C   0  0  0  0  0  0  0  0  0  0  0  0
   -0.3360   -3.6900   -1.6270 C   0  0  0  0  0  0  0  0  0  0  0  0
   -1.2270   -2.7050   -1.2270 C   0  0  0  0  0  0  0  0  0  0  0  0
   -0.9230   -1.5900   -0.4540 N   0  0  0  0  0  0  0  0  0  0  0  0
    0.4210   -1.1160   -0.2140 C   0  0  0  0  0  0  0  0  0  0  0  0
    1.2970   -1.8020   -0.7800 O   0  0  0  0  0  0  0  0  0  0  0  0
    0.6900    0.0280    0.5980 C   0  0  0  0  0  0  0  0  0  0  0  0
    1.7000    0.6810    0.9770 C   0  0  0  0  0  0  0  0  0  0  0  0
    3.1300    0.6610    0.8160 C   0  0  0  0  0  0  0  0  0  0  0  0
    3.9200    1.5220    1.6000 C   0  0  0  0  0  0  0  0  0  0  0  0
    5.2880    1.5870    1.4860 C   0  0  0  0  0  0  0  0  0  0  0  0
    5.9610    2.4710    2.2790 F   0  0  0  0  0  0  0  0  0  0  0  0
    5.9860    0.8110    0.5940 C   0  0  0  0  0  0  0  0  0  0  0  0
    7.4480    0.8570    0.5150 C   0  0  0  0  0  0  0  0  0  0  0  0
    8.2570    1.5060    1.3600 C   0  0  0  0  0  0  0  0  0  0  0  0
    9.6830    1.3150    0.9400 C   0  0  0  0  0  0  0  0  0  0  0  0
    9.5800    0.4850   -0.2580 C   0  0  0  0  0  0  0  0  0  0  0  0
    8.2790    0.2280   -0.4900 C   0  0  0  0  0  0  0  0  0  0  0  0
    7.9550   -0.5200   -1.5680 F   0  0  0  0  0  0  0  0  0  0  0  0
    5.2370   -0.0350   -0.1810 C   0  0  0  0  0  0  0  0  0  0  0  0
    5.7980   -0.8550   -1.0760 F   0  0  0  0  0  0  0  0  0  0  0  0
    3.8320   -0.1020   -0.0660 C   0  0  0  0  0  0  0  0  0  0  0  0
   -3.8860   -1.9870    0.2120 N   0  0  0  0  0  0  0  0  0  0  0  0
   -4.4040   -0.9100    0.9680 C   0  0  0  0  0  0  0  0  0  0  0  0
   -4.5340   -1.0420    2.2000 O   0  0  0  0  0  0  0  0  0  0  0  0
  2  1  1  1
  2  3  1  0
  2  4  1  0
  5  4  1  1
  5  6  1  0
  5 37  1  0
  6  7  1  0
  7  8  2  0
  7  9  1  0
  9 10  1  1
  9 36  1  0
 10 11  2  0
 10 16  1  0
 11 12  1  0
 12 13  1  0
 12 14  2  0
 14 15  1  0
 15 16  2  0
 16 17  1  0
 17 18  1  0
 18 19  2  0
 18 20  1  0
 20 21  2  3
 21 22  1  0
 22 23  2  0
 22 35  1  0
 23 24  1  0
 24 25  1  0
 24 26  2  0
 26 27  1  0
 26 33  1  0
 27 28  2  0
 27 31  1  0
 28 29  1  0
 29 30  1  0
 30 31  2  0
 31 32  1  0
 33 34  1  0
 33 35  2  0
 36 37  1  0
 37 38  2  0
M  CHG  1   3   1
M  END
