
     RDKit          3D

 37 40  0  0  0  0  0  0  0  0999 V2000
    2.6980    1.9870   -0.9710 C   0  0  0  0  0  0  0  0  0  0  0  0
    2.7450    0.9750    0.1210 C   0  0  2  0  0  0  0  0  0  0  0  0
    3.6420   -0.1240   -0.2210 N   0  0  0  0  0  0  0  0  0  0  0  0
    5.0090   -0.1810    0.1650 C   0  0  0  0  0  0  0  0  0  0  0  0
    5.4160    0.8100    0.8390 O   0  0  0  0  0  0  0  0  0  0  0  0
    5.8700   -1.3320   -0.2100 C   0  0  0  0  0  0  0  0  0  0  0  0
    7.2960   -1.0980    0.1820 C   0  0  0  0  0  0  0  0  0  0  0  0
    7.8850    0.0750   -0.5240 C   0  0  0  0  0  0  0  0  0  0  0  0
    9.3330    0.2870   -0.1190 C   0  0  2  0  0  0  0  0  0  0  0  0
    9.8760    1.3700   -0.7720 F   0  0  0  0  0  0  0  0  0  0  0  0
   10.1120   -0.8180   -0.3520 F   0  0  0  0  0  0  0  0  0  0  0  0
    9.4090    0.5560    1.2460 F   0  0  0  0  0  0  0  0  0  0  0  0
    1.5420    0.5460    0.7940 C   0  0  0  0  0  0  0  0  0  0  0  0
    1.7000    0.0020    2.1060 C   0  0  0  0  0  0  0  0  0  0  0  0
    3.0320   -0.0940    2.6020 N   0  0  0  0  0  0  0  0  0  0  0  0
    0.6440   -0.4100    2.8620 C   0  0  0  0  0  0  0  0  0  0  0  0
   -0.6230   -0.3200    2.3960 C   0  0  0  0  0  0  0  0  0  0  0  0
   -0.8300    0.1990    1.1280 C   0  0  0  0  0  0  0  0  0  0  0  0
   -2.2120    0.3560    0.6970 C   0  0  0  0  0  0  0  0  0  0  0  0
   -2.7680    1.5810    0.3980 C   0  0  0  0  0  0  0  0  0  0  0  0
   -4.0890    1.6980   -0.0050 C   0  0  0  0  0  0  0  0  0  0  0  0
   -4.9110    0.5960   -0.1260 C   0  0  0  0  0  0  0  0  0  0  0  0
   -6.2390    0.4700   -0.5010 C   0  0  0  0  0  0  0  0  0  0  0  0
   -6.4990   -0.9020   -0.4250 C   0  0  0  0  0  0  0  0  0  0  0  0
   -5.3730   -1.5160   -0.0270 N   0  0  0  0  0  0  0  0  0  0  0  0
   -4.3740   -0.6380    0.1680 C   0  0  0  0  0  0  0  0  0  0  0  0
   -3.0590   -0.7470    0.5680 C   0  0  0  0  0  0  0  0  0  0  0  0
   -7.8520   -1.4290   -0.7630 C   0  0  0  0  0  0  0  0  0  0  0  0
   -8.6050   -0.4490   -1.6270 C   0  0  0  0  0  0  0  0  0  0  0  0
   -8.6680    0.9380   -0.9860 C   0  0  0  0  0  0  0  0  0  0  0  0
   -7.2700    1.4150   -0.9080 C   0  0  0  0  0  0  0  0  0  0  0  0
   -6.9860    2.6010   -1.1840 O   0  0  0  0  0  0  0  0  0  0  0  0
    0.2620    0.6220    0.3400 C   0  0  0  0  0  0  0  0  0  0  0  0
   -0.0200    1.0040   -0.9740 N   0  0  0  0  0  0  0  0  0  0  0  0
    0.2580   -0.0620   -1.9520 C   0  0  0  0  0  0  0  0  0  0  0  0
   -0.5100   -1.3140   -1.7070 C   0  0  0  0  0  0  0  0  0  0  0  0
   -0.1930   -1.8370   -0.4770 O   0  0  0  0  0  0  0  0  0  0  0  0
  2  1  1  6
  2  3  1  0
  2 13  1  0
  3  4  1  0
  4  5  2  0
  4  6  1  0
  6  7  1  0
  7  8  1  0
  8  9  1  0
  9 10  1  6
  9 11  1  0
  9 12  1  0
 13 14  2  0
 13 33  1  0
 14 15  1  0
 14 16  1  0
 16 17  2  0
 17 18  1  0
 18 19  1  0
 18 33  2  0
 19 20  2  0
 19 27  1  0
 20 21  1  0
 21 22  2  0
 22 23  1  0
 22 26  1  0
 23 24  2  0
 23 31  1  0
 24 25  1  0
 24 28  1  0
 25 26  1  0
 26 27  2  0
 28 29  1  0
 29 30  1  0
 30 31  1  0
 31 32  2  0
 33 34  1  0
 34 35  1  0
 35 36  1  0
 36 37  1  0
M  CHG  1  34   1
M  END
