
     RDKit          3D

 38 41  0  0  0  0  0  0  0  0999 V2000
    8.0960    3.4740    0.2430 C   0  0  0  0  0  0  0  0  0  0  0  0
    8.0220    1.9730    0.0720 C   0  0  0  0  0  0  0  0  0  0  0  0
    9.1210    1.3770    0.0940 O   0  0  0  0  0  0  0  0  0  0  0  0
    6.7810    1.3130   -0.0970 N   0  0  0  0  0  0  0  0  0  0  0  0
    6.6600   -0.1020   -0.2610 C   0  0  0  0  0  0  0  0  0  0  0  0
    7.7160   -0.8890   -0.6120 C   0  0  0  0  0  0  0  0  0  0  0  0
    7.6470   -2.2790   -0.7270 C   0  0  0  0  0  0  0  0  0  0  0  0
    6.4510   -2.8780   -0.4770 C   0  0  0  0  0  0  0  0  0  0  0  0
    6.3060   -4.2450   -0.5720 F   0  0  0  0  0  0  0  0  0  0  0  0
    5.3520   -2.0850   -0.1170 C   0  0  0  0  0  0  0  0  0  0  0  0
    5.4230   -0.7200   -0.0040 C   0  0  0  0  0  0  0  0  0  0  0  0
    4.2910    0.1620    0.2670 C   0  0  2  0  0  0  0  0  0  0  0  0
    4.2070    0.4470    1.8090 C   0  0  0  0  0  0  0  0  0  0  0  0
    4.1680   -0.7060    2.4980 O   0  0  0  0  0  0  0  0  0  0  0  0
    3.0280   -0.6090    0.1490 N   0  0  0  0  0  0  0  0  0  0  0  0
    1.7570   -0.0380   -0.1360 C   0  0  0  0  0  0  0  0  0  0  0  0
    1.6800    1.1850   -0.3370 O   0  0  0  0  0  0  0  0  0  0  0  0
    0.5970   -0.8580   -0.1710 N   0  0  0  0  0  0  0  0  0  0  0  0
   -0.7240   -0.4260   -0.3720 C   0  0  0  0  0  0  0  0  0  0  0  0
   -1.1300    0.7300   -0.9500 C   0  0  0  0  0  0  0  0  0  0  0  0
   -2.4860    1.1240   -1.0640 C   0  0  0  0  0  0  0  0  0  0  0  0
   -2.7950    2.3380   -1.8080 C   0  0  0  0  0  0  0  0  0  0  0  0
   -3.4110    0.2620   -0.5390 C   0  0  0  0  0  0  0  0  0  0  0  0
   -3.0120   -0.9320    0.0600 C   0  0  0  0  0  0  0  0  0  0  0  0
   -1.7030   -1.2630    0.1360 C   0  0  0  0  0  0  0  0  0  0  0  0
   -4.0300   -1.8070    0.6980 C   0  0  0  0  0  0  0  0  0  0  0  0
   -5.3230   -1.7710    0.0980 N   0  0  0  0  0  0  0  0  0  0  0  0
   -5.7450   -0.4450   -0.2190 C   0  0  0  0  0  0  0  0  0  0  0  0
   -4.8420    0.5270   -0.6720 C   0  0  0  0  0  0  0  0  0  0  0  0
   -5.2820    1.7460   -1.0800 C   0  0  0  0  0  0  0  0  0  0  0  0
   -6.6560    2.0200   -1.0450 C   0  0  0  0  0  0  0  0  0  0  0  0
   -7.5420    1.0880   -0.6050 C   0  0  0  0  0  0  0  0  0  0  0  0
   -8.8710    1.3810   -0.5970 F   0  0  0  0  0  0  0  0  0  0  0  0
   -7.0860   -0.1630   -0.1840 C   0  0  0  0  0  0  0  0  0  0  0  0
   -8.1130   -1.0890    0.3450 C   0  0  0  0  0  0  0  0  0  0  0  0
   -8.2240   -1.1020    1.8460 C   0  0  2  0  0  0  0  0  0  0  0  0
   -9.2450   -2.0350    2.1210 F   0  0  0  0  0  0  0  0  0  0  0  0
   -8.6760    0.1080    2.3430 F   0  0  0  0  0  0  0  0  0  0  0  0
  1  2  1  0
  2  3  2  0
  2  4  1  0
  4  5  1  0
  5  6  2  0
  5 11  1  0
  6  7  1  0
  7  8  2  0
  8  9  1  0
  8 10  1  0
 10 11  2  0
 11 12  1  0
 12 13  1  1
 12 15  1  0
 13 14  1  0
 15 16  1  0
 16 17  2  0
 16 18  1  0
 18 19  1  0
 19 20  2  0
 19 25  1  0
 20 21  1  0
 21 22  1  0
 21 23  2  0
 23 24  1  0
 23 29  1  0
 24 25  2  0
 24 26  1  0
 26 27  1  0
 27 28  1  0
 28 29  2  0
 28 34  1  0
 29 30  1  0
 30 31  2  0
 31 32  1  0
 32 33  1  0
 32 34  2  0
 34 35  1  0
 35 36  1  0
 36 37  1  6
 36 38  1  0
M  CHG  1  27   1
M  END
