
     RDKit          3D

 34 36  0  0  0  0  0  0  0  0999 V2000
   -5.9160    1.4490   -0.9200 C   0  0  0  0  0  0  0  0  0  0  0  0
   -5.5030    1.7600    0.4800 C   0  0  0  0  0  0  0  0  0  0  0  0
   -4.0290    1.7420    0.6970 C   0  0  0  0  0  0  0  0  0  0  0  0
   -3.3630    0.4620    0.4250 C   0  0  0  0  0  0  0  0  0  0  0  0
   -1.9940    0.4380    0.2810 C   0  0  0  0  0  0  0  0  0  0  0  0
   -1.3060    1.6350    0.3970 O   0  0  0  0  0  0  0  0  0  0  0  0
    0.1070    1.7170    0.2650 C   0  0  0  0  0  0  0  0  0  0  0  0
    0.4700    3.1560    0.4450 C   0  0  0  0  0  0  0  0  0  0  0  0
    1.9220    3.4870    0.3740 C   0  0  0  0  0  0  0  0  0  0  0  0
    2.7290    2.8340    1.3640 N   0  0  0  0  0  0  0  0  0  0  0  0
    2.9160    3.4340    2.6710 C   0  0  0  0  0  0  0  0  0  0  0  0
    3.3620    1.5970    1.1000 C   0  0  0  0  0  0  0  0  0  0  0  0
    4.0190    1.0630    2.0330 O   0  0  0  0  0  0  0  0  0  0  0  0
    3.3130    0.9120   -0.1420 N   0  0  0  0  0  0  0  0  0  0  0  0
    3.9140   -0.3150   -0.4690 C   0  0  0  0  0  0  0  0  0  0  0  0
    4.7800   -1.0360    0.2940 C   0  0  0  0  0  0  0  0  0  0  0  0
    5.3040   -2.2650   -0.1490 C   0  0  0  0  0  0  0  0  0  0  0  0
    4.9530   -2.7650   -1.3670 C   0  0  0  0  0  0  0  0  0  0  0  0
    5.5050   -4.0350   -1.8050 C   0  0  0  0  0  0  0  0  0  0  0  0
    5.1830   -4.4980   -2.9260 O   0  0  0  0  0  0  0  0  0  0  0  0
    6.3850   -4.7590   -1.0170 O   0  0  0  0  0  0  0  0  0  0  0  0
    4.0840   -2.0550   -2.1500 C   0  0  0  0  0  0  0  0  0  0  0  0
    3.5820   -0.8630   -1.7060 C   0  0  0  0  0  0  0  0  0  0  0  0
   -1.3690   -0.7700    0.0300 C   0  0  0  0  0  0  0  0  0  0  0  0
   -2.0820   -1.9500   -0.0810 C   0  0  0  0  0  0  0  0  0  0  0  0
   -3.4640   -1.9440    0.0610 C   0  0  0  0  0  0  0  0  0  0  0  0
   -4.4380   -2.9170    0.0100 C   0  0  0  0  0  0  0  0  0  0  0  0
   -4.1940   -4.3570   -0.2380 C   0  0  1  0  0  0  0  0  0  0  0  0
   -3.5850   -4.5450   -1.4840 F   0  0  0  0  0  0  0  0  0  0  0  0
   -3.4020   -4.8610    0.7680 F   0  0  0  0  0  0  0  0  0  0  0  0
   -5.3600   -5.0700   -0.2660 F   0  0  0  0  0  0  0  0  0  0  0  0
   -5.5940   -2.2690    0.2290 N   0  0  0  0  0  0  0  0  0  0  0  0
   -5.3640   -0.9950    0.4040 O   0  0  0  0  0  0  0  0  0  0  0  0
   -4.0880   -0.7200    0.3150 C   0  0  0  0  0  0  0  0  0  0  0  0
  1  2  1  0
  2  3  1  0
  3  4  1  0
  4  5  2  0
  4 34  1  0
  5  6  1  0
  5 24  1  0
  6  7  1  0
  7  8  1  0
  8  9  1  0
  9 10  1  0
 10 11  1  0
 10 12  1  0
 12 13  2  0
 12 14  1  0
 14 15  1  0
 15 16  2  0
 15 23  1  0
 16 17  1  0
 17 18  2  0
 18 19  1  0
 18 22  1  0
 19 20  2  0
 19 21  1  0
 22 23  2  0
 24 25  2  0
 25 26  1  0
 26 27  1  0
 26 34  2  0
 27 28  1  0
 27 32  2  0
 28 29  1  6
 28 30  1  0
 28 31  1  0
 32 33  1  0
 33 34  1  0
M  END
