
     RDKit          3D

 13 13  0  0  0  0  0  0  0  0999 V2000
   -2.4170   -0.3900    1.2290 N   0  0  0  0  0  0  0  0  0  0  0  0
   -1.6920    0.2170    0.1740 C   0  0  0  0  0  0  0  0  0  0  0  0
   -2.2770    0.3940   -0.9530 N   0  0  0  0  0  0  0  0  0  0  0  0
   -3.5750    0.0110   -1.1550 O   0  0  0  0  0  0  0  0  0  0  0  0
   -0.2860    0.6160    0.4350 C   0  0  1  0  0  0  0  0  0  0  0  0
    0.4280   -0.4800    0.7760 O   0  0  0  0  0  0  0  0  0  0  0  0
    1.7300   -0.5410    0.3970 C   0  0  1  0  0  0  0  0  0  0  0  0
    1.9030   -1.5460   -0.6830 C   0  0  0  0  0  0  0  0  0  0  0  0
    0.9460   -2.1610   -1.0860 O   0  0  0  0  0  0  0  0  0  0  0  0
    2.3700    0.7740    0.0710 C   0  0  0  0  0  0  0  0  0  0  0  0
    1.5900    1.5790   -0.7870 O   0  0  0  0  0  0  0  0  0  0  0  0
    0.2040    1.3650   -0.7300 C   0  0  0  0  0  0  0  0  0  0  0  0
   -0.5240    1.8030   -1.6370 O   0  0  0  0  0  0  0  0  0  0  0  0
  1  2  1  0
  2  3  2  3
  5  2  1  6
  3  4  1  0
  5  6  1  0
  5 12  1  0
  6  7  1  0
  7  8  1  6
  7 10  1  0
  8  9  2  0
 10 11  1  0
 11 12  1  0
 12 13  2  0
M  END
