
     RDKit          3D

 13 13  0  0  0  0  0  0  0  0999 V2000
   -2.0420   -0.4910    1.4670 C   0  0  0  0  0  0  0  0  0  0  0  0
   -1.0980   -0.2220    0.3170 C   0  0  1  0  0  0  0  0  0  0  0  0
   -1.6310   -0.6890   -0.9710 C   0  0  0  0  0  0  0  0  0  0  0  0
   -1.7090    0.0980   -1.9470 O   0  0  0  0  0  0  0  0  0  0  0  0
   -2.0590   -1.9910   -1.1520 O   0  0  0  0  0  0  0  0  0  0  0  0
   -0.7110    1.1800    0.2740 N   0  0  0  0  0  0  0  0  0  0  0  0
    0.6650    1.1880   -0.0570 C   0  0  0  0  0  0  0  0  0  0  0  0
    1.4400    2.3190   -0.5250 N   0  0  0  0  0  0  0  0  0  0  0  0
    1.1300   -0.0290    0.1350 C   0  0  0  0  0  0  0  0  0  0  0  0
    2.5320   -0.4280   -0.1010 C   0  0  0  0  0  0  0  0  0  0  0  0
    3.3620    0.4050   -0.5080 O   0  0  0  0  0  0  0  0  0  0  0  0
    2.8780   -1.7360    0.1430 O   0  0  0  0  0  0  0  0  0  0  0  0
    0.1310   -0.8660    0.5840 O   0  0  0  0  0  0  0  0  0  0  0  0
  2  1  1  1
  2  3  1  0
  2  6  1  0
  2 13  1  0
  3  4  2  0
  3  5  1  0
  6  7  1  0
  7  8  1  0
  7  9  2  0
  9 10  1  0
  9 13  1  0
 10 11  2  0
 10 12  1  0
M  END
