
     RDKit          3D

 24 26  0  0  0  0  0  0  0  0999 V2000
   -4.8990    1.7700   -0.7140 C   0  0  0  0  0  0  0  0  0  0  0  0
   -3.8270    1.2500   -0.1720 C   0  0  0  0  0  0  0  0  0  0  0  0
   -2.4520    1.6510   -0.5800 C   0  0  0  0  0  0  0  0  0  0  0  0
   -1.5310    0.9970    0.4540 C   0  0  0  0  0  0  0  0  0  0  0  0
   -1.6800   -0.4130    0.4950 N   0  0  0  0  0  0  0  0  0  0  0  0
   -0.8850   -1.1400   -0.4240 C   0  0  2  0  0  0  0  0  0  0  0  0
   -1.0070   -2.6230   -0.3340 C   0  0  0  0  0  0  0  0  0  0  0  0
   -0.1820   -3.3210   -1.2870 N   0  0  0  0  0  0  0  0  0  0  0  0
    0.5370   -0.7220   -0.3160 C   0  0  0  0  0  0  0  0  0  0  0  0
    1.2410   -0.5380    0.8650 C   0  0  0  0  0  0  0  0  0  0  0  0
    2.4980   -0.1600    0.5450 N   0  0  0  0  0  0  0  0  0  0  0  0
    2.6340   -0.0940   -0.7690 N   0  0  0  0  0  0  0  0  0  0  0  0
    3.8630    0.2830   -1.4780 C   0  0  1  0  0  0  0  0  0  0  0  0
    3.9520    1.7900   -1.5350 C   0  0  0  0  0  0  0  0  0  0  0  0
    4.3990    2.1230   -0.1200 C   0  0  0  0  0  0  0  0  0  0  0  0
    5.5100    1.1170    0.0880 C   0  0  1  0  0  0  0  0  0  0  0  0
    5.7190    0.8630    1.4600 O   0  0  0  0  0  0  0  0  0  0  0  0
    5.0280   -0.1100   -0.6200 C   0  0  0  0  0  0  0  0  0  0  0  0
    1.4460   -0.4340   -1.3140 C   0  0  0  0  0  0  0  0  0  0  0  0
   -2.9700   -0.9040    0.7950 C   0  0  0  0  0  0  0  0  0  0  0  0
   -3.9380    0.2550    0.8790 C   0  0  0  0  0  0  0  0  0  0  0  0
   -4.8030    0.3370    1.8610 C   0  0  0  0  0  0  0  0  0  0  0  0
   -4.8350   -0.7350    2.8800 C   0  0  0  0  0  0  0  0  0  0  0  0
   -5.8840    1.6820    2.0000 Cl  0  0  0  0  0  0  0  0  0  0  0  0
  1  2  2  0
  2  3  1  0
  2 21  1  0
  3  4  1  0
  4  5  1  0
  5  6  1  0
  5 20  1  0
  6  7  1  1
  6  9  1  0
  7  8  1  0
  9 10  1  0
  9 19  2  0
 10 11  2  0
 11 12  1  0
 13 12  1  1
 12 19  1  0
 13 14  1  0
 13 18  1  0
 14 15  1  0
 15 16  1  0
 16 17  1  1
 16 18  1  0
 20 21  1  0
 21 22  2  3
 22 23  1  0
 22 24  1  0
M  CHG  1   8   1
M  END
