
     RDKit          3D

 23 26  0  0  0  0  0  0  0  0999 V2000
   -3.3930    0.2620    3.0190 C   0  0  0  0  0  0  0  0  0  0  0  0
   -2.4200   -0.6870    2.9570 C   0  0  0  0  0  0  0  0  0  0  0  0
   -1.6750   -0.7770    1.7860 C   0  0  0  0  0  0  0  0  0  0  0  0
   -1.8860    0.0460    0.7090 C   0  0  0  0  0  0  0  0  0  0  0  0
   -2.8840    1.0040    0.7990 C   0  0  0  0  0  0  0  0  0  0  0  0
   -3.6240    1.1010    1.9500 C   0  0  0  0  0  0  0  0  0  0  0  0
   -3.3190    2.0200   -0.2320 C   0  0  0  0  0  0  0  0  0  0  0  0
   -3.6940    1.2010   -1.4540 C   0  0  0  0  0  0  0  0  0  0  0  0
   -2.5270    0.6350   -2.1850 C   0  0  0  0  0  0  0  0  0  0  0  0
   -1.9190   -0.5220   -1.5530 N   0  0  0  0  0  0  0  0  0  0  0  0
   -1.0390   -0.1440   -0.4680 C   0  0  2  0  0  0  0  0  0  0  0  0
    0.1770   -0.9610   -0.3590 C   0  0  1  0  0  0  0  0  0  0  0  0
    1.2540   -0.3520    0.4890 C   0  0  0  0  0  0  0  0  0  0  0  0
    2.4540   -1.1410    0.3570 N   0  0  0  0  0  0  0  0  0  0  0  0
    3.4290   -0.6140   -0.5390 C   0  0  0  0  0  0  0  0  0  0  0  0
    3.9210    0.7100   -0.1470 C   0  0  0  0  0  0  0  0  0  0  0  0
    3.6730    1.4880    0.9610 C   0  0  0  0  0  0  0  0  0  0  0  0
    4.3820    2.6470    0.8440 N   0  0  0  0  0  0  0  0  0  0  0  0
    5.0450    2.6010   -0.2830 N   0  0  0  0  0  0  0  0  0  0  0  0
    4.8080    1.4510   -0.9330 C   0  0  0  0  0  0  0  0  0  0  0  0
    2.2530   -2.5500    0.3170 C   0  0  0  0  0  0  0  0  0  0  0  0
    1.1400   -2.9690   -0.5860 C   0  0  0  0  0  0  0  0  0  0  0  0
   -0.0130   -2.3230   -0.1490 O   0  0  0  0  0  0  0  0  0  0  0  0
  1  2  2  0
  1  6  1  0
  2  3  1  0
  3  4  2  0
  4  5  1  0
  4 11  1  0
  5  6  2  0
  5  7  1  0
  7  8  1  0
  8  9  1  0
  9 10  1  0
 11 10  1  6
 11 12  1  0
 12 13  1  1
 12 23  1  0
 13 14  1  0
 14 15  1  0
 14 21  1  0
 15 16  1  0
 16 17  1  0
 16 20  2  0
 17 18  2  0
 18 19  1  0
 19 20  1  0
 21 22  1  0
 22 23  1  0
M  CHG  1  10   1
M  END
