
     RDKit          3D

 13 13  0  0  0  0  0  0  0  0999 V2000
   -2.2390   -0.1400   -1.9850 N   0  0  0  0  0  0  0  0  0  0  0  0
   -1.3540   -0.4210   -1.0990 C   0  0  0  0  0  0  0  0  0  0  0  0
   -0.3820   -1.3950   -1.2430 O   0  0  0  0  0  0  0  0  0  0  0  0
    0.5450   -1.6510   -0.2490 C   0  0  0  0  0  0  0  0  0  0  0  0
    1.1310   -2.7550   -0.1990 O   0  0  0  0  0  0  0  0  0  0  0  0
    0.8270   -0.6150    0.7380 C   0  0  1  0  0  0  0  0  0  0  0  0
    1.7570    0.4190    0.3000 C   0  0  0  0  0  0  0  0  0  0  0  0
    3.0660    0.0920   -0.1110 N   0  0  0  0  0  0  0  0  0  0  0  0
    1.4040    1.6090    0.2860 O   0  0  0  0  0  0  0  0  0  0  0  0
   -0.4080    0.0160    1.0890 O   0  0  0  0  0  0  0  0  0  0  0  0
   -1.3680    0.3320    0.1450 C   0  0  0  0  0  0  0  0  0  0  0  0
   -2.2360    1.2790    0.4070 C   0  0  0  0  0  0  0  0  0  0  0  0
   -2.2140    1.9710    1.6020 O   0  0  0  0  0  0  0  0  0  0  0  0
  1  2  2  0
  2  3  1  0
  2 11  1  0
  3  4  1  0
  4  5  2  0
  4  6  1  0
  6  7  1  6
  6 10  1  0
  7  8  1  0
  7  9  2  0
 10 11  1  0
 11 12  2  3
 12 13  1  0
M  END
