
     RDKit          3D

 12 12  0  0  0  0  0  0  0  0999 V2000
   -1.3900   -0.9480   -1.5740 C   0  0  0  0  0  0  0  0  0  0  0  0
   -0.7870   -0.1930   -0.3980 C   0  0  1  0  0  0  0  0  0  0  0  0
    0.6300   -0.5880   -0.2750 C   0  0  0  0  0  0  0  0  0  0  0  0
    1.1680   -1.4250   -1.0630 N   0  0  0  0  0  0  0  0  0  0  0  0
    1.4040   -0.0020    0.7670 N   0  0  0  0  0  0  0  0  0  0  0  0
    2.8460   -0.0760    0.6690 C   0  0  2  0  0  0  0  0  0  0  0  0
    3.3860    0.5520    1.7780 O   0  0  0  0  0  0  0  0  0  0  0  0
    3.2090    0.5470   -0.5220 O   0  0  0  0  0  0  0  0  0  0  0  0
   -0.9270    1.1710   -0.5460 O   0  0  0  0  0  0  0  0  0  0  0  0
   -2.2150    1.4040   -0.1020 C   0  0  0  0  0  0  0  0  0  0  0  0
   -2.3930    0.4130    1.0300 C   0  0  0  0  0  0  0  0  0  0  0  0
   -1.4250   -0.5460    0.7790 O   0  0  0  0  0  0  0  0  0  0  0  0
  2  1  1  6
  2  3  1  0
  2  9  1  0
  2 12  1  0
  3  4  2  0
  3  5  1  0
  5  6  1  0
  6  7  1  1
  6  8  1  0
  9 10  1  0
 10 11  1  0
 11 12  1  0
M  END
