
     RDKit          3D

 10 11  0  0  0  0  0  0  0  0999 V2000
    2.5550   -0.2860    0.2300 N   0  0  0  0  0  0  0  0  0  0  0  0
    1.3080    0.3590    0.0700 C   0  0  0  0  0  0  0  0  0  0  0  0
    1.1120    1.7180   -0.0740 C   0  0  0  0  0  0  0  0  0  0  0  0
   -0.2160    1.8820   -0.1960 N   0  0  0  0  0  0  0  0  0  0  0  0
   -0.8500    0.6890   -0.1350 C   0  0  0  0  0  0  0  0  0  0  0  0
   -2.1880    0.3640   -0.2120 C   0  0  0  0  0  0  0  0  0  0  0  0
   -2.5490   -0.9310   -0.1200 N   0  0  0  0  0  0  0  0  0  0  0  0
   -1.6760   -1.9360    0.0440 C   0  0  0  0  0  0  0  0  0  0  0  0
   -0.3330   -1.6050    0.1210 C   0  0  0  0  0  0  0  0  0  0  0  0
    0.0950   -0.2970    0.0330 C   0  0  0  0  0  0  0  0  0  0  0  0
  1  2  1  0
  2  3  2  0
  2 10  1  0
  3  4  1  0
  4  5  1  0
  5  6  2  0
  5 10  1  0
  6  7  1  0
  7  8  2  0
  8  9  1  0
  9 10  2  0
M  END
