
     RDKit          3D

 10 11  0  0  0  0  0  0  0  0999 V2000
    2.7930   -0.8530   -0.0900 N   0  0  0  0  0  0  0  0  0  0  0  0
    1.7510    0.1140   -0.0430 C   0  0  0  0  0  0  0  0  0  0  0  0
    1.8430    1.4360   -0.0140 N   0  0  0  0  0  0  0  0  0  0  0  0
    0.6330    2.0390    0.0290 C   0  0  0  0  0  0  0  0  0  0  0  0
   -0.3420    1.0640    0.0290 C   0  0  0  0  0  0  0  0  0  0  0  0
   -1.6840    1.0640    0.0610 N   0  0  0  0  0  0  0  0  0  0  0  0
   -2.3960   -0.0770    0.0510 C   0  0  0  0  0  0  0  0  0  0  0  0
   -1.7240   -1.2750    0.0070 C   0  0  0  0  0  0  0  0  0  0  0  0
   -0.3500   -1.3430   -0.0270 C   0  0  0  0  0  0  0  0  0  0  0  0
    0.3860   -0.2000   -0.0180 C   0  0  0  0  0  0  0  0  0  0  0  0
  1  2  1  0
  2  3  2  0
  2 10  1  0
  3  4  1  0
  4  5  2  0
  5  6  1  0
  5 10  1  0
  6  7  1  0
  7  8  2  0
  8  9  1  0
  9 10  2  0
M  END
