
     RDKit          3D

 10 11  0  0  0  0  0  0  0  0999 V2000
    3.2700   -0.2890   -0.2280 N   0  0  0  0  0  0  0  0  0  0  0  0
    1.8460   -0.0990   -0.1190 C   0  0  0  0  0  0  0  0  0  0  0  0
    0.9040   -1.0960   -0.2250 C   0  0  0  0  0  0  0  0  0  0  0  0
   -0.3310   -0.5020   -0.0620 C   0  0  0  0  0  0  0  0  0  0  0  0
   -1.6370   -0.9830   -0.0660 C   0  0  0  0  0  0  0  0  0  0  0  0
   -2.7270   -0.1600    0.1250 C   0  0  0  0  0  0  0  0  0  0  0  0
   -2.4650    1.1800    0.3230 C   0  0  0  0  0  0  0  0  0  0  0  0
   -1.2140    1.6740    0.3320 N   0  0  0  0  0  0  0  0  0  0  0  0
   -0.1430    0.8490    0.1420 C   0  0  0  0  0  0  0  0  0  0  0  0
    1.1820    1.0380    0.0990 N   0  0  0  0  0  0  0  0  0  0  0  0
  1  2  1  0
  2  3  2  0
  2 10  1  0
  3  4  1  0
  4  5  2  0
  4  9  1  0
  5  6  1  0
  6  7  2  0
  7  8  1  0
  8  9  2  0
  9 10  1  0
M  END
