
     RDKit          3D

  9  8  0  0  0  0  0  0  0  0999 V2000
   -3.3010   -0.3270    0.7910 O   0  0  0  0  0  0  0  0  0  0  0  0
   -2.3420   -0.2070   -0.2350 C   0  0  0  0  0  0  0  0  0  0  0  0
   -1.0580    0.2460    0.4360 C   0  0  2  0  0  0  0  0  0  0  0  0
   -1.3190    1.4610    1.0470 O   0  0  0  0  0  0  0  0  0  0  0  0
   -0.0100    0.3880   -0.4450 O   0  0  0  0  0  0  0  0  0  0  0  0
    1.0470   -0.4470   -0.1630 C   0  0  1  0  0  0  0  0  0  0  0  0
    1.2340   -1.2890   -1.2790 O   0  0  0  0  0  0  0  0  0  0  0  0
    2.3420    0.2870    0.0990 C   0  0  0  0  0  0  0  0  0  0  0  0
    3.3110   -0.6920    0.3680 O   0  0  0  0  0  0  0  0  0  0  0  0
  1  2  1  0
  2  3  1  0
  3  4  1  6
  3  5  1  0
  5  6  1  0
  6  7  1  6
  6  8  1  0
  8  9  1  0
M  END
