
     RDKit          3D

 27 28  0  0  0  0  0  0  0  0999 V2000
    9.1620   -0.4070   -0.9090 C   0  0  0  0  0  0  0  0  0  0  0  0
    7.9360   -0.0840   -0.2390 O   0  0  0  0  0  0  0  0  0  0  0  0
    7.4640   -0.8400    0.8190 C   0  0  0  0  0  0  0  0  0  0  0  0
    8.2070   -1.8330    1.1370 O   0  0  0  0  0  0  0  0  0  0  0  0
    6.2310   -0.5670    1.5390 C   0  0  0  0  0  0  0  0  0  0  0  0
    5.4700    0.4480    1.2150 C   0  0  0  0  0  0  0  0  0  0  0  0
    5.8380    1.3510    0.1050 C   0  0  0  0  0  0  0  0  0  0  0  0
    4.3040    0.6670    1.9330 O   0  0  0  0  0  0  0  0  0  0  0  0
    3.1470    1.1670    1.3490 C   0  0  0  0  0  0  0  0  0  0  0  0
    2.8510    2.5220    1.2600 C   0  0  0  0  0  0  0  0  0  0  0  0
    1.6290    2.5620    0.6200 C   0  0  0  0  0  0  0  0  0  0  0  0
    1.2300    1.2700    0.3470 C   0  0  0  0  0  0  0  0  0  0  0  0
   -0.0250    0.8950   -0.3310 C   0  0  0  0  0  0  0  0  0  0  0  0
   -0.8240    1.7910   -0.7080 O   0  0  0  0  0  0  0  0  0  0  0  0
   -0.3800   -0.4040   -0.5820 O   0  0  0  0  0  0  0  0  0  0  0  0
   -1.5180   -0.8890   -1.1940 C   0  0  0  0  0  0  0  0  0  0  0  0
   -2.8030   -0.6170   -0.5430 C   0  0  0  0  0  0  0  0  0  0  0  0
   -2.9390    0.0410    0.6560 C   0  0  0  0  0  0  0  0  0  0  0  0
   -4.2020    0.2380    1.2090 C   0  0  0  0  0  0  0  0  0  0  0  0
   -4.3960    0.9400    2.4950 C   0  0  0  0  0  0  0  0  0  0  0  0
   -5.3060   -0.2370    0.5350 C   0  0  0  0  0  0  0  0  0  0  0  0
   -5.2100   -0.8960   -0.6560 C   0  0  0  0  0  0  0  0  0  0  0  0
   -6.4250   -1.3920   -1.3490 C   0  0  0  0  0  0  0  0  0  0  0  0
   -7.5780   -1.0500   -0.5540 N   0  0  0  0  0  0  0  0  0  0  0  0
   -3.9430   -1.0720   -1.1740 C   0  0  0  0  0  0  0  0  0  0  0  0
   -3.8420   -1.7930   -2.4780 C   0  0  0  0  0  0  0  0  0  0  0  0
    2.1550    0.4890    0.7950 O   0  0  0  0  0  0  0  0  0  0  0  0
  1  2  1  0
  2  3  1  0
  3  4  2  0
  3  5  1  0
  5  6  2  3
  6  7  1  0
  6  8  1  0
  8  9  1  0
  9 10  2  0
  9 27  1  0
 10 11  1  0
 11 12  2  0
 12 13  1  0
 12 27  1  0
 13 14  2  0
 13 15  1  0
 15 16  1  0
 16 17  1  0
 17 18  2  0
 17 25  1  0
 18 19  1  0
 19 20  1  0
 19 21  2  0
 21 22  1  0
 22 23  1  0
 22 25  2  0
 23 24  1  0
 25 26  1  0
M  CHG  1  24   1
M  END
