
     RDKit          3D

 10  9  0  0  0  0  0  0  0  0999 V2000
   -2.5770    1.2550   -0.4030 O   0  0  0  0  0  0  0  0  0  0  0  0
   -1.7700    0.6160    0.3160 C   0  0  0  0  0  0  0  0  0  0  0  0
   -2.3070   -0.2470    1.2610 O   0  0  0  0  0  0  0  0  0  0  0  0
   -0.2990    0.7730    0.1630 C   0  0  2  0  0  0  0  0  0  0  0  0
    0.0420    1.6660   -0.8190 O   0  0  0  0  0  0  0  0  0  0  0  0
    0.2940   -0.5850   -0.1380 C   0  0  1  0  0  0  0  0  0  0  0  0
   -0.1810   -1.0550   -1.3520 O   0  0  0  0  0  0  0  0  0  0  0  0
    1.7890   -0.5300   -0.1230 C   0  0  0  0  0  0  0  0  0  0  0  0
    2.4690   -0.8830   -1.1280 O   0  0  0  0  0  0  0  0  0  0  0  0
    2.4960   -0.0930    0.9810 O   0  0  0  0  0  0  0  0  0  0  0  0
  1  2  2  0
  2  3  1  0
  2  4  1  0
  4  5  1  6
  4  6  1  0
  6  7  1  6
  6  8  1  0
  8  9  2  0
  8 10  1  0
M  END
