
     RDKit          3D

  9  8  0  0  0  0  0  0  0  0999 V2000
   -3.0300    1.0390   -0.8180 O   0  0  0  0  0  0  0  0  0  0  0  0
   -2.7460   -0.2740   -1.1960 C   0  0  0  0  0  0  0  0  0  0  0  0
   -1.3540   -0.4990   -1.0930 O   0  0  0  0  0  0  0  0  0  0  0  0
   -1.0380   -0.2720    0.2490 C   0  0  0  0  0  0  0  0  0  0  0  0
    0.4290   -0.4730    0.5280 C   0  0  0  0  0  0  0  0  0  0  0  0
    1.2340    0.3800   -0.2150 O   0  0  0  0  0  0  0  0  0  0  0  0
    2.5590    0.1020    0.1280 C   0  0  1  0  0  0  0  0  0  0  0  0
    3.3400   -0.1820   -0.9960 O   0  0  0  0  0  0  0  0  0  0  0  0
    3.0340    1.2570    0.7780 O   0  0  0  0  0  0  0  0  0  0  0  0
  1  2  1  0
  2  3  1  0
  3  4  1  0
  4  5  1  0
  5  6  1  0
  6  7  1  0
  7  8  1  6
  7  9  1  0
M  END
