
     RDKit          3D

  9  8  0  0  0  0  0  0  0  0999 V2000
   -2.9310   -0.2760   -1.0120 O   0  0  0  0  0  0  0  0  0  0  0  0
   -2.3560    0.9900   -0.8360 C   0  0  0  0  0  0  0  0  0  0  0  0
   -0.9760    0.8740   -0.5420 O   0  0  0  0  0  0  0  0  0  0  0  0
   -0.8810    0.1450    0.6090 C   0  0  0  0  0  0  0  0  0  0  0  0
    0.3940   -0.0810    1.0640 O   0  0  0  0  0  0  0  0  0  0  0  0
    1.2170   -0.7590    0.2120 C   0  0  2  0  0  0  0  0  0  0  0  0
    1.7000   -1.8900    0.9120 O   0  0  0  0  0  0  0  0  0  0  0  0
    2.4590    0.1210   -0.0010 C   0  0  0  0  0  0  0  0  0  0  0  0
    2.0570    1.3290   -0.5490 O   0  0  0  0  0  0  0  0  0  0  0  0
  1  2  1  0
  2  3  1  0
  3  4  1  0
  4  5  1  0
  5  6  1  0
  6  7  1  1
  6  8  1  0
  8  9  1  0
M  END
