
     RDKit          3D

  9  8  0  0  0  0  0  0  0  0999 V2000
   -0.8540   -1.1530    1.4150 C   0  0  0  0  0  0  0  0  0  0  0  0
   -0.3820   -0.5600    0.1110 C   0  0  2  0  0  0  0  0  0  0  0  0
    0.3390    0.6020    0.3370 O   0  0  0  0  0  0  0  0  0  0  0  0
    1.6660    0.5080   -0.0700 C   0  0  2  0  0  0  0  0  0  0  0  0
    2.5300    0.6730    1.0020 O   0  0  0  0  0  0  0  0  0  0  0  0
    1.9760    1.3950   -1.0890 O   0  0  0  0  0  0  0  0  0  0  0  0
   -1.5250   -0.3380   -0.8510 C   0  0  2  0  0  0  0  0  0  0  0  0
   -0.9820    0.1090   -2.0620 O   0  0  0  0  0  0  0  0  0  0  0  0
   -2.4080    0.6310   -0.3910 O   0  0  0  0  0  0  0  0  0  0  0  0
  2  1  1  1
  2  3  1  0
  2  7  1  0
  3  4  1  0
  4  5  1  1
  4  6  1  0
  7  8  1  6
  7  9  1  0
M  END
