
     RDKit          3D

 23 25  0  0  0  0  0  0  0  0999 V2000
   -1.0760   -4.2500   -1.4980 C   0  0  0  0  0  0  0  0  0  0  0  0
   -2.1330   -3.2580   -1.6740 C   0  0  0  0  0  0  0  0  0  0  0  0
   -2.1090   -1.9930   -1.4290 C   0  0  0  0  0  0  0  0  0  0  0  0
   -1.0320   -1.1680   -0.9160 C   0  0  0  0  0  0  0  0  0  0  0  0
    0.2480   -1.2480   -1.4540 C   0  0  0  0  0  0  0  0  0  0  0  0
    0.4470   -1.9910   -2.7470 C   0  0  0  0  0  0  0  0  0  0  0  0
    1.3360   -0.5710   -0.9220 C   0  0  0  0  0  0  0  0  0  0  0  0
    1.1520    0.2160    0.1810 C   0  0  0  0  0  0  0  0  0  0  0  0
    2.2790    0.9450    0.7680 C   0  0  1  0  0  0  0  0  0  0  0  0
    3.3470    0.0070    1.3160 C   0  0  0  0  0  0  0  0  0  0  0  0
    4.6210    0.7670    1.5990 C   0  0  0  0  0  0  0  0  0  0  0  0
    5.1910    1.3000    0.4710 O   0  0  0  0  0  0  0  0  0  0  0  0
    4.3290    1.4780   -0.5860 C   0  0  0  0  0  0  0  0  0  0  0  0
    2.9390    1.9010   -0.1650 C   0  0  0  0  0  0  0  0  0  0  0  0
   -0.1130    0.3040    0.7200 C   0  0  0  0  0  0  0  0  0  0  0  0
   -1.2180   -0.3690    0.2030 C   0  0  0  0  0  0  0  0  0  0  0  0
   -2.5020   -0.2660    0.8770 C   0  0  2  0  0  0  0  0  0  0  0  0
   -3.4800   -1.0100    0.2730 O   0  0  0  0  0  0  0  0  0  0  0  0
   -2.9100    1.1270    1.1580 C   0  0  0  0  0  0  0  0  0  0  0  0
   -3.1500    1.6440    2.3330 C   0  0  0  0  0  0  0  0  0  0  0  0
   -3.5260    3.0600    2.1390 C   0  0  0  0  0  0  0  0  0  0  0  0
   -3.4620    3.2590    0.6900 C   0  0  0  0  0  0  0  0  0  0  0  0
   -3.1040    2.1310    0.1290 C   0  0  0  0  0  0  0  0  0  0  0  0
  1  2  1  0
  2  3  2  3
  3  4  1  0
  4  5  2  0
  4 16  1  0
  5  6  1  0
  5  7  1  0
  7  8  2  0
  9  8  1  6
  8 15  1  0
  9 10  1  0
  9 14  1  0
 10 11  1  0
 11 12  1  0
 12 13  1  0
 13 14  1  0
 15 16  2  0
 16 17  1  0
 17 18  1  6
 17 19  1  0
 19 20  2  0
 19 23  1  0
 20 21  1  0
 21 22  1  0
 22 23  2  0
M  END
