
     RDKit          3D

 23 24  0  0  0  0  0  0  0  0999 V2000
    4.5830    1.4190    1.9400 C   0  0  0  0  0  0  0  0  0  0  0  0
    3.8520    0.7280    0.8480 C   0  0  0  0  0  0  0  0  0  0  0  0
    4.4130    0.7150   -0.4210 C   0  0  0  0  0  0  0  0  0  0  0  0
    3.7840    0.0880   -1.4870 C   0  0  0  0  0  0  0  0  0  0  0  0
    4.4380    0.1110   -2.8170 C   0  0  0  0  0  0  0  0  0  0  0  0
    2.5660   -0.5400   -1.2740 C   0  0  0  0  0  0  0  0  0  0  0  0
    1.9870   -0.5430   -0.0290 C   0  0  0  0  0  0  0  0  0  0  0  0
    0.6790   -1.2110    0.2380 C   0  0  0  0  0  0  0  0  0  0  0  0
   -0.4850   -0.3100    0.0300 C   0  0  2  0  0  0  0  0  0  0  0  0
   -0.4540    0.0900   -1.3130 O   0  0  0  0  0  0  0  0  0  0  0  0
   -0.2740    0.9920    0.8300 C   0  0  0  0  0  0  0  0  0  0  0  0
   -1.3850    1.9380    0.6840 C   0  0  0  0  0  0  0  0  0  0  0  0
   -2.1030    2.3430    1.7420 C   0  0  0  0  0  0  0  0  0  0  0  0
   -3.2210    3.2850    1.6420 C   0  0  0  0  0  0  0  0  0  0  0  0
   -3.5010    3.7600    0.3660 O   0  0  0  0  0  0  0  0  0  0  0  0
   -2.7810    3.3590   -0.7240 C   0  0  0  0  0  0  0  0  0  0  0  0
   -1.7800    2.5010   -0.5920 C   0  0  0  0  0  0  0  0  0  0  0  0
   -1.7550   -0.9000    0.4800 C   0  0  0  0  0  0  0  0  0  0  0  0
   -2.2440   -2.1550   -0.1220 C   0  0  2  0  0  0  0  0  0  0  0  0
   -1.4120   -3.3730    0.0040 C   0  0  0  0  0  0  0  0  0  0  0  0
   -2.6020   -2.0050   -1.5950 C   0  0  0  0  0  0  0  0  0  0  0  0
   -3.5940   -2.4470    0.5690 C   0  0  0  0  0  0  0  0  0  0  0  0
    2.6400    0.0890    1.0030 C   0  0  0  0  0  0  0  0  0  0  0  0
  1  2  1  0
  2  3  2  0
  2 23  1  0
  3  4  1  0
  4  5  1  0
  4  6  2  0
  6  7  1  0
  7  8  1  0
  7 23  2  0
  8  9  1  0
  9 10  1  6
  9 11  1  0
  9 18  1  0
 11 12  1  0
 12 13  2  0
 12 17  1  0
 13 14  1  0
 14 15  1  0
 15 16  1  0
 16 17  2  0
 18 19  1  0
 19 20  1  6
 19 21  1  0
 19 22  1  0
M  END
