
     RDKit          3D

 23 24  0  0  0  0  0  0  0  0999 V2000
    2.8240    1.9270    1.8050 C   0  0  0  0  0  0  0  0  0  0  0  0
    3.5950    1.3320    0.8890 C   0  0  0  0  0  0  0  0  0  0  0  0
    4.9560    1.8570    0.7900 C   0  0  0  0  0  0  0  0  0  0  0  0
    3.0220    0.2540    0.1040 C   0  0  0  0  0  0  0  0  0  0  0  0
    3.5570   -0.4570   -0.8200 C   0  0  0  0  0  0  0  0  0  0  0  0
    4.8610   -0.4410   -1.3830 C   0  0  0  0  0  0  0  0  0  0  0  0
    5.8800    0.2000   -1.2170 O   0  0  0  0  0  0  0  0  0  0  0  0
    1.5520   -0.0670    0.4440 C   0  0  0  0  0  0  0  0  0  0  0  0
    1.0390   -1.1530   -0.3800 C   0  0  0  0  0  0  0  0  0  0  0  0
   -0.4210   -1.4990   -0.0660 C   0  0  1  0  0  0  0  0  0  0  0  0
   -1.2710   -0.3680   -0.2800 C   0  0  0  0  0  0  0  0  0  0  0  0
   -2.0030    0.1800    0.7520 C   0  0  0  0  0  0  0  0  0  0  0  0
   -2.8300    1.2940    0.5580 C   0  0  0  0  0  0  0  0  0  0  0  0
   -3.5850    1.8170    1.7370 C   0  0  0  0  0  0  0  0  0  0  0  0
   -2.9380    1.8780   -0.6750 C   0  0  0  0  0  0  0  0  0  0  0  0
   -3.8170    3.0580   -0.8660 C   0  0  0  0  0  0  0  0  0  0  0  0
   -2.2260    1.3530   -1.7040 C   0  0  0  0  0  0  0  0  0  0  0  0
   -1.4120    0.2520   -1.4990 C   0  0  0  0  0  0  0  0  0  0  0  0
   -0.7360   -0.2100   -2.5850 O   0  0  0  0  0  0  0  0  0  0  0  0
   -0.7380   -2.7270   -0.8890 C   0  0  0  0  0  0  0  0  0  0  0  0
   -2.0560   -3.1560   -0.3320 C   0  0  0  0  0  0  0  0  0  0  0  0
   -1.8390   -2.9650    1.1700 C   0  0  0  0  0  0  0  0  0  0  0  0
   -0.5490   -2.1550    1.2870 C   0  0  0  0  0  0  0  0  0  0  0  0
  1  2  2  0
  2  3  1  0
  2  4  1  0
  4  5  2  3
  4  8  1  0
  5  6  1  0
  6  7  2  0
  8  9  1  0
 10  9  1  6
 10 11  1  0
 10 20  1  0
 10 23  1  0
 11 12  2  0
 11 18  1  0
 12 13  1  0
 13 14  1  0
 13 15  2  0
 15 16  1  0
 15 17  1  0
 17 18  2  0
 18 19  1  0
 20 21  1  0
 21 22  1  0
 22 23  1  0
M  END
