
     RDKit          3D

 19 19  0  0  0  0  0  0  0  0999 V2000
    3.6980    0.1560   -1.4180 C   0  0  0  0  0  0  0  0  0  0  0  0
    3.1390   -0.2470   -0.0820 C   0  0  2  0  0  0  0  0  0  0  0  0
    3.9720   -1.3820    0.4630 C   0  0  0  0  0  0  0  0  0  0  0  0
    5.4090   -1.0650    0.6730 C   0  0  0  0  0  0  0  0  0  0  0  0
    5.5180   -0.0020    1.5820 O   0  0  0  0  0  0  0  0  0  0  0  0
    1.7210   -0.7680   -0.1670 C   0  0  1  0  0  0  0  0  0  0  0  0
    1.3110   -1.1230    1.1540 O   0  0  0  0  0  0  0  0  0  0  0  0
    0.7120    0.2230   -0.6290 C   0  0  1  0  0  0  0  0  0  0  0  0
    0.7810    0.6310   -2.0580 C   0  0  0  0  0  0  0  0  0  0  0  0
   -0.6610   -0.4370   -0.3700 C   0  0  0  0  0  0  0  0  0  0  0  0
   -1.4150    0.6300    0.3770 C   0  0  2  0  0  0  0  0  0  0  0  0
   -2.7200    0.6940   -0.0920 O   0  0  0  0  0  0  0  0  0  0  0  0
   -3.5600    0.5120    1.0050 C   0  0  0  0  0  0  0  0  0  0  0  0
   -5.0180    0.5630    0.6100 C   0  0  1  0  0  0  0  0  0  0  0  0
   -5.3510    1.7760    0.0400 O   0  0  0  0  0  0  0  0  0  0  0  0
   -5.3030   -0.5930   -0.3610 C   0  0  0  0  0  0  0  0  0  0  0  0
   -6.6640   -0.5930   -0.6750 O   0  0  0  0  0  0  0  0  0  0  0  0
   -0.6200    1.8630    0.0960 C   0  0  0  0  0  0  0  0  0  0  0  0
    0.6840    1.3750    0.1670 O   0  0  0  0  0  0  0  0  0  0  0  0
  2  1  1  6
  2  3  1  0
  2  6  1  0
  3  4  1  0
  4  5  1  0
  6  7  1  1
  6  8  1  0
  8  9  1  6
  8 10  1  0
  8 19  1  0
 10 11  1  0
 11 12  1  6
 11 18  1  0
 12 13  1  0
 13 14  1  0
 14 15  1  6
 14 16  1  0
 16 17  1  0
 18 19  1  0
M  END
