
     RDKit          3D

 19 19  0  0  0  0  0  0  0  0999 V2000
   -1.1320   -0.5890    1.5620 C   0  0  0  0  0  0  0  0  0  0  0  0
   -1.0650    0.0930    0.2190 C   0  0  1  0  0  0  0  0  0  0  0  0
    0.2250    0.1430   -0.1990 O   0  0  0  0  0  0  0  0  0  0  0  0
    1.1380    0.7970    0.5740 C   0  0  0  0  0  0  0  0  0  0  0  0
    2.5430    0.7080   -0.0970 C   0  0  0  0  0  0  0  0  0  0  0  0
    2.9270   -0.7410   -0.2220 C   0  0  0  0  0  0  0  0  0  0  0  0
    4.0610   -0.9860   -0.8260 O   0  0  0  0  0  0  0  0  0  0  0  0
    5.2920   -0.6420   -0.5620 C   0  0  0  0  0  0  0  0  0  0  0  0
    5.7390    0.7840   -0.5880 C   0  0  0  0  0  0  0  0  0  0  0  0
    7.1360    0.8320   -0.2710 O   0  0  0  0  0  0  0  0  0  0  0  0
   -1.7810   -0.8630   -0.7520 C   0  0  0  0  0  0  0  0  0  0  0  0
   -3.2360   -0.9630   -0.4440 C   0  0  2  0  0  0  0  0  0  0  0  0
   -3.9090   -1.8350   -1.4780 C   0  0  0  0  0  0  0  0  0  0  0  0
   -3.3830   -3.1170   -1.5010 O   0  0  0  0  0  0  0  0  0  0  0  0
   -3.9030    0.4120   -0.5550 C   0  0  1  0  0  0  0  0  0  0  0  0
   -5.2640    0.2970   -0.4090 O   0  0  0  0  0  0  0  0  0  0  0  0
   -3.2530    1.2490    0.5230 C   0  0  0  0  0  0  0  0  0  0  0  0
   -1.7910    1.3860    0.1620 C   0  0  1  0  0  0  0  0  0  0  0  0
   -1.2720    2.3960    0.9610 O   0  0  0  0  0  0  0  0  0  0  0  0
  2  1  1  1
  2  3  1  0
  2 11  1  0
  2 18  1  0
  3  4  1  0
  4  5  1  0
  5  6  1  0
  6  7  1  0
  7  8  1  0
  8  9  1  0
  9 10  1  0
 11 12  1  0
 12 13  1  6
 12 15  1  0
 13 14  1  0
 15 16  1  1
 15 17  1  0
 17 18  1  0
 18 19  1  1
M  END
