
     RDKit          3D

 22 22  0  0  0  0  0  0  0  0999 V2000
    6.5960    1.9590    0.0410 C   0  0  0  0  0  0  0  0  0  0  0  0
    6.5110    0.7510   -0.4770 C   0  0  0  0  0  0  0  0  0  0  0  0
    5.2920   -0.0120   -0.3570 C   0  0  0  0  0  0  0  0  0  0  0  0
    5.1640   -1.2280   -0.8620 C   0  0  0  0  0  0  0  0  0  0  0  0
    4.1990    0.5470    0.3160 O   0  0  0  0  0  0  0  0  0  0  0  0
    2.8620    0.3560   -0.1090 C   0  0  0  0  0  0  0  0  0  0  0  0
    1.9640    1.0930    0.8420 C   0  0  0  0  0  0  0  0  0  0  0  0
    0.6060    0.9950    0.5470 O   0  0  0  0  0  0  0  0  0  0  0  0
   -0.1150   -0.1920    0.4910 C   0  0  0  0  0  0  0  0  0  0  0  0
    0.5170   -1.2390    0.7260 O   0  0  0  0  0  0  0  0  0  0  0  0
   -1.5310   -0.2420    0.1780 C   0  0  0  0  0  0  0  0  0  0  0  0
   -2.3410    0.7830   -0.0930 C   0  0  0  0  0  0  0  0  0  0  0  0
   -1.9170    2.1020   -0.1150 O   0  0  0  0  0  0  0  0  0  0  0  0
   -3.6960    0.3090   -0.3550 C   0  0  0  0  0  0  0  0  0  0  0  0
   -4.7270    1.0500   -0.6510 C   0  0  0  0  0  0  0  0  0  0  0  0
   -4.6530    2.5360   -0.7660 C   0  0  0  0  0  0  0  0  0  0  0  0
   -3.6150   -1.1330   -0.2090 C   0  0  0  0  0  0  0  0  0  0  0  0
   -4.7080   -2.0750   -0.3670 C   0  0  0  0  0  0  0  0  0  0  0  0
   -5.8490   -1.6670   -0.6600 O   0  0  0  0  0  0  0  0  0  0  0  0
   -4.5310   -3.4320   -0.2030 O   0  0  0  0  0  0  0  0  0  0  0  0
   -2.3340   -1.4490    0.1050 C   0  0  0  0  0  0  0  0  0  0  0  0
   -1.9460   -2.8740    0.3150 C   0  0  0  0  0  0  0  0  0  0  0  0
  1  2  2  0
  2  3  1  0
  3  4  2  0
  3  5  1  0
  5  6  1  0
  6  7  1  0
  7  8  1  0
  8  9  1  0
  9 10  2  0
  9 11  1  0
 11 12  2  0
 11 21  1  0
 12 13  1  0
 12 14  1  0
 14 15  2  3
 14 17  1  0
 15 16  1  0
 17 18  1  0
 17 21  2  0
 18 19  2  0
 18 20  1  0
 21 22  1  0
M  END
