
     RDKit          3D

 21 22  0  0  0  0  0  0  0  0999 V2000
    5.0020    2.3570    1.1220 C   0  0  0  0  0  0  0  0  0  0  0  0
    3.7670    1.6310    0.6710 C   0  0  0  0  0  0  0  0  0  0  0  0
    4.0330    0.6260   -0.2720 O   0  0  0  0  0  0  0  0  0  0  0  0
    2.9720   -0.1180   -0.7680 C   0  0  0  0  0  0  0  0  0  0  0  0
    3.1390   -1.1220   -1.6940 C   0  0  0  0  0  0  0  0  0  0  0  0
    2.0820   -1.8480   -2.1740 C   0  0  0  0  0  0  0  0  0  0  0  0
    2.2790   -2.8580   -3.1110 O   0  0  0  0  0  0  0  0  0  0  0  0
    0.7890   -1.5570   -1.7040 C   0  0  0  0  0  0  0  0  0  0  0  0
   -0.2300   -2.2950   -2.2010 O   0  0  0  0  0  0  0  0  0  0  0  0
    0.5650   -0.5690   -0.7820 C   0  0  0  0  0  0  0  0  0  0  0  0
   -0.7200   -0.1890   -0.2340 C   0  0  0  0  0  0  0  0  0  0  0  0
   -0.7560    0.7560    0.6190 O   0  0  0  0  0  0  0  0  0  0  0  0
   -1.9440   -0.7360   -0.5260 O   0  0  0  0  0  0  0  0  0  0  0  0
   -3.0660   -0.2390    0.1010 C   0  0  0  0  0  0  0  0  0  0  0  0
   -3.8420    0.8050   -0.3910 C   0  0  0  0  0  0  0  0  0  0  0  0
   -4.9550    1.2580    0.2840 C   0  0  0  0  0  0  0  0  0  0  0  0
   -5.3140    0.6680    1.4730 C   0  0  0  0  0  0  0  0  0  0  0  0
   -4.5570   -0.3700    1.9810 C   0  0  0  0  0  0  0  0  0  0  0  0
   -3.4500   -0.8080    1.2940 C   0  0  0  0  0  0  0  0  0  0  0  0
   -2.7150   -1.8670    1.8530 O   0  0  0  0  0  0  0  0  0  0  0  0
    1.6910    0.1230   -0.3440 C   0  0  0  0  0  0  0  0  0  0  0  0
  1  2  1  0
  2  3  1  0
  3  4  1  0
  4  5  2  0
  4 21  1  0
  5  6  1  0
  6  7  1  0
  6  8  2  0
  8  9  1  0
  8 10  1  0
 10 11  1  0
 10 21  2  0
 11 12  2  0
 11 13  1  0
 13 14  1  0
 14 15  2  0
 14 19  1  0
 15 16  1  0
 16 17  2  0
 17 18  1  0
 18 19  2  0
 19 20  1  0
M  END
