
     RDKit          3D

 24 26  0  0  0  0  0  0  0  0999 V2000
   -6.4760   -2.4920   -0.0090 C   0  0  0  0  0  0  0  0  0  0  0  0
   -6.3880   -1.2360    0.6270 O   0  0  0  0  0  0  0  0  0  0  0  0
   -5.2190   -0.5130    0.5400 C   0  0  0  0  0  0  0  0  0  0  0  0
   -5.1790    0.7060    1.1800 C   0  0  0  0  0  0  0  0  0  0  0  0
   -4.0330    1.4460    1.1110 C   0  0  0  0  0  0  0  0  0  0  0  0
   -2.9030    1.0420    0.4340 C   0  0  0  0  0  0  0  0  0  0  0  0
   -1.6990    1.6160    0.2550 N   0  0  0  0  0  0  0  0  0  0  0  0
   -0.9200    0.7940   -0.5020 C   0  0  0  0  0  0  0  0  0  0  0  0
    0.4560    1.0550   -0.9090 C   0  0  0  0  0  0  0  0  0  0  0  0
    1.0390    0.2030   -1.6280 O   0  0  0  0  0  0  0  0  0  0  0  0
    1.0660    2.2510   -0.4760 N   0  0  0  0  0  0  0  0  0  0  0  0
    2.6830    2.5950   -0.9290 S   0  0  1  0  0  0  0  0  0  0  0  0
    2.7980    2.7870   -2.4200 O   0  0  0  0  0  0  0  0  0  0  0  0
    3.1980    3.8360   -0.2580 O   0  0  0  0  0  0  0  0  0  0  0  0
    3.6680    1.1990   -0.5050 C   0  0  0  0  0  0  0  0  0  0  0  0
    4.3960    0.5130   -1.4530 C   0  0  0  0  0  0  0  0  0  0  0  0
    5.1700   -0.5780   -1.1050 C   0  0  0  0  0  0  0  0  0  0  0  0
    5.2350   -1.0110    0.2110 C   0  0  0  0  0  0  0  0  0  0  0  0
    6.0710   -2.1870    0.5860 C   0  0  0  0  0  0  0  0  0  0  0  0
    4.4900   -0.2910    1.1190 C   0  0  0  0  0  0  0  0  0  0  0  0
    3.7410    0.7680    0.7670 N   0  0  0  0  0  0  0  0  0  0  0  0
   -1.6890   -0.3100   -0.7860 C   0  0  0  0  0  0  0  0  0  0  0  0
   -2.9360   -0.1850   -0.2140 C   0  0  0  0  0  0  0  0  0  0  0  0
   -4.0870   -0.9350   -0.1480 C   0  0  0  0  0  0  0  0  0  0  0  0
  1  2  1  0
  2  3  1  0
  3  4  2  0
  3 24  1  0
  4  5  1  0
  5  6  2  0
  6  7  1  0
  6 23  1  0
  7  8  1  0
  8  9  1  0
  8 22  2  0
  9 10  2  0
  9 11  1  0
 12 11  1  6
 12 13  2  0
 12 14  2  0
 12 15  1  0
 15 16  2  0
 15 21  1  0
 16 17  1  0
 17 18  2  0
 18 19  1  0
 18 20  1  0
 20 21  2  0
 22 23  1  0
 23 24  2  0
M  END
