
     RDKit          3D

 21 22  0  0  0  0  0  0  0  0999 V2000
    6.3260    0.4960   -1.4480 C   0  0  0  0  0  0  0  0  0  0  0  0
    5.3540    0.1100   -0.4970 O   0  0  0  0  0  0  0  0  0  0  0  0
    3.9970    0.1900   -0.7250 C   0  0  0  0  0  0  0  0  0  0  0  0
    3.5750    0.6210   -1.8160 O   0  0  0  0  0  0  0  0  0  0  0  0
    3.0430   -0.2190    0.2830 C   0  0  0  0  0  0  0  0  0  0  0  0
    3.4770   -0.7010    1.5010 C   0  0  0  0  0  0  0  0  0  0  0  0
    2.5790   -1.0900    2.4610 C   0  0  0  0  0  0  0  0  0  0  0  0
    1.2440   -1.0000    2.2090 C   0  0  0  0  0  0  0  0  0  0  0  0
    0.2990   -1.3840    3.1540 O   0  0  0  0  0  0  0  0  0  0  0  0
    0.7400   -0.5220    0.9970 C   0  0  0  0  0  0  0  0  0  0  0  0
   -0.6240   -0.4370    0.7590 O   0  0  0  0  0  0  0  0  0  0  0  0
   -1.0350    0.0590   -0.4940 C   0  0  0  0  0  0  0  0  0  0  0  0
   -2.4880    0.1120   -0.6560 C   0  0  0  0  0  0  0  0  0  0  0  0
   -3.2220   -0.9500   -1.1790 C   0  0  0  0  0  0  0  0  0  0  0  0
   -4.5810   -0.8140   -1.2950 C   0  0  0  0  0  0  0  0  0  0  0  0
   -5.2230    0.3490   -0.9040 C   0  0  0  0  0  0  0  0  0  0  0  0
   -6.5810    0.4830   -1.0200 O   0  0  0  0  0  0  0  0  0  0  0  0
   -4.5040    1.4030   -0.3860 C   0  0  0  0  0  0  0  0  0  0  0  0
   -5.1300    2.5980    0.0210 O   0  0  0  0  0  0  0  0  0  0  0  0
   -3.1460    1.2620   -0.2720 C   0  0  0  0  0  0  0  0  0  0  0  0
    1.6830   -0.1430    0.0670 C   0  0  0  0  0  0  0  0  0  0  0  0
  1  2  1  0
  2  3  1  0
  3  4  2  0
  3  5  1  0
  5  6  2  0
  5 21  1  0
  6  7  1  0
  7  8  2  0
  8  9  1  0
  8 10  1  0
 10 11  1  0
 10 21  2  0
 11 12  1  0
 12 13  1  0
 13 14  2  0
 13 20  1  0
 14 15  1  0
 15 16  2  0
 16 17  1  0
 16 18  1  0
 18 19  1  0
 18 20  2  0
M  END
