
     RDKit          3D

 22 23  0  0  0  0  0  0  0  0999 V2000
    5.5830   -0.4730    1.5730 C   0  0  0  0  0  0  0  0  0  0  0  0
    4.8720    0.2210    0.7110 C   0  0  0  0  0  0  0  0  0  0  0  0
    3.4430    0.4200    0.8170 C   0  0  0  0  0  0  0  0  0  0  0  0
    2.7230    1.1150   -0.0430 C   0  0  0  0  0  0  0  0  0  0  0  0
    1.3510    1.2840    0.0930 O   0  0  0  0  0  0  0  0  0  0  0  0
    0.5270    0.1960   -0.1920 C   0  0  2  0  0  0  0  0  0  0  0  0
   -0.9340    0.4760   -0.0160 C   0  0  0  0  0  0  0  0  0  0  0  0
   -1.7620   -0.6070   -0.2990 O   0  0  0  0  0  0  0  0  0  0  0  0
   -3.1340   -0.4330   -0.1610 C   0  0  0  0  0  0  0  0  0  0  0  0
   -4.0220   -1.4560   -0.4220 C   0  0  0  0  0  0  0  0  0  0  0  0
   -5.3910   -1.3030   -0.2910 C   0  0  0  0  0  0  0  0  0  0  0  0
   -6.2820   -2.3430   -0.5570 O   0  0  0  0  0  0  0  0  0  0  0  0
   -5.9270   -0.0990    0.1130 C   0  0  0  0  0  0  0  0  0  0  0  0
   -5.0550    0.9350    0.3780 C   0  0  0  0  0  0  0  0  0  0  0  0
   -5.6010    2.1450    0.7830 O   0  0  0  0  0  0  0  0  0  0  0  0
   -3.6920    0.7740    0.2440 C   0  0  0  0  0  0  0  0  0  0  0  0
    0.8930   -0.9200    0.5420 O   0  0  0  0  0  0  0  0  0  0  0  0
    1.3200   -1.9600   -0.2940 C   0  0  0  0  0  0  0  0  0  0  0  0
    3.4090    1.7270   -1.1820 C   0  0  0  0  0  0  0  0  0  0  0  0
    4.7220    1.5960   -1.3580 C   0  0  0  0  0  0  0  0  0  0  0  0
    5.5540    0.8430   -0.4420 C   0  0  0  0  0  0  0  0  0  0  0  0
    6.8020    0.7130   -0.6020 O   0  0  0  0  0  0  0  0  0  0  0  0
  1  2  2  0
  2  3  1  0
  2 21  1  0
  3  4  2  0
  4  5  1  0
  4 19  1  0
  5  6  1  0
  6  7  1  1
  6 17  1  0
  7  8  1  0
  8  9  1  0
  9 10  2  0
  9 16  1  0
 10 11  1  0
 11 12  1  0
 11 13  2  0
 13 14  1  0
 14 15  1  0
 14 16  2  0
 17 18  1  0
 19 20  2  0
 20 21  1  0
 21 22  2  0
M  END
