
     RDKit          3D

 22 24  0  0  0  0  0  0  0  0999 V2000
    7.0680    0.0890    0.3340 C   0  0  0  0  0  0  0  0  0  0  0  0
    5.6570    0.1710    0.2310 O   0  0  0  0  0  0  0  0  0  0  0  0
    4.8250   -0.8980    0.0320 C   0  0  0  0  0  0  0  0  0  0  0  0
    5.3550   -2.0490   -0.0680 O   0  0  0  0  0  0  0  0  0  0  0  0
    3.3680   -0.7690   -0.0700 C   0  0  0  0  0  0  0  0  0  0  0  0
    2.4850   -1.7310   -0.2610 C   0  0  0  0  0  0  0  0  0  0  0  0
    1.1390   -1.1310   -0.2960 C   0  0  0  0  0  0  0  0  0  0  0  0
   -0.0030   -1.7060   -0.0280 C   0  0  0  0  0  0  0  0  0  0  0  0
   -1.3090   -1.0900   -0.0640 C   0  0  0  0  0  0  0  0  0  0  0  0
   -2.3300   -1.6020   -0.8790 C   0  0  0  0  0  0  0  0  0  0  0  0
   -3.5890   -1.0600   -0.9070 C   0  0  0  0  0  0  0  0  0  0  0  0
   -4.6050   -1.5650   -1.7130 O   0  0  0  0  0  0  0  0  0  0  0  0
   -3.8760    0.0390   -0.1020 C   0  0  0  0  0  0  0  0  0  0  0  0
   -2.9060    0.5740    0.7140 C   0  0  0  0  0  0  0  0  0  0  0  0
   -1.6610    0.0020    0.7120 C   0  0  0  0  0  0  0  0  0  0  0  0
   -0.7110    0.5830    1.5680 O   0  0  0  0  0  0  0  0  0  0  0  0
   -3.2430    1.6840    1.5100 O   0  0  0  0  0  0  0  0  0  0  0  0
   -4.2450    2.5830    1.0040 C   0  0  0  0  0  0  0  0  0  0  0  0
   -5.4740    1.7620    0.6890 C   0  0  0  0  0  0  0  0  0  0  0  0
   -5.1260    0.6350   -0.0830 O   0  0  0  0  0  0  0  0  0  0  0  0
    1.3920    0.2510   -0.7630 C   0  0  0  0  0  0  0  0  0  0  0  0
    2.6640    0.5570    0.0400 C   0  0  0  0  0  0  0  0  0  0  0  0
  1  2  1  0
  2  3  1  0
  3  4  2  0
  3  5  1  0
  5  6  2  0
  5 22  1  0
  6  7  1  0
  7  8  2  3
  7 21  1  0
  8  9  1  0
  9 10  2  0
  9 15  1  0
 10 11  1  0
 11 12  1  0
 11 13  2  0
 13 14  1  0
 13 20  1  0
 14 15  2  0
 14 17  1  0
 15 16  1  0
 17 18  1  0
 18 19  1  0
 19 20  1  0
 21 22  1  0
M  END
