
     RDKit          3D

 21 21  0  0  0  0  0  0  0  0999 V2000
   -3.5640   -3.2160    0.0570 C   0  0  0  0  0  0  0  0  0  0  0  0
   -4.1020   -1.9100   -0.4870 C   0  0  0  0  0  0  0  0  0  0  0  0
   -3.2300   -0.8670   -0.0420 O   0  0  0  0  0  0  0  0  0  0  0  0
   -3.4450    0.4640   -0.3710 C   0  0  0  0  0  0  0  0  0  0  0  0
   -4.4520    0.7090   -1.0840 O   0  0  0  0  0  0  0  0  0  0  0  0
   -2.5590    1.5290    0.0810 C   0  0  0  0  0  0  0  0  0  0  0  0
   -1.3820    1.1940    0.9190 C   0  0  0  0  0  0  0  0  0  0  0  0
   -0.4570    0.2630    0.2140 C   0  0  0  0  0  0  0  0  0  0  0  0
   -0.7500   -0.0930   -0.8920 O   0  0  0  0  0  0  0  0  0  0  0  0
    0.7720   -0.1980    0.8660 C   0  0  0  0  0  0  0  0  0  0  0  0
    1.5230   -1.1130   -0.0360 C   0  0  2  0  0  0  0  0  0  0  0  0
    0.7780   -2.2160   -0.3670 O   0  0  0  0  0  0  0  0  0  0  0  0
    2.7920   -1.6220    0.6080 C   0  0  0  0  0  0  0  0  0  0  0  0
    3.8490   -0.8520    0.6390 C   0  0  0  0  0  0  0  0  0  0  0  0
    5.1530   -1.3090    1.2720 C   0  0  0  0  0  0  0  0  0  0  0  0
    3.8540    0.5030    0.0780 C   0  0  0  0  0  0  0  0  0  0  0  0
    2.8080    0.7910   -0.9580 C   0  0  0  0  0  0  0  0  0  0  0  0
    2.0300   -0.4320   -1.3030 C   0  0  0  0  0  0  0  0  0  0  0  0
   -2.8330    2.7760   -0.2760 C   0  0  0  0  0  0  0  0  0  0  0  0
   -1.9710    3.9180    0.1480 C   0  0  0  0  0  0  0  0  0  0  0  0
   -3.9390    3.0600   -1.0620 O   0  0  0  0  0  0  0  0  0  0  0  0
  1  2  1  0
  2  3  1  0
  3  4  1  0
  4  5  2  0
  4  6  1  0
  6  7  1  0
  6 19  2  3
  7  8  1  0
  8  9  2  0
  8 10  1  0
 10 11  1  0
 11 12  1  6
 11 13  1  0
 11 18  1  0
 13 14  2  0
 14 15  1  0
 14 16  1  0
 16 17  1  0
 17 18  1  0
 19 20  1  0
 19 21  1  0
M  END
