
     RDKit          3D

 28 30  0  0  0  0  0  0  0  0999 V2000
   -6.2590   -4.0100    0.6130 C   0  0  0  0  0  0  0  0  0  0  0  0
   -5.4300   -2.9420    0.3570 O   0  0  0  0  0  0  0  0  0  0  0  0
   -6.0890   -1.8950   -0.2630 C   0  0  0  0  0  0  0  0  0  0  0  0
   -5.0950   -0.7920   -0.4930 C   0  0  0  0  0  0  0  0  0  0  0  0
   -5.4420    0.2790   -1.0460 O   0  0  0  0  0  0  0  0  0  0  0  0
   -3.7740   -0.9860   -0.0770 N   0  0  0  0  0  0  0  0  0  0  0  0
   -2.7070   -0.0630   -0.2040 C   0  0  0  0  0  0  0  0  0  0  0  0
   -1.3930   -0.4920    0.0170 C   0  0  0  0  0  0  0  0  0  0  0  0
   -0.2960    0.3150   -0.0670 C   0  0  0  0  0  0  0  0  0  0  0  0
    1.0280   -0.1420    0.1600 N   0  0  0  0  0  0  0  0  0  0  0  0
    2.1470    0.7080    0.0680 C   0  0  0  0  0  0  0  0  0  0  0  0
    1.9810    1.9040   -0.2230 O   0  0  0  0  0  0  0  0  0  0  0  0
    3.5110    0.2500    0.2990 C   0  0  0  0  0  0  0  0  0  0  0  0
    4.0360   -0.9780    0.6300 C   0  0  0  0  0  0  0  0  0  0  0  0
    5.3790   -1.0550    0.7710 C   0  0  0  0  0  0  0  0  0  0  0  0
    6.1330    0.0190    0.5940 C   0  0  0  0  0  0  0  0  0  0  0  0
    4.9790    1.2620    0.2010 S   0  0  0  0  0  0  0  0  0  0  0  0
    7.5870   -0.2000    0.7780 C   0  0  0  0  0  0  0  0  0  0  0  0
    7.7050   -1.7000    0.6520 C   0  0  0  0  0  0  0  0  0  0  0  0
    6.3570   -2.1290    1.1080 C   0  0  0  0  0  0  0  0  0  0  0  0
    6.1470   -3.2280    1.6760 O   0  0  0  0  0  0  0  0  0  0  0  0
   -0.4810    1.6220   -0.3860 N   0  0  0  0  0  0  0  0  0  0  0  0
   -1.7210    2.0850   -0.6070 C   0  0  0  0  0  0  0  0  0  0  0  0
   -1.9300    3.4740   -0.9460 C   0  0  0  0  0  0  0  0  0  0  0  0
   -3.0900    3.8980   -1.1520 O   0  0  0  0  0  0  0  0  0  0  0  0
   -0.8950    4.3880   -1.0610 O   0  0  0  0  0  0  0  0  0  0  0  0
   -1.1530    5.7570   -1.4000 C   0  0  0  0  0  0  0  0  0  0  0  0
   -2.8490    1.2600   -0.5220 C   0  0  0  0  0  0  0  0  0  0  0  0
  1  2  1  0
  2  3  1  0
  3  4  1  0
  4  5  2  0
  4  6  1  0
  6  7  1  0
  7  8  2  0
  7 28  1  0
  8  9  1  0
  9 10  1  0
  9 22  2  0
 10 11  1  0
 11 12  2  0
 11 13  1  0
 13 14  2  0
 13 17  1  0
 14 15  1  0
 15 16  2  0
 15 20  1  0
 16 17  1  0
 16 18  1  0
 18 19  1  0
 19 20  1  0
 20 21  2  0
 22 23  1  0
 23 24  1  0
 23 28  2  0
 24 25  2  0
 24 26  1  0
 26 27  1  0
M  END
