
     RDKit          3D

 28 30  0  0  0  0  0  0  0  0999 V2000
   -6.4770   -2.2520   -0.5700 C   0  0  0  0  0  0  0  0  0  0  0  0
   -5.1390   -1.6400   -0.8860 C   0  0  0  0  0  0  0  0  0  0  0  0
   -4.1350   -1.7720   -0.0470 C   0  0  0  0  0  0  0  0  0  0  0  0
   -2.8520   -1.1600   -0.3940 C   0  0  0  0  0  0  0  0  0  0  0  0
   -2.7510   -0.5250   -1.4880 O   0  0  0  0  0  0  0  0  0  0  0  0
   -1.7670   -1.3040    0.5150 N   0  0  0  0  0  0  0  0  0  0  0  0
   -0.4960   -0.7200    0.2360 C   0  0  0  0  0  0  0  0  0  0  0  0
   -0.4080    0.7340    0.2970 C   0  0  0  0  0  0  0  0  0  0  0  0
    0.8280    1.3000   -0.0620 C   0  0  0  0  0  0  0  0  0  0  0  0
    1.8700    0.4310   -0.4830 N   0  0  0  0  0  0  0  0  0  0  0  0
    2.7780   -0.0580    0.5070 C   0  0  0  0  0  0  0  0  0  0  0  0
    2.6130    0.3070    1.7110 O   0  0  0  0  0  0  0  0  0  0  0  0
    3.8970   -0.9630    0.2220 C   0  0  0  0  0  0  0  0  0  0  0  0
    3.4450   -2.3950    0.4420 N   0  0  0  0  0  0  0  0  0  0  0  0
    2.9300   -3.1150   -0.4840 C   0  0  0  0  0  0  0  0  0  0  0  0
    2.5310   -4.4450   -0.2080 C   0  0  0  0  0  0  0  0  0  0  0  0
    2.9560   -4.5950    1.5080 S   0  0  0  0  0  0  0  0  0  0  0  0
    3.6170   -2.9020    1.7080 C   0  0  0  0  0  0  0  0  0  0  0  0
    4.0740   -2.4110    2.7170 O   0  0  0  0  0  0  0  0  0  0  0  0
    0.9840    2.6660    0.0100 C   0  0  0  0  0  0  0  0  0  0  0  0
   -0.0930    3.4040    0.4340 C   0  0  0  0  0  0  0  0  0  0  0  0
   -1.2390    2.8690    0.7670 O   0  0  0  0  0  0  0  0  0  0  0  0
   -1.4290    1.5430    0.7110 C   0  0  0  0  0  0  0  0  0  0  0  0
   -2.5410    1.0690    1.0430 O   0  0  0  0  0  0  0  0  0  0  0  0
    0.0660    4.8460    0.5120 C   0  0  0  0  0  0  0  0  0  0  0  0
    1.2160    5.4090    0.1800 C   0  0  0  0  0  0  0  0  0  0  0  0
    2.3870    4.6300   -0.2790 C   0  0  0  0  0  0  0  0  0  0  0  0
    2.1730    3.2550   -0.3320 O   0  0  0  0  0  0  0  0  0  0  0  0
  1  2  1  0
  2  3  2  3
  3  4  1  0
  4  5  2  0
  4  6  1  0
  6  7  1  0
  7  8  1  0
  8  9  2  0
  8 23  1  0
  9 10  1  0
  9 20  1  0
 10 11  1  0
 11 12  2  0
 11 13  1  0
 13 14  1  0
 14 15  1  0
 14 18  1  0
 15 16  2  0
 16 17  1  0
 17 18  1  0
 18 19  2  0
 20 21  2  0
 20 28  1  0
 21 22  1  0
 21 25  1  0
 22 23  1  0
 23 24  2  0
 25 26  2  0
 26 27  1  0
 27 28  1  0
M  END
