
     RDKit          3D

 28 30  0  0  0  0  0  0  0  0999 V2000
   -6.8200    1.5160   -1.0400 C   0  0  0  0  0  0  0  0  0  0  0  0
   -5.9640    0.5710   -1.6930 O   0  0  0  0  0  0  0  0  0  0  0  0
   -5.1700    0.9220   -2.7620 C   0  0  0  0  0  0  0  0  0  0  0  0
   -5.1820    2.0950   -3.1870 O   0  0  0  0  0  0  0  0  0  0  0  0
   -4.3040   -0.0770   -3.4130 C   0  0  0  0  0  0  0  0  0  0  0  0
   -4.3950   -1.4270   -2.7140 C   0  0  0  0  0  0  0  0  0  0  0  0
   -3.9750   -1.3390   -1.3320 N   0  0  0  0  0  0  0  0  0  0  0  0
   -2.6680   -0.9650   -0.9220 C   0  0  0  0  0  0  0  0  0  0  0  0
   -1.8300   -0.7060   -1.8570 O   0  0  0  0  0  0  0  0  0  0  0  0
   -2.2620   -0.8670    0.4730 C   0  0  0  0  0  0  0  0  0  0  0  0
   -0.9900   -0.5170    0.7500 C   0  0  0  0  0  0  0  0  0  0  0  0
   -0.5240   -0.4030    2.1170 C   0  0  0  0  0  0  0  0  0  0  0  0
    0.7610   -0.0590    2.3660 C   0  0  0  0  0  0  0  0  0  0  0  0
    1.6140    0.1820    1.3270 C   0  0  0  0  0  0  0  0  0  0  0  0
    2.8110    0.4000    2.3650 O   0  0  0  0  0  0  0  0  0  0  0  0
    2.4080    0.4110    0.2730 N   0  0  0  0  0  0  0  0  0  0  0  0
    3.7330    0.7010   -0.0030 C   0  0  0  0  0  0  0  0  0  0  0  0
    4.1870    1.3120   -1.6550 S   0  0  0  0  0  0  0  0  0  0  0  0
    5.8910    1.4580   -1.3900 C   0  0  0  0  0  0  0  0  0  0  0  0
    6.0560    1.0370   -0.0620 C   0  0  0  0  0  0  0  0  0  0  0  0
    4.9750    0.6590    0.6200 C   0  0  0  0  0  0  0  0  0  0  0  0
    5.4380    0.1420    1.9960 C   0  0  0  0  0  0  0  0  0  0  0  0
    6.9450   -0.0360    1.8520 C   0  0  0  0  0  0  0  0  0  0  0  0
    7.3290    0.9640    0.8060 C   0  0  0  0  0  0  0  0  0  0  0  0
   -1.3720   -0.6500    3.1910 O   0  0  0  0  0  0  0  0  0  0  0  0
   -2.6700   -1.0060    2.9290 C   0  0  0  0  0  0  0  0  0  0  0  0
   -3.4980   -1.2430    3.8430 O   0  0  0  0  0  0  0  0  0  0  0  0
   -3.1030   -1.1120    1.5780 N   0  0  0  0  0  0  0  0  0  0  0  0
  1  2  1  0
  2  3  1  0
  3  4  2  0
  3  5  1  0
  5  6  1  0
  6  7  1  0
  7  8  1  0
  8  9  2  0
  8 10  1  0
 10 11  2  0
 10 28  1  0
 11 12  1  0
 12 13  2  3
 12 25  1  0
 13 14  1  0
 14 15  2  0
 14 16  1  0
 16 17  1  0
 17 18  1  0
 17 21  2  0
 18 19  1  0
 19 20  2  0
 20 21  1  0
 20 24  1  0
 21 22  1  0
 22 23  1  0
 23 24  1  0
 25 26  1  0
 26 27  2  0
 26 28  1  0
M  END
