
     RDKit          3D

 28 30  0  0  0  0  0  0  0  0999 V2000
   -7.4730   -1.3690    0.1080 C   0  0  0  0  0  0  0  0  0  0  0  0
   -6.3590   -1.3960    0.9810 O   0  0  0  0  0  0  0  0  0  0  0  0
   -5.1710   -0.7700    0.5670 C   0  0  0  0  0  0  0  0  0  0  0  0
   -5.0790   -0.1420   -0.6570 C   0  0  0  0  0  0  0  0  0  0  0  0
   -3.9020    0.4610   -1.0330 C   0  0  0  0  0  0  0  0  0  0  0  0
   -2.7750    0.4770   -0.2380 C   0  0  0  0  0  0  0  0  0  0  0  0
   -2.8700   -0.1520    0.9880 C   0  0  0  0  0  0  0  0  0  0  0  0
   -4.0490   -0.7590    1.3690 C   0  0  0  0  0  0  0  0  0  0  0  0
   -1.6130    0.0140    1.5710 C   0  0  0  0  0  0  0  0  0  0  0  0
   -0.8080    0.7220    0.7050 C   0  0  0  0  0  0  0  0  0  0  0  0
    0.5740    1.0860    0.9710 C   0  0  0  0  0  0  0  0  0  0  0  0
    1.2800    1.7340    0.1580 O   0  0  0  0  0  0  0  0  0  0  0  0
    1.2300    0.7250    2.1910 N   0  0  0  0  0  0  0  0  0  0  0  0
    2.8680    1.1500    2.5170 S   0  0  1  0  0  0  0  0  0  0  0  0
    2.9930    2.6690    2.5060 O   0  0  0  0  0  0  0  0  0  0  0  0
    3.2770    0.6740    3.8630 O   0  0  0  0  0  0  0  0  0  0  0  0
    3.9210    0.5190    1.2670 C   0  0  0  0  0  0  0  0  0  0  0  0
    4.9140   -0.3640    1.6190 C   0  0  0  0  0  0  0  0  0  0  0  0
    5.7840   -0.8990    0.6640 C   0  0  0  0  0  0  0  0  0  0  0  0
    5.6400   -0.5320   -0.6560 C   0  0  0  0  0  0  0  0  0  0  0  0
    6.5420   -1.0730   -1.7160 C   0  0  0  0  0  0  0  0  0  0  0  0
    4.6280    0.3590   -0.9680 C   0  0  0  0  0  0  0  0  0  0  0  0
    3.8040    0.8580   -0.0200 N   0  0  0  0  0  0  0  0  0  0  0  0
   -1.5270    0.9960   -0.3870 N   0  0  0  0  0  0  0  0  0  0  0  0
   -1.0390    1.7320   -1.5360 C   0  0  0  0  0  0  0  0  0  0  0  0
   -0.4320    0.8190   -2.5270 C   0  0  0  0  0  0  0  0  0  0  0  0
    0.0520    1.2520   -3.5900 O   0  0  0  0  0  0  0  0  0  0  0  0
   -0.4000   -0.5340   -2.2710 O   0  0  0  0  0  0  0  0  0  0  0  0
  1  2  1  0
  2  3  1  0
  3  4  2  0
  3  8  1  0
  4  5  1  0
  5  6  2  0
  6  7  1  0
  6 24  1  0
  7  8  2  0
  7  9  1  0
  9 10  2  0
 10 11  1  0
 10 24  1  0
 11 12  2  0
 11 13  1  0
 14 13  1  6
 14 15  2  0
 14 16  2  0
 14 17  1  0
 17 18  2  0
 17 23  1  0
 18 19  1  0
 19 20  2  0
 20 21  1  0
 20 22  1  0
 22 23  2  0
 24 25  1  0
 25 26  1  0
 26 27  2  0
 26 28  1  0
M  END
