
     RDKit          3D

 28 30  0  0  0  0  0  0  0  0999 V2000
    8.8530   -0.0890   -0.6180 C   0  0  0  0  0  0  0  0  0  0  0  0
    7.4250   -0.2940   -0.3950 N   0  0  0  0  0  0  0  0  0  0  0  0
    6.6790    0.5920    0.4330 C   0  0  0  0  0  0  0  0  0  0  0  0
    7.3280    1.5420    0.9460 O   0  0  0  0  0  0  0  0  0  0  0  0
    5.2530    0.4290    0.6860 C   0  0  0  0  0  0  0  0  0  0  0  0
    4.5530   -0.5470    0.1690 C   0  0  0  0  0  0  0  0  0  0  0  0
    3.1230   -0.6270    0.4820 C   0  0  0  0  0  0  0  0  0  0  0  0
    2.2590   -1.5910    0.0100 C   0  0  0  0  0  0  0  0  0  0  0  0
    1.0020   -1.3200    0.5320 C   0  0  0  0  0  0  0  0  0  0  0  0
    1.1520   -0.1910    1.3080 C   0  0  0  0  0  0  0  0  0  0  0  0
    0.1490    0.5170    2.0740 C   0  0  0  0  0  0  0  0  0  0  0  0
   -0.9550    0.9620    1.5720 C   0  0  0  0  0  0  0  0  0  0  0  0
   -2.2220    1.8500    2.5470 S   0  0  0  0  0  0  0  0  0  0  0  0
   -2.9340    2.6840    1.1350 C   0  0  0  0  0  0  0  0  0  0  0  0
   -3.6230    3.7520    1.1430 O   0  0  0  0  0  0  0  0  0  0  0  0
   -2.5600    1.8910    0.0260 N   0  0  0  0  0  0  0  0  0  0  0  0
   -3.2150    1.9990   -1.3000 C   0  0  0  0  0  0  0  0  0  0  0  0
   -4.3710    1.0810   -1.3960 C   0  0  0  0  0  0  0  0  0  0  0  0
   -5.0060    1.0810   -2.4640 O   0  0  0  0  0  0  0  0  0  0  0  0
   -4.7510    0.2360   -0.3400 N   0  0  0  0  0  0  0  0  0  0  0  0
   -5.8720   -0.6250   -0.4860 C   0  0  0  0  0  0  0  0  0  0  0  0
   -6.7480   -0.8300   -1.5120 C   0  0  0  0  0  0  0  0  0  0  0  0
   -7.6660   -1.7830   -1.1500 C   0  0  0  0  0  0  0  0  0  0  0  0
   -7.3650   -2.1590    0.0710 O   0  0  0  0  0  0  0  0  0  0  0  0
   -6.3210   -1.5130    0.5110 C   0  0  0  0  0  0  0  0  0  0  0  0
   -1.5160    0.9800    0.2440 C   0  0  0  0  0  0  0  0  0  0  0  0
   -1.0610    0.1890   -0.6740 O   0  0  0  0  0  0  0  0  0  0  0  0
    2.4430    0.1830    1.2440 O   0  0  0  0  0  0  0  0  0  0  0  0
  1  2  1  0
  2  3  1  0
  3  4  2  0
  3  5  1  0
  5  6  2  3
  6  7  1  0
  7  8  2  0
  7 28  1  0
  8  9  1  0
  9 10  2  0
 10 11  1  0
 10 28  1  0
 11 12  2  3
 12 13  1  0
 12 26  1  0
 13 14  1  0
 14 15  2  0
 14 16  1  0
 16 17  1  0
 16 26  1  0
 17 18  1  0
 18 19  2  0
 18 20  1  0
 20 21  1  0
 21 22  1  0
 21 25  2  0
 22 23  2  0
 23 24  1  0
 24 25  1  0
 26 27  2  0
M  END
