
     RDKit          3D

 28 30  0  0  0  0  0  0  0  0999 V2000
    9.2020    0.0440    1.7150 C   0  0  0  0  0  0  0  0  0  0  0  0
    8.3020    0.7450    0.8540 N   0  0  0  0  0  0  0  0  0  0  0  0
    7.0250    0.2220    0.5740 C   0  0  0  0  0  0  0  0  0  0  0  0
    6.6740   -0.8610    1.0810 O   0  0  0  0  0  0  0  0  0  0  0  0
    6.1190    0.9680   -0.3190 C   0  0  0  0  0  0  0  0  0  0  0  0
    4.8350    0.3100   -0.5170 C   0  0  0  0  0  0  0  0  0  0  0  0
    4.3740   -0.5910   -1.4130 C   0  0  0  0  0  0  0  0  0  0  0  0
    3.0940   -1.0160   -1.3230 C   0  0  0  0  0  0  0  0  0  0  0  0
    2.2960   -0.5580   -0.3690 C   0  0  0  0  0  0  0  0  0  0  0  0
    0.9340   -0.7660    0.0290 C   0  0  0  0  0  0  0  0  0  0  0  0
    0.2530   -1.5730   -0.6440 O   0  0  0  0  0  0  0  0  0  0  0  0
    0.3380   -0.1300    1.1070 O   0  0  0  0  0  0  0  0  0  0  0  0
   -1.0070   -0.3530    1.4780 C   0  0  0  0  0  0  0  0  0  0  0  0
   -1.9310    0.0140    0.3630 C   0  0  0  0  0  0  0  0  0  0  0  0
   -1.4370    0.4460   -0.6890 O   0  0  0  0  0  0  0  0  0  0  0  0
   -3.3290   -0.1220    0.4920 N   0  0  0  0  0  0  0  0  0  0  0  0
   -4.2560    0.2060   -0.5190 C   0  0  0  0  0  0  0  0  0  0  0  0
   -3.9540    0.6990   -1.7620 C   0  0  0  0  0  0  0  0  0  0  0  0
   -5.1660    0.8700   -2.4090 C   0  0  0  0  0  0  0  0  0  0  0  0
   -5.3340    1.3830   -3.7820 C   0  0  0  0  0  0  0  0  0  0  0  0
   -6.1230    0.4990   -1.5910 O   0  0  0  0  0  0  0  0  0  0  0  0
   -5.6370    0.0950   -0.4540 C   0  0  0  0  0  0  0  0  0  0  0  0
   -6.3710   -0.3920    0.7040 C   0  0  0  0  0  0  0  0  0  0  0  0
   -7.7250   -0.4850    0.7270 N   0  0  0  0  0  0  0  0  0  0  0  0
   -8.0390   -0.9680    1.9400 C   0  0  0  0  0  0  0  0  0  0  0  0
   -6.8710   -1.1640    2.6450 C   0  0  0  0  0  0  0  0  0  0  0  0
   -5.9030   -0.8030    1.8570 O   0  0  0  0  0  0  0  0  0  0  0  0
    3.4100    0.6080    0.5410 S   0  0  0  0  0  0  0  0  0  0  0  0
  1  2  1  0
  2  3  1  0
  3  4  2  0
  3  5  1  0
  5  6  1  0
  6  7  2  0
  6 28  1  0
  7  8  1  0
  8  9  2  0
  9 10  1  0
  9 28  1  0
 10 11  2  0
 10 12  1  0
 12 13  1  0
 13 14  1  0
 14 15  2  0
 14 16  1  0
 16 17  1  0
 17 18  1  0
 17 22  2  0
 18 19  2  0
 19 20  1  0
 19 21  1  0
 21 22  1  0
 22 23  1  0
 23 24  2  0
 23 27  1  0
 24 25  1  0
 25 26  2  0
 26 27  1  0
M  END
