
     RDKit          3D

 44 48  0  0  0  0  0  0  0  0999 V2000
   -9.8750   -2.8170   -3.4990 C   0  0  0  0  0  0  0  0  0  0  0  0
   -8.8830   -2.2040   -2.6790 N   0  0  0  0  0  0  0  0  0  0  0  0
   -7.5130   -2.5370   -2.5610 C   0  0  0  0  0  0  0  0  0  0  0  0
   -7.0790   -3.4480   -3.2680 O   0  0  0  0  0  0  0  0  0  0  0  0
   -6.6790   -1.7650   -1.5890 C   0  0  0  0  0  0  0  0  0  0  0  0
   -5.6640   -0.9230   -2.0550 C   0  0  0  0  0  0  0  0  0  0  0  0
   -4.9490   -0.0860   -1.1820 C   0  0  0  0  0  0  0  0  0  0  0  0
   -3.9660    0.7020   -1.7420 O   0  0  0  0  0  0  0  0  0  0  0  0
   -2.6430    0.4600   -1.5080 C   0  0  0  0  0  0  0  0  0  0  0  0
   -1.7590    1.5530   -1.2950 C   0  0  0  0  0  0  0  0  0  0  0  0
   -0.4270    1.3800   -1.0750 C   0  0  0  0  0  0  0  0  0  0  0  0
    0.1690    0.1080   -1.0480 C   0  0  0  0  0  0  0  0  0  0  0  0
    1.5980    0.0520   -0.8390 C   0  0  0  0  0  0  0  0  0  0  0  0
    2.3630    1.0330   -0.2890 C   0  0  0  0  0  0  0  0  0  0  0  0
    3.6840    0.6100   -0.2620 C   0  0  0  0  0  0  0  0  0  0  0  0
    3.6600   -0.6440   -0.8130 C   0  0  0  0  0  0  0  0  0  0  0  0
    2.4500   -0.9300   -1.1300 O   0  0  0  0  0  0  0  0  0  0  0  0
    4.9590   -1.3110   -0.9180 C   0  0  0  0  0  0  0  0  0  0  0  0
    6.0640   -0.7100   -0.5090 C   0  0  0  0  0  0  0  0  0  0  0  0
    6.1640    0.5970    0.0700 C   0  0  0  0  0  0  0  0  0  0  0  0
    7.0900    1.3190    0.4610 C   0  0  0  0  0  0  0  0  0  0  0  0
    8.5280    1.3540    0.5810 C   0  0  0  0  0  0  0  0  0  0  0  0
    9.4880    0.4130    0.0660 C   0  0  2  0  0  0  0  0  0  0  0  0
    9.5560   -0.9470    0.6390 C   0  0  0  0  0  0  0  0  0  0  0  0
   10.9180   -1.4890    0.3590 N   0  0  0  0  0  0  0  0  0  0  0  0
   11.8630   -1.0860    1.3760 C   0  0  0  0  0  0  0  0  0  0  0  0
   12.2270    0.3680    1.2470 C   0  0  0  0  0  0  0  0  0  0  0  0
   11.1400    1.2260    0.0870 S   0  0  0  0  0  0  0  0  0  0  0  0
    4.8260    1.2110    0.1640 O   0  0  0  0  0  0  0  0  0  0  0  0
   -0.6780   -0.9390   -1.2550 C   0  0  0  0  0  0  0  0  0  0  0  0
   -2.0220   -0.7500   -1.4720 C   0  0  0  0  0  0  0  0  0  0  0  0
   -5.2450   -0.0770    0.1480 C   0  0  0  0  0  0  0  0  0  0  0  0
   -4.6970    0.9640    1.0520 C   0  0  0  0  0  0  0  0  0  0  0  0
   -3.9470    1.8240    0.6130 O   0  0  0  0  0  0  0  0  0  0  0  0
   -5.0050    1.0490    2.3910 O   0  0  0  0  0  0  0  0  0  0  0  0
   -4.6610    1.9540    3.3470 C   0  0  0  0  0  0  0  0  0  0  0  0
   -5.1610    3.3600    3.2250 C   0  0  1  0  0  0  0  0  0  0  0  0
   -4.7580    4.1500    2.0280 C   0  0  0  0  0  0  0  0  0  0  0  0
   -6.9600    3.3620    3.4090 Cl  0  0  0  0  0  0  0  0  0  0  0  0
   -6.2440   -0.9100    0.6190 C   0  0  0  0  0  0  0  0  0  0  0  0
   -6.9560   -1.7520   -0.2520 C   0  0  0  0  0  0  0  0  0  0  0  0
   -7.9720   -2.6220    0.3710 C   0  0  0  0  0  0  0  0  0  0  0  0
   -9.2770   -2.1490    0.4550 C   0  0  0  0  0  0  0  0  0  0  0  0
  -10.4950   -1.7010    0.5400 N   0  0  0  0  0  0  0  0  0  0  0  0
  1  2  1  0
  2  3  1  0
  3  4  2  0
  3  5  1  0
  5  6  2  0
  5 41  1  0
  6  7  1  0
  7  8  1  0
  7 32  2  0
  8  9  1  0
  9 10  2  0
  9 31  1  0
 10 11  1  0
 11 12  2  0
 12 13  1  0
 12 30  1  0
 13 14  2  0
 13 17  1  0
 14 15  1  0
 15 16  2  0
 15 29  1  0
 16 17  1  0
 16 18  1  0
 18 19  2  0
 19 20  1  0
 20 21  2  3
 20 29  1  0
 21 22  1  0
 23 22  1  1
 23 24  1  0
 23 28  1  0
 24 25  1  0
 25 26  1  0
 26 27  1  0
 27 28  1  0
 30 31  2  0
 32 33  1  0
 32 40  1  0
 33 34  2  0
 33 35  1  0
 35 36  1  0
 36 37  1  0
 37 38  1  6
 37 39  1  0
 40 41  2  0
 41 42  1  0
 42 43  1  0
 43 44  3  0
M  END
