
     RDKit          3D

 44 47  0  0  0  0  0  0  0  0999 V2000
    7.8180   -1.1790    1.8130 C   0  0  0  0  0  0  0  0  0  0  0  0
    6.5380   -1.0850    1.0940 C   0  0  0  0  0  0  0  0  0  0  0  0
    5.8210   -2.1360    1.1550 O   0  0  0  0  0  0  0  0  0  0  0  0
    6.0610    0.1080    0.3450 C   0  0  0  0  0  0  0  0  0  0  0  0
    4.8400    0.0330   -0.2370 C   0  0  0  0  0  0  0  0  0  0  0  0
    3.8580   -1.0130   -0.3110 N   0  0  0  0  0  0  0  0  0  0  0  0
    2.6340   -0.7510   -1.0140 C   0  0  0  0  0  0  0  0  0  0  0  0
    2.5050    0.3880   -1.5140 O   0  0  0  0  0  0  0  0  0  0  0  0
    1.6160   -1.7250   -1.1420 N   0  0  0  0  0  0  0  0  0  0  0  0
    0.3590   -1.6040   -1.7850 C   0  0  0  0  0  0  0  0  0  0  0  0
   -0.6700   -0.6800   -1.2770 C   0  0  2  0  0  0  0  0  0  0  0  0
   -1.7850   -0.8910   -2.2020 O   0  0  0  0  0  0  0  0  0  0  0  0
   -0.3320    0.7950   -1.5120 C   0  0  0  0  0  0  0  0  0  0  0  0
   -1.7020    1.5120   -1.5060 C   0  0  0  0  0  0  0  0  0  0  0  0
   -2.1580    1.4240   -0.1260 N   0  0  0  0  0  0  0  0  0  0  0  0
   -3.2670    2.1620    0.3710 C   0  0  0  0  0  0  0  0  0  0  0  0
   -3.5720    1.9990    1.6000 O   0  0  0  0  0  0  0  0  0  0  0  0
   -4.1010    3.0950   -0.3790 C   0  0  2  0  0  0  0  0  0  0  0  0
   -3.7360    3.2900   -1.6930 O   0  0  0  0  0  0  0  0  0  0  0  0
   -4.2770    4.4120    0.2690 C   0  0  0  0  0  0  0  0  0  0  0  0
   -3.3400    5.4030    0.0910 C   0  0  0  0  0  0  0  0  0  0  0  0
   -3.5110    6.6310    0.6950 C   0  0  0  0  0  0  0  0  0  0  0  0
   -4.5940    6.8930    1.4740 C   0  0  0  0  0  0  0  0  0  0  0  0
   -4.8100    8.2150    2.1440 C   0  0  0  0  0  0  0  0  0  0  0  0
   -5.5320    5.8780    1.6430 C   0  0  0  0  0  0  0  0  0  0  0  0
   -5.3910    4.6490    1.0560 C   0  0  0  0  0  0  0  0  0  0  0  0
   -1.4120    0.5190    0.7270 C   0  0  0  0  0  0  0  0  0  0  0  0
   -1.2480   -0.8470    0.0510 C   0  0  2  0  0  0  0  0  0  0  0  0
   -0.7000   -1.8270    1.0200 C   0  0  0  0  0  0  0  0  0  0  0  0
   -0.7470   -3.2650    0.6750 C   0  0  0  0  0  0  0  0  0  0  0  0
   -2.0870   -3.7250    0.4560 O   0  0  0  0  0  0  0  0  0  0  0  0
   -2.3000   -5.0560    0.1240 C   0  0  0  0  0  0  0  0  0  0  0  0
   -1.2900   -5.9810   -0.0100 C   0  0  0  0  0  0  0  0  0  0  0  0
   -1.5700   -7.2930   -0.3430 C   0  0  0  0  0  0  0  0  0  0  0  0
   -2.8560   -7.7450   -0.5560 C   0  0  0  0  0  0  0  0  0  0  0  0
   -3.1360   -9.1510   -0.9100 C   0  0  0  0  0  0  0  0  0  0  0  0
   -3.8740   -6.7950   -0.4160 C   0  0  0  0  0  0  0  0  0  0  0  0
   -3.5860   -5.4920   -0.0850 C   0  0  0  0  0  0  0  0  0  0  0  0
   -4.9040   -4.3570    0.0720 Cl  0  0  0  0  0  0  0  0  0  0  0  0
    4.6450    1.6190   -0.9870 S   0  0  0  0  0  0  0  0  0  0  0  0
    6.1670    2.2780   -0.4950 C   0  0  0  0  0  0  0  0  0  0  0  0
    6.6480    3.6580   -0.8150 C   0  0  0  0  0  0  0  0  0  0  0  0
    6.7620    1.2570    0.2220 C   0  0  0  0  0  0  0  0  0  0  0  0
    8.1540    1.5490    0.7760 C   0  0  0  0  0  0  0  0  0  0  0  0
  1  2  1  0
  2  3  2  0
  2  4  1  0
  4  5  2  0
  4 43  1  0
  5  6  1  0
  5 40  1  0
  6  7  1  0
  7  8  2  0
  7  9  1  0
  9 10  1  0
 10 11  1  0
 11 12  1  6
 11 13  1  0
 11 28  1  0
 13 14  1  0
 14 15  1  0
 15 16  1  0
 15 27  1  0
 16 17  2  0
 16 18  1  0
 18 19  1  6
 18 20  1  0
 20 21  2  0
 20 26  1  0
 21 22  1  0
 22 23  2  0
 23 24  1  0
 23 25  1  0
 25 26  2  0
 27 28  1  0
 28 29  1  1
 29 30  1  0
 30 31  1  0
 31 32  1  0
 32 33  2  0
 32 38  1  0
 33 34  1  0
 34 35  2  0
 35 36  1  0
 35 37  1  0
 37 38  2  0
 38 39  1  0
 40 41  1  0
 41 42  1  0
 41 43  2  0
 43 44  1  0
M  END
