
     RDKit          3D

 44 47  0  0  0  0  0  0  0  0999 V2000
    1.3820   -0.0230   -3.7170 C   0  0  0  0  0  0  0  0  0  0  0  0
    0.3860    0.7270   -3.3080 C   0  0  0  0  0  0  0  0  0  0  0  0
   -0.2160    0.7650   -1.9750 C   0  0  0  0  0  0  0  0  0  0  0  0
    0.4070   -0.1190   -1.0870 O   0  0  0  0  0  0  0  0  0  0  0  0
    1.7500    0.0760   -0.6890 C   0  0  0  0  0  0  0  0  0  0  0  0
    2.2850    1.0740   -1.1780 O   0  0  0  0  0  0  0  0  0  0  0  0
    2.4300   -0.8250    0.2110 C   0  0  0  0  0  0  0  0  0  0  0  0
    1.6840   -1.8590    0.7030 C   0  0  0  0  0  0  0  0  0  0  0  0
    0.3000   -2.1110    0.4110 C   0  0  0  0  0  0  0  0  0  0  0  0
   -0.0860   -3.2150   -0.3080 C   0  0  0  0  0  0  0  0  0  0  0  0
   -1.4220   -3.5130   -0.5480 C   0  0  0  0  0  0  0  0  0  0  0  0
   -2.4490   -2.7240   -0.0830 C   0  0  0  0  0  0  0  0  0  0  0  0
   -3.8080   -3.0180   -0.3440 N   0  0  0  0  0  0  0  0  0  0  0  0
   -4.2870   -4.1660   -0.9940 C   0  0  0  0  0  0  0  0  0  0  0  0
   -3.5550   -5.0880   -1.4250 O   0  0  0  0  0  0  0  0  0  0  0  0
   -5.7770   -4.3010   -1.1900 C   0  0  1  0  0  0  0  0  0  0  0  0
   -6.2510   -5.1320   -2.3470 C   0  0  0  0  0  0  0  0  0  0  0  0
   -6.3890   -5.6470   -0.9770 C   0  0  0  0  0  0  0  0  0  0  0  0
   -2.0800   -1.6060    0.6450 C   0  0  0  0  0  0  0  0  0  0  0  0
   -3.0990   -0.6980    1.2130 C   0  0  2  0  0  0  0  0  0  0  0  0
   -3.9560   -1.5010    2.1650 C   0  0  0  0  0  0  0  0  0  0  0  0
   -3.8390    0.0040    0.1320 C   0  0  0  0  0  0  0  0  0  0  0  0
   -3.5740    1.5130    0.0890 C   0  0  0  0  0  0  0  0  0  0  0  0
   -3.9810    2.1980    1.3450 C   0  0  2  0  0  0  0  0  0  0  0  0
   -3.3690    3.5110    1.3870 N   0  0  0  0  0  0  0  0  0  0  0  0
   -3.8740    4.2780    0.2720 C   0  0  0  0  0  0  0  0  0  0  0  0
   -3.2930    5.6770    0.2450 C   0  0  0  0  0  0  0  0  0  0  0  0
   -1.5330    5.6140    0.1030 Cl  0  0  0  0  0  0  0  0  0  0  0  0
   -3.5510    1.3180    2.4990 C   0  0  0  0  0  0  0  0  0  0  0  0
   -2.4350    0.3860    2.0660 C   0  0  0  0  0  0  0  0  0  0  0  0
   -0.7540   -1.3230    0.8750 C   0  0  0  0  0  0  0  0  0  0  0  0
    3.7650   -0.7890    0.7080 C   0  0  0  0  0  0  0  0  0  0  0  0
    3.9980   -1.7470    1.5970 O   0  0  0  0  0  0  0  0  0  0  0  0
    4.8880    0.0100    0.4880 N   0  0  0  0  0  0  0  0  0  0  0  0
    5.0620    1.0970   -0.4870 C   0  0  0  0  0  0  0  0  0  0  0  0
    6.5380    1.3560   -0.5740 C   0  0  1  0  0  0  0  0  0  0  0  0
    6.9100    1.2680   -1.9310 O   0  0  0  0  0  0  0  0  0  0  0  0
    6.9680    2.6580   -0.0060 C   0  0  0  0  0  0  0  0  0  0  0  0
    6.3100    4.1230   -0.7650 S   0  0  0  0  0  0  0  0  0  0  0  0
    4.5710    4.3870   -0.4910 C   0  0  0  0  0  0  0  0  0  0  0  0
    7.1840    0.2050    0.1840 C   0  0  0  0  0  0  0  0  0  0  0  0
    6.1540   -0.0150    1.2420 C   0  0  2  0  0  0  0  0  0  0  0  0
    6.3890   -1.2620    2.0300 C   0  0  0  0  0  0  0  0  0  0  0  0
    6.4290   -2.4210    1.2760 O   0  0  0  0  0  0  0  0  0  0  0  0
  1  2  2  0
  2  3  1  0
  3  4  1  0
  4  5  1  0
  5  6  2  0
  5  7  1  0
  7  8  2  3
  7 32  1  0
  8  9  1  0
  9 10  2  0
  9 31  1  0
 10 11  1  0
 11 12  2  0
 12 13  1  0
 12 19  1  0
 13 14  1  0
 14 15  2  0
 16 14  1  6
 16 17  1  0
 16 18  1  0
 17 18  1  0
 19 20  1  0
 19 31  2  0
 20 21  1  1
 20 22  1  0
 20 30  1  0
 22 23  1  0
 23 24  1  0
 24 25  1  1
 24 29  1  0
 25 26  1  0
 26 27  1  0
 27 28  1  0
 29 30  1  0
 32 33  2  0
 32 34  1  0
 34 35  1  0
 34 42  1  0
 35 36  1  0
 36 37  1  6
 36 38  1  0
 36 41  1  0
 38 39  1  0
 39 40  1  0
 41 42  1  0
 42 43  1  6
 43 44  1  0
M  END
