
     RDKit          3D

 44 47  0  0  0  0  0  0  0  0999 V2000
   -3.8350    0.5400   -2.7690 C   0  0  0  0  0  0  0  0  0  0  0  0
   -3.1900    1.8640   -2.5170 C   0  0  0  0  0  0  0  0  0  0  0  0
   -2.6040    1.9630   -1.2040 N   0  0  0  0  0  0  0  0  0  0  0  0
   -3.1860    2.5620   -0.0460 C   0  0  0  0  0  0  0  0  0  0  0  0
   -3.8330    1.6440    0.9100 C   0  0  1  0  0  0  0  0  0  0  0  0
   -5.0850    0.9890    0.3300 C   0  0  0  0  0  0  0  0  0  0  0  0
   -5.8760    0.5430    1.4370 N   0  0  0  0  0  0  0  0  0  0  0  0
   -7.1960    0.9860    1.5340 C   0  0  0  0  0  0  0  0  0  0  0  0
   -8.1170    0.3920    0.5070 C   0  0  1  0  0  0  0  0  0  0  0  0
   -9.5430    0.8340    0.8750 C   0  0  0  0  0  0  0  0  0  0  0  0
   -7.8370    0.7810   -0.9090 C   0  0  0  0  0  0  0  0  0  0  0  0
   -8.1330   -1.0150    0.6150 O   0  0  0  0  0  0  0  0  0  0  0  0
   -5.1290    0.3430    2.6450 C   0  0  0  0  0  0  0  0  0  0  0  0
   -3.7490   -0.2040    2.2590 C   0  0  0  0  0  0  0  0  0  0  0  0
   -3.0340    0.6640    1.4470 O   0  0  0  0  0  0  0  0  0  0  0  0
   -1.2470    1.4960   -1.0530 C   0  0  0  0  0  0  0  0  0  0  0  0
   -0.6590    1.5480    0.0640 O   0  0  0  0  0  0  0  0  0  0  0  0
   -0.5300    0.9510   -2.2050 C   0  0  0  0  0  0  0  0  0  0  0  0
    0.8570    0.5180   -1.8520 C   0  0  0  0  0  0  0  0  0  0  0  0
    1.9500    1.3390   -1.9960 C   0  0  0  0  0  0  0  0  0  0  0  0
    3.2230    0.9310   -1.6670 C   0  0  0  0  0  0  0  0  0  0  0  0
    3.4840   -0.3490   -1.1630 C   0  0  0  0  0  0  0  0  0  0  0  0
    4.8650   -0.7600   -0.8610 C   0  0  0  0  0  0  0  0  0  0  0  0
    6.1130    0.4840   -0.9570 S   0  0  0  0  0  0  0  0  0  0  0  0
    6.5060    0.8650   -2.3600 O   0  0  0  0  0  0  0  0  0  0  0  0
    5.9560    1.8370    0.1310 C   0  0  0  0  0  0  0  0  0  0  0  0
    5.6460    3.1230   -0.2000 C   0  0  0  0  0  0  0  0  0  0  0  0
    5.5280    4.1640    0.7160 C   0  0  0  0  0  0  0  0  0  0  0  0
    5.7340    3.9060    2.0470 C   0  0  0  0  0  0  0  0  0  0  0  0
    5.5960    5.1890    3.2310 Cl  0  0  0  0  0  0  0  0  0  0  0  0
    6.0510    2.6180    2.4300 C   0  0  0  0  0  0  0  0  0  0  0  0
    6.2850    2.2950    3.8820 C   0  0  0  0  0  0  0  0  0  0  0  0
    6.1600    1.6060    1.5020 C   0  0  0  0  0  0  0  0  0  0  0  0
    2.4000   -1.1810   -1.0150 C   0  0  0  0  0  0  0  0  0  0  0  0
    2.5170   -2.5630   -0.4930 C   0  0  2  0  0  0  0  0  0  0  0  0
    2.6960   -2.5150    0.8960 O   0  0  0  0  0  0  0  0  0  0  0  0
    3.5500   -3.3100   -1.2090 C   0  0  0  0  0  0  0  0  0  0  0  0
    3.4530   -3.3260   -2.5000 O   0  0  0  0  0  0  0  0  0  0  0  0
    4.6150   -4.0040   -0.6440 N   0  0  0  0  0  0  0  0  0  0  0  0
    5.6330   -4.7250   -1.4160 C   0  0  0  0  0  0  0  0  0  0  0  0
    6.2620   -5.7250   -0.4890 C   0  0  0  0  0  0  0  0  0  0  0  0
    5.3950   -5.6710    0.7450 C   0  0  0  0  0  0  0  0  0  0  0  0
    4.9750   -4.1890    0.7220 C   0  0  0  0  0  0  0  0  0  0  0  0
    1.1120   -0.7360   -1.3600 C   0  0  0  0  0  0  0  0  0  0  0  0
  1  2  1  0
  2  3  1  0
  3  4  1  0
  3 16  1  0
  5  4  1  6
  5  6  1  0
  5 15  1  0
  6  7  1  0
  7  8  1  0
  7 13  1  0
  8  9  1  0
  9 10  1  1
  9 11  1  0
  9 12  1  0
 13 14  1  0
 14 15  1  0
 16 17  2  0
 16 18  1  0
 18 19  1  0
 19 20  2  0
 19 44  1  0
 20 21  1  0
 21 22  2  0
 22 23  1  0
 22 34  1  0
 24 23  1  6
 24 25  2  0
 24 26  1  0
 26 27  2  0
 26 33  1  0
 27 28  1  0
 28 29  2  0
 29 30  1  0
 29 31  1  0
 31 32  1  0
 31 33  2  0
 34 35  1  0
 34 44  2  0
 35 36  1  1
 35 37  1  0
 37 38  2  0
 37 39  1  0
 39 40  1  0
 39 43  1  0
 40 41  1  0
 41 42  1  0
 42 43  1  0
M  END
