
     RDKit          3D

 44 49  0  0  0  0  0  0  0  0999 V2000
    6.1460    1.7190   -2.7230 C   0  0  0  0  0  0  0  0  0  0  0  0
    6.5190    0.8760   -1.5650 C   0  0  0  0  0  0  0  0  0  0  0  0
    7.6990    0.1900   -1.5180 C   0  0  0  0  0  0  0  0  0  0  0  0
    8.0200   -0.6080   -0.4090 C   0  0  0  0  0  0  0  0  0  0  0  0
    7.1650   -0.7180    0.6540 C   0  0  0  0  0  0  0  0  0  0  0  0
    7.5110   -1.4930    1.7650 C   0  0  0  0  0  0  0  0  0  0  0  0
    6.6740   -1.5920    2.8490 C   0  0  0  0  0  0  0  0  0  0  0  0
    7.1320   -2.5660    4.2270 Cl  0  0  0  0  0  0  0  0  0  0  0  0
    5.4720   -0.8950    2.8020 C   0  0  0  0  0  0  0  0  0  0  0  0
    5.1220   -0.1230    1.6990 C   0  0  0  0  0  0  0  0  0  0  0  0
    5.9770   -0.0240    0.5980 C   0  0  0  0  0  0  0  0  0  0  0  0
    5.6310    0.7620   -0.4690 C   0  0  0  0  0  0  0  0  0  0  0  0
    4.4390    1.5220   -0.5920 N   0  0  0  0  0  0  0  0  0  0  0  0
    3.3000    1.0800   -1.3000 C   0  0  0  0  0  0  0  0  0  0  0  0
    3.3380   -0.0530   -1.8260 O   0  0  0  0  0  0  0  0  0  0  0  0
    2.0770    1.9190   -1.4480 C   0  0  0  0  0  0  0  0  0  0  0  0
    1.1520    1.1250   -2.2850 N   0  0  0  0  0  0  0  0  0  0  0  0
    1.2040    1.1380   -3.7390 C   0  0  0  0  0  0  0  0  0  0  0  0
    2.0070    1.8220   -4.3940 O   0  0  0  0  0  0  0  0  0  0  0  0
    0.1510    0.2140   -4.1800 C   0  0  0  0  0  0  0  0  0  0  0  0
   -0.2990   -0.1870   -5.3440 C   0  0  0  0  0  0  0  0  0  0  0  0
   -1.6280   -1.3500   -5.0670 S   0  0  0  0  0  0  0  0  0  0  0  0
   -1.5780   -1.2620   -3.2420 C   0  0  0  0  0  0  0  0  0  0  0  0
   -0.4650   -0.2950   -3.0200 C   0  0  0  0  0  0  0  0  0  0  0  0
    0.1140    0.2410   -1.9200 C   0  0  0  0  0  0  0  0  0  0  0  0
   -0.2740    0.0490   -0.5240 C   0  0  0  0  0  0  0  0  0  0  0  0
    0.3150    0.6560    0.4110 O   0  0  0  0  0  0  0  0  0  0  0  0
   -1.3120   -0.7910   -0.0850 O   0  0  0  0  0  0  0  0  0  0  0  0
   -1.7320   -0.8730    1.2520 C   0  0  2  0  0  0  0  0  0  0  0  0
   -1.0820   -1.8450    2.1860 C   0  0  0  0  0  0  0  0  0  0  0  0
   -3.1280   -0.5330    1.4970 C   0  0  0  0  0  0  0  0  0  0  0  0
   -3.5040    0.6320    2.1340 C   0  0  0  0  0  0  0  0  0  0  0  0
   -4.8140    1.0640    2.1870 C   0  0  0  0  0  0  0  0  0  0  0  0
   -5.2670    2.3750    2.7420 C   0  0  1  0  0  0  0  0  0  0  0  0
   -4.1820    3.1780    3.3940 C   0  0  0  0  0  0  0  0  0  0  0  0
   -5.8110    3.1270    1.6520 O   0  0  0  0  0  0  0  0  0  0  0  0
   -5.7880    0.2690    1.5710 C   0  0  0  0  0  0  0  0  0  0  0  0
   -7.1580    0.6710    1.6130 N   0  0  0  0  0  0  0  0  0  0  0  0
   -5.4200   -0.8990    0.9380 C   0  0  0  0  0  0  0  0  0  0  0  0
   -4.1160   -1.2990    0.8940 C   0  0  0  0  0  0  0  0  0  0  0  0
   -3.9570   -2.5820    0.2000 C   0  0  2  0  0  0  0  0  0  0  0  0
   -3.0290   -2.5750   -0.8140 O   0  0  0  0  0  0  0  0  0  0  0  0
   -5.3130   -2.8220   -0.4060 C   0  0  0  0  0  0  0  0  0  0  0  0
   -6.2700   -1.8930    0.2570 C   0  0  0  0  0  0  0  0  0  0  0  0
  1  2  1  0
  2  3  2  0
  2 12  1  0
  3  4  1  0
  4  5  2  0
  5  6  1  0
  5 11  1  0
  6  7  2  0
  7  8  1  0
  7  9  1  0
  9 10  2  0
 10 11  1  0
 11 12  2  0
 12 13  1  0
 13 14  1  0
 14 15  2  0
 14 16  1  0
 16 17  1  0
 17 18  1  0
 17 25  1  0
 18 19  2  0
 18 20  1  0
 20 21  2  0
 20 24  1  0
 21 22  1  0
 22 23  1  0
 23 24  1  0
 24 25  2  0
 25 26  1  0
 26 27  2  0
 26 28  1  0
 28 29  1  0
 29 30  1  6
 29 31  1  0
 31 32  2  0
 31 40  1  0
 32 33  1  0
 33 34  1  0
 33 37  2  0
 34 35  1  6
 34 36  1  0
 37 38  1  0
 37 39  1  0
 39 40  2  0
 39 44  1  0
 40 41  1  0
 41 42  1  6
 41 43  1  0
 43 44  1  0
M  END
