
     RDKit          3D

 44 48  0  0  0  0  0  0  0  0999 V2000
   -9.6750    3.1800    1.4800 C   0  0  0  0  0  0  0  0  0  0  0  0
   -8.8450    3.9160    0.7120 O   0  0  0  0  0  0  0  0  0  0  0  0
   -8.0480    3.2480   -0.1920 C   0  0  0  0  0  0  0  0  0  0  0  0
   -7.1930    2.2270    0.4870 C   0  0  0  0  0  0  0  0  0  0  0  0
   -6.2050    1.5180   -0.3990 C   0  0  2  0  0  0  0  0  0  0  0  0
   -6.7730    0.7700   -1.5380 C   0  0  0  0  0  0  0  0  0  0  0  0
   -6.8390   -0.6870   -1.3810 C   0  0  0  0  0  0  0  0  0  0  0  0
   -7.6250   -1.4200   -2.2360 C   0  0  0  0  0  0  0  0  0  0  0  0
   -7.7770   -2.7970   -2.1620 C   0  0  0  0  0  0  0  0  0  0  0  0
   -8.7610   -3.7180   -3.2810 Cl  0  0  0  0  0  0  0  0  0  0  0  0
   -7.1000   -3.4600   -1.1740 C   0  0  0  0  0  0  0  0  0  0  0  0
   -7.2130   -4.8450   -1.0630 O   0  0  0  0  0  0  0  0  0  0  0  0
   -6.2980   -2.7980   -0.2800 C   0  0  0  0  0  0  0  0  0  0  0  0
   -6.1680   -1.4170   -0.3840 C   0  0  0  0  0  0  0  0  0  0  0  0
   -5.4020   -0.7480    0.6090 N   0  0  0  0  0  0  0  0  0  0  0  0
   -4.8660   -1.3570    1.7820 C   0  0  0  0  0  0  0  0  0  0  0  0
   -3.4890   -1.6390    1.9480 C   0  0  0  0  0  0  0  0  0  0  0  0
   -3.1180   -2.1630    3.0880 O   0  0  0  0  0  0  0  0  0  0  0  0
   -2.3620   -1.4320    1.0640 N   0  0  0  0  0  0  0  0  0  0  0  0
   -1.1250   -1.7120    1.7010 C   0  0  0  0  0  0  0  0  0  0  0  0
    0.1540   -1.3550    1.1600 C   0  0  0  0  0  0  0  0  0  0  0  0
    0.9580   -2.0650    0.3540 C   0  0  0  0  0  0  0  0  0  0  0  0
    2.3360   -1.7970    0.1630 C   0  0  0  0  0  0  0  0  0  0  0  0
    3.1420   -2.7540   -0.6120 C   0  0  0  0  0  0  0  0  0  0  0  0
    2.9370   -0.7330    0.8260 C   0  0  0  0  0  0  0  0  0  0  0  0
    4.3450   -0.3340    0.7870 C   0  0  0  0  0  0  0  0  0  0  0  0
    4.7360    0.6590   -0.2030 C   0  0  0  0  0  0  0  0  0  0  0  0
    4.3120    1.8940   -0.0250 O   0  0  0  0  0  0  0  0  0  0  0  0
    5.5220    0.5050   -1.3180 N   0  0  0  0  0  0  0  0  0  0  0  0
    5.9710   -0.8040   -1.7870 C   0  0  0  0  0  0  0  0  0  0  0  0
    6.1500    1.6770   -2.0540 C   0  0  0  0  0  0  0  0  0  0  0  0
    7.4550    1.7200   -1.3680 C   0  0  0  0  0  0  0  0  0  0  0  0
    8.6950    1.2950   -1.6870 C   0  0  0  0  0  0  0  0  0  0  0  0
    9.6720    1.3880   -0.7610 C   0  0  0  0  0  0  0  0  0  0  0  0
    9.4130    1.8960    0.4440 C   0  0  0  0  0  0  0  0  0  0  0  0
    7.6850    2.2990    0.3340 S   0  0  0  0  0  0  0  0  0  0  0  0
   10.5220    1.9430    1.3820 C   0  0  0  0  0  0  0  0  0  0  0  0
   11.6730    1.4820    0.5630 C   0  0  0  0  0  0  0  0  0  0  0  0
   11.1450    0.9750   -0.7420 C   0  0  0  0  0  0  0  0  0  0  0  0
    2.0850    0.0270    1.6660 C   0  0  0  0  0  0  0  0  0  0  0  0
    0.7950   -0.2430    1.8390 C   0  0  0  0  0  0  0  0  0  0  0  0
   -0.0820    0.4680    2.6570 O   0  0  0  0  0  0  0  0  0  0  0  0
   -5.3760    0.6930    0.4830 C   0  0  0  0  0  0  0  0  0  0  0  0
   -4.5220    1.2760    1.2320 O   0  0  0  0  0  0  0  0  0  0  0  0
  1  2  1  0
  2  3  1  0
  3  4  1  0
  5  4  1  1
  5  6  1  0
  5 43  1  0
  6  7  1  0
  7  8  2  0
  7 14  1  0
  8  9  1  0
  9 10  1  0
  9 11  2  0
 11 12  1  0
 11 13  1  0
 13 14  2  0
 14 15  1  0
 15 16  1  0
 15 43  1  0
 16 17  1  0
 17 18  2  0
 17 19  1  0
 19 20  1  0
 20 21  1  0
 21 22  2  0
 21 41  1  0
 22 23  1  0
 23 24  1  0
 23 25  2  0
 25 26  1  0
 25 40  1  0
 26 27  1  0
 27 28  2  0
 27 29  1  0
 29 30  1  0
 29 31  1  0
 31 32  1  0
 32 33  2  0
 32 36  1  0
 33 34  1  0
 34 35  2  0
 34 39  1  0
 35 36  1  0
 35 37  1  0
 37 38  1  0
 38 39  1  0
 40 41  2  0
 41 42  1  0
 43 44  2  0
M  END
