
     RDKit          3D

 28 31  0  0  0  0  0  0  0  0999 V2000
   -6.6820    2.2150    1.8960 C   0  0  0  0  0  0  0  0  0  0  0  0
   -6.6580    1.0140    1.1440 O   0  0  0  0  0  0  0  0  0  0  0  0
   -5.4500    0.5960    0.5730 C   0  0  0  0  0  0  0  0  0  0  0  0
   -5.3670   -0.5640   -0.1690 C   0  0  0  0  0  0  0  0  0  0  0  0
   -4.1900   -0.9960   -0.7410 C   0  0  0  0  0  0  0  0  0  0  0  0
   -3.0360   -0.2550   -0.5810 C   0  0  0  0  0  0  0  0  0  0  0  0
   -3.1080    0.9050    0.1580 C   0  0  0  0  0  0  0  0  0  0  0  0
   -4.3010    1.3320    0.7320 C   0  0  0  0  0  0  0  0  0  0  0  0
   -1.8310    1.4250    0.1500 C   0  0  0  0  0  0  0  0  0  0  0  0
   -1.0260    0.5670   -0.5920 C   0  0  0  0  0  0  0  0  0  0  0  0
    0.4180    0.7760   -0.8380 C   0  0  0  0  0  0  0  0  0  0  0  0
    1.0810   -0.0340   -1.5170 O   0  0  0  0  0  0  0  0  0  0  0  0
    1.0820    1.8740   -0.3260 O   0  0  0  0  0  0  0  0  0  0  0  0
    2.4260    2.1820   -0.4840 C   0  0  0  0  0  0  0  0  0  0  0  0
    3.3550    1.1580    0.0440 C   0  0  0  0  0  0  0  0  0  0  0  0
    4.7260    1.3270    0.0190 C   0  0  0  0  0  0  0  0  0  0  0  0
    5.2890    0.2170    0.5720 C   0  0  0  0  0  0  0  0  0  0  0  0
    6.5930   -0.1400    0.7960 C   0  0  0  0  0  0  0  0  0  0  0  0
    6.9070   -1.3440    1.3850 C   0  0  0  0  0  0  0  0  0  0  0  0
    5.8530   -2.1860    1.7440 C   0  0  0  0  0  0  0  0  0  0  0  0
    4.5500   -1.8260    1.5190 C   0  0  0  0  0  0  0  0  0  0  0  0
    4.2230   -0.6120    0.9260 C   0  0  0  0  0  0  0  0  0  0  0  0
    3.1160   -0.0080    0.5920 O   0  0  0  0  0  0  0  0  0  0  0  0
   -1.7660   -0.4500   -1.0310 N   0  0  0  0  0  0  0  0  0  0  0  0
   -1.3440   -1.5880   -1.8420 C   0  0  0  0  0  0  0  0  0  0  0  0
   -0.9010   -2.7250   -1.0260 C   0  0  0  0  0  0  0  0  0  0  0  0
   -1.7360   -3.5820   -0.6520 O   0  0  0  0  0  0  0  0  0  0  0  0
    0.4110   -2.9080   -0.6390 O   0  0  0  0  0  0  0  0  0  0  0  0
  1  2  1  0
  2  3  1  0
  3  4  2  0
  3  8  1  0
  4  5  1  0
  5  6  2  0
  6  7  1  0
  6 24  1  0
  7  8  2  0
  7  9  1  0
  9 10  2  0
 10 11  1  0
 10 24  1  0
 11 12  2  0
 11 13  1  0
 13 14  1  0
 14 15  1  0
 15 16  2  0
 15 23  1  0
 16 17  1  0
 17 18  2  0
 17 22  1  0
 18 19  1  0
 19 20  2  0
 20 21  1  0
 21 22  2  0
 22 23  1  0
 24 25  1  0
 25 26  1  0
 26 27  2  0
 26 28  1  0
M  END
