
     RDKit          3D

 44 47  0  0  0  0  0  0  0  0999 V2000
    6.2480   -1.5010    1.7890 C   0  0  0  0  0  0  0  0  0  0  0  0
    6.1370   -2.0240    0.4390 N   0  0  0  0  0  0  0  0  0  0  0  0
    4.8580   -1.7630   -0.2350 C   0  0  0  0  0  0  0  0  0  0  0  0
    3.8600   -2.8220    0.0020 C   0  0  0  0  0  0  0  0  0  0  0  0
    4.8090   -0.8220   -1.1340 C   0  0  0  0  0  0  0  0  0  0  0  0
    6.1210   -0.1050   -1.4210 C   0  0  0  0  0  0  0  0  0  0  0  0
    6.1520    0.7630   -2.3480 O   0  0  0  0  0  0  0  0  0  0  0  0
    7.2180   -0.3650   -0.6990 O   0  0  0  0  0  0  0  0  0  0  0  0
    8.4520    0.2940   -0.9570 C   0  0  2  0  0  0  0  0  0  0  0  0
    9.5710   -0.1220   -0.1010 C   0  0  0  0  0  0  0  0  0  0  0  0
    9.8130    1.3080    0.3090 C   0  0  0  0  0  0  0  0  0  0  0  0
    8.3740    1.6200   -0.0140 C   0  0  0  0  0  0  0  0  0  0  0  0
    3.6680   -0.0890   -1.6300 C   0  0  0  0  0  0  0  0  0  0  0  0
    3.9480    0.5840   -2.7260 O   0  0  0  0  0  0  0  0  0  0  0  0
    2.3780    0.0280   -1.1660 C   0  0  0  0  0  0  0  0  0  0  0  0
    0.9700    0.5620   -2.2930 S   0  0  0  0  0  0  0  0  0  0  0  0
   -0.2910    0.6020   -0.9780 C   0  0  0  0  0  0  0  0  0  0  0  0
   -1.6580    0.9870   -1.0970 N   0  0  0  0  0  0  0  0  0  0  0  0
   -2.4770    0.3610    0.0140 C   0  0  1  0  0  0  0  0  0  0  0  0
   -3.6130    1.1000    0.4170 C   0  0  0  0  0  0  0  0  0  0  0  0
   -4.8080    1.4930    0.0910 C   0  0  0  0  0  0  0  0  0  0  0  0
   -5.4890    2.5360    1.4520 Cl  0  0  0  0  0  0  0  0  0  0  0  0
   -5.7110    1.3790   -1.0380 C   0  0  0  0  0  0  0  0  0  0  0  0
   -6.9260    1.2640   -1.4210 C   0  0  0  0  0  0  0  0  0  0  0  0
   -8.3170    1.1800   -0.9560 C   0  0  0  0  0  0  0  0  0  0  0  0
   -9.1950    2.0780   -1.6200 C   0  0  0  0  0  0  0  0  0  0  0  0
  -10.4900    2.3570   -1.3100 C   0  0  0  0  0  0  0  0  0  0  0  0
  -11.0120    1.6780   -0.2210 C   0  0  0  0  0  0  0  0  0  0  0  0
  -10.2080    0.8150    0.4270 C   0  0  0  0  0  0  0  0  0  0  0  0
   -8.8530    0.5060    0.1230 C   0  0  0  0  0  0  0  0  0  0  0  0
   -8.2020   -0.4180    0.9080 O   0  0  0  0  0  0  0  0  0  0  0  0
   -7.8990   -1.7850    0.8120 C   0  0  0  0  0  0  0  0  0  0  0  0
   -6.6530   -2.1110    0.3080 C   0  0  0  0  0  0  0  0  0  0  0  0
   -5.6770   -2.3690   -0.0670 C   0  0  0  0  0  0  0  0  0  0  0  0
   -4.3160   -2.7150   -0.6110 C   0  0  0  0  0  0  0  0  0  0  0  0
   -3.3380   -2.0140    0.3450 C   0  0  1  0  0  0  0  0  0  0  0  0
   -2.5070   -2.9830    0.8560 O   0  0  0  0  0  0  0  0  0  0  0  0
   -2.5920   -1.0520   -0.4810 C   0  0  0  0  0  0  0  0  0  0  0  0
    0.4140    0.2680   -0.0120 N   0  0  0  0  0  0  0  0  0  0  0  0
    1.6620   -0.0190    0.0330 C   0  0  0  0  0  0  0  0  0  0  0  0
    2.4040   -0.2250    1.3590 C   0  0  0  0  0  0  0  0  0  0  0  0
    3.3720    0.9220    1.6010 C   0  0  0  0  0  0  0  0  0  0  0  0
    2.7110    2.2550    1.6530 C   0  0  0  0  0  0  0  0  0  0  0  0
    3.6900    3.2240    1.8740 O   0  0  0  0  0  0  0  0  0  0  0  0
  1  2  1  0
  2  3  1  0
  3  4  1  0
  3  5  2  3
  5  6  1  0
  5 13  1  0
  6  7  2  0
  6  8  1  0
  9  8  1  1
  9 10  1  0
  9 12  1  0
 10 11  1  0
 11 12  1  0
 13 14  2  0
 13 15  1  0
 15 16  1  0
 15 40  2  0
 16 17  1  0
 17 18  1  0
 17 39  2  0
 19 18  1  6
 19 20  1  0
 19 38  1  0
 20 21  2  0
 21 22  1  0
 21 23  1  0
 23 24  2  0
 24 25  1  0
 25 26  2  0
 25 30  1  0
 26 27  1  0
 27 28  2  0
 28 29  1  0
 29 30  2  0
 30 31  1  0
 31 32  1  0
 32 33  1  0
 33 34  3  0
 34 35  1  0
 35 36  1  0
 36 37  1  6
 36 38  1  0
 39 40  1  0
 40 41  1  0
 41 42  1  0
 42 43  1  0
 43 44  1  0
M  END
