
     RDKit          3D

 31 32  0  0  0  0  0  0  0  0999 V2000
    7.5590   -0.9730   -0.6370 C   0  0  0  0  0  0  0  0  0  0  0  0
    6.1430   -1.4200   -0.4940 C   0  0  0  0  0  0  0  0  0  0  0  0
    5.7730   -2.7240   -0.7220 C   0  0  0  0  0  0  0  0  0  0  0  0
    4.4790   -3.1180   -0.5880 C   0  0  0  0  0  0  0  0  0  0  0  0
    3.4790   -2.2070   -0.2120 C   0  0  0  0  0  0  0  0  0  0  0  0
    3.7990   -0.9100    0.0220 C   0  0  0  0  0  0  0  0  0  0  0  0
    2.8910    0.1300    0.4100 C   0  0  0  0  0  0  0  0  0  0  0  0
    3.4140    1.3300    0.5940 O   0  0  0  0  0  0  0  0  0  0  0  0
    1.5120    0.0850    0.6290 N   0  0  0  0  0  0  0  0  0  0  0  0
    0.6730   -1.0660    0.5060 C   0  0  0  0  0  0  0  0  0  0  0  0
   -0.7970   -0.7560    0.8850 C   0  0  0  0  0  0  0  0  0  0  0  0
   -1.6190   -1.7480    0.3470 O   0  0  0  0  0  0  0  0  0  0  0  0
   -2.9270   -1.6310    0.7780 C   0  0  2  0  0  0  0  0  0  0  0  0
   -3.0210   -1.5400    2.2910 C   0  0  0  0  0  0  0  0  0  0  0  0
   -3.5990   -2.9650    0.4160 C   0  0  0  0  0  0  0  0  0  0  0  0
   -3.6040   -0.4670    0.1080 C   0  0  1  0  0  0  0  0  0  0  0  0
   -4.7710   -1.0290   -0.6970 C   0  0  0  0  0  0  0  0  0  0  0  0
   -4.1670    0.4360    1.0370 O   0  0  0  0  0  0  0  0  0  0  0  0
   -4.5190    1.7380    0.7710 C   0  0  0  0  0  0  0  0  0  0  0  0
   -5.6450    2.2520    1.0010 O   0  0  0  0  0  0  0  0  0  0  0  0
   -3.5070    2.6340    0.1630 C   0  0  0  0  0  0  0  0  0  0  0  0
   -2.3580    2.9110    1.1240 C   0  0  0  0  0  0  0  0  0  0  0  0
   -1.3830    3.7410    0.3990 C   0  0  0  0  0  0  0  0  0  0  0  0
   -0.2360    3.4180   -0.1300 C   0  0  0  0  0  0  0  0  0  0  0  0
    0.4330    2.1310   -0.1590 C   0  0  0  0  0  0  0  0  0  0  0  0
    0.7560    1.6090   -1.3330 C   0  0  0  0  0  0  0  0  0  0  0  0
    0.4890    2.2350   -2.6140 C   0  0  0  0  0  0  0  0  0  0  0  0
   -0.0890    3.3560   -2.7270 O   0  0  0  0  0  0  0  0  0  0  0  0
    0.8760    1.5940   -3.7950 O   0  0  0  0  0  0  0  0  0  0  0  0
    0.8290    1.3510    1.0380 C   0  0  0  0  0  0  0  0  0  0  0  0
    5.1490   -0.5500   -0.1290 C   0  0  0  0  0  0  0  0  0  0  0  0
  1  2  1  0
  2  3  2  0
  2 31  1  0
  3  4  1  0
  4  5  2  0
  5  6  1  0
  6  7  1  0
  6 31  2  0
  7  8  2  0
  7  9  1  0
  9 10  1  0
  9 30  1  0
 10 11  1  0
 11 12  1  0
 12 13  1  0
 13 14  1  1
 13 15  1  0
 13 16  1  0
 16 17  1  6
 16 18  1  0
 18 19  1  0
 19 20  2  0
 19 21  1  0
 21 22  1  0
 22 23  1  0
 23 24  2  0
 24 25  1  0
 25 26  2  3
 25 30  1  0
 26 27  1  0
 27 28  2  0
 27 29  1  0
M  END
