
     RDKit          3D

 29 31  0  0  0  0  0  0  0  0999 V2000
    8.5480    2.7960   -0.1220 C   0  0  0  0  0  0  0  0  0  0  0  0
    8.5120    1.4440   -0.7570 C   0  0  0  0  0  0  0  0  0  0  0  0
    7.1910    0.7700   -0.5680 C   0  0  0  0  0  0  0  0  0  0  0  0
    6.2510    1.3890    0.0950 C   0  0  0  0  0  0  0  0  0  0  0  0
    4.9530    0.8060    0.3200 C   0  0  0  0  0  0  0  0  0  0  0  0
    4.0780    1.4750    0.9810 O   0  0  0  0  0  0  0  0  0  0  0  0
    4.6490   -0.4780   -0.1790 N   0  0  0  0  0  0  0  0  0  0  0  0
    3.3300   -0.9730    0.0960 C   0  0  0  0  0  0  0  0  0  0  0  0
    2.3360   -0.5990    0.6620 N   0  0  0  0  0  0  0  0  0  0  0  0
    1.2110   -1.2190    0.8020 C   0  0  0  0  0  0  0  0  0  0  0  0
    1.1130   -2.4860    0.2310 C   0  0  0  0  0  0  0  0  0  0  0  0
    0.1070   -3.4270    0.1690 N   0  0  0  0  0  0  0  0  0  0  0  0
    0.3080   -4.6860   -0.5100 C   0  0  0  0  0  0  0  0  0  0  0  0
   -1.1600   -3.1580    0.7870 C   0  0  0  0  0  0  0  0  0  0  0  0
   -1.8060   -1.9350    0.1880 C   0  0  0  0  0  0  0  0  0  0  0  0
   -2.9890   -1.4050    0.5440 N   0  0  0  0  0  0  0  0  0  0  0  0
   -3.2470   -0.3200   -0.2020 C   0  0  0  0  0  0  0  0  0  0  0  0
   -4.3910    0.5830   -0.1880 C   0  0  0  0  0  0  0  0  0  0  0  0
   -4.6110    1.6920   -0.9770 C   0  0  0  0  0  0  0  0  0  0  0  0
   -5.8180    2.2670   -0.6420 C   0  0  0  0  0  0  0  0  0  0  0  0
   -6.4310    3.4930   -1.2620 C   0  0  0  0  0  0  0  0  0  0  0  0
   -6.3450    1.5190    0.3510 N   0  0  0  0  0  0  0  0  0  0  0  0
   -7.5960    1.8010    0.9640 C   0  0  0  0  0  0  0  0  0  0  0  0
   -8.0840    1.1030    1.8890 O   0  0  0  0  0  0  0  0  0  0  0  0
   -5.4970    0.5030    0.6330 C   0  0  0  0  0  0  0  0  0  0  0  0
   -5.7100   -0.5540    1.6710 C   0  0  0  0  0  0  0  0  0  0  0  0
   -2.1840   -0.2030   -1.0270 N   0  0  0  0  0  0  0  0  0  0  0  0
   -1.3450   -1.1710   -0.7760 O   0  0  0  0  0  0  0  0  0  0  0  0
    2.7710   -2.6360   -0.4860 S   0  0  0  0  0  0  0  0  0  0  0  0
  1  2  1  0
  2  3  1  0
  3  4  2  3
  4  5  1  0
  5  6  2  0
  5  7  1  0
  7  8  1  0
  8  9  2  0
  8 29  1  0
  9 10  1  0
 10 11  2  0
 11 12  1  0
 11 29  1  0
 12 13  1  0
 12 14  1  0
 14 15  1  0
 15 16  2  0
 15 28  1  0
 16 17  1  0
 17 18  1  0
 17 27  2  0
 18 19  1  0
 18 25  2  0
 19 20  2  0
 20 21  1  0
 20 22  1  0
 22 23  1  0
 22 25  1  0
 23 24  2  0
 25 26  1  0
 27 28  1  0
M  END
