
     RDKit          3D

 28 30  0  0  0  0  0  0  0  0999 V2000
   -7.2790    2.2840   -0.6240 C   0  0  0  0  0  0  0  0  0  0  0  0
   -6.1220    1.7330    0.1640 C   0  0  0  0  0  0  0  0  0  0  0  0
   -4.8680    1.6530   -0.6590 C   0  0  0  0  0  0  0  0  0  0  0  0
   -3.8640    0.8990    0.0310 N   0  0  0  0  0  0  0  0  0  0  0  0
   -3.3700    1.2610    1.2530 C   0  0  0  0  0  0  0  0  0  0  0  0
   -3.6160    0.0350    2.1870 C   0  0  0  0  0  0  0  0  0  0  0  0
   -3.3090   -0.0890   -0.7740 C   0  0  0  0  0  0  0  0  0  0  0  0
   -2.2230   -0.9770   -0.4060 C   0  0  0  0  0  0  0  0  0  0  0  0
   -2.3670   -2.3700   -0.3580 C   0  0  0  0  0  0  0  0  0  0  0  0
   -3.7190   -3.0370   -0.2440 C   0  0  0  0  0  0  0  0  0  0  0  0
   -1.2060   -2.9340   -0.3720 N   0  0  0  0  0  0  0  0  0  0  0  0
   -0.2710   -2.0250   -0.4260 N   0  0  0  0  0  0  0  0  0  0  0  0
   -0.8570   -0.7880   -0.4320 C   0  0  0  0  0  0  0  0  0  0  0  0
    0.0430    0.4130   -0.4290 C   0  0  0  0  0  0  0  0  0  0  0  0
    1.3180    0.2160   -1.0950 C   0  0  1  0  0  0  0  0  0  0  0  0
    2.4910   -0.0160   -0.1700 C   0  0  0  0  0  0  0  0  0  0  0  0
    2.6750   -0.3250    1.0820 N   0  0  0  0  0  0  0  0  0  0  0  0
    3.9880   -0.4680    1.3270 N   0  0  0  0  0  0  0  0  0  0  0  0
    4.6590   -0.2430    0.2240 C   0  0  0  0  0  0  0  0  0  0  0  0
    6.0770   -0.1630   -0.0970 C   0  0  0  0  0  0  0  0  0  0  0  0
    7.1130   -0.2000    0.6800 C   0  0  0  0  0  0  0  0  0  0  0  0
    8.7100   -0.0240   -0.1120 S   0  0  1  0  0  0  0  0  0  0  0  0
    9.4600    1.4680    0.4980 C   0  0  0  0  0  0  0  0  0  0  0  0
    9.5220   -1.2320    0.0350 O   0  0  0  0  0  0  0  0  0  0  0  0
    8.3950    0.1900   -1.6090 O   0  0  0  0  0  0  0  0  0  0  0  0
    3.7320    0.0390   -0.7280 N   0  0  0  0  0  0  0  0  0  0  0  0
    1.3290   -1.1510   -1.8670 C   0  0  0  0  0  0  0  0  0  0  0  0
    1.1810   -2.1600   -0.6850 C   0  0  0  0  0  0  0  0  0  0  0  0
  1  2  1  0
  2  3  1  0
  3  4  1  0
  4  5  1  0
  4  7  1  0
  5  6  1  0
  7  8  1  0
  8  9  1  0
  8 13  2  0
  9 10  1  0
  9 11  2  0
 11 12  1  0
 12 13  1  0
 12 28  1  0
 13 14  1  0
 14 15  1  0
 15 16  1  1
 15 27  1  0
 16 17  2  0
 16 26  1  0
 17 18  1  0
 18 19  2  0
 19 20  1  0
 19 26  1  0
 20 21  2  3
 21 22  1  0
 22 23  1  1
 22 24  2  0
 22 25  2  0
 27 28  1  0
M  END
