
     RDKit          3D

 29 31  0  0  0  0  0  0  0  0999 V2000
   -4.3140    0.9190   -2.2200 C   0  0  0  0  0  0  0  0  0  0  0  0
   -3.4250   -0.2620   -1.8930 C   0  0  0  0  0  0  0  0  0  0  0  0
   -3.6440   -0.7710   -0.5580 N   0  0  0  0  0  0  0  0  0  0  0  0
   -4.8920   -1.4150   -0.2650 C   0  0  0  0  0  0  0  0  0  0  0  0
   -4.7280   -2.6880    0.5360 C   0  0  0  0  0  0  0  0  0  0  0  0
   -4.3850   -2.4510    1.9150 N   0  0  0  0  0  0  0  0  0  0  0  0
   -3.3650   -1.5740    2.3970 C   0  0  0  0  0  0  0  0  0  0  0  0
   -2.5480   -0.7500    1.7780 C   0  0  0  0  0  0  0  0  0  0  0  0
   -1.6050    0.0210    2.5610 C   0  0  0  0  0  0  0  0  0  0  0  0
   -0.8290    0.8110    1.9770 O   0  0  0  0  0  0  0  0  0  0  0  0
   -2.4800   -0.5230    0.3110 C   0  0  0  0  0  0  0  0  0  0  0  0
   -1.4970   -0.1450   -0.2290 N   0  0  0  0  0  0  0  0  0  0  0  0
   -0.2730    0.2890   -0.6150 C   0  0  0  0  0  0  0  0  0  0  0  0
   -0.0660    1.4880   -0.9760 N   0  0  0  0  0  0  0  0  0  0  0  0
    0.9710    2.2610   -1.4110 C   0  0  0  0  0  0  0  0  0  0  0  0
    1.2530    2.3250   -2.6630 O   0  0  0  0  0  0  0  0  0  0  0  0
    1.8470    3.0760   -0.5410 C   0  0  0  0  0  0  0  0  0  0  0  0
    1.7730    3.1900    0.7750 C   0  0  0  0  0  0  0  0  0  0  0  0
    2.8260    4.0980    1.2790 C   0  0  0  0  0  0  0  0  0  0  0  0
    3.5380    4.5050    0.0660 C   0  0  0  0  0  0  0  0  0  0  0  0
    2.9630    3.9100   -0.9650 C   0  0  0  0  0  0  0  0  0  0  0  0
    1.0560   -0.9490   -0.5850 S   0  0  0  0  0  0  0  0  0  0  0  0
    2.6310   -0.2950   -1.0830 C   0  0  0  0  0  0  0  0  0  0  0  0
    3.7020   -1.3740   -1.0420 C   0  0  0  0  0  0  0  0  0  0  0  0
    4.4970   -1.7100   -0.0220 N   0  0  0  0  0  0  0  0  0  0  0  0
    5.3130   -2.7320   -0.4140 C   0  0  0  0  0  0  0  0  0  0  0  0
    6.3550   -3.4240    0.3880 C   0  0  0  0  0  0  0  0  0  0  0  0
    4.9610   -2.9720   -1.6920 N   0  0  0  0  0  0  0  0  0  0  0  0
    4.0070   -2.1590   -2.0480 O   0  0  0  0  0  0  0  0  0  0  0  0
  1  2  1  0
  2  3  1  0
  3  4  1  0
  3 11  1  0
  4  5  1  0
  5  6  1  0
  6  7  1  0
  7  8  2  0
  8  9  1  0
  8 11  1  0
  9 10  2  0
 11 12  2  3
 12 13  1  0
 13 14  2  3
 13 22  1  0
 14 15  1  0
 15 16  2  0
 15 17  1  0
 17 18  2  0
 17 21  1  0
 18 19  1  0
 19 20  1  0
 20 21  2  0
 22 23  1  0
 23 24  1  0
 24 25  2  0
 24 29  1  0
 25 26  1  0
 26 27  1  0
 26 28  2  0
 28 29  1  0
M  END
