
     RDKit          3D

 29 31  0  0  0  0  0  0  0  0999 V2000
    5.2280   -0.7390    3.2940 C   0  0  0  0  0  0  0  0  0  0  0  0
    5.9670    0.1990    2.5430 O   0  0  0  0  0  0  0  0  0  0  0  0
    5.8870    0.1670    1.1580 C   0  0  0  0  0  0  0  0  0  0  0  0
    5.1440   -0.7120    0.6260 O   0  0  0  0  0  0  0  0  0  0  0  0
    6.6060    1.0850    0.2680 C   0  0  0  0  0  0  0  0  0  0  0  0
    5.7720    2.1980   -0.2820 C   0  0  0  0  0  0  0  0  0  0  0  0
    4.6510    1.7560   -1.0580 N   0  0  0  0  0  0  0  0  0  0  0  0
    4.7800    1.5420   -2.4680 C   0  0  0  0  0  0  0  0  0  0  0  0
    3.4030    1.5320   -0.4210 C   0  0  0  0  0  0  0  0  0  0  0  0
    3.2710    1.7310    0.8360 O   0  0  0  0  0  0  0  0  0  0  0  0
    2.2700    1.0830   -1.1470 N   0  0  0  0  0  0  0  0  0  0  0  0
    0.9870    0.8290   -0.6380 C   0  0  0  0  0  0  0  0  0  0  0  0
    0.5010    1.1050    0.6010 C   0  0  0  0  0  0  0  0  0  0  0  0
   -0.7880    0.7930    0.9950 C   0  0  0  0  0  0  0  0  0  0  0  0
   -1.6310    0.1900    0.1460 N   0  0  0  0  0  0  0  0  0  0  0  0
   -1.1940   -0.1020   -1.0910 C   0  0  0  0  0  0  0  0  0  0  0  0
   -2.0680   -0.7300   -2.0060 N   0  0  0  0  0  0  0  0  0  0  0  0
   -1.6750   -1.1190   -3.3350 C   0  0  0  0  0  0  0  0  0  0  0  0
   -3.4250   -0.9900   -1.5950 C   0  0  0  0  0  0  0  0  0  0  0  0
   -4.4490   -1.4600   -1.9720 N   0  0  0  0  0  0  0  0  0  0  0  0
   -5.5540   -1.5240   -1.2940 N   0  0  0  0  0  0  0  0  0  0  0  0
   -5.6840   -1.1150   -0.1950 C   0  0  0  0  0  0  0  0  0  0  0  0
   -6.7320   -1.0030    0.8400 C   0  0  0  0  0  0  0  0  0  0  0  0
   -6.5950   -0.4830    2.0510 C   0  0  0  0  0  0  0  0  0  0  0  0
   -7.8820   -0.5590    2.7860 C   0  0  0  0  0  0  0  0  0  0  0  0
   -8.8020   -1.2000    1.8280 C   0  0  0  0  0  0  0  0  0  0  0  0
   -8.1070   -1.4370    0.7320 C   0  0  0  0  0  0  0  0  0  0  0  0
   -3.9710   -0.4500    0.1410 S   0  0  0  0  0  0  0  0  0  0  0  0
    0.0920    0.2000   -1.5080 C   0  0  0  0  0  0  0  0  0  0  0  0
  1  2  1  0
  2  3  1  0
  3  4  2  0
  3  5  1  0
  5  6  1  0
  6  7  1  0
  7  8  1  0
  7  9  1  0
  9 10  2  0
  9 11  1  0
 11 12  1  0
 12 13  2  0
 12 29  1  0
 13 14  1  0
 14 15  2  0
 15 16  1  0
 16 17  1  0
 16 29  2  0
 17 18  1  0
 17 19  1  0
 19 20  2  0
 19 28  1  0
 20 21  1  0
 21 22  2  0
 22 23  1  0
 22 28  1  0
 23 24  2  0
 23 27  1  0
 24 25  1  0
 25 26  1  0
 26 27  2  0
M  END
