
     RDKit          3D

 29 31  0  0  0  0  0  0  0  0999 V2000
    6.0460   -1.6820    0.7160 C   0  0  0  0  0  0  0  0  0  0  0  0
    4.9470   -2.3980    0.6980 C   0  0  0  0  0  0  0  0  0  0  0  0
    5.0100   -3.8720    0.5700 C   0  0  0  0  0  0  0  0  0  0  0  0
    4.3210   -4.2370   -0.5900 O   0  0  0  0  0  0  0  0  0  0  0  0
    3.6520   -1.7440    0.8040 C   0  0  0  0  0  0  0  0  0  0  0  0
    2.4370   -2.3490    0.7990 N   0  0  0  0  0  0  0  0  0  0  0  0
    1.5100   -1.4360    0.9140 N   0  0  0  0  0  0  0  0  0  0  0  0
    2.1190   -0.2530    0.9920 C   0  0  0  0  0  0  0  0  0  0  0  0
    1.4460    1.0620    1.1310 C   0  0  0  0  0  0  0  0  0  0  0  0
    1.2050    1.5550   -0.2020 N   0  0  0  0  0  0  0  0  0  0  0  0
    0.3900    0.8050   -1.0950 C   0  0  0  0  0  0  0  0  0  0  0  0
   -1.0000    0.6620   -0.5950 C   0  0  0  0  0  0  0  0  0  0  0  0
   -1.5400    1.5900    0.2340 C   0  0  0  0  0  0  0  0  0  0  0  0
   -2.8420    1.4930    0.7320 C   0  0  0  0  0  0  0  0  0  0  0  0
   -3.5550    0.4190    0.3470 N   0  0  0  0  0  0  0  0  0  0  0  0
   -3.0590   -0.5220   -0.4710 C   0  0  0  0  0  0  0  0  0  0  0  0
   -3.8700   -1.6030   -0.8190 O   0  0  0  0  0  0  0  0  0  0  0  0
   -5.1750   -1.7410   -0.3460 C   0  0  2  0  0  0  0  0  0  0  0  0
   -6.0540   -0.5680   -0.7630 C   0  0  0  0  0  0  0  0  0  0  0  0
   -5.1370   -1.8720    1.1560 C   0  0  0  0  0  0  0  0  0  0  0  0
   -5.7740   -3.0020   -0.9520 C   0  0  0  0  0  0  0  0  0  0  0  0
   -1.7750   -0.4320   -0.9660 C   0  0  0  0  0  0  0  0  0  0  0  0
    1.7530    2.7960   -0.7060 C   0  0  0  0  0  0  0  0  0  0  0  0
    1.8250    3.5220   -1.6150 N   0  0  0  0  0  0  0  0  0  0  0  0
    2.4790    4.6370   -1.6670 N   0  0  0  0  0  0  0  0  0  0  0  0
    3.1190    5.0930   -0.7690 C   0  0  0  0  0  0  0  0  0  0  0  0
    3.9670    6.2620   -0.4210 C   0  0  0  0  0  0  0  0  0  0  0  0
    2.8290    3.7430    0.5350 S   0  0  0  0  0  0  0  0  0  0  0  0
    3.4010   -0.4620    0.9240 O   0  0  0  0  0  0  0  0  0  0  0  0
  1  2  2  0
  2  3  1  0
  2  5  1  0
  3  4  1  0
  5  6  2  0
  5 29  1  0
  6  7  1  0
  7  8  2  0
  8  9  1  0
  8 29  1  0
  9 10  1  0
 10 11  1  0
 10 23  1  0
 11 12  1  0
 12 13  2  0
 12 22  1  0
 13 14  1  0
 14 15  2  0
 15 16  1  0
 16 17  1  0
 16 22  2  0
 17 18  1  0
 18 19  1  1
 18 20  1  0
 18 21  1  0
 23 24  2  0
 23 28  1  0
 24 25  1  0
 25 26  2  0
 26 27  1  0
 26 28  1  0
M  END
