
     RDKit          3D

 29 31  0  0  0  0  0  0  0  0999 V2000
    4.7110   -3.0200    0.6870 C   0  0  0  0  0  0  0  0  0  0  0  0
    4.8310   -1.7960    1.0720 C   0  0  0  0  0  0  0  0  0  0  0  0
    6.0770   -1.2470    1.7760 C   0  0  0  0  0  0  0  0  0  0  0  0
    6.1140    0.1100    1.1420 C   0  0  0  0  0  0  0  0  0  0  0  0
    4.6950    0.4790    1.0660 C   0  0  0  0  0  0  0  0  0  0  0  0
    3.9420   -0.6730    1.0220 C   0  0  0  0  0  0  0  0  0  0  0  0
    2.4760   -0.6070    1.0500 C   0  0  0  0  0  0  0  0  0  0  0  0
    1.6630   -0.9630   -0.1140 C   0  0  1  0  0  0  0  0  0  0  0  0
    1.6910   -2.2480   -0.6630 C   0  0  0  0  0  0  0  0  0  0  0  0
    1.7160   -3.3280   -1.1460 N   0  0  0  0  0  0  0  0  0  0  0  0
   -0.1100   -0.6140    0.3860 S   0  0  0  0  0  0  0  0  0  0  0  0
   -0.2260    1.1160    0.7550 C   0  0  0  0  0  0  0  0  0  0  0  0
   -0.0150    1.6440    1.9810 N   0  0  0  0  0  0  0  0  0  0  0  0
   -0.1860    2.9690    1.9420 N   0  0  0  0  0  0  0  0  0  0  0  0
   -0.5050    3.2500    0.6710 C   0  0  0  0  0  0  0  0  0  0  0  0
   -0.7470    4.4040    0.2050 O   0  0  0  0  0  0  0  0  0  0  0  0
   -0.5320    2.0940   -0.0770 N   0  0  0  0  0  0  0  0  0  0  0  0
   -0.8230    2.0650   -1.4740 C   0  0  0  0  0  0  0  0  0  0  0  0
   -2.2470    1.9110   -1.8550 C   0  0  0  0  0  0  0  0  0  0  0  0
   -2.9180    0.7220   -1.4650 N   0  0  0  0  0  0  0  0  0  0  0  0
   -2.8970   -0.5120   -2.2460 C   0  0  0  0  0  0  0  0  0  0  0  0
   -2.5770   -0.5640   -3.4560 O   0  0  0  0  0  0  0  0  0  0  0  0
   -3.2870   -1.5800   -1.4130 N   0  0  0  0  0  0  0  0  0  0  0  0
   -3.4130   -2.9980   -1.7820 C   0  0  0  0  0  0  0  0  0  0  0  0
   -3.5470   -1.0180   -0.1220 C   0  0  0  0  0  0  0  0  0  0  0  0
   -3.5850   -1.6000    0.9620 O   0  0  0  0  0  0  0  0  0  0  0  0
   -3.7700    0.4490   -0.3590 C   0  0  1  0  0  0  0  0  0  0  0  0
   -3.5980    1.2800    0.8610 C   0  0  0  0  0  0  0  0  0  0  0  0
   -5.2010    0.5390   -0.8970 C   0  0  0  0  0  0  0  0  0  0  0  0
  1  2  2  0
  2  3  1  0
  2  6  1  0
  3  4  1  0
  4  5  1  0
  5  6  2  0
  6  7  1  0
  8  7  1  1
  8  9  1  0
  8 11  1  0
  9 10  3  0
 11 12  1  0
 12 13  2  0
 12 17  1  0
 13 14  1  0
 14 15  1  0
 15 16  2  0
 15 17  1  0
 17 18  1  0
 18 19  1  0
 19 20  1  0
 20 21  1  0
 20 27  1  0
 21 22  2  0
 21 23  1  0
 23 24  1  0
 23 25  1  0
 25 26  2  0
 25 27  1  0
 27 28  1  1
 27 29  1  0
M  END
