
     RDKit          3D

 29 31  0  0  0  0  0  0  0  0999 V2000
   10.4790    0.2860   -0.0340 C   0  0  0  0  0  0  0  0  0  0  0  0
    9.8120   -1.0700   -0.0130 C   0  0  0  0  0  0  0  0  0  0  0  0
    8.4280   -1.0200   -0.2760 O   0  0  0  0  0  0  0  0  0  0  0  0
    7.5970   -0.3220    0.5740 C   0  0  0  0  0  0  0  0  0  0  0  0
    8.1190    0.2490    1.5700 O   0  0  0  0  0  0  0  0  0  0  0  0
    6.1550   -0.2480    0.3280 C   0  0  0  0  0  0  0  0  0  0  0  0
    5.6950   -0.8300   -0.6830 O   0  0  0  0  0  0  0  0  0  0  0  0
    5.2860    0.4550    1.1950 N   0  0  0  0  0  0  0  0  0  0  0  0
    3.8570    0.5380    0.9850 C   0  0  0  0  0  0  0  0  0  0  0  0
    2.8490    0.9780    1.4140 N   0  0  0  0  0  0  0  0  0  0  0  0
    1.6670    0.8300    0.9260 N   0  0  0  0  0  0  0  0  0  0  0  0
    1.4200    0.1890   -0.0910 C   0  0  0  0  0  0  0  0  0  0  0  0
    0.3420   -0.2190   -0.9210 N   0  0  0  0  0  0  0  0  0  0  0  0
    0.5990   -1.0010   -2.1470 C   0  0  0  0  0  0  0  0  0  0  0  0
   -0.9890    0.1130   -0.5770 C   0  0  0  0  0  0  0  0  0  0  0  0
   -1.3350    0.8190    0.5460 C   0  0  0  0  0  0  0  0  0  0  0  0
   -2.6890    1.0800    0.7880 C   0  0  0  0  0  0  0  0  0  0  0  0
   -3.6810    0.6540   -0.0610 C   0  0  0  0  0  0  0  0  0  0  0  0
   -5.0700    0.9210    0.2300 N   0  0  0  0  0  0  0  0  0  0  0  0
   -5.5000    2.2950    0.2340 C   0  0  0  0  0  0  0  0  0  0  0  0
   -5.9600   -0.1580    0.4840 C   0  0  0  0  0  0  0  0  0  0  0  0
   -5.6240   -1.1990    1.2560 C   0  0  0  0  0  0  0  0  0  0  0  0
   -6.7710   -2.1580    1.3240 C   0  0  0  0  0  0  0  0  0  0  0  0
   -7.7480   -1.5050    0.5020 N   0  0  0  0  0  0  0  0  0  0  0  0
   -7.3160   -0.3910    0.0260 C   0  0  0  0  0  0  0  0  0  0  0  0
   -8.0820    0.5330   -0.8640 C   0  0  0  0  0  0  0  0  0  0  0  0
   -3.3240   -0.0530   -1.1870 C   0  0  0  0  0  0  0  0  0  0  0  0
   -1.9970   -0.3110   -1.4250 C   0  0  0  0  0  0  0  0  0  0  0  0
    3.1640   -0.3680   -0.5290 S   0  0  0  0  0  0  0  0  0  0  0  0
  1  2  1  0
  2  3  1  0
  3  4  1  0
  4  5  2  0
  4  6  1  0
  6  7  2  0
  6  8  1  0
  8  9  1  0
  9 10  2  0
  9 29  1  0
 10 11  1  0
 11 12  2  0
 12 13  1  0
 12 29  1  0
 13 14  1  0
 13 15  1  0
 15 16  2  0
 15 28  1  0
 16 17  1  0
 17 18  2  0
 18 19  1  0
 18 27  1  0
 19 20  1  0
 19 21  1  0
 21 22  2  0
 21 25  1  0
 22 23  1  0
 23 24  1  0
 24 25  2  0
 25 26  1  0
 27 28  2  0
M  END
