
     RDKit          3D

 29 30  0  0  0  0  0  0  0  0999 V2000
    5.5460    2.8440   -2.0130 O   0  0  0  0  0  0  0  0  0  0  0  0
    4.9590    2.5410   -0.9120 C   0  0  0  0  0  0  0  0  0  0  0  0
    3.6830    1.9190   -1.0250 C   0  0  0  0  0  0  0  0  0  0  0  0
    2.8570    1.5150   -0.0780 C   0  0  0  0  0  0  0  0  0  0  0  0
    2.9480    1.5580    1.3290 N   0  0  0  0  0  0  0  0  0  0  0  0
    1.7790    0.9850    1.8810 C   0  0  0  0  0  0  0  0  0  0  0  0
    0.9730    0.5930    0.8640 C   0  0  0  0  0  0  0  0  0  0  0  0
   -0.3130   -0.0360    1.1280 C   0  0  0  0  0  0  0  0  0  0  0  0
   -1.2090   -0.4720    0.3090 C   0  0  0  0  0  0  0  0  0  0  0  0
   -2.4150   -1.0620    0.9370 C   0  0  0  0  0  0  0  0  0  0  0  0
   -3.3970   -1.5360    0.2680 C   0  0  0  0  0  0  0  0  0  0  0  0
   -3.6870   -1.6670   -1.4960 S   0  0  0  0  0  0  0  0  0  0  0  0
   -5.4910   -1.6760   -1.3610 C   0  0  0  0  0  0  0  0  0  0  0  0
   -6.5510   -1.2050   -2.4960 S   0  0  0  0  0  0  0  0  0  0  0  0
   -5.7050   -2.1820   -0.0600 N   0  0  0  0  0  0  0  0  0  0  0  0
   -7.0380   -2.7220    0.3070 C   0  0  0  0  0  0  0  0  0  0  0  0
   -7.0060   -4.1950   -0.0090 C   0  0  0  0  0  0  0  0  0  0  0  0
   -8.1890   -4.8350    0.2830 O   0  0  0  0  0  0  0  0  0  0  0  0
   -4.6470   -2.1310    0.8180 C   0  0  0  0  0  0  0  0  0  0  0  0
   -4.6780   -2.5510    2.0330 O   0  0  0  0  0  0  0  0  0  0  0  0
   -1.1790   -0.4540   -1.1370 C   0  0  0  0  0  0  0  0  0  0  0  0
   -0.0300    0.1110   -1.6440 O   0  0  0  0  0  0  0  0  0  0  0  0
    1.6080    0.9050   -0.3030 O   0  0  0  0  0  0  0  0  0  0  0  0
    5.6860    2.8770    0.3120 C   0  0  0  0  0  0  0  0  0  0  0  0
    7.0500    3.4510    0.1570 C   0  0  0  0  0  0  0  0  0  0  0  0
    8.0790    2.5750   -0.4680 C   0  0  1  0  0  0  0  0  0  0  0  0
    7.8520    2.1380   -1.7280 F   0  0  0  0  0  0  0  0  0  0  0  0
    9.3110    3.2620   -0.4510 F   0  0  0  0  0  0  0  0  0  0  0  0
    8.2680    1.4740    0.3800 F   0  0  0  0  0  0  0  0  0  0  0  0
  1  2  2  0
  2  3  1  0
  2 24  1  0
  3  4  2  3
  4  5  1  0
  4 23  1  0
  5  6  1  0
  6  7  2  0
  7  8  1  0
  7 23  1  0
  8  9  2  3
  9 10  1  0
  9 21  1  0
 10 11  2  3
 11 12  1  0
 11 19  1  0
 12 13  1  0
 13 14  2  0
 13 15  1  0
 15 16  1  0
 15 19  1  0
 16 17  1  0
 17 18  1  0
 19 20  2  0
 21 22  1  0
 24 25  1  0
 25 26  1  0
 26 27  1  6
 26 28  1  0
 26 29  1  0
M  END
