
     RDKit          3D

 31 32  0  0  0  0  0  0  0  0999 V2000
    7.3310    0.0190    0.8220 C   0  0  0  0  0  0  0  0  0  0  0  0
    5.9300    0.6060    0.8200 C   0  0  0  0  0  0  0  0  0  0  0  0
    4.9340   -0.1070    0.3250 C   0  0  0  0  0  0  0  0  0  0  0  0
    3.5420    0.4050    0.2960 C   0  0  0  0  0  0  0  0  0  0  0  0
    2.7390   -0.3740   -0.7310 C   0  0  1  0  0  0  0  0  0  0  0  0
    1.3620    0.1090   -0.8340 C   0  0  0  0  0  0  0  0  0  0  0  0
    0.9260    0.8120   -1.7750 O   0  0  0  0  0  0  0  0  0  0  0  0
    0.4470   -0.2590    0.1960 N   0  0  0  0  0  0  0  0  0  0  0  0
   -0.9620    0.1270    0.1850 C   0  0  0  0  0  0  0  0  0  0  0  0
   -1.7750   -0.8500   -0.0420 C   0  0  0  0  0  0  0  0  0  0  0  0
   -3.1910   -1.0160   -0.1600 C   0  0  0  0  0  0  0  0  0  0  0  0
   -4.0630   -0.1950   -0.8180 C   0  0  0  0  0  0  0  0  0  0  0  0
   -5.4460   -0.4650   -0.8670 C   0  0  0  0  0  0  0  0  0  0  0  0
   -5.9590   -1.5660   -0.2570 C   0  0  0  0  0  0  0  0  0  0  0  0
   -7.3870   -1.9620   -0.2380 C   0  0  2  0  0  0  0  0  0  0  0  0
   -8.2240   -1.0500   -0.7970 F   0  0  0  0  0  0  0  0  0  0  0  0
   -7.7630   -2.1510    1.0840 F   0  0  0  0  0  0  0  0  0  0  0  0
   -7.5450   -3.5730   -1.0340 Cl  0  0  0  0  0  0  0  0  0  0  0  0
   -5.1050   -2.4240    0.4210 C   0  0  0  0  0  0  0  0  0  0  0  0
   -3.7660   -2.1490    0.4620 C   0  0  0  0  0  0  0  0  0  0  0  0
   -1.3490    1.4650    0.4950 C   0  0  0  0  0  0  0  0  0  0  0  0
   -0.4340    2.3150    0.7690 O   0  0  0  0  0  0  0  0  0  0  0  0
   -2.6450    1.9740    0.5510 O   0  0  0  0  0  0  0  0  0  0  0  0
   -2.9340    3.3270    0.8980 C   0  0  0  0  0  0  0  0  0  0  0  0
   -2.2520    4.3010   -0.0040 C   0  0  0  0  0  0  0  0  0  0  0  0
    3.4240   -0.2230   -2.0210 N   0  0  0  0  0  0  0  0  0  0  0  0
    4.7190   -1.4510   -1.9340 S   0  0  2  0  0  0  0  0  0  0  0  0
    5.8550   -0.9620   -2.7450 O   0  0  0  0  0  0  0  0  0  0  0  0
    4.1910   -2.7880   -2.3660 O   0  0  0  0  0  0  0  0  0  0  0  0
    5.2160   -1.4680   -0.2240 C   0  0  2  0  0  0  0  0  0  0  0  0
    4.5400   -2.4530    0.4820 F   0  0  0  0  0  0  0  0  0  0  0  0
  1  2  1  0
  2  3  2  3
  3  4  1  0
  3 30  1  0
  4  5  1  0
  5  6  1  6
  5 26  1  0
  6  7  2  0
  6  8  1  0
  8  9  1  0
  9 10  2  3
  9 21  1  0
 10 11  1  0
 11 12  2  0
 11 20  1  0
 12 13  1  0
 13 14  2  0
 14 15  1  0
 14 19  1  0
 15 16  1  6
 15 17  1  0
 15 18  1  0
 19 20  2  0
 21 22  2  0
 21 23  1  0
 23 24  1  0
 24 25  1  0
 27 26  1  1
 27 28  2  0
 27 29  2  0
 27 30  1  0
 30 31  1  1
M  END
