
     RDKit          3D

 30 33  0  0  0  0  0  0  0  0999 V2000
   -6.9480    2.9320   -1.0710 C   0  0  0  0  0  0  0  0  0  0  0  0
   -5.7990    2.4910   -1.7240 O   0  0  0  0  0  0  0  0  0  0  0  0
   -4.7960    1.7440   -1.1170 C   0  0  0  0  0  0  0  0  0  0  0  0
   -4.8820    1.3780    0.2270 C   0  0  0  0  0  0  0  0  0  0  0  0
   -3.8730    0.6360    0.8050 C   0  0  0  0  0  0  0  0  0  0  0  0
   -2.7730    0.2430    0.0880 C   0  0  0  0  0  0  0  0  0  0  0  0
   -2.6530    0.5800   -1.2250 C   0  0  0  0  0  0  0  0  0  0  0  0
   -3.6810    1.3340   -1.8080 C   0  0  0  0  0  0  0  0  0  0  0  0
   -1.4760    0.0630   -1.6810 C   0  0  0  0  0  0  0  0  0  0  0  0
   -0.8420   -0.6150   -0.6290 C   0  0  0  0  0  0  0  0  0  0  0  0
    0.4610   -1.2590   -0.7640 C   0  0  0  0  0  0  0  0  0  0  0  0
    1.1820   -0.9350   -1.7820 O   0  0  0  0  0  0  0  0  0  0  0  0
    1.0020   -2.2080    0.1180 N   0  0  0  0  0  0  0  0  0  0  0  0
    2.5800   -2.8810   -0.1720 S   0  0  1  0  0  0  0  0  0  0  0  0
    2.8820   -3.9080    0.8540 O   0  0  0  0  0  0  0  0  0  0  0  0
    2.5490   -3.5000   -1.5340 O   0  0  0  0  0  0  0  0  0  0  0  0
    3.7260   -1.5530   -0.1080 C   0  0  0  0  0  0  0  0  0  0  0  0
    3.4640   -0.2390    0.1220 C   0  0  0  0  0  0  0  0  0  0  0  0
    4.6590    0.4580    0.0850 C   0  0  0  0  0  0  0  0  0  0  0  0
    5.0070    1.7890    0.2450 C   0  0  0  0  0  0  0  0  0  0  0  0
    6.3300    2.1700    0.1450 C   0  0  0  0  0  0  0  0  0  0  0  0
    7.2650    1.1950   -0.1140 C   0  0  0  0  0  0  0  0  0  0  0  0
    6.9410   -0.1370   -0.2770 C   0  0  0  0  0  0  0  0  0  0  0  0
    5.6190   -0.4950   -0.1730 C   0  0  0  0  0  0  0  0  0  0  0  0
    5.0430   -1.6570   -0.2810 O   0  0  0  0  0  0  0  0  0  0  0  0
   -1.6470   -0.4860    0.4160 N   0  0  0  0  0  0  0  0  0  0  0  0
   -1.4760   -0.9720    1.7710 C   0  0  0  0  0  0  0  0  0  0  0  0
   -2.0640   -2.3230    1.9230 C   0  0  0  0  0  0  0  0  0  0  0  0
   -2.6090   -2.8590    0.9260 O   0  0  0  0  0  0  0  0  0  0  0  0
   -1.9910   -2.9490    3.1580 O   0  0  0  0  0  0  0  0  0  0  0  0
  1  2  1  0
  2  3  1  0
  3  4  2  0
  3  8  1  0
  4  5  1  0
  5  6  2  0
  6  7  1  0
  6 26  1  0
  7  8  2  0
  7  9  1  0
  9 10  2  0
 10 11  1  0
 10 26  1  0
 11 12  2  0
 11 13  1  0
 14 13  1  1
 14 15  2  0
 14 16  2  0
 14 17  1  0
 17 18  2  0
 17 25  1  0
 18 19  1  0
 19 20  2  0
 19 24  1  0
 20 21  1  0
 21 22  2  0
 22 23  1  0
 23 24  2  0
 24 25  1  0
 26 27  1  0
 27 28  1  0
 28 29  2  0
 28 30  1  0
M  END
