
     RDKit          3D

 29 31  0  0  0  0  0  0  0  0999 V2000
   -1.0860   -0.7390    2.3930 C   0  0  0  0  0  0  0  0  0  0  0  0
   -0.7500   -1.7810    1.3690 C   0  0  2  0  0  0  0  0  0  0  0  0
    0.7160   -1.6100    0.9960 C   0  0  0  0  0  0  0  0  0  0  0  0
    1.5470   -2.5340    1.1680 O   0  0  0  0  0  0  0  0  0  0  0  0
    1.0560   -0.3510    0.4510 N   0  0  0  0  0  0  0  0  0  0  0  0
    2.3900   -0.0570    0.0600 C   0  0  0  0  0  0  0  0  0  0  0  0
    3.7670   -1.1460    0.1780 S   0  0  0  0  0  0  0  0  0  0  0  0
    4.9690   -0.0030   -0.5040 C   0  0  0  0  0  0  0  0  0  0  0  0
    4.2510    1.0910   -0.7640 C   0  0  0  0  0  0  0  0  0  0  0  0
    2.9200    1.1220   -0.4950 C   0  0  0  0  0  0  0  0  0  0  0  0
    1.9370    2.2770   -0.7210 C   0  0  1  0  0  0  0  0  0  0  0  0
    1.3880    2.6650    0.4860 F   0  0  0  0  0  0  0  0  0  0  0  0
    2.4320    3.3210   -1.3710 F   0  0  0  0  0  0  0  0  0  0  0  0
    0.8760    1.7690   -1.4600 F   0  0  0  0  0  0  0  0  0  0  0  0
    4.9620    2.1280   -1.2950 C   0  0  0  0  0  0  0  0  0  0  0  0
    6.2970    1.9940   -1.5200 O   0  0  0  0  0  0  0  0  0  0  0  0
    7.0750    0.8740   -1.2780 C   0  0  0  0  0  0  0  0  0  0  0  0
    6.2690   -0.1970   -0.7060 C   0  0  0  0  0  0  0  0  0  0  0  0
   -1.7100   -1.7490   -0.0960 S   0  0  2  0  0  0  0  0  0  0  0  0
   -1.1000   -2.7000   -1.1240 O   0  0  0  0  0  0  0  0  0  0  0  0
   -1.6110   -0.3840   -0.7410 O   0  0  0  0  0  0  0  0  0  0  0  0
   -3.3750   -2.2410    0.1270 C   0  0  0  0  0  0  0  0  0  0  0  0
   -4.1840   -1.3710    1.0420 C   0  0  2  0  0  0  0  0  0  0  0  0
   -5.4810   -1.9480    1.1040 O   0  0  0  0  0  0  0  0  0  0  0  0
   -4.3300   -0.0040    0.4450 C   0  0  0  0  0  0  0  0  0  0  0  0
   -3.8910    1.1580    0.9950 C   0  0  0  0  0  0  0  0  0  0  0  0
   -4.2210    2.1900    0.1050 C   0  0  0  0  0  0  0  0  0  0  0  0
   -4.8390    1.6090   -0.9300 N   0  0  0  0  0  0  0  0  0  0  0  0
   -4.9270    0.2940   -0.7700 C   0  0  0  0  0  0  0  0  0  0  0  0
  2  1  1  1
  2  3  1  0
  2 19  1  0
  3  4  2  0
  3  5  1  0
  5  6  1  0
  6  7  1  0
  6 10  2  0
  7  8  1  0
  8  9  1  0
  8 18  2  0
  9 10  1  0
  9 15  2  0
 10 11  1  0
 11 12  1  1
 11 13  1  0
 11 14  1  0
 15 16  1  0
 16 17  1  0
 17 18  1  0
 19 20  2  0
 19 21  2  0
 19 22  1  1
 22 23  1  0
 23 24  1  6
 23 25  1  0
 25 26  1  0
 25 29  2  0
 26 27  2  0
 27 28  1  0
 28 29  1  0
M  END
