
     RDKit          3D

 31 33  0  0  0  0  0  0  0  0999 V2000
   -0.9510    0.6700    2.7060 O   0  0  0  0  0  0  0  0  0  0  0  0
   -0.7110    0.0880    1.5750 C   0  0  0  0  0  0  0  0  0  0  0  0
   -1.8220   -0.5910    1.1220 N   0  0  0  0  0  0  0  0  0  0  0  0
   -1.8200   -1.4450    0.0890 C   0  0  0  0  0  0  0  0  0  0  0  0
   -2.5120   -2.7490    0.2700 C   0  0  0  0  0  0  0  0  0  0  0  0
   -1.7350   -4.2220   -0.3470 Cl  0  0  0  0  0  0  0  0  0  0  0  0
   -3.6650   -2.8940    0.8580 C   0  0  0  0  0  0  0  0  0  0  0  0
   -4.4200   -1.9020    1.3960 F   0  0  0  0  0  0  0  0  0  0  0  0
   -4.2300   -4.1450    0.9790 F   0  0  0  0  0  0  0  0  0  0  0  0
   -1.2230   -1.2080   -1.1460 C   0  0  0  0  0  0  0  0  0  0  0  0
   -1.4220   -0.1410   -1.9710 C   0  0  0  0  0  0  0  0  0  0  0  0
   -2.3990    0.8310   -1.8930 C   0  0  0  0  0  0  0  0  0  0  0  0
   -2.7130    1.6010   -0.8010 C   0  0  0  0  0  0  0  0  0  0  0  0
   -1.8740    2.4580   -0.1110 C   0  0  0  0  0  0  0  0  0  0  0  0
   -2.6030    3.1820    1.3740 S   0  0  0  0  0  0  0  0  0  0  0  0
   -1.5030    4.3120    2.2090 C   0  0  0  0  0  0  0  0  0  0  0  0
   -0.3550    3.6950    2.7220 F   0  0  0  0  0  0  0  0  0  0  0  0
   -0.5830    2.8090   -0.4130 C   0  0  0  0  0  0  0  0  0  0  0  0
   -0.3700    4.0440    0.0290 O   0  0  0  0  0  0  0  0  0  0  0  0
    0.4120    2.1900   -1.0230 N   0  0  0  0  0  0  0  0  0  0  0  0
    1.3190    1.2420   -0.7980 C   0  0  0  0  0  0  0  0  0  0  0  0
    2.5030    1.2660   -1.5870 C   0  0  0  0  0  0  0  0  0  0  0  0
    3.5150    0.3740   -1.4940 C   0  0  0  0  0  0  0  0  0  0  0  0
    3.4190   -0.6320   -0.5840 C   0  0  0  0  0  0  0  0  0  0  0  0
    2.3200   -0.7390    0.2180 C   0  0  0  0  0  0  0  0  0  0  0  0
    1.2580    0.1940    0.1240 C   0  0  0  0  0  0  0  0  0  0  0  0
    0.2930    0.0470    0.8770 O   0  0  0  0  0  0  0  0  0  0  0  0
    2.3380   -1.8120    1.1080 O   0  0  0  0  0  0  0  0  0  0  0  0
    2.9220   -3.0440    0.8070 C   0  0  0  0  0  0  0  0  0  0  0  0
    4.1870   -2.9090   -0.0090 C   0  0  0  0  0  0  0  0  0  0  0  0
    4.4220   -1.5950   -0.4260 O   0  0  0  0  0  0  0  0  0  0  0  0
  1  2  2  0
  2  3  1  0
  2 27  1  0
  3  4  1  0
  4  5  1  0
  4 10  2  0
  5  6  1  0
  5  7  2  3
  7  8  1  0
  7  9  1  0
 10 11  1  0
 11 12  2  0
 12 13  1  0
 13 14  2  0
 14 15  1  0
 14 18  1  0
 15 16  1  0
 16 17  1  0
 18 19  2  0
 18 20  1  0
 20 21  1  0
 21 22  2  0
 21 26  1  0
 22 23  1  0
 23 24  2  0
 24 25  1  0
 24 31  1  0
 25 26  2  0
 25 28  1  0
 26 27  1  0
 28 29  1  0
 29 30  1  0
 30 31  1  0
M  END
