
     RDKit          3D

 30 32  0  0  0  0  0  0  0  0999 V2000
   -5.7850    1.6750   -1.8550 C   0  0  0  0  0  0  0  0  0  0  0  0
   -5.3620    0.5120   -0.9830 C   0  0  2  0  0  0  0  0  0  0  0  0
   -4.0620    0.0230   -1.5210 C   0  0  0  0  0  0  0  0  0  0  0  0
   -3.9550   -0.3890   -2.7090 O   0  0  0  0  0  0  0  0  0  0  0  0
   -2.8770    0.0020   -0.7070 N   0  0  0  0  0  0  0  0  0  0  0  0
   -1.6400   -0.4600   -1.2100 C   0  0  0  0  0  0  0  0  0  0  0  0
   -1.6070   -0.8630   -2.4320 O   0  0  0  0  0  0  0  0  0  0  0  0
   -0.4070   -0.5120   -0.4480 C   0  0  0  0  0  0  0  0  0  0  0  0
    0.7760   -0.9450   -1.0620 C   0  0  0  0  0  0  0  0  0  0  0  0
    1.9600   -1.0040   -0.3740 C   0  0  0  0  0  0  0  0  0  0  0  0
    2.0270   -0.6370    0.9520 C   0  0  0  0  0  0  0  0  0  0  0  0
    0.8950   -0.2220    1.5400 N   0  0  0  0  0  0  0  0  0  0  0  0
   -0.3000   -0.1560    0.8700 C   0  0  0  0  0  0  0  0  0  0  0  0
   -1.2680    0.2460    1.5390 O   0  0  0  0  0  0  0  0  0  0  0  0
    3.3140   -0.6950    1.7190 C   0  0  0  0  0  0  0  0  0  0  0  0
    4.4120   -0.3820    0.7510 C   0  0  0  0  0  0  0  0  0  0  0  0
    5.3560    0.4880    1.0410 C   0  0  0  0  0  0  0  0  0  0  0  0
    6.4310    0.7900    0.0870 C   0  0  0  0  0  0  0  0  0  0  0  0
    7.8130    0.4790    0.6270 C   0  0  0  0  0  0  0  0  0  0  0  0
    7.9590   -0.9700    0.9800 C   0  0  1  0  0  0  0  0  0  0  0  0
    7.7650   -1.8130   -0.0930 F   0  0  0  0  0  0  0  0  0  0  0  0
    9.2670   -1.1420    1.4400 F   0  0  0  0  0  0  0  0  0  0  0  0
    7.0700   -1.3540    1.9710 F   0  0  0  0  0  0  0  0  0  0  0  0
    4.3690   -1.0650   -0.4600 O   0  0  0  0  0  0  0  0  0  0  0  0
    3.1880   -1.4740   -1.0830 C   0  0  0  0  0  0  0  0  0  0  0  0
   -6.3470   -0.6480   -1.1660 C   0  0  0  0  0  0  0  0  0  0  0  0
   -7.9790    0.0720   -0.7240 S   0  0  0  0  0  0  0  0  0  0  0  0
   -7.5560    1.3260    0.5470 C   0  0  0  0  0  0  0  0  0  0  0  0
   -6.2430    0.9040    1.1360 C   0  0  0  0  0  0  0  0  0  0  0  0
   -5.1860    0.8880    0.3040 O   0  0  0  0  0  0  0  0  0  0  0  0
  2  1  1  6
  2  3  1  0
  2 26  1  0
  2 30  1  0
  3  4  2  0
  3  5  1  0
  5  6  1  0
  6  7  2  0
  6  8  1  0
  8  9  2  0
  8 13  1  0
  9 10  1  0
 10 11  2  0
 10 25  1  0
 11 12  1  0
 11 15  1  0
 12 13  1  0
 13 14  2  0
 15 16  1  0
 16 17  2  3
 16 24  1  0
 17 18  1  0
 18 19  1  0
 19 20  1  0
 20 21  1  6
 20 22  1  0
 20 23  1  0
 24 25  1  0
 26 27  1  0
 27 28  1  0
 28 29  1  0
 29 30  1  0
M  END
