
     RDKit          3D

 31 33  0  0  0  0  0  0  0  0999 V2000
    3.6260    1.5590    1.1150 C   0  0  0  0  0  0  0  0  0  0  0  0
    4.7110    1.0710    0.5350 C   0  0  0  0  0  0  0  0  0  0  0  0
    4.8610   -0.3020    0.0170 C   0  0  0  0  0  0  0  0  0  0  0  0
    3.6580   -1.1800    0.1630 C   0  0  1  0  0  0  0  0  0  0  0  0
    3.2440   -1.3630    1.4740 O   0  0  0  0  0  0  0  0  0  0  0  0
    2.5370   -0.8670   -0.7210 C   0  0  0  0  0  0  0  0  0  0  0  0
    2.8280   -0.5060   -1.9080 O   0  0  0  0  0  0  0  0  0  0  0  0
    1.1590   -0.9300   -0.3850 N   0  0  0  0  0  0  0  0  0  0  0  0
    0.8050   -1.3350    0.9590 C   0  0  0  0  0  0  0  0  0  0  0  0
    0.1440   -0.6270   -1.3720 C   0  0  0  0  0  0  0  0  0  0  0  0
    0.4720   -0.2820   -2.4900 O   0  0  0  0  0  0  0  0  0  0  0  0
   -1.2320   -0.7730   -0.9500 C   0  0  0  0  0  0  0  0  0  0  0  0
   -1.7010   -2.1040   -1.0470 C   0  0  0  0  0  0  0  0  0  0  0  0
   -2.9460   -2.4010   -0.5910 C   0  0  0  0  0  0  0  0  0  0  0  0
   -3.4750   -4.0790   -0.7400 Cl  0  0  0  0  0  0  0  0  0  0  0  0
   -3.7850   -1.4360   -0.0280 C   0  0  0  0  0  0  0  0  0  0  0  0
   -3.3330   -0.1980    0.0530 C   0  0  0  0  0  0  0  0  0  0  0  0
   -4.1070    0.7540    0.6210 C   0  0  0  0  0  0  0  0  0  0  0  0
   -3.7160    2.0350    0.7680 N   0  0  0  0  0  0  0  0  0  0  0  0
   -2.5080    2.4030    0.3350 C   0  0  0  0  0  0  0  0  0  0  0  0
   -2.1490    3.5950    0.4730 O   0  0  0  0  0  0  0  0  0  0  0  0
   -1.6360    1.4630   -0.2730 C   0  0  0  0  0  0  0  0  0  0  0  0
   -0.3860    1.9820   -0.7490 C   0  0  0  0  0  0  0  0  0  0  0  0
    0.6470    1.9420   -0.0890 O   0  0  0  0  0  0  0  0  0  0  0  0
   -0.3400    2.6260   -2.1110 C   0  0  1  0  0  0  0  0  0  0  0  0
   -1.1390    2.0370   -3.0320 F   0  0  0  0  0  0  0  0  0  0  0  0
   -0.7690    3.9550   -1.9570 F   0  0  0  0  0  0  0  0  0  0  0  0
    0.9690    2.7100   -2.5100 F   0  0  0  0  0  0  0  0  0  0  0  0
   -2.0470    0.1770   -0.4050 C   0  0  0  0  0  0  0  0  0  0  0  0
   -5.6310   -0.0610    1.0760 S   0  0  0  0  0  0  0  0  0  0  0  0
   -5.1490   -1.7040    0.4850 C   0  0  0  0  0  0  0  0  0  0  0  0
  1  2  2  0
  2  3  1  0
  3  4  1  0
  4  5  1  1
  4  6  1  0
  6  7  2  0
  6  8  1  0
  8  9  1  0
  8 10  1  0
 10 11  2  0
 10 12  1  0
 12 13  2  0
 12 29  1  0
 13 14  1  0
 14 15  1  0
 14 16  2  0
 16 17  1  0
 16 31  1  0
 17 18  2  0
 17 29  1  0
 18 19  1  0
 18 30  1  0
 19 20  1  0
 20 21  2  0
 20 22  1  0
 22 23  1  0
 22 29  2  0
 23 24  2  0
 23 25  1  0
 25 26  1  6
 25 27  1  0
 25 28  1  0
 30 31  1  0
M  END
