
     RDKit          3D

 29 30  0  0  0  0  0  0  0  0999 V2000
    1.3230    2.6260   -1.8930 C   0  0  0  0  0  0  0  0  0  0  0  0
    2.1660    1.4270   -1.5190 C   0  0  2  0  0  0  0  0  0  0  0  0
    1.1870    0.1540   -0.6870 S   0  0  0  0  0  0  0  0  0  0  0  0
   -0.5830    0.5090   -0.7680 C   0  0  0  0  0  0  0  0  0  0  0  0
   -0.9040    1.5170   -1.3670 O   0  0  0  0  0  0  0  0  0  0  0  0
   -1.4610   -0.3800   -0.1470 N   0  0  0  0  0  0  0  0  0  0  0  0
   -2.8530   -0.3100   -0.0700 C   0  0  0  0  0  0  0  0  0  0  0  0
   -3.6830    0.5690   -0.5410 C   0  0  0  0  0  0  0  0  0  0  0  0
   -3.3350    1.7180   -1.2910 N   0  0  0  0  0  0  0  0  0  0  0  0
   -5.1540    0.4890   -0.2630 C   0  0  0  0  0  0  0  0  0  0  0  0
   -6.0020    1.4750   -0.8170 O   0  0  0  0  0  0  0  0  0  0  0  0
   -5.6690   -0.4510    0.4660 C   0  0  0  0  0  0  0  0  0  0  0  0
   -7.0550   -0.8270    0.9270 C   0  0  0  0  0  0  0  0  0  0  0  0
   -6.9660   -2.3430    0.9980 C   0  0  0  0  0  0  0  0  0  0  0  0
   -5.4960   -2.7150    0.8660 C   0  0  0  0  0  0  0  0  0  0  0  0
   -4.7370   -1.4310    1.0980 C   0  0  1  0  0  0  0  0  0  0  0  0
   -3.4480   -1.3860    0.6380 O   0  0  0  0  0  0  0  0  0  0  0  0
    3.1950    1.8770   -0.5590 C   0  0  0  0  0  0  0  0  0  0  0  0
    3.1930    3.0440   -0.1400 O   0  0  0  0  0  0  0  0  0  0  0  0
    4.1560    0.9900   -0.1300 O   0  0  0  0  0  0  0  0  0  0  0  0
    5.1700    1.3270    0.7900 C   0  0  0  0  0  0  0  0  0  0  0  0
    6.0420    0.1330    0.9760 C   0  0  0  0  0  0  0  0  0  0  0  0
    7.3370    0.2100    0.6790 C   0  0  0  0  0  0  0  0  0  0  0  0
    8.2880   -0.9160    0.8260 C   0  0  2  0  0  0  0  0  0  0  0  0
    9.5080   -0.5450    0.2460 F   0  0  0  0  0  0  0  0  0  0  0  0
    7.8430   -2.0860    0.2320 F   0  0  0  0  0  0  0  0  0  0  0  0
    8.5810   -1.0980    2.1770 F   0  0  0  0  0  0  0  0  0  0  0  0
    5.4080   -1.1040    1.4980 C   0  0  0  0  0  0  0  0  0  0  0  0
    4.1200   -1.6360    0.3280 S   0  0  0  0  0  0  0  0  0  0  0  0
  2  1  1  1
  2  3  1  0
  2 18  1  0
  3  4  1  0
  4  5  2  0
  4  6  1  0
  6  7  1  0
  7  8  2  0
  7 17  1  0
  8  9  1  0
  8 10  1  0
 10 11  1  0
 10 12  2  0
 12 13  1  0
 12 16  1  0
 13 14  1  0
 14 15  1  0
 16 15  1  6
 16 17  1  0
 18 19  2  0
 18 20  1  0
 20 21  1  0
 21 22  1  0
 22 23  2  3
 22 28  1  0
 23 24  1  0
 24 25  1  6
 24 26  1  0
 24 27  1  0
 28 29  1  0
M  END
