
     RDKit          3D

 31 32  0  0  0  0  0  0  0  0999 V2000
    5.5250   -2.4860    2.8900 C   0  0  0  0  0  0  0  0  0  0  0  0
    5.5390   -1.2710    2.1910 O   0  0  0  0  0  0  0  0  0  0  0  0
    4.4180   -0.8980    1.4250 C   0  0  0  0  0  0  0  0  0  0  0  0
    3.4790   -1.6760    1.4180 O   0  0  0  0  0  0  0  0  0  0  0  0
    4.4650    0.3560    0.7180 C   0  0  0  0  0  0  0  0  0  0  0  0
    5.6100    1.1660    0.8780 C   0  0  0  0  0  0  0  0  0  0  0  0
    5.7460    2.3830    0.2940 C   0  0  0  0  0  0  0  0  0  0  0  0
    4.7150    2.8310   -0.4840 C   0  0  0  0  0  0  0  0  0  0  0  0
    3.5740    2.0420   -0.6540 C   0  0  0  0  0  0  0  0  0  0  0  0
    3.4160    0.7960   -0.0660 C   0  0  0  0  0  0  0  0  0  0  0  0
    2.2780    0.0140   -0.3160 N   0  0  0  0  0  0  0  0  0  0  0  0
    1.0710    0.4480   -0.9080 C   0  0  0  0  0  0  0  0  0  0  0  0
    0.8880    1.6080   -1.2640 O   0  0  0  0  0  0  0  0  0  0  0  0
   -0.0250   -0.4690   -1.1250 N   0  0  0  0  0  0  0  0  0  0  0  0
   -1.2740   -0.0650   -1.7270 C   0  0  1  0  0  0  0  0  0  0  0  0
   -1.3930   -0.8470   -3.0350 C   0  0  0  0  0  0  0  0  0  0  0  0
   -2.4400   -0.4910   -0.8360 C   0  0  0  0  0  0  0  0  0  0  0  0
   -3.3740    0.3440   -0.3810 C   0  0  0  0  0  0  0  0  0  0  0  0
   -3.4560    1.7740   -0.6420 C   0  0  0  0  0  0  0  0  0  0  0  0
   -4.2550    2.7000   -0.3160 C   0  0  0  0  0  0  0  0  0  0  0  0
   -3.7470    4.3360   -1.0120 Cl  0  0  0  0  0  0  0  0  0  0  0  0
   -5.4940    2.8340    0.4420 C   0  0  1  0  0  0  0  0  0  0  0  0
   -6.5790    3.1230   -0.4030 F   0  0  0  0  0  0  0  0  0  0  0  0
   -5.8640    1.8770    1.3040 F   0  0  0  0  0  0  0  0  0  0  0  0
   -5.4260    4.0220    1.2320 F   0  0  0  0  0  0  0  0  0  0  0  0
   -4.4380   -0.6560    0.5740 S   0  0  2  0  0  0  0  0  0  0  0  0
   -5.8040   -0.7460    0.0220 O   0  0  0  0  0  0  0  0  0  0  0  0
   -4.3700   -0.3520    2.0490 O   0  0  0  0  0  0  0  0  0  0  0  0
   -3.5800   -2.1890    0.3010 C   0  0  0  0  0  0  0  0  0  0  0  0
   -3.9920   -3.5110    0.8540 C   0  0  0  0  0  0  0  0  0  0  0  0
   -2.5800   -1.8650   -0.4500 C   0  0  0  0  0  0  0  0  0  0  0  0
  1  2  1  0
  2  3  1  0
  3  4  2  0
  3  5  1  0
  5  6  2  0
  5 10  1  0
  6  7  1  0
  7  8  2  0
  8  9  1  0
  9 10  2  0
 10 11  1  0
 11 12  1  0
 12 13  2  0
 12 14  1  0
 14 15  1  0
 15 16  1  6
 15 17  1  0
 17 18  2  0
 17 31  1  0
 18 19  1  0
 26 18  1  6
 19 20  2  3
 20 21  1  0
 20 22  1  0
 22 23  1  6
 22 24  1  0
 22 25  1  0
 26 27  2  0
 26 28  2  0
 26 29  1  0
 29 30  1  0
 29 31  2  0
M  END
