
     RDKit          3D

 39 43  0  0  0  0  0  0  0  0999 V2000
   10.1020   -1.7870    0.3280 C   0  0  0  0  0  0  0  0  0  0  0  0
    9.5160   -1.6550   -0.9700 O   0  0  0  0  0  0  0  0  0  0  0  0
    8.2020   -1.2020   -1.0220 C   0  0  0  0  0  0  0  0  0  0  0  0
    7.4740   -0.8920    0.1030 C   0  0  0  0  0  0  0  0  0  0  0  0
    6.1900   -0.4550   -0.0180 C   0  0  0  0  0  0  0  0  0  0  0  0
    5.5640   -0.3000   -1.2230 C   0  0  0  0  0  0  0  0  0  0  0  0
    4.2720    0.1390   -1.3380 O   0  0  0  0  0  0  0  0  0  0  0  0
    3.5180    0.4530   -0.2000 C   0  0  0  0  0  0  0  0  0  0  0  0
    2.1500    0.9110   -0.6740 C   0  0  0  0  0  0  0  0  0  0  0  0
    1.5530   -0.1730   -1.4120 N   0  0  0  0  0  0  0  0  0  0  0  0
    0.2420    0.1660   -1.9370 C   0  0  0  0  0  0  0  0  0  0  0  0
   -0.6680    0.6820   -0.8870 C   0  0  0  0  0  0  0  0  0  0  0  0
   -0.6110    2.0240   -0.4810 C   0  0  0  0  0  0  0  0  0  0  0  0
   -1.4220    2.5500    0.4890 C   0  0  0  0  0  0  0  0  0  0  0  0
   -1.3650    3.9640    0.9200 C   0  0  0  0  0  0  0  0  0  0  0  0
   -0.4000    4.7720    0.2510 N   0  0  1  0  0  0  0  0  0  0  0  0
   -0.9030    5.3520   -0.9870 C   0  0  0  0  0  0  0  0  0  0  0  0
   -0.1250    5.9080    1.1550 C   0  0  0  0  0  0  0  0  0  0  0  0
   -2.3300    1.7060    1.0790 C   0  0  0  0  0  0  0  0  0  0  0  0
   -2.4380    0.3750    0.7230 C   0  0  0  0  0  0  0  0  0  0  0  0
   -1.5990   -0.1120   -0.2580 C   0  0  0  0  0  0  0  0  0  0  0  0
   -3.4080   -0.4700    1.3380 N   0  0  0  0  0  0  0  0  0  0  0  0
   -4.1650   -1.4210    0.5870 C   0  0  1  0  0  0  0  0  0  0  0  0
   -4.0610   -1.3310   -0.8910 C   0  0  0  0  0  0  0  0  0  0  0  0
   -3.9110   -2.3090   -1.7600 C   0  0  0  0  0  0  0  0  0  0  0  0
   -3.8600   -1.7420   -3.1150 C   0  0  0  0  0  0  0  0  0  0  0  0
   -4.0110   -0.2990   -2.9200 C   0  0  0  0  0  0  0  0  0  0  0  0
   -4.1250   -0.0780   -1.6230 C   0  0  0  0  0  0  0  0  0  0  0  0
   -4.0480   -2.8240    1.0400 C   0  0  0  0  0  0  0  0  0  0  0  0
   -2.9540   -3.6710    0.8730 C   0  0  0  0  0  0  0  0  0  0  0  0
   -3.2680   -4.8830    1.4430 C   0  0  0  0  0  0  0  0  0  0  0  0
   -4.5560   -4.7280    1.9420 C   0  0  0  0  0  0  0  0  0  0  0  0
   -5.2930   -5.8250    2.6530 C   0  0  0  0  0  0  0  0  0  0  0  0
   -4.9580   -3.5250    1.6830 O   0  0  0  0  0  0  0  0  0  0  0  0
   -3.6120   -0.3030    2.7950 C   0  0  0  0  0  0  0  0  0  0  0  0
   -4.3020    0.9870    3.0930 C   0  0  0  0  0  0  0  0  0  0  0  0
   -3.3880    2.3510    2.3620 S   0  0  0  0  0  0  0  0  0  0  0  0
    6.3070   -0.6150   -2.3510 C   0  0  0  0  0  0  0  0  0  0  0  0
    7.5900   -1.0550   -2.2570 C   0  0  0  0  0  0  0  0  0  0  0  0
  1  2  1  0
  2  3  1  0
  3  4  2  0
  3 39  1  0
  4  5  1  0
  5  6  2  0
  6  7  1  0
  6 38  1  0
  7  8  1  0
  8  9  1  0
  9 10  1  0
 10 11  1  0
 11 12  1  0
 12 13  2  0
 12 21  1  0
 13 14  1  0
 14 15  1  0
 14 19  2  0
 15 16  1  0
 16 17  1  6
 16 18  1  0
 19 20  1  0
 19 37  1  0
 20 21  2  0
 20 22  1  0
 23 22  1  1
 22 35  1  0
 23 24  1  0
 23 29  1  0
 24 25  2  0
 24 28  1  0
 25 26  1  0
 26 27  1  0
 27 28  2  0
 29 30  2  0
 29 34  1  0
 30 31  1  0
 31 32  2  0
 32 33  1  0
 32 34  1  0
 35 36  1  0
 36 37  1  0
 38 39  2  0
M  CHG  2  10   1  16   1
M  END
