
     RDKit          3D

 39 43  0  0  0  0  0  0  0  0999 V2000
   12.5120    0.7150    0.2450 C   0  0  0  0  0  0  0  0  0  0  0  0
   11.8460   -0.1470   -0.7980 C   0  0  0  0  0  0  0  0  0  0  0  0
   11.3470   -1.7440   -0.1130 S   0  0  0  0  0  0  0  0  0  0  0  0
   10.0560   -1.4740    1.1140 C   0  0  0  0  0  0  0  0  0  0  0  0
    8.8440   -0.9550    0.4300 C   0  0  0  0  0  0  0  0  0  0  0  0
    8.7110    0.4200    0.2940 C   0  0  0  0  0  0  0  0  0  0  0  0
    7.5970    0.9130   -0.3330 C   0  0  0  0  0  0  0  0  0  0  0  0
    6.6300    0.0510   -0.8160 C   0  0  0  0  0  0  0  0  0  0  0  0
    6.7690   -1.3160   -0.6770 C   0  0  0  0  0  0  0  0  0  0  0  0
    5.7480   -2.2820   -1.1750 C   0  0  0  0  0  0  0  0  0  0  0  0
    4.5340   -1.5780   -1.4670 O   0  0  0  0  0  0  0  0  0  0  0  0
    3.9280   -0.9060   -0.4290 C   0  0  0  0  0  0  0  0  0  0  0  0
    4.4450   -0.9330    0.7080 O   0  0  0  0  0  0  0  0  0  0  0  0
    2.6810   -0.1650   -0.6710 C   0  0  0  0  0  0  0  0  0  0  0  0
    2.2200    0.4750    0.5500 N   0  0  0  0  0  0  0  0  0  0  0  0
    1.0460    1.2380    0.2540 C   0  0  0  0  0  0  0  0  0  0  0  0
   -0.1050    0.7730    1.1110 C   0  0  0  0  0  0  0  0  0  0  0  0
    0.0960    0.6500    2.4750 C   0  0  0  0  0  0  0  0  0  0  0  0
   -0.9640    0.2240    3.2570 C   0  0  0  0  0  0  0  0  0  0  0  0
   -2.1930   -0.0720    2.6980 C   0  0  0  0  0  0  0  0  0  0  0  0
   -2.3840    0.0540    1.3420 C   0  0  0  0  0  0  0  0  0  0  0  0
   -3.6670   -0.2520    0.7460 N   0  0  0  0  0  0  0  0  0  0  0  0
   -4.2690   -1.4510    0.7430 C   0  0  0  0  0  0  0  0  0  0  0  0
   -3.7370   -2.7030    1.3510 C   0  0  0  0  0  0  0  0  0  0  0  0
   -5.4790   -1.3210    0.0710 C   0  0  0  0  0  0  0  0  0  0  0  0
   -5.5590   -0.0100   -0.3130 C   0  0  0  0  0  0  0  0  0  0  0  0
   -4.4120    0.6720    0.1120 C   0  0  0  0  0  0  0  0  0  0  0  0
   -4.0130    2.1070   -0.0670 C   0  0  0  0  0  0  0  0  0  0  0  0
   -4.9350    3.0080    0.3840 O   0  0  0  0  0  0  0  0  0  0  0  0
   -6.2520    2.6210    0.1830 C   0  0  0  0  0  0  0  0  0  0  0  0
   -6.4730    2.0930   -1.2240 C   0  0  0  0  0  0  0  0  0  0  0  0
   -6.6770    0.5770   -1.0580 C   0  0  2  0  0  0  0  0  0  0  0  0
   -7.9810    0.4130   -0.5180 N   0  0  2  0  0  0  0  0  0  0  0  0
   -8.4110   -0.9230   -0.2510 C   0  0  0  0  0  0  0  0  0  0  0  0
   -9.9450   -0.7410   -0.2820 C   0  0  0  0  0  0  0  0  0  0  0  0
  -10.0600   -0.0280   -1.6190 C   0  0  0  0  0  0  0  0  0  0  0  0
   -8.9190    0.9590   -1.5040 C   0  0  0  0  0  0  0  0  0  0  0  0
   -1.3280    0.4770    0.5700 C   0  0  0  0  0  0  0  0  0  0  0  0
    7.8960   -1.8200   -0.0430 C   0  0  0  0  0  0  0  0  0  0  0  0
  1  2  1  0
  2  3  1  0
  3  4  1  0
  4  5  1  0
  5  6  2  0
  5 39  1  0
  6  7  1  0
  7  8  2  0
  8  9  1  0
  9 10  1  0
  9 39  2  0
 10 11  1  0
 11 12  1  0
 12 13  2  0
 12 14  1  0
 14 15  1  0
 15 16  1  0
 16 17  1  0
 17 18  2  0
 17 38  1  0
 18 19  1  0
 19 20  2  0
 20 21  1  0
 21 22  1  0
 21 38  2  0
 22 23  1  0
 22 27  1  0
 23 24  1  0
 23 25  2  0
 25 26  1  0
 26 27  2  0
 26 32  1  0
 27 28  1  0
 28 29  1  0
 29 30  1  0
 30 31  1  0
 32 31  1  1
 32 33  1  0
 33 34  1  6
 33 37  1  0
 34 35  1  0
 35 36  1  0
 36 37  1  0
M  CHG  2  15   1  33   1
M  END
