
     RDKit          3D

 39 43  0  0  0  0  0  0  0  0999 V2000
   -5.2630   -2.6040    1.6890 O   0  0  0  0  0  0  0  0  0  0  0  0
   -4.6430   -2.1370    0.7420 C   0  0  0  0  0  0  0  0  0  0  0  0
   -3.2110   -2.5470    0.3660 C   0  0  0  0  0  0  0  0  0  0  0  0
   -2.2370   -1.0830    0.6290 S   0  0  0  0  0  0  0  0  0  0  0  0
   -0.5470   -1.1680    0.1390 C   0  0  0  0  0  0  0  0  0  0  0  0
    0.3840   -0.1180    0.2320 C   0  0  0  0  0  0  0  0  0  0  0  0
    1.5250   -0.5570   -0.2580 N   0  0  0  0  0  0  0  0  0  0  0  0
    2.8140    0.1580   -0.3740 C   0  0  0  0  0  0  0  0  0  0  0  0
    3.5380   -0.0820    0.9360 C   0  0  0  0  0  0  0  0  0  0  0  0
    4.8940    0.3610    0.9590 N   0  0  0  0  0  0  0  0  0  0  0  0
    5.4130    1.6590    0.7780 C   0  0  0  0  0  0  0  0  0  0  0  0
    4.6790    2.6350    0.5760 O   0  0  0  0  0  0  0  0  0  0  0  0
    6.8780    1.8520    0.8290 C   0  0  0  0  0  0  0  0  0  0  0  0
    7.5290    2.4920    1.8310 C   0  0  0  0  0  0  0  0  0  0  0  0
    8.9130    2.6030    1.8760 C   0  0  0  0  0  0  0  0  0  0  0  0
    9.6330    2.0380    0.8520 C   0  0  0  0  0  0  0  0  0  0  0  0
    9.0120    1.3800   -0.1860 C   0  0  0  0  0  0  0  0  0  0  0  0
    9.8220    0.7670   -1.2590 C   0  0  2  0  0  0  0  0  0  0  0  0
   10.3130   -0.4690   -0.8880 F   0  0  0  0  0  0  0  0  0  0  0  0
   10.9010    1.6050   -1.5810 F   0  0  0  0  0  0  0  0  0  0  0  0
    9.1010    0.6410   -2.4390 F   0  0  0  0  0  0  0  0  0  0  0  0
    7.6400    1.2920   -0.1920 C   0  0  0  0  0  0  0  0  0  0  0  0
    1.4450   -1.8380   -0.6810 C   0  0  0  0  0  0  0  0  0  0  0  0
    2.3620   -2.6880   -1.2480 C   0  0  0  0  0  0  0  0  0  0  0  0
    1.9120   -3.9720   -1.5620 C   0  0  0  0  0  0  0  0  0  0  0  0
    0.6180   -4.3660   -1.3160 C   0  0  0  0  0  0  0  0  0  0  0  0
   -0.2830   -3.4950   -0.7470 C   0  0  0  0  0  0  0  0  0  0  0  0
    0.1190   -2.2230   -0.4230 C   0  0  0  0  0  0  0  0  0  0  0  0
   -5.1740   -1.1540   -0.1260 N   0  0  0  0  0  0  0  0  0  0  0  0
   -6.4620   -0.5920    0.0020 C   0  0  0  0  0  0  0  0  0  0  0  0
   -7.5720   -1.2380    0.4690 C   0  0  0  0  0  0  0  0  0  0  0  0
   -8.7530   -0.5170    0.5620 C   0  0  0  0  0  0  0  0  0  0  0  0
   -8.8230    0.8170    0.1990 C   0  0  0  0  0  0  0  0  0  0  0  0
   -7.6990    1.4770   -0.2740 C   0  0  0  0  0  0  0  0  0  0  0  0
   -6.5500    0.7630   -0.3640 C   0  0  0  0  0  0  0  0  0  0  0  0
   -7.8040    2.8120   -0.6270 O   0  0  0  0  0  0  0  0  0  0  0  0
   -8.8570    3.6390   -0.1650 C   0  0  0  0  0  0  0  0  0  0  0  0
  -10.1350    2.8680   -0.0240 C   0  0  0  0  0  0  0  0  0  0  0  0
   -9.9930    1.5250    0.2960 O   0  0  0  0  0  0  0  0  0  0  0  0
  1  2  2  0
  2  3  1  0
  2 29  1  0
  3  4  1  0
  4  5  1  0
  5  6  2  0
  5 28  1  0
  6  7  1  0
  7  8  1  0
  7 23  1  0
  8  9  1  0
  9 10  1  0
 10 11  1  0
 11 12  2  0
 11 13  1  0
 13 14  2  0
 13 22  1  0
 14 15  1  0
 15 16  2  0
 16 17  1  0
 17 18  1  0
 17 22  2  0
 18 19  1  1
 18 20  1  0
 18 21  1  0
 23 24  2  0
 23 28  1  0
 24 25  1  0
 25 26  2  0
 26 27  1  0
 27 28  2  0
 29 30  1  0
 30 31  2  0
 30 35  1  0
 31 32  1  0
 32 33  2  0
 33 34  1  0
 33 39  1  0
 34 35  2  0
 34 36  1  0
 36 37  1  0
 37 38  1  0
 38 39  1  0
M  END
