
     RDKit          3D

 39 43  0  0  0  0  0  0  0  0999 V2000
   -7.1660   -2.9750    2.8340 C   0  0  0  0  0  0  0  0  0  0  0  0
   -7.5460   -2.1150    2.1440 C   0  0  0  0  0  0  0  0  0  0  0  0
   -7.9320   -1.0350    1.2470 C   0  0  0  0  0  0  0  0  0  0  0  0
   -9.2190   -0.6700    1.0780 C   0  0  0  0  0  0  0  0  0  0  0  0
   -9.3450    0.4140    0.1420 C   0  0  0  0  0  0  0  0  0  0  0  0
   -7.9600    0.9940    0.0650 C   0  0  0  0  0  0  0  0  0  0  0  0
   -7.4880    2.1810   -0.4360 C   0  0  0  0  0  0  0  0  0  0  0  0
   -8.4270    3.1580   -0.9710 C   0  0  0  0  0  0  0  0  0  0  0  0
   -6.1420    2.4210   -0.3940 C   0  0  0  0  0  0  0  0  0  0  0  0
   -5.2590    1.5190    0.1340 C   0  0  0  0  0  0  0  0  0  0  0  0
   -3.9150    1.8840    0.2190 C   0  0  0  0  0  0  0  0  0  0  0  0
   -3.0360    0.9990    0.8460 C   0  0  0  0  0  0  0  0  0  0  0  0
   -1.6600    1.3020    0.9900 O   0  0  0  0  0  0  0  0  0  0  0  0
   -0.7270    0.4550    1.5740 C   0  0  0  0  0  0  0  0  0  0  0  0
   -0.2930   -0.7750    0.9200 C   0  0  0  0  0  0  0  0  0  0  0  0
    0.3850   -0.6410   -0.3710 N   0  0  2  0  0  0  0  0  0  0  0  0
   -0.4590   -1.1800   -1.4440 C   0  0  0  0  0  0  0  0  0  0  0  0
    1.5620   -1.4960   -0.2650 C   0  0  0  0  0  0  0  0  0  0  0  0
    2.8680   -0.7520   -0.1890 C   0  0  0  0  0  0  0  0  0  0  0  0
    3.1510    0.0500   -1.4470 C   0  0  2  0  0  0  0  0  0  0  0  0
    3.1910   -0.8670   -2.6600 C   0  0  0  0  0  0  0  0  0  0  0  0
    4.3910    0.7900   -1.3170 N   0  0  0  0  0  0  0  0  0  0  0  0
    4.9520    0.8780   -0.0250 C   0  0  0  0  0  0  0  0  0  0  0  0
    6.4070    0.8660   -0.0280 N   0  0  0  0  0  0  0  0  0  0  0  0
    7.1670    1.9850   -0.0440 C   0  0  0  0  0  0  0  0  0  0  0  0
    6.4400    3.4460   -0.0750 S   0  0  0  0  0  0  0  0  0  0  0  0
    8.4880    1.9740   -0.0360 O   0  0  0  0  0  0  0  0  0  0  0  0
    9.1830    0.8300   -0.0110 C   0  0  0  0  0  0  0  0  0  0  0  0
   10.5800    0.8540   -0.0080 C   0  0  0  0  0  0  0  0  0  0  0  0
   11.2820   -0.3500    0.0110 C   0  0  0  0  0  0  0  0  0  0  0  0
   10.5750   -1.5390    0.0310 C   0  0  0  0  0  0  0  0  0  0  0  0
    9.1800   -1.5080    0.0260 C   0  0  0  0  0  0  0  0  0  0  0  0
    8.4620   -0.3300    0.0050 C   0  0  0  0  0  0  0  0  0  0  0  0
    7.0880   -0.3010   -0.0020 C   0  0  0  0  0  0  0  0  0  0  0  0
    6.5280   -1.4430    0.0230 O   0  0  0  0  0  0  0  0  0  0  0  0
   -3.5390   -0.1530    1.3260 C   0  0  0  0  0  0  0  0  0  0  0  0
   -4.8870   -0.5300    1.2440 C   0  0  0  0  0  0  0  0  0  0  0  0
   -5.7610    0.3220    0.6390 C   0  0  0  0  0  0  0  0  0  0  0  0
   -7.1290    0.0130    0.6240 C   0  0  0  0  0  0  0  0  0  0  0  0
  1  2  2  0
  2  3  1  0
  3  4  2  0
  3 39  1  0
  4  5  1  0
  5  6  1  0
  6  7  2  0
  6 39  1  0
  7  8  1  0
  7  9  1  0
  9 10  2  0
 10 11  1  0
 10 38  1  0
 11 12  2  0
 12 13  1  0
 12 36  1  0
 13 14  1  0
 14 15  1  0
 15 16  1  0
 16 17  1  6
 16 18  1  0
 18 19  1  0
 19 20  1  0
 20 21  1  6
 20 22  1  0
 22 23  1  0
 23 24  1  0
 24 25  1  0
 24 34  1  0
 25 26  2  0
 25 27  1  0
 27 28  1  0
 28 29  2  0
 28 33  1  0
 29 30  1  0
 30 31  2  0
 31 32  1  0
 32 33  2  0
 33 34  1  0
 34 35  2  0
 36 37  2  0
 37 38  1  0
 38 39  2  0
M  CHG  2  16   1  22   1
M  END
