
     RDKit          3D

 39 42  0  0  0  0  0  0  0  0999 V2000
    8.8150    2.5790   -1.9380 C   0  0  0  0  0  0  0  0  0  0  0  0
    7.7180    3.5010   -1.4020 C   0  0  0  0  0  0  0  0  0  0  0  0
    7.2610    2.8710   -0.1080 C   0  0  0  0  0  0  0  0  0  0  0  0
    6.5750    1.6320   -0.3310 N   0  0  0  0  0  0  0  0  0  0  0  0
    6.7320    0.6370    0.7400 C   0  0  0  0  0  0  0  0  0  0  0  0
    5.6810   -0.3910    0.6550 C   0  0  0  0  0  0  0  0  0  0  0  0
    4.5080   -0.1630    1.3090 N   0  0  0  0  0  0  0  0  0  0  0  0
    3.5840   -1.0980    1.4860 N   0  0  0  0  0  0  0  0  0  0  0  0
    2.4190   -0.7280    2.2990 C   0  0  0  0  0  0  0  0  0  0  0  0
    1.3210   -0.1460    1.4370 C   0  0  0  0  0  0  0  0  0  0  0  0
    1.4740    0.9230    0.5970 C   0  0  0  0  0  0  0  0  0  0  0  0
    0.2390    1.1570   -0.0170 C   0  0  0  0  0  0  0  0  0  0  0  0
   -0.5970    0.1780    0.5190 C   0  0  0  0  0  0  0  0  0  0  0  0
   -1.9960    0.0750    0.1390 C   0  0  0  0  0  0  0  0  0  0  0  0
   -2.7660   -0.9270    0.6790 C   0  0  0  0  0  0  0  0  0  0  0  0
   -4.1140   -1.0300    0.3190 C   0  0  0  0  0  0  0  0  0  0  0  0
   -4.6720   -0.1220   -0.5740 C   0  0  0  0  0  0  0  0  0  0  0  0
   -6.0470   -0.2170   -0.9120 N   0  0  0  0  0  0  0  0  0  0  0  0
   -7.0710    0.0220    0.0490 C   0  0  0  0  0  0  0  0  0  0  0  0
   -6.7130    0.3460    1.2350 O   0  0  0  0  0  0  0  0  0  0  0  0
   -8.4360   -0.0820   -0.2400 N   0  0  0  0  0  0  0  0  0  0  0  0
   -9.4750    0.1870    0.7610 C   0  0  1  0  0  0  0  0  0  0  0  0
  -10.3080    1.3820    0.3690 C   0  0  0  0  0  0  0  0  0  0  0  0
  -10.9330    1.1560   -0.9020 N   0  0  0  0  0  0  0  0  0  0  0  0
  -10.2610   -1.0270    1.1520 C   0  0  2  0  0  0  0  0  0  0  0  0
  -10.9300   -1.6470    0.1420 F   0  0  0  0  0  0  0  0  0  0  0  0
  -11.1630   -0.6040    2.1460 F   0  0  0  0  0  0  0  0  0  0  0  0
   -9.4180   -1.9400    1.7570 F   0  0  0  0  0  0  0  0  0  0  0  0
   -3.8790    0.8640   -1.0870 C   0  0  0  0  0  0  0  0  0  0  0  0
   -2.5210    0.9910   -0.7470 C   0  0  0  0  0  0  0  0  0  0  0  0
    0.0840   -0.5490    1.3560 O   0  0  0  0  0  0  0  0  0  0  0  0
    3.8290   -2.3070    0.9860 C   0  0  0  0  0  0  0  0  0  0  0  0
    2.9560   -3.2260    1.1380 O   0  0  0  0  0  0  0  0  0  0  0  0
    4.9950   -2.6030    0.3100 C   0  0  0  0  0  0  0  0  0  0  0  0
    5.2450   -3.8270   -0.2810 C   0  0  0  0  0  0  0  0  0  0  0  0
    6.3930   -4.0860   -1.0230 C   0  0  0  0  0  0  0  0  0  0  0  0
    7.3260   -3.0970   -1.1770 C   0  0  0  0  0  0  0  0  0  0  0  0
    7.1140   -1.8570   -0.5980 C   0  0  0  0  0  0  0  0  0  0  0  0
    5.9550   -1.6250    0.1360 C   0  0  0  0  0  0  0  0  0  0  0  0
  1  2  1  0
  2  3  1  0
  3  4  1  0
  4  5  1  0
  5  6  1  0
  6  7  2  0
  6 39  1  0
  7  8  1  0
  8  9  1  0
  8 32  1  0
  9 10  1  0
 10 11  2  0
 10 31  1  0
 11 12  1  0
 12 13  2  0
 13 14  1  0
 13 31  1  0
 14 15  2  0
 14 30  1  0
 15 16  1  0
 16 17  2  0
 17 18  1  0
 17 29  1  0
 18 19  1  0
 19 20  2  0
 19 21  1  0
 21 22  1  0
 22 23  1  6
 22 25  1  0
 23 24  1  0
 25 26  1  6
 25 27  1  0
 25 28  1  0
 29 30  2  0
 32 33  2  0
 32 34  1  0
 34 35  2  0
 34 39  1  0
 35 36  1  0
 36 37  2  0
 37 38  1  0
 38 39  2  0
M  CHG  1  24   1
M  END
