
     RDKit          3D

 39 43  0  0  0  0  0  0  0  0999 V2000
   -8.5580    0.3340    2.0960 C   0  0  0  0  0  0  0  0  0  0  0  0
   -8.1670   -0.8600    1.4020 O   0  0  0  0  0  0  0  0  0  0  0  0
   -7.4460   -0.7430    0.2160 C   0  0  0  0  0  0  0  0  0  0  0  0
   -7.9960   -0.6820   -0.9730 C   0  0  0  0  0  0  0  0  0  0  0  0
   -6.9600   -0.5610   -2.0180 C   0  0  0  0  0  0  0  0  0  0  0  0
   -5.6960   -0.5630   -1.1980 C   0  0  0  0  0  0  0  0  0  0  0  0
   -5.9780   -0.6660    0.0630 C   0  0  0  0  0  0  0  0  0  0  0  0
   -5.0890   -0.7030    1.2370 C   0  0  0  0  0  0  0  0  0  0  0  0
   -3.6310   -0.5870    0.9680 C   0  0  2  0  0  0  0  0  0  0  0  0
   -3.1770   -1.7100    0.0660 C   0  0  0  0  0  0  0  0  0  0  0  0
   -2.9360   -0.8440    2.3360 C   0  0  0  0  0  0  0  0  0  0  0  0
   -3.1830    0.6640    0.4400 N   0  0  1  0  0  0  0  0  0  0  0  0
   -4.0390    1.7960    0.7490 C   0  0  0  0  0  0  0  0  0  0  0  0
   -3.2530    3.0810    0.7660 C   0  0  0  0  0  0  0  0  0  0  0  0
   -2.1020    3.0990   -0.0860 N   0  0  0  0  0  0  0  0  0  0  0  0
   -1.3120    2.0080   -0.0490 C   0  0  0  0  0  0  0  0  0  0  0  0
   -0.1690    1.9740   -0.8660 C   0  0  0  0  0  0  0  0  0  0  0  0
    0.7740    1.2130   -1.1830 C   0  0  0  0  0  0  0  0  0  0  0  0
    1.2090   -0.1320   -0.8530 C   0  0  0  0  0  0  0  0  0  0  0  0
    0.2900   -1.4740   -0.1230 S   0  0  0  0  0  0  0  0  0  0  0  0
    1.5610   -2.6480   -0.1070 C   0  0  0  0  0  0  0  0  0  0  0  0
    2.5900   -1.9920   -0.6370 C   0  0  0  0  0  0  0  0  0  0  0  0
    2.4550   -0.7020   -1.0300 C   0  0  0  0  0  0  0  0  0  0  0  0
    3.5910    0.1360   -1.5240 C   0  0  0  0  0  0  0  0  0  0  0  0
    4.4430   -0.4230   -2.2480 O   0  0  0  0  0  0  0  0  0  0  0  0
    3.7620    1.4850   -1.2230 N   0  0  0  0  0  0  0  0  0  0  0  0
    4.8970    2.2630   -1.7500 C   0  0  0  0  0  0  0  0  0  0  0  0
    6.1210    1.9230   -0.9920 C   0  0  0  0  0  0  0  0  0  0  0  0
    6.3020    2.4970    0.2480 C   0  0  0  0  0  0  0  0  0  0  0  0
    7.4180    2.2240    0.9970 C   0  0  0  0  0  0  0  0  0  0  0  0
    8.3640    1.3590    0.4880 C   0  0  0  0  0  0  0  0  0  0  0  0
    9.4910    1.0700    1.2210 O   0  0  0  0  0  0  0  0  0  0  0  0
    8.2290    0.7520   -0.7580 C   0  0  0  0  0  0  0  0  0  0  0  0
    9.2560   -0.1760   -1.2930 C   0  0  0  0  0  0  0  0  0  0  0  0
    7.0750    1.0700   -1.4700 C   0  0  0  0  0  0  0  0  0  0  0  0
    3.7370   -3.0080   -0.6520 C   0  0  0  0  0  0  0  0  0  0  0  0
    3.3930   -3.8690    0.5370 C   0  0  0  0  0  0  0  0  0  0  0  0
    1.9010   -4.0740    0.2740 C   0  0  0  0  0  0  0  0  0  0  0  0
   -1.8450    1.0480    0.9490 C   0  0  0  0  0  0  0  0  0  0  0  0
  1  2  1  0
  2  3  1  0
  3  4  2  0
  3  7  1  0
  4  5  1  0
  5  6  1  0
  6  7  2  0
  7  8  1  0
  8  9  1  0
  9 10  1  6
  9 11  1  0
  9 12  1  0
 12 13  1  1
 12 39  1  0
 13 14  1  0
 14 15  1  0
 15 16  2  0
 16 17  1  0
 16 39  1  0
 17 18  2  3
 18 19  1  0
 19 20  1  0
 19 23  2  0
 20 21  1  0
 21 22  2  0
 21 38  1  0
 22 23  1  0
 22 36  1  0
 23 24  1  0
 24 25  2  0
 24 26  1  0
 26 27  1  0
 27 28  1  0
 28 29  2  0
 28 35  1  0
 29 30  1  0
 30 31  2  0
 31 32  1  0
 31 33  1  0
 33 34  1  0
 33 35  2  0
 36 37  1  0
 37 38  1  0
M  CHG  2  12   1  15   1
M  END
