
     RDKit          3D

 39 42  0  0  0  0  0  0  0  0999 V2000
   10.8180   -0.8630    0.1060 C   0  0  0  0  0  0  0  0  0  0  0  0
    9.3460   -0.9150    0.3890 C   0  0  0  0  0  0  0  0  0  0  0  0
    8.5490    0.1530   -0.0410 C   0  0  0  0  0  0  0  0  0  0  0  0
    7.2020    0.1800    0.1450 C   0  0  0  0  0  0  0  0  0  0  0  0
    6.5940   -0.8650    0.7680 C   0  0  0  0  0  0  0  0  0  0  0  0
    5.1480   -0.8450    0.9460 N   0  0  0  0  0  0  0  0  0  0  0  0
    4.4320    0.3750    0.6600 C   0  0  0  0  0  0  0  0  0  0  0  0
    3.1360    0.1940    0.0130 C   0  0  1  0  0  0  0  0  0  0  0  0
    3.3590   -0.4930   -1.1960 O   0  0  0  0  0  0  0  0  0  0  0  0
    2.1490   -0.5660    0.8350 C   0  0  0  0  0  0  0  0  0  0  0  0
    0.9620   -0.9250   -0.0660 C   0  0  0  0  0  0  0  0  0  0  0  0
    0.0610    0.3050   -0.2180 C   0  0  0  0  0  0  0  0  0  0  0  0
    0.4600    1.0160   -1.4280 N   0  0  0  0  0  0  0  0  0  0  0  0
   -0.5050    1.3070   -2.4400 C   0  0  0  0  0  0  0  0  0  0  0  0
   -0.0250    1.3390   -3.6180 O   0  0  0  0  0  0  0  0  0  0  0  0
   -1.8840    1.5420   -2.1480 C   0  0  2  0  0  0  0  0  0  0  0  0
   -1.9880    2.7310   -1.2230 C   0  0  0  0  0  0  0  0  0  0  0  0
   -2.8560    0.5090   -1.9810 N   0  0  0  0  0  0  0  0  0  0  0  0
   -3.6990    0.6040   -0.8220 C   0  0  0  0  0  0  0  0  0  0  0  0
   -3.4920    1.6140   -0.0310 O   0  0  0  0  0  0  0  0  0  0  0  0
   -4.7180   -0.3000   -0.4810 N   0  0  0  0  0  0  0  0  0  0  0  0
   -5.3740   -0.0770    0.7810 C   0  0  0  0  0  0  0  0  0  0  0  0
   -4.8110    0.5380    1.8650 C   0  0  0  0  0  0  0  0  0  0  0  0
   -5.6830    0.5650    2.8970 N   0  0  0  0  0  0  0  0  0  0  0  0
   -6.7530   -0.0250    2.4490 N   0  0  0  0  0  0  0  0  0  0  0  0
   -6.6230   -0.4470    1.1600 C   0  0  0  0  0  0  0  0  0  0  0  0
   -7.7190   -0.9840    0.4090 C   0  0  0  0  0  0  0  0  0  0  0  0
   -7.5870   -2.0960   -0.3750 C   0  0  0  0  0  0  0  0  0  0  0  0
   -8.6500   -2.5160   -1.1650 C   0  0  0  0  0  0  0  0  0  0  0  0
   -8.5060   -3.6570   -1.9200 F   0  0  0  0  0  0  0  0  0  0  0  0
   -9.8700   -1.8610   -1.2150 C   0  0  0  0  0  0  0  0  0  0  0  0
   -9.9570   -0.7300   -0.3980 C   0  0  0  0  0  0  0  0  0  0  0  0
  -11.1560   -0.0310   -0.4270 F   0  0  0  0  0  0  0  0  0  0  0  0
   -8.9430   -0.3060    0.3760 C   0  0  0  0  0  0  0  0  0  0  0  0
    1.7660    1.6230   -1.5770 C   0  0  0  0  0  0  0  0  0  0  0  0
    2.5200    1.5720   -0.2580 C   0  0  0  0  0  0  0  0  0  0  0  0
    7.3210   -1.9300    1.2030 C   0  0  0  0  0  0  0  0  0  0  0  0
    6.7970   -3.0180    1.7970 F   0  0  0  0  0  0  0  0  0  0  0  0
    8.7250   -1.9560    1.0120 C   0  0  0  0  0  0  0  0  0  0  0  0
  1  2  1  0
  2  3  2  0
  2 39  1  0
  3  4  1  0
  4  5  2  0
  5  6  1  0
  5 37  1  0
  6  7  1  0
  7  8  1  0
  8  9  1  6
  8 10  1  0
  8 36  1  0
 10 11  1  0
 11 12  1  0
 12 13  1  0
 13 14  1  0
 13 35  1  0
 14 15  2  0
 14 16  1  0
 16 17  1  1
 16 18  1  0
 18 19  1  0
 19 20  2  0
 19 21  1  0
 21 22  1  0
 22 23  2  0
 22 26  1  0
 23 24  1  0
 24 25  1  0
 25 26  2  0
 26 27  1  0
 27 28  2  0
 27 34  1  0
 28 29  1  0
 29 30  1  0
 29 31  2  0
 31 32  1  0
 32 33  1  0
 32 34  2  0
 35 36  1  0
 37 38  1  0
 37 39  2  0
M  CHG  1  25   1
M  END
