
     RDKit          3D

 39 43  0  0  0  0  0  0  0  0999 V2000
   -7.5160    0.3740    2.7550 C   0  0  0  0  0  0  0  0  0  0  0  0
   -7.0350   -1.0380    2.4780 C   0  0  0  0  0  0  0  0  0  0  0  0
   -5.6810   -1.3210    2.9060 C   0  0  0  0  0  0  0  0  0  0  0  0
   -5.4390   -1.7210    4.2530 C   0  0  0  0  0  0  0  0  0  0  0  0
   -4.1910   -1.8660    4.7700 C   0  0  0  0  0  0  0  0  0  0  0  0
   -3.1330   -1.6320    4.0140 N   0  0  0  0  0  0  0  0  0  0  0  0
   -3.2770   -1.2520    2.7230 C   0  0  0  0  0  0  0  0  0  0  0  0
   -2.1410   -1.0430    1.9670 C   0  0  0  0  0  0  0  0  0  0  0  0
   -2.2190   -0.6860    0.6590 C   0  0  0  0  0  0  0  0  0  0  0  0
   -1.1190   -0.4610   -0.2080 N   0  0  0  0  0  0  0  0  0  0  0  0
    0.1910   -0.8060    0.1360 C   0  0  0  0  0  0  0  0  0  0  0  0
    0.5390   -1.3380    1.2090 O   0  0  0  0  0  0  0  0  0  0  0  0
    1.3060   -0.5450   -0.8060 C   0  0  0  0  0  0  0  0  0  0  0  0
    2.5530   -0.8490   -0.5310 C   0  0  0  0  0  0  0  0  0  0  0  0
    3.8290   -0.5030   -1.7140 S   0  0  0  0  0  0  0  0  0  0  0  0
    5.1930    0.3350   -0.9180 C   0  0  0  0  0  0  0  0  0  0  0  0
    5.1110    0.5940    0.3710 C   0  0  0  0  0  0  0  0  0  0  0  0
    6.2110    1.2860    1.0820 C   0  0  0  0  0  0  0  0  0  0  0  0
    7.5190    0.9620    0.4880 C   0  0  0  0  0  0  0  0  0  0  0  0
    8.6740    0.9170    1.2330 C   0  0  0  0  0  0  0  0  0  0  0  0
    9.8880    0.6140    0.6810 C   0  0  0  0  0  0  0  0  0  0  0  0
    9.9680    0.3450   -0.6640 C   0  0  0  0  0  0  0  0  0  0  0  0
   11.2120    0.0340   -1.2310 O   0  0  0  0  0  0  0  0  0  0  0  0
   12.3820   -0.0060   -0.4450 C   0  0  0  0  0  0  0  0  0  0  0  0
    8.8320    0.3860   -1.4140 C   0  0  0  0  0  0  0  0  0  0  0  0
    8.8910    0.1170   -2.7740 O   0  0  0  0  0  0  0  0  0  0  0  0
    9.1050    1.0780   -3.7720 C   0  0  0  0  0  0  0  0  0  0  0  0
    7.5910    0.6930   -0.8600 C   0  0  0  0  0  0  0  0  0  0  0  0
    6.3910    0.7270   -1.7140 C   0  0  0  0  0  0  0  0  0  0  0  0
   -3.5010   -0.5360    0.0940 C   0  0  0  0  0  0  0  0  0  0  0  0
   -4.6530   -0.7340    0.8120 C   0  0  0  0  0  0  0  0  0  0  0  0
   -5.9800   -0.6760    0.2120 C   0  0  0  0  0  0  0  0  0  0  0  0
   -5.7590   -0.2820   -1.2220 N   0  0  1  0  0  0  0  0  0  0  0  0
   -7.0210   -0.5610   -1.9440 C   0  0  0  0  0  0  0  0  0  0  0  0
   -7.1170    0.2270   -3.2070 C   0  0  0  0  0  0  0  0  0  0  0  0
   -7.4550    1.6650   -2.8450 C   0  0  0  0  0  0  0  0  0  0  0  0
   -6.7710    1.9280   -1.5320 C   0  0  0  0  0  0  0  0  0  0  0  0
   -5.4850    1.1040   -1.3730 C   0  0  0  0  0  0  0  0  0  0  0  0
   -4.5620   -1.0970    2.1670 C   0  0  0  0  0  0  0  0  0  0  0  0
  1  2  1  0
  2  3  1  0
  3  4  2  0
  3 39  1  0
  4  5  1  0
  5  6  2  0
  6  7  1  0
  7  8  2  0
  7 39  1  0
  8  9  1  0
  9 10  1  0
  9 30  2  0
 10 11  1  0
 11 12  2  0
 11 13  1  0
 13 14  2  3
 14 15  1  0
 15 16  1  0
 16 17  2  0
 16 29  1  0
 17 18  1  0
 18 19  1  0
 19 20  2  0
 19 28  1  0
 20 21  1  0
 21 22  2  0
 22 23  1  0
 22 25  1  0
 23 24  1  0
 25 26  1  0
 25 28  2  0
 26 27  1  0
 28 29  1  0
 30 31  1  0
 31 32  1  0
 31 39  2  0
 33 32  1  1
 33 34  1  0
 33 38  1  0
 34 35  1  0
 35 36  1  0
 36 37  1  0
 37 38  1  0
M  CHG  2   6   1  33   1
M  END
