
     RDKit          3D

 31 34  0  0  0  0  0  0  0  0999 V2000
    7.7290   -0.9250    0.1030 C   0  0  0  0  0  0  0  0  0  0  0  0
    6.2970   -1.2480   -0.0350 C   0  0  0  0  0  0  0  0  0  0  0  0
    5.8870   -2.2800    0.4300 O   0  0  0  0  0  0  0  0  0  0  0  0
    5.3940   -0.3270   -0.7270 C   0  0  1  0  0  0  0  0  0  0  0  0
    4.0100   -0.7650   -0.7930 C   0  0  0  0  0  0  0  0  0  0  0  0
    3.4510   -1.9970   -1.2820 N   0  0  0  0  0  0  0  0  0  0  0  0
    3.2780    0.1580   -0.3210 N   0  0  0  0  0  0  0  0  0  0  0  0
    4.0390    1.2760    0.1000 C   0  0  0  0  0  0  0  0  0  0  0  0
    3.5560    2.5020    0.6830 C   0  0  0  0  0  0  0  0  0  0  0  0
    2.3540    2.8870    0.9610 C   0  0  0  0  0  0  0  0  0  0  0  0
    1.1190    2.1590    0.7550 C   0  0  0  0  0  0  0  0  0  0  0  0
    0.9850    0.9510    0.2370 N   0  0  0  0  0  0  0  0  0  0  0  0
   -0.1760    0.3260    0.0690 N   0  0  0  0  0  0  0  0  0  0  0  0
   -1.3410    0.8820    0.4200 C   0  0  0  0  0  0  0  0  0  0  0  0
   -2.6250    0.3090    0.2860 N   0  0  0  0  0  0  0  0  0  0  0  0
   -2.8880   -0.9640   -0.2480 C   0  0  0  0  0  0  0  0  0  0  0  0
   -1.9960   -1.7240   -0.6640 O   0  0  0  0  0  0  0  0  0  0  0  0
   -4.2800   -1.4680   -0.3420 C   0  0  0  0  0  0  0  0  0  0  0  0
   -4.8160   -2.5410   -0.7640 N   0  0  0  0  0  0  0  0  0  0  0  0
   -6.1240   -2.1020   -0.4510 C   0  0  0  0  0  0  0  0  0  0  0  0
   -7.4970   -2.2280   -0.3810 C   0  0  0  0  0  0  0  0  0  0  0  0
   -8.2710   -1.1960    0.1430 C   0  0  0  0  0  0  0  0  0  0  0  0
   -9.7400   -1.4030    0.1870 C   0  0  0  0  0  0  0  0  0  0  0  0
   -7.7170   -0.0350    0.6010 C   0  0  0  0  0  0  0  0  0  0  0  0
   -6.3250    0.1010    0.5340 C   0  0  0  0  0  0  0  0  0  0  0  0
   -5.5860   -0.9310    0.0130 C   0  0  0  0  0  0  0  0  0  0  0  0
   -1.2250    2.1340    0.9590 N   0  0  0  0  0  0  0  0  0  0  0  0
   -0.0840    2.7830    1.1390 C   0  0  0  0  0  0  0  0  0  0  0  0
   -0.0280    3.9420    1.6420 O   0  0  0  0  0  0  0  0  0  0  0  0
    5.3380    1.0140   -0.1340 C   0  0  0  0  0  0  0  0  0  0  0  0
    6.4480    1.9480    0.1750 C   0  0  0  0  0  0  0  0  0  0  0  0
  1  2  1  0
  2  3  2  0
  4  2  1  1
  4  5  1  0
  4 30  1  0
  5  6  1  0
  5  7  2  0
  7  8  1  0
  8  9  1  0
  8 30  2  0
  9 10  2  3
 10 11  1  0
 11 12  2  0
 11 28  1  0
 12 13  1  0
 13 14  1  0
 14 15  1  0
 14 27  2  0
 15 16  1  0
 16 17  2  0
 16 18  1  0
 18 19  2  0
 18 26  1  0
 19 20  1  0
 20 21  2  0
 20 26  1  0
 21 22  1  0
 22 23  1  0
 22 24  2  0
 24 25  1  0
 25 26  2  0
 27 28  1  0
 28 29  2  0
 30 31  1  0
M  CHG  1   6   1
M  END
