
     RDKit          3D

 31 34  0  0  0  0  0  0  0  0999 V2000
    5.6560   -0.9680    3.2930 C   0  0  0  0  0  0  0  0  0  0  0  0
    5.3610    0.4980    3.2430 C   0  0  0  0  0  0  0  0  0  0  0  0
    6.0460    1.1570    2.0680 C   0  0  0  0  0  0  0  0  0  0  0  0
    5.6420    0.6170    0.8330 O   0  0  0  0  0  0  0  0  0  0  0  0
    4.3450    0.6250    0.3750 C   0  0  0  0  0  0  0  0  0  0  0  0
    3.4790    1.1580    1.1340 O   0  0  0  0  0  0  0  0  0  0  0  0
    3.9990    0.0500   -0.9100 C   0  0  0  0  0  0  0  0  0  0  0  0
    4.9810   -0.5120   -1.6840 C   0  0  0  0  0  0  0  0  0  0  0  0
    4.7470   -1.0740   -2.9020 C   0  0  0  0  0  0  0  0  0  0  0  0
    3.4030   -1.0550   -3.3550 C   0  0  0  0  0  0  0  0  0  0  0  0
    2.4150   -0.5000   -2.5960 C   0  0  0  0  0  0  0  0  0  0  0  0
    1.0220   -0.4380   -2.9780 C   0  0  0  0  0  0  0  0  0  0  0  0
    0.0820    0.1370   -2.1620 N   0  0  0  0  0  0  0  0  0  0  0  0
   -1.1160    0.0750   -2.7240 C   0  0  0  0  0  0  0  0  0  0  0  0
   -2.3410    0.5960   -2.1200 C   0  0  0  0  0  0  0  0  0  0  0  0
   -3.4040    0.4640   -2.7740 O   0  0  0  0  0  0  0  0  0  0  0  0
   -2.2660    1.2130   -0.8490 N   0  0  0  0  0  0  0  0  0  0  0  0
   -3.1950    1.0420    0.0020 C   0  0  0  0  0  0  0  0  0  0  0  0
   -3.2000    1.5940    1.2330 N   0  0  0  0  0  0  0  0  0  0  0  0
   -4.3170    1.2180    1.8750 C   0  0  0  0  0  0  0  0  0  0  0  0
   -4.8290    1.4820    3.1400 C   0  0  0  0  0  0  0  0  0  0  0  0
   -6.0310    0.9430    3.5330 C   0  0  0  0  0  0  0  0  0  0  0  0
   -6.7680    0.1270    2.6930 C   0  0  0  0  0  0  0  0  0  0  0  0
   -8.0250   -0.4340    3.1090 N   0  0  0  0  0  0  0  0  0  0  0  0
   -6.2470   -0.1270    1.4400 C   0  0  0  0  0  0  0  0  0  0  0  0
   -5.0430    0.4070    1.0340 C   0  0  0  0  0  0  0  0  0  0  0  0
   -4.3150    0.3270   -0.1060 N   0  0  0  0  0  0  0  0  0  0  0  0
   -0.9470   -0.5500   -3.9230 C   0  0  0  0  0  0  0  0  0  0  0  0
    0.3650   -0.8480   -4.0430 N   0  0  0  0  0  0  0  0  0  0  0  0
    0.9160   -1.5300   -5.2190 C   0  0  0  0  0  0  0  0  0  0  0  0
    2.7460    0.0430   -1.3810 N   0  0  0  0  0  0  0  0  0  0  0  0
  1  2  1  0
  2  3  1  0
  3  4  1  0
  4  5  1  0
  5  6  2  0
  5  7  1  0
  7  8  2  0
  7 31  1  0
  8  9  1  0
  9 10  2  0
 10 11  1  0
 11 12  1  0
 11 31  2  0
 12 13  2  0
 12 29  1  0
 13 14  1  0
 14 15  1  0
 14 28  2  0
 15 16  2  0
 15 17  1  0
 17 18  2  3
 18 19  1  0
 18 27  1  0
 19 20  1  0
 20 21  2  0
 20 26  1  0
 21 22  1  0
 22 23  2  0
 23 24  1  0
 23 25  1  0
 25 26  2  0
 26 27  1  0
 28 29  1  0
 29 30  1  0
M  CHG  1  24   1
M  END
