
     RDKit          3D

 29 31  0  0  0  0  0  0  0  0999 V2000
    7.5990    2.2020    1.7670 C   0  0  0  0  0  0  0  0  0  0  0  0
    6.3490    2.6240    1.0650 C   0  0  0  0  0  0  0  0  0  0  0  0
    5.5270    1.5340    0.6960 O   0  0  0  0  0  0  0  0  0  0  0  0
    4.3440    1.8000    0.0410 C   0  0  0  0  0  0  0  0  0  0  0  0
    4.0420    3.0020   -0.2020 O   0  0  0  0  0  0  0  0  0  0  0  0
    3.4380    0.7310   -0.3740 C   0  0  0  0  0  0  0  0  0  0  0  0
    2.2350    0.9120   -1.0340 C   0  0  0  0  0  0  0  0  0  0  0  0
    1.6740    2.2300   -1.4240 C   0  0  0  0  0  0  0  0  0  0  0  0
    1.6390   -0.3000   -1.2730 C   0  0  0  0  0  0  0  0  0  0  0  0
    0.3580   -0.5140   -1.9480 C   0  0  0  0  0  0  0  0  0  0  0  0
    0.3850   -0.6680   -3.2180 O   0  0  0  0  0  0  0  0  0  0  0  0
   -0.8720   -0.5590   -1.2890 N   0  0  0  0  0  0  0  0  0  0  0  0
   -2.0940   -0.7760   -2.0310 C   0  0  0  0  0  0  0  0  0  0  0  0
   -3.1300    0.1470   -1.4240 C   0  0  0  0  0  0  0  0  0  0  0  0
   -3.4500   -0.3340   -0.1110 N   0  0  1  0  0  0  0  0  0  0  0  0
   -4.6060   -1.2000   -0.2290 C   0  0  0  0  0  0  0  0  0  0  0  0
   -5.8390   -0.5650    0.3160 C   0  0  0  0  0  0  0  0  0  0  0  0
   -6.1280   -0.7610    1.6510 C   0  0  0  0  0  0  0  0  0  0  0  0
   -7.2780   -0.1630    2.1390 C   0  0  0  0  0  0  0  0  0  0  0  0
   -8.1170    0.5990    1.3570 C   0  0  0  0  0  0  0  0  0  0  0  0
   -7.7720    0.7610    0.0140 C   0  0  0  0  0  0  0  0  0  0  0  0
   -6.6370    0.1860   -0.5210 C   0  0  0  0  0  0  0  0  0  0  0  0
   -2.3400   -0.9810    0.5240 C   0  0  0  0  0  0  0  0  0  0  0  0
   -0.9960   -0.3940    0.1450 C   0  0  0  0  0  0  0  0  0  0  0  0
    2.4960   -1.2420   -0.7480 C   0  0  0  0  0  0  0  0  0  0  0  0
    2.2330   -2.6920   -0.7920 C   0  0  0  0  0  0  0  0  0  0  0  0
    3.5610   -0.5990   -0.2190 N   0  0  0  0  0  0  0  0  0  0  0  0
    4.6870   -1.2400    0.4300 C   0  0  0  0  0  0  0  0  0  0  0  0
    4.4880   -1.4150    1.9040 C   0  0  0  0  0  0  0  0  0  0  0  0
  1  2  1  0
  2  3  1  0
  3  4  1  0
  4  5  2  0
  4  6  1  0
  6  7  2  0
  6 27  1  0
  7  8  1  0
  7  9  1  0
  9 10  1  0
  9 25  2  0
 10 11  2  0
 10 12  1  0
 12 13  1  0
 12 24  1  0
 13 14  1  0
 14 15  1  0
 15 16  1  6
 15 23  1  0
 16 17  1  0
 17 18  2  0
 17 22  1  0
 18 19  1  0
 19 20  2  0
 20 21  1  0
 21 22  2  0
 23 24  1  0
 25 26  1  0
 25 27  1  0
 27 28  1  0
 28 29  1  0
M  CHG  1  15   1
M  END
