
     RDKit          3D

 29 32  0  0  0  0  0  0  0  0999 V2000
   -4.7140    2.6210   -0.7580 C   0  0  0  0  0  0  0  0  0  0  0  0
   -4.2310    1.8580    0.4590 C   0  0  1  0  0  0  0  0  0  0  0  0
   -5.5200    1.0050    0.7760 C   0  0  0  0  0  0  0  0  0  0  0  0
   -5.4930    0.2040   -0.5010 N   0  0  0  0  0  0  0  0  0  0  0  0
   -4.4670   -0.7190   -0.4530 C   0  0  0  0  0  0  0  0  0  0  0  0
   -4.6230   -2.1280   -0.7760 C   0  0  0  0  0  0  0  0  0  0  0  0
   -3.5300   -2.7650   -0.6220 C   0  0  0  0  0  0  0  0  0  0  0  0
   -4.0130   -4.3060   -0.5690 C   0  0  0  0  0  0  0  0  0  0  0  0
   -4.3900   -5.5600   -0.5380 N   0  0  0  0  0  0  0  0  0  0  0  0
   -2.3000   -2.6610   -0.2560 C   0  0  0  0  0  0  0  0  0  0  0  0
   -2.0520   -1.1590    0.0780 C   0  0  0  0  0  0  0  0  0  0  0  0
   -0.8140   -0.8730    0.6670 C   0  0  0  0  0  0  0  0  0  0  0  0
   -0.6760   -1.3300    2.0050 N   0  0  0  0  0  0  0  0  0  0  0  0
    0.4100   -1.1810    2.6540 N   0  0  0  0  0  0  0  0  0  0  0  0
    1.4750   -0.5930    2.1460 C   0  0  0  0  0  0  0  0  0  0  0  0
    2.5660   -0.4290    2.7770 O   0  0  0  0  0  0  0  0  0  0  0  0
    1.4590   -0.0940    0.8300 C   0  0  0  0  0  0  0  0  0  0  0  0
    2.6730    0.4300    0.2990 C   0  0  0  0  0  0  0  0  0  0  0  0
    3.6810   -0.6040    0.1730 C   0  0  0  0  0  0  0  0  0  0  0  0
    4.9630   -0.3110   -0.1900 C   0  0  0  0  0  0  0  0  0  0  0  0
    5.3630    1.0290   -0.4550 C   0  0  0  0  0  0  0  0  0  0  0  0
    6.7710    1.2890   -0.7650 C   0  0  0  0  0  0  0  0  0  0  0  0
    7.6080    0.2190   -0.2600 N   0  0  0  0  0  0  0  0  0  0  0  0
    4.3740    1.9640   -0.3260 C   0  0  0  0  0  0  0  0  0  0  0  0
    3.0800    1.6420    0.0390 N   0  0  0  0  0  0  0  0  0  0  0  0
    0.2900   -0.2590    0.1460 C   0  0  0  0  0  0  0  0  0  0  0  0
    0.2200    0.4690   -1.0660 N   0  0  0  0  0  0  0  0  0  0  0  0
   -3.1620   -0.3830   -0.0620 C   0  0  0  0  0  0  0  0  0  0  0  0
   -3.1400    1.0320    0.2460 O   0  0  0  0  0  0  0  0  0  0  0  0
  2  1  1  6
  2  3  1  0
  2 29  1  0
  3  4  1  0
  4  5  1  0
  5  6  2  0
  5 28  1  0
  6  7  1  0
  7  8  1  0
  7 10  2  0
  8  9  3  0
 10 11  1  0
 11 12  1  0
 11 28  2  0
 12 13  2  0
 12 26  1  0
 13 14  1  0
 14 15  1  0
 15 16  2  0
 15 17  1  0
 17 18  1  0
 17 26  2  0
 18 19  2  0
 18 25  1  0
 19 20  1  0
 20 21  2  0
 21 22  1  0
 21 24  1  0
 22 23  1  0
 24 25  2  0
 26 27  1  0
 28 29  1  0
M  CHG  1  23   1
M  END
