
     RDKit          3D

 31 34  0  0  0  0  0  0  0  0999 V2000
    6.6100    0.7190   -0.3680 C   0  0  0  0  0  0  0  0  0  0  0  0
    5.4940    0.1470   -1.2160 C   0  0  0  0  0  0  0  0  0  0  0  0
    4.1370    0.3400   -0.5250 C   0  0  2  0  0  0  0  0  0  0  0  0
    3.9700    1.8470   -0.3550 C   0  0  0  0  0  0  0  0  0  0  0  0
    4.1340   -0.3130    0.7460 N   0  0  0  0  0  0  0  0  0  0  0  0
    3.1110   -1.3250    0.8880 C   0  0  2  0  0  0  0  0  0  0  0  0
    3.4780   -2.4930    0.0080 C   0  0  0  0  0  0  0  0  0  0  0  0
    1.7450   -0.8540    0.6880 C   0  0  0  0  0  0  0  0  0  0  0  0
    0.8870   -1.3710   -0.2080 N   0  0  0  0  0  0  0  0  0  0  0  0
   -0.3410   -0.9220   -0.3630 N   0  0  0  0  0  0  0  0  0  0  0  0
   -0.8350    0.1030    0.3770 C   0  0  0  0  0  0  0  0  0  0  0  0
   -2.0630    0.8080    0.1360 C   0  0  0  0  0  0  0  0  0  0  0  0
   -1.9550    2.2160   -0.0400 C   0  0  0  0  0  0  0  0  0  0  0  0
   -2.9920    2.9860   -0.4710 C   0  0  0  0  0  0  0  0  0  0  0  0
   -2.8540    4.3600   -0.6320 O   0  0  0  0  0  0  0  0  0  0  0  0
   -3.9060    5.1840   -1.0750 C   0  0  0  0  0  0  0  0  0  0  0  0
   -4.1500    2.3740   -0.7340 N   0  0  0  0  0  0  0  0  0  0  0  0
   -4.3350    1.0510   -0.5870 C   0  0  0  0  0  0  0  0  0  0  0  0
   -5.4760    0.5070   -0.8550 O   0  0  0  0  0  0  0  0  0  0  0  0
   -5.7360   -0.7610   -0.7290 C   0  0  0  0  0  0  0  0  0  0  0  0
   -6.8810   -1.2180   -1.0210 N   0  0  0  0  0  0  0  0  0  0  0  0
   -4.7440   -1.5980   -0.2720 C   0  0  0  0  0  0  0  0  0  0  0  0
   -3.4810   -1.0950    0.0450 C   0  0  0  0  0  0  0  0  0  0  0  0
   -3.2560    0.2490   -0.1290 C   0  0  0  0  0  0  0  0  0  0  0  0
   -2.5350   -1.9220    0.7810 C   0  0  0  0  0  0  0  0  0  0  0  0
   -2.9020   -3.1500    1.1150 C   0  0  0  0  0  0  0  0  0  0  0  0
   -4.1940   -3.7430    0.8010 C   0  0  0  0  0  0  0  0  0  0  0  0
   -4.9690   -2.9910   -0.1430 N   0  0  0  0  0  0  0  0  0  0  0  0
    0.0110    0.6390    1.2860 N   0  0  0  0  0  0  0  0  0  0  0  0
    1.2610    0.1870    1.4480 C   0  0  0  0  0  0  0  0  0  0  0  0
    1.9910    0.7510    2.3290 O   0  0  0  0  0  0  0  0  0  0  0  0
  1  2  1  0
  2  3  1  0
  3  4  1  1
  3  5  1  0
  5  6  1  0
  6  7  1  6
  6  8  1  0
  8  9  2  0
  8 30  1  0
  9 10  1  0
 10 11  2  0
 11 12  1  0
 11 29  1  0
 12 13  2  0
 12 24  1  0
 13 14  1  0
 14 15  1  0
 14 17  2  0
 15 16  1  0
 17 18  1  0
 18 19  1  0
 18 24  2  0
 19 20  1  0
 20 21  2  0
 20 22  1  0
 22 23  2  0
 22 28  1  0
 23 24  1  0
 23 25  1  0
 25 26  2  0
 26 27  1  0
 27 28  1  0
 29 30  1  0
 30 31  2  0
M  CHG  1   5   1
M  END
