
     RDKit          3D

 31 34  0  0  0  0  0  0  0  0999 V2000
   -3.4690   -1.0110    1.7530 C   0  0  0  0  0  0  0  0  0  0  0  0
   -2.3430   -1.1970    0.9040 N   0  0  0  0  0  0  0  0  0  0  0  0
   -1.9830   -0.1370    0.0480 C   0  0  2  0  0  0  0  0  0  0  0  0
   -1.4920    1.1390    0.6550 C   0  0  0  0  0  0  0  0  0  0  0  0
   -0.2720    0.8500    1.4070 N   0  0  0  0  0  0  0  0  0  0  0  0
   -0.3300    0.6420    2.7190 C   0  0  0  0  0  0  0  0  0  0  0  0
   -1.5330    0.7570    3.4850 N   0  0  0  0  0  0  0  0  0  0  0  0
    0.8390    0.3390    3.3510 N   0  0  0  0  0  0  0  0  0  0  0  0
    2.0110    0.2520    2.6880 C   0  0  0  0  0  0  0  0  0  0  0  0
    2.1010    0.4630    1.3370 C   0  0  0  0  0  0  0  0  0  0  0  0
    3.2800    0.3940    0.5580 N   0  0  0  0  0  0  0  0  0  0  0  0
    4.5890    0.1050    0.9820 C   0  0  0  0  0  0  0  0  0  0  0  0
    4.7940   -0.1270    2.1910 O   0  0  0  0  0  0  0  0  0  0  0  0
    5.7260    0.0690    0.0420 C   0  0  0  0  0  0  0  0  0  0  0  0
    7.0170   -0.2040    0.4230 C   0  0  0  0  0  0  0  0  0  0  0  0
    7.8270   -0.1550   -0.7190 C   0  0  0  0  0  0  0  0  0  0  0  0
    6.9430    0.1520   -1.7360 C   0  0  0  0  0  0  0  0  0  0  0  0
    7.3650    0.3100   -3.1560 C   0  0  0  0  0  0  0  0  0  0  0  0
    5.7160    0.2740   -1.2330 O   0  0  0  0  0  0  0  0  0  0  0  0
    0.9010    0.7690    0.7150 C   0  0  0  0  0  0  0  0  0  0  0  0
    0.8870    0.9780   -0.5220 O   0  0  0  0  0  0  0  0  0  0  0  0
   -3.1100    0.1160   -0.9150 C   0  0  0  0  0  0  0  0  0  0  0  0
   -3.5970    1.3430   -1.2270 C   0  0  0  0  0  0  0  0  0  0  0  0
   -4.6320    1.4830   -2.1240 C   0  0  0  0  0  0  0  0  0  0  0  0
   -5.2030    0.3710   -2.7320 C   0  0  0  0  0  0  0  0  0  0  0  0
   -6.2170    0.5240   -3.6090 N   0  0  0  0  0  0  0  0  0  0  0  0
   -6.7440   -0.5490   -4.1750 N   0  0  0  0  0  0  0  0  0  0  0  0
   -6.3170   -1.8000   -3.9180 C   0  0  0  0  0  0  0  0  0  0  0  0
   -5.2770   -1.9750   -3.0190 C   0  0  0  0  0  0  0  0  0  0  0  0
   -4.7150   -0.8780   -2.4210 C   0  0  0  0  0  0  0  0  0  0  0  0
   -3.6620   -0.9960   -1.5060 C   0  0  0  0  0  0  0  0  0  0  0  0
  1  2  1  0
  2  3  1  0
  3  4  1  1
  3 22  1  0
  4  5  1  0
  5  6  1  0
  5 20  1  0
  6  7  1  0
  6  8  2  0
  8  9  1  0
  9 10  2  0
 10 11  1  0
 10 20  1  0
 11 12  1  0
 12 13  2  0
 12 14  1  0
 14 15  2  0
 14 19  1  0
 15 16  1  0
 16 17  2  0
 17 18  1  0
 17 19  1  0
 20 21  2  0
 22 23  2  0
 22 31  1  0
 23 24  1  0
 24 25  2  0
 25 26  1  0
 25 30  1  0
 26 27  2  0
 27 28  1  0
 28 29  2  0
 29 30  1  0
 30 31  2  0
M  CHG  1   8   1
M  END
