
     RDKit          3D

 31 34  0  0  0  0  0  0  0  0999 V2000
   -5.9990    0.2760   -0.4970 C   0  0  0  0  0  0  0  0  0  0  0  0
   -4.7850    0.2740    0.0780 C   0  0  0  0  0  0  0  0  0  0  0  0
   -4.6930    0.7270    1.3780 O   0  0  0  0  0  0  0  0  0  0  0  0
   -3.5510    0.8380    2.1320 C   0  0  0  0  0  0  0  0  0  0  0  0
   -2.3430    0.3670    1.4740 C   0  0  0  0  0  0  0  0  0  0  0  0
   -1.0470    0.5040    2.0800 N   0  0  0  0  0  0  0  0  0  0  0  0
   -0.7940    1.8180    2.6960 C   0  0  0  0  0  0  0  0  0  0  0  0
   -0.9910    2.8490    1.6650 N   0  0  0  0  0  0  0  0  0  0  0  0
   -2.3300   -0.1150    0.2070 C   0  0  0  0  0  0  0  0  0  0  0  0
   -1.0420   -0.5620   -0.3140 C   0  0  0  0  0  0  0  0  0  0  0  0
    0.0010    0.2740   -0.5030 N   0  0  0  0  0  0  0  0  0  0  0  0
    1.1720    0.0240   -0.9880 C   0  0  0  0  0  0  0  0  0  0  0  0
    2.4310    0.6290   -0.8880 N   0  0  0  0  0  0  0  0  0  0  0  0
    2.9340    1.6450   -0.0130 C   0  0  0  0  0  0  0  0  0  0  0  0
    4.3460    1.9650   -0.3970 C   0  0  0  0  0  0  0  0  0  0  0  0
    4.8870    2.5910   -1.4740 C   0  0  0  0  0  0  0  0  0  0  0  0
    6.2130    2.7410   -1.3100 N   0  0  0  0  0  0  0  0  0  0  0  0
    6.5290    2.2270   -0.1530 N   0  0  0  0  0  0  0  0  0  0  0  0
    5.4620    1.7370    0.4670 C   0  0  0  0  0  0  0  0  0  0  0  0
    5.3490    1.1240    1.6690 O   0  0  0  0  0  0  0  0  0  0  0  0
    6.4120    0.8170    2.5450 C   0  0  0  0  0  0  0  0  0  0  0  0
    1.3210   -1.3230   -1.3670 N   0  0  0  0  0  0  0  0  0  0  0  0
    0.4020   -2.2480   -1.2350 C   0  0  0  0  0  0  0  0  0  0  0  0
   -0.8070   -1.9020   -0.6960 C   0  0  0  0  0  0  0  0  0  0  0  0
   -1.7730   -2.9370   -0.3390 C   0  0  0  0  0  0  0  0  0  0  0  0
   -1.4720   -4.3150   -0.8180 C   0  0  0  0  0  0  0  0  0  0  0  0
   -0.4690   -4.3700   -1.9290 C   0  0  0  0  0  0  0  0  0  0  0  0
    0.6540   -3.5580   -1.6290 O   0  0  0  0  0  0  0  0  0  0  0  0
   -3.5580   -0.1800   -0.5830 C   0  0  0  0  0  0  0  0  0  0  0  0
   -3.6720   -0.4710   -1.8520 C   0  0  0  0  0  0  0  0  0  0  0  0
   -2.6270   -0.9410   -2.7630 C   0  0  0  0  0  0  0  0  0  0  0  0
  1  2  2  0
  2  3  1  0
  2 29  1  0
  3  4  1  0
  4  5  1  0
  5  6  1  0
  5  9  2  0
  6  7  1  0
  7  8  1  0
  9 10  1  0
  9 29  1  0
 10 11  2  0
 10 24  1  0
 11 12  1  0
 12 13  1  0
 12 22  2  0
 13 14  1  0
 14 15  1  0
 15 16  2  0
 15 19  1  0
 16 17  1  0
 17 18  1  0
 18 19  2  0
 19 20  1  0
 20 21  1  0
 22 23  1  0
 23 24  2  0
 23 28  1  0
 24 25  1  0
 25 26  1  0
 26 27  1  0
 27 28  1  0
 29 30  2  3
 30 31  1  0
M  CHG  1   8   1
M  END
