
     RDKit          3D

 29 32  0  0  0  0  0  0  0  0999 V2000
   -5.2010   -1.1690   -0.6780 C   0  0  0  0  0  0  0  0  0  0  0  0
   -4.9370   -0.3520    0.5890 C   0  0  2  0  0  0  0  0  0  0  0  0
   -5.7830    0.8840    0.5420 C   0  0  0  0  0  0  0  0  0  0  0  0
   -5.0910    2.0320    1.2770 C   0  0  0  0  0  0  0  0  0  0  0  0
   -3.8760    2.3070    0.4410 C   0  0  0  0  0  0  0  0  0  0  0  0
   -3.6510    3.5330   -0.0200 N   0  0  0  0  0  0  0  0  0  0  0  0
   -2.5740    3.7330   -0.8150 C   0  0  0  0  0  0  0  0  0  0  0  0
   -2.3500    4.9080   -1.2640 O   0  0  0  0  0  0  0  0  0  0  0  0
   -1.7480    2.6850   -1.1220 C   0  0  0  0  0  0  0  0  0  0  0  0
   -1.9780    1.3880   -0.6350 C   0  0  0  0  0  0  0  0  0  0  0  0
   -1.0530    0.3190   -0.9190 C   0  0  0  0  0  0  0  0  0  0  0  0
   -1.1140   -0.3300   -2.0330 O   0  0  0  0  0  0  0  0  0  0  0  0
   -0.0070   -0.1070   -0.0430 N   0  0  0  0  0  0  0  0  0  0  0  0
    0.8780   -1.1560   -0.3930 C   0  0  0  0  0  0  0  0  0  0  0  0
    0.5350   -2.2850   -1.0730 C   0  0  0  0  0  0  0  0  0  0  0  0
    1.4570   -3.2390   -1.4660 C   0  0  0  0  0  0  0  0  0  0  0  0
    2.7690   -3.0630   -1.1730 C   0  0  0  0  0  0  0  0  0  0  0  0
    3.7310   -4.0130   -1.5760 N   0  0  0  0  0  0  0  0  0  0  0  0
    3.1740   -1.9110   -0.4710 C   0  0  0  0  0  0  0  0  0  0  0  0
    4.5490   -1.7760   -0.2090 N   0  0  0  0  0  0  0  0  0  0  0  0
    5.1460   -0.6200    0.3490 C   0  0  0  0  0  0  0  0  0  0  0  0
    4.8480    0.5800   -0.0280 N   0  0  0  0  0  0  0  0  0  0  0  0
    5.5870    1.5830    0.6960 C   0  0  0  0  0  0  0  0  0  0  0  0
    6.4890    0.7930    1.5650 C   0  0  0  0  0  0  0  0  0  0  0  0
    7.4190    1.2500    2.3850 N   0  0  0  0  0  0  0  0  0  0  0  0
    6.1720   -0.5690    1.3530 N   0  0  0  0  0  0  0  0  0  0  0  0
    2.2420   -0.9970   -0.0990 C   0  0  0  0  0  0  0  0  0  0  0  0
   -3.0720    1.2420    0.1540 C   0  0  0  0  0  0  0  0  0  0  0  0
   -3.4450   -0.0740    0.7030 C   0  0  0  0  0  0  0  0  0  0  0  0
  2  1  1  6
  2  3  1  0
  2 29  1  0
  3  4  1  0
  4  5  1  0
  5  6  1  0
  5 28  2  0
  6  7  1  0
  7  8  2  0
  7  9  1  0
  9 10  2  0
 10 11  1  0
 10 28  1  0
 11 12  2  0
 11 13  1  0
 13 14  1  0
 14 15  2  0
 14 27  1  0
 15 16  1  0
 16 17  2  0
 17 18  1  0
 17 19  1  0
 19 20  1  0
 19 27  2  0
 20 21  1  0
 21 22  2  0
 21 26  1  0
 22 23  1  0
 23 24  1  0
 24 25  2  0
 24 26  1  0
 28 29  1  0
M  CHG  1  22   1
M  END
