
     RDKit          3D

 29 31  0  0  0  0  0  0  0  0999 V2000
   -7.1650    1.1470    1.6350 C   0  0  0  0  0  0  0  0  0  0  0  0
   -6.7880    0.0260    0.7610 C   0  0  0  0  0  0  0  0  0  0  0  0
   -7.7580   -0.7800    0.2150 C   0  0  0  0  0  0  0  0  0  0  0  0
   -7.4250   -1.8330   -0.6040 C   0  0  0  0  0  0  0  0  0  0  0  0
   -6.0870   -2.0440   -0.8530 C   0  0  0  0  0  0  0  0  0  0  0  0
   -5.0880   -1.2280   -0.3010 C   0  0  0  0  0  0  0  0  0  0  0  0
   -3.7810   -1.4920   -0.5760 F   0  0  0  0  0  0  0  0  0  0  0  0
   -5.4260   -0.1780    0.5160 C   0  0  0  0  0  0  0  0  0  0  0  0
   -4.4810    0.6870    1.1210 N   0  0  0  0  0  0  0  0  0  0  0  0
   -3.0600    0.6470    0.9080 C   0  0  0  0  0  0  0  0  0  0  0  0
   -2.7620    1.1260   -0.4640 C   0  0  0  0  0  0  0  0  0  0  0  0
   -3.7650    1.5680   -1.2950 C   0  0  0  0  0  0  0  0  0  0  0  0
   -3.4610    2.0320   -2.5700 C   0  0  0  0  0  0  0  0  0  0  0  0
   -2.1530    2.0410   -2.9800 C   0  0  0  0  0  0  0  0  0  0  0  0
   -1.1430    1.5840   -2.1120 C   0  0  0  0  0  0  0  0  0  0  0  0
   -1.4070    1.1210   -0.8530 C   0  0  0  0  0  0  0  0  0  0  0  0
   -0.4800    0.6500    0.0870 N   0  0  0  0  0  0  0  0  0  0  0  0
    0.9100    0.5820   -0.1790 C   0  0  0  0  0  0  0  0  0  0  0  0
    1.4180    0.9310   -1.2610 O   0  0  0  0  0  0  0  0  0  0  0  0
    1.8270    0.0560    0.9100 C   0  0  0  0  0  0  0  0  0  0  0  0
    3.2330    0.0900    0.3680 C   0  0  0  0  0  0  0  0  0  0  0  0
    4.1820   -0.4140    1.3870 C   0  0  0  0  0  0  0  0  0  0  0  0
    3.8320   -0.8070    2.5280 O   0  0  0  0  0  0  0  0  0  0  0  0
    5.5670   -0.4610    1.0700 N   0  0  0  0  0  0  0  0  0  0  0  0
    6.0610   -0.0260   -0.2250 C   0  0  0  0  0  0  0  0  0  0  0  0
    7.5540   -0.2110   -0.2580 C   0  0  0  0  0  0  0  0  0  0  0  0
    7.9560   -1.5500    0.0990 N   0  0  0  0  0  0  0  0  0  0  0  0
    7.3740   -2.0100    1.3270 C   0  0  0  0  0  0  0  0  0  0  0  0
    6.5550   -0.9420    2.0170 C   0  0  0  0  0  0  0  0  0  0  0  0
  1  2  1  0
  2  3  2  0
  2  8  1  0
  3  4  1  0
  4  5  2  0
  5  6  1  0
  6  7  1  0
  6  8  2  0
  8  9  1  0
  9 10  1  0
 10 11  1  0
 11 12  2  0
 11 16  1  0
 12 13  1  0
 13 14  2  0
 14 15  1  0
 15 16  2  0
 16 17  1  0
 17 18  1  0
 18 19  2  0
 18 20  1  0
 20 21  1  0
 21 22  1  0
 22 23  2  0
 22 24  1  0
 24 25  1  0
 24 29  1  0
 25 26  1  0
 26 27  1  0
 27 28  1  0
 28 29  1  0
M  CHG  1  27   1
M  END
