
     RDKit          3D

 30 33  0  0  0  0  0  0  0  0999 V2000
   -2.1240    1.1800   -0.1270 O   0  0  0  0  0  0  0  0  0  0  0  0
   -2.6360    0.0420   -0.1380 C   0  0  0  0  0  0  0  0  0  0  0  0
   -3.9300   -0.1560    0.4620 N   0  0  0  0  0  0  0  0  0  0  0  0
   -4.6480    0.9250    1.0740 C   0  0  0  0  0  0  0  0  0  0  0  0
   -5.9630    0.4680    1.6130 C   0  0  0  0  0  0  0  0  0  0  0  0
   -6.8710   -0.0710    0.6340 N   0  0  0  0  0  0  0  0  0  0  0  0
   -7.7820    0.7150   -0.1510 C   0  0  0  0  0  0  0  0  0  0  0  0
   -7.6570    1.9720   -0.2890 O   0  0  0  0  0  0  0  0  0  0  0  0
   -8.8210   -0.1780   -0.7230 C   0  0  0  0  0  0  0  0  0  0  0  0
   -8.1460   -1.4400   -0.7450 O   0  0  0  0  0  0  0  0  0  0  0  0
   -7.1330   -1.4060    0.2330 C   0  0  0  0  0  0  0  0  0  0  0  0
   -6.5880   -2.4470    0.6450 O   0  0  0  0  0  0  0  0  0  0  0  0
   -1.9370   -1.0620   -0.7470 N   0  0  0  0  0  0  0  0  0  0  0  0
   -0.6710   -0.8450   -1.3100 C   0  0  0  0  0  0  0  0  0  0  0  0
    0.4790   -0.5360   -0.4330 C   0  0  0  0  0  0  0  0  0  0  0  0
    0.4310   -0.6480    0.8480 C   0  0  0  0  0  0  0  0  0  0  0  0
   -1.0010   -1.1960    1.7330 Cl  0  0  0  0  0  0  0  0  0  0  0  0
    1.8050   -0.2630    1.9690 S   0  0  0  0  0  0  0  0  0  0  0  0
    3.0750    0.5150    0.9910 C   0  0  1  0  0  0  0  0  0  0  0  0
    4.4360   -0.1490    1.2470 C   0  0  0  0  0  0  0  0  0  0  0  0
    5.1390    0.1890   -0.0140 C   0  0  0  0  0  0  0  0  0  0  0  0
    6.5770    0.2690   -0.2100 C   0  0  0  0  0  0  0  0  0  0  0  0
    7.4670    0.0460    0.7300 C   0  0  0  0  0  0  0  0  0  0  0  0
    8.8220    0.2170    0.1720 C   0  0  0  0  0  0  0  0  0  0  0  0
    8.5900    0.5770   -1.2450 C   0  0  0  0  0  0  0  0  0  0  0  0
    7.2910    0.5970   -1.4280 C   0  0  0  0  0  0  0  0  0  0  0  0
    4.2390    0.4130   -0.9560 C   0  0  0  0  0  0  0  0  0  0  0  0
    2.9160    0.2500   -0.4270 N   0  0  0  0  0  0  0  0  0  0  0  0
    1.7370   -0.0820   -1.0640 C   0  0  0  0  0  0  0  0  0  0  0  0
    1.7030    0.0040   -2.3420 O   0  0  0  0  0  0  0  0  0  0  0  0
  1  2  2  0
  2  3  1  0
  2 13  1  0
  3  4  1  0
  4  5  1  0
  5  6  1  0
  6  7  1  0
  6 11  1  0
  7  8  2  0
  7  9  1  0
  9 10  1  0
 10 11  1  0
 11 12  2  0
 13 14  1  0
 14 15  1  0
 15 16  2  0
 15 29  1  0
 16 17  1  0
 16 18  1  0
 18 19  1  0
 19 20  1  1
 19 28  1  0
 20 21  1  0
 21 22  1  0
 21 27  2  0
 22 23  2  0
 22 26  1  0
 23 24  1  0
 24 25  1  0
 25 26  2  0
 27 28  1  0
 28 29  1  0
 29 30  2  0
M  END
