
     RDKit          3D

 30 32  0  0  0  0  0  0  0  0999 V2000
    5.8170    1.1880   -2.6780 C   0  0  0  0  0  0  0  0  0  0  0  0
    5.6610    0.1730   -3.4450 C   0  0  0  0  0  0  0  0  0  0  0  0
    4.9050   -1.0060   -3.3230 C   0  0  0  0  0  0  0  0  0  0  0  0
    4.9850   -1.8530   -4.4360 C   0  0  0  0  0  0  0  0  0  0  0  0
    5.9800   -1.3380   -5.7430 Cl  0  0  0  0  0  0  0  0  0  0  0  0
    4.0590   -1.5220   -2.3130 C   0  0  0  0  0  0  0  0  0  0  0  0
    3.6400   -1.2090   -1.1420 C   0  0  0  0  0  0  0  0  0  0  0  0
    3.9260    0.1500   -0.0710 S   0  0  0  0  0  0  0  0  0  0  0  0
    2.8520   -0.3990    1.2500 C   0  0  0  0  0  0  0  0  0  0  0  0
    2.5850    0.2370    2.4960 N   0  0  0  0  0  0  0  0  0  0  0  0
    1.3080    0.1210    3.0870 C   0  0  2  0  0  0  0  0  0  0  0  0
    0.7810   -1.2300    3.3860 C   0  0  0  0  0  0  0  0  0  0  0  0
   -0.1830   -1.4780    2.2820 C   0  0  0  0  0  0  0  0  0  0  0  0
   -0.5720   -2.6130    1.8700 O   0  0  0  0  0  0  0  0  0  0  0  0
   -0.5730   -0.2140    1.7940 N   0  0  0  0  0  0  0  0  0  0  0  0
   -1.6340   -0.0180    0.7950 C   0  0  2  0  0  0  0  0  0  0  0  0
   -0.9870    0.5280   -0.4700 C   0  0  0  0  0  0  0  0  0  0  0  0
   -2.6720    0.8750    1.2860 C   0  0  0  0  0  0  0  0  0  0  0  0
   -2.5010    1.4040    2.4110 O   0  0  0  0  0  0  0  0  0  0  0  0
   -3.8380    1.1630    0.5670 N   0  0  0  0  0  0  0  0  0  0  0  0
   -4.1910    0.6300   -0.7330 C   0  0  0  0  0  0  0  0  0  0  0  0
   -5.7190    0.5540   -0.8180 C   0  0  0  0  0  0  0  0  0  0  0  0
   -6.2610    0.4550    0.4730 O   0  0  0  0  0  0  0  0  0  0  0  0
   -6.2050    1.7630    0.9780 C   0  0  0  0  0  0  0  0  0  0  0  0
   -4.7790    2.1030    1.2350 C   0  0  0  0  0  0  0  0  0  0  0  0
    0.2210    0.8080    2.4020 C   0  0  0  0  0  0  0  0  0  0  0  0
   -0.0160    2.0490    2.3280 O   0  0  0  0  0  0  0  0  0  0  0  0
    2.3710   -1.4690    0.8680 N   0  0  0  0  0  0  0  0  0  0  0  0
    2.6790   -2.0250   -0.3510 C   0  0  0  0  0  0  0  0  0  0  0  0
    2.2060   -3.1100   -0.7650 O   0  0  0  0  0  0  0  0  0  0  0  0
  1  2  2  0
  2  3  1  0
  3  4  2  3
  3  6  1  0
  4  5  1  0
  6  7  2  3
  7  8  1  0
  7 29  1  0
  8  9  1  0
  9 10  1  0
  9 28  2  0
 11 10  1  6
 11 12  1  0
 11 26  1  0
 12 13  1  0
 13 14  2  0
 13 15  1  0
 15 16  1  0
 15 26  1  0
 16 17  1  6
 16 18  1  0
 18 19  2  0
 18 20  1  0
 20 21  1  0
 20 25  1  0
 21 22  1  0
 22 23  1  0
 23 24  1  0
 24 25  1  0
 26 27  2  0
 28 29  1  0
 29 30  2  0
M  END
