
     RDKit          3D

 30 32  0  0  0  0  0  0  0  0999 V2000
    1.6670    0.9780    0.8220 O   0  0  0  0  0  0  0  0  0  0  0  0
    1.9560   -0.0220    0.1200 C   0  0  0  0  0  0  0  0  0  0  0  0
    1.0320   -0.5810   -0.9210 C   0  0  0  0  0  0  0  0  0  0  0  0
   -0.2310    0.2270   -0.9480 C   0  0  0  0  0  0  0  0  0  0  0  0
   -1.1470   -0.3520   -2.0030 C   0  0  1  0  0  0  0  0  0  0  0  0
   -1.4610   -1.7560   -1.6870 C   0  0  0  0  0  0  0  0  0  0  0  0
   -2.8520   -2.2320   -1.9070 C   0  0  0  0  0  0  0  0  0  0  0  0
   -3.6680   -1.3120   -2.7030 C   0  0  0  0  0  0  0  0  0  0  0  0
   -4.8790   -1.9300   -3.3760 C   0  0  0  0  0  0  0  0  0  0  0  0
   -5.9630   -2.6060   -2.1410 Cl  0  0  0  0  0  0  0  0  0  0  0  0
   -3.3930   -0.0890   -2.8290 N   0  0  0  0  0  0  0  0  0  0  0  0
   -2.2970    0.5180   -2.2330 N   0  0  0  0  0  0  0  0  0  0  0  0
   -2.2350    1.8820   -1.8990 C   0  0  0  0  0  0  0  0  0  0  0  0
   -2.5860    2.4840   -0.8150 C   0  0  0  0  0  0  0  0  0  0  0  0
   -3.1520    1.9700    0.4070 C   0  0  0  0  0  0  0  0  0  0  0  0
   -3.4400    2.8720    1.4380 C   0  0  0  0  0  0  0  0  0  0  0  0
   -3.9580    2.4180    2.5680 N   0  0  0  0  0  0  0  0  0  0  0  0
   -4.2220    1.0950    2.7620 C   0  0  0  0  0  0  0  0  0  0  0  0
   -4.7140    0.7090    3.8510 O   0  0  0  0  0  0  0  0  0  0  0  0
   -3.9510    0.1870    1.7690 C   0  0  0  0  0  0  0  0  0  0  0  0
   -4.1970   -1.0300    1.9540 O   0  0  0  0  0  0  0  0  0  0  0  0
   -3.4260    0.6560    0.6280 N   0  0  0  0  0  0  0  0  0  0  0  0
    3.1870   -0.6190    0.3330 O   0  0  0  0  0  0  0  0  0  0  0  0
    4.0800   -0.1160    1.3080 C   0  0  1  0  0  0  0  0  0  0  0  0
    4.3200   -1.2320    2.2940 C   0  0  0  0  0  0  0  0  0  0  0  0
    5.5190   -1.0830    3.1500 C   0  0  0  0  0  0  0  0  0  0  0  0
    6.3540    0.4870    3.0250 S   0  0  0  0  0  0  0  0  0  0  0  0
    7.8730    0.3130    3.1850 O   0  0  0  0  0  0  0  0  0  0  0  0
    6.0510    1.3020    1.4580 C   0  0  0  0  0  0  0  0  0  0  0  0
    5.3350    0.3040    0.5770 C   0  0  0  0  0  0  0  0  0  0  0  0
  1  2  2  0
  2  3  1  0
  2 23  1  0
  3  4  1  0
  5  4  1  1
  5  6  1  0
  5 12  1  0
  6  7  1  0
  7  8  1  0
  8  9  1  0
  8 11  2  0
  9 10  1  0
 11 12  1  0
 12 13  1  0
 13 14  2  3
 14 15  1  0
 15 16  2  0
 15 22  1  0
 16 17  1  0
 17 18  1  0
 18 19  2  0
 18 20  1  0
 20 21  2  0
 20 22  1  0
 24 23  1  6
 24 25  1  0
 24 30  1  0
 25 26  1  0
 27 26  1  6
 27 28  2  0
 27 29  1  0
 29 30  1  0
M  END
