
     RDKit          3D

 12 12  0  0  0  0  0  0  0  0999 V2000
    3.8220    0.3260    0.6470 N   0  0  0  0  0  0  0  0  0  0  0  0
    3.4010    1.1600   -0.4190 C   0  0  0  0  0  0  0  0  0  0  0  0
    2.2040    1.1710   -0.8960 N   0  0  0  0  0  0  0  0  0  0  0  0
    1.2290    0.2800   -0.3140 C   0  0  0  0  0  0  0  0  0  0  0  0
    1.6090   -1.0350   -0.1670 C   0  0  0  0  0  0  0  0  0  0  0  0
    0.7130   -1.8720    0.3720 N   0  0  0  0  0  0  0  0  0  0  0  0
   -0.4980   -1.4250    0.7460 C   0  0  0  0  0  0  0  0  0  0  0  0
   -0.8650   -0.1070    0.5930 C   0  0  0  0  0  0  0  0  0  0  0  0
   -2.2290    0.3080    1.0350 C   0  0  0  0  0  0  0  0  0  0  0  0
   -3.1660    0.1400   -0.1460 C   0  0  0  0  0  0  0  0  0  0  0  0
   -4.4630    0.5010    0.1620 O   0  0  0  0  0  0  0  0  0  0  0  0
    0.0230    0.7380    0.0560 N   0  0  0  0  0  0  0  0  0  0  0  0
  1  2  1  0
  2  3  2  3
  3  4  1  0
  4  5  2  0
  4 12  1  0
  5  6  1  0
  6  7  2  0
  7  8  1  0
  8  9  1  0
  8 12  2  0
  9 10  1  0
 10 11  1  0
M  END
