
     RDKit          3D

 12 12  0  0  0  0  0  0  0  0999 V2000
   -3.6700    1.0040   -0.1120 C   0  0  0  0  0  0  0  0  0  0  0  0
   -2.2480    0.5750   -0.0110 C   0  0  0  0  0  0  0  0  0  0  0  0
   -1.2360    1.4310    0.1620 N   0  0  0  0  0  0  0  0  0  0  0  0
    0.0530    1.0980    0.2590 C   0  0  0  0  0  0  0  0  0  0  0  0
    0.3890   -0.2340    0.1760 C   0  0  0  0  0  0  0  0  0  0  0  0
    1.7720   -0.7610    0.2830 C   0  0  0  0  0  0  0  0  0  0  0  0
    2.7840    0.2490    0.4320 N   0  0  0  0  0  0  0  0  0  0  0  0
    3.0990    1.2260   -0.5510 C   0  0  0  0  0  0  0  0  0  0  0  0
    2.4710    1.2190   -1.6240 O   0  0  0  0  0  0  0  0  0  0  0  0
   -0.6540   -1.1360   -0.0040 C   0  0  0  0  0  0  0  0  0  0  0  0
   -0.3360   -2.5410   -0.0940 N   0  0  0  0  0  0  0  0  0  0  0  0
   -1.9180   -0.7240   -0.0910 N   0  0  0  0  0  0  0  0  0  0  0  0
  1  2  1  0
  2  3  2  0
  2 12  1  0
  3  4  1  0
  4  5  2  0
  5  6  1  0
  5 10  1  0
  6  7  1  0
  7  8  1  0
  8  9  2  0
 10 11  1  0
 10 12  2  0
M  END
