
     RDKit          3D

 12 12  0  0  0  0  0  0  0  0999 V2000
   -1.5130   -2.5790   -0.1790 C   0  0  0  0  0  0  0  0  0  0  0  0
   -2.0840   -1.2230   -0.2200 C   0  0  0  0  0  0  0  0  0  0  0  0
   -1.2920   -0.1710   -0.2720 C   0  0  0  0  0  0  0  0  0  0  0  0
   -1.8880    1.2030   -0.3140 C   0  0  0  0  0  0  0  0  0  0  0  0
   -3.3130    1.1350   -0.2880 N   0  0  0  0  0  0  0  0  0  0  0  0
    0.0830   -0.3430   -0.2890 O   0  0  0  0  0  0  0  0  0  0  0  0
    0.8730    0.7400    0.1570 C   0  0  0  0  0  0  0  0  0  0  0  0
    2.3250    0.4270    0.0900 C   0  0  0  0  0  0  0  0  0  0  0  0
    2.9560   -0.6800   -0.3140 N   0  0  0  0  0  0  0  0  0  0  0  0
    4.2900   -0.5330   -0.2090 C   0  0  0  0  0  0  0  0  0  0  0  0
    4.4530    0.7260    0.2830 N   0  0  0  0  0  0  0  0  0  0  0  0
    3.2810    1.2970    0.4600 N   0  0  0  0  0  0  0  0  0  0  0  0
  1  2  1  0
  2  3  2  3
  3  4  1  0
  3  6  1  0
  4  5  1  0
  6  7  1  0
  7  8  1  0
  8  9  2  0
  8 12  1  0
  9 10  1  0
 10 11  2  0
 11 12  1  0
M  END
