
     RDKit          3D

 12 12  0  0  0  0  0  0  0  0999 V2000
    4.3000   -0.6890   -0.0410 C   0  0  0  0  0  0  0  0  0  0  0  0
    3.2460    0.0110   -0.4170 C   0  0  0  0  0  0  0  0  0  0  0  0
    1.9520   -0.6340   -0.6170 C   0  0  0  0  0  0  0  0  0  0  0  0
    0.9080   -0.1110    0.2400 N   0  0  0  0  0  0  0  0  0  0  0  0
   -0.3880   -0.6460    0.1460 C   0  0  0  0  0  0  0  0  0  0  0  0
   -1.4870    0.0840    0.1330 C   0  0  0  0  0  0  0  0  0  0  0  0
   -1.4970    1.4990    0.2110 N   0  0  0  0  0  0  0  0  0  0  0  0
   -2.8460    1.9450    0.1690 C   0  0  0  0  0  0  0  0  0  0  0  0
   -3.2570    3.1510    0.2160 O   0  0  0  0  0  0  0  0  0  0  0  0
   -3.7210    0.8310    0.0640 N   0  0  0  0  0  0  0  0  0  0  0  0
   -2.8800   -0.3170    0.0420 C   0  0  0  0  0  0  0  0  0  0  0  0
   -3.3100   -1.5380   -0.0470 N   0  0  0  0  0  0  0  0  0  0  0  0
  1  2  2  0
  2  3  1  0
  3  4  1  0
  4  5  1  0
  5  6  2  3
  6  7  1  0
  6 11  1  0
  7  8  1  0
  8  9  2  0
  8 10  1  0
 10 11  1  0
 11 12  2  0
M  END
