
     RDKit          3D

 12 12  0  0  0  0  0  0  0  0999 V2000
    4.2430    0.7450   -0.0580 N   0  0  0  0  0  0  0  0  0  0  0  0
    2.8520    1.0050   -0.1120 C   0  0  0  0  0  0  0  0  0  0  0  0
    2.0020    0.1720   -0.6930 C   0  0  0  0  0  0  0  0  0  0  0  0
    0.6180    0.4580   -0.7310 N   0  0  0  0  0  0  0  0  0  0  0  0
   -0.1780   -0.3380   -0.0650 C   0  0  0  0  0  0  0  0  0  0  0  0
    0.3160   -1.4600    0.6810 C   0  0  0  0  0  0  0  0  0  0  0  0
   -0.4270   -2.2190    1.3150 O   0  0  0  0  0  0  0  0  0  0  0  0
   -1.6080   -0.0550   -0.0950 C   0  0  0  0  0  0  0  0  0  0  0  0
   -2.1790    0.9880   -0.7740 N   0  0  0  0  0  0  0  0  0  0  0  0
   -3.5040    0.9800   -0.6090 C   0  0  0  0  0  0  0  0  0  0  0  0
   -3.7600   -0.0990    0.1960 C   0  0  0  0  0  0  0  0  0  0  0  0
   -2.6010   -0.7080    0.4930 N   0  0  0  0  0  0  0  0  0  0  0  0
  1  2  1  0
  2  3  2  3
  3  4  1  0
  4  5  2  3
  5  6  1  0
  5  8  1  0
  6  7  2  0
  8  9  2  0
  8 12  1  0
  9 10  1  0
 10 11  2  0
 11 12  1  0
M  END
