
     RDKit          3D

 12 12  0  0  0  0  0  0  0  0999 V2000
    2.7580    0.3730    0.0860 C   0  0  0  0  0  0  0  0  0  0  0  0
    2.3570    0.3980   -1.3250 C   0  0  0  0  0  0  0  0  0  0  0  0
    1.1310    0.4570   -1.7090 N   0  0  0  0  0  0  0  0  0  0  0  0
    0.1190    0.5010   -0.7620 N   0  0  0  0  0  0  0  0  0  0  0  0
   -0.3150    1.7640   -0.2750 C   0  0  0  0  0  0  0  0  0  0  0  0
   -1.2810    1.8020    0.6280 C   0  0  0  0  0  0  0  0  0  0  0  0
   -1.7560    3.0150    1.1500 O   0  0  0  0  0  0  0  0  0  0  0  0
   -1.8530    0.5720    1.0830 N   0  0  0  0  0  0  0  0  0  0  0  0
   -1.4160   -0.6870    0.5930 C   0  0  0  0  0  0  0  0  0  0  0  0
   -2.0130   -1.8960    1.0720 N   0  0  0  0  0  0  0  0  0  0  0  0
   -0.4490   -0.7350   -0.3120 C   0  0  0  0  0  0  0  0  0  0  0  0
    0.0530   -2.0280   -0.8640 C   0  0  0  0  0  0  0  0  0  0  0  0
  1  2  1  0
  2  3  2  3
  3  4  1  0
  4  5  1  0
  4 11  1  0
  5  6  2  0
  6  7  1  0
  6  8  1  0
  8  9  1  0
  9 10  1  0
  9 11  2  0
 11 12  1  0
M  END
