
     RDKit          3D

 33 36  0  0  0  0  0  0  0  0999 V2000
   -8.1320    2.6240    0.1420 C   0  0  0  0  0  0  0  0  0  0  0  0
   -7.2790    1.4900   -0.2650 C   0  0  0  0  0  0  0  0  0  0  0  0
   -7.6510    0.5540   -1.1950 C   0  0  0  0  0  0  0  0  0  0  0  0
   -6.8180   -0.4880   -1.5410 C   0  0  0  0  0  0  0  0  0  0  0  0
   -7.2660   -1.4960   -2.5670 C   0  0  0  0  0  0  0  0  0  0  0  0
   -5.5850   -0.6100   -0.9540 C   0  0  0  0  0  0  0  0  0  0  0  0
   -5.1840    0.3270   -0.0070 C   0  0  0  0  0  0  0  0  0  0  0  0
   -3.8570    0.0900    0.5750 C   0  0  0  0  0  0  0  0  0  0  0  0
   -2.8920   -1.3830    0.2400 S   0  0  0  0  0  0  0  0  0  0  0  0
   -1.4750   -0.9010    1.2640 C   0  0  0  0  0  0  0  0  0  0  0  0
   -0.2620   -1.7180    1.4380 C   0  0  0  0  0  0  0  0  0  0  0  0
    0.7100   -1.4380    0.4070 N   0  0  0  0  0  0  0  0  0  0  0  0
    1.8660   -2.2400    0.6080 C   0  0  0  0  0  0  0  0  0  0  0  0
    3.0410   -1.3230    0.9600 C   0  0  0  0  0  0  0  0  0  0  0  0
    3.2480   -0.4580   -0.1760 N   0  0  0  0  0  0  0  0  0  0  0  0
    4.5400   -0.3520   -0.7460 C   0  0  0  0  0  0  0  0  0  0  0  0
    4.6510    0.4030   -1.7280 O   0  0  0  0  0  0  0  0  0  0  0  0
    5.6400   -1.1100   -0.1700 C   0  0  0  0  0  0  0  0  0  0  0  0
    6.9800   -0.9190   -0.7560 C   0  0  0  0  0  0  0  0  0  0  0  0
    7.5390    0.3990   -0.6930 N   0  0  0  0  0  0  0  0  0  0  0  0
    8.2420    0.8990    0.4610 C   0  0  0  0  0  0  0  0  0  0  0  0
    8.4010    0.2710    1.5340 O   0  0  0  0  0  0  0  0  0  0  0  0
    8.7060    2.1890    0.1670 N   0  0  0  0  0  0  0  0  0  0  0  0
    8.3280    2.5550   -1.1490 C   0  0  0  0  0  0  0  0  0  0  0  0
    8.5650    3.6280   -1.7500 O   0  0  0  0  0  0  0  0  0  0  0  0
    7.5840    1.3930   -1.6760 C   0  0  0  0  0  0  0  0  0  0  0  0
    7.1240    1.4340   -2.8490 O   0  0  0  0  0  0  0  0  0  0  0  0
    2.0960    0.2680   -0.6750 C   0  0  0  0  0  0  0  0  0  0  0  0
    0.9160   -0.0420    0.2220 C   0  0  0  0  0  0  0  0  0  0  0  0
   -1.8570    0.2820    1.7390 C   0  0  0  0  0  0  0  0  0  0  0  0
   -3.0500    0.8370    1.4270 C   0  0  0  0  0  0  0  0  0  0  0  0
   -3.4980    2.2010    1.9460 C   0  0  0  0  0  0  0  0  0  0  0  0
   -6.0200    1.3460    0.3200 C   0  0  0  0  0  0  0  0  0  0  0  0
  1  2  1  0
  2  3  2  0
  2 33  1  0
  3  4  1  0
  4  5  1  0
  4  6  2  0
  6  7  1  0
  7  8  1  0
  7 33  2  0
  8  9  1  0
  8 31  2  0
  9 10  1  0
 10 11  1  0
 10 30  2  0
 11 12  1  0
 12 13  1  0
 12 29  1  0
 13 14  1  0
 14 15  1  0
 15 16  1  0
 15 28  1  0
 16 17  2  0
 16 18  1  0
 18 19  1  0
 19 20  1  0
 20 21  1  0
 20 26  1  0
 21 22  2  0
 21 23  1  0
 23 24  1  0
 24 25  2  0
 24 26  1  0
 26 27  2  0
 28 29  1  0
 30 31  1  0
 31 32  1  0
M  END
