
     RDKit          3D

 33 36  0  0  0  0  0  0  0  0999 V2000
    8.1230   -2.2740    3.4320 C   0  0  0  0  0  0  0  0  0  0  0  0
    7.5480   -1.3940    2.4060 N   0  0  0  0  0  0  0  0  0  0  0  0
    8.2020   -0.2510    2.1300 C   0  0  0  0  0  0  0  0  0  0  0  0
    7.6640    0.5980    1.1540 C   0  0  0  0  0  0  0  0  0  0  0  0
    6.5060    0.2770    0.4980 C   0  0  0  0  0  0  0  0  0  0  0  0
    5.9640    1.1610   -0.5020 C   0  0  0  0  0  0  0  0  0  0  0  0
    6.5680    2.2520   -0.7620 O   0  0  0  0  0  0  0  0  0  0  0  0
    4.7830    0.9160   -1.2430 N   0  0  0  0  0  0  0  0  0  0  0  0
    4.2890    1.8580   -2.2440 C   0  0  0  0  0  0  0  0  0  0  0  0
    3.0530    1.3170   -2.8330 C   0  0  0  0  0  0  0  0  0  0  0  0
    2.5930    0.2070   -2.4640 O   0  0  0  0  0  0  0  0  0  0  0  0
    2.4080    2.0630   -3.8060 O   0  0  0  0  0  0  0  0  0  0  0  0
    1.2410    1.5880   -4.3850 C   0  0  0  0  0  0  0  0  0  0  0  0
    0.2550    1.4230   -3.2500 C   0  0  0  0  0  0  0  0  0  0  0  0
    0.0920    1.4520   -2.1070 N   0  0  0  0  0  0  0  0  0  0  0  0
   -1.0000    1.2410   -1.4140 C   0  0  0  0  0  0  0  0  0  0  0  0
   -2.1160    0.9380   -2.1820 C   0  0  0  0  0  0  0  0  0  0  0  0
   -1.4880    0.9870   -3.8150 S   0  0  0  0  0  0  0  0  0  0  0  0
   -3.4590    0.6660   -1.5630 C   0  0  0  0  0  0  0  0  0  0  0  0
   -3.2340   -0.3330   -0.4450 C   0  0  2  0  0  0  0  0  0  0  0  0
   -3.1100   -1.6920   -1.1370 C   0  0  0  0  0  0  0  0  0  0  0  0
   -4.4280   -0.4110    0.3400 N   0  0  0  0  0  0  0  0  0  0  0  0
   -4.8320    0.7710    1.0050 C   0  0  0  0  0  0  0  0  0  0  0  0
   -4.8820    0.5050    2.5020 C   0  0  0  0  0  0  0  0  0  0  0  0
   -6.2090   -0.1800    2.7990 C   0  0  0  0  0  0  0  0  0  0  0  0
   -6.2950   -1.4660    1.9880 C   0  0  0  0  0  0  0  0  0  0  0  0
   -6.7240   -1.1600    0.5810 C   0  0  0  0  0  0  0  0  0  0  0  0
   -5.5470   -0.9770   -0.3550 C   0  0  0  0  0  0  0  0  0  0  0  0
   -1.9920   -0.0820    0.3210 C   0  0  0  0  0  0  0  0  0  0  0  0
   -1.3230    1.2500    0.0610 C   0  0  0  0  0  0  0  0  0  0  0  0
    5.8620   -0.8950    0.8010 C   0  0  0  0  0  0  0  0  0  0  0  0
    6.4200   -1.7270    1.7810 C   0  0  0  0  0  0  0  0  0  0  0  0
    5.8310   -2.8010    2.0600 O   0  0  0  0  0  0  0  0  0  0  0  0
  1  2  1  0
  2  3  1  0
  2 32  1  0
  3  4  2  0
  4  5  1  0
  5  6  1  0
  5 31  2  0
  6  7  2  0
  6  8  1  0
  8  9  1  0
  9 10  1  0
 10 11  2  0
 10 12  1  0
 12 13  1  0
 13 14  1  0
 14 15  2  0
 14 18  1  0
 15 16  1  0
 16 17  2  0
 16 30  1  0
 17 18  1  0
 17 19  1  0
 19 20  1  0
 20 21  1  6
 20 22  1  0
 20 29  1  0
 22 23  1  0
 22 28  1  0
 23 24  1  0
 24 25  1  0
 25 26  1  0
 26 27  1  0
 27 28  1  0
 29 30  1  0
 31 32  1  0
 32 33  2  0
M  END
