
     RDKit          3D

 33 36  0  0  0  0  0  0  0  0999 V2000
   -2.4490   -5.2930    0.2450 C   0  0  0  0  0  0  0  0  0  0  0  0
   -3.4560   -4.2450    0.2690 N   0  0  0  0  0  0  0  0  0  0  0  0
   -3.0710   -2.8760    0.2910 C   0  0  0  0  0  0  0  0  0  0  0  0
   -1.7150   -2.5370    0.2790 C   0  0  0  0  0  0  0  0  0  0  0  0
   -1.2610   -1.2460    0.3000 C   0  0  0  0  0  0  0  0  0  0  0  0
    0.1480   -0.9220    0.2800 N   0  0  0  0  0  0  0  0  0  0  0  0
    0.6220    0.1380   -0.6100 C   0  0  0  0  0  0  0  0  0  0  0  0
    0.6990    1.4110    0.1330 C   0  0  0  0  0  0  0  0  0  0  0  0
    0.4070    1.4400    1.3530 O   0  0  0  0  0  0  0  0  0  0  0  0
    1.0910    2.6340   -0.4650 N   0  0  0  0  0  0  0  0  0  0  0  0
    1.4360    2.6680   -1.8710 C   0  0  0  0  0  0  0  0  0  0  0  0
    0.9940    3.9440   -2.5270 C   0  0  0  0  0  0  0  0  0  0  0  0
    1.1230    5.0670   -1.7450 O   0  0  0  0  0  0  0  0  0  0  0  0
    0.4780    4.9700   -0.5240 C   0  0  0  0  0  0  0  0  0  0  0  0
    1.1650    3.8780    0.2710 C   0  0  0  0  0  0  0  0  0  0  0  0
    0.9960   -1.6980    1.0970 C   0  0  0  0  0  0  0  0  0  0  0  0
    0.5030   -2.6290    1.7770 O   0  0  0  0  0  0  0  0  0  0  0  0
    2.4330   -1.4720    1.1960 C   0  0  0  0  0  0  0  0  0  0  0  0
    3.2610   -2.2790    2.0210 C   0  0  0  0  0  0  0  0  0  0  0  0
    4.8650   -1.5970    1.7730 S   0  0  0  0  0  0  0  0  0  0  0  0
    4.2380   -0.2820    0.5720 C   0  0  0  0  0  0  0  0  0  0  0  0
    5.2080    0.6720   -0.0200 C   0  0  2  0  0  0  0  0  0  0  0  0
    6.2570   -0.0330   -0.8450 C   0  0  0  0  0  0  0  0  0  0  0  0
    5.8980    1.4730    1.0440 C   0  0  0  0  0  0  0  0  0  0  0  0
    3.1080   -0.5490    0.5700 N   0  0  0  0  0  0  0  0  0  0  0  0
   -2.2050   -0.2460    0.3330 C   0  0  0  0  0  0  0  0  0  0  0  0
   -3.5700   -0.5660    0.3440 C   0  0  0  0  0  0  0  0  0  0  0  0
   -4.0030   -1.8650    0.3240 C   0  0  0  0  0  0  0  0  0  0  0  0
   -5.4120   -2.2160    0.3370 C   0  0  0  0  0  0  0  0  0  0  0  0
   -6.3990   -1.1150    0.2480 C   0  0  0  0  0  0  0  0  0  0  0  0
   -5.8920    0.1950   -0.2460 C   0  0  0  0  0  0  0  0  0  0  0  0
   -4.5570    0.5000    0.3760 C   0  0  0  0  0  0  0  0  0  0  0  0
   -4.2890    1.6050    0.8980 O   0  0  0  0  0  0  0  0  0  0  0  0
  1  2  1  0
  2  3  1  0
  3  4  2  0
  3 28  1  0
  4  5  1  0
  5  6  1  0
  5 26  2  0
  6  7  1  0
  6 16  1  0
  7  8  1  0
  8  9  2  0
  8 10  1  0
 10 11  1  0
 10 15  1  0
 11 12  1  0
 12 13  1  0
 13 14  1  0
 14 15  1  0
 16 17  2  0
 16 18  1  0
 18 19  2  0
 18 25  1  0
 19 20  1  0
 20 21  1  0
 21 22  1  0
 21 25  2  0
 22 23  1  1
 22 24  1  0
 26 27  1  0
 27 28  2  0
 27 32  1  0
 28 29  1  0
 29 30  1  0
 30 31  1  0
 31 32  1  0
 32 33  2  0
M  END
