
     RDKit          3D

 33 36  0  0  0  0  0  0  0  0999 V2000
   -6.8560    0.6190   -1.9520 C   0  0  0  0  0  0  0  0  0  0  0  0
   -6.9230    0.8170   -0.5070 C   0  0  0  0  0  0  0  0  0  0  0  0
   -8.1300    0.5770    0.1440 C   0  0  0  0  0  0  0  0  0  0  0  0
   -8.1920    0.7640    1.5020 C   0  0  0  0  0  0  0  0  0  0  0  0
   -7.0980    1.1750    2.1880 N   0  0  0  0  0  0  0  0  0  0  0  0
   -5.9230    1.4160    1.5830 C   0  0  0  0  0  0  0  0  0  0  0  0
   -4.9500    1.7910    2.2770 O   0  0  0  0  0  0  0  0  0  0  0  0
   -5.8180    1.2380    0.2080 C   0  0  0  0  0  0  0  0  0  0  0  0
   -4.5200    1.5080   -0.4000 C   0  0  0  0  0  0  0  0  0  0  0  0
   -4.3890    2.5410   -1.0770 O   0  0  0  0  0  0  0  0  0  0  0  0
   -3.4950    0.5380   -0.1590 C   0  0  0  0  0  0  0  0  0  0  0  0
   -3.1600   -0.3210    1.3880 S   0  0  0  0  0  0  0  0  0  0  0  0
   -1.8000   -1.3640    0.6100 C   0  0  0  0  0  0  0  0  0  0  0  0
   -1.1130   -2.3890    1.4460 C   0  0  0  0  0  0  0  0  0  0  0  0
    0.2090   -2.0840    1.9720 C   0  0  0  0  0  0  0  0  0  0  0  0
    1.2270   -1.7340    0.9540 C   0  0  0  0  0  0  0  0  0  0  0  0
    1.3700   -2.6530   -0.0960 C   0  0  0  0  0  0  0  0  0  0  0  0
    2.3530   -2.4460   -0.9720 N   0  0  0  0  0  0  0  0  0  0  0  0
    3.2010   -1.3800   -0.8660 C   0  0  0  0  0  0  0  0  0  0  0  0
    3.1290   -0.4470    0.1350 C   0  0  0  0  0  0  0  0  0  0  0  0
    4.1160    0.5920    0.3640 C   0  0  0  0  0  0  0  0  0  0  0  0
    3.6960    1.4800    1.2300 O   0  0  0  0  0  0  0  0  0  0  0  0
    5.3920    0.7510   -0.1870 N   0  0  0  0  0  0  0  0  0  0  0  0
    6.0350   -0.1350   -1.1290 C   0  0  0  0  0  0  0  0  0  0  0  0
    7.5590    0.1140   -1.1750 C   0  0  0  0  0  0  0  0  0  0  0  0
    8.0490    0.3800    0.2490 C   0  0  0  0  0  0  0  0  0  0  0  0
    7.6230    1.8100    0.5510 C   0  0  0  0  0  0  0  0  0  0  0  0
    6.1880    1.9140    0.2160 C   0  0  0  0  0  0  0  0  0  0  0  0
    5.6220    3.0500    0.2770 O   0  0  0  0  0  0  0  0  0  0  0  0
    2.0730   -0.6680    1.0620 C   0  0  0  0  0  0  0  0  0  0  0  0
   -1.8200   -0.9550   -0.4960 N   0  0  0  0  0  0  0  0  0  0  0  0
   -2.5620   -0.0450   -1.0490 C   0  0  0  0  0  0  0  0  0  0  0  0
   -2.4910    0.4030   -2.5020 C   0  0  0  0  0  0  0  0  0  0  0  0
  1  2  1  0
  2  3  1  0
  2  8  2  0
  3  4  2  0
  4  5  1  0
  5  6  1  0
  6  7  2  0
  6  8  1  0
  8  9  1  0
  9 10  2  0
  9 11  1  0
 11 12  1  0
 11 32  2  0
 12 13  1  0
 13 14  1  0
 13 31  2  0
 14 15  1  0
 15 16  1  0
 16 17  2  0
 16 30  1  0
 17 18  1  0
 18 19  2  0
 19 20  1  0
 20 21  1  0
 20 30  2  0
 21 22  2  0
 21 23  1  0
 23 24  1  0
 23 28  1  0
 24 25  1  0
 25 26  1  0
 26 27  1  0
 27 28  1  0
 28 29  2  0
 31 32  1  0
 32 33  1  0
M  END
