
     RDKit          3D

 33 35  0  0  0  0  0  0  0  0999 V2000
    2.7140    1.1940   -1.4450 C   0  0  0  0  0  0  0  0  0  0  0  0
    1.9900    0.8040   -0.2730 N   0  0  0  0  0  0  0  0  0  0  0  0
    2.5970    0.9030    1.0410 C   0  0  0  0  0  0  0  0  0  0  0  0
    3.8140    0.0200    0.9910 C   0  0  0  0  0  0  0  0  0  0  0  0
    3.7580   -1.3070    1.3180 C   0  0  0  0  0  0  0  0  0  0  0  0
    4.8770   -2.0330    1.2520 N   0  0  0  0  0  0  0  0  0  0  0  0
    6.0530   -1.4880    0.8710 C   0  0  0  0  0  0  0  0  0  0  0  0
    7.1710   -2.2160    0.8050 N   0  0  0  0  0  0  0  0  0  0  0  0
    8.3250   -1.6480    0.4230 C   0  0  0  0  0  0  0  0  0  0  0  0
    9.4980   -2.4280    0.3580 N   0  0  0  0  0  0  0  0  0  0  0  0
    8.4200   -0.3440    0.0930 N   0  0  0  0  0  0  0  0  0  0  0  0
    7.3190    0.4250    0.1460 C   0  0  0  0  0  0  0  0  0  0  0  0
    7.3130    1.8030   -0.1790 N   0  0  0  0  0  0  0  0  0  0  0  0
    6.1090   -0.1420    0.5400 C   0  0  0  0  0  0  0  0  0  0  0  0
    4.9790    0.5730    0.6110 N   0  0  0  0  0  0  0  0  0  0  0  0
    0.6680    0.3090   -0.3470 C   0  0  0  0  0  0  0  0  0  0  0  0
   -0.3840    1.1960   -0.2810 C   0  0  0  0  0  0  0  0  0  0  0  0
   -1.7050    0.7540   -0.3490 C   0  0  0  0  0  0  0  0  0  0  0  0
   -2.0140   -0.5830   -0.4840 C   0  0  0  0  0  0  0  0  0  0  0  0
   -3.3870   -1.0670   -0.5580 C   0  0  0  0  0  0  0  0  0  0  0  0
   -3.5710   -2.2990   -0.6580 O   0  0  0  0  0  0  0  0  0  0  0  0
   -4.5280   -0.2400   -0.5240 N   0  0  0  0  0  0  0  0  0  0  0  0
   -5.8880   -0.7710   -0.6000 C   0  0  1  0  0  0  0  0  0  0  0  0
   -6.6820   -0.4110    0.6330 C   0  0  0  0  0  0  0  0  0  0  0  0
   -6.7790    1.0970    0.8020 C   0  0  0  0  0  0  0  0  0  0  0  0
   -7.5610    1.4430    2.0170 C   0  0  0  0  0  0  0  0  0  0  0  0
   -8.0230    0.5020    2.7200 O   0  0  0  0  0  0  0  0  0  0  0  0
   -7.8080    2.7310    2.4130 O   0  0  0  0  0  0  0  0  0  0  0  0
   -6.5840   -0.2850   -1.8190 C   0  0  0  0  0  0  0  0  0  0  0  0
   -6.0760    0.4710   -2.6610 O   0  0  0  0  0  0  0  0  0  0  0  0
   -7.8890   -0.7160   -2.0150 O   0  0  0  0  0  0  0  0  0  0  0  0
   -0.9470   -1.4530   -0.5480 C   0  0  0  0  0  0  0  0  0  0  0  0
    0.3640   -1.0290   -0.4820 C   0  0  0  0  0  0  0  0  0  0  0  0
  1  2  1  0
  2  3  1  0
  2 16  1  0
  3  4  1  0
  4  5  2  0
  4 15  1  0
  5  6  1  0
  6  7  2  0
  7  8  1  0
  7 14  1  0
  8  9  2  0
  9 10  1  0
  9 11  1  0
 11 12  2  0
 12 13  1  0
 12 14  1  0
 14 15  2  0
 16 17  2  0
 16 33  1  0
 17 18  1  0
 18 19  2  0
 19 20  1  0
 19 32  1  0
 20 21  2  0
 20 22  1  0
 22 23  1  0
 23 24  1  1
 23 29  1  0
 24 25  1  0
 25 26  1  0
 26 27  2  0
 26 28  1  0
 29 30  2  0
 29 31  1  0
 32 33  2  0
M  END
