
     RDKit          3D

 33 36  0  0  0  0  0  0  0  0999 V2000
   -4.5870    2.9410    5.0900 C   0  0  0  0  0  0  0  0  0  0  0  0
   -3.8510    2.2790    4.0830 O   0  0  0  0  0  0  0  0  0  0  0  0
   -2.9950    3.0950    3.3080 C   0  0  0  0  0  0  0  0  0  0  0  0
   -2.8840    4.4260    3.5050 C   0  0  0  0  0  0  0  0  0  0  0  0
   -2.0660    5.2470    2.7700 C   0  0  0  0  0  0  0  0  0  0  0  0
   -1.2990    4.6490    1.7450 C   0  0  0  0  0  0  0  0  0  0  0  0
   -1.4210    3.2760    1.5500 C   0  0  0  0  0  0  0  0  0  0  0  0
   -2.2420    2.4780    2.2970 C   0  0  0  0  0  0  0  0  0  0  0  0
   -2.3930    1.0700    2.1340 N   0  0  0  0  0  0  0  0  0  0  0  0
   -1.6180    0.3580    1.1870 C   0  0  0  0  0  0  0  0  0  0  0  0
   -0.3860    0.6480    0.9940 N   0  0  0  0  0  0  0  0  0  0  0  0
    0.4880    0.0080    0.0780 C   0  0  0  0  0  0  0  0  0  0  0  0
    2.1930    0.5980   -0.0620 S   0  0  0  0  0  0  0  0  0  0  0  0
    3.0540   -0.4300   -1.2570 C   0  0  0  0  0  0  0  0  0  0  0  0
    4.4230    0.0860   -1.4640 C   0  0  0  0  0  0  0  0  0  0  0  0
    4.7970    1.1170   -0.8690 O   0  0  0  0  0  0  0  0  0  0  0  0
    5.3010   -0.5870   -2.3320 N   0  0  0  0  0  0  0  0  0  0  0  0
    6.6300   -0.0600   -2.5610 C   0  0  0  0  0  0  0  0  0  0  0  0
    7.6990   -1.0970   -2.3280 C   0  0  0  0  0  0  0  0  0  0  0  0
    7.2160   -2.3890   -2.3330 O   0  0  0  0  0  0  0  0  0  0  0  0
    6.1890   -2.6140   -3.2160 C   0  0  1  0  0  0  0  0  0  0  0  0
    5.8180   -4.0970   -3.1070 C   0  0  0  0  0  0  0  0  0  0  0  0
    4.9520   -1.8160   -3.0260 C   0  0  0  0  0  0  0  0  0  0  0  0
    0.0440   -0.9530   -0.6400 N   0  0  0  0  0  0  0  0  0  0  0  0
   -1.3150   -1.4160   -0.5590 C   0  0  0  0  0  0  0  0  0  0  0  0
   -1.6830   -2.3630   -1.2920 O   0  0  0  0  0  0  0  0  0  0  0  0
   -2.1990   -0.7550    0.3790 C   0  0  0  0  0  0  0  0  0  0  0  0
   -3.4510   -1.0500    0.5660 C   0  0  0  0  0  0  0  0  0  0  0  0
   -4.1510   -2.0980   -0.1370 C   0  0  0  0  0  0  0  0  0  0  0  0
   -5.4480   -2.3200    0.1330 C   0  0  0  0  0  0  0  0  0  0  0  0
   -6.2060   -3.3810   -0.5620 C   0  0  0  0  0  0  0  0  0  0  0  0
   -6.1040   -1.4800    1.1450 C   0  0  0  0  0  0  0  0  0  0  0  0
   -1.1540    6.1130    1.9350 C   0  0  0  0  0  0  0  0  0  0  0  0
  1  2  1  0
  2  3  1  0
  3  4  2  0
  3  8  1  0
  4  5  1  0
  5  6  2  0
  5 33  1  0
  6  7  1  0
  6 33  1  0
  7  8  2  0
  8  9  1  0
  9 10  1  0
 10 11  2  0
 10 27  1  0
 11 12  1  0
 12 13  1  0
 12 24  2  0
 13 14  1  0
 14 15  1  0
 15 16  2  0
 15 17  1  0
 17 18  1  0
 17 23  1  0
 18 19  1  0
 19 20  1  0
 20 21  1  0
 21 22  1  1
 21 23  1  0
 24 25  1  0
 25 26  2  0
 25 27  1  0
 27 28  2  3
 28 29  1  0
 29 30  2  3
 30 31  1  0
 30 32  1  0
M  END
