
     RDKit          3D

 33 35  0  0  0  0  0  0  0  0999 V2000
   10.0380    2.6220   -0.5550 C   0  0  0  0  0  0  0  0  0  0  0  0
    8.5450    2.6580   -0.7030 C   0  0  0  0  0  0  0  0  0  0  0  0
    7.9940    1.5870    0.0480 O   0  0  0  0  0  0  0  0  0  0  0  0
    6.6210    1.3450    0.1110 C   0  0  0  0  0  0  0  0  0  0  0  0
    5.9110    2.1470   -0.5450 O   0  0  0  0  0  0  0  0  0  0  0  0
    6.0570    0.2290    0.8910 C   0  0  0  0  0  0  0  0  0  0  0  0
    4.5560    0.1140    0.7420 C   0  0  1  0  0  0  0  0  0  0  0  0
    4.2250   -0.1230   -0.6820 C   0  0  0  0  0  0  0  0  0  0  0  0
    2.9070   -0.7760   -0.9670 C   0  0  0  0  0  0  0  0  0  0  0  0
    2.5290   -1.8560   -0.0050 C   0  0  2  0  0  0  0  0  0  0  0  0
    3.2130   -3.0910   -0.1850 N   0  0  0  0  0  0  0  0  0  0  0  0
    3.3860   -3.5370   -1.5180 C   0  0  0  0  0  0  0  0  0  0  0  0
    1.0490   -2.0900   -0.2280 C   0  0  0  0  0  0  0  0  0  0  0  0
    0.6540   -3.2090   -0.6370 O   0  0  0  0  0  0  0  0  0  0  0  0
    0.0980   -1.0950    0.0090 N   0  0  0  0  0  0  0  0  0  0  0  0
   -1.3040   -1.1670   -0.1610 C   0  0  0  0  0  0  0  0  0  0  0  0
   -1.8880   -2.0550   -1.0240 C   0  0  0  0  0  0  0  0  0  0  0  0
   -3.2840   -2.0730   -1.1000 C   0  0  0  0  0  0  0  0  0  0  0  0
   -4.0930   -1.2520   -0.3590 C   0  0  0  0  0  0  0  0  0  0  0  0
   -3.4750   -0.3510    0.5170 C   0  0  0  0  0  0  0  0  0  0  0  0
   -2.1070   -0.3080    0.6150 C   0  0  0  0  0  0  0  0  0  0  0  0
   -4.5200    0.3910    1.1870 N   0  0  0  0  0  0  0  0  0  0  0  0
   -5.7630   -0.3630    0.9870 C   0  0  1  0  0  0  0  0  0  0  0  0
   -6.9050    0.5870    0.9840 C   0  0  0  0  0  0  0  0  0  0  0  0
   -6.8760    1.6030   -0.0170 N   0  0  1  0  0  0  0  0  0  0  0  0
   -8.0480    1.4730   -0.8740 C   0  0  0  0  0  0  0  0  0  0  0  0
   -9.2760    1.1130   -0.0700 C   0  0  0  0  0  0  0  0  0  0  0  0
   -6.9020    2.9140    0.6130 C   0  0  0  0  0  0  0  0  0  0  0  0
   -5.9180    3.8230    0.0780 C   0  0  0  0  0  0  0  0  0  0  0  0
   -5.1420    4.5470   -0.3240 N   0  0  0  0  0  0  0  0  0  0  0  0
   -5.5000   -1.0560   -0.2310 N   0  0  0  0  0  0  0  0  0  0  0  0
    2.6960   -1.3660    1.3940 C   0  0  0  0  0  0  0  0  0  0  0  0
    4.0840   -0.9310    1.7150 C   0  0  0  0  0  0  0  0  0  0  0  0
  1  2  1  0
  2  3  1  0
  3  4  1  0
  4  5  2  0
  4  6  1  0
  7  6  1  6
  7  8  1  0
  7 33  1  0
  8  9  1  0
  9 10  1  0
 10 11  1  1
 10 13  1  0
 10 32  1  0
 11 12  1  0
 13 14  2  0
 13 15  1  0
 15 16  1  0
 16 17  2  0
 16 21  1  0
 17 18  1  0
 18 19  2  0
 19 20  1  0
 19 31  1  0
 20 21  2  0
 20 22  1  0
 22 23  1  0
 23 24  1  6
 23 31  1  0
 25 24  1  1
 25 26  1  0
 25 28  1  0
 26 27  1  0
 28 29  1  0
 29 30  3  0
 32 33  1  0
M  CHG  2  11   1  25   1
M  END
