
     RDKit          3D

 33 35  0  0  0  0  0  0  0  0999 V2000
   -3.3040   -3.8310   -0.0440 C   0  0  0  0  0  0  0  0  0  0  0  0
   -4.3470   -2.7380   -0.3300 C   0  0  0  0  0  0  0  0  0  0  0  0
   -3.8780   -1.7750   -1.2930 N   0  0  0  0  0  0  0  0  0  0  0  0
   -3.5620   -0.4620   -0.6420 C   0  0  1  0  0  0  0  0  0  0  0  0
   -2.2720   -0.0470   -1.3110 C   0  0  2  0  0  0  0  0  0  0  0  0
   -1.1920   -1.0870   -1.0360 C   0  0  0  0  0  0  0  0  0  0  0  0
    0.1250   -0.4030   -0.7770 C   0  0  0  0  0  0  0  0  0  0  0  0
   -0.0100    0.4750    0.3300 N   0  0  0  0  0  0  0  0  0  0  0  0
    0.7560    0.4310    1.5150 C   0  0  0  0  0  0  0  0  0  0  0  0
    0.5180    1.2820    2.4500 O   0  0  0  0  0  0  0  0  0  0  0  0
    1.8210   -0.5430    1.7630 C   0  0  0  0  0  0  0  0  0  0  0  0
    2.9610   -0.1350    2.6300 C   0  0  0  0  0  0  0  0  0  0  0  0
    3.8060    0.9250    2.1570 N   0  0  0  0  0  0  0  0  0  0  0  0
    3.7100    2.2160    2.4710 C   0  0  0  0  0  0  0  0  0  0  0  0
    2.8550    2.6090    3.2910 O   0  0  0  0  0  0  0  0  0  0  0  0
    4.5200    3.1770    1.9400 N   0  0  0  0  0  0  0  0  0  0  0  0
    5.4760    2.8870    1.0630 C   0  0  0  0  0  0  0  0  0  0  0  0
    6.2380    3.7620    0.5570 O   0  0  0  0  0  0  0  0  0  0  0  0
    5.6250    1.5590    0.7010 C   0  0  0  0  0  0  0  0  0  0  0  0
    6.6130    1.2750   -0.1850 N   0  0  0  0  0  0  0  0  0  0  0  0
    6.8250    0.0150   -0.5700 C   0  0  0  0  0  0  0  0  0  0  0  0
    7.9090   -0.3380   -1.5480 C   0  0  0  0  0  0  0  0  0  0  0  0
    7.9260   -1.7680   -1.7880 N   0  0  0  0  0  0  0  0  0  0  0  0
    6.0270   -0.9630   -0.0500 C   0  0  0  0  0  0  0  0  0  0  0  0
    5.0070   -0.6890    0.8610 C   0  0  0  0  0  0  0  0  0  0  0  0
    4.7960    0.6210    1.2500 C   0  0  0  0  0  0  0  0  0  0  0  0
   -1.0360    1.5150    0.1990 C   0  0  0  0  0  0  0  0  0  0  0  0
   -1.7510    1.3060   -1.1310 C   0  0  0  0  0  0  0  0  0  0  0  0
   -4.7230    0.4380   -0.7630 C   0  0  2  0  0  0  0  0  0  0  0  0
   -5.9970   -0.2790   -0.1700 C   0  0  0  0  0  0  0  0  0  0  0  0
   -5.1130    0.9130   -2.1020 C   0  0  0  0  0  0  0  0  0  0  0  0
   -4.6880    1.6310    0.2050 C   0  0  0  0  0  0  0  0  0  0  0  0
   -5.9330    2.4950   -0.0050 C   0  0  0  0  0  0  0  0  0  0  0  0
  1  2  1  0
  2  3  1  0
  4  3  1  6
  4  5  1  0
  4 29  1  0
  5  6  1  1
  5 28  1  0
  6  7  1  0
  7  8  1  0
  8  9  1  0
  8 27  1  0
  9 10  2  0
  9 11  1  0
 11 12  1  0
 12 13  1  0
 13 14  1  0
 13 26  1  0
 14 15  2  0
 14 16  1  0
 16 17  1  0
 17 18  2  0
 17 19  1  0
 19 20  2  0
 19 26  1  0
 20 21  1  0
 21 22  1  0
 21 24  2  0
 22 23  1  0
 24 25  1  0
 25 26  2  0
 27 28  1  0
 29 30  1  1
 29 31  1  0
 29 32  1  0
 32 33  1  0
M  CHG  2   3   1  23   1
M  END
