
     RDKit          3D

 15 16  0  0  0  0  0  0  0  0999 V2000
   -4.5390    1.0520    0.3880 C   0  0  0  0  0  0  0  0  0  0  0  0
   -3.9460    0.0810   -0.5970 C   0  0  0  0  0  0  0  0  0  0  0  0
   -2.7370   -0.5820   -0.0520 C   0  0  0  0  0  0  0  0  0  0  0  0
   -2.6770   -1.7240    0.6490 N   0  0  0  0  0  0  0  0  0  0  0  0
   -1.4090   -2.0130    0.9740 C   0  0  0  0  0  0  0  0  0  0  0  0
   -0.6260   -1.0060    0.4560 C   0  0  0  0  0  0  0  0  0  0  0  0
   -1.4420   -0.1570   -0.1560 N   0  0  0  0  0  0  0  0  0  0  0  0
   -0.7390    0.9520   -0.7470 C   0  0  0  0  0  0  0  0  0  0  0  0
    0.7210    0.6830   -0.4490 C   0  0  0  0  0  0  0  0  0  0  0  0
    0.7890   -0.5530    0.3480 C   0  0  0  0  0  0  0  0  0  0  0  0
    1.8010   -1.1970    0.8900 C   0  0  0  0  0  0  0  0  0  0  0  0
    3.1860   -0.8640    0.8550 C   0  0  0  0  0  0  0  0  0  0  0  0
    4.0040   -1.6530    1.4650 O   0  0  0  0  0  0  0  0  0  0  0  0
    3.8210    0.2290    0.2360 N   0  0  0  0  0  0  0  0  0  0  0  0
    5.2680    0.4150    0.3030 C   0  0  0  0  0  0  0  0  0  0  0  0
  1  2  1  0
  2  3  1  0
  3  4  2  0
  3  7  1  0
  4  5  1  0
  5  6  2  0
  6  7  1  0
  6 10  1  0
  7  8  1  0
  8  9  1  0
  9 10  1  0
 10 11  2  3
 11 12  1  0
 12 13  2  0
 12 14  1  0
 14 15  1  0
M  END
