
     RDKit          3D

 16 17  0  0  0  0  0  0  0  0999 V2000
   -4.7300   -1.9200    0.3180 C   0  0  0  0  0  0  0  0  0  0  0  0
   -3.6560   -1.1820    0.1190 C   0  0  0  0  0  0  0  0  0  0  0  0
   -2.3040   -1.7030    0.3610 C   0  0  0  0  0  0  0  0  0  0  0  0
   -1.2410   -0.9600    0.1600 C   0  0  0  0  0  0  0  0  0  0  0  0
    0.1180   -1.4380    0.3870 C   0  0  0  0  0  0  0  0  0  0  0  0
    0.2300   -2.6400    0.8010 O   0  0  0  0  0  0  0  0  0  0  0  0
    1.2520   -0.6180    0.1630 N   0  0  0  0  0  0  0  0  0  0  0  0
    1.1850    0.7500   -0.3050 C   0  0  0  0  0  0  0  0  0  0  0  0
    2.6520    1.1880   -0.4130 C   0  0  0  0  0  0  0  0  0  0  0  0
    3.2650    0.3380    0.6760 C   0  0  2  0  0  0  0  0  0  0  0  0
    4.7640    0.2750    0.5790 C   0  0  0  0  0  0  0  0  0  0  0  0
    2.6270   -1.0180    0.3670 C   0  0  0  0  0  0  0  0  0  0  0  0
   -1.4250    0.3710   -0.3010 N   0  0  0  0  0  0  0  0  0  0  0  0
   -2.5520    0.9100   -0.5380 C   0  0  0  0  0  0  0  0  0  0  0  0
   -2.6020    2.3150   -1.0170 C   0  0  0  0  0  0  0  0  0  0  0  0
   -3.7400    0.1590   -0.3400 N   0  0  0  0  0  0  0  0  0  0  0  0
  1  2  2  0
  2  3  1  0
  2 16  1  0
  3  4  2  0
  4  5  1  0
  4 13  1  0
  5  6  2  0
  5  7  1  0
  7  8  1  0
  7 12  1  0
  8  9  1  0
  9 10  1  0
 10 11  1  6
 10 12  1  0
 13 14  2  0
 14 15  1  0
 14 16  1  0
M  END
