
     RDKit          3D

 16 17  0  0  0  0  0  0  0  0999 V2000
   -4.0050    2.4900   -0.2430 O   0  0  0  0  0  0  0  0  0  0  0  0
   -2.6370    2.2280   -0.3400 C   0  0  0  0  0  0  0  0  0  0  0  0
   -2.1530    1.0590    0.0000 C   0  0  0  0  0  0  0  0  0  0  0  0
   -3.1450    0.0830    0.4760 C   0  0  0  0  0  0  0  0  0  0  0  0
   -3.1800   -1.0780   -0.4830 C   0  0  0  0  0  0  0  0  0  0  0  0
   -2.0510   -2.0380   -0.3430 C   0  0  0  0  0  0  0  0  0  0  0  0
   -0.6810   -1.4620   -0.5800 C   0  0  0  0  0  0  0  0  0  0  0  0
   -0.3230   -0.4310    0.3350 N   0  0  0  0  0  0  0  0  0  0  0  0
    1.0880   -0.4250    0.6050 C   0  0  0  0  0  0  0  0  0  0  0  0
    1.8930   -0.0060   -0.6030 C   0  0  0  0  0  0  0  0  0  0  0  0
    3.3320    0.0010   -0.3110 C   0  0  0  0  0  0  0  0  0  0  0  0
    4.2090   -1.0270   -0.4580 C   0  0  0  0  0  0  0  0  0  0  0  0
    5.4360   -0.6160   -0.0810 N   0  0  0  0  0  0  0  0  0  0  0  0
    5.3270    0.6420    0.2940 N   0  0  0  0  0  0  0  0  0  0  0  0
    4.0650    1.0880    0.1800 C   0  0  0  0  0  0  0  0  0  0  0  0
   -0.7000    0.8980   -0.1430 C   0  0  0  0  0  0  0  0  0  0  0  0
  1  2  1  0
  2  3  2  3
  3  4  1  0
  3 16  1  0
  4  5  1  0
  5  6  1  0
  6  7  1  0
  7  8  1  0
  8  9  1  0
  8 16  1  0
  9 10  1  0
 10 11  1  0
 11 12  1  0
 11 15  2  0
 12 13  2  0
 13 14  1  0
 14 15  1  0
M  END
