
     RDKit          3D

 16 17  0  0  0  0  0  0  0  0999 V2000
    2.2920    0.8290   -2.2230 C   0  0  0  0  0  0  0  0  0  0  0  0
    2.8810    0.6510   -1.0280 C   0  0  0  0  0  0  0  0  0  0  0  0
    2.1070    0.0550    0.0170 C   0  0  0  0  0  0  0  0  0  0  0  0
    2.6530   -0.1170    1.2400 C   0  0  0  0  0  0  0  0  0  0  0  0
    4.0510    0.3170    1.4530 C   0  0  0  0  0  0  0  0  0  0  0  0
    0.8000   -0.3740   -0.1140 O   0  0  0  0  0  0  0  0  0  0  0  0
   -0.2770    0.5160   -0.0150 C   0  0  0  0  0  0  0  0  0  0  0  0
   -0.0650    1.7990    0.1770 N   0  0  0  0  0  0  0  0  0  0  0  0
   -1.0940    2.6550    0.2840 C   0  0  0  0  0  0  0  0  0  0  0  0
   -2.3730    2.1430    0.1860 C   0  0  0  0  0  0  0  0  0  0  0  0
   -2.5500    0.8150   -0.0120 N   0  0  0  0  0  0  0  0  0  0  0  0
   -1.5300   -0.0710   -0.1260 C   0  0  0  0  0  0  0  0  0  0  0  0
   -1.7370   -1.4460   -0.5400 C   0  0  1  0  0  0  0  0  0  0  0  0
   -2.0430   -2.5630    0.4060 C   0  0  0  0  0  0  0  0  0  0  0  0
   -3.1490   -1.7980    0.9100 N   0  0  0  0  0  0  0  0  0  0  0  0
   -3.3680   -1.5450   -0.5550 C   0  0  0  0  0  0  0  0  0  0  0  0
  1  2  2  0
  2  3  1  0
  3  4  2  3
  3  6  1  0
  4  5  1  0
  6  7  1  0
  7  8  2  0
  7 12  1  0
  8  9  1  0
  9 10  2  0
 10 11  1  0
 11 12  2  0
 13 12  1  1
 13 14  1  0
 13 16  1  0
 14 15  1  0
 15 16  1  0
M  END
