
     RDKit          3D

 16 16  0  0  0  0  0  0  0  0999 V2000
    4.9500   -1.1530    1.1670 C   0  0  0  0  0  0  0  0  0  0  0  0
    3.7570   -0.2940    1.0970 C   0  0  0  0  0  0  0  0  0  0  0  0
    3.2330    0.0820   -0.0550 C   0  0  0  0  0  0  0  0  0  0  0  0
    3.8350   -0.3530   -1.2650 N   0  0  0  0  0  0  0  0  0  0  0  0
    2.0290    0.9480   -0.1220 C   0  0  0  0  0  0  0  0  0  0  0  0
    0.9870    0.2680   -0.8140 N   0  0  0  0  0  0  0  0  0  0  0  0
    0.4400   -0.8540   -0.1430 C   0  0  0  0  0  0  0  0  0  0  0  0
   -0.7600   -0.3550    0.6610 C   0  0  0  0  0  0  0  0  0  0  0  0
   -1.7290    0.2220   -0.1800 N   0  0  0  0  0  0  0  0  0  0  0  0
   -3.0720    0.0680    0.1430 C   0  0  2  0  0  0  0  0  0  0  0  0
   -3.3780    0.7350    1.4940 C   0  0  0  0  0  0  0  0  0  0  0  0
   -3.3640   -1.4210    0.3780 C   0  0  0  0  0  0  0  0  0  0  0  0
   -4.0730    0.5560   -0.7950 C   0  0  0  0  0  0  0  0  0  0  0  0
   -3.9350    1.1040   -1.8520 O   0  0  0  0  0  0  0  0  0  0  0  0
   -1.3420    0.9010   -1.3410 C   0  0  0  0  0  0  0  0  0  0  0  0
    0.1040    1.0540   -1.5870 C   0  0  0  0  0  0  0  0  0  0  0  0
  1  2  1  0
  2  3  2  3
  3  4  1  0
  3  5  1  0
  5  6  1  0
  6  7  1  0
  6 16  1  0
  7  8  1  0
  8  9  1  0
  9 10  1  0
  9 15  1  0
 10 11  1  1
 10 12  1  0
 10 13  1  0
 13 14  2  0
 15 16  1  0
M  END
