
     RDKit          3D

 16 17  0  0  0  0  0  0  0  0999 V2000
    4.5860    0.6560    1.4790 C   0  0  0  0  0  0  0  0  0  0  0  0
    3.4560    1.9170    1.3990 C   0  0  0  0  0  0  0  0  0  0  0  0
    2.4480    1.3930    0.8640 C   0  0  0  0  0  0  0  0  0  0  0  0
    1.4660    0.7030    0.2890 N   0  0  0  0  0  0  0  0  0  0  0  0
    0.3500    0.5720   -0.1590 C   0  0  0  0  0  0  0  0  0  0  0  0
   -0.2110   -0.5750   -0.7420 N   0  0  0  0  0  0  0  0  0  0  0  0
   -1.0170   -0.4520   -1.9010 C   0  0  0  0  0  0  0  0  0  0  0  0
   -2.4760   -0.2960   -1.5690 C   0  0  0  0  0  0  0  0  0  0  0  0
   -3.0640   -1.3380   -0.7040 C   0  0  0  0  0  0  0  0  0  0  0  0
   -2.3060   -2.5410   -0.3220 C   0  0  0  0  0  0  0  0  0  0  0  0
   -1.1720   -2.3330    0.6210 C   0  0  0  0  0  0  0  0  0  0  0  0
    0.0800   -1.8370   -0.0620 C   0  0  0  0  0  0  0  0  0  0  0  0
   -0.5400    1.7930    0.0350 C   0  0  0  0  0  0  0  0  0  0  0  0
    0.3240    2.8880    0.4590 C   0  0  0  0  0  0  0  0  0  0  0  0
   -0.2130    4.1110    0.3260 O   0  0  0  0  0  0  0  0  0  0  0  0
    1.5570    2.8500    0.9440 N   0  0  0  0  0  0  0  0  0  0  0  0
  1  2  1  0
  2  3  2  3
  3  4  1  0
  3 16  1  0
  4  5  2  0
  5  6  1  0
  5 13  1  0
  6  7  1  0
  6 12  1  0
  7  8  1  0
  8  9  1  0
  9 10  1  0
 10 11  1  0
 11 12  1  0
 13 14  1  0
 14 15  2  0
 14 16  1  0
M  END
