
     RDKit          3D

 21 21  0  0  0  0  0  0  0  0999 V2000
   -2.4400    3.0260    2.2490 C   0  0  0  0  0  0  0  0  0  0  0  0
   -2.2530    2.0390    1.3200 C   0  0  0  0  0  0  0  0  0  0  0  0
   -3.3020    1.1120    1.0510 C   0  0  0  0  0  0  0  0  0  0  0  0
   -3.5270    0.0870    0.3070 C   0  0  0  0  0  0  0  0  0  0  0  0
   -4.8850   -0.5430    0.4180 C   0  0  0  0  0  0  0  0  0  0  0  0
   -5.6780   -0.1070    1.2570 O   0  0  0  0  0  0  0  0  0  0  0  0
   -5.2650   -1.6470   -0.4440 C   0  0  0  0  0  0  0  0  0  0  0  0
   -4.3710   -2.0650   -1.3210 C   0  0  0  0  0  0  0  0  0  0  0  0
   -4.7410   -3.2130   -2.2300 C   0  0  0  0  0  0  0  0  0  0  0  0
   -3.0660   -1.4730   -1.4340 C   0  0  0  0  0  0  0  0  0  0  0  0
   -2.6160   -0.4330   -0.6640 C   0  0  0  0  0  0  0  0  0  0  0  0
   -1.2330   -0.0140   -0.9790 C   0  0  0  0  0  0  0  0  0  0  0  0
   -0.2030   -0.2970    0.0280 C   0  0  0  0  0  0  0  0  0  0  0  0
    1.2340    0.0910   -0.3980 C   0  0  1  0  0  0  0  0  0  0  0  0
    1.6150   -0.6790   -1.6500 C   0  0  0  0  0  0  0  0  0  0  0  0
    1.2910    1.5680   -0.6170 C   0  0  0  0  0  0  0  0  0  0  0  0
    2.1330   -0.3030    0.7240 C   0  0  0  0  0  0  0  0  0  0  0  0
    3.5770   -0.1150    0.6270 C   0  0  2  0  0  0  0  0  0  0  0  0
    4.2390   -0.6240    1.9390 C   0  0  0  0  0  0  0  0  0  0  0  0
    4.1430    1.2590    0.4400 C   0  0  0  0  0  0  0  0  0  0  0  0
    5.6970    1.0920    0.4190 C   0  0  0  0  0  0  0  0  0  0  0  0
  1  2  2  0
  2  3  1  0
  3  4  2  3
  4  5  1  0
  4 11  1  0
  5  6  2  0
  5  7  1  0
  7  8  2  0
  8  9  1  0
  8 10  1  0
 10 11  2  0
 11 12  1  0
 12 13  1  0
 13 14  1  0
 14 15  1  6
 14 16  1  0
 14 17  1  0
 17 18  1  0
 18 19  1  1
 18 20  1  0
 20 21  1  0
M  END
