
     RDKit          3D

 21 22  0  0  0  0  0  0  0  0999 V2000
   -4.1610    0.8380    3.0380 C   0  0  0  0  0  0  0  0  0  0  0  0
   -3.8890    0.3430    1.6710 C   0  0  0  0  0  0  0  0  0  0  0  0
   -2.6680    0.4840    1.0990 C   0  0  0  0  0  0  0  0  0  0  0  0
   -1.6870    1.1670    1.9700 C   0  0  0  0  0  0  0  0  0  0  0  0
   -2.4250   -0.1060   -0.1940 C   0  0  0  0  0  0  0  0  0  0  0  0
   -1.3190   -0.0080   -0.9290 C   0  0  0  0  0  0  0  0  0  0  0  0
   -0.1470    0.7340   -0.5070 C   0  0  0  0  0  0  0  0  0  0  0  0
    1.0490   -0.1020   -0.1100 C   0  0  0  0  0  0  0  0  0  0  0  0
    2.1920    0.8040    0.3160 C   0  0  2  0  0  0  0  0  0  0  0  0
    2.6360    1.7370   -0.7680 C   0  0  0  0  0  0  0  0  0  0  0  0
    3.3730   -0.0850    0.6400 C   0  0  0  0  0  0  0  0  0  0  0  0
    3.9710   -0.1910    1.8100 C   0  0  0  0  0  0  0  0  0  0  0  0
    5.0700   -1.1650    1.6870 C   0  0  0  0  0  0  0  0  0  0  0  0
    5.0300   -1.6070    0.3000 C   0  0  0  0  0  0  0  0  0  0  0  0
    4.0400   -0.9740   -0.2970 C   0  0  0  0  0  0  0  0  0  0  0  0
   -1.3650   -0.5510   -2.2950 C   0  0  0  0  0  0  0  0  0  0  0  0
   -0.1360   -0.5050   -3.1740 C   0  0  0  0  0  0  0  0  0  0  0  0
   -2.4370   -1.1020   -2.8170 C   0  0  0  0  0  0  0  0  0  0  0  0
   -3.7270   -1.2360   -2.1020 C   0  0  0  0  0  0  0  0  0  0  0  0
   -3.4390   -1.1010   -0.6660 C   0  0  0  0  0  0  0  0  0  0  0  0
   -4.0420   -1.8290    0.1760 O   0  0  0  0  0  0  0  0  0  0  0  0
  1  2  1  0
  2  3  2  3
  3  4  1  0
  3  5  1  0
  5  6  2  0
  5 20  1  0
  6  7  1  0
  6 16  1  0
  7  8  1  0
  8  9  1  0
  9 10  1  6
  9 11  1  0
 11 12  2  0
 11 15  1  0
 12 13  1  0
 13 14  1  0
 14 15  2  0
 16 17  1  0
 16 18  2  0
 18 19  1  0
 19 20  1  0
 20 21  2  0
M  END
