
     RDKit          3D

 21 21  0  0  0  0  0  0  0  0999 V2000
    6.5040    1.2430   -0.7880 C   0  0  0  0  0  0  0  0  0  0  0  0
    5.6250    0.4800    0.2210 C   0  0  0  0  0  0  0  0  0  0  0  0
    4.7120   -0.4230   -0.4530 C   0  0  0  0  0  0  0  0  0  0  0  0
    3.4390   -0.5070   -0.5060 C   0  0  0  0  0  0  0  0  0  0  0  0
    2.3590    0.2530    0.0720 C   0  0  0  0  0  0  0  0  0  0  0  0
    2.7170    1.5260    0.7630 C   0  0  0  0  0  0  0  0  0  0  0  0
    1.0640   -0.0700   -0.1180 C   0  0  0  0  0  0  0  0  0  0  0  0
    0.9140   -1.3060   -1.0110 C   0  0  0  0  0  0  0  0  0  0  0  0
   -0.0540    0.3030    0.6580 C   0  0  0  0  0  0  0  0  0  0  0  0
    0.2240    0.8890    2.0300 C   0  0  0  0  0  0  0  0  0  0  0  0
   -1.3650    0.1730    0.4170 C   0  0  0  0  0  0  0  0  0  0  0  0
   -2.3970    0.5910    1.4050 C   0  0  0  0  0  0  0  0  0  0  0  0
   -2.8770   -0.4410    2.3440 C   0  0  0  0  0  0  0  0  0  0  0  0
   -3.3670   -1.7440    1.8030 C   0  0  0  0  0  0  0  0  0  0  0  0
   -1.8150    0.0950   -0.9540 C   0  0  0  0  0  0  0  0  0  0  0  0
   -0.8850    0.2550   -1.8370 O   0  0  0  0  0  0  0  0  0  0  0  0
   -3.1300   -0.1260   -1.5270 C   0  0  0  0  0  0  0  0  0  0  0  0
   -4.3210   -0.2880   -1.0060 C   0  0  0  0  0  0  0  0  0  0  0  0
   -5.3770   -0.4910   -2.0520 C   0  0  0  0  0  0  0  0  0  0  0  0
   -4.6060   -0.4220   -3.2730 C   0  0  0  0  0  0  0  0  0  0  0  0
   -3.3510   -0.2190   -2.9890 C   0  0  0  0  0  0  0  0  0  0  0  0
  1  2  1  0
  2  3  1  0
  3  4  2  3
  4  5  1  0
  5  6  1  0
  5  7  2  3
  7  8  1  0
  7  9  1  0
  9 10  1  0
  9 11  2  3
 11 12  1  0
 11 15  1  0
 12 13  1  0
 13 14  1  0
 15 16  2  0
 15 17  1  0
 17 18  2  0
 17 21  1  0
 18 19  1  0
 19 20  1  0
 20 21  2  0
M  END
