
     RDKit          3D

 21 22  0  0  0  0  0  0  0  0999 V2000
   -3.2010    3.2520   -1.5960 C   0  0  0  0  0  0  0  0  0  0  0  0
   -2.5890    2.5780   -0.6220 C   0  0  0  0  0  0  0  0  0  0  0  0
   -1.7870    1.4000   -0.9050 C   0  0  0  0  0  0  0  0  0  0  0  0
   -1.6810    1.0270   -2.0930 O   0  0  0  0  0  0  0  0  0  0  0  0
   -1.1390    0.7030    0.2260 C   0  0  2  0  0  0  0  0  0  0  0  0
   -2.1490    0.1600    1.2160 C   0  0  0  0  0  0  0  0  0  0  0  0
   -3.0660   -0.8250    0.6030 C   0  0  0  0  0  0  0  0  0  0  0  0
   -3.1570   -2.0750    1.0270 C   0  0  0  0  0  0  0  0  0  0  0  0
   -4.1570   -2.8020    0.2130 C   0  0  0  0  0  0  0  0  0  0  0  0
   -4.6190   -1.7840   -0.7320 C   0  0  0  0  0  0  0  0  0  0  0  0
   -3.9850   -0.6580   -0.4950 C   0  0  0  0  0  0  0  0  0  0  0  0
   -0.2200    1.7130    0.8880 C   0  0  0  0  0  0  0  0  0  0  0  0
    1.0490    1.7830    0.1050 C   0  0  0  0  0  0  0  0  0  0  0  0
    1.8760    0.5390    0.3630 C   0  0  2  0  0  0  0  0  0  0  0  0
    2.7930    0.8410    1.5290 C   0  0  0  0  0  0  0  0  0  0  0  0
    2.7350    0.2030   -0.8420 C   0  0  0  0  0  0  0  0  0  0  0  0
    3.5380   -1.0140   -0.5730 C   0  0  0  0  0  0  0  0  0  0  0  0
    4.8690   -1.0000   -0.6000 C   0  0  0  0  0  0  0  0  0  0  0  0
    5.6550   -2.2270   -0.3290 C   0  0  0  0  0  0  0  0  0  0  0  0
    0.9220   -0.5630    0.6980 C   0  0  0  0  0  0  0  0  0  0  0  0
   -0.2590   -0.4330   -0.2590 C   0  0  0  0  0  0  0  0  0  0  0  0
  1  2  2  0
  2  3  1  0
  3  4  2  0
  3  5  1  0
  5  6  1  1
  5 12  1  0
  5 21  1  0
  6  7  1  0
  7  8  2  0
  7 11  1  0
  8  9  1  0
  9 10  1  0
 10 11  2  0
 12 13  1  0
 13 14  1  0
 14 15  1  1
 14 16  1  0
 14 20  1  0
 16 17  1  0
 17 18  2  3
 18 19  1  0
 20 21  1  0
M  END
