
     RDKit          3D

 21 21  0  0  0  0  0  0  0  0999 V2000
   -1.4780   -2.4130   -1.5210 C   0  0  0  0  0  0  0  0  0  0  0  0
   -2.3420   -1.4920   -1.7210 C   0  0  0  0  0  0  0  0  0  0  0  0
   -2.3730   -0.1050   -1.2560 C   0  0  0  0  0  0  0  0  0  0  0  0
   -3.4260    0.5580   -1.6640 C   0  0  0  0  0  0  0  0  0  0  0  0
   -3.9660    1.8890   -1.5400 C   0  0  0  0  0  0  0  0  0  0  0  0
   -1.3600    0.3960   -0.3280 C   0  0  1  0  0  0  0  0  0  0  0  0
   -2.1340    1.4440    0.5720 C   0  0  0  0  0  0  0  0  0  0  0  0
   -1.8630    1.1920    2.0540 C   0  0  0  0  0  0  0  0  0  0  0  0
   -2.5050   -0.1250    2.4780 C   0  0  0  0  0  0  0  0  0  0  0  0
   -2.0930   -1.2000    1.4810 C   0  0  0  0  0  0  0  0  0  0  0  0
   -0.9300   -0.5780    0.6820 C   0  0  0  0  0  0  0  0  0  0  0  0
    0.2540   -0.9240    1.0400 C   0  0  0  0  0  0  0  0  0  0  0  0
    1.6280   -0.6730    0.7830 C   0  0  0  0  0  0  0  0  0  0  0  0
    2.4910   -1.4200    1.5390 C   0  0  0  0  0  0  0  0  0  0  0  0
    2.0290   -2.4060    2.5420 C   0  0  0  0  0  0  0  0  0  0  0  0
    2.2070    0.2920   -0.1770 C   0  0  2  0  0  0  0  0  0  0  0  0
    1.7670    1.6890    0.1490 C   0  0  0  0  0  0  0  0  0  0  0  0
    1.8290   -0.0810   -1.6080 C   0  0  0  0  0  0  0  0  0  0  0  0
    3.7490    0.2620   -0.1570 C   0  0  0  0  0  0  0  0  0  0  0  0
    4.3730    1.1190   -0.9520 O   0  0  0  0  0  0  0  0  0  0  0  0
    4.3490    1.2190   -2.2640 C   0  0  0  0  0  0  0  0  0  0  0  0
  1  2  2  0
  2  3  1  0
  3  4  2  3
  6  3  1  6
  4  5  1  0
  6  7  1  0
  6 11  1  0
  7  8  1  0
  8  9  1  0
  9 10  1  0
 10 11  1  0
 11 12  2  3
 12 13  1  0
 13 14  2  3
 13 16  1  0
 14 15  1  0
 16 17  1  1
 16 18  1  0
 16 19  1  0
 19 20  1  0
 20 21  1  0
M  END
