
     RDKit          3D

 21 22  0  0  0  0  0  0  0  0999 V2000
    1.2580    4.3940    0.9520 C   0  0  0  0  0  0  0  0  0  0  0  0
    1.8370    3.1470    0.3550 C   0  0  0  0  0  0  0  0  0  0  0  0
    1.6320    1.9980    1.1540 O   0  0  0  0  0  0  0  0  0  0  0  0
    0.4160    1.5070    1.5120 C   0  0  0  0  0  0  0  0  0  0  0  0
   -0.4170    2.0530    2.5630 C   0  0  0  0  0  0  0  0  0  0  0  0
   -0.0390    0.3910    0.7950 C   0  0  0  0  0  0  0  0  0  0  0  0
   -1.3170   -0.0820    1.2100 C   0  0  0  0  0  0  0  0  0  0  0  0
   -2.0860   -1.0250    0.8570 C   0  0  0  0  0  0  0  0  0  0  0  0
   -3.4220   -1.1880    1.5950 C   0  0  2  0  0  0  0  0  0  0  0  0
   -3.4560   -2.6060    2.0150 C   0  0  0  0  0  0  0  0  0  0  0  0
   -4.3990   -3.1980    1.3100 C   0  0  0  0  0  0  0  0  0  0  0  0
   -5.0090   -2.2190    0.4190 C   0  0  0  0  0  0  0  0  0  0  0  0
   -4.4610   -1.0440    0.5630 C   0  0  0  0  0  0  0  0  0  0  0  0
    0.8540   -0.0530   -0.2050 C   0  0  0  0  0  0  0  0  0  0  0  0
    1.0010   -0.9410   -1.1120 C   0  0  0  0  0  0  0  0  0  0  0  0
    0.0740   -2.0360   -1.4890 C   0  0  0  0  0  0  0  0  0  0  0  0
    2.2800   -0.8810   -1.9120 C   0  0  0  0  0  0  0  0  0  0  0  0
    2.6090   -1.7050   -2.8850 C   0  0  0  0  0  0  0  0  0  0  0  0
    3.9270   -1.3230   -3.4180 C   0  0  0  0  0  0  0  0  0  0  0  0
    4.3280   -0.1560   -2.6210 C   0  0  0  0  0  0  0  0  0  0  0  0
    3.3390    0.0870   -1.7390 C   0  0  0  0  0  0  0  0  0  0  0  0
  1  2  1  0
  2  3  1  0
  3  4  1  0
  4  5  1  0
  4  6  2  3
  6  7  1  0
  6 14  1  0
  7  8  2  3
  9  8  1  6
  9 10  1  0
  9 13  1  0
 10 11  2  0
 11 12  1  0
 12 13  2  0
 14 15  2  3
 15 16  1  0
 15 17  1  0
 17 18  2  0
 17 21  1  0
 18 19  1  0
 19 20  1  0
 20 21  2  0
M  END
