
     RDKit          3D

 24 27  0  0  0  0  0  0  0  0999 V2000
   -3.5830   -2.3230    0.6050 C   0  0  0  0  0  0  0  0  0  0  0  0
   -3.5110   -1.3200   -0.5450 C   0  0  0  0  0  0  0  0  0  0  0  0
   -2.4800   -0.3410   -0.3670 N   0  0  0  0  0  0  0  0  0  0  0  0
   -1.1120   -0.6990   -0.2690 C   0  0  0  0  0  0  0  0  0  0  0  0
   -0.7260   -2.0150   -0.3540 C   0  0  0  0  0  0  0  0  0  0  0  0
    0.6170   -2.3740   -0.2610 C   0  0  0  0  0  0  0  0  0  0  0  0
    1.5460   -1.3920   -0.0830 C   0  0  0  0  0  0  0  0  0  0  0  0
    1.1460   -0.0630    0.0020 C   0  0  0  0  0  0  0  0  0  0  0  0
    2.0510    0.9090    0.1770 N   0  0  0  0  0  0  0  0  0  0  0  0
    3.3600    0.6190    0.2730 C   0  0  0  0  0  0  0  0  0  0  0  0
    4.1810    1.5610    0.4370 O   0  0  0  0  0  0  0  0  0  0  0  0
    3.8310   -0.6860    0.1970 C   0  0  0  0  0  0  0  0  0  0  0  0
    5.0510   -1.2520    0.2600 N   0  0  0  0  0  0  0  0  0  0  0  0
    4.8970   -2.5610    0.1250 N   0  0  0  0  0  0  0  0  0  0  0  0
    3.6000   -2.8670   -0.0250 C   0  0  0  0  0  0  0  0  0  0  0  0
    2.8960   -1.6900    0.0170 C   0  0  0  0  0  0  0  0  0  0  0  0
   -0.1880    0.3070   -0.0900 C   0  0  0  0  0  0  0  0  0  0  0  0
   -0.5550    1.7130    0.0050 C   0  0  0  0  0  0  0  0  0  0  0  0
   -0.8600    2.3750    1.1730 C   0  0  0  0  0  0  0  0  0  0  0  0
   -0.8670    1.7720    2.5300 C   0  0  0  0  0  0  0  0  0  0  0  0
   -1.1460    3.6540    0.8520 N   0  0  0  0  0  0  0  0  0  0  0  0
   -1.0390    3.8390   -0.4550 N   0  0  0  0  0  0  0  0  0  0  0  0
   -0.6730    2.6470   -1.0010 C   0  0  0  0  0  0  0  0  0  0  0  0
   -0.4340    2.3750   -2.4450 C   0  0  0  0  0  0  0  0  0  0  0  0
  1  2  1  0
  2  3  1  0
  3  4  1  0
  4  5  2  0
  4 17  1  0
  5  6  1  0
  6  7  2  0
  7  8  1  0
  7 16  1  0
  8  9  1  0
  8 17  2  0
  9 10  1  0
 10 11  2  0
 10 12  1  0
 12 13  1  0
 12 16  2  0
 13 14  1  0
 14 15  2  0
 15 16  1  0
 17 18  1  0
 18 19  1  0
 18 23  2  0
 19 20  1  0
 19 21  2  0
 21 22  1  0
 22 23  1  0
 23 24  1  0
M  END
