
     RDKit          3D

 24 27  0  0  0  0  0  0  0  0999 V2000
   -4.1420    2.8440    1.2690 N   0  0  0  0  0  0  0  0  0  0  0  0
   -4.1270    1.8160    0.2880 C   0  0  0  0  0  0  0  0  0  0  0  0
   -5.1160    1.6500   -0.6190 N   0  0  0  0  0  0  0  0  0  0  0  0
   -5.0490    0.6540   -1.5290 C   0  0  0  0  0  0  0  0  0  0  0  0
   -3.9670   -0.2020   -1.5380 C   0  0  0  0  0  0  0  0  0  0  0  0
   -2.9360   -0.0630   -0.6260 C   0  0  0  0  0  0  0  0  0  0  0  0
   -1.8450   -0.8780   -0.5880 C   0  0  0  0  0  0  0  0  0  0  0  0
   -1.7640   -1.8100   -1.4270 O   0  0  0  0  0  0  0  0  0  0  0  0
   -0.8330   -0.7400    0.3090 N   0  0  0  0  0  0  0  0  0  0  0  0
    0.2650   -1.6350    0.2740 C   0  0  0  0  0  0  0  0  0  0  0  0
    0.1400   -2.9910    0.4390 C   0  0  0  0  0  0  0  0  0  0  0  0
    1.2200   -3.8530    0.4040 C   0  0  0  0  0  0  0  0  0  0  0  0
    2.4820   -3.3610    0.1950 C   0  0  0  0  0  0  0  0  0  0  0  0
    2.6390   -1.9920    0.0240 C   0  0  0  0  0  0  0  0  0  0  0  0
    1.5640   -1.1450    0.0620 C   0  0  0  0  0  0  0  0  0  0  0  0
    1.6850    0.2270   -0.1420 N   0  0  0  0  0  0  0  0  0  0  0  0
    2.9350    0.8890   -0.1630 C   0  0  0  0  0  0  0  0  0  0  0  0
    4.0760    0.6590    0.5590 C   0  0  0  0  0  0  0  0  0  0  0  0
    5.0860    1.5550    0.1760 C   0  0  0  0  0  0  0  0  0  0  0  0
    4.5430    2.3190   -0.7730 N   0  0  0  0  0  0  0  0  0  0  0  0
    3.2800    1.9650   -1.0060 C   0  0  0  0  0  0  0  0  0  0  0  0
   -0.9480    0.2490    1.1770 N   0  0  0  0  0  0  0  0  0  0  0  0
   -2.0030    1.0940    1.1960 C   0  0  0  0  0  0  0  0  0  0  0  0
   -3.0400    0.9630    0.2870 C   0  0  0  0  0  0  0  0  0  0  0  0
  1  2  1  0
  2  3  2  0
  2 24  1  0
  3  4  1  0
  4  5  2  0
  5  6  1  0
  6  7  1  0
  6 24  2  0
  7  8  2  0
  7  9  1  0
  9 10  1  0
  9 22  1  0
 10 11  2  0
 10 15  1  0
 11 12  1  0
 12 13  2  0
 13 14  1  0
 14 15  2  0
 15 16  1  0
 16 17  1  0
 17 18  1  0
 17 21  2  0
 18 19  2  0
 19 20  1  0
 20 21  1  0
 22 23  2  0
 23 24  1  0
M  END
