
     RDKit          3D

 24 27  0  0  0  0  0  0  0  0999 V2000
   -6.1090   -1.2860    0.3550 C   0  0  0  0  0  0  0  0  0  0  0  0
   -4.8340   -0.5260    0.1390 C   0  0  0  0  0  0  0  0  0  0  0  0
   -3.6130   -1.1580    0.1530 C   0  0  0  0  0  0  0  0  0  0  0  0
   -2.4070   -0.4640   -0.0470 C   0  0  0  0  0  0  0  0  0  0  0  0
   -1.2300   -1.2410   -0.0140 N   0  0  0  0  0  0  0  0  0  0  0  0
    0.1050   -0.7790   -0.0340 C   0  0  0  0  0  0  0  0  0  0  0  0
    0.3150    0.4460   -0.0820 O   0  0  0  0  0  0  0  0  0  0  0  0
    1.2140   -1.7150    0.0020 N   0  0  0  0  0  0  0  0  0  0  0  0
    2.5280   -1.1900   -0.0200 C   0  0  0  0  0  0  0  0  0  0  0  0
    3.6100   -2.0460    0.0130 C   0  0  0  0  0  0  0  0  0  0  0  0
    4.9120   -1.5900   -0.0060 C   0  0  0  0  0  0  0  0  0  0  0  0
    5.1010   -0.2230   -0.0600 C   0  0  0  0  0  0  0  0  0  0  0  0
    6.2310    0.5650   -0.0920 C   0  0  0  0  0  0  0  0  0  0  0  0
    7.6340    0.1120   -0.0750 C   0  0  0  0  0  0  0  0  0  0  0  0
    5.8100    1.8390   -0.1410 N   0  0  0  0  0  0  0  0  0  0  0  0
    4.4920    1.8880   -0.1420 N   0  0  0  0  0  0  0  0  0  0  0  0
    4.0170    0.6250   -0.0920 C   0  0  0  0  0  0  0  0  0  0  0  0
    2.7710    0.1150   -0.0710 N   0  0  0  0  0  0  0  0  0  0  0  0
   -2.4770    0.8710   -0.2590 C   0  0  0  0  0  0  0  0  0  0  0  0
   -3.7270    1.5010   -0.2700 C   0  0  0  0  0  0  0  0  0  0  0  0
   -4.0680    2.8160   -0.4590 C   0  0  0  0  0  0  0  0  0  0  0  0
   -5.4210    2.8990   -0.3740 N   0  0  0  0  0  0  0  0  0  0  0  0
   -5.9570    1.6840   -0.1380 C   0  0  0  0  0  0  0  0  0  0  0  0
   -4.8950    0.8210   -0.0750 C   0  0  0  0  0  0  0  0  0  0  0  0
  1  2  1  0
  2  3  2  0
  2 24  1  0
  3  4  1  0
  4  5  1  0
  4 19  2  0
  5  6  1  0
  6  7  2  0
  6  8  1  0
  8  9  1  0
  9 10  2  0
  9 18  1  0
 10 11  1  0
 11 12  2  0
 12 13  1  0
 12 17  1  0
 13 14  1  0
 13 15  2  0
 15 16  1  0
 16 17  1  0
 17 18  2  0
 19 20  1  0
 20 21  2  0
 20 24  1  0
 21 22  1  0
 22 23  1  0
 23 24  2  0
M  END
