
     RDKit          3D

 24 27  0  0  0  0  0  0  0  0999 V2000
   -0.3650    3.9140    1.9280 C   0  0  0  0  0  0  0  0  0  0  0  0
   -0.7670    2.7300    1.1640 C   0  0  0  0  0  0  0  0  0  0  0  0
    0.1410    1.9600    0.4410 C   0  0  0  0  0  0  0  0  0  0  0  0
   -0.5590    0.8890   -0.0800 C   0  0  0  0  0  0  0  0  0  0  0  0
   -0.0220   -0.2170   -0.7820 C   0  0  0  0  0  0  0  0  0  0  0  0
    1.3160   -0.0400   -1.3500 C   0  0  0  0  0  0  0  0  0  0  0  0
    2.3420   -0.8040   -0.7860 N   0  0  0  0  0  0  0  0  0  0  0  0
    3.6310   -0.4420   -1.3510 C   0  0  0  0  0  0  0  0  0  0  0  0
    4.6380   -0.7290   -0.3000 C   0  0  0  0  0  0  0  0  0  0  0  0
    4.6760    0.1050    0.8370 N   0  0  0  0  0  0  0  0  0  0  0  0
    5.6390   -0.3090    1.6070 N   0  0  0  0  0  0  0  0  0  0  0  0
    6.2540   -1.3640    1.0720 C   0  0  0  0  0  0  0  0  0  0  0  0
    7.2070   -1.9590    1.5860 O   0  0  0  0  0  0  0  0  0  0  0  0
    5.5980   -1.5870   -0.1120 N   0  0  0  0  0  0  0  0  0  0  0  0
   -0.9070   -1.2230   -1.0720 C   0  0  0  0  0  0  0  0  0  0  0  0
   -2.2550   -1.1250   -0.6890 C   0  0  0  0  0  0  0  0  0  0  0  0
   -3.3750   -1.9360   -0.8760 C   0  0  0  0  0  0  0  0  0  0  0  0
   -3.3190   -3.2530   -1.5830 C   0  0  0  0  0  0  0  0  0  0  0  0
   -4.4160   -1.3070   -0.3330 N   0  0  0  0  0  0  0  0  0  0  0  0
   -4.0710   -0.1260    0.2110 C   0  0  0  0  0  0  0  0  0  0  0  0
   -5.0440    0.8060    0.8450 C   0  0  0  0  0  0  0  0  0  0  0  0
   -2.7210   -0.0200   -0.0090 C   0  0  0  0  0  0  0  0  0  0  0  0
   -1.8400    1.0080    0.3070 C   0  0  0  0  0  0  0  0  0  0  0  0
   -1.9760    2.1310    1.0640 N   0  0  0  0  0  0  0  0  0  0  0  0
  1  2  1  0
  2  3  2  0
  2 24  1  0
  3  4  1  0
  4  5  1  0
  4 23  2  0
  5  6  1  0
  5 15  2  0
  6  7  1  0
  7  8  1  0
  8  9  1  0
  9 10  2  0
  9 14  1  0
 10 11  1  0
 11 12  1  0
 12 13  2  0
 12 14  1  0
 15 16  1  0
 16 17  2  0
 16 22  1  0
 17 18  1  0
 17 19  1  0
 19 20  1  0
 20 21  1  0
 20 22  2  0
 22 23  1  0
 23 24  1  0
M  END
