
     RDKit          3D

 24 29  0  0  0  0  0  0  0  0999 V2000
   -0.2590   -0.8840   -1.0140 C   0  0  0  0  0  0  0  0  0  0  0  0
   -1.0310   -2.0550   -1.0670 C   0  0  0  0  0  0  0  0  0  0  0  0
   -2.2960   -2.0800   -0.5230 C   0  0  0  0  0  0  0  0  0  0  0  0
   -3.3700   -2.9150   -0.3320 N   0  0  0  0  0  0  0  0  0  0  0  0
   -4.3830   -2.2520    0.3320 C   0  0  0  0  0  0  0  0  0  0  0  0
   -5.5920   -2.0820    0.9180 N   0  0  0  0  0  0  0  0  0  0  0  0
   -5.7120   -0.7980    1.4000 N   0  0  0  0  0  0  0  0  0  0  0  0
   -4.6060   -0.0980    1.1500 C   0  0  0  0  0  0  0  0  0  0  0  0
   -3.9620    1.1310    1.2790 C   0  0  0  0  0  0  0  0  0  0  0  0
   -2.6500    1.3410    0.7760 C   0  0  0  0  0  0  0  0  0  0  0  0
   -1.9630    0.3040    0.1280 C   0  0  0  0  0  0  0  0  0  0  0  0
   -0.6990    0.3220   -0.4180 C   0  0  0  0  0  0  0  0  0  0  0  0
   -0.0360    1.5330   -0.4280 N   0  0  0  0  0  0  0  0  0  0  0  0
    1.3520    1.7580   -0.4660 C   0  0  0  0  0  0  0  0  0  0  0  0
    1.8360    2.9600   -0.8510 O   0  0  0  0  0  0  0  0  0  0  0  0
    3.1060    2.9950   -0.8230 N   0  0  0  0  0  0  0  0  0  0  0  0
    3.6010    1.8180   -0.4140 C   0  0  0  0  0  0  0  0  0  0  0  0
    2.4640    1.0180   -0.1790 C   0  0  0  0  0  0  0  0  0  0  0  0
    2.7600   -0.3240    0.3760 C   0  0  0  0  0  0  0  0  0  0  0  0
    3.9670   -0.8090   -0.3310 N   0  0  0  0  0  0  0  0  0  0  0  0
    5.0590   -0.0440    0.2270 C   0  0  0  0  0  0  0  0  0  0  0  0
    4.9870    1.3610   -0.2320 C   0  0  0  0  0  0  0  0  0  0  0  0
   -2.6390   -0.8780    0.0280 C   0  0  0  0  0  0  0  0  0  0  0  0
   -3.8540   -1.0250    0.5110 C   0  0  0  0  0  0  0  0  0  0  0  0
  1  2  2  0
  1 12  1  0
  2  3  1  0
  3  4  1  0
  3 23  2  0
  4  5  1  0
  5  6  2  0
  5 24  1  0
  6  7  1  0
  7  8  1  0
  8  9  1  0
  8 24  2  0
  9 10  2  0
 10 11  1  0
 11 12  2  0
 11 23  1  0
 12 13  1  0
 13 14  1  0
 14 15  1  0
 14 18  2  0
 15 16  1  0
 16 17  2  0
 17 18  1  0
 17 22  1  0
 18 19  1  0
 19 20  1  0
 20 21  1  0
 21 22  1  0
 23 24  1  0
M  END
