
     RDKit          3D

 24 28  0  0  0  0  0  0  0  0999 V2000
   -5.0020    2.3800   -0.0560 N   0  0  0  0  0  0  0  0  0  0  0  0
   -4.7000    1.0480   -0.4060 C   0  0  0  0  0  0  0  0  0  0  0  0
   -5.5930    0.1870   -0.9550 N   0  0  0  0  0  0  0  0  0  0  0  0
   -5.3040   -1.0710   -1.2840 N   0  0  0  0  0  0  0  0  0  0  0  0
   -4.0760   -1.5830   -1.0890 C   0  0  0  0  0  0  0  0  0  0  0  0
   -3.1700   -0.7240   -0.5380 C   0  0  0  0  0  0  0  0  0  0  0  0
   -1.9340   -1.3090   -0.3650 C   0  0  0  0  0  0  0  0  0  0  0  0
   -0.9260   -0.5510    0.1840 C   0  0  0  0  0  0  0  0  0  0  0  0
   -1.1420    0.7590    0.5520 C   0  0  0  0  0  0  0  0  0  0  0  0
   -2.3900    1.3190    0.3670 C   0  0  0  0  0  0  0  0  0  0  0  0
   -3.4310    0.5770   -0.1860 C   0  0  0  0  0  0  0  0  0  0  0  0
   -0.0720    1.5580    1.1320 C   0  0  0  0  0  0  0  0  0  0  0  0
    1.3210    1.0800    0.8250 C   0  0  0  0  0  0  0  0  0  0  0  0
    1.4590   -0.1890    0.2480 N   0  0  0  0  0  0  0  0  0  0  0  0
    2.7020   -0.8130    0.5910 C   0  0  0  0  0  0  0  0  0  0  0  0
    3.8950   -0.1450   -0.0440 C   0  0  0  0  0  0  0  0  0  0  0  0
    4.7110   -0.7700   -0.8980 C   0  0  0  0  0  0  0  0  0  0  0  0
    5.7560    0.1900   -1.3050 C   0  0  0  0  0  0  0  0  0  0  0  0
    5.4360    1.3680   -0.5940 N   0  0  0  0  0  0  0  0  0  0  0  0
    4.3880    1.1980    0.1220 C   0  0  0  0  0  0  0  0  0  0  0  0
    0.4000   -1.1270    0.3860 C   0  0  0  0  0  0  0  0  0  0  0  0
   -2.0460   -2.6930   -0.8540 C   0  0  0  0  0  0  0  0  0  0  0  0
   -1.1200   -3.5090   -0.8490 O   0  0  0  0  0  0  0  0  0  0  0  0
   -3.4100   -2.8310   -1.3040 N   0  0  0  0  0  0  0  0  0  0  0  0
  1  2  1  0
  2  3  2  0
  2 11  1  0
  3  4  1  0
  4  5  2  0
  5  6  1  0
  5 24  1  0
  6  7  2  0
  6 11  1  0
  7  8  1  0
  7 22  1  0
  8  9  2  0
  8 21  1  0
  9 10  1  0
  9 12  1  0
 10 11  2  0
 12 13  1  0
 13 14  1  0
 14 15  1  0
 14 21  1  0
 15 16  1  0
 16 17  2  0
 16 20  1  0
 17 18  1  0
 18 19  1  0
 19 20  2  0
 22 23  2  0
 22 24  1  0
M  END
