
     RDKit          3D

 32 33  0  0  0  0  0  0  0  0999 V2000
   -0.4180   -3.1570   -0.4610 C   0  0  0  0  0  0  0  0  0  0  0  0
   -0.1640   -1.6660   -0.5440 C   0  0  1  0  0  0  0  0  0  0  0  0
   -1.1610   -1.0080    0.1820 O   0  0  0  0  0  0  0  0  0  0  0  0
   -1.8620   -0.2020   -0.7150 C   0  0  0  0  0  0  0  0  0  0  0  0
   -2.9680    0.5880   -0.0490 C   0  0  2  0  0  0  0  0  0  0  0  0
   -2.3300    1.4430    0.9940 N   0  0  0  0  0  0  0  0  0  0  0  0
   -3.2220    2.2780    1.7210 C   0  0  0  0  0  0  0  0  0  0  0  0
   -2.8040    3.1450    2.7370 C   0  0  0  0  0  0  0  0  0  0  0  0
   -3.9240    3.7940    3.2180 C   0  0  0  0  0  0  0  0  0  0  0  0
   -4.9740    3.2930    2.4760 C   0  0  0  0  0  0  0  0  0  0  0  0
   -4.5050    2.4160    1.6210 O   0  0  0  0  0  0  0  0  0  0  0  0
   -4.0190   -0.2310    0.5640 C   0  0  0  0  0  0  0  0  0  0  0  0
   -4.0320   -0.3040    1.8630 O   0  0  0  0  0  0  0  0  0  0  0  0
   -5.0330   -0.9570   -0.0680 N   0  0  0  0  0  0  0  0  0  0  0  0
   -5.9420   -1.7650    0.7350 C   0  0  0  0  0  0  0  0  0  0  0  0
   -5.2720   -0.9170   -1.4800 C   0  0  0  0  0  0  0  0  0  0  0  0
   -6.5020    0.4680   -1.8670 P   0  0  0  0  0  0  0  0  0  0  0  0
   -8.1200   -0.1340   -1.8310 O   0  0  0  0  0  0  0  0  0  0  0  0
   -6.1330    1.2090   -3.3720 O   0  0  0  0  0  0  0  0  0  0  0  0
    1.1890   -1.3160   -0.0340 C   0  0  0  0  0  0  0  0  0  0  0  0
    1.5340   -1.3140    1.3010 C   0  0  0  0  0  0  0  0  0  0  0  0
    2.8070   -0.9690    1.7080 C   0  0  0  0  0  0  0  0  0  0  0  0
    3.8000   -0.6050    0.7870 C   0  0  0  0  0  0  0  0  0  0  0  0
    5.1360   -0.2460    1.2420 C   0  0  0  0  0  0  0  0  0  0  0  0
    5.5340   -0.4880    2.4170 O   0  0  0  0  0  0  0  0  0  0  0  0
    6.0550    0.4010    0.3710 N   0  0  0  0  0  0  0  0  0  0  0  0
    7.3980    0.7590    0.8380 C   0  0  0  0  0  0  0  0  0  0  0  0
    8.1520    1.4260   -0.2590 C   0  0  0  0  0  0  0  0  0  0  0  0
    8.2880    0.5070   -1.4460 C   0  0  0  0  0  0  0  0  0  0  0  0
    8.9790   -0.6530   -1.0460 O   0  0  0  0  0  0  0  0  0  0  0  0
    3.4520   -0.6090   -0.5290 C   0  0  0  0  0  0  0  0  0  0  0  0
    2.1760   -0.9570   -0.9240 C   0  0  0  0  0  0  0  0  0  0  0  0
  2  1  1  1
  2  3  1  0
  2 20  1  0
  3  4  1  0
  5  4  1  1
  5  6  1  0
  5 12  1  0
  6  7  1  0
  7  8  2  0
  7 11  1  0
  8  9  1  0
  9 10  2  0
 10 11  1  0
 12 13  2  0
 12 14  1  0
 14 15  1  0
 14 16  1  0
 16 17  1  0
 17 18  1  0
 17 19  1  0
 20 21  2  0
 20 32  1  0
 21 22  1  0
 22 23  2  0
 23 24  1  0
 23 31  1  0
 24 25  2  0
 24 26  1  0
 26 27  1  0
 27 28  1  0
 28 29  1  0
 29 30  1  0
 31 32  2  0
M  END
