
     RDKit          3D

 32 32  0  0  0  0  0  0  0  0999 V2000
    1.1960   -7.0670    1.3130 C   0  0  0  0  0  0  0  0  0  0  0  0
    1.2700   -5.7440    2.0070 C   0  0  0  0  0  0  0  0  0  0  0  0
    0.5970   -4.7050    1.2170 N   0  0  0  0  0  0  0  0  0  0  0  0
    0.5760   -3.4030    1.7300 C   0  0  0  0  0  0  0  0  0  0  0  0
    1.1190   -3.1540    2.8280 O   0  0  0  0  0  0  0  0  0  0  0  0
   -0.0910   -2.3130    0.9710 C   0  0  1  0  0  0  0  0  0  0  0  0
   -1.5540   -2.6790    0.8140 C   0  0  0  0  0  0  0  0  0  0  0  0
   -2.2290   -1.6100    0.0740 C   0  0  0  0  0  0  0  0  0  0  0  0
   -2.2110   -1.6560   -1.1790 O   0  0  0  0  0  0  0  0  0  0  0  0
   -2.8890   -0.5460    0.7520 N   0  0  0  0  0  0  0  0  0  0  0  0
   -2.9540   -0.4150    2.1750 C   0  0  0  0  0  0  0  0  0  0  0  0
   -3.5350    0.4690   -0.0540 C   0  0  0  0  0  0  0  0  0  0  0  0
   -2.3800    1.8660   -0.4540 P   0  0  0  0  0  0  0  0  0  0  0  0
   -2.7940    3.3300    0.3270 O   0  0  0  0  0  0  0  0  0  0  0  0
   -3.9370    3.1520    1.0910 C   0  0  0  0  0  0  0  0  0  0  0  0
   -4.3180    4.4540    1.7940 C   0  0  0  0  0  0  0  0  0  0  0  0
   -2.1420    2.0480   -2.1510 O   0  0  0  0  0  0  0  0  0  0  0  0
   -3.3180    2.3530   -2.8300 C   0  0  0  0  0  0  0  0  0  0  0  0
   -2.9990    2.4890   -4.2860 C   0  0  0  0  0  0  0  0  0  0  0  0
   -0.0110   -1.1060    1.6110 O   0  0  0  0  0  0  0  0  0  0  0  0
    1.2380   -0.5980    1.8280 C   0  0  0  0  0  0  0  0  0  0  0  0
    2.1310   -0.7250    0.6440 C   0  0  0  0  0  0  0  0  0  0  0  0
    3.4030   -0.3810    0.7160 C   0  0  0  0  0  0  0  0  0  0  0  0
    4.3530   -0.4730   -0.3950 C   0  0  0  0  0  0  0  0  0  0  0  0
    4.8860    0.9420   -0.6530 C   0  0  0  0  0  0  0  0  0  0  0  0
    3.6900    1.7970   -1.0010 C   0  0  0  0  0  0  0  0  0  0  0  0
    4.2230    3.1960   -1.2540 C   0  0  0  0  0  0  0  0  0  0  0  0
    3.0920    4.1400   -1.6140 C   0  0  0  0  0  0  0  0  0  0  0  0
    2.4730    3.6710   -2.7580 O   0  0  0  0  0  0  0  0  0  0  0  0
    1.5330   -1.2320   -0.5410 N   0  0  0  0  0  0  0  0  0  0  0  0
    0.4860   -2.1760   -0.3880 C   0  0  0  0  0  0  0  0  0  0  0  0
    0.1020   -2.8410   -1.3830 O   0  0  0  0  0  0  0  0  0  0  0  0
  1  2  1  0
  2  3  1  0
  3  4  1  0
  4  5  2  0
  4  6  1  0
  6  7  1  6
  6 20  1  0
  6 31  1  0
  7  8  1  0
  8  9  2  0
  8 10  1  0
 10 11  1  0
 10 12  1  0
 12 13  1  0
 13 14  1  0
 13 17  1  0
 14 15  1  0
 15 16  1  0
 17 18  1  0
 18 19  1  0
 20 21  1  0
 21 22  1  0
 22 23  2  3
 22 30  1  0
 23 24  1  0
 24 25  1  0
 25 26  1  0
 26 27  1  0
 27 28  1  0
 28 29  1  0
 30 31  1  0
 31 32  2  0
M  END
