
     RDKit          3D

 32 33  0  0  0  0  0  0  0  0999 V2000
    7.5600    3.9020   -1.1500 C   0  0  0  0  0  0  0  0  0  0  0  0
    6.6100    2.8400   -0.7480 C   0  0  0  0  0  0  0  0  0  0  0  0
    6.6220    1.7150   -1.5470 O   0  0  0  0  0  0  0  0  0  0  0  0
    5.5420    0.4930   -1.1010 P   0  0  0  0  0  0  0  0  0  0  0  0
    4.8380    0.6460    0.5810 C   0  0  0  0  0  0  0  0  0  0  0  0
    3.4110    0.6480    0.5950 N   0  0  0  0  0  0  0  0  0  0  0  0
    2.7110    1.9100    0.4820 C   0  0  0  0  0  0  0  0  0  0  0  0
    2.6690   -0.5550    0.7130 C   0  0  0  0  0  0  0  0  0  0  0  0
    3.2660   -1.6600    0.8050 O   0  0  0  0  0  0  0  0  0  0  0  0
    1.1860   -0.5240    0.7290 C   0  0  0  0  0  0  0  0  0  0  0  0
    0.6390   -1.8270    0.8620 O   0  0  0  0  0  0  0  0  0  0  0  0
   -0.7400   -1.9370    0.8950 C   0  0  0  0  0  0  0  0  0  0  0  0
   -1.3120   -3.1820    1.0220 C   0  0  0  0  0  0  0  0  0  0  0  0
   -2.7040   -3.3440    1.0600 C   0  0  0  0  0  0  0  0  0  0  0  0
   -3.5200   -2.2520    0.9710 C   0  0  0  0  0  0  0  0  0  0  0  0
   -2.9630   -1.0020    0.8430 C   0  0  0  0  0  0  0  0  0  0  0  0
   -1.6040   -0.8490    0.8060 C   0  0  0  0  0  0  0  0  0  0  0  0
   -3.8140    0.2280    0.7550 C   0  0  1  0  0  0  0  0  0  0  0  0
   -3.1180    1.3270    0.2010 N   0  0  0  0  0  0  0  0  0  0  0  0
   -3.5980    2.6250    0.4320 C   0  0  0  0  0  0  0  0  0  0  0  0
   -4.8550    3.0970   -0.1890 C   0  0  0  0  0  0  0  0  0  0  0  0
   -4.8530    3.0790   -1.5910 O   0  0  0  0  0  0  0  0  0  0  0  0
   -5.1570    0.0090    0.1780 C   0  0  0  0  0  0  0  0  0  0  0  0
   -5.4520   -1.4420   -0.1710 C   0  0  2  0  0  0  0  0  0  0  0  0
   -6.8510   -1.6140   -0.4430 N   0  0  0  0  0  0  0  0  0  0  0  0
   -7.2330   -1.9960   -1.7770 C   0  0  0  0  0  0  0  0  0  0  0  0
   -6.3310   -2.1660   -2.6560 O   0  0  0  0  0  0  0  0  0  0  0  0
   -8.5360   -2.1910   -2.1610 O   0  0  0  0  0  0  0  0  0  0  0  0
   -5.0170   -2.3030    0.9920 C   0  0  0  0  0  0  0  0  0  0  0  0
    5.9550   -1.0870   -1.5450 O   0  0  0  0  0  0  0  0  0  0  0  0
    6.7190   -1.7390   -0.6010 C   0  0  0  0  0  0  0  0  0  0  0  0
    7.0550   -3.1560   -1.0690 C   0  0  0  0  0  0  0  0  0  0  0  0
  1  2  1  0
  2  3  1  0
  3  4  1  0
  4  5  1  0
  4 30  1  0
  5  6  1  0
  6  7  1  0
  6  8  1  0
  8  9  2  0
  8 10  1  0
 10 11  1  0
 11 12  1  0
 12 13  2  0
 12 17  1  0
 13 14  1  0
 14 15  2  0
 15 16  1  0
 15 29  1  0
 16 17  2  0
 16 18  1  0
 18 19  1  6
 18 23  1  0
 19 20  1  0
 20 21  1  0
 21 22  1  0
 23 24  1  0
 24 25  1  1
 24 29  1  0
 25 26  1  0
 26 27  2  0
 26 28  1  0
 30 31  1  0
 31 32  1  0
M  END
