
     RDKit          3D

 31 31  0  0  0  0  0  0  0  0999 V2000
   -6.7010   -3.4380    0.9330 C   0  0  0  0  0  0  0  0  0  0  0  0
   -6.1690   -2.0380    0.7280 C   0  0  0  0  0  0  0  0  0  0  0  0
   -5.8450   -1.4150    1.9320 O   0  0  0  0  0  0  0  0  0  0  0  0
   -5.2550    0.1630    1.5650 P   0  0  0  0  0  0  0  0  0  0  0  0
   -3.4780    0.3710    2.0210 C   0  0  0  0  0  0  0  0  0  0  0  0
   -2.6880    0.5220    0.7340 C   0  0  0  0  0  0  0  0  0  0  0  0
   -1.2380    0.6920    1.0860 C   0  0  0  0  0  0  0  0  0  0  0  0
   -0.3910    0.8450   -0.0550 N   0  0  0  0  0  0  0  0  0  0  0  0
   -0.2640   -0.1410   -1.0880 C   0  0  0  0  0  0  0  0  0  0  0  0
   -0.9410   -1.1840   -0.9660 O   0  0  0  0  0  0  0  0  0  0  0  0
    0.6080    0.0320   -2.2530 C   0  0  2  0  0  0  0  0  0  0  0  0
    0.0320    1.1210   -3.1870 C   0  0  0  0  0  0  0  0  0  0  0  0
    0.6810   -1.2250   -3.0550 C   0  0  0  0  0  0  0  0  0  0  0  0
    1.2250   -2.4010   -2.3170 C   0  0  0  0  0  0  0  0  0  0  0  0
    1.2560   -3.5420   -3.1840 O   0  0  0  0  0  0  0  0  0  0  0  0
    1.9940    0.4340   -1.8730 C   0  0  0  0  0  0  0  0  0  0  0  0
    2.9580   -0.2160   -2.3170 O   0  0  0  0  0  0  0  0  0  0  0  0
    2.2970    1.5000   -1.0480 O   0  0  0  0  0  0  0  0  0  0  0  0
    3.5680    1.9090   -0.6700 C   0  0  0  0  0  0  0  0  0  0  0  0
    4.3280    0.8690    0.0660 C   0  0  0  0  0  0  0  0  0  0  0  0
    3.8830   -0.3650    0.4900 C   0  0  0  0  0  0  0  0  0  0  0  0
    4.8830   -1.0050    1.1180 N   0  0  0  0  0  0  0  0  0  0  0  0
    5.9980   -0.2490    1.1380 C   0  0  0  0  0  0  0  0  0  0  0  0
    7.2940   -0.5710    1.7170 C   0  0  0  0  0  0  0  0  0  0  0  0
    7.4840   -1.6640    2.2860 O   0  0  0  0  0  0  0  0  0  0  0  0
    8.3360    0.3770    1.6230 N   0  0  0  0  0  0  0  0  0  0  0  0
    9.6620    0.1600    2.1640 C   0  0  0  0  0  0  0  0  0  0  0  0
    5.6410    0.9290    0.4730 C   0  0  0  0  0  0  0  0  0  0  0  0
   -6.2580    1.4210    2.1510 O   0  0  0  0  0  0  0  0  0  0  0  0
   -6.6910    2.1770    1.0520 C   0  0  0  0  0  0  0  0  0  0  0  0
   -7.5830    3.3130    1.4540 C   0  0  0  0  0  0  0  0  0  0  0  0
  1  2  1  0
  2  3  1  0
  3  4  1  0
  4  5  1  0
  4 29  1  0
  5  6  1  0
  6  7  1  0
  7  8  1  0
  8  9  1  0
  9 10  2  0
  9 11  1  0
 11 12  1  6
 11 13  1  0
 11 16  1  0
 13 14  1  0
 14 15  1  0
 16 17  2  0
 16 18  1  0
 18 19  1  0
 19 20  1  0
 20 21  2  0
 20 28  1  0
 21 22  1  0
 22 23  1  0
 23 24  1  0
 23 28  2  0
 24 25  2  0
 24 26  1  0
 26 27  1  0
 29 30  1  0
 30 31  1  0
M  END
