
     RDKit          3D

 32 32  0  0  0  0  0  0  0  0999 V2000
   -9.8890   -0.5130   -0.7970 C   0  0  0  0  0  0  0  0  0  0  0  0
   -8.8250   -0.5870   -1.8410 C   0  0  0  0  0  0  0  0  0  0  0  0
   -7.7130   -1.3400   -1.1770 O   0  0  0  0  0  0  0  0  0  0  0  0
   -6.4540   -0.0620   -1.3840 P   0  0  0  0  0  0  0  0  0  0  0  0
   -4.7920   -0.4180   -1.0610 C   0  0  0  0  0  0  0  0  0  0  0  0
   -4.1450   -0.5490    0.2830 C   0  0  0  0  0  0  0  0  0  0  0  0
   -2.8450    0.1520    0.1530 N   0  0  0  0  0  0  0  0  0  0  0  0
   -3.1310    1.5990   -0.0020 C   0  0  0  0  0  0  0  0  0  0  0  0
   -2.0310    0.0410    1.3360 C   0  0  0  0  0  0  0  0  0  0  0  0
   -1.3870   -1.2960    1.3400 C   0  0  0  0  0  0  0  0  0  0  0  0
   -0.6760   -1.3470    0.0100 N   0  0  0  0  0  0  0  0  0  0  0  0
    0.1900   -0.3750   -0.2420 C   0  0  0  0  0  0  0  0  0  0  0  0
    0.4360    0.6150    0.5620 O   0  0  0  0  0  0  0  0  0  0  0  0
    1.1340   -0.2170   -1.4910 C   0  0  0  0  0  0  0  0  0  0  0  0
    2.3000   -0.1030   -0.6800 N   0  0  0  0  0  0  0  0  0  0  0  0
    3.6070    0.1970   -0.6240 C   0  0  0  0  0  0  0  0  0  0  0  0
    4.2080    0.5800   -1.5790 O   0  0  0  0  0  0  0  0  0  0  0  0
    4.2730    0.0200    0.6630 O   0  0  0  0  0  0  0  0  0  0  0  0
    5.6070    0.2780    0.6580 C   0  0  0  0  0  0  0  0  0  0  0  0
    6.3650   -0.8340    0.2190 C   0  0  0  0  0  0  0  0  0  0  0  0
    7.7190   -0.7800    0.1670 C   0  0  0  0  0  0  0  0  0  0  0  0
    8.3190    0.4410    0.5740 C   0  0  0  0  0  0  0  0  0  0  0  0
    9.8180    0.3530    0.4610 C   0  0  1  0  0  0  0  0  0  0  0  0
   10.2370   -0.9000    1.1560 C   0  0  0  0  0  0  0  0  0  0  0  0
   10.0590    0.1820   -1.0240 C   0  0  0  0  0  0  0  0  0  0  0  0
   11.0670    0.6690   -1.5400 O   0  0  0  0  0  0  0  0  0  0  0  0
    9.1890   -0.5200   -1.8450 O   0  0  0  0  0  0  0  0  0  0  0  0
    7.6000    1.5170    0.9790 C   0  0  0  0  0  0  0  0  0  0  0  0
    6.2120    1.4470    1.0330 C   0  0  0  0  0  0  0  0  0  0  0  0
   -7.2790    1.2210   -0.6520 O   0  0  0  0  0  0  0  0  0  0  0  0
   -6.7780    2.2040    0.0450 C   0  0  0  0  0  0  0  0  0  0  0  0
   -7.3010    1.9490    1.5140 C   0  0  0  0  0  0  0  0  0  0  0  0
  1  2  1  0
  2  3  1  0
  3  4  1  0
  4  5  1  0
  4 30  1  0
  5  6  1  0
  6  7  1  0
  7  8  1  0
  7  9  1  0
  9 10  1  0
 10 11  1  0
 11 12  1  0
 12 13  2  0
 12 14  1  0
 14 15  1  0
 15 16  1  0
 16 17  2  0
 16 18  1  0
 18 19  1  0
 19 20  2  0
 19 29  1  0
 20 21  1  0
 21 22  2  0
 22 23  1  0
 22 28  1  0
 23 24  1  1
 23 25  1  0
 25 26  2  0
 25 27  1  0
 28 29  2  0
 30 31  1  0
 31 32  1  0
M  END
