
     RDKit          3D

 32 33  0  0  0  0  0  0  0  0999 V2000
   -5.1200   -4.1900   -0.1000 C   0  0  0  0  0  0  0  0  0  0  0  0
   -3.7710   -3.8750   -0.6590 C   0  0  0  0  0  0  0  0  0  0  0  0
   -3.0170   -3.0490    0.1540 O   0  0  0  0  0  0  0  0  0  0  0  0
   -1.7690   -2.7750   -0.3940 C   0  0  2  0  0  0  0  0  0  0  0  0
   -0.6290   -3.3330    0.4270 C   0  0  0  0  0  0  0  0  0  0  0  0
    0.2570   -2.2210    0.9490 C   0  0  0  0  0  0  0  0  0  0  0  0
   -0.5970   -1.2570    1.4650 O   0  0  0  0  0  0  0  0  0  0  0  0
   -1.0620   -0.4790    0.4270 C   0  0  1  0  0  0  0  0  0  0  0  0
   -2.2470    0.3230    0.9660 C   0  0  0  0  0  0  0  0  0  0  0  0
   -2.8300    1.2290   -0.0350 C   0  0  0  0  0  0  0  0  0  0  0  0
   -2.3350    1.2870   -1.1810 O   0  0  0  0  0  0  0  0  0  0  0  0
   -3.9360    2.0300    0.2840 N   0  0  0  0  0  0  0  0  0  0  0  0
   -4.5140    1.9650    1.6060 C   0  0  0  0  0  0  0  0  0  0  0  0
   -4.5410    2.9550   -0.6770 C   0  0  0  0  0  0  0  0  0  0  0  0
   -3.6990    4.6100   -0.5230 P   0  0  0  0  0  0  0  0  0  0  0  0
   -2.2340    4.4520    0.3970 O   0  0  0  0  0  0  0  0  0  0  0  0
   -4.7290    5.7690    0.2380 O   0  0  0  0  0  0  0  0  0  0  0  0
   -0.0390    0.3710   -0.0710 N   0  0  0  0  0  0  0  0  0  0  0  0
    0.5740    1.2720    0.8320 C   0  0  0  0  0  0  0  0  0  0  0  0
    1.4640    0.7200    1.8750 C   0  0  0  0  0  0  0  0  0  0  0  0
    2.5920   -0.0400    1.5140 N   0  0  0  0  0  0  0  0  0  0  0  0
    3.6670    0.2410    0.6450 C   0  0  0  0  0  0  0  0  0  0  0  0
    3.5100    0.8400   -0.5710 C   0  0  0  0  0  0  0  0  0  0  0  0
    4.6460    1.1170   -1.3460 C   0  0  0  0  0  0  0  0  0  0  0  0
    5.9050    0.8030   -0.9190 C   0  0  0  0  0  0  0  0  0  0  0  0
    7.0670    1.1120   -1.7630 C   0  0  0  0  0  0  0  0  0  0  0  0
    7.3300   -0.0260   -2.6600 C   0  0  0  0  0  0  0  0  0  0  0  0
    6.6090   -1.0500   -2.6160 O   0  0  0  0  0  0  0  0  0  0  0  0
    8.3760    0.0050   -3.5700 O   0  0  0  0  0  0  0  0  0  0  0  0
    6.0250    0.2000    0.3070 C   0  0  0  0  0  0  0  0  0  0  0  0
    4.9550   -0.0830    1.0860 C   0  0  0  0  0  0  0  0  0  0  0  0
   -1.5940   -1.3200   -0.7120 C   0  0  0  0  0  0  0  0  0  0  0  0
  1  2  1  0
  2  3  1  0
  4  3  1  1
  4  5  1  0
  4 32  1  0
  5  6  1  0
  6  7  1  0
  7  8  1  0
  8  9  1  1
  8 18  1  0
  8 32  1  0
  9 10  1  0
 10 11  2  0
 10 12  1  0
 12 13  1  0
 12 14  1  0
 14 15  1  0
 15 16  1  0
 15 17  1  0
 18 19  1  0
 19 20  1  0
 20 21  1  0
 21 22  1  0
 22 23  2  0
 22 31  1  0
 23 24  1  0
 24 25  2  0
 25 26  1  0
 25 30  1  0
 26 27  1  0
 27 28  2  0
 27 29  1  0
 30 31  2  0
M  END
