
     RDKit          3D

 19 19  0  0  0  0  0  0  0  0999 V2000
    1.3720   -2.5470   -1.0530 C   0  0  0  0  0  0  0  0  0  0  0  0
    1.4610   -0.9330   -0.8650 C   0  0  2  0  0  0  0  0  0  0  0  0
    2.0460   -0.5820   -2.2150 C   0  0  0  0  0  0  0  0  0  0  0  0
    2.4420   -0.8960    0.2330 C   0  0  0  0  0  0  0  0  0  0  0  0
    2.9470    0.3460    0.8170 C   0  0  0  0  0  0  0  0  0  0  0  0
    4.0140   -0.0370    1.9020 C   0  0  0  0  0  0  0  0  0  0  0  0
    4.5050    1.1370    2.4680 O   0  0  0  0  0  0  0  0  0  0  0  0
    0.0490   -0.6620   -0.6990 C   0  0  0  0  0  0  0  0  0  0  0  0
   -0.6270    0.6090   -0.5420 C   0  0  2  0  0  0  0  0  0  0  0  0
   -0.4470    1.5020   -1.6080 O   0  0  0  0  0  0  0  0  0  0  0  0
   -0.4100    1.3920    0.7070 C   0  0  0  0  0  0  0  0  0  0  0  0
   -0.5830    0.5340    1.9540 C   0  0  0  0  0  0  0  0  0  0  0  0
   -1.8790   -0.1950    1.9210 C   0  0  0  0  0  0  0  0  0  0  0  0
   -2.7480    0.2810    0.8190 C   0  0  1  0  0  0  0  0  0  0  0  0
   -3.3970    1.4570    1.2500 O   0  0  0  0  0  0  0  0  0  0  0  0
   -2.1750    0.3910   -0.5380 C   0  0  2  0  0  0  0  0  0  0  0  0
   -2.5470   -0.8220   -1.3460 C   0  0  0  0  0  0  0  0  0  0  0  0
   -2.8600    1.5730   -1.2290 C   0  0  0  0  0  0  0  0  0  0  0  0
   -4.2390    1.3750   -1.2240 O   0  0  0  0  0  0  0  0  0  0  0  0
  2  1  1  6
  2  3  1  0
  2  4  1  0
  2  8  1  0
  4  5  1  0
  5  6  1  0
  6  7  1  0
  8  9  1  0
  9 10  1  6
  9 11  1  0
  9 16  1  0
 11 12  1  0
 12 13  1  0
 13 14  1  0
 14 15  1  1
 14 16  1  0
 16 17  1  6
 16 18  1  0
 18 19  1  0
M  END
