
     RDKit          3D

 19 19  0  0  0  0  0  0  0  0999 V2000
    4.7630   -0.5570    0.9060 C   0  0  0  0  0  0  0  0  0  0  0  0
    3.5060   -1.2500    0.4270 C   0  0  0  0  0  0  0  0  0  0  0  0
    2.6930   -0.3220   -0.4400 C   0  0  1  0  0  0  0  0  0  0  0  0
    1.4270   -0.9680   -0.9450 C   0  0  0  0  0  0  0  0  0  0  0  0
    1.0930   -2.2330   -0.2860 C   0  0  0  0  0  0  0  0  0  0  0  0
    0.0760   -2.4420    0.5360 C   0  0  0  0  0  0  0  0  0  0  0  0
   -0.8330   -1.4750    0.8960 O   0  0  0  0  0  0  0  0  0  0  0  0
   -1.9270   -0.9830    0.1860 C   0  0  1  0  0  0  0  0  0  0  0  0
   -1.8650   -1.2180   -1.1930 O   0  0  0  0  0  0  0  0  0  0  0  0
   -3.1660   -1.7650    0.6530 C   0  0  0  0  0  0  0  0  0  0  0  0
   -3.0270   -3.2300    0.3960 C   0  0  0  0  0  0  0  0  0  0  0  0
   -2.1930    0.4880    0.4780 C   0  0  0  0  0  0  0  0  0  0  0  0
   -1.7990    1.3210   -0.6910 C   0  0  0  0  0  0  0  0  0  0  0  0
   -0.7530    2.3530   -0.4390 C   0  0  1  0  0  0  0  0  0  0  0  0
   -1.3310    3.6650    0.0500 C   0  0  0  0  0  0  0  0  0  0  0  0
   -2.2170    4.2210   -0.8710 O   0  0  0  0  0  0  0  0  0  0  0  0
    0.3830    1.9320    0.4290 C   0  0  0  0  0  0  0  0  0  0  0  0
    1.6900    1.7770   -0.3610 C   0  0  0  0  0  0  0  0  0  0  0  0
    2.4330    0.8280    0.2990 O   0  0  0  0  0  0  0  0  0  0  0  0
  1  2  1  0
  3  2  1  1
  3  4  1  0
  3 19  1  0
  4  5  1  0
  5  6  2  0
  6  7  1  0
  7  8  1  0
  8  9  1  6
  8 10  1  0
  8 12  1  0
 10 11  1  0
 12 13  1  0
 13 14  1  0
 14 15  1  1
 14 17  1  0
 15 16  1  0
 17 18  1  0
 18 19  1  0
M  END
