
     RDKit          3D

 19 19  0  0  0  0  0  0  0  0999 V2000
   -6.0370    0.0380   -0.5420 C   0  0  0  0  0  0  0  0  0  0  0  0
   -4.9730   -0.0760    0.5280 C   0  0  0  0  0  0  0  0  0  0  0  0
   -3.7380    0.1040   -0.0880 O   0  0  0  0  0  0  0  0  0  0  0  0
   -2.6850    0.0170    0.8230 C   0  0  0  0  0  0  0  0  0  0  0  0
   -1.4180    0.2350   -0.0040 C   0  0  2  0  0  0  0  0  0  0  0  0
   -1.5300    1.5940   -0.6210 C   0  0  0  0  0  0  0  0  0  0  0  0
   -1.5100   -0.7800   -1.1390 C   0  0  0  0  0  0  0  0  0  0  0  0
   -0.1810    0.0540    0.8060 C   0  0  1  0  0  0  0  0  0  0  0  0
   -0.1590    1.0260    1.9410 C   0  0  0  0  0  0  0  0  0  0  0  0
   -0.2390   -1.2340    1.4020 O   0  0  0  0  0  0  0  0  0  0  0  0
    1.0520    0.0980   -0.0580 C   0  0  1  0  0  0  0  0  0  0  0  0
    1.2390    1.2960   -0.6910 O   0  0  0  0  0  0  0  0  0  0  0  0
    2.2720   -0.2460    0.7420 C   0  0  0  0  0  0  0  0  0  0  0  0
    3.5110   -0.2190   -0.0740 C   0  0  0  0  0  0  0  0  0  0  0  0
    3.6050    0.0620   -1.3600 C   0  0  0  0  0  0  0  0  0  0  0  0
    5.0450   -0.0300   -1.7650 C   0  0  0  0  0  0  0  0  0  0  0  0
    5.7160   -0.4030   -0.5110 C   0  0  0  0  0  0  0  0  0  0  0  0
    7.0950   -0.6080   -0.3860 O   0  0  0  0  0  0  0  0  0  0  0  0
    4.8460   -0.5110    0.4530 C   0  0  0  0  0  0  0  0  0  0  0  0
  1  2  1  0
  2  3  1  0
  3  4  1  0
  4  5  1  0
  5  6  1  6
  5  7  1  0
  5  8  1  0
  8  9  1  1
  8 10  1  0
  8 11  1  0
 11 12  1  1
 11 13  1  0
 13 14  1  0
 14 15  2  0
 14 19  1  0
 15 16  1  0
 16 17  1  0
 17 18  1  0
 17 19  2  0
M  END
