
     RDKit          3D

 19 19  0  0  0  0  0  0  0  0999 V2000
   -2.7150    1.9850    0.9780 C   0  0  0  0  0  0  0  0  0  0  0  0
   -2.4200    0.5340    0.8780 C   0  0  0  0  0  0  0  0  0  0  0  0
   -1.6280   -0.0060   -0.2770 C   0  0  2  0  0  0  0  0  0  0  0  0
   -2.3970    0.3960   -1.4240 O   0  0  0  0  0  0  0  0  0  0  0  0
   -1.8750   -1.4790   -0.2010 C   0  0  1  0  0  0  0  0  0  0  0  0
   -1.2780   -2.4030   -1.1790 C   0  0  0  0  0  0  0  0  0  0  0  0
   -1.9380   -2.0810    1.1850 C   0  0  0  0  0  0  0  0  0  0  0  0
   -0.2700    0.5380   -0.5210 C   0  0  2  0  0  0  0  0  0  0  0  0
   -0.4640    2.0420   -0.8100 C   0  0  0  0  0  0  0  0  0  0  0  0
    0.3150    0.0100   -1.8080 C   0  0  0  0  0  0  0  0  0  0  0  0
    1.4100    0.8420   -2.4360 C   0  0  0  0  0  0  0  0  0  0  0  0
    2.4650    1.2370   -1.4580 C   0  0  0  0  0  0  0  0  0  0  0  0
    2.6730    0.0760   -0.7280 O   0  0  0  0  0  0  0  0  0  0  0  0
    2.0560   -0.0090    0.4610 C   0  0  2  0  0  0  0  0  0  0  0  0
    2.9780    0.7190    1.4660 C   0  0  0  0  0  0  0  0  0  0  0  0
    2.3780    0.6580    2.7230 O   0  0  0  0  0  0  0  0  0  0  0  0
    2.2280   -1.4880    0.8820 C   0  0  0  0  0  0  0  0  0  0  0  0
    1.6400   -1.7060    2.1010 O   0  0  0  0  0  0  0  0  0  0  0  0
    0.6770    0.4610    0.6320 C   0  0  0  0  0  0  0  0  0  0  0  0
  1  2  1  0
  2  3  1  0
  3  4  1  6
  3  5  1  0
  3  8  1  0
  5  6  1  6
  5  7  1  0
  8  9  1  6
  8 10  1  0
  8 19  1  0
 10 11  1  0
 11 12  1  0
 12 13  1  0
 13 14  1  0
 14 15  1  1
 14 17  1  0
 14 19  1  0
 15 16  1  0
 17 18  1  0
M  END
