
     RDKit          3D

 19 19  0  0  0  0  0  0  0  0999 V2000
    3.2970   -2.0160    1.1080 C   0  0  0  0  0  0  0  0  0  0  0  0
    2.9740   -0.5900    0.6290 C   0  0  1  0  0  0  0  0  0  0  0  0
    3.3880    0.3630    1.6880 C   0  0  0  0  0  0  0  0  0  0  0  0
    3.7910   -0.4090   -0.6520 C   0  0  0  0  0  0  0  0  0  0  0  0
    1.5270   -0.6120    0.2790 C   0  0  0  0  0  0  0  0  0  0  0  0
    0.9650    0.6920   -0.2300 C   0  0  2  0  0  0  0  0  0  0  0  0
    1.0850    1.7100    0.6860 O   0  0  0  0  0  0  0  0  0  0  0  0
   -0.4570    0.4600   -0.7150 C   0  0  2  0  0  0  0  0  0  0  0  0
   -0.8340    1.6330   -1.5850 C   0  0  0  0  0  0  0  0  0  0  0  0
   -0.7990    2.9730   -0.9290 C   0  0  0  0  0  0  0  0  0  0  0  0
   -1.2010    3.9800   -1.8600 O   0  0  0  0  0  0  0  0  0  0  0  0
   -1.4030    0.3720    0.4020 C   0  0  0  0  0  0  0  0  0  0  0  0
   -2.4070   -0.7270    0.3960 C   0  0  1  0  0  0  0  0  0  0  0  0
   -2.8310   -0.9830    1.8500 C   0  0  0  0  0  0  0  0  0  0  0  0
   -3.6720   -0.3730   -0.3470 C   0  0  0  0  0  0  0  0  0  0  0  0
   -4.3050    0.7330    0.2140 O   0  0  0  0  0  0  0  0  0  0  0  0
   -1.7580   -1.9690   -0.0970 C   0  0  0  0  0  0  0  0  0  0  0  0
   -1.1500   -1.6850   -1.4280 C   0  0  0  0  0  0  0  0  0  0  0  0
   -0.3780   -0.6090   -1.5720 O   0  0  0  0  0  0  0  0  0  0  0  0
  2  1  1  1
  2  3  1  0
  2  4  1  0
  2  5  1  0
  5  6  1  0
  6  7  1  1
  6  8  1  0
  8  9  1  6
  8 12  1  0
  8 19  1  0
  9 10  1  0
 10 11  1  0
 12 13  1  0
 13 14  1  1
 13 15  1  0
 13 17  1  0
 15 16  1  0
 17 18  1  0
 18 19  1  0
M  END
