
     RDKit          3D

 19 19  0  0  0  0  0  0  0  0999 V2000
    4.1840    1.3020   -0.7510 C   0  0  0  0  0  0  0  0  0  0  0  0
    3.3650    0.6710    0.3370 C   0  0  2  0  0  0  0  0  0  0  0  0
    3.8460    1.1690    1.6780 C   0  0  0  0  0  0  0  0  0  0  0  0
    3.6200   -0.8380    0.2810 C   0  0  0  0  0  0  0  0  0  0  0  0
    3.2700   -1.2790   -1.1080 C   0  0  1  0  0  0  0  0  0  0  0  0
    3.6550   -2.6020   -1.3530 O   0  0  0  0  0  0  0  0  0  0  0  0
    1.8090   -1.1120   -1.3530 C   0  0  0  0  0  0  0  0  0  0  0  0
    1.1250   -0.2660   -0.3080 C   0  0  2  0  0  0  0  0  0  0  0  0
   -0.1540    0.0760   -0.6330 O   0  0  0  0  0  0  0  0  0  0  0  0
   -1.1280   -0.4350    0.2150 C   0  0  0  0  0  0  0  0  0  0  0  0
   -2.4660    0.0170   -0.2570 C   0  0  2  0  0  0  0  0  0  0  0  0
   -2.6520   -0.4660   -1.5680 O   0  0  0  0  0  0  0  0  0  0  0  0
   -2.5490    1.5440   -0.3380 C   0  0  0  0  0  0  0  0  0  0  0  0
   -1.5560    2.0370   -1.1880 O   0  0  0  0  0  0  0  0  0  0  0  0
   -3.6210   -0.4450    0.5540 C   0  0  2  0  0  0  0  0  0  0  0  0
   -3.4970    0.0470    1.9750 C   0  0  0  0  0  0  0  0  0  0  0  0
   -3.8160   -1.9340    0.5640 C   0  0  0  0  0  0  0  0  0  0  0  0
   -4.8830    0.1660   -0.0490 C   0  0  0  0  0  0  0  0  0  0  0  0
    1.9170    0.9580    0.0780 C   0  0  0  0  0  0  0  0  0  0  0  0
  2  1  1  6
  2  3  1  0
  2  4  1  0
  2 19  1  0
  4  5  1  0
  5  6  1  1
  5  7  1  0
  7  8  1  0
  8  9  1  6
  8 19  1  0
  9 10  1  0
 10 11  1  0
 11 12  1  6
 11 13  1  0
 11 15  1  0
 13 14  1  0
 15 16  1  1
 15 17  1  0
 15 18  1  0
M  END
