
     RDKit          3D

 19 19  0  0  0  0  0  0  0  0999 V2000
   -4.4630    1.0840   -0.3520 C   0  0  0  0  0  0  0  0  0  0  0  0
   -3.3270    0.2910    0.2390 C   0  0  0  0  0  0  0  0  0  0  0  0
   -3.2320    0.0880    1.5450 C   0  0  0  0  0  0  0  0  0  0  0  0
   -2.0840   -0.7050    2.0570 C   0  0  1  0  0  0  0  0  0  0  0  0
   -2.3250   -2.0740    1.9840 O   0  0  0  0  0  0  0  0  0  0  0  0
   -0.8060   -0.3000    1.4050 C   0  0  0  0  0  0  0  0  0  0  0  0
   -0.9270    0.0680   -0.0450 C   0  0  1  0  0  0  0  0  0  0  0  0
   -0.7740    1.5700   -0.1360 C   0  0  0  0  0  0  0  0  0  0  0  0
   -1.7580    2.2260    0.6010 O   0  0  0  0  0  0  0  0  0  0  0  0
    0.1790   -0.6530   -0.7850 C   0  0  0  0  0  0  0  0  0  0  0  0
    1.5310   -0.2500   -0.2740 C   0  0  0  0  0  0  0  0  0  0  0  0
    2.5680   -0.9170   -0.9530 O   0  0  0  0  0  0  0  0  0  0  0  0
    3.7520   -0.4440   -0.3730 C   0  0  2  0  0  0  0  0  0  0  0  0
    4.9660   -1.1050   -1.0360 C   0  0  0  0  0  0  0  0  0  0  0  0
    3.8390   -0.7650    1.0960 C   0  0  0  0  0  0  0  0  0  0  0  0
    3.9020    1.0460   -0.5790 C   0  0  0  0  0  0  0  0  0  0  0  0
   -2.2670   -0.2960   -0.6270 C   0  0  2  0  0  0  0  0  0  0  0  0
   -2.4670    0.2110   -2.0170 C   0  0  0  0  0  0  0  0  0  0  0  0
   -2.4250   -1.7010   -0.6830 O   0  0  0  0  0  0  0  0  0  0  0  0
  1  2  1  0
  2  3  2  0
  2 17  1  0
  3  4  1  0
  4  5  1  6
  4  6  1  0
  6  7  1  0
  7  8  1  1
  7 10  1  0
  7 17  1  0
  8  9  1  0
 10 11  1  0
 11 12  1  0
 12 13  1  0
 13 14  1  6
 13 15  1  0
 13 16  1  0
 17 18  1  6
 17 19  1  0
M  END
