
     RDKit          3D

 37 39  0  0  0  0  0  0  0  0999 V2000
   -3.0430   -5.0680    1.0070 C   0  0  0  0  0  0  0  0  0  0  0  0
   -4.1440   -4.6770    0.0480 C   0  0  0  0  0  0  0  0  0  0  0  0
   -5.2200   -3.8580    0.7470 C   0  0  0  0  0  0  0  0  0  0  0  0
   -4.7610   -2.6010    1.3290 C   0  0  0  0  0  0  0  0  0  0  0  0
   -4.1870   -1.6370    0.3340 N   0  0  0  0  0  0  0  0  0  0  0  0
   -2.7580   -1.7040    0.0880 C   0  0  0  0  0  0  0  0  0  0  0  0
   -1.9900   -1.7780   -0.9470 C   0  0  0  0  0  0  0  0  0  0  0  0
   -0.5460   -1.8490   -1.2040 C   0  0  0  0  0  0  0  0  0  0  0  0
    0.4420   -1.0240   -0.8860 C   0  0  0  0  0  0  0  0  0  0  0  0
    1.8250   -1.2810   -1.2310 C   0  0  0  0  0  0  0  0  0  0  0  0
    2.9400   -0.7050   -1.0510 C   0  0  0  0  0  0  0  0  0  0  0  0
    3.4780    0.4590   -0.4410 C   0  0  0  0  0  0  0  0  0  0  0  0
    2.8260    1.3030    0.1650 O   0  0  0  0  0  0  0  0  0  0  0  0
    4.9690    0.7320   -0.5100 C   0  0  2  0  0  0  0  0  0  0  0  0
    5.4000    0.8550   -1.9550 C   0  0  0  0  0  0  0  0  0  0  0  0
    6.8810    1.0680   -2.0750 C   0  0  0  0  0  0  0  0  0  0  0  0
    7.5730   -0.1020   -1.4470 C   0  0  0  0  0  0  0  0  0  0  0  0
    6.6960   -1.0190   -0.7720 N   0  0  0  0  0  0  0  0  0  0  0  0
    5.7540   -0.3820    0.1260 C   0  0  1  0  0  0  0  0  0  0  0  0
    6.5040    0.1200    1.2990 C   0  0  0  0  0  0  0  0  0  0  0  0
    5.8020    0.7910    2.3280 N   0  0  0  0  0  0  0  0  0  0  0  0
    7.7400   -0.0300    1.4110 O   0  0  0  0  0  0  0  0  0  0  0  0
    0.1390    0.2780   -0.1850 C   0  0  0  0  0  0  0  0  0  0  0  0
   -1.2420    0.5230   -0.0920 O   0  0  0  0  0  0  0  0  0  0  0  0
   -1.5890    1.7010   -0.7440 C   0  0  0  0  0  0  0  0  0  0  0  0
   -1.6890    2.8820    0.1090 C   0  0  0  0  0  0  0  0  0  0  0  0
   -0.6890    3.1840    1.0030 C   0  0  0  0  0  0  0  0  0  0  0  0
   -0.7350    4.2910    1.8280 C   0  0  0  0  0  0  0  0  0  0  0  0
   -1.7990    5.1290    1.7740 C   0  0  0  0  0  0  0  0  0  0  0  0
   -2.8220    4.8630    0.8930 C   0  0  0  0  0  0  0  0  0  0  0  0
   -2.7590    3.7500    0.0740 C   0  0  0  0  0  0  0  0  0  0  0  0
   -4.1700    3.5280   -1.0190 S   0  0  0  0  0  0  0  0  0  0  0  0
   -5.5370    2.9140    0.0020 C   0  0  0  0  0  0  0  0  0  0  0  0
   -5.0190    1.5980    0.6210 C   0  0  0  0  0  0  0  0  0  0  0  0
   -5.0200    0.6150   -0.3860 O   0  0  0  0  0  0  0  0  0  0  0  0
   -5.1420   -0.7630   -0.2350 C   0  0  0  0  0  0  0  0  0  0  0  0
   -6.2170   -1.3830   -0.6390 O   0  0  0  0  0  0  0  0  0  0  0  0
  1  2  1  0
  2  3  1  0
  3  4  1  0
  4  5  1  0
  5  6  1  0
  5 36  1  0
  6  7  2  0
  7  8  1  0
  8  9  2  0
  9 10  1  0
  9 23  1  0
 10 11  2  3
 11 12  1  0
 12 13  2  0
 14 12  1  6
 14 15  1  0
 14 19  1  0
 15 16  1  0
 16 17  1  0
 17 18  1  0
 18 19  1  0
 19 20  1  1
 20 21  1  0
 20 22  2  0
 23 24  1  0
 24 25  1  0
 25 26  1  0
 26 27  2  0
 26 31  1  0
 27 28  1  0
 28 29  2  0
 29 30  1  0
 30 31  2  0
 31 32  1  0
 32 33  1  0
 33 34  1  0
 34 35  1  0
 35 36  1  0
 36 37  2  0
M  END
