
     RDKit          3D

 37 40  0  0  0  0  0  0  0  0999 V2000
    8.8080    1.3930   -3.3520 C   0  0  0  0  0  0  0  0  0  0  0  0
    9.5780   -0.0860   -2.6030 S   0  0  0  0  0  0  0  0  0  0  0  0
    8.9100   -0.2550   -0.9440 C   0  0  2  0  0  0  0  0  0  0  0  0
    9.4760   -1.4380   -0.1840 C   0  0  0  0  0  0  0  0  0  0  0  0
    9.0470   -1.2350    1.2610 C   0  0  0  0  0  0  0  0  0  0  0  0
    7.5830   -1.0360    1.4370 C   0  0  0  0  0  0  0  0  0  0  0  0
    6.9300   -0.1390    0.4460 C   0  0  2  0  0  0  0  0  0  0  0  0
    5.4400   -0.3270    0.4910 C   0  0  0  0  0  0  0  0  0  0  0  0
    4.9930   -1.1390    1.3130 O   0  0  0  0  0  0  0  0  0  0  0  0
    4.6410    0.4230   -0.3970 N   0  0  0  0  0  0  0  0  0  0  0  0
    3.2410    0.3190   -0.4170 C   0  0  0  0  0  0  0  0  0  0  0  0
    2.5740    0.8300   -1.5460 C   0  0  0  0  0  0  0  0  0  0  0  0
    1.2230    0.8110   -1.6850 C   0  0  0  0  0  0  0  0  0  0  0  0
    0.4440    0.2660   -0.6800 C   0  0  0  0  0  0  0  0  0  0  0  0
    1.0800   -0.2360    0.4260 C   0  0  0  0  0  0  0  0  0  0  0  0
    2.4760   -0.2170    0.5730 C   0  0  0  0  0  0  0  0  0  0  0  0
    0.3060   -0.8140    1.5100 C   0  0  0  0  0  0  0  0  0  0  0  0
    0.8560   -1.2820    2.5380 O   0  0  0  0  0  0  0  0  0  0  0  0
   -1.0620   -0.8350    1.3810 O   0  0  0  0  0  0  0  0  0  0  0  0
   -1.6930   -0.6620    0.1280 C   0  0  1  0  0  0  0  0  0  0  0  0
   -3.0700   -0.1540    0.2710 C   0  0  0  0  0  0  0  0  0  0  0  0
   -3.4310    0.8930   -0.3490 O   0  0  0  0  0  0  0  0  0  0  0  0
   -4.0370   -0.7970    1.0900 N   0  0  0  0  0  0  0  0  0  0  0  0
   -5.3420   -0.2180    1.1560 C   0  0  0  0  0  0  0  0  0  0  0  0
   -5.6780    0.7180    2.0780 C   0  0  0  0  0  0  0  0  0  0  0  0
   -4.6450    1.1480    3.0550 C   0  0  0  0  0  0  0  0  0  0  0  0
   -6.9260    1.2520    2.1100 C   0  0  0  0  0  0  0  0  0  0  0  0
   -7.8820    0.8390    1.1870 C   0  0  0  0  0  0  0  0  0  0  0  0
   -9.2390    1.4360    1.2380 C   0  0  0  0  0  0  0  0  0  0  0  0
   -7.5720   -0.1080    0.2390 C   0  0  0  0  0  0  0  0  0  0  0  0
   -8.5890   -0.5280   -0.7320 C   0  0  0  0  0  0  0  0  0  0  0  0
   -8.8220    0.4850   -1.8340 C   0  0  0  0  0  0  0  0  0  0  0  0
   -7.6920    0.7470   -2.5750 O   0  0  0  0  0  0  0  0  0  0  0  0
   -6.2800   -0.6460    0.2230 C   0  0  0  0  0  0  0  0  0  0  0  0
   -5.9100   -1.6630   -0.7720 C   0  0  0  0  0  0  0  0  0  0  0  0
   -0.9680    0.2120   -0.7600 N   0  0  0  0  0  0  0  0  0  0  0  0
    7.3900   -0.4790   -0.9480 C   0  0  0  0  0  0  0  0  0  0  0  0
  1  2  1  0
  3  2  1  6
  3  4  1  0
  3 37  1  0
  4  5  1  0
  5  6  1  0
  6  7  1  0
  7  8  1  6
  7 37  1  0
  8  9  2  0
  8 10  1  0
 10 11  1  0
 11 12  2  0
 11 16  1  0
 12 13  1  0
 13 14  2  0
 14 15  1  0
 14 36  1  0
 15 16  2  0
 15 17  1  0
 17 18  2  0
 17 19  1  0
 19 20  1  0
 20 21  1  1
 20 36  1  0
 21 22  2  0
 21 23  1  0
 23 24  1  0
 24 25  2  0
 24 34  1  0
 25 26  1  0
 25 27  1  0
 27 28  2  0
 28 29  1  0
 28 30  1  0
 30 31  1  0
 30 34  2  0
 31 32  1  0
 32 33  1  0
 34 35  1  0
M  END
