
     RDKit          3D

 37 39  0  0  0  0  0  0  0  0999 V2000
    8.8220   -0.2930    0.3020 C   0  0  0  0  0  0  0  0  0  0  0  0
    8.1900   -1.4600   -0.4040 C   0  0  0  0  0  0  0  0  0  0  0  0
    6.8170   -1.5970   -0.1840 O   0  0  0  0  0  0  0  0  0  0  0  0
    5.8500   -0.6740   -0.5070 C   0  0  0  0  0  0  0  0  0  0  0  0
    6.1730    0.5060   -1.1060 C   0  0  0  0  0  0  0  0  0  0  0  0
    5.1670    1.3940   -1.4070 C   0  0  0  0  0  0  0  0  0  0  0  0
    3.8270    1.1090   -1.1120 C   0  0  0  0  0  0  0  0  0  0  0  0
    2.8440    2.0330   -1.4330 O   0  0  0  0  0  0  0  0  0  0  0  0
    3.4780   -0.0580   -0.5170 C   0  0  0  0  0  0  0  0  0  0  0  0
    2.1200   -0.4730   -0.1610 C   0  0  0  0  0  0  0  0  0  0  0  0
    2.0360   -1.6220    0.3970 O   0  0  0  0  0  0  0  0  0  0  0  0
    0.9390    0.2160   -0.3510 N   0  0  0  0  0  0  0  0  0  0  0  0
   -0.3890   -0.1310   -0.0420 C   0  0  0  0  0  0  0  0  0  0  0  0
   -0.7150   -1.4010    0.2530 C   0  0  0  0  0  0  0  0  0  0  0  0
   -1.9750   -2.0010    0.5780 N   0  0  0  0  0  0  0  0  0  0  0  0
   -2.9830   -2.6950   -0.0960 C   0  0  0  0  0  0  0  0  0  0  0  0
   -3.4810   -2.0850   -1.1470 O   0  0  0  0  0  0  0  0  0  0  0  0
   -3.6740   -3.9810    0.0520 C   0  0  0  0  0  0  0  0  0  0  0  0
   -3.4840   -4.9740   -1.0520 C   0  0  0  0  0  0  0  0  0  0  0  0
   -4.5010   -4.3720    1.0530 C   0  0  0  0  0  0  0  0  0  0  0  0
   -4.8190   -3.4620    2.1910 C   0  0  0  0  0  0  0  0  0  0  0  0
   -5.3270   -2.2580    2.1350 C   0  0  0  0  0  0  0  0  0  0  0  0
   -5.8430   -1.2050    0.8880 S   0  0  0  0  0  0  0  0  0  0  0  0
   -7.3460   -1.1550    0.6590 O   0  0  0  0  0  0  0  0  0  0  0  0
   -5.0830    0.1940    0.3040 C   0  0  1  0  0  0  0  0  0  0  0  0
   -6.0610    1.3820    0.4960 C   0  0  0  0  0  0  0  0  0  0  0  0
   -3.7420    0.6750    0.7250 C   0  0  0  0  0  0  0  0  0  0  0  0
   -2.7220    0.7110   -0.3310 N   0  0  0  0  0  0  0  0  0  0  0  0
   -1.4320    0.9750    0.0720 C   0  0  2  0  0  0  0  0  0  0  0  0
   -0.8910    2.2770   -0.2460 C   0  0  0  0  0  0  0  0  0  0  0  0
   -1.3060    3.0520   -1.3270 C   0  0  0  0  0  0  0  0  0  0  0  0
   -0.7550    4.2690   -1.6610 C   0  0  0  0  0  0  0  0  0  0  0  0
    0.2570    4.7790   -0.9140 C   0  0  0  0  0  0  0  0  0  0  0  0
    0.7000    4.0560    0.1600 C   0  0  0  0  0  0  0  0  0  0  0  0
    0.1540    2.8330    0.5050 C   0  0  0  0  0  0  0  0  0  0  0  0
    0.7130    2.2150    1.7260 C   0  0  0  0  0  0  0  0  0  0  0  0
    4.5340   -0.9320   -0.2280 C   0  0  0  0  0  0  0  0  0  0  0  0
  1  2  1  0
  2  3  1  0
  3  4  1  0
  4  5  2  0
  4 37  1  0
  5  6  1  0
  6  7  2  0
  7  8  1  0
  7  9  1  0
  9 10  1  0
  9 37  2  0
 10 11  2  0
 10 12  1  0
 12 13  1  0
 13 14  2  0
 13 29  1  0
 14 15  1  0
 15 16  1  0
 16 17  2  0
 16 18  1  0
 18 19  1  0
 18 20  2  0
 20 21  1  0
 21 22  2  0
 23 22  1  1
 23 24  2  0
 23 25  1  0
 25 26  1  1
 25 27  1  0
 27 28  1  0
 28 29  1  0
 29 30  1  6
 30 31  2  0
 30 35  1  0
 31 32  1  0
 32 33  2  0
 33 34  1  0
 34 35  2  0
 35 36  1  0
M  END
