
     RDKit          3D

 37 39  0  0  0  0  0  0  0  0999 V2000
   -5.7010   -4.2840   -0.3310 C   0  0  0  0  0  0  0  0  0  0  0  0
   -6.7730   -3.5450   -0.3130 C   0  0  0  0  0  0  0  0  0  0  0  0
   -6.8360   -2.1610   -0.8470 C   0  0  0  0  0  0  0  0  0  0  0  0
   -7.9960   -1.5380   -0.7650 C   0  0  0  0  0  0  0  0  0  0  0  0
   -8.3670   -0.2140   -1.1800 C   0  0  0  0  0  0  0  0  0  0  0  0
   -8.3340    0.9280   -0.4990 C   0  0  0  0  0  0  0  0  0  0  0  0
   -7.9100    1.1390    0.8860 C   0  0  0  0  0  0  0  0  0  0  0  0
   -6.4860    1.4940    1.1100 C   0  0  0  0  0  0  0  0  0  0  0  0
   -5.9360    2.7010   -0.1100 S   0  0  0  0  0  0  0  0  0  0  0  0
   -4.1370    2.8950    0.0260 C   0  0  0  0  0  0  0  0  0  0  0  0
   -3.5080    1.7600    0.8130 C   0  0  0  0  0  0  0  0  0  0  0  0
   -3.0820    0.6880   -0.0530 N   0  0  0  0  0  0  0  0  0  0  0  0
   -1.7500    0.2320    0.0180 C   0  0  0  0  0  0  0  0  0  0  0  0
   -1.3500   -0.7010   -0.7530 O   0  0  0  0  0  0  0  0  0  0  0  0
   -0.7530    0.8090    0.9830 C   0  0  1  0  0  0  0  0  0  0  0  0
   -1.2130    0.4650    2.3880 C   0  0  0  0  0  0  0  0  0  0  0  0
    0.5460    0.2300    0.7840 N   0  0  0  0  0  0  0  0  0  0  0  0
    1.6960    1.0960    0.5580 C   0  0  0  0  0  0  0  0  0  0  0  0
    1.4540    2.3210    0.5570 O   0  0  0  0  0  0  0  0  0  0  0  0
    2.9710    0.5290    0.3590 N   0  0  0  0  0  0  0  0  0  0  0  0
    4.1220    1.3040    0.1220 C   0  0  0  0  0  0  0  0  0  0  0  0
    4.0820    2.6180   -0.2180 C   0  0  0  0  0  0  0  0  0  0  0  0
    5.2500    3.3760   -0.4310 C   0  0  0  0  0  0  0  0  0  0  0  0
    6.4650    2.7540   -0.2870 C   0  0  0  0  0  0  0  0  0  0  0  0
    6.5050    1.4150    0.0590 C   0  0  0  0  0  0  0  0  0  0  0  0
    7.7700    0.8350    0.1900 O   0  0  0  0  0  0  0  0  0  0  0  0
    7.9490   -0.5220    0.5380 C   0  0  0  0  0  0  0  0  0  0  0  0
    9.4640   -0.7660    0.5790 C   0  0  2  0  0  0  0  0  0  0  0  0
    9.9660   -0.5950   -0.8390 C   0  0  0  0  0  0  0  0  0  0  0  0
   10.7130   -1.8650   -1.1210 C   0  0  0  0  0  0  0  0  0  0  0  0
   10.7700   -2.5400    0.2210 C   0  0  0  0  0  0  0  0  0  0  0  0
    9.6550   -2.0890    0.9140 O   0  0  0  0  0  0  0  0  0  0  0  0
    5.3800    0.6650    0.2690 C   0  0  0  0  0  0  0  0  0  0  0  0
   -3.9990    0.1080   -0.9780 C   0  0  0  0  0  0  0  0  0  0  0  0
   -4.4770   -1.2960   -0.5760 C   0  0  0  0  0  0  0  0  0  0  0  0
   -5.5980   -1.6520   -1.4710 C   0  0  1  0  0  0  0  0  0  0  0  0
   -5.1940   -2.4850   -2.5340 O   0  0  0  0  0  0  0  0  0  0  0  0
  1  2  2  0
  2  3  1  0
  3  4  2  0
  3 36  1  0
  4  5  1  0
  5  6  2  0
  6  7  1  0
  7  8  1  0
  8  9  1  0
  9 10  1  0
 10 11  1  0
 11 12  1  0
 12 13  1  0
 12 34  1  0
 13 14  2  0
 13 15  1  0
 15 16  1  1
 15 17  1  0
 17 18  1  0
 18 19  2  0
 18 20  1  0
 20 21  1  0
 21 22  2  0
 21 33  1  0
 22 23  1  0
 23 24  2  0
 24 25  1  0
 25 26  1  0
 25 33  2  0
 26 27  1  0
 28 27  1  6
 28 29  1  0
 28 32  1  0
 29 30  1  0
 30 31  1  0
 31 32  1  0
 34 35  1  0
 35 36  1  0
 36 37  1  6
M  END
