
     RDKit          3D

 37 40  0  0  0  0  0  0  0  0999 V2000
   -3.4920    1.9350   -1.7520 C   0  0  0  0  0  0  0  0  0  0  0  0
   -4.5030    2.1340   -0.6490 C   0  0  0  0  0  0  0  0  0  0  0  0
   -3.9790    1.8020    0.7250 C   0  0  2  0  0  0  0  0  0  0  0  0
   -2.8390    2.6610    1.0090 C   0  0  0  0  0  0  0  0  0  0  0  0
   -3.0260    3.8500    1.4080 O   0  0  0  0  0  0  0  0  0  0  0  0
   -1.4440    2.2030    0.8500 C   0  0  0  0  0  0  0  0  0  0  0  0
   -0.5340    3.0830    0.6590 C   0  0  0  0  0  0  0  0  0  0  0  0
    0.8720    2.8680    0.4730 C   0  0  0  0  0  0  0  0  0  0  0  0
    1.8240    3.7960    0.3030 C   0  0  0  0  0  0  0  0  0  0  0  0
    3.1460    3.3330    0.1430 C   0  0  0  0  0  0  0  0  0  0  0  0
    3.3510    2.0490    0.1680 C   0  0  0  0  0  0  0  0  0  0  0  0
    4.5890    1.2880    0.0370 C   0  0  0  0  0  0  0  0  0  0  0  0
    5.6880    1.8770   -0.1350 O   0  0  0  0  0  0  0  0  0  0  0  0
    4.5950   -0.1250    0.0980 N   0  0  0  0  0  0  0  0  0  0  0  0
    5.6770   -1.0110   -0.0010 C   0  0  0  0  0  0  0  0  0  0  0  0
    5.4540   -2.3760   -0.1650 C   0  0  0  0  0  0  0  0  0  0  0  0
    6.5240   -3.2180   -0.2460 C   0  0  0  0  0  0  0  0  0  0  0  0
    7.8310   -2.7740   -0.1720 C   0  0  0  0  0  0  0  0  0  0  0  0
    8.9670   -3.7220   -0.2660 C   0  0  0  0  0  0  0  0  0  0  0  0
    8.0740   -1.4320   -0.0090 C   0  0  0  0  0  0  0  0  0  0  0  0
    9.4570   -0.9040    0.0770 C   0  0  0  0  0  0  0  0  0  0  0  0
    6.9740   -0.5830    0.0720 C   0  0  0  0  0  0  0  0  0  0  0  0
    1.7360    1.3380    0.3340 S   0  0  0  0  0  0  0  0  0  0  0  0
    1.3150    0.7410   -1.0310 O   0  0  0  0  0  0  0  0  0  0  0  0
   -1.3210    0.7840    0.9760 N   0  0  0  0  0  0  0  0  0  0  0  0
   -2.4220   -0.0820    1.2230 C   0  0  0  0  0  0  0  0  0  0  0  0
   -2.1760   -1.2230    1.6480 O   0  0  0  0  0  0  0  0  0  0  0  0
   -3.7720    0.3480    0.9910 C   0  0  1  0  0  0  0  0  0  0  0  0
   -4.3180    0.1710    2.3250 O   0  0  0  0  0  0  0  0  0  0  0  0
   -4.6730   -0.4810    0.1800 C   0  0  0  0  0  0  0  0  0  0  0  0
   -4.3560   -1.3160   -0.7750 C   0  0  0  0  0  0  0  0  0  0  0  0
   -2.9340   -1.5040   -1.1450 C   0  0  0  0  0  0  0  0  0  0  0  0
   -5.3790   -2.0380   -1.4470 N   0  0  0  0  0  0  0  0  0  0  0  0
   -6.7870   -1.9210   -1.2670 C   0  0  0  0  0  0  0  0  0  0  0  0
   -7.0680   -0.9660   -0.1790 C   0  0  0  0  0  0  0  0  0  0  0  0
   -8.5240   -0.7680    0.1540 C   0  0  0  0  0  0  0  0  0  0  0  0
   -6.1250   -0.3420    0.4460 C   0  0  0  0  0  0  0  0  0  0  0  0
  1  2  1  0
  3  2  1  6
  3  4  1  0
  3 28  1  0
  4  5  2  0
  4  6  1  0
  6  7  2  3
  6 25  1  0
  7  8  1  0
  8  9  2  0
 23  8  1  6
  9 10  1  0
 10 11  2  0
 11 12  1  0
 11 23  1  0
 12 13  2  0
 12 14  1  0
 14 15  1  0
 15 16  2  0
 15 22  1  0
 16 17  1  0
 17 18  2  0
 18 19  1  0
 18 20  1  0
 20 21  1  0
 20 22  2  0
 23 24  2  0
 25 26  1  0
 26 27  2  0
 26 28  1  0
 28 29  1  1
 28 30  1  0
 30 31  2  0
 30 37  1  0
 31 32  1  0
 31 33  1  0
 33 34  1  0
 34 35  1  0
 35 36  1  0
 35 37  2  0
M  END
