
     RDKit          3D

 37 39  0  0  0  0  0  0  0  0999 V2000
   -5.5050    3.9780   -1.3910 C   0  0  0  0  0  0  0  0  0  0  0  0
   -4.7510    2.9070   -1.0760 C   0  0  0  0  0  0  0  0  0  0  0  0
   -3.5750    3.1020   -0.2460 C   0  0  0  0  0  0  0  0  0  0  0  0
   -2.3250    2.7460   -0.5430 C   0  0  0  0  0  0  0  0  0  0  0  0
   -1.9730    2.0820   -1.8050 C   0  0  0  0  0  0  0  0  0  0  0  0
   -0.6200    1.4800   -1.8480 C   0  0  0  0  0  0  0  0  0  0  0  0
   -0.2420    0.8180   -0.5790 C   0  0  2  0  0  0  0  0  0  0  0  0
    0.9530    0.0190   -0.6520 N   0  0  0  0  0  0  0  0  0  0  0  0
    2.1150    0.2140    0.1650 C   0  0  0  0  0  0  0  0  0  0  0  0
    1.9710    1.1660    0.9640 O   0  0  0  0  0  0  0  0  0  0  0  0
    3.3000   -0.6220    0.0410 C   0  0  0  0  0  0  0  0  0  0  0  0
    4.3310   -0.4200    0.8290 C   0  0  0  0  0  0  0  0  0  0  0  0
    4.4570    0.5940    1.8810 C   0  0  0  0  0  0  0  0  0  0  0  0
    5.4490    1.6720    1.5460 C   0  0  0  0  0  0  0  0  0  0  0  0
    6.6950    1.1180    1.3620 O   0  0  0  0  0  0  0  0  0  0  0  0
    5.4820   -1.3840    0.6210 C   0  0  0  0  0  0  0  0  0  0  0  0
    5.7710   -1.4320   -0.8430 C   0  0  0  0  0  0  0  0  0  0  0  0
    4.5960   -2.1730   -1.4670 C   0  0  0  0  0  0  0  0  0  0  0  0
    3.2840   -1.6600   -1.0000 C   0  0  0  0  0  0  0  0  0  0  0  0
   -1.3180    0.0230    0.0740 C   0  0  2  0  0  0  0  0  0  0  0  0
   -0.7200   -0.9150    1.0910 C   0  0  0  0  0  0  0  0  0  0  0  0
   -0.2560   -2.1520    0.7050 C   0  0  0  0  0  0  0  0  0  0  0  0
    0.3150   -3.0510    1.6130 C   0  0  0  0  0  0  0  0  0  0  0  0
    0.4070   -2.6760    2.9150 C   0  0  0  0  0  0  0  0  0  0  0  0
   -0.0440   -1.4490    3.3460 C   0  0  0  0  0  0  0  0  0  0  0  0
   -0.6010   -0.5860    2.4250 C   0  0  0  0  0  0  0  0  0  0  0  0
   -2.1560   -0.6520   -0.8820 N   0  0  0  0  0  0  0  0  0  0  0  0
   -3.4380   -1.2060   -0.6660 C   0  0  0  0  0  0  0  0  0  0  0  0
   -3.5300   -2.4890   -0.9050 O   0  0  0  0  0  0  0  0  0  0  0  0
   -4.6560   -0.5260   -0.2180 C   0  0  0  0  0  0  0  0  0  0  0  0
   -5.1730   -0.9160    0.9480 C   0  0  0  0  0  0  0  0  0  0  0  0
   -4.6700   -1.9370    1.8380 C   0  0  0  0  0  0  0  0  0  0  0  0
   -3.6400   -2.5800    1.5880 O   0  0  0  0  0  0  0  0  0  0  0  0
   -5.2970    0.4500   -0.8850 O   0  0  0  0  0  0  0  0  0  0  0  0
   -5.1830    1.5670   -1.5890 C   0  0  0  0  0  0  0  0  0  0  0  0
   -5.4450    1.6390   -2.8520 N   0  0  0  0  0  0  0  0  0  0  0  0
   -5.9820    0.3690   -3.9070 S   0  0  0  0  0  0  0  0  0  0  0  0
  1  2  2  0
  2  3  1  0
  2 35  1  0
  3  4  2  0
  4  5  1  0
  5  6  1  0
  6  7  1  0
  7  8  1  6
  7 20  1  0
  8  9  1  0
  9 10  2  0
  9 11  1  0
 11 12  2  0
 11 19  1  0
 12 13  1  0
 12 16  1  0
 13 14  1  0
 14 15  1  0
 16 17  1  0
 17 18  1  0
 18 19  1  0
 20 21  1  1
 20 27  1  0
 21 22  2  0
 21 26  1  0
 22 23  1  0
 23 24  2  0
 24 25  1  0
 25 26  2  0
 27 28  1  0
 28 29  2  0
 28 30  1  0
 30 31  2  3
 30 34  1  0
 31 32  1  0
 32 33  2  0
 34 35  1  0
 35 36  2  3
 36 37  1  0
M  END
