
     RDKit          3D

 12 12  0  0  0  0  0  0  0  0999 V2000
   -0.5270   -1.4840   -1.0750 C   0  0  0  0  0  0  0  0  0  0  0  0
   -0.3840   -0.2300   -0.2350 C   0  0  2  0  0  0  0  0  0  0  0  0
   -1.7870    0.0800    0.2820 C   0  0  2  0  0  0  0  0  0  0  0  0
   -1.8220    1.2030    1.1550 N   0  0  0  0  0  0  0  0  0  0  0  0
   -2.3580   -1.0130    0.9090 O   0  0  0  0  0  0  0  0  0  0  0  0
    0.0990    0.8380   -0.9240 O   0  0  0  0  0  0  0  0  0  0  0  0
    1.3420    1.1700   -0.4920 C   0  0  1  0  0  0  0  0  0  0  0  0
    1.4450    2.4390    0.0730 O   0  0  0  0  0  0  0  0  0  0  0  0
    1.8340    0.1490    0.4760 C   0  0  2  0  0  0  0  0  0  0  0  0
    2.7370   -0.7240   -0.1410 O   0  0  0  0  0  0  0  0  0  0  0  0
    0.5610   -0.5530    0.8930 C   0  0  2  0  0  0  0  0  0  0  0  0
    0.8580   -1.9180    0.9570 O   0  0  0  0  0  0  0  0  0  0  0  0
  2  1  1  6
  2  3  1  0
  2  6  1  0
  2 11  1  0
  3  4  1  1
  3  5  1  0
  6  7  1  0
  7  8  1  1
  7  9  1  0
  9 10  1  6
  9 11  1  0
 11 12  1  6
M  CHG  1   4   1
M  END
