
     RDKit          3D

 28 30  0  0  0  0  0  0  0  0999 V2000
   -4.4110    3.0290   -1.2840 C   0  0  0  0  0  0  0  0  0  0  0  0
   -3.7040    2.2810   -0.4600 C   0  0  0  0  0  0  0  0  0  0  0  0
   -3.6060    2.6910    0.9510 C   0  0  0  0  0  0  0  0  0  0  0  0
   -4.1310    1.6940    1.7540 O   0  0  0  0  0  0  0  0  0  0  0  0
   -3.0720    1.1300   -0.9570 N   0  0  0  0  0  0  0  0  0  0  0  0
   -2.2810    0.2210   -0.2330 C   0  0  0  0  0  0  0  0  0  0  0  0
   -2.0750    0.4010    0.9700 O   0  0  0  0  0  0  0  0  0  0  0  0
   -1.6820   -0.9330   -0.8210 N   0  0  0  0  0  0  0  0  0  0  0  0
   -0.8690   -1.8500   -0.0430 C   0  0  2  0  0  0  0  0  0  0  0  0
    0.3970   -2.0470   -0.7850 C   0  0  0  0  0  0  0  0  0  0  0  0
    1.4500   -1.2820   -0.4850 C   0  0  0  0  0  0  0  0  0  0  0  0
    1.4890   -0.2590    0.5080 C   0  0  0  0  0  0  0  0  0  0  0  0
    2.5880    0.4430    0.7240 C   0  0  0  0  0  0  0  0  0  0  0  0
    3.8410    0.1980   -0.0590 C   0  0  0  0  0  0  0  0  0  0  0  0
    4.7760    1.2330    0.0690 O   0  0  0  0  0  0  0  0  0  0  0  0
    4.7890    2.2070    1.0320 C   0  0  0  0  0  0  0  0  0  0  0  0
    5.8770    3.0730    1.1780 C   0  0  0  0  0  0  0  0  0  0  0  0
    5.8360    4.0120    2.1420 N   0  0  0  0  0  0  0  0  0  0  0  0
    4.7860    4.1480    2.9700 C   0  0  0  0  0  0  0  0  0  0  0  0
    3.7080    3.2930    2.8280 C   0  0  0  0  0  0  0  0  0  0  0  0
    3.6870    2.3030    1.8550 C   0  0  0  0  0  0  0  0  0  0  0  0
    2.6300    1.4380    1.6890 O   0  0  0  0  0  0  0  0  0  0  0  0
    0.6070   -3.0320   -1.8550 C   0  0  0  0  0  0  0  0  0  0  0  0
   -0.2890   -3.7110   -2.5430 C   0  0  0  0  0  0  0  0  0  0  0  0
   -1.7440   -3.7530   -2.5190 C   0  0  0  0  0  0  0  0  0  0  0  0
   -2.4300   -3.4180   -1.2500 C   0  0  0  0  0  0  0  0  0  0  0  0
   -1.5780   -3.2130   -0.0490 C   0  0  2  0  0  0  0  0  0  0  0  0
   -2.3350   -3.3930    1.0940 O   0  0  0  0  0  0  0  0  0  0  0  0
  1  2  2  0
  2  3  1  0
  2  5  1  0
  3  4  1  0
  5  6  1  0
  6  7  2  0
  6  8  1  0
  9  8  1  6
  9 10  1  0
  9 27  1  0
 10 11  2  3
 10 23  1  0
 11 12  1  0
 12 13  2  3
 13 14  1  0
 13 22  1  0
 14 15  1  0
 15 16  1  0
 16 17  2  0
 16 21  1  0
 17 18  1  0
 18 19  2  0
 19 20  1  0
 20 21  2  0
 21 22  1  0
 23 24  2  0
 24 25  1  0
 25 26  1  0
 26 27  1  0
 27 28  1  1
M  END
