
     RDKit          3D

 28 31  0  0  0  0  0  0  0  0999 V2000
   -3.4050    1.5020    1.9790 C   0  0  0  0  0  0  0  0  0  0  0  0
   -2.0480    1.1110    1.5040 C   0  0  0  0  0  0  0  0  0  0  0  0
   -0.9640    1.8410    1.8740 N   0  0  0  0  0  0  0  0  0  0  0  0
    0.2850    1.4800    1.4730 C   0  0  0  0  0  0  0  0  0  0  0  0
    1.2590    2.2160    1.8580 O   0  0  0  0  0  0  0  0  0  0  0  0
    0.5600    0.3920    0.6910 C   0  0  0  0  0  0  0  0  0  0  0  0
    1.8930   -0.0260    0.2620 C   0  0  0  0  0  0  0  0  0  0  0  0
    2.0080   -0.8020   -0.7530 O   0  0  0  0  0  0  0  0  0  0  0  0
    3.0990    0.3560    0.8770 N   0  0  0  0  0  0  0  0  0  0  0  0
    4.4100   -0.0210    0.4620 C   0  0  0  0  0  0  0  0  0  0  0  0
    5.4080    0.0180    1.4390 C   0  0  0  0  0  0  0  0  0  0  0  0
    6.7280   -0.2960    1.1300 C   0  0  0  0  0  0  0  0  0  0  0  0
    7.0630   -0.6550   -0.1550 C   0  0  0  0  0  0  0  0  0  0  0  0
    6.0880   -0.7020   -1.1440 C   0  0  0  0  0  0  0  0  0  0  0  0
    4.7850   -0.3790   -0.7940 C   0  0  0  0  0  0  0  0  0  0  0  0
    6.7470   -1.0890   -2.2940 O   0  0  0  0  0  0  0  0  0  0  0  0
    8.1600   -0.9340   -2.0990 C   0  0  0  0  0  0  0  0  0  0  0  0
    8.2950   -1.0050   -0.6870 O   0  0  0  0  0  0  0  0  0  0  0  0
   -0.5520   -0.3630    0.3070 C   0  0  0  0  0  0  0  0  0  0  0  0
   -1.8150    0.0090    0.7160 C   0  0  0  0  0  0  0  0  0  0  0  0
   -2.9790   -0.7900    0.2380 C   0  0  2  0  0  0  0  0  0  0  0  0
   -2.4250   -2.2030   -0.1250 C   0  0  0  0  0  0  0  0  0  0  0  0
   -3.4700   -0.2960   -1.0090 N   0  0  0  0  0  0  0  0  0  0  0  0
   -3.7060    1.0740   -1.1880 C   0  0  0  0  0  0  0  0  0  0  0  0
   -5.1680    1.3940   -0.8960 C   0  0  0  0  0  0  0  0  0  0  0  0
   -5.9270    0.8800   -1.9240 O   0  0  0  0  0  0  0  0  0  0  0  0
   -5.4480   -0.2810   -2.4910 C   0  0  0  0  0  0  0  0  0  0  0  0
   -4.5230   -1.0750   -1.5840 C   0  0  0  0  0  0  0  0  0  0  0  0
  1  2  1  0
  2  3  1  0
  2 20  2  0
  3  4  1  0
  4  5  2  0
  4  6  1  0
  6  7  1  0
  6 19  2  0
  7  8  2  0
  7  9  1  0
  9 10  1  0
 10 11  2  0
 10 15  1  0
 11 12  1  0
 12 13  2  0
 13 14  1  0
 13 18  1  0
 14 15  2  0
 14 16  1  0
 16 17  1  0
 17 18  1  0
 19 20  1  0
 20 21  1  0
 21 22  1  6
 21 23  1  0
 23 24  1  0
 23 28  1  0
 24 25  1  0
 25 26  1  0
 26 27  1  0
 27 28  1  0
M  END
