
     RDKit          3D

 28 30  0  0  0  0  0  0  0  0999 V2000
   -8.1330   -0.1330   -0.3180 C   0  0  0  0  0  0  0  0  0  0  0  0
   -6.9920    0.4700    0.4660 C   0  0  0  0  0  0  0  0  0  0  0  0
   -5.7700   -0.3640    0.2130 C   0  0  0  0  0  0  0  0  0  0  0  0
   -4.5490    0.1470    0.9550 C   0  0  0  0  0  0  0  0  0  0  0  0
   -3.3920   -0.7710    0.6190 C   0  0  2  0  0  0  0  0  0  0  0  0
   -2.1170   -0.3520    1.3100 C   0  0  0  0  0  0  0  0  0  0  0  0
   -0.9910   -0.3080    0.4280 N   0  0  0  0  0  0  0  0  0  0  0  0
    0.2230   -0.0730    1.0590 N   0  0  0  0  0  0  0  0  0  0  0  0
    1.1820   -1.0240    1.4560 C   0  0  0  0  0  0  0  0  0  0  0  0
    1.3800   -1.0180    2.7490 O   0  0  0  0  0  0  0  0  0  0  0  0
    1.9650   -1.9760    0.7410 C   0  0  0  0  0  0  0  0  0  0  0  0
    1.5770   -3.2300    0.9680 O   0  0  0  0  0  0  0  0  0  0  0  0
    3.0580   -1.8250   -0.1440 N   0  0  0  0  0  0  0  0  0  0  0  0
    4.0970   -0.8410   -0.2200 C   0  0  0  0  0  0  0  0  0  0  0  0
    5.4330   -1.2860   -0.1210 C   0  0  0  0  0  0  0  0  0  0  0  0
    6.5340   -0.4840   -0.1350 C   0  0  0  0  0  0  0  0  0  0  0  0
    7.8290   -0.9960   -0.0320 O   0  0  0  0  0  0  0  0  0  0  0  0
    8.9050   -0.0880   -0.0560 C   0  0  0  0  0  0  0  0  0  0  0  0
    6.3160    0.8680   -0.2570 C   0  0  0  0  0  0  0  0  0  0  0  0
    5.0260    1.3400   -0.3580 C   0  0  0  0  0  0  0  0  0  0  0  0
    3.8950    0.5160   -0.3450 C   0  0  0  0  0  0  0  0  0  0  0  0
    2.6600    1.1260   -0.4640 O   0  0  0  0  0  0  0  0  0  0  0  0
    1.6260    0.8770   -1.3790 C   0  0  0  0  0  0  0  0  0  0  0  0
    0.5870    1.8820   -1.1310 C   0  0  0  0  0  0  0  0  0  0  0  0
   -0.6720    1.6140   -0.8920 C   0  0  0  0  0  0  0  0  0  0  0  0
   -1.1850    0.2390   -0.8470 C   0  0  2  0  0  0  0  0  0  0  0  0
   -2.6660    0.2290   -1.2700 C   0  0  0  0  0  0  0  0  0  0  0  0
   -3.2130   -0.9220   -0.7550 O   0  0  0  0  0  0  0  0  0  0  0  0
  1  2  1  0
  2  3  1  0
  3  4  1  0
  5  4  1  6
  5  6  1  0
  5 28  1  0
  6  7  1  0
  7  8  1  0
  7 26  1  0
  8  9  1  0
  9 10  2  0
  9 11  1  0
 11 12  2  0
 11 13  1  0
 13 14  1  0
 14 15  2  0
 14 21  1  0
 15 16  1  0
 16 17  1  0
 16 19  2  0
 17 18  1  0
 19 20  1  0
 20 21  2  0
 21 22  1  0
 22 23  1  0
 23 24  1  0
 24 25  2  0
 25 26  1  0
 26 27  1  1
 27 28  1  0
M  END
