
     RDKit          3D

 25 28  0  0  0  0  0  0  0  0999 V2000
   -5.7810   -0.5270    1.8460 C   0  0  0  0  0  0  0  0  0  0  0  0
   -4.4730   -0.3940    1.1280 C   0  0  0  0  0  0  0  0  0  0  0  0
   -3.3810   -1.1660    1.4490 C   0  0  0  0  0  0  0  0  0  0  0  0
   -2.2040   -0.9840    0.7410 C   0  0  0  0  0  0  0  0  0  0  0  0
   -1.1470   -1.6830    0.9990 O   0  0  0  0  0  0  0  0  0  0  0  0
    0.0180   -1.5720    0.3690 C   0  0  0  0  0  0  0  0  0  0  0  0
    0.8980   -2.3350    0.7700 O   0  0  0  0  0  0  0  0  0  0  0  0
    0.2340   -0.6910   -0.6410 C   0  0  0  0  0  0  0  0  0  0  0  0
    1.4820   -0.4870   -1.4080 C   0  0  0  0  0  0  0  0  0  0  0  0
    2.5540    0.2450   -0.7530 C   0  0  0  0  0  0  0  0  0  0  0  0
    2.4610    1.6550   -0.7390 C   0  0  0  0  0  0  0  0  0  0  0  0
    3.3690    2.4460   -0.0660 C   0  0  0  0  0  0  0  0  0  0  0  0
    4.4070    1.8880    0.6210 C   0  0  0  0  0  0  0  0  0  0  0  0
    4.5360    0.5370    0.6310 C   0  0  0  0  0  0  0  0  0  0  0  0
    5.6060   -0.0100    1.2920 C   0  0  0  0  0  0  0  0  0  0  0  0
    5.8040   -1.3720    1.2970 C   0  0  0  0  0  0  0  0  0  0  0  0
    4.8910   -2.1520    0.6170 C   0  0  0  0  0  0  0  0  0  0  0  0
    3.8290   -1.5820   -0.0350 C   0  0  0  0  0  0  0  0  0  0  0  0
    3.6150   -0.2390   -0.0490 C   0  0  0  0  0  0  0  0  0  0  0  0
   -0.9080    0.0960   -0.9530 C   0  0  0  0  0  0  0  0  0  0  0  0
   -0.7670    1.0170   -1.9700 O   0  0  0  0  0  0  0  0  0  0  0  0
   -2.0980   -0.0420   -0.2830 C   0  0  0  0  0  0  0  0  0  0  0  0
   -3.2220    0.7060   -0.5650 C   0  0  0  0  0  0  0  0  0  0  0  0
   -4.4160    0.5480    0.1250 C   0  0  0  0  0  0  0  0  0  0  0  0
   -5.5710    1.3990   -0.2520 C   0  0  0  0  0  0  0  0  0  0  0  0
  1  2  1  0
  2  3  2  0
  2 24  1  0
  3  4  1  0
  4  5  1  0
  4 22  2  0
  5  6  1  0
  6  7  2  0
  6  8  1  0
  8  9  1  0
  8 20  2  0
  9 10  1  0
 10 11  2  0
 10 19  1  0
 11 12  1  0
 12 13  2  0
 13 14  1  0
 14 15  2  0
 14 19  1  0
 15 16  1  0
 16 17  2  0
 17 18  1  0
 18 19  2  0
 20 21  1  0
 20 22  1  0
 22 23  1  0
 23 24  2  0
 24 25  1  0
M  END
