
     RDKit          3D

 28 31  0  0  0  0  0  0  0  0999 V2000
    5.2810    2.3430    0.8030 C   0  0  0  0  0  0  0  0  0  0  0  0
    5.7540    0.9530    0.7680 C   0  0  0  0  0  0  0  0  0  0  0  0
    7.0960    0.6860    0.8040 C   0  0  0  0  0  0  0  0  0  0  0  0
    7.5210   -0.6010    0.7720 N   0  0  0  0  0  0  0  0  0  0  0  0
    6.6290   -1.6110    0.7050 C   0  0  0  0  0  0  0  0  0  0  0  0
    5.2590   -1.3680    0.6680 C   0  0  0  0  0  0  0  0  0  0  0  0
    4.8300   -0.0570    0.7010 C   0  0  0  0  0  0  0  0  0  0  0  0
    3.4770    0.2530    0.6660 O   0  0  0  0  0  0  0  0  0  0  0  0
    2.7810    0.4640   -0.5140 C   0  0  0  0  0  0  0  0  0  0  0  0
    3.4280    0.3630   -1.5820 O   0  0  0  0  0  0  0  0  0  0  0  0
    1.3450    0.7940   -0.5740 C   0  0  2  0  0  0  0  0  0  0  0  0
    0.4860   -0.2490    0.1140 C   0  0  0  0  0  0  0  0  0  0  0  0
   -0.8010   -0.3560   -0.5980 N   0  0  0  0  0  0  0  0  0  0  0  0
   -2.0300   -0.1320    0.0590 C   0  0  0  0  0  0  0  0  0  0  0  0
   -1.9220    0.1560    1.3080 O   0  0  0  0  0  0  0  0  0  0  0  0
   -3.3730   -0.2010   -0.5560 C   0  0  1  0  0  0  0  0  0  0  0  0
   -3.5720    0.8110   -1.6680 C   0  0  0  0  0  0  0  0  0  0  0  0
   -3.7560   -1.5890   -1.0110 C   0  0  0  0  0  0  0  0  0  0  0  0
   -3.9360   -2.2660    0.3580 C   0  0  0  0  0  0  0  0  0  0  0  0
   -4.6900   -1.1880    1.0650 C   0  0  0  0  0  0  0  0  0  0  0  0
   -5.6040   -0.9400    2.0630 C   0  0  0  0  0  0  0  0  0  0  0  0
   -5.8160    0.3520    2.1190 O   0  0  0  0  0  0  0  0  0  0  0  0
   -5.1050    1.0020    1.2230 C   0  0  0  0  0  0  0  0  0  0  0  0
   -5.0790    2.4020    0.9940 N   0  0  0  0  0  0  0  0  0  0  0  0
   -4.3770    0.0370    0.5370 C   0  0  0  0  0  0  0  0  0  0  0  0
   -0.6790   -0.7110   -1.9900 C   0  0  0  0  0  0  0  0  0  0  0  0
    0.7540   -0.3420   -2.4150 C   0  0  0  0  0  0  0  0  0  0  0  0
    0.9840    0.9350   -1.9130 O   0  0  0  0  0  0  0  0  0  0  0  0
  1  2  1  0
  2  3  2  0
  2  7  1  0
  3  4  1  0
  4  5  2  0
  5  6  1  0
  6  7  2  0
  7  8  1  0
  8  9  1  0
  9 10  2  0
 11  9  1  6
 11 12  1  0
 11 28  1  0
 12 13  1  0
 13 14  1  0
 13 26  1  0
 14 15  2  0
 14 16  1  0
 16 17  1  6
 16 18  1  0
 16 25  1  0
 18 19  1  0
 19 20  1  0
 20 21  2  0
 20 25  1  0
 21 22  1  0
 22 23  1  0
 23 24  1  0
 23 25  2  0
 26 27  1  0
 27 28  1  0
M  END
