
     RDKit          3D

 28 31  0  0  0  0  0  0  0  0999 V2000
    2.5920   -0.6410    1.5090 O   0  0  0  0  0  0  0  0  0  0  0  0
    2.0440   -0.1490    0.5000 C   0  0  0  0  0  0  0  0  0  0  0  0
    0.5870   -0.3350    0.3040 C   0  0  0  0  0  0  0  0  0  0  0  0
   -0.0460   -1.2090    1.3060 C   0  0  2  0  0  0  0  0  0  0  0  0
    0.4890   -2.6130    1.3430 C   0  0  0  0  0  0  0  0  0  0  0  0
   -0.1060   -3.2450    2.5900 C   0  0  0  0  0  0  0  0  0  0  0  0
    0.5960   -3.7170    3.4990 O   0  0  0  0  0  0  0  0  0  0  0  0
   -1.4910   -3.2870    2.6960 O   0  0  0  0  0  0  0  0  0  0  0  0
   -2.1530   -2.2290    2.0310 C   0  0  0  0  0  0  0  0  0  0  0  0
   -3.5570   -2.2540    2.1130 C   0  0  0  0  0  0  0  0  0  0  0  0
   -4.2980   -1.2820    1.5010 C   0  0  0  0  0  0  0  0  0  0  0  0
   -3.6460   -0.2810    0.8040 C   0  0  0  0  0  0  0  0  0  0  0  0
   -4.4700    0.7570    0.1500 C   0  0  0  0  0  0  0  0  0  0  0  0
   -5.7210    0.4920   -0.3530 C   0  0  0  0  0  0  0  0  0  0  0  0
   -6.4620    1.5140   -0.9660 C   0  0  0  0  0  0  0  0  0  0  0  0
   -5.9480    2.7890   -1.0700 C   0  0  0  0  0  0  0  0  0  0  0  0
   -4.7220    3.0130   -0.5670 N   0  0  0  0  0  0  0  0  0  0  0  0
   -3.9810    2.0360    0.0330 C   0  0  0  0  0  0  0  0  0  0  0  0
   -2.2790   -0.2540    0.7230 C   0  0  0  0  0  0  0  0  0  0  0  0
   -1.5140   -1.2330    1.3400 C   0  0  0  0  0  0  0  0  0  0  0  0
    2.8310    0.5910   -0.4560 N   0  0  0  0  0  0  0  0  0  0  0  0
    4.2380    0.7220   -0.1860 C   0  0  2  0  0  0  0  0  0  0  0  0
    4.7050    2.1180   -0.1660 C   0  0  0  0  0  0  0  0  0  0  0  0
    4.1150    3.1670    0.1990 O   0  0  0  0  0  0  0  0  0  0  0  0
    6.0370    2.1170   -0.6630 N   0  0  0  0  0  0  0  0  0  0  0  0
    6.4400    0.7350   -0.9620 C   0  0  0  0  0  0  0  0  0  0  0  0
    5.0790    0.1490   -1.3290 C   0  0  2  0  0  0  0  0  0  0  0  0
    4.7230    0.6870   -2.5500 O   0  0  0  0  0  0  0  0  0  0  0  0
  1  2  2  0
  2  3  1  0
  2 21  1  0
  4  3  1  6
  4  5  1  0
  4 20  1  0
  5  6  1  0
  6  7  2  0
  6  8  1  0
  8  9  1  0
  9 10  2  0
  9 20  1  0
 10 11  1  0
 11 12  2  0
 12 13  1  0
 12 19  1  0
 13 14  2  0
 13 18  1  0
 14 15  1  0
 15 16  2  0
 16 17  1  0
 17 18  2  0
 19 20  2  0
 22 21  1  6
 22 23  1  0
 22 27  1  0
 23 24  2  0
 23 25  1  0
 25 26  1  0
 26 27  1  0
 27 28  1  6
M  END
