
     RDKit          3D

 28 30  0  0  0  0  0  0  0  0999 V2000
    6.5610   -1.9790   -0.5740 C   0  0  0  0  0  0  0  0  0  0  0  0
    5.9000   -2.0330    0.6130 O   0  0  0  0  0  0  0  0  0  0  0  0
    5.9470   -0.9790    1.4530 C   0  0  0  0  0  0  0  0  0  0  0  0
    5.3650    0.2750    0.8980 C   0  0  1  0  0  0  0  0  0  0  0  0
    6.1690    0.9470   -0.1430 C   0  0  0  0  0  0  0  0  0  0  0  0
    3.9690    0.0200    0.5270 N   0  0  0  0  0  0  0  0  0  0  0  0
    2.8640    0.6040    1.1380 C   0  0  0  0  0  0  0  0  0  0  0  0
    3.2130    1.4280    2.1030 O   0  0  0  0  0  0  0  0  0  0  0  0
    1.4740    0.4760    0.9170 C   0  0  0  0  0  0  0  0  0  0  0  0
    0.7670   -0.2150    0.0940 C   0  0  0  0  0  0  0  0  0  0  0  0
    1.1670   -1.1640   -0.9630 C   0  0  0  0  0  0  0  0  0  0  0  0
    0.6620   -0.5800   -2.2790 C   0  0  0  0  0  0  0  0  0  0  0  0
   -0.8170   -0.4330   -2.2940 C   0  0  0  0  0  0  0  0  0  0  0  0
   -1.4310   -0.1790   -0.9970 C   0  0  0  0  0  0  0  0  0  0  0  0
   -0.7310   -0.0620    0.1700 C   0  0  0  0  0  0  0  0  0  0  0  0
   -1.3060    0.1820    1.3590 N   0  0  0  0  0  0  0  0  0  0  0  0
   -2.6630    0.3250    1.4250 C   0  0  0  0  0  0  0  0  0  0  0  0
   -3.2090    0.5520    2.5150 O   0  0  0  0  0  0  0  0  0  0  0  0
   -3.4080    0.2150    0.2700 C   0  0  0  0  0  0  0  0  0  0  0  0
   -4.7610    0.3110    0.0440 C   0  0  0  0  0  0  0  0  0  0  0  0
   -5.8170    0.5710    1.0400 C   0  0  0  0  0  0  0  0  0  0  0  0
   -6.3360   -0.4270    1.6020 O   0  0  0  0  0  0  0  0  0  0  0  0
   -6.2540    1.8230    1.3760 O   0  0  0  0  0  0  0  0  0  0  0  0
   -7.2670    2.0800    2.3300 C   0  0  0  0  0  0  0  0  0  0  0  0
   -4.9490    0.1160   -1.2960 C   0  0  0  0  0  0  0  0  0  0  0  0
   -6.2730    0.1360   -1.9820 C   0  0  0  0  0  0  0  0  0  0  0  0
   -3.7740   -0.0890   -1.8710 N   0  0  0  0  0  0  0  0  0  0  0  0
   -2.8110   -0.0370   -0.9480 C   0  0  0  0  0  0  0  0  0  0  0  0
  1  2  1  0
  2  3  1  0
  3  4  1  0
  4  5  1  6
  4  6  1  0
  6  7  1  0
  7  8  2  0
  7  9  1  0
  9 10  2  3
 10 11  1  0
 10 15  1  0
 11 12  1  0
 12 13  1  0
 13 14  1  0
 14 15  2  0
 14 28  1  0
 15 16  1  0
 16 17  1  0
 17 18  2  0
 17 19  1  0
 19 20  1  0
 19 28  2  0
 20 21  1  0
 20 25  2  0
 21 22  2  0
 21 23  1  0
 23 24  1  0
 25 26  1  0
 25 27  1  0
 27 28  1  0
M  END
