
     RDKit          3D

 37 39  0  0  0  0  0  0  0  0999 V2000
   -5.7440   -1.1170   -2.5230 O   0  0  0  0  0  0  0  0  0  0  0  0
   -4.2530   -0.6680   -2.4300 P   0  0  0  0  0  0  0  0  0  0  0  0
   -3.1550   -1.7110   -1.6000 O   0  0  0  0  0  0  0  0  0  0  0  0
   -2.2290   -0.9410   -0.8880 C   0  0  0  0  0  0  0  0  0  0  0  0
   -1.3040   -1.9060   -0.1890 C   0  0  2  0  0  0  0  0  0  0  0  0
   -0.2520   -1.1920    0.6340 C   0  0  1  0  0  0  0  0  0  0  0  0
    0.8080   -0.5860   -0.2540 C   0  0  0  0  0  0  0  0  0  0  0  0
    2.2560   -0.0150    0.7530 P   0  0  0  0  0  0  0  0  0  0  0  0
    3.5910   -1.1010    0.6360 O   0  0  0  0  0  0  0  0  0  0  0  0
    4.0190   -1.2500   -0.6890 C   0  0  0  0  0  0  0  0  0  0  0  0
    5.1630   -2.1870   -0.7600 C   0  0  0  0  0  0  0  0  0  0  0  0
    5.7050   -2.4650   -1.8580 O   0  0  0  0  0  0  0  0  0  0  0  0
    5.6380   -2.7640    0.4320 O   0  0  0  0  0  0  0  0  0  0  0  0
    6.6610   -3.6040    0.3910 O   0  0  0  0  0  0  0  0  0  0  0  0
    2.6770    1.5770    0.2060 O   0  0  0  0  0  0  0  0  0  0  0  0
    2.2390    2.4850    1.0860 O   0  0  0  0  0  0  0  0  0  0  0  0
    2.1030    3.8400    0.7460 C   0  0  0  0  0  0  0  0  0  0  0  0
    2.5800    4.7550    1.5020 O   0  0  0  0  0  0  0  0  0  0  0  0
    1.4200    4.2670   -0.4690 C   0  0  0  0  0  0  0  0  0  0  0  0
    1.8690    5.3270   -1.0170 O   0  0  0  0  0  0  0  0  0  0  0  0
    0.3710    3.5240   -0.9280 O   0  0  0  0  0  0  0  0  0  0  0  0
   -0.8350    3.2170   -0.3030 C   0  0  2  0  0  0  0  0  0  0  0  0
   -1.8550    3.6670   -1.1810 O   0  0  0  0  0  0  0  0  0  0  0  0
   -3.0450    3.4280   -0.6900 O   0  0  0  0  0  0  0  0  0  0  0  0
   -1.0530    3.9720    0.9830 C   0  0  0  0  0  0  0  0  0  0  0  0
   -2.5930    3.4550    1.8630 P   0  0  0  0  0  0  0  0  0  0  0  0
   -2.5500    4.1560    3.4520 O   0  0  0  0  0  0  0  0  0  0  0  0
   -2.5610    1.7120    2.0990 O   0  0  0  0  0  0  0  0  0  0  0  0
   -1.0550    1.2060    1.3470 P   0  0  0  0  0  0  0  0  0  0  0  0
   -0.7360   -0.3830    1.5980 O   0  0  0  0  0  0  0  0  0  0  0  0
   -1.0000    1.8560   -0.2030 O   0  0  0  0  0  0  0  0  0  0  0  0
   -0.6680   -2.6940   -1.1320 O   0  0  0  0  0  0  0  0  0  0  0  0
   -1.4270   -3.8290   -1.3160 C   0  0  0  0  0  0  0  0  0  0  0  0
   -2.3380   -3.8880   -0.1250 C   0  0  1  0  0  0  0  0  0  0  0  0
   -2.0600   -5.4890    0.7830 P   0  0  0  0  0  0  0  0  0  0  0  0
   -3.1180   -6.0620    1.7460 O   0  0  0  0  0  0  0  0  0  0  0  0
   -1.9750   -2.7950    0.6250 O   0  0  0  0  0  0  0  0  0  0  0  0
  1  2  2  0
  2  3  1  0
  3  4  1  0
  5  4  1  6
  5  6  1  0
  5 32  1  0
  5 37  1  0
  6  7  1  6
  6 30  1  0
  7  8  1  0
  8  9  1  0
  8 15  1  0
  9 10  1  0
 10 11  1  0
 11 12  2  0
 11 13  1  0
 13 14  1  0
 15 16  1  0
 16 17  1  0
 17 18  2  0
 17 19  1  0
 19 20  2  0
 19 21  1  0
 21 22  1  0
 22 23  1  6
 22 25  1  0
 22 31  1  0
 23 24  1  0
 25 26  1  0
 26 27  1  0
 26 28  1  0
 28 29  1  0
 29 30  1  0
 29 31  1  0
 32 33  1  0
 33 34  1  0
 34 35  1  1
 34 37  1  0
 35 36  2  0
M  END
