
     RDKit          3D

 36 37  0  0  0  0  0  0  0  0999 V2000
   -5.3580   -1.7630    2.9500 O   0  0  0  0  0  0  0  0  0  0  0  0
   -4.5300   -1.5180    1.6700 P   0  0  0  0  0  0  0  0  0  0  0  0
   -3.7650    0.0740    1.2120 C   0  0  0  0  0  0  0  0  0  0  0  0
   -2.2930   -0.0650    0.7570 C   0  0  2  0  0  0  0  0  0  0  0  0
   -2.3440   -0.9900   -0.4520 C   0  0  0  0  0  0  0  0  0  0  0  0
   -2.3700   -2.7690   -0.0570 P   0  0  0  0  0  0  0  0  0  0  0  0
   -1.7810   -3.2990    1.9570 P   0  0  0  0  0  0  0  0  0  0  0  0
   -2.5690   -4.2440    2.8940 O   0  0  0  0  0  0  0  0  0  0  0  0
   -1.4860   -3.6500   -1.2540 O   0  0  0  0  0  0  0  0  0  0  0  0
   -0.7820   -2.5700   -2.4130 P   0  0  0  0  0  0  0  0  0  0  0  0
   -0.9660   -3.2360   -4.0020 O   0  0  0  0  0  0  0  0  0  0  0  0
    0.9180   -2.4260   -1.9920 O   0  0  0  0  0  0  0  0  0  0  0  0
    1.2990   -1.1490   -2.3030 C   0  0  0  0  0  0  0  0  0  0  0  0
    1.5040   -0.2000   -1.1900 C   0  0  2  0  0  0  0  0  0  0  0  0
    3.0030    0.1150   -1.0520 C   0  0  2  0  0  0  0  0  0  0  0  0
    3.2160    1.1670   -0.1760 O   0  0  0  0  0  0  0  0  0  0  0  0
    4.1490    0.7690    0.7720 C   0  0  0  0  0  0  0  0  0  0  0  0
    4.4110    1.7900    1.6890 O   0  0  0  0  0  0  0  0  0  0  0  0
    3.3030    2.1100    2.3010 O   0  0  0  0  0  0  0  0  0  0  0  0
    3.6650    0.7020   -2.7130 P   0  0  0  0  0  0  0  0  0  0  0  0
    3.3690    2.1750   -3.1110 O   0  0  0  0  0  0  0  0  0  0  0  0
    1.0220   -0.5410    0.0370 O   0  0  0  0  0  0  0  0  0  0  0  0
    1.4240   -1.7130    0.5920 C   0  0  0  0  0  0  0  0  0  0  0  0
    1.2920   -1.6410    1.9770 O   0  0  0  0  0  0  0  0  0  0  0  0
    0.6730   -0.5910    2.4400 O   0  0  0  0  0  0  0  0  0  0  0  0
   -0.6810   -0.4060    2.6900 C   0  0  0  0  0  0  0  0  0  0  0  0
   -0.9100   -0.0090    3.9000 O   0  0  0  0  0  0  0  0  0  0  0  0
   -1.5750   -0.6340    1.7350 O   0  0  0  0  0  0  0  0  0  0  0  0
    0.9140    1.0480   -1.5350 O   0  0  0  0  0  0  0  0  0  0  0  0
   -0.3320    1.4870   -1.2390 C   0  0  0  0  0  0  0  0  0  0  0  0
   -1.2150    1.7540   -2.1270 O   0  0  0  0  0  0  0  0  0  0  0  0
   -0.8300    1.7140    0.1720 C   0  0  1  0  0  0  0  0  0  0  0  0
   -0.9890    3.2440    0.2630 C   0  0  0  0  0  0  0  0  0  0  0  0
   -1.8200    3.7030   -0.7550 O   0  0  0  0  0  0  0  0  0  0  0  0
   -1.9660    4.9860   -0.6960 O   0  0  0  0  0  0  0  0  0  0  0  0
   -2.0140    1.1700    0.2900 O   0  0  0  0  0  0  0  0  0  0  0  0
  1  2  2  0
  2  3  1  0
  4  3  1  1
  4  5  1  0
  4 28  1  0
  4 36  1  0
  5  6  1  0
  6  7  1  0
  6  9  1  0
  7  8  2  0
  9 10  1  0
 10 11  1  0
 10 12  1  0
 12 13  1  0
 14 13  1  6
 14 15  1  0
 14 22  1  0
 14 29  1  0
 15 16  1  1
 15 20  1  0
 16 17  1  0
 17 18  1  0
 18 19  1  0
 20 21  2  0
 22 23  1  0
 23 24  1  0
 24 25  1  0
 25 26  1  0
 26 27  2  0
 26 28  1  0
 29 30  1  0
 30 31  2  0
 30 32  1  0
 32 33  1  6
 32 36  1  0
 33 34  1  0
 34 35  1  0
M  END
