
     RDKit          3D

 37 39  0  0  0  0  0  0  0  0999 V2000
    1.7640   -2.4360   -2.7940 C   0  0  0  0  0  0  0  0  0  0  0  0
    1.3000   -1.3080   -3.4610 O   0  0  0  0  0  0  0  0  0  0  0  0
    1.9200   -0.1880   -2.9180 C   0  0  0  0  0  0  0  0  0  0  0  0
    1.5740    0.0160   -1.1330 P   0  0  0  0  0  0  0  0  0  0  0  0
    0.2350   -0.8870   -0.5680 O   0  0  0  0  0  0  0  0  0  0  0  0
   -1.2120    0.0390   -0.8150 P   0  0  0  0  0  0  0  0  0  0  0  0
   -0.9320    1.4270   -1.8110 O   0  0  0  0  0  0  0  0  0  0  0  0
   -1.8430    1.3880   -3.2740 P   0  0  0  0  0  0  0  0  0  0  0  0
   -0.8840    0.6390   -4.5030 O   0  0  0  0  0  0  0  0  0  0  0  0
   -2.2230    2.9970   -3.7410 O   0  0  0  0  0  0  0  0  0  0  0  0
   -1.9140    0.5540    0.6660 O   0  0  0  0  0  0  0  0  0  0  0  0
   -3.2700    0.2450    0.7130 C   0  0  1  0  0  0  0  0  0  0  0  0
   -3.8990    0.6960    2.0190 C   0  0  0  0  0  0  0  0  0  0  0  0
   -5.1890   -0.1260    2.1640 C   0  0  2  0  0  0  0  0  0  0  0  0
   -6.1260    0.5290    2.9530 O   0  0  0  0  0  0  0  0  0  0  0  0
   -5.6660    0.7530    4.1630 O   0  0  0  0  0  0  0  0  0  0  0  0
   -4.9940   -1.4450    2.4820 O   0  0  0  0  0  0  0  0  0  0  0  0
   -5.3040   -2.1800    1.3940 O   0  0  0  0  0  0  0  0  0  0  0  0
   -4.8240   -1.3260    0.4670 C   0  0  1  0  0  0  0  0  0  0  0  0
   -4.9730   -1.4830   -0.9700 C   0  0  0  0  0  0  0  0  0  0  0  0
   -4.5100   -0.1960   -1.4600 O   0  0  0  0  0  0  0  0  0  0  0  0
   -3.9940    0.6810   -0.5040 C   0  0  0  0  0  0  0  0  0  0  0  0
   -4.1650    1.9100   -0.7070 O   0  0  0  0  0  0  0  0  0  0  0  0
   -5.6040   -0.1910    0.8250 O   0  0  0  0  0  0  0  0  0  0  0  0
   -3.4660   -1.1560    0.7440 O   0  0  0  0  0  0  0  0  0  0  0  0
    3.3570   -0.2070    0.1150 P   0  0  0  0  0  0  0  0  0  0  0  0
    3.9080    1.3320    0.5660 O   0  0  0  0  0  0  0  0  0  0  0  0
    5.0870    1.3820    1.2390 C   0  0  0  0  0  0  0  0  0  0  0  0
    5.4250    2.7860    1.5560 C   0  0  0  0  0  0  0  0  0  0  0  0
    6.4610    3.1420    2.1750 O   0  0  0  0  0  0  0  0  0  0  0  0
    4.5590    3.7890    1.1540 O   0  0  0  0  0  0  0  0  0  0  0  0
    4.8130    5.0970    1.4150 O   0  0  0  0  0  0  0  0  0  0  0  0
    3.1330   -1.3860    1.4930 C   0  0  2  0  0  0  0  0  0  0  0  0
    3.1240   -0.7990    2.7490 O   0  0  0  0  0  0  0  0  0  0  0  0
    4.3260   -2.3520    1.4840 C   0  0  0  0  0  0  0  0  0  0  0  0
    4.3990   -3.2670   -0.1210 P   0  0  0  0  0  0  0  0  0  0  0  0
    5.4310   -2.8830   -1.2210 O   0  0  0  0  0  0  0  0  0  0  0  0
  1  2  1  0
  2  3  1  0
  3  4  1  0
  4  5  1  0
  4 26  1  0
  5  6  1  0
  6  7  1  0
  6 11  1  0
  7  8  1  0
  8  9  1  0
  8 10  1  0
 12 11  1  6
 12 13  1  0
 12 22  1  0
 12 25  1  0
 13 14  1  0
 14 15  1  1
 14 17  1  0
 14 24  1  0
 15 16  1  0
 17 18  1  0
 18 19  1  0
 19 20  1  6
 19 24  1  0
 19 25  1  0
 20 21  1  0
 21 22  1  0
 22 23  2  0
 26 27  1  0
 26 33  1  0
 27 28  1  0
 28 29  1  0
 29 30  2  0
 29 31  1  0
 31 32  1  0
 33 34  1  1
 33 35  1  0
 35 36  1  0
 36 37  2  0
M  END
