
     RDKit          3D

 34 34  0  0  0  0  0  0  0  0999 V2000
   -7.6310   -3.7220   -1.6160 C   0  0  0  0  0  0  0  0  0  0  0  0
   -6.3440   -3.5840   -1.0410 O   0  0  0  0  0  0  0  0  0  0  0  0
   -5.5670   -2.4530   -1.2140 C   0  0  0  0  0  0  0  0  0  0  0  0
   -5.9980   -1.4880   -1.9100 O   0  0  0  0  0  0  0  0  0  0  0  0
   -4.3100   -2.3120   -0.6560 O   0  0  0  0  0  0  0  0  0  0  0  0
   -3.5000   -1.1630   -0.8220 C   0  0  0  0  0  0  0  0  0  0  0  0
   -2.2130   -1.4400   -0.0410 C   0  0  0  0  0  0  0  0  0  0  0  0
   -1.3720   -0.3070   -0.1830 O   0  0  0  0  0  0  0  0  0  0  0  0
   -0.1270   -0.2160    0.3940 C   0  0  0  0  0  0  0  0  0  0  0  0
    0.2030   -1.2610    1.0780 O   0  0  0  0  0  0  0  0  0  0  0  0
    0.8380    0.8660    0.3280 C   0  0  1  0  0  0  0  0  0  0  0  0
    0.5450    2.1780    0.9440 C   0  0  0  0  0  0  0  0  0  0  0  0
   -0.5710    2.8760    0.7000 O   0  0  0  0  0  0  0  0  0  0  0  0
   -1.7590    2.4080    1.1550 C   0  0  2  0  0  0  0  0  0  0  0  0
   -2.6810    2.3510    0.0570 O   0  0  0  0  0  0  0  0  0  0  0  0
   -3.1890    3.5400   -0.4350 C   0  0  0  0  0  0  0  0  0  0  0  0
   -3.5780    3.6550   -1.6240 O   0  0  0  0  0  0  0  0  0  0  0  0
   -3.2790    4.7000    0.4430 C   0  0  0  0  0  0  0  0  0  0  0  0
   -3.7310    5.7820    0.0260 O   0  0  0  0  0  0  0  0  0  0  0  0
   -2.8450    4.5800    1.7730 O   0  0  0  0  0  0  0  0  0  0  0  0
   -2.3550    3.3640    2.1770 C   0  0  0  0  0  0  0  0  0  0  0  0
   -2.3990    3.0430    3.3760 O   0  0  0  0  0  0  0  0  0  0  0  0
    2.0970    0.3990    0.8280 O   0  0  0  0  0  0  0  0  0  0  0  0
    3.0530    0.3510   -0.1550 C   0  0  0  0  0  0  0  0  0  0  0  0
    4.6850   -0.2420    0.4430 P   0  0  0  0  0  0  0  0  0  0  0  0
    4.5110   -1.4730    1.6680 O   0  0  0  0  0  0  0  0  0  0  0  0
    5.6490   -0.9190   -0.8240 O   0  0  0  0  0  0  0  0  0  0  0  0
    6.9670    0.1150   -1.2380 P   0  0  0  0  0  0  0  0  0  0  0  0
    8.2640    0.0420   -0.1160 O   0  0  0  0  0  0  0  0  0  0  0  0
    8.1710   -1.3270    0.9340 P   0  0  0  0  0  0  0  0  0  0  0  0
    7.2680   -2.6270    0.2330 O   0  0  0  0  0  0  0  0  0  0  0  0
    7.4540   -0.7910    2.4240 O   0  0  0  0  0  0  0  0  0  0  0  0
    7.6260   -0.1880   -3.3050 P   0  0  0  0  0  0  0  0  0  0  0  0
    6.5790   -0.0220   -4.4390 O   0  0  0  0  0  0  0  0  0  0  0  0
  1  2  1  0
  2  3  1  0
  3  4  2  0
  3  5  1  0
  5  6  1  0
  6  7  1  0
  7  8  1  0
  8  9  1  0
  9 10  2  0
  9 11  1  0
 11 12  1  1
 11 23  1  0
 12 13  1  0
 14 13  1  6
 14 15  1  0
 14 21  1  0
 15 16  1  0
 16 17  2  0
 16 18  1  0
 18 19  2  0
 18 20  1  0
 20 21  1  0
 21 22  2  0
 23 24  1  0
 24 25  1  0
 25 26  1  0
 25 27  1  0
 27 28  1  0
 28 29  1  0
 28 33  1  0
 29 30  1  0
 30 31  1  0
 30 32  1  0
 33 34  2  0
M  END
