
     RDKit          3D

 35 34  0  0  0  0  0  0  0  0999 V2000
   11.7840    1.9290   -1.2470 O   0  0  0  0  0  0  0  0  0  0  0  0
   10.9840    2.4290   -0.0140 P   0  0  0  0  0  0  0  0  0  0  0  0
    9.1820    1.9630    0.1130 C   0  0  0  0  0  0  0  0  0  0  0  0
    9.1300    0.4760    0.3680 C   0  0  0  0  0  0  0  0  0  0  0  0
    7.3620   -0.0860    0.5130 P   0  0  0  0  0  0  0  0  0  0  0  0
    7.1440   -1.6740   -0.1540 O   0  0  0  0  0  0  0  0  0  0  0  0
    6.3320    1.0760   -0.2300 O   0  0  0  0  0  0  0  0  0  0  0  0
    5.4970    0.4510   -1.6000 P   0  0  0  0  0  0  0  0  0  0  0  0
    6.1020   -1.0730   -2.1150 O   0  0  0  0  0  0  0  0  0  0  0  0
    3.7900    0.4220   -1.2990 O   0  0  0  0  0  0  0  0  0  0  0  0
    2.9390   -0.1760   -2.6900 P   0  0  0  0  0  0  0  0  0  0  0  0
    3.9670   -1.2250   -3.6170 O   0  0  0  0  0  0  0  0  0  0  0  0
    1.5060   -1.0280   -2.2620 O   0  0  0  0  0  0  0  0  0  0  0  0
    0.1980    0.0420   -1.8450 P   0  0  0  0  0  0  0  0  0  0  0  0
   -1.0310   -0.9300   -1.1090 O   0  0  0  0  0  0  0  0  0  0  0  0
    0.8530    1.3040   -0.6560 C   0  0  0  0  0  0  0  0  0  0  0  0
   -0.1860    1.5590    0.3630 C   0  0  0  0  0  0  0  0  0  0  0  0
    0.1060    2.4070    1.2690 O   0  0  0  0  0  0  0  0  0  0  0  0
   -1.4230    0.9810    0.4330 O   0  0  0  0  0  0  0  0  0  0  0  0
   -2.3580    1.3050    1.4740 C   0  0  0  0  0  0  0  0  0  0  0  0
   -3.5730    0.5100    1.2440 C   0  0  0  0  0  0  0  0  0  0  0  0
   -4.5600    0.6300    2.0510 O   0  0  0  0  0  0  0  0  0  0  0  0
   -3.7760   -0.3880    0.2140 O   0  0  0  0  0  0  0  0  0  0  0  0
   -4.9830   -1.1100    0.0740 C   0  0  1  0  0  0  0  0  0  0  0  0
   -5.6710   -0.8130   -1.2330 C   0  0  0  0  0  0  0  0  0  0  0  0
   -6.0390    0.6150   -1.4360 C   0  0  0  0  0  0  0  0  0  0  0  0
   -6.9760    1.1730   -0.4480 C   0  0  0  0  0  0  0  0  0  0  0  0
   -7.4690    0.5110    0.4920 O   0  0  0  0  0  0  0  0  0  0  0  0
   -7.3860    2.5190   -0.4990 O   0  0  0  0  0  0  0  0  0  0  0  0
   -8.2320    3.0190    0.3960 O   0  0  0  0  0  0  0  0  0  0  0  0
   -4.7680   -2.6000    0.2250 C   0  0  0  0  0  0  0  0  0  0  0  0
   -4.2390   -2.9810    1.4550 O   0  0  0  0  0  0  0  0  0  0  0  0
   -4.8420   -2.7600    2.6840 C   0  0  0  0  0  0  0  0  0  0  0  0
   -5.9440   -2.1800    2.7420 O   0  0  0  0  0  0  0  0  0  0  0  0
   -4.1550   -3.2140    3.8030 O   0  0  0  0  0  0  0  0  0  0  0  0
  1  2  2  0
  2  3  1  0
  3  4  1  0
  4  5  1  0
  5  6  1  0
  5  7  1  0
  7  8  1  0
  8  9  1  0
  8 10  1  0
 10 11  1  0
 11 12  1  0
 11 13  1  0
 13 14  1  0
 14 15  1  0
 14 16  1  0
 16 17  1  0
 17 18  2  0
 17 19  1  0
 19 20  1  0
 20 21  1  0
 21 22  2  0
 21 23  1  0
 23 24  1  0
 24 25  1  6
 24 31  1  0
 25 26  1  0
 26 27  1  0
 27 28  2  0
 27 29  1  0
 29 30  1  0
 31 32  1  0
 32 33  1  0
 33 34  2  0
 33 35  1  0
M  END
