
     RDKit          3D

 37 40  0  0  0  0  0  0  0  0999 V2000
   -4.3990    3.2340    0.1260 C   0  0  0  0  0  0  0  0  0  0  0  0
   -3.0750    2.7820    0.0140 O   0  0  0  0  0  0  0  0  0  0  0  0
   -2.6690    1.5300    0.5000 C   0  0  0  0  0  0  0  0  0  0  0  0
   -3.5700    0.8550    1.0360 O   0  0  0  0  0  0  0  0  0  0  0  0
   -1.2650    1.0690    0.3730 C   0  0  1  0  0  0  0  0  0  0  0  0
   -0.4800    2.1180    1.2150 C   0  0  0  0  0  0  0  0  0  0  0  0
    0.0450    3.1250    0.4160 O   0  0  0  0  0  0  0  0  0  0  0  0
    1.0000    3.9140    0.9700 C   0  0  0  0  0  0  0  0  0  0  0  0
    2.4090    3.6150    0.5390 C   0  0  0  0  0  0  0  0  0  0  0  0
    2.4980    2.7690   -0.5630 O   0  0  0  0  0  0  0  0  0  0  0  0
    4.0550    1.9890   -0.6850 P   0  0  0  0  0  0  0  0  0  0  0  0
    3.9300    0.7760   -1.9060 O   0  0  0  0  0  0  0  0  0  0  0  0
    4.3920   -0.4600   -2.0930 C   0  0  0  0  0  0  0  0  0  0  0  0
    5.3660   -0.5960   -2.9290 O   0  0  0  0  0  0  0  0  0  0  0  0
    3.9410   -1.7390   -1.4670 C   0  0  0  0  0  0  0  0  0  0  0  0
    2.5750   -1.9490   -1.6250 O   0  0  0  0  0  0  0  0  0  0  0  0
    1.8950   -2.4620   -0.0910 P   0  0  0  0  0  0  0  0  0  0  0  0
    2.1160   -4.2190   -0.1540 O   0  0  0  0  0  0  0  0  0  0  0  0
    1.5410   -4.5380   -1.3240 O   0  0  0  0  0  0  0  0  0  0  0  0
    1.0300   -3.4500   -1.8820 O   0  0  0  0  0  0  0  0  0  0  0  0
   -0.2610   -3.1610   -1.3510 C   0  0  0  0  0  0  0  0  0  0  0  0
    0.0390   -2.2920   -0.0990 C   0  0  1  0  0  0  0  0  0  0  0  0
   -0.4330   -3.0140    0.9810 O   0  0  0  0  0  0  0  0  0  0  0  0
   -0.5810   -1.0280   -0.2480 C   0  0  1  0  0  0  0  0  0  0  0  0
   -1.7240   -1.1830   -1.0920 O   0  0  0  0  0  0  0  0  0  0  0  0
   -2.8930   -2.2330   -0.4540 P   0  0  0  0  0  0  0  0  0  0  0  0
   -3.1710   -3.6880   -1.3680 O   0  0  0  0  0  0  0  0  0  0  0  0
   -4.5360   -1.5070   -0.4340 O   0  0  0  0  0  0  0  0  0  0  0  0
   -5.3160   -1.8620    0.6590 C   0  0  0  0  0  0  0  0  0  0  0  0
   -4.9160   -2.6300    1.5730 O   0  0  0  0  0  0  0  0  0  0  0  0
   -0.9990   -0.1960    0.7370 O   0  0  0  0  0  0  0  0  0  0  0  0
    0.5760    0.2860   -1.0060 P   0  0  0  0  0  0  0  0  0  0  0  0
    1.5270    0.9660    0.1710 O   0  0  0  0  0  0  0  0  0  0  0  0
    2.7500    0.2680    1.0320 P   0  0  0  0  0  0  0  0  0  0  0  0
    2.4310    0.3030    2.7600 O   0  0  0  0  0  0  0  0  0  0  0  0
    4.2270    1.1710    0.8450 O   0  0  0  0  0  0  0  0  0  0  0  0
   -0.8740    1.3880   -0.9350 O   0  0  0  0  0  0  0  0  0  0  0  0
  1  2  1  0
  2  3  1  0
  3  4  2  0
  5  3  1  6
  5  6  1  0
  5 31  1  0
  5 37  1  0
  6  7  1  0
  7  8  1  0
  8  9  1  0
  9 10  1  0
 10 11  1  0
 11 12  1  0
 11 36  1  0
 12 13  1  0
 13 14  2  0
 13 15  1  0
 15 16  1  0
 16 17  1  0
 17 18  1  0
 17 22  1  0
 18 19  1  0
 19 20  1  0
 20 21  1  0
 21 22  1  0
 22 23  1  1
 22 24  1  0
 24 25  1  6
 24 31  1  0
 24 32  1  0
 25 26  1  0
 26 27  1  0
 26 28  1  0
 28 29  1  0
 29 30  2  0
 32 33  1  0
 32 37  1  0
 33 34  1  0
 34 35  1  0
 34 36  1  0
M  END
