
     RDKit          3D

 37 36  0  0  0  0  0  0  0  0999 V2000
   -4.6180    3.5320   -1.1550 C   0  0  0  0  0  0  0  0  0  0  0  0
   -4.4530    2.2450   -0.5830 O   0  0  0  0  0  0  0  0  0  0  0  0
   -5.2220    1.1620   -0.9560 C   0  0  0  0  0  0  0  0  0  0  0  0
   -6.1000    1.3290   -1.8370 O   0  0  0  0  0  0  0  0  0  0  0  0
   -5.0470   -0.1680   -0.3600 C   0  0  1  0  0  0  0  0  0  0  0  0
   -5.9940   -1.0870   -0.9350 O   0  0  0  0  0  0  0  0  0  0  0  0
   -7.3450   -0.8930   -0.8500 C   0  0  0  0  0  0  0  0  0  0  0  0
   -7.8200    0.1040   -0.2620 O   0  0  0  0  0  0  0  0  0  0  0  0
   -8.2130   -1.8340   -1.4350 O   0  0  0  0  0  0  0  0  0  0  0  0
   -3.7900   -0.7570   -0.5840 O   0  0  0  0  0  0  0  0  0  0  0  0
   -2.5730   -0.2760   -0.2040 C   0  0  0  0  0  0  0  0  0  0  0  0
   -2.5230    0.8110    0.4200 O   0  0  0  0  0  0  0  0  0  0  0  0
   -1.2730   -0.9590   -0.4790 C   0  0  2  0  0  0  0  0  0  0  0  0
   -1.3670   -2.3060    0.2390 C   0  0  0  0  0  0  0  0  0  0  0  0
   -2.7640   -3.3260   -0.3730 P   0  0  0  0  0  0  0  0  0  0  0  0
   -3.2490   -2.9430   -1.9720 O   0  0  0  0  0  0  0  0  0  0  0  0
   -2.4620   -5.0210   -0.1580 O   0  0  0  0  0  0  0  0  0  0  0  0
   -0.2000   -0.2650    0.0090 O   0  0  0  0  0  0  0  0  0  0  0  0
    0.6800    0.0120   -1.0290 C   0  0  0  0  0  0  0  0  0  0  0  0
    1.8930    0.7800   -0.5540 C   0  0  0  0  0  0  0  0  0  0  0  0
    2.6710    0.0150    0.4870 C   0  0  0  0  0  0  0  0  0  0  0  0
    4.1380    0.9720    1.0450 P   0  0  0  0  0  0  0  0  0  0  0  0
    5.1720    0.0130    2.0290 O   0  0  0  0  0  0  0  0  0  0  0  0
    4.9880    1.5470   -0.3660 O   0  0  0  0  0  0  0  0  0  0  0  0
    6.2440    0.4300   -0.7950 P   0  0  0  0  0  0  0  0  0  0  0  0
    5.4810   -1.0840   -1.1800 O   0  0  0  0  0  0  0  0  0  0  0  0
    7.3230    0.1520    0.5270 O   0  0  0  0  0  0  0  0  0  0  0  0
    8.3320    1.5320    0.8220 P   0  0  0  0  0  0  0  0  0  0  0  0
    8.1210    2.7400   -0.4000 O   0  0  0  0  0  0  0  0  0  0  0  0
    9.9740    1.0830    1.0270 O   0  0  0  0  0  0  0  0  0  0  0  0
   11.0060    1.9260   -0.0790 P   0  0  0  0  0  0  0  0  0  0  0  0
   11.4530    0.8730   -1.3810 O   0  0  0  0  0  0  0  0  0  0  0  0
   10.2660    3.3400   -0.7200 O   0  0  0  0  0  0  0  0  0  0  0  0
   -5.3660   -0.1410    1.1120 C   0  0  0  0  0  0  0  0  0  0  0  0
   -4.6970    0.5960    1.8820 O   0  0  0  0  0  0  0  0  0  0  0  0
   -6.3690   -0.8910    1.6850 O   0  0  0  0  0  0  0  0  0  0  0  0
   -6.6210   -0.8200    3.0890 C   0  0  0  0  0  0  0  0  0  0  0  0
  1  2  1  0
  2  3  1  0
  3  4  2  0
  3  5  1  0
  5  6  1  6
  5 10  1  0
  5 34  1  0
  6  7  1  0
  7  8  2  0
  7  9  1  0
 10 11  1  0
 11 12  2  0
 11 13  1  0
 13 14  1  1
 13 18  1  0
 14 15  1  0
 15 16  1  0
 15 17  1  0
 18 19  1  0
 19 20  1  0
 20 21  1  0
 21 22  1  0
 22 23  1  0
 22 24  1  0
 24 25  1  0
 25 26  1  0
 25 27  1  0
 27 28  1  0
 28 29  1  0
 28 30  1  0
 30 31  1  0
 31 32  1  0
 31 33  1  0
 34 35  2  0
 34 36  1  0
 36 37  1  0
M  END
