
     RDKit          3D

 11 12  0  0  0  0  0  0  0  0999 V2000
   -3.0240   -0.2420    1.0480 O   0  0  0  0  0  0  0  0  0  0  0  0
   -2.1040   -0.0030    0.2270 C   0  0  0  0  0  0  0  0  0  0  0  0
   -1.0620   -1.0150   -0.0010 C   0  0  0  0  0  0  0  0  0  0  0  0
    0.2680   -0.3220   -0.0410 C   0  0  0  0  0  0  0  0  0  0  0  0
    1.3770   -0.7070    0.4910 C   0  0  0  0  0  0  0  0  0  0  0  0
    2.5770    0.1340    0.3270 C   0  0  0  0  0  0  0  0  0  0  0  0
    2.0570    1.1170   -1.1530 S   0  0  0  0  0  0  0  0  0  0  0  0
    0.3210    0.9100   -0.7720 C   0  0  0  0  0  0  0  0  0  0  0  0
   -0.6980    1.6190   -0.9990 N   0  0  0  0  0  0  0  0  0  0  0  0
   -2.0070    1.2360   -0.5270 C   0  0  0  0  0  0  0  0  0  0  0  0
   -3.0500    1.8950   -0.7230 O   0  0  0  0  0  0  0  0  0  0  0  0
  1  2  2  0
  2  3  1  0
  2 10  1  0
  3  4  1  0
  4  5  2  0
  4  8  1  0
  5  6  1  0
  6  7  1  0
  7  8  1  0
  8  9  2  0
  9 10  1  0
 10 11  2  0
M  END
