
     RDKit          3D

 12 13  0  0  0  0  0  0  0  0999 V2000
    1.1980   -2.3740    0.0820 C   0  0  0  0  0  0  0  0  0  0  0  0
    0.2160   -1.4950    0.0610 C   0  0  0  0  0  0  0  0  0  0  0  0
   -1.1310   -1.7950    0.1020 O   0  0  0  0  0  0  0  0  0  0  0  0
   -1.9180   -0.6620    0.0660 C   0  0  0  0  0  0  0  0  0  0  0  0
   -0.9710    0.5020   -0.0050 C   0  0  0  0  0  0  0  0  0  0  0  0
    0.2920   -0.0180   -0.0070 C   0  0  0  0  0  0  0  0  0  0  0  0
    1.4420    0.6830   -0.0610 N   0  0  0  0  0  0  0  0  0  0  0  0
    1.5360    2.0200   -0.1230 C   0  0  0  0  0  0  0  0  0  0  0  0
    2.6460    2.6250   -0.1730 O   0  0  0  0  0  0  0  0  0  0  0  0
    0.0680    2.8760   -0.1330 S   0  0  0  0  0  0  0  0  0  0  0  0
   -1.2860    1.8560   -0.0600 C   0  0  0  0  0  0  0  0  0  0  0  0
   -2.4990    2.2450   -0.0530 O   0  0  0  0  0  0  0  0  0  0  0  0
  1  2  2  0
  2  3  1  0
  2  6  1  0
  3  4  1  0
  4  5  1  0
  5  6  2  0
  5 11  1  0
  6  7  1  0
  7  8  1  0
  8  9  2  0
  8 10  1  0
 10 11  1  0
 11 12  2  0
M  END
