
     RDKit          3D

 12 13  0  0  0  0  0  0  0  0999 V2000
    3.8000   -1.5550   -0.3040 O   0  0  0  0  0  0  0  0  0  0  0  0
    2.8510   -0.7340   -0.2140 C   0  0  0  0  0  0  0  0  0  0  0  0
    1.5770   -1.1380   -0.3480 N   0  0  0  0  0  0  0  0  0  0  0  0
    0.5060   -0.3600   -0.2720 C   0  0  0  0  0  0  0  0  0  0  0  0
    0.4690    0.9840   -0.0450 C   0  0  0  0  0  0  0  0  0  0  0  0
    1.5700    1.7940    0.1490 C   0  0  0  0  0  0  0  0  0  0  0  0
    1.5030    3.0290    0.3560 O   0  0  0  0  0  0  0  0  0  0  0  0
    3.0570    0.9370    0.0800 S   0  0  0  0  0  0  0  0  0  0  0  0
   -0.7770    1.6430    0.0020 O   0  0  0  0  0  0  0  0  0  0  0  0
   -1.9820    0.9940    0.2770 C   0  0  0  0  0  0  0  0  0  0  0  0
   -1.8140   -0.4590    0.5520 C   0  0  0  0  0  0  0  0  0  0  0  0
   -0.8370   -1.0230   -0.4540 C   0  0  0  0  0  0  0  0  0  0  0  0
  1  2  2  0
  2  3  1  0
  2  8  1  0
  3  4  1  0
  4  5  2  0
  4 12  1  0
  5  6  1  0
  5  9  1  0
  6  7  2  0
  6  8  1  0
  9 10  1  0
 10 11  1  0
 11 12  1  0
M  END
