
     RDKit          3D

 12 13  0  0  0  0  0  0  0  0999 V2000
    3.1800    1.3460    0.5340 O   0  0  0  0  0  0  0  0  0  0  0  0
    2.4270    0.3780    0.2720 C   0  0  0  0  0  0  0  0  0  0  0  0
    2.7660   -0.8980    0.1090 O   0  0  0  0  0  0  0  0  0  0  0  0
    1.6880   -1.5920   -0.1530 N   0  0  0  0  0  0  0  0  0  0  0  0
    0.6190   -0.7800   -0.1670 C   0  0  0  0  0  0  0  0  0  0  0  0
   -0.7220   -0.9840   -0.3850 C   0  0  0  0  0  0  0  0  0  0  0  0
   -1.2700   -2.6460   -0.7330 S   0  0  0  0  0  0  0  0  0  0  0  0
   -1.6030    0.0750   -0.3330 C   0  0  0  0  0  0  0  0  0  0  0  0
   -1.1880    1.3660   -0.0640 C   0  0  0  0  0  0  0  0  0  0  0  0
   -2.1040    2.4070   -0.0200 O   0  0  0  0  0  0  0  0  0  0  0  0
    0.1630    1.5540    0.1530 C   0  0  0  0  0  0  0  0  0  0  0  0
    1.0610    0.5080    0.1050 C   0  0  0  0  0  0  0  0  0  0  0  0
  1  2  2  0
  2  3  1  0
  2 12  1  0
  3  4  1  0
  4  5  1  0
  5  6  2  0
  5 12  1  0
  6  7  1  0
  6  8  1  0
  8  9  2  0
  9 10  1  0
  9 11  1  0
 11 12  2  0
M  END
