
     RDKit          3D

 12 12  0  0  0  0  0  0  0  0999 V2000
    3.8950    0.5420   -0.0280 C   0  0  0  0  0  0  0  0  0  0  0  0
    2.5040    0.6240   -0.2770 O   0  0  0  0  0  0  0  0  0  0  0  0
    1.6020   -0.3490    0.0810 C   0  0  0  0  0  0  0  0  0  0  0  0
    2.0450   -1.3710    0.6640 O   0  0  0  0  0  0  0  0  0  0  0  0
    0.1780   -0.2680   -0.1720 C   0  0  0  0  0  0  0  0  0  0  0  0
   -0.5720   -1.2650    0.2200 C   0  0  0  0  0  0  0  0  0  0  0  0
   -1.9960   -1.4650    0.1090 C   0  0  0  0  0  0  0  0  0  0  0  0
   -2.9700   -0.5940    0.0130 C   0  0  0  0  0  0  0  0  0  0  0  0
   -2.9580    0.8240   -0.0150 N   0  0  0  0  0  0  0  0  0  0  0  0
   -1.9180    1.6850   -0.4250 C   0  0  0  0  0  0  0  0  0  0  0  0
   -2.1790    2.9210   -0.3650 O   0  0  0  0  0  0  0  0  0  0  0  0
   -0.2850    1.2610   -1.0140 S   0  0  0  0  0  0  0  0  0  0  0  0
  1  2  1  0
  2  3  1  0
  3  4  2  0
  3  5  1  0
  5  6  2  0
  5 12  1  0
  6  7  1  0
  7  8  2  0
  8  9  1  0
  9 10  1  0
 10 11  2  0
 10 12  1  0
M  END
