
     RDKit          3D

 17 18  0  0  0  0  0  0  0  0999 V2000
    1.8920    3.0340    0.0420 O   0  0  0  0  0  0  0  0  0  0  0  0
    2.7980    2.2270   -0.1720 C   0  0  0  0  0  0  0  0  0  0  0  0
    4.0730    2.7860   -0.3860 O   0  0  0  0  0  0  0  0  0  0  0  0
    2.6210    0.7980   -0.2120 C   0  0  0  0  0  0  0  0  0  0  0  0
    3.7930    0.0370   -0.4370 C   0  0  0  0  0  0  0  0  0  0  0  0
    3.7740   -1.3170   -0.4730 C   0  0  0  0  0  0  0  0  0  0  0  0
    5.3480   -2.3740   -0.7750 Br  0  0  0  0  0  0  0  0  0  0  0  0
    2.5690   -1.9410   -0.2820 C   0  0  0  0  0  0  0  0  0  0  0  0
    1.3990   -1.2080   -0.0590 C   0  0  0  0  0  0  0  0  0  0  0  0
    1.4170    0.1860   -0.0230 C   0  0  0  0  0  0  0  0  0  0  0  0
    0.2160    0.8750    0.1740 N   0  0  0  0  0  0  0  0  0  0  0  0
   -1.0930    0.4150    0.4630 C   0  0  2  0  0  0  0  0  0  0  0  0
   -1.3240   -0.3900    1.6890 C   0  0  0  0  0  0  0  0  0  0  0  0
   -2.8560   -0.3020    1.9440 C   0  0  0  0  0  0  0  0  0  0  0  0
   -3.5980   -0.7370    0.7020 C   0  0  0  0  0  0  0  0  0  0  0  0
   -3.2040   -0.0480   -0.4880 N   0  0  0  0  0  0  0  0  0  0  0  0
   -1.7630   -0.2530   -0.7110 C   0  0  0  0  0  0  0  0  0  0  0  0
  1  2  2  0
  2  3  1  0
  2  4  1  0
  4  5  2  0
  4 10  1  0
  5  6  1  0
  6  7  1  0
  6  8  2  0
  8  9  1  0
  9 10  2  0
 10 11  1  0
 12 11  1  6
 12 13  1  0
 12 17  1  0
 13 14  1  0
 14 15  1  0
 15 16  1  0
 16 17  1  0
M  CHG  1  16   1
M  END
