
     RDKit          3D

 10 10  0  0  0  0  0  0  0  0999 V2000
    2.7660    1.1100   -0.8680 C   0  0  0  0  0  0  0  0  0  0  0  0
    1.7010    0.3010   -0.2050 C   0  0  0  0  0  0  0  0  0  0  0  0
    1.9830   -0.6800    0.6390 C   0  0  0  0  0  0  0  0  0  0  0  0
    0.9430   -1.4720    1.2870 C   0  0  0  0  0  0  0  0  0  0  0  0
   -0.3480   -1.2610    1.0720 C   0  0  0  0  0  0  0  0  0  0  0  0
   -0.7090   -0.1910    0.1490 C   0  0  0  0  0  0  0  0  0  0  0  0
   -1.9850    0.0570   -0.0970 C   0  0  0  0  0  0  0  0  0  0  0  0
   -3.0010   -0.7100    0.5300 N   0  0  0  0  0  0  0  0  0  0  0  0
   -2.3070    1.1050   -1.0000 N   0  0  0  0  0  0  0  0  0  0  0  0
    0.3280    0.5620   -0.4660 N   0  0  0  0  0  0  0  0  0  0  0  0
  1  2  1  0
  2  3  2  0
  2 10  1  0
  3  4  1  0
  4  5  2  0
  5  6  1  0
  6  7  2  3
  6 10  1  0
  7  8  1  0
  7  9  1  0
M  END
