
     RDKit          3D

 10 10  0  0  0  0  0  0  0  0999 V2000
    2.9950    0.8890   -0.2060 C   0  0  0  0  0  0  0  0  0  0  0  0
    1.8680    0.1090    0.4040 C   0  0  0  0  0  0  0  0  0  0  0  0
    1.8900   -0.7360    1.4210 N   0  0  0  0  0  0  0  0  0  0  0  0
    0.6740   -1.2220    1.6540 C   0  0  0  0  0  0  0  0  0  0  0  0
   -0.2400   -0.6620    0.7210 C   0  0  0  0  0  0  0  0  0  0  0  0
   -1.6550   -0.9800    0.6950 C   0  0  0  0  0  0  0  0  0  0  0  0
   -2.6200   -0.5840   -0.0530 C   0  0  0  0  0  0  0  0  0  0  0  0
   -2.6540    0.3170   -1.1390 N   0  0  0  0  0  0  0  0  0  0  0  0
    0.5440    0.1610   -0.0380 C   0  0  0  0  0  0  0  0  0  0  0  0
    0.1400    0.9770   -1.1310 N   0  0  0  0  0  0  0  0  0  0  0  0
  1  2  1  0
  2  3  1  0
  2  9  2  0
  3  4  1  0
  4  5  2  0
  5  6  1  0
  5  9  1  0
  6  7  2  3
  7  8  1  0
  9 10  1  0
M  CHG  1   8   1
M  END
