
     RDKit          3D

 10 10  0  0  0  0  0  0  0  0999 V2000
    2.0470   -1.4310    0.0240 C   0  0  0  0  0  0  0  0  0  0  0  0
    1.3580   -0.1370   -0.2280 C   0  0  0  0  0  0  0  0  0  0  0  0
    1.8590    0.9990   -0.6620 C   0  0  0  0  0  0  0  0  0  0  0  0
    0.8140    2.0160   -0.7630 C   0  0  0  0  0  0  0  0  0  0  0  0
   -0.3530    1.5130   -0.3890 C   0  0  0  0  0  0  0  0  0  0  0  0
   -1.6150    2.1470   -0.3350 N   0  0  0  0  0  0  0  0  0  0  0  0
   -0.0650    0.1110   -0.0280 C   0  0  0  0  0  0  0  0  0  0  0  0
   -0.9680   -0.7530    0.4030 C   0  0  0  0  0  0  0  0  0  0  0  0
   -0.6020   -2.0770    0.7260 N   0  0  0  0  0  0  0  0  0  0  0  0
   -2.3210   -0.3790    0.5520 N   0  0  0  0  0  0  0  0  0  0  0  0
  1  2  1  0
  2  3  2  0
  2  7  1  0
  3  4  1  0
  4  5  2  0
  5  6  1  0
  5  7  1  0
  7  8  2  3
  8  9  1  0
  8 10  1  0
M  END
