
     RDKit          3D

 10 10  0  0  0  0  0  0  0  0999 V2000
    3.4890   -0.3470    0.2870 N   0  0  0  0  0  0  0  0  0  0  0  0
    2.3800   -0.9380   -0.3460 C   0  0  0  0  0  0  0  0  0  0  0  0
    1.1580   -0.3940   -0.1190 C   0  0  0  0  0  0  0  0  0  0  0  0
    1.0260    0.7530    0.7470 C   0  0  0  0  0  0  0  0  0  0  0  0
   -0.1480    1.3030    0.9870 C   0  0  0  0  0  0  0  0  0  0  0  0
   -1.3520    0.7600    0.3760 C   0  0  0  0  0  0  0  0  0  0  0  0
   -2.6460    1.3560    0.6320 N   0  0  0  0  0  0  0  0  0  0  0  0
   -1.2670   -0.2720   -0.4090 C   0  0  0  0  0  0  0  0  0  0  0  0
   -2.4920   -0.7580   -0.9790 N   0  0  0  0  0  0  0  0  0  0  0  0
   -0.0350   -0.9680   -0.7510 C   0  0  0  0  0  0  0  0  0  0  0  0
  1  2  1  0
  2  3  2  3
  3  4  1  0
  3 10  1  0
  4  5  2  0
  5  6  1  0
  6  7  1  0
  6  8  2  0
  8  9  1  0
  8 10  1  0
M  END
