
     RDKit          3D

 10  9  0  0  0  0  0  0  0  0999 V2000
   -4.1690   -1.0210   -0.3230 N   0  0  0  0  0  0  0  0  0  0  0  0
   -3.2430   -0.0270   -0.8460 C   0  0  0  0  0  0  0  0  0  0  0  0
   -2.7700    0.7540    0.3090 C   0  0  0  0  0  0  0  0  0  0  0  0
   -1.5390    0.8570    0.6890 C   0  0  0  0  0  0  0  0  0  0  0  0
   -0.4490    0.2140    0.0250 C   0  0  0  0  0  0  0  0  0  0  0  0
    0.8210    0.3480    0.4540 C   0  0  0  0  0  0  0  0  0  0  0  0
    1.9260   -0.3060   -0.2220 C   0  0  0  0  0  0  0  0  0  0  0  0
    3.1770   -0.1840    0.1870 C   0  0  0  0  0  0  0  0  0  0  0  0
    4.1900   -0.8630   -0.5410 N   0  0  0  0  0  0  0  0  0  0  0  0
    3.4530    0.6150    1.3280 N   0  0  0  0  0  0  0  0  0  0  0  0
  1  2  1  0
  2  3  1  0
  3  4  2  3
  4  5  1  0
  5  6  2  3
  6  7  1  0
  7  8  2  3
  8  9  1  0
  8 10  1  0
M  END
