
     RDKit          3D

 10 10  0  0  0  0  0  0  0  0999 V2000
    3.0780   -0.4730   -0.5470 N   0  0  0  0  0  0  0  0  0  0  0  0
    1.7290   -0.1150   -0.3150 C   0  0  0  0  0  0  0  0  0  0  0  0
    1.5000    0.4810    0.8580 C   0  0  0  0  0  0  0  0  0  0  0  0
    0.3210    1.0170    1.5340 C   0  0  0  0  0  0  0  0  0  0  0  0
   -0.9630    0.9310    1.4130 N   0  0  0  0  0  0  0  0  0  0  0  0
   -1.8650    0.2440    0.5280 C   0  0  0  0  0  0  0  0  0  0  0  0
   -3.2120    0.1890    1.0070 N   0  0  0  0  0  0  0  0  0  0  0  0
   -1.6770   -0.3440   -0.6410 C   0  0  0  0  0  0  0  0  0  0  0  0
   -0.5150   -0.5390   -1.5010 C   0  0  0  0  0  0  0  0  0  0  0  0
    0.8080   -0.4580   -1.4050 C   0  0  0  0  0  0  0  0  0  0  0  0
  1  2  1  0
  2  3  2  0
  2 10  1  0
  3  4  1  0
  4  5  2  0
  5  6  1  0
  6  7  1  0
  6  8  2  0
  8  9  1  0
  9 10  2  0
M  END
