
     RDKit          3D

 23 25  0  0  0  0  0  0  0  0999 V2000
   -2.6530    2.6600   -1.8340 C   0  0  0  0  0  0  0  0  0  0  0  0
   -3.3460    1.8380   -0.8510 C   0  0  0  0  0  0  0  0  0  0  0  0
   -4.6730    2.1360   -0.6820 C   0  0  0  0  0  0  0  0  0  0  0  0
   -5.3650    3.4110   -1.6170 Cl  0  0  0  0  0  0  0  0  0  0  0  0
   -2.8690    0.7590   -0.0250 C   0  0  0  0  0  0  0  0  0  0  0  0
   -1.7310    0.1750    0.1310 C   0  0  0  0  0  0  0  0  0  0  0  0
   -0.4710    0.4690   -0.5540 C   0  0  0  0  0  0  0  0  0  0  0  0
   -0.3490    1.3730   -1.4170 O   0  0  0  0  0  0  0  0  0  0  0  0
    0.7530   -0.2470   -0.3090 N   0  0  0  0  0  0  0  0  0  0  0  0
    1.9650    0.0730   -1.0000 C   0  0  0  0  0  0  0  0  0  0  0  0
    2.2440    0.9810   -1.9190 N   0  0  0  0  0  0  0  0  0  0  0  0
    3.5240    0.9140   -2.2820 N   0  0  0  0  0  0  0  0  0  0  0  0
    4.1090   -0.0610   -1.5890 C   0  0  0  0  0  0  0  0  0  0  0  0
    3.1390   -0.6040   -0.7740 C   0  0  0  0  0  0  0  0  0  0  0  0
    3.4700   -1.7320    0.1420 C   0  0  0  0  0  0  0  0  0  0  0  0
    4.6790   -2.3010   -0.2050 O   0  0  0  0  0  0  0  0  0  0  0  0
    5.6680   -1.3380   -0.2510 C   0  0  0  0  0  0  0  0  0  0  0  0
    5.4910   -0.5840   -1.5710 C   0  0  0  0  0  0  0  0  0  0  0  0
   -1.8620   -0.8920    1.1470 C   0  0  0  0  0  0  0  0  0  0  0  0
   -0.6620   -2.0070    1.7670 Cl  0  0  0  0  0  0  0  0  0  0  0  0
   -3.1050   -0.9450    1.6060 C   0  0  0  0  0  0  0  0  0  0  0  0
   -3.6270   -1.8780    2.6290 C   0  0  0  0  0  0  0  0  0  0  0  0
   -3.8570    0.0740    0.9260 C   0  0  0  0  0  0  0  0  0  0  0  0
  1  2  1  0
  2  3  2  3
  2  5  1  0
  3  4  1  0
  5  6  2  0
  5 23  1  0
  6  7  1  0
  6 19  1  0
  7  8  2  0
  7  9  1  0
  9 10  1  0
 10 11  1  0
 10 14  2  0
 11 12  1  0
 12 13  2  0
 13 14  1  0
 13 18  1  0
 14 15  1  0
 15 16  1  0
 16 17  1  0
 17 18  1  0
 19 20  1  0
 19 21  2  0
 21 22  1  0
 21 23  1  0
M  END
