
     RDKit          3D

 23 25  0  0  0  0  0  0  0  0999 V2000
   -1.3450   -0.1420    2.9790 C   0  0  0  0  0  0  0  0  0  0  0  0
   -0.8880   -0.3140    1.5490 C   0  0  2  0  0  0  0  0  0  0  0  0
    0.1900    0.5200    1.2190 O   0  0  0  0  0  0  0  0  0  0  0  0
    1.4520    0.0120    0.8480 C   0  0  0  0  0  0  0  0  0  0  0  0
    1.5170   -1.2330    0.8420 O   0  0  0  0  0  0  0  0  0  0  0  0
    2.5260    0.8650    0.5190 N   0  0  0  0  0  0  0  0  0  0  0  0
    3.7970    0.4370    0.1480 C   0  0  0  0  0  0  0  0  0  0  0  0
    4.2350   -0.8580    0.2140 C   0  0  0  0  0  0  0  0  0  0  0  0
    5.5140   -1.2210   -0.1840 C   0  0  0  0  0  0  0  0  0  0  0  0
    6.3560   -0.2440   -0.6560 C   0  0  0  0  0  0  0  0  0  0  0  0
    8.0000   -0.6150   -1.1840 Cl  0  0  0  0  0  0  0  0  0  0  0  0
    5.9610    1.0710   -0.7400 C   0  0  0  0  0  0  0  0  0  0  0  0
    7.0330    2.3170   -1.3410 Cl  0  0  0  0  0  0  0  0  0  0  0  0
    4.6910    1.3900   -0.3370 C   0  0  0  0  0  0  0  0  0  0  0  0
   -2.0570   -0.1260    0.6790 C   0  0  0  0  0  0  0  0  0  0  0  0
   -2.6120    1.0310    0.2600 N   0  0  0  0  0  0  0  0  0  0  0  0
   -3.6650    0.7670   -0.5190 C   0  0  0  0  0  0  0  0  0  0  0  0
   -4.5880    1.5450   -1.2090 C   0  0  0  0  0  0  0  0  0  0  0  0
   -5.5790    0.9220   -1.9400 C   0  0  0  0  0  0  0  0  0  0  0  0
   -5.6630   -0.4540   -1.9940 C   0  0  0  0  0  0  0  0  0  0  0  0
   -4.7560   -1.2390   -1.3160 C   0  0  0  0  0  0  0  0  0  0  0  0
   -3.7600   -0.6050   -0.5820 C   0  0  0  0  0  0  0  0  0  0  0  0
   -2.7780   -1.1260    0.1500 N   0  0  0  0  0  0  0  0  0  0  0  0
  2  1  1  1
  2  3  1  0
  2 15  1  0
  3  4  1  0
  4  5  2  0
  4  6  1  0
  6  7  1  0
  7  8  2  0
  7 14  1  0
  8  9  1  0
  9 10  2  0
 10 11  1  0
 10 12  1  0
 12 13  1  0
 12 14  2  0
 15 16  2  0
 15 23  1  0
 16 17  1  0
 17 18  2  0
 17 22  1  0
 18 19  1  0
 19 20  2  0
 20 21  1  0
 21 22  2  0
 22 23  1  0
M  END
