
     RDKit          3D

 23 25  0  0  0  0  0  0  0  0999 V2000
    3.0920   -2.8380   -0.2530 C   0  0  0  0  0  0  0  0  0  0  0  0
    2.7080   -1.4930    0.3260 C   0  0  2  0  0  0  0  0  0  0  0  0
    1.5610   -0.9240   -0.3460 N   0  0  0  0  0  0  0  0  0  0  0  0
    0.3450   -0.6750    0.3740 C   0  0  0  0  0  0  0  0  0  0  0  0
    0.3620   -0.9760    1.5770 O   0  0  0  0  0  0  0  0  0  0  0  0
   -0.8100   -0.1160   -0.2490 N   0  0  0  0  0  0  0  0  0  0  0  0
   -2.0320    0.1570    0.3910 C   0  0  0  0  0  0  0  0  0  0  0  0
   -2.2430   -0.0890    1.7260 C   0  0  0  0  0  0  0  0  0  0  0  0
   -3.4790    0.2120    2.2780 C   0  0  0  0  0  0  0  0  0  0  0  0
   -3.7470   -0.1050    3.9840 Cl  0  0  0  0  0  0  0  0  0  0  0  0
   -4.5000    0.7440    1.5540 C   0  0  0  0  0  0  0  0  0  0  0  0
   -4.3040    0.9950    0.2260 C   0  0  0  0  0  0  0  0  0  0  0  0
   -5.3370    1.5210   -0.4550 N   0  0  0  0  0  0  0  0  0  0  0  0
   -5.2090    1.7910   -1.7610 C   0  0  0  0  0  0  0  0  0  0  0  0
   -4.0290    1.5330   -2.4130 C   0  0  0  0  0  0  0  0  0  0  0  0
   -2.9600    0.9900   -1.7150 C   0  0  0  0  0  0  0  0  0  0  0  0
   -3.0710    0.7070   -0.3760 C   0  0  0  0  0  0  0  0  0  0  0  0
    3.8690   -0.5490    0.2690 C   0  0  0  0  0  0  0  0  0  0  0  0
    3.8080    0.8000    0.5150 C   0  0  0  0  0  0  0  0  0  0  0  0
    5.0800    1.3120    0.3620 C   0  0  0  0  0  0  0  0  0  0  0  0
    5.8660    0.2290    0.0250 C   0  0  0  0  0  0  0  0  0  0  0  0
    7.6000    0.3890   -0.2760 Cl  0  0  0  0  0  0  0  0  0  0  0  0
    5.1200   -0.8220   -0.0150 O   0  0  0  0  0  0  0  0  0  0  0  0
  2  1  1  6
  2  3  1  0
  2 18  1  0
  3  4  1  0
  4  5  2  0
  4  6  1  0
  6  7  1  0
  7  8  2  0
  7 17  1  0
  8  9  1  0
  9 10  1  0
  9 11  2  0
 11 12  1  0
 12 13  2  0
 12 17  1  0
 13 14  1  0
 14 15  2  0
 15 16  1  0
 16 17  2  0
 18 19  2  0
 18 23  1  0
 19 20  1  0
 20 21  2  0
 21 22  1  0
 21 23  1  0
M  END
