
     RDKit          3D

 23 25  0  0  0  0  0  0  0  0999 V2000
    1.8740    0.5090   -0.5900 O   0  0  0  0  0  0  0  0  0  0  0  0
    1.8440   -0.5660    0.0470 C   0  0  0  0  0  0  0  0  0  0  0  0
    3.1050   -1.1980    0.2850 N   0  0  0  0  0  0  0  0  0  0  0  0
    4.3520   -0.6940   -0.1370 C   0  0  0  0  0  0  0  0  0  0  0  0
    5.4090   -1.6180   -0.1130 C   0  0  0  0  0  0  0  0  0  0  0  0
    6.6390   -1.2910   -0.4630 N   0  0  0  0  0  0  0  0  0  0  0  0
    6.9500   -0.0480   -0.8650 C   0  0  0  0  0  0  0  0  0  0  0  0
    5.9450    0.8840   -0.9020 C   0  0  0  0  0  0  0  0  0  0  0  0
    6.2450    2.5390   -1.4120 Cl  0  0  0  0  0  0  0  0  0  0  0  0
    4.6280    0.5780   -0.5380 C   0  0  0  0  0  0  0  0  0  0  0  0
    0.6370   -1.1400    0.5130 N   0  0  0  0  0  0  0  0  0  0  0  0
   -0.6420   -0.6060    0.3350 C   0  0  0  0  0  0  0  0  0  0  0  0
   -0.8820    0.5610   -0.3270 C   0  0  0  0  0  0  0  0  0  0  0  0
   -2.1970    1.0190   -0.4570 C   0  0  0  0  0  0  0  0  0  0  0  0
   -3.2840    0.3500    0.0530 C   0  0  0  0  0  0  0  0  0  0  0  0
   -4.6480    0.8480   -0.0950 C   0  0  0  0  0  0  0  0  0  0  0  0
   -5.7690    0.2160    0.3970 C   0  0  0  0  0  0  0  0  0  0  0  0
   -6.8260    1.0400    0.0240 C   0  0  0  0  0  0  0  0  0  0  0  0
   -6.2950    2.1070   -0.6620 C   0  0  0  0  0  0  0  0  0  0  0  0
   -4.9760    1.9440   -0.7060 O   0  0  0  0  0  0  0  0  0  0  0  0
   -2.9880   -0.8250    0.7140 C   0  0  0  0  0  0  0  0  0  0  0  0
   -1.7280   -1.3140    0.8680 C   0  0  0  0  0  0  0  0  0  0  0  0
   -1.4300   -2.8360    1.7340 Cl  0  0  0  0  0  0  0  0  0  0  0  0
  1  2  2  0
  2  3  1  0
  2 11  1  0
  3  4  1  0
  4  5  2  0
  4 10  1  0
  5  6  1  0
  6  7  2  0
  7  8  1  0
  8  9  1  0
  8 10  2  0
 11 12  1  0
 12 13  2  0
 12 22  1  0
 13 14  1  0
 14 15  2  0
 15 16  1  0
 15 21  1  0
 16 17  2  0
 16 20  1  0
 17 18  1  0
 18 19  2  0
 19 20  1  0
 21 22  2  0
 22 23  1  0
M  END
