
     RDKit          3D

 23 25  0  0  0  0  0  0  0  0999 V2000
   -0.0660   -1.8750   -1.0280 C   0  0  0  0  0  0  0  0  0  0  0  0
   -0.5960   -0.6570   -0.3740 C   0  0  0  0  0  0  0  0  0  0  0  0
    0.2560    0.2370    0.0740 C   0  0  0  0  0  0  0  0  0  0  0  0
    1.6730    0.0500   -0.0610 N   0  0  0  0  0  0  0  0  0  0  0  0
    2.6020    1.0020    0.4150 C   0  0  0  0  0  0  0  0  0  0  0  0
    2.1410    2.0540    0.9800 O   0  0  0  0  0  0  0  0  0  0  0  0
    4.0500    0.8410    0.2930 C   0  0  0  0  0  0  0  0  0  0  0  0
    4.6450   -0.1850   -0.2620 C   0  0  0  0  0  0  0  0  0  0  0  0
    6.1090   -0.3680   -0.3970 C   0  0  0  0  0  0  0  0  0  0  0  0
    6.8350    0.6880    0.1400 O   0  0  0  0  0  0  0  0  0  0  0  0
    6.2170    1.7660    0.7230 C   0  0  0  0  0  0  0  0  0  0  0  0
    4.9180    1.9100    0.8320 C   0  0  0  0  0  0  0  0  0  0  0  0
   -2.0230   -0.4220   -0.2130 C   0  0  0  0  0  0  0  0  0  0  0  0
   -2.6490    0.6210    0.3520 N   0  0  0  0  0  0  0  0  0  0  0  0
   -3.9850    0.4850    0.3150 C   0  0  0  0  0  0  0  0  0  0  0  0
   -5.0660    1.2300    0.7350 C   0  0  0  0  0  0  0  0  0  0  0  0
   -6.3780    0.8460    0.5680 C   0  0  0  0  0  0  0  0  0  0  0  0
   -7.7230    1.8290    1.1200 Cl  0  0  0  0  0  0  0  0  0  0  0  0
   -6.5940   -0.3810   -0.0720 C   0  0  0  0  0  0  0  0  0  0  0  0
   -8.2560   -0.8770   -0.2900 Cl  0  0  0  0  0  0  0  0  0  0  0  0
   -5.5240   -1.1340   -0.4960 C   0  0  0  0  0  0  0  0  0  0  0  0
   -4.2190   -0.7360   -0.3210 C   0  0  0  0  0  0  0  0  0  0  0  0
   -3.0200   -1.2570   -0.6260 N   0  0  0  0  0  0  0  0  0  0  0  0
  1  2  1  0
  2  3  2  3
  2 13  1  0
  3  4  1  0
  4  5  1  0
  5  6  2  0
  5  7  1  0
  7  8  2  0
  7 12  1  0
  8  9  1  0
  9 10  1  0
 10 11  1  0
 11 12  2  0
 13 14  2  0
 13 23  1  0
 14 15  1  0
 15 16  2  0
 15 22  1  0
 16 17  1  0
 17 18  1  0
 17 19  2  0
 19 20  1  0
 19 21  1  0
 21 22  2  0
 22 23  1  0
M  END
