
     RDKit          3D

 23 25  0  0  0  0  0  0  0  0999 V2000
   -1.7590    2.2420    0.5240 C   0  0  0  0  0  0  0  0  0  0  0  0
   -2.6710    1.3310    0.3520 C   0  0  0  0  0  0  0  0  0  0  0  0
   -4.1050    1.8220    0.5020 C   0  0  0  0  0  0  0  0  0  0  0  0
   -4.0970    3.5780    0.8290 Cl  0  0  0  0  0  0  0  0  0  0  0  0
   -2.5440   -0.0810    0.0540 C   0  0  2  0  0  0  0  0  0  0  0  0
   -3.5540   -0.9940    0.6810 C   0  0  0  0  0  0  0  0  0  0  0  0
   -3.7450   -2.1820   -0.2880 C   0  0  0  0  0  0  0  0  0  0  0  0
   -2.5440   -2.3540   -1.1150 N   0  0  0  0  0  0  0  0  0  0  0  0
   -1.2760   -1.9280   -0.6260 C   0  0  0  0  0  0  0  0  0  0  0  0
   -0.1600   -2.6830   -0.7820 O   0  0  0  0  0  0  0  0  0  0  0  0
   -1.2430   -0.7170    0.0080 C   0  0  0  0  0  0  0  0  0  0  0  0
    0.0250   -0.2860    0.5470 C   0  0  0  0  0  0  0  0  0  0  0  0
    0.2780    0.1240    1.8030 N   0  0  0  0  0  0  0  0  0  0  0  0
    1.5790    0.4280    1.8610 N   0  0  0  0  0  0  0  0  0  0  0  0
    2.1190    0.2080    0.6580 C   0  0  0  0  0  0  0  0  0  0  0  0
    3.5040    0.3960    0.2390 C   0  0  0  0  0  0  0  0  0  0  0  0
    3.8920    0.1370   -1.0450 C   0  0  0  0  0  0  0  0  0  0  0  0
    5.2000    0.3040   -1.4800 C   0  0  0  0  0  0  0  0  0  0  0  0
    6.1330    0.7470   -0.5760 C   0  0  0  0  0  0  0  0  0  0  0  0
    7.8200    0.9850   -1.0530 Cl  0  0  0  0  0  0  0  0  0  0  0  0
    5.7640    1.0140    0.7240 C   0  0  0  0  0  0  0  0  0  0  0  0
    4.4770    0.8440    1.1330 C   0  0  0  0  0  0  0  0  0  0  0  0
    1.1550   -0.2230   -0.1130 O   0  0  0  0  0  0  0  0  0  0  0  0
  1  2  2  0
  2  3  1  0
  5  2  1  1
  3  4  1  0
  5  6  1  0
  5 11  1  0
  6  7  1  0
  7  8  1  0
  8  9  1  0
  9 10  1  0
  9 11  2  0
 11 12  1  0
 12 13  2  0
 12 23  1  0
 13 14  1  0
 14 15  2  0
 15 16  1  0
 15 23  1  0
 16 17  2  0
 16 22  1  0
 17 18  1  0
 18 19  2  0
 19 20  1  0
 19 21  1  0
 21 22  2  0
M  END
