
     RDKit          3D

 23 25  0  0  0  0  0  0  0  0999 V2000
   -2.9120   -2.4290   -0.9750 C   0  0  0  0  0  0  0  0  0  0  0  0
   -2.9420   -1.8440    0.4030 C   0  0  0  0  0  0  0  0  0  0  0  0
   -2.0880   -0.6170    0.5370 C   0  0  0  0  0  0  0  0  0  0  0  0
   -2.7690    0.4850    0.8940 C   0  0  0  0  0  0  0  0  0  0  0  0
   -4.2150    0.3900    1.1130 C   0  0  0  0  0  0  0  0  0  0  0  0
   -2.2200    1.7750    1.0730 N   0  0  0  0  0  0  0  0  0  0  0  0
   -1.0420    2.2940    0.4520 C   0  0  0  0  0  0  0  0  0  0  0  0
   -0.8100    3.5780    0.1910 N   0  0  0  0  0  0  0  0  0  0  0  0
    0.3930    3.6090   -0.4090 C   0  0  0  0  0  0  0  0  0  0  0  0
    0.9400    4.6920   -0.8030 O   0  0  0  0  0  0  0  0  0  0  0  0
    0.8830    2.4000   -0.5140 O   0  0  0  0  0  0  0  0  0  0  0  0
    0.0530    1.5460   -0.0040 C   0  0  0  0  0  0  0  0  0  0  0  0
    0.2510    0.1040    0.0640 C   0  0  0  0  0  0  0  0  0  0  0  0
    1.5950   -0.4340   -0.1300 C   0  0  0  0  0  0  0  0  0  0  0  0
    2.7150    0.2970   -0.3510 C   0  0  0  0  0  0  0  0  0  0  0  0
    3.9750   -0.2930   -0.5180 C   0  0  0  0  0  0  0  0  0  0  0  0
    5.1910    0.5110   -0.7590 C   0  0  0  0  0  0  0  0  0  0  0  0
    4.0400   -1.6540   -0.4480 C   0  0  0  0  0  0  0  0  0  0  0  0
    5.5820   -2.4380   -0.6490 Cl  0  0  0  0  0  0  0  0  0  0  0  0
    2.9330   -2.4400   -0.2260 C   0  0  0  0  0  0  0  0  0  0  0  0
    1.7120   -1.8230   -0.0670 C   0  0  0  0  0  0  0  0  0  0  0  0
    0.3300   -2.8660    0.2200 Cl  0  0  0  0  0  0  0  0  0  0  0  0
   -0.6970   -0.7450    0.2950 N   0  0  0  0  0  0  0  0  0  0  0  0
  1  2  1  0
  2  3  1  0
  3  4  2  0
  3 23  1  0
  4  5  1  0
  4  6  1  0
  6  7  1  0
  7  8  1  0
  7 12  2  0
  8  9  1  0
  9 10  2  0
  9 11  1  0
 11 12  1  0
 12 13  1  0
 13 14  1  0
 13 23  2  0
 14 15  2  0
 14 21  1  0
 15 16  1  0
 16 17  1  0
 16 18  2  0
 18 19  1  0
 18 20  1  0
 20 21  2  0
 21 22  1  0
M  END
