
     RDKit          3D

 29 32  0  0  0  0  0  0  0  0999 V2000
   -5.4930   -3.3740   -0.1450 C   0  0  0  0  0  0  0  0  0  0  0  0
   -5.4730   -2.0480   -0.8800 C   0  0  0  0  0  0  0  0  0  0  0  0
   -5.3720   -1.0040    0.1210 N   0  0  0  0  0  0  0  0  0  0  0  0
   -5.1530    0.2950   -0.4590 C   0  0  1  0  0  0  0  0  0  0  0  0
   -6.3380    1.1700   -0.2080 C   0  0  0  0  0  0  0  0  0  0  0  0
   -5.9910    2.6390   -0.1660 C   0  0  0  0  0  0  0  0  0  0  0  0
   -5.0170    2.8500    0.9770 C   0  0  0  0  0  0  0  0  0  0  0  0
   -3.7850    2.1060    0.6380 C   0  0  0  0  0  0  0  0  0  0  0  0
   -3.8740    0.9140   -0.0340 C   0  0  0  0  0  0  0  0  0  0  0  0
   -2.7080    0.2370   -0.3390 C   0  0  0  0  0  0  0  0  0  0  0  0
   -1.4630    0.7150    0.0050 C   0  0  0  0  0  0  0  0  0  0  0  0
   -0.2650   -0.0010   -0.3200 N   0  0  0  0  0  0  0  0  0  0  0  0
    1.0190    0.4880    0.0340 C   0  0  0  0  0  0  0  0  0  0  0  0
    1.0840    1.5840    0.6500 O   0  0  0  0  0  0  0  0  0  0  0  0
    2.2200   -0.2380   -0.2970 N   0  0  0  0  0  0  0  0  0  0  0  0
    3.5140    0.2930    0.0810 C   0  0  0  0  0  0  0  0  0  0  0  0
    4.5590   -0.6380   -0.3740 C   0  0  0  0  0  0  0  0  0  0  0  0
    4.3830   -1.7830   -1.0250 N   0  0  0  0  0  0  0  0  0  0  0  0
    5.5690   -2.3040   -1.2420 N   0  0  0  0  0  0  0  0  0  0  0  0
    6.5310   -1.5080   -0.7380 C   0  0  0  0  0  0  0  0  0  0  0  0
    7.9090   -1.6350   -0.7230 C   0  0  0  0  0  0  0  0  0  0  0  0
    8.6750   -0.6550   -0.1280 C   0  0  0  0  0  0  0  0  0  0  0  0
   10.1640   -0.7660   -0.0970 C   0  0  0  0  0  0  0  0  0  0  0  0
    8.0020    0.4160    0.4290 C   0  0  0  0  0  0  0  0  0  0  0  0
    6.6280    0.5080    0.3950 C   0  0  0  0  0  0  0  0  0  0  0  0
    5.8810   -0.4670   -0.1960 N   0  0  0  0  0  0  0  0  0  0  0  0
   -1.4100    1.8860    0.6630 N   0  0  0  0  0  0  0  0  0  0  0  0
   -2.5280    2.5650    0.9730 C   0  0  0  0  0  0  0  0  0  0  0  0
   -2.3480    4.0900    1.8360 Cl  0  0  0  0  0  0  0  0  0  0  0  0
  1  2  1  0
  2  3  1  0
  4  3  1  1
  4  5  1  0
  4  9  1  0
  5  6  1  0
  6  7  1  0
  7  8  1  0
  8  9  2  0
  8 28  1  0
  9 10  1  0
 10 11  2  0
 11 12  1  0
 11 27  1  0
 12 13  1  0
 13 14  2  0
 13 15  1  0
 15 16  1  0
 16 17  1  0
 17 18  2  0
 17 26  1  0
 18 19  1  0
 19 20  2  0
 20 21  1  0
 20 26  1  0
 21 22  2  0
 22 23  1  0
 22 24  1  0
 24 25  2  0
 25 26  1  0
 27 28  2  0
 28 29  1  0
M  CHG  1   3   1
M  END
