
     RDKit          3D

 29 32  0  0  0  0  0  0  0  0999 V2000
   -7.0670    2.2730   -2.1740 C   0  0  0  0  0  0  0  0  0  0  0  0
   -6.6520    1.2690   -1.3950 C   0  0  0  0  0  0  0  0  0  0  0  0
   -7.5440    0.2190   -1.0670 N   0  0  0  0  0  0  0  0  0  0  0  0
   -7.0760   -0.8230   -0.2310 C   0  0  0  0  0  0  0  0  0  0  0  0
   -5.8750   -0.8290    0.2450 C   0  0  0  0  0  0  0  0  0  0  0  0
   -5.0800   -1.7000    1.0860 N   0  0  0  0  0  0  0  0  0  0  0  0
   -3.7920   -1.4440    0.9180 C   0  0  0  0  0  0  0  0  0  0  0  0
   -2.7860   -2.1580    1.6320 C   0  0  0  0  0  0  0  0  0  0  0  0
   -1.5300   -2.0000    1.6600 C   0  0  0  0  0  0  0  0  0  0  0  0
   -0.6140   -3.1530    2.6980 Cl  0  0  0  0  0  0  0  0  0  0  0  0
   -0.7380   -0.9530    1.0920 C   0  0  0  0  0  0  0  0  0  0  0  0
    0.6650   -1.0380    1.0750 C   0  0  0  0  0  0  0  0  0  0  0  0
    1.4950   -0.0550    0.6110 C   0  0  0  0  0  0  0  0  0  0  0  0
    2.9120   -0.1820    0.6140 N   0  0  0  0  0  0  0  0  0  0  0  0
    3.4970   -1.4020    1.1220 C   0  0  0  0  0  0  0  0  0  0  0  0
    3.7630    0.8920    0.1210 C   0  0  0  0  0  0  0  0  0  0  0  0
    4.4550    0.5320   -1.1030 C   0  0  0  0  0  0  0  0  0  0  0  0
    5.6960    0.4450   -1.3620 C   0  0  0  0  0  0  0  0  0  0  0  0
    6.8660    0.6610   -0.5640 C   0  0  0  0  0  0  0  0  0  0  0  0
    7.0350    0.9870    0.7470 C   0  0  0  0  0  0  0  0  0  0  0  0
    8.4070    1.0730    1.0000 C   0  0  0  0  0  0  0  0  0  0  0  0
    9.0090    0.7910   -0.1800 C   0  0  0  0  0  0  0  0  0  0  0  0
    8.1130    0.5560   -1.0700 O   0  0  0  0  0  0  0  0  0  0  0  0
    0.9050    1.0820    0.1350 N   0  0  0  0  0  0  0  0  0  0  0  0
   -0.4310    1.2030    0.1330 C   0  0  0  0  0  0  0  0  0  0  0  0
   -1.2000    0.2100    0.5990 N   0  0  0  0  0  0  0  0  0  0  0  0
   -3.7410   -0.4740   -0.1360 N   0  0  0  0  0  0  0  0  0  0  0  0
   -4.9200    0.3480    0.1100 C   0  0  1  0  0  0  0  0  0  0  0  0
   -5.3280    1.2280   -0.8820 N   0  0  0  0  0  0  0  0  0  0  0  0
  1  2  2  0
  2  3  1  0
  2 29  1  0
  3  4  1  0
  4  5  2  0
  5  6  1  0
  5 28  1  0
  6  7  2  0
  7  8  1  0
  7 27  1  0
  8  9  2  3
  9 10  1  0
  9 11  1  0
 11 12  2  0
 11 26  1  0
 12 13  1  0
 13 14  1  0
 13 24  2  0
 14 15  1  0
 14 16  1  0
 16 17  1  0
 17 18  2  3
 18 19  1  0
 19 20  2  0
 19 23  1  0
 20 21  1  0
 21 22  2  0
 22 23  1  0
 24 25  1  0
 25 26  2  0
 28 27  1  6
 28 29  1  0
M  CHG  1   6   1
M  END
