
     RDKit          3D

 29 32  0  0  0  0  0  0  0  0999 V2000
    5.2770   -1.3670   -0.6010 C   0  0  0  0  0  0  0  0  0  0  0  0
    4.8250    0.0250   -0.8200 C   0  0  2  0  0  0  0  0  0  0  0  0
    3.6870    0.2760   -1.7340 C   0  0  0  0  0  0  0  0  0  0  0  0
    2.4610   -0.3290   -1.3410 N   0  0  0  0  0  0  0  0  0  0  0  0
    2.1050   -1.6810   -1.2650 C   0  0  0  0  0  0  0  0  0  0  0  0
    2.9170   -2.5480   -1.5850 O   0  0  0  0  0  0  0  0  0  0  0  0
    0.7760   -2.1030   -0.8070 C   0  0  0  0  0  0  0  0  0  0  0  0
    0.5720   -3.4560   -0.5080 C   0  0  0  0  0  0  0  0  0  0  0  0
   -0.6690   -3.8400   -0.0880 C   0  0  0  0  0  0  0  0  0  0  0  0
   -1.7030   -2.9510    0.0460 N   0  0  0  0  0  0  0  0  0  0  0  0
   -1.5440   -1.6570   -0.2300 C   0  0  0  0  0  0  0  0  0  0  0  0
   -2.6300   -0.7040   -0.0850 C   0  0  2  0  0  0  0  0  0  0  0  0
   -2.2060    0.5570    0.5070 N   0  0  0  0  0  0  0  0  0  0  0  0
   -3.2170    1.5260    0.7370 C   0  0  0  0  0  0  0  0  0  0  0  0
   -2.9910    2.7630    0.7400 O   0  0  0  0  0  0  0  0  0  0  0  0
   -4.5890    1.0910    0.9830 C   0  0  0  0  0  0  0  0  0  0  0  0
   -4.8010   -0.2120    0.9740 C   0  0  0  0  0  0  0  0  0  0  0  0
   -6.1000   -0.8870    1.1980 C   0  0  0  0  0  0  0  0  0  0  0  0
   -7.0140   -0.5590    0.0570 C   0  0  0  0  0  0  0  0  0  0  0  0
   -6.7720    0.8380   -0.4820 C   0  0  0  0  0  0  0  0  0  0  0  0
   -6.8920    1.8970    0.5740 C   0  0  0  0  0  0  0  0  0  0  0  0
   -5.5390    2.2300    1.2080 C   0  0  0  0  0  0  0  0  0  0  0  0
   -3.7340   -1.1570    0.7330 N   0  0  0  0  0  0  0  0  0  0  0  0
   -0.2860   -1.2490   -0.6590 C   0  0  0  0  0  0  0  0  0  0  0  0
    6.0330    0.8120   -1.3480 C   0  0  0  0  0  0  0  0  0  0  0  0
    6.6000    1.7320   -0.3180 C   0  0  0  0  0  0  0  0  0  0  0  0
    6.8170    1.0950    1.0300 C   0  0  0  0  0  0  0  0  0  0  0  0
    5.5440    0.4520    1.5420 C   0  0  0  0  0  0  0  0  0  0  0  0
    4.4360    0.6430    0.5340 C   0  0  0  0  0  0  0  0  0  0  0  0
  2  1  1  1
  2  3  1  0
  2 25  1  0
  2 29  1  0
  3  4  1  0
  4  5  1  0
  5  6  2  0
  5  7  1  0
  7  8  2  0
  7 24  1  0
  8  9  1  0
  9 10  2  0
 10 11  1  0
 12 11  1  1
 11 24  2  0
 12 13  1  0
 12 23  1  0
 13 14  1  0
 14 15  2  0
 14 16  1  0
 16 17  2  0
 16 22  1  0
 17 18  1  0
 17 23  1  0
 18 19  1  0
 19 20  1  0
 20 21  1  0
 21 22  1  0
 25 26  1  0
 26 27  1  0
 27 28  1  0
 28 29  1  0
M  CHG  1  10   1
M  END
