
     RDKit          3D

 29 32  0  0  0  0  0  0  0  0999 V2000
    5.9510    2.8400    0.2910 C   0  0  0  0  0  0  0  0  0  0  0  0
    6.4870    1.4710    0.4290 C   0  0  0  0  0  0  0  0  0  0  0  0
    5.8350    0.3480    0.2790 C   0  0  0  0  0  0  0  0  0  0  0  0
    6.6360   -0.8800    0.4780 C   0  0  0  0  0  0  0  0  0  0  0  0
    8.3290   -0.6830    0.8430 Cl  0  0  0  0  0  0  0  0  0  0  0  0
    6.1500   -2.1110    0.3970 C   0  0  0  0  0  0  0  0  0  0  0  0
    4.8040   -2.6110    0.1140 C   0  0  0  0  0  0  0  0  0  0  0  0
    4.0800   -1.9330   -1.0030 C   0  0  0  0  0  0  0  0  0  0  0  0
    3.7040   -0.5770   -0.7710 N   0  0  0  0  0  0  0  0  0  0  0  0
    4.4160    0.4240   -0.0570 C   0  0  0  0  0  0  0  0  0  0  0  0
    3.7920    1.4850    0.3380 N   0  0  0  0  0  0  0  0  0  0  0  0
    2.4140    1.5740    0.0200 C   0  0  0  0  0  0  0  0  0  0  0  0
    1.4510    0.7770    0.5150 N   0  0  0  0  0  0  0  0  0  0  0  0
    0.2890    1.1880   -0.0340 C   0  0  0  0  0  0  0  0  0  0  0  0
   -1.0730    0.6280    0.1920 C   0  0  0  0  0  0  0  0  0  0  0  0
   -2.0020    1.3690   -0.5960 N   0  0  0  0  0  0  0  0  0  0  0  0
   -3.2950    0.7900   -0.7330 C   0  0  1  0  0  0  0  0  0  0  0  0
   -3.4680    0.1350   -2.0840 C   0  0  0  0  0  0  0  0  0  0  0  0
   -3.0740   -1.3090   -2.1040 C   0  0  0  0  0  0  0  0  0  0  0  0
   -3.7510   -2.1300   -1.0320 C   0  0  0  0  0  0  0  0  0  0  0  0
   -4.4430   -1.2070   -0.1610 N   0  0  0  0  0  0  0  0  0  0  0  0
   -5.8190   -1.4180    0.0860 C   0  0  0  0  0  0  0  0  0  0  0  0
   -6.4170   -2.4330   -0.4120 O   0  0  0  0  0  0  0  0  0  0  0  0
   -6.5520   -0.4420    0.9310 C   0  0  0  0  0  0  0  0  0  0  0  0
   -5.5890   -0.0710    2.0630 C   0  0  0  0  0  0  0  0  0  0  0  0
   -4.4300    0.6550    1.4640 C   0  0  0  0  0  0  0  0  0  0  0  0
   -3.6890   -0.1180    0.4080 C   0  0  2  0  0  0  0  0  0  0  0  0
    0.5910    2.2140   -0.8360 N   0  0  0  0  0  0  0  0  0  0  0  0
    1.8860    2.4630   -0.8150 N   0  0  0  0  0  0  0  0  0  0  0  0
  1  2  1  0
  2  3  2  3
  3  4  1  0
  3 10  1  0
  4  5  1  0
  4  6  2  0
  6  7  1  0
  7  8  1  0
  8  9  1  0
  9 10  1  0
 10 11  2  3
 11 12  1  0
 12 13  2  0
 12 29  1  0
 13 14  1  0
 14 15  1  0
 14 28  2  0
 15 16  1  0
 17 16  1  1
 17 18  1  0
 17 27  1  0
 18 19  1  0
 19 20  1  0
 20 21  1  0
 21 22  1  0
 21 27  1  0
 22 23  2  0
 22 24  1  0
 24 25  1  0
 25 26  1  0
 27 26  1  1
 28 29  1  0
M  CHG  1  16   1
M  END
