
     RDKit          3D

 29 31  0  0  0  0  0  0  0  0999 V2000
   -5.9100    1.1100    1.5950 C   0  0  0  0  0  0  0  0  0  0  0  0
   -6.2110    1.3190    0.1840 N   0  0  0  0  0  0  0  0  0  0  0  0
   -5.1420    1.0220   -0.6850 C   0  0  1  0  0  0  0  0  0  0  0  0
   -4.2470    2.2470   -0.7350 C   0  0  0  0  0  0  0  0  0  0  0  0
   -4.3740   -0.1640   -0.5860 C   0  0  0  0  0  0  0  0  0  0  0  0
   -2.9920   -0.0990   -0.4400 C   0  0  0  0  0  0  0  0  0  0  0  0
   -2.1730   -1.1950   -0.3330 C   0  0  0  0  0  0  0  0  0  0  0  0
   -0.7160   -0.9990   -0.1820 C   0  0  0  0  0  0  0  0  0  0  0  0
    0.1240   -2.0870   -0.0720 C   0  0  0  0  0  0  0  0  0  0  0  0
    1.4930   -1.9140    0.0700 C   0  0  0  0  0  0  0  0  0  0  0  0
    2.0610   -0.6640    0.1070 C   0  0  0  0  0  0  0  0  0  0  0  0
    3.5140   -0.4730    0.2580 C   0  0  0  0  0  0  0  0  0  0  0  0
    4.4140   -1.2180   -0.4670 C   0  0  0  0  0  0  0  0  0  0  0  0
    5.7850   -1.0180   -0.3100 C   0  0  0  0  0  0  0  0  0  0  0  0
    6.2640   -0.0760    0.5690 C   0  0  0  0  0  0  0  0  0  0  0  0
    7.6560    0.2300    0.7320 C   0  0  0  0  0  0  0  0  0  0  0  0
    8.4190   -0.1690    1.5620 O   0  0  0  0  0  0  0  0  0  0  0  0
    8.2740    1.1410   -0.2050 N   0  0  0  0  0  0  0  0  0  0  0  0
    9.6170    1.4610   -0.0770 C   0  0  0  0  0  0  0  0  0  0  0  0
   10.1070    2.2400   -0.8830 N   0  0  0  0  0  0  0  0  0  0  0  0
    5.3530    0.6630    1.2910 C   0  0  0  0  0  0  0  0  0  0  0  0
    3.9890    0.4700    1.1400 C   0  0  0  0  0  0  0  0  0  0  0  0
    1.1930    0.3950   -0.0050 C   0  0  0  0  0  0  0  0  0  0  0  0
    1.6880    1.5620    0.0270 O   0  0  0  0  0  0  0  0  0  0  0  0
   -0.1490    0.2150   -0.1440 N   0  0  0  0  0  0  0  0  0  0  0  0
   -2.7350   -2.4360   -0.3710 C   0  0  0  0  0  0  0  0  0  0  0  0
   -4.1230   -2.5450   -0.5170 C   0  0  0  0  0  0  0  0  0  0  0  0
   -4.9270   -1.4260   -0.6230 C   0  0  0  0  0  0  0  0  0  0  0  0
   -6.3780   -1.4820   -0.7790 C   0  0  0  0  0  0  0  0  0  0  0  0
  1  2  1  0
  2  3  1  0
  3  4  1  1
  3  5  1  0
  5  6  2  0
  5 28  1  0
  6  7  1  0
  7  8  1  0
  7 26  2  0
  8  9  2  0
  8 25  1  0
  9 10  1  0
 10 11  2  0
 11 12  1  0
 11 23  1  0
 12 13  2  0
 12 22  1  0
 13 14  1  0
 14 15  2  0
 15 16  1  0
 15 21  1  0
 16 17  2  0
 16 18  1  0
 18 19  1  0
 19 20  2  0
 21 22  2  0
 23 24  2  0
 23 25  1  0
 26 27  1  0
 27 28  2  0
 28 29  1  0
M  CHG  1   2   1
M  END
