
     RDKit          3D

 29 32  0  0  0  0  0  0  0  0999 V2000
   -3.7140    1.4500   -1.3770 C   0  0  0  0  0  0  0  0  0  0  0  0
   -3.9760    0.5650   -0.4690 C   0  0  0  0  0  0  0  0  0  0  0  0
   -5.3550    0.1870   -0.2670 N   0  0  0  0  0  0  0  0  0  0  0  0
   -5.7870   -1.0580    0.1900 N   0  0  0  0  0  0  0  0  0  0  0  0
   -5.0410   -1.5500    1.3040 C   0  0  0  0  0  0  0  0  0  0  0  0
   -3.7680   -2.2810    0.9860 C   0  0  0  0  0  0  0  0  0  0  0  0
   -2.6640   -1.3800    0.6050 N   0  0  0  0  0  0  0  0  0  0  0  0
   -1.4070   -1.9560    0.5660 C   0  0  0  0  0  0  0  0  0  0  0  0
   -0.2710   -1.3040   -0.0610 C   0  0  0  0  0  0  0  0  0  0  0  0
    0.9280   -0.9810    0.4440 N   0  0  0  0  0  0  0  0  0  0  0  0
    1.6780   -0.4070   -0.4970 C   0  0  0  0  0  0  0  0  0  0  0  0
    3.0390    0.1100   -0.4280 C   0  0  0  0  0  0  0  0  0  0  0  0
    3.6480    0.6760   -1.5290 C   0  0  0  0  0  0  0  0  0  0  0  0
    4.9360    1.1670   -1.4740 C   0  0  0  0  0  0  0  0  0  0  0  0
    5.6760    1.1150   -0.3130 C   0  0  0  0  0  0  0  0  0  0  0  0
    6.9320    1.5850   -0.2270 N   0  0  0  0  0  0  0  0  0  0  0  0
    7.6610    1.5350    0.9130 C   0  0  0  0  0  0  0  0  0  0  0  0
    8.8410    1.9980    0.9190 O   0  0  0  0  0  0  0  0  0  0  0  0
    7.1100    0.9810    2.0500 C   0  0  0  0  0  0  0  0  0  0  0  0
    8.0540    0.9160    3.5250 Cl  0  0  0  0  0  0  0  0  0  0  0  0
    5.8210    0.4950    1.9730 C   0  0  0  0  0  0  0  0  0  0  0  0
    5.0770    0.5480    0.8050 C   0  0  0  0  0  0  0  0  0  0  0  0
    3.7870    0.0610    0.7310 C   0  0  0  0  0  0  0  0  0  0  0  0
    0.9100   -0.3850   -1.5930 N   0  0  0  0  0  0  0  0  0  0  0  0
   -0.2560   -0.9180   -1.3460 N   0  0  0  0  0  0  0  0  0  0  0  0
   -1.3430   -1.0690   -2.3330 C   0  0  0  0  0  0  0  0  0  0  0  0
   -2.8410   -0.0080    0.2970 C   0  0  0  0  0  0  0  0  0  0  0  0
   -1.9560    0.7980    0.7820 C   0  0  0  0  0  0  0  0  0  0  0  0
   -2.0050    2.2620    0.6270 C   0  0  0  0  0  0  0  0  0  0  0  0
  1  2  2  0
  2  3  1  0
  2 27  1  0
  3  4  1  0
  4  5  1  0
  5  6  1  0
  6  7  1  0
  7  8  1  0
  7 27  1  0
  8  9  1  0
  9 10  2  0
  9 25  1  0
 10 11  1  0
 11 12  1  0
 11 24  2  0
 12 13  2  0
 12 23  1  0
 13 14  1  0
 14 15  2  0
 15 16  1  0
 15 22  1  0
 16 17  1  0
 17 18  2  0
 17 19  1  0
 19 20  1  0
 19 21  2  0
 21 22  1  0
 22 23  2  0
 24 25  1  0
 25 26  1  0
 27 28  2  3
 28 29  1  0
M  CHG  1   4   1
M  END
