
     RDKit          3D

 29 32  0  0  0  0  0  0  0  0999 V2000
    5.0660   -1.1450    2.0560 C   0  0  0  0  0  0  0  0  0  0  0  0
    5.1010    0.1650    1.3770 C   0  0  0  0  0  0  0  0  0  0  0  0
    4.0480    0.6490    0.8640 N   0  0  0  0  0  0  0  0  0  0  0  0
    2.7840    0.1120    0.8340 N   0  0  0  0  0  0  0  0  0  0  0  0
    2.2760   -0.6280   -0.2790 C   0  0  0  0  0  0  0  0  0  0  0  0
    3.1010   -1.3130   -0.9620 N   0  0  0  0  0  0  0  0  0  0  0  0
    2.7560   -2.1070   -2.1010 C   0  0  0  0  0  0  0  0  0  0  0  0
    1.3240   -2.1040   -2.4910 C   0  0  0  0  0  0  0  0  0  0  0  0
    0.4570   -1.2680   -1.6220 C   0  0  0  0  0  0  0  0  0  0  0  0
   -0.9270   -1.1580   -1.8650 N   0  0  0  0  0  0  0  0  0  0  0  0
   -1.9360   -1.1290   -0.8640 C   0  0  0  0  0  0  0  0  0  0  0  0
   -1.6850   -1.3200    0.4730 C   0  0  0  0  0  0  0  0  0  0  0  0
   -2.7200   -1.2740    1.4160 C   0  0  0  0  0  0  0  0  0  0  0  0
   -4.0340   -1.0370    1.0490 C   0  0  0  0  0  0  0  0  0  0  0  0
   -5.2730   -1.0430    2.2990 Cl  0  0  0  0  0  0  0  0  0  0  0  0
   -4.2860   -0.8460   -0.2820 C   0  0  0  0  0  0  0  0  0  0  0  0
   -5.6640   -0.5540   -0.7180 C   0  0  0  0  0  0  0  0  0  0  0  0
   -6.1240    0.8330   -0.6320 C   0  0  1  0  0  0  0  0  0  0  0  0
   -6.1320    1.5250    0.6810 C   0  0  0  0  0  0  0  0  0  0  0  0
   -6.4280    2.9550    0.1850 C   0  0  0  0  0  0  0  0  0  0  0  0
   -5.7400    3.0870   -1.0080 O   0  0  0  0  0  0  0  0  0  0  0  0
   -5.3280    1.8420   -1.4490 C   0  0  0  0  0  0  0  0  0  0  0  0
   -3.2710   -0.8910   -1.2090 C   0  0  0  0  0  0  0  0  0  0  0  0
    0.9080   -0.6020   -0.6170 N   0  0  0  0  0  0  0  0  0  0  0  0
    6.3550    0.8910    1.3070 C   0  0  0  0  0  0  0  0  0  0  0  0
    6.5960    2.1000    0.7360 N   0  0  0  0  0  0  0  0  0  0  0  0
    7.8770    2.4540    0.8640 C   0  0  0  0  0  0  0  0  0  0  0  0
    8.4880    1.4370    1.5430 C   0  0  0  0  0  0  0  0  0  0  0  0
    7.5650    0.5090    1.8010 N   0  0  0  0  0  0  0  0  0  0  0  0
  1  2  1  0
  2  3  2  3
  2 25  1  0
  3  4  1  0
  4  5  1  0
  5  6  2  0
  5 24  1  0
  6  7  1  0
  7  8  1  0
  8  9  1  0
  9 10  1  0
  9 24  2  0
 10 11  1  0
 11 12  2  0
 11 23  1  0
 12 13  1  0
 13 14  2  0
 14 15  1  0
 14 16  1  0
 16 17  1  0
 16 23  2  0
 18 17  1  1
 18 19  1  0
 18 22  1  0
 19 20  1  0
 20 21  1  0
 21 22  1  0
 25 26  1  0
 25 29  2  0
 26 27  1  0
 27 28  2  0
 28 29  1  0
M  CHG  1  29   1
M  END
