
     RDKit          3D

 30 32  0  0  0  0  0  0  0  0999 V2000
    6.7610    0.2030    1.7130 C   0  0  0  0  0  0  0  0  0  0  0  0
    6.2220    0.4370    0.2740 C   0  0  1  0  0  0  0  0  0  0  0  0
    6.3990    1.9420    0.0700 C   0  0  0  0  0  0  0  0  0  0  0  0
    7.1280   -0.3200   -0.6470 C   0  0  0  0  0  0  0  0  0  0  0  0
    4.8060    0.0240    0.2370 C   0  0  0  0  0  0  0  0  0  0  0  0
    4.1530   -0.3530    1.4120 C   0  0  0  0  0  0  0  0  0  0  0  0
    2.8300   -0.6890    1.4650 C   0  0  0  0  0  0  0  0  0  0  0  0
    2.0620   -0.6620    0.2900 C   0  0  0  0  0  0  0  0  0  0  0  0
    0.6510   -1.0300    0.3740 C   0  0  0  0  0  0  0  0  0  0  0  0
    0.1660   -1.5220    1.4290 O   0  0  0  0  0  0  0  0  0  0  0  0
   -0.1920   -0.8340   -0.7410 N   0  0  0  0  0  0  0  0  0  0  0  0
   -1.5500   -1.1630   -0.7380 N   0  0  0  0  0  0  0  0  0  0  0  0
   -2.5300   -0.3100   -0.1180 C   0  0  0  0  0  0  0  0  0  0  0  0
   -2.0680    0.7150    0.3990 O   0  0  0  0  0  0  0  0  0  0  0  0
   -3.9050   -0.6570   -0.1260 N   0  0  0  0  0  0  0  0  0  0  0  0
   -4.8880    0.1400    0.4680 C   0  0  0  0  0  0  0  0  0  0  0  0
   -4.6380    1.2450    1.2500 C   0  0  0  0  0  0  0  0  0  0  0  0
   -5.6820    1.9770    1.8340 C   0  0  0  0  0  0  0  0  0  0  0  0
   -6.9900    1.6280    1.6570 C   0  0  0  0  0  0  0  0  0  0  0  0
   -7.2670    0.5250    0.8790 C   0  0  0  0  0  0  0  0  0  0  0  0
   -8.5880    0.1500    0.6760 C   0  0  0  0  0  0  0  0  0  0  0  0
   -8.8920   -0.9490   -0.1050 C   0  0  0  0  0  0  0  0  0  0  0  0
   -7.8780   -1.6590   -0.6750 C   0  0  0  0  0  0  0  0  0  0  0  0
   -6.5370   -1.3080   -0.4900 C   0  0  0  0  0  0  0  0  0  0  0  0
   -6.2370   -0.2170    0.2860 C   0  0  0  0  0  0  0  0  0  0  0  0
    2.7130   -0.2920   -0.8530 C   0  0  0  0  0  0  0  0  0  0  0  0
    4.0720    0.0530   -0.9150 C   0  0  0  0  0  0  0  0  0  0  0  0
    4.5730    0.3390   -2.1850 N   0  0  0  0  0  0  0  0  0  0  0  0
    5.4480    1.1370   -2.4310 O   0  0  0  0  0  0  0  0  0  0  0  0
    4.0190   -0.3440   -3.2740 O   0  0  0  0  0  0  0  0  0  0  0  0
  2  1  1  1
  2  3  1  0
  2  4  1  0
  2  5  1  0
  5  6  2  0
  5 27  1  0
  6  7  1  0
  7  8  2  0
  8  9  1  0
  8 26  1  0
  9 10  2  0
  9 11  1  0
 11 12  1  0
 12 13  1  0
 13 14  2  0
 13 15  1  0
 15 16  1  0
 16 17  2  0
 16 25  1  0
 17 18  1  0
 18 19  2  0
 19 20  1  0
 20 21  2  0
 20 25  1  0
 21 22  1  0
 22 23  2  0
 23 24  1  0
 24 25  2  0
 26 27  2  0
 27 28  1  0
 28 29  2  0
 28 30  1  0
M  CHG  2  28   1  30  -1
M  END
