
     RDKit          3D

 29 32  0  0  0  0  0  0  0  0999 V2000
   -6.7800    1.6530   -1.0430 C   0  0  0  0  0  0  0  0  0  0  0  0
   -5.9050    2.2710    0.0250 C   0  0  0  0  0  0  0  0  0  0  0  0
   -4.8060    1.6360    0.3690 C   0  0  0  0  0  0  0  0  0  0  0  0
   -4.3780    0.4440   -0.1660 C   0  0  0  0  0  0  0  0  0  0  0  0
   -3.1940    0.0740    0.4260 C   0  0  0  0  0  0  0  0  0  0  0  0
   -2.4670   -1.1770    0.0650 C   0  0  2  0  0  0  0  0  0  0  0  0
   -2.3720   -1.9970    1.3270 C   0  0  0  0  0  0  0  0  0  0  0  0
   -1.8250   -3.3490    1.0510 C   0  0  0  0  0  0  0  0  0  0  0  0
   -1.1000   -3.3440   -0.2710 C   0  0  0  0  0  0  0  0  0  0  0  0
   -0.3530   -2.1190   -0.3700 N   0  0  0  0  0  0  0  0  0  0  0  0
    1.0600   -2.1490   -0.3360 C   0  0  0  0  0  0  0  0  0  0  0  0
    1.7480   -3.3080   -0.2020 N   0  0  0  0  0  0  0  0  0  0  0  0
    3.0790   -3.4060   -0.1630 C   0  0  0  0  0  0  0  0  0  0  0  0
    3.8060   -2.2120   -0.2690 C   0  0  0  0  0  0  0  0  0  0  0  0
    3.1550   -1.0210   -0.4050 C   0  0  0  0  0  0  0  0  0  0  0  0
    3.8900    0.2590   -0.5190 C   0  0  0  0  0  0  0  0  0  0  0  0
    3.2140    1.3360   -0.6460 O   0  0  0  0  0  0  0  0  0  0  0  0
    5.2880    0.3610   -0.4960 N   0  0  0  0  0  0  0  0  0  0  0  0
    6.0100    1.5770   -0.6040 C   0  0  0  0  0  0  0  0  0  0  0  0
    7.3820    1.6150   -0.5740 N   0  0  0  0  0  0  0  0  0  0  0  0
    7.7790    2.8740   -0.6950 C   0  0  0  0  0  0  0  0  0  0  0  0
    6.6450    3.6310   -0.8020 C   0  0  0  0  0  0  0  0  0  0  0  0
    5.5610    2.8210   -0.7440 N   0  0  0  0  0  0  0  0  0  0  0  0
    1.8120   -1.0370   -0.4320 N   0  0  0  0  0  0  0  0  0  0  0  0
   -1.0860   -0.8820   -0.5020 C   0  0  0  0  0  0  0  0  0  0  0  0
   -2.8710    1.0010    1.3170 N   0  0  0  0  0  0  0  0  0  0  0  0
   -3.8420    1.9680    1.3000 C   0  0  0  0  0  0  0  0  0  0  0  0
   -3.7960    3.0190    2.0790 C   0  0  0  0  0  0  0  0  0  0  0  0
   -4.9550    4.3130    2.1590 Cl  0  0  0  0  0  0  0  0  0  0  0  0
  1  2  1  0
  2  3  2  3
  3  4  1  0
  3 27  1  0
  4  5  2  0
  6  5  1  1
  5 26  1  0
  6  7  1  0
  6 25  1  0
  7  8  1  0
  8  9  1  0
  9 10  1  0
 10 11  1  0
 10 25  1  0
 11 12  2  0
 11 24  1  0
 12 13  1  0
 13 14  2  0
 14 15  1  0
 15 16  1  0
 15 24  2  0
 16 17  2  0
 16 18  1  0
 18 19  1  0
 19 20  1  0
 19 23  2  0
 20 21  1  0
 21 22  2  0
 22 23  1  0
 26 27  1  0
 27 28  2  3
 28 29  1  0
M  CHG  1  23   1
M  END
