
     RDKit          3D

 22 24  0  0  0  0  0  0  0  0999 V2000
    6.6200    0.4420   -2.4740 O   0  0  0  0  0  0  0  0  0  0  0  0
    5.6690    1.4720   -1.9920 S   0  0  1  0  0  0  0  0  0  0  0  0
    5.0710    2.2320   -3.1430 O   0  0  0  0  0  0  0  0  0  0  0  0
    4.3350    0.7500   -1.0900 C   0  0  0  0  0  0  0  0  0  0  0  0
    3.1460    1.4230   -0.9170 C   0  0  0  0  0  0  0  0  0  0  0  0
    2.0840    0.8540   -0.2010 C   0  0  0  0  0  0  0  0  0  0  0  0
    2.1960   -0.3970    0.3530 C   0  0  0  0  0  0  0  0  0  0  0  0
    1.0700   -1.0100    1.1170 C   0  0  2  0  0  0  0  0  0  0  0  0
   -0.1820   -0.8710    0.5040 N   0  0  0  0  0  0  0  0  0  0  0  0
   -1.3230   -0.3990    1.1820 C   0  0  0  0  0  0  0  0  0  0  0  0
   -2.6190   -0.2630    0.4930 C   0  0  0  0  0  0  0  0  0  0  0  0
   -3.6220    0.1570    1.1260 N   0  0  0  0  0  0  0  0  0  0  0  0
   -4.9490    0.3360    0.5720 C   0  0  0  0  0  0  0  0  0  0  0  0
   -5.0740   -0.2980   -0.7270 N   0  0  0  0  0  0  0  0  0  0  0  0
   -3.9310    0.1280   -1.5030 C   0  0  0  0  0  0  0  0  0  0  0  0
   -2.7180   -0.6200   -0.9300 C   0  0  0  0  0  0  0  0  0  0  0  0
   -1.2890   -0.0510    2.4730 C   0  0  0  0  0  0  0  0  0  0  0  0
    0.0050   -0.1950    3.1180 C   0  0  0  0  0  0  0  0  0  0  0  0
    1.0880   -0.6270    2.5260 C   0  0  0  0  0  0  0  0  0  0  0  0
    2.6080   -0.7460    3.4630 Cl  0  0  0  0  0  0  0  0  0  0  0  0
    3.3810   -1.0690    0.1810 C   0  0  0  0  0  0  0  0  0  0  0  0
    4.4460   -0.5050   -0.5340 C   0  0  0  0  0  0  0  0  0  0  0  0
  1  2  2  0
  2  3  2  0
  2  4  1  6
  4  5  2  0
  4 22  1  0
  5  6  1  0
  6  7  2  0
  8  7  1  6
  7 21  1  0
  8  9  1  0
  8 19  1  0
  9 10  1  0
 10 11  1  0
 10 17  2  0
 11 12  2  0
 11 16  1  0
 12 13  1  0
 13 14  1  0
 14 15  1  0
 15 16  1  0
 17 18  1  0
 18 19  2  0
 19 20  1  0
 21 22  2  0
M  CHG  1  14   1
M  END
