
     RDKit          3D

 22 24  0  0  0  0  0  0  0  0999 V2000
    1.5900   -1.4750   -0.1200 C   0  0  0  0  0  0  0  0  0  0  0  0
    1.6690   -0.2610   -0.8740 N   0  0  0  0  0  0  0  0  0  0  0  0
    2.9920    0.0100   -1.2850 C   0  0  0  0  0  0  0  0  0  0  0  0
    4.0140   -0.2400   -0.2460 C   0  0  0  0  0  0  0  0  0  0  0  0
    4.9840   -1.1210   -0.4110 C   0  0  0  0  0  0  0  0  0  0  0  0
    5.2520   -2.1360   -1.8370 Cl  0  0  0  0  0  0  0  0  0  0  0  0
    5.8070   -1.1020    0.8120 C   0  0  0  0  0  0  0  0  0  0  0  0
    5.1840   -0.1070    1.6750 C   0  0  0  0  0  0  0  0  0  0  0  0
    4.1330    0.3980    1.0560 C   0  0  0  0  0  0  0  0  0  0  0  0
    0.8000    1.0530   -0.1920 S   0  0  2  0  0  0  0  0  0  0  0  0
    1.4950    2.3160   -0.5840 O   0  0  0  0  0  0  0  0  0  0  0  0
    0.7800    0.8460    1.2980 O   0  0  0  0  0  0  0  0  0  0  0  0
   -0.7730    1.0460   -0.8610 N   0  0  0  0  0  0  0  0  0  0  0  0
   -1.7380    0.2880   -0.0910 C   0  0  2  0  0  0  0  0  0  0  0  0
   -2.1920   -0.8210   -1.0050 C   0  0  0  0  0  0  0  0  0  0  0  0
   -3.4070   -1.5330   -0.6160 C   0  0  0  0  0  0  0  0  0  0  0  0
   -4.1590   -1.0310    0.4770 N   0  0  0  0  0  0  0  0  0  0  0  0
   -4.1380    0.3880    0.6100 C   0  0  0  0  0  0  0  0  0  0  0  0
   -5.0100    1.2940    0.9510 C   0  0  0  0  0  0  0  0  0  0  0  0
   -4.4250    2.6300    0.9140 C   0  0  0  0  0  0  0  0  0  0  0  0
   -3.0260    2.4010    0.4880 C   0  0  0  0  0  0  0  0  0  0  0  0
   -2.9010    1.0990    0.3240 C   0  0  0  0  0  0  0  0  0  0  0  0
  1  2  1  0
  2  3  1  0
  2 10  1  0
  3  4  1  0
  4  5  2  0
  4  9  1  0
  5  6  1  0
  5  7  1  0
  7  8  1  0
  8  9  2  0
 10 11  2  0
 10 12  2  0
 10 13  1  6
 14 13  1  6
 14 15  1  0
 14 22  1  0
 15 16  1  0
 16 17  1  0
 17 18  1  0
 18 19  2  0
 18 22  1  0
 19 20  1  0
 20 21  1  0
 21 22  2  0
M  CHG  1  17   1
M  END
