
     RDKit          3D

 22 25  0  0  0  0  0  0  0  0999 V2000
    0.9710   -3.9150   -0.7750 O   0  0  0  0  0  0  0  0  0  0  0  0
    0.9120   -2.6580   -0.7610 C   0  0  0  0  0  0  0  0  0  0  0  0
   -0.1600   -1.9760   -1.1840 N   0  0  0  0  0  0  0  0  0  0  0  0
   -0.1020   -0.6530   -1.1190 C   0  0  0  0  0  0  0  0  0  0  0  0
   -1.2730    0.1270   -1.5810 C   0  0  0  0  0  0  0  0  0  0  0  0
   -2.1470    0.3130   -0.4490 N   0  0  2  0  0  0  0  0  0  0  0  0
   -3.0780   -0.7500   -0.2470 C   0  0  0  0  0  0  0  0  0  0  0  0
   -3.9420   -0.1940    0.8920 C   0  0  0  0  0  0  0  0  0  0  0  0
   -3.9190    1.3070    0.6260 C   0  0  2  0  0  0  0  0  0  0  0  0
   -5.1760    1.8230    0.4050 O   0  0  0  0  0  0  0  0  0  0  0  0
   -3.0140    1.4690   -0.6020 C   0  0  0  0  0  0  0  0  0  0  0  0
    0.9570    0.0010   -0.6600 N   0  0  0  0  0  0  0  0  0  0  0  0
    2.0980   -0.6200   -0.2070 C   0  0  0  0  0  0  0  0  0  0  0  0
    2.0430   -1.9380   -0.2700 C   0  0  0  0  0  0  0  0  0  0  0  0
    3.5700   -2.4660    0.3460 S   0  0  0  0  0  0  0  0  0  0  0  0
    4.2140   -0.8760    0.6620 C   0  0  0  0  0  0  0  0  0  0  0  0
    5.4490   -0.4570    1.1860 C   0  0  0  0  0  0  0  0  0  0  0  0
    5.7080    0.8860    1.3350 C   0  0  0  0  0  0  0  0  0  0  0  0
    4.7280    1.7430    0.9550 C   0  0  0  0  0  0  0  0  0  0  0  0
    5.0610    3.4770    1.1470 Cl  0  0  0  0  0  0  0  0  0  0  0  0
    3.5290    1.3130    0.4460 C   0  0  0  0  0  0  0  0  0  0  0  0
    3.2360   -0.0440    0.2830 C   0  0  0  0  0  0  0  0  0  0  0  0
  1  2  2  0
  2  3  1  0
  2 14  1  0
  3  4  1  0
  4  5  1  0
  4 12  2  0
  6  5  1  6
  6  7  1  0
  6 11  1  0
  7  8  1  0
  8  9  1  0
  9 10  1  6
  9 11  1  0
 12 13  1  0
 13 14  2  0
 13 22  1  0
 14 15  1  0
 15 16  1  0
 16 17  2  0
 16 22  1  0
 17 18  1  0
 18 19  2  0
 19 20  1  0
 19 21  1  0
 21 22  2  0
M  CHG  1   6   1
M  END
