
     RDKit          3D

 22 25  0  0  0  0  0  0  0  0999 V2000
    6.0380   -1.0360   -1.7030 C   0  0  0  0  0  0  0  0  0  0  0  0
    4.6770   -0.7750   -1.4380 O   0  0  0  0  0  0  0  0  0  0  0  0
    4.3470   -0.1730   -0.2340 C   0  0  0  0  0  0  0  0  0  0  0  0
    5.3370    0.1510    0.6610 C   0  0  0  0  0  0  0  0  0  0  0  0
    5.0760    0.7480    1.8710 C   0  0  0  0  0  0  0  0  0  0  0  0
    3.7890    1.0270    2.1880 C   0  0  0  0  0  0  0  0  0  0  0  0
    3.3040    1.7870    3.6950 Cl  0  0  0  0  0  0  0  0  0  0  0  0
    2.7930    0.7100    1.3080 C   0  0  0  0  0  0  0  0  0  0  0  0
    1.0440    0.8920    1.3230 S   0  0  0  0  0  0  0  0  0  0  0  0
    0.8190    0.1130   -0.3740 C   0  0  0  0  0  0  0  0  0  0  0  0
   -0.3500   -0.0100   -0.8830 N   0  0  0  0  0  0  0  0  0  0  0  0
   -1.5240    0.4220   -0.2160 C   0  0  0  0  0  0  0  0  0  0  0  0
   -1.7350    1.5530    0.5520 C   0  0  0  0  0  0  0  0  0  0  0  0
   -3.0090    1.5680    0.9970 N   0  0  0  0  0  0  0  0  0  0  0  0
   -3.6240    0.4870    0.5420 C   0  0  0  0  0  0  0  0  0  0  0  0
   -2.7120   -0.2500   -0.2230 C   0  0  0  0  0  0  0  0  0  0  0  0
   -3.2540   -1.5060   -0.8110 C   0  0  0  0  0  0  0  0  0  0  0  0
   -4.4530   -1.1390   -1.5420 N   0  0  0  0  0  0  0  0  0  0  0  0
   -5.4790   -0.5870   -0.7100 C   0  0  0  0  0  0  0  0  0  0  0  0
   -4.9880   -0.1200    0.6340 C   0  0  0  0  0  0  0  0  0  0  0  0
    1.9790   -0.1210   -0.6230 O   0  0  0  0  0  0  0  0  0  0  0  0
    2.9960    0.1060    0.0710 C   0  0  0  0  0  0  0  0  0  0  0  0
  1  2  1  0
  2  3  1  0
  3  4  2  0
  3 22  1  0
  4  5  1  0
  5  6  2  0
  6  7  1  0
  6  8  1  0
  8  9  1  0
  8 22  2  0
  9 10  1  0
 10 11  2  3
 10 21  1  0
 11 12  1  0
 12 13  2  0
 12 16  1  0
 13 14  1  0
 14 15  1  0
 15 16  2  0
 15 20  1  0
 16 17  1  0
 17 18  1  0
 18 19  1  0
 19 20  1  0
 21 22  1  0
M  CHG  1  18   1
M  END
