
     RDKit          3D

 22 24  0  0  0  0  0  0  0  0999 V2000
    6.5250   -2.1930   -0.4750 O   0  0  0  0  0  0  0  0  0  0  0  0
    5.7060   -1.1010   -0.3380 C   0  0  0  0  0  0  0  0  0  0  0  0
    6.2380    0.1860   -0.4060 C   0  0  0  0  0  0  0  0  0  0  0  0
    5.4300    1.2820   -0.2710 C   0  0  0  0  0  0  0  0  0  0  0  0
    6.1510    2.8710   -0.3660 Cl  0  0  0  0  0  0  0  0  0  0  0  0
    4.0850    1.0720   -0.0660 C   0  0  0  0  0  0  0  0  0  0  0  0
    3.5140   -0.1830    0.0090 C   0  0  0  0  0  0  0  0  0  0  0  0
    2.1580   -0.3910    0.2150 O   0  0  0  0  0  0  0  0  0  0  0  0
    1.3490    0.7630    0.3510 C   0  0  0  0  0  0  0  0  0  0  0  0
   -0.0740    0.4310    0.5670 C   0  0  0  0  0  0  0  0  0  0  0  0
   -0.5220    0.2710    1.8570 C   0  0  0  0  0  0  0  0  0  0  0  0
   -1.8470   -0.0390    2.0480 C   0  0  0  0  0  0  0  0  0  0  0  0
   -2.6800   -0.1780    0.9590 C   0  0  0  0  0  0  0  0  0  0  0  0
   -2.1840   -0.0070   -0.3270 C   0  0  0  0  0  0  0  0  0  0  0  0
   -0.8940    0.2940   -0.5090 N   0  0  0  0  0  0  0  0  0  0  0  0
   -2.9280   -0.1190   -1.6020 C   0  0  0  0  0  0  0  0  0  0  0  0
   -4.2040    0.6840   -1.4920 C   0  0  0  0  0  0  0  0  0  0  0  0
   -5.2340    0.0390   -0.7410 N   0  0  0  0  0  0  0  0  0  0  0  0
   -5.1730   -0.4650    0.4470 C   0  0  0  0  0  0  0  0  0  0  0  0
   -6.6410   -1.2080    1.1190 S   0  0  0  0  0  0  0  0  0  0  0  0
   -4.0200   -0.4970    1.3140 N   0  0  0  0  0  0  0  0  0  0  0  0
    4.3520   -1.2780   -0.1310 C   0  0  0  0  0  0  0  0  0  0  0  0
  1  2  1  0
  2  3  2  0
  2 22  1  0
  3  4  1  0
  4  5  1  0
  4  6  2  0
  6  7  1  0
  7  8  1  0
  7 22  2  0
  8  9  1  0
  9 10  1  0
 10 11  2  0
 10 15  1  0
 11 12  1  0
 12 13  2  0
 13 14  1  0
 13 21  1  0
 14 15  2  0
 14 16  1  0
 16 17  1  0
 17 18  1  0
 18 19  2  0
 19 20  1  0
 19 21  1  0
M  CHG  1  18   1
M  END
