
     RDKit          3D

 22 25  0  0  0  0  0  0  0  0999 V2000
   -0.3240    0.3340   -2.1170 C   0  0  0  0  0  0  0  0  0  0  0  0
   -0.2030    0.1300   -0.6090 C   0  0  1  0  0  0  0  0  0  0  0  0
   -0.9930   -0.9900   -0.2250 N   0  0  0  0  0  0  0  0  0  0  0  0
   -1.8850   -0.7760    0.8610 C   0  0  1  0  0  0  0  0  0  0  0  0
   -1.3430   -0.0210    2.0140 C   0  0  0  0  0  0  0  0  0  0  0  0
   -2.9290   -0.0260    2.9900 S   0  0  0  0  0  0  0  0  0  0  0  0
   -3.9340    0.2650    1.5070 C   0  0  0  0  0  0  0  0  0  0  0  0
   -5.1340    0.7980    1.2760 N   0  0  0  0  0  0  0  0  0  0  0  0
   -5.6460    0.9220    0.0490 N   0  0  0  0  0  0  0  0  0  0  0  0
   -4.9640    0.5060   -1.0310 C   0  0  0  0  0  0  0  0  0  0  0  0
   -3.7240   -0.0500   -0.8440 C   0  0  0  0  0  0  0  0  0  0  0  0
   -3.1770   -0.1830    0.4600 C   0  0  0  0  0  0  0  0  0  0  0  0
    1.2520   -0.0540   -0.3210 C   0  0  0  0  0  0  0  0  0  0  0  0
    1.9150   -1.2260   -0.6230 C   0  0  0  0  0  0  0  0  0  0  0  0
    3.2680   -1.3690   -0.3440 C   0  0  0  0  0  0  0  0  0  0  0  0
    4.0540   -2.8800   -0.7500 Cl  0  0  0  0  0  0  0  0  0  0  0  0
    3.9970   -0.3570    0.2390 C   0  0  0  0  0  0  0  0  0  0  0  0
    3.3480    0.8170    0.5450 C   0  0  0  0  0  0  0  0  0  0  0  0
    2.0050    0.9510    0.2650 C   0  0  0  0  0  0  0  0  0  0  0  0
    4.3150    1.6480    1.1150 O   0  0  0  0  0  0  0  0  0  0  0  0
    5.6160    1.1530    0.8050 C   0  0  0  0  0  0  0  0  0  0  0  0
    5.3380   -0.2340    0.6210 O   0  0  0  0  0  0  0  0  0  0  0  0
  2  1  1  6
  2  3  1  0
  2 13  1  0
  4  3  1  6
  4  5  1  0
  4 12  1  0
  5  6  1  0
  6  7  1  0
  7  8  2  0
  7 12  1  0
  8  9  1  0
  9 10  2  0
 10 11  1  0
 11 12  2  0
 13 14  2  0
 13 19  1  0
 14 15  1  0
 15 16  1  0
 15 17  2  0
 17 18  1  0
 17 22  1  0
 18 19  2  0
 18 20  1  0
 20 21  1  0
 21 22  1  0
M  CHG  1   3   1
M  END
