
     RDKit          3D

 12 12  0  0  0  0  0  0  0  0999 V2000
    3.6350    1.8670    1.0070 C   0  0  0  0  0  0  0  0  0  0  0  0
    3.5000    1.3540   -0.3970 C   0  0  0  0  0  0  0  0  0  0  0  0
    2.9670   -0.3600   -0.4950 S   0  0  0  0  0  0  0  0  0  0  0  0
    1.2770   -0.5810    0.1090 C   0  0  0  0  0  0  0  0  0  0  0  0
    0.5590    0.4350    0.5640 C   0  0  0  0  0  0  0  0  0  0  0  0
   -0.8480    0.2030    1.0600 C   0  0  0  0  0  0  0  0  0  0  0  0
   -1.5200   -0.7900    0.3420 N   0  0  0  0  0  0  0  0  0  0  0  0
   -2.1800   -0.5230   -0.8480 C   0  0  0  0  0  0  0  0  0  0  0  0
   -3.4040    0.3160   -0.8310 C   0  0  0  0  0  0  0  0  0  0  0  0
   -4.6940   -0.4350    0.2010 S   0  0  0  0  0  0  0  0  0  0  0  0
   -0.7860   -2.0030    0.2970 C   0  0  0  0  0  0  0  0  0  0  0  0
    0.6750   -1.9220    0.0980 C   0  0  0  0  0  0  0  0  0  0  0  0
  1  2  1  0
  2  3  1  0
  3  4  1  0
  4  5  2  0
  4 12  1  0
  5  6  1  0
  6  7  1  0
  7  8  1  0
  7 11  1  0
  8  9  1  0
  9 10  1  0
 11 12  1  0
M  END
