
     RDKit          3D

 16 18  0  0  0  0  0  0  0  0999 V2000
    3.1660    1.9770   -1.3910 O   0  0  0  0  0  0  0  0  0  0  0  0
    2.7350    1.0080   -0.7260 C   0  0  0  0  0  0  0  0  0  0  0  0
    3.5680    0.1040   -0.1240 N   0  0  0  0  0  0  0  0  0  0  0  0
    2.9510   -0.8680    0.5470 C   0  0  0  0  0  0  0  0  0  0  0  0
    1.6470   -1.0370    0.6800 N   0  0  0  0  0  0  0  0  0  0  0  0
    0.7470   -0.1520    0.0920 C   0  0  0  0  0  0  0  0  0  0  0  0
    1.3600    0.8390   -0.5910 C   0  0  0  0  0  0  0  0  0  0  0  0
   -0.0130    1.8220   -1.2390 S   0  0  0  0  0  0  0  0  0  0  0  0
   -1.2810    0.8040   -0.5270 C   0  0  0  0  0  0  0  0  0  0  0  0
   -2.6510    0.9350   -0.5960 C   0  0  0  0  0  0  0  0  0  0  0  0
   -3.2990    2.2820   -1.5030 Cl  0  0  0  0  0  0  0  0  0  0  0  0
   -3.4510    0.0200    0.0380 C   0  0  0  0  0  0  0  0  0  0  0  0
   -2.8090   -0.9960    0.7190 C   0  0  0  0  0  0  0  0  0  0  0  0
   -1.4440   -1.1120    0.7770 C   0  0  0  0  0  0  0  0  0  0  0  0
   -0.8200   -2.4600    1.6850 Cl  0  0  0  0  0  0  0  0  0  0  0  0
   -0.6060   -0.1720    0.1260 C   0  0  0  0  0  0  0  0  0  0  0  0
  1  2  2  0
  2  3  1  0
  2  7  1  0
  3  4  1  0
  4  5  2  0
  5  6  1  0
  6  7  2  0
  6 16  1  0
  7  8  1  0
  8  9  1  0
  9 10  2  0
  9 16  1  0
 10 11  1  0
 10 12  1  0
 12 13  2  0
 13 14  1  0
 14 15  1  0
 14 16  2  0
M  END
