
     RDKit          3D

 16 16  0  0  0  0  0  0  0  0999 V2000
   -4.3000    1.2810    0.7590 C   0  0  0  0  0  0  0  0  0  0  0  0
   -3.6350    0.8440   -0.5310 C   0  0  0  0  0  0  0  0  0  0  0  0
   -2.5620   -0.1770   -0.1400 C   0  0  0  0  0  0  0  0  0  0  0  0
   -1.8300   -0.6860   -1.3440 C   0  0  0  0  0  0  0  0  0  0  0  0
   -0.8030   -1.6860   -0.9090 C   0  0  0  0  0  0  0  0  0  0  0  0
    0.1810   -1.1890   -0.0000 N   0  0  0  0  0  0  0  0  0  0  0  0
    1.3280   -0.6180   -0.3990 C   0  0  0  0  0  0  0  0  0  0  0  0
    1.8100   -0.3750   -1.7120 N   0  0  0  0  0  0  0  0  0  0  0  0
    2.0050   -0.2840    0.7750 C   0  0  0  0  0  0  0  0  0  0  0  0
    3.3130    0.3670    0.8600 C   0  0  0  0  0  0  0  0  0  0  0  0
    3.7910    0.6010    1.9960 O   0  0  0  0  0  0  0  0  0  0  0  0
    4.0390    0.7300   -0.2460 O   0  0  0  0  0  0  0  0  0  0  0  0
    5.3040    1.3590   -0.1890 C   0  0  0  0  0  0  0  0  0  0  0  0
    1.2410   -0.6660    1.8130 N   0  0  0  0  0  0  0  0  0  0  0  0
    0.1110   -1.2270    1.3520 C   0  0  0  0  0  0  0  0  0  0  0  0
   -0.8170   -1.6910    2.0640 O   0  0  0  0  0  0  0  0  0  0  0  0
  1  2  1  0
  2  3  1  0
  3  4  1  0
  4  5  1  0
  5  6  1  0
  6  7  1  0
  6 15  1  0
  7  8  1  0
  7  9  2  0
  9 10  1  0
  9 14  1  0
 10 11  2  0
 10 12  1  0
 12 13  1  0
 14 15  1  0
 15 16  2  0
M  END
